ligand
 OpenBabel11021811393D
libRbt.so/2013.1/901 2013/11/27
 14 13  0  0  0  0  0  0  0  0999 V2000
   -6.7436    1.8103    9.4566 N   0  0  0  0  0  0  0  0  0  0  0  0
   -5.2769    2.0380    9.0895 C   0  0  0  0  0  0  0  0  0  0  0  0
   -4.5078    1.0618    9.9032 C   0  0  0  0  0  0  0  0  0  0  0  0
   -2.9985    1.1698    9.7589 C   0  0  0  0  0  0  0  0  0  0  0  0
   -2.3460    0.0873   10.5430 N   0  0  0  0  0  0  0  0  0  0  0  0
   -0.8317    0.3535   10.6184 C   0  0  0  0  0  0  0  0  0  0  0  0
   -0.2323   -1.1334   10.6578 C   0  0  0  0  0  0  0  0  0  0  0  0
    1.0754   -1.0755   10.5850 C   0  0  0  0  0  0  0  0  0  0  0  0
    1.3411   -2.6911   10.6107 C   0  0  0  0  0  0  0  0  0  0  0  0
    2.8742   -2.6661   10.2936 N   0  0  0  0  0  0  0  0  0  0  0  0
    3.3457   -3.8535    9.3626 C   0  0  0  0  0  0  0  0  0  0  0  0
    4.9687   -3.7140    9.2438 C   0  0  0  0  0  0  0  0  0  0  0  0
    5.3497   -4.8163    8.2988 C   0  0  0  0  0  0  0  0  0  0  0  0
    5.1165   -6.0968    9.0655 N   0  0  0  0  0  0  0  0  0  0  0  0
  1  2  1  0  0  0  0
  2  3  1  0  0  0  0
  3  4  1  0  0  0  0
  4  5  1  0  0  0  0
  5  6  1  0  0  0  0
  6  7  1  0  0  0  0
  7  8  1  0  0  0  0
  8  9  1  0  0  0  0
  9 10  1  0  0  0  0
 10 11  1  0  0  0  0
 11 12  1  0  0  0  0
 12 13  1  0  0  0  0
 13 14  1  0  0  0  0
M  END
>  <CHROM.1>
-176.42468559,-176.12387263,-169.25965915,-148.00897705,173.56543467,-178.67112559
171.37910399,-142.93659076,-175.93152203,-177.20651938,-69.73171422,0.08118432
-1.39457953,9.82052100,2.74491630,-0.41908295,0.85417043

>  <Name>
ligand

>  <RI>
0

>  <Rbt.Current_Directory>
/home/itssahil/PROJECTS/Mol_Feturizer/New_Systems/rnas/1FUF

>  <Rbt.Executable>
rbdock ($Id: //depot/dev/client3/rdock/2013.1/src/exe/rbdock.cxx#4 $)

>  <Rbt.Library>
libRbt.so (2013.1, Build901 2013/11/27)

>  <Rbt.Parameter_File>
/export/apps/rDock/src/rDock_2013.1_src/data/scripts/dock_solv.prm

>  <Rbt.Receptor>
prm/pocket_docking_2.prm

>  <SCORE>
-4.71737

>  <SCORE.INTER>
-1.44721

>  <SCORE.INTER.CONST>
1

>  <SCORE.INTER.POLAR>
0

>  <SCORE.INTER.ROT>
11

>  <SCORE.INTER.SOLV>
15.2849

>  <SCORE.INTER.VDW>
-16.9931

>  <SCORE.INTER.norm>
-0.103372

>  <SCORE.INTRA>
-3.27016

>  <SCORE.INTRA.DIHEDRAL>
-8.06722

>  <SCORE.INTRA.DIHEDRAL.0>
10.5765

>  <SCORE.INTRA.POLAR>
0

>  <SCORE.INTRA.POLAR.0>
0

>  <SCORE.INTRA.REPUL>
0

>  <SCORE.INTRA.REPUL.0>
0

>  <SCORE.INTRA.SOLV>
0.792909

>  <SCORE.INTRA.SOLV.lig_0>
-50.1861

>  <SCORE.INTRA.VDW>
0.366993

>  <SCORE.INTRA.VDW.0>
-1.36671

>  <SCORE.INTRA.norm>
-0.233583

>  <SCORE.RESTR>
0

>  <SCORE.RESTR.CAVITY>
0

>  <SCORE.RESTR.norm>
0

>  <SCORE.SYSTEM>
0

>  <SCORE.SYSTEM.CONST>
0

>  <SCORE.SYSTEM.DIHEDRAL>
0

>  <SCORE.SYSTEM.SOLV>
0

>  <SCORE.SYSTEM.norm>
0

>  <SCORE.heavy>
14

>  <SCORE.norm>
-0.336955

>  <RMSD>
0.816

$$$$
ligand
 OpenBabel11021811393D
libRbt.so/2013.1/901 2013/11/27
 14 13  0  0  0  0  0  0  0  0999 V2000
    4.9158   -5.7176    9.3747 N   0  0  0  0  0  0  0  0  0  0  0  0
    5.4143   -4.3979    8.7850 C   0  0  0  0  0  0  0  0  0  0  0  0
    4.7693   -3.3326    9.5948 C   0  0  0  0  0  0  0  0  0  0  0  0
    3.2499   -3.3375    9.5494 C   0  0  0  0  0  0  0  0  0  0  0  0
    2.7234   -2.2608   10.4302 N   0  0  0  0  0  0  0  0  0  0  0  0
    1.2440   -2.5414   10.7504 C   0  0  0  0  0  0  0  0  0  0  0  0
    0.6004   -1.0747   10.6697 C   0  0  0  0  0  0  0  0  0  0  0  0
   -0.6910   -1.1561   10.8799 C   0  0  0  0  0  0  0  0  0  0  0  0
   -1.0426    0.4029   10.5228 C   0  0  0  0  0  0  0  0  0  0  0  0
   -2.6037    0.2835   10.5336 N   0  0  0  0  0  0  0  0  0  0  0  0
   -3.3392    1.5747    9.9941 C   0  0  0  0  0  0  0  0  0  0  0  0
   -4.9239    1.1876    9.9118 C   0  0  0  0  0  0  0  0  0  0  0  0
   -5.5837    2.4804    9.5288 C   0  0  0  0  0  0  0  0  0  0  0  0
   -7.0587    2.1654    9.4453 N   0  0  0  0  0  0  0  0  0  0  0  0
  1  2  1  0  0  0  0
  2  3  1  0  0  0  0
  3  4  1  0  0  0  0
  4  5  1  0  0  0  0
  5  6  1  0  0  0  0
  6  7  1  0  0  0  0
  7  8  1  0  0  0  0
  8  9  1  0  0  0  0
  9 10  1  0  0  0  0
 10 11  1  0  0  0  0
 11 12  1  0  0  0  0
 12 13  1  0  0  0  0
 13 14  1  0  0  0  0
M  END
>  <CHROM.1>
-60.76447603,178.10007024,-161.68459957,-139.84143205,177.89177268,-172.38223349
171.16225761,-170.73769669,173.19646731,174.57969944,-179.84902982,-0.16597578
-1.12303176,9.99793363,0.41570996,0.37077727,-2.40379026

>  <Name>
ligand

>  <RI>
0

>  <Rbt.Current_Directory>
/home/itssahil/PROJECTS/Mol_Feturizer/New_Systems/rnas/1FUF

>  <Rbt.Executable>
rbdock ($Id: //depot/dev/client3/rdock/2013.1/src/exe/rbdock.cxx#4 $)

>  <Rbt.Library>
libRbt.so (2013.1, Build901 2013/11/27)

>  <Rbt.Parameter_File>
/export/apps/rDock/src/rDock_2013.1_src/data/scripts/dock_solv.prm

>  <Rbt.Receptor>
prm/pocket_docking_2.prm

>  <SCORE>
-5.79354

>  <SCORE.INTER>
-2.15925

>  <SCORE.INTER.CONST>
1

>  <SCORE.INTER.POLAR>
0

>  <SCORE.INTER.ROT>
11

>  <SCORE.INTER.SOLV>
15.1547

>  <SCORE.INTER.VDW>
-17.4244

>  <SCORE.INTER.norm>
-0.154232

>  <SCORE.INTRA>
-3.63429

>  <SCORE.INTRA.DIHEDRAL>
-8.6363

>  <SCORE.INTRA.DIHEDRAL.0>
10.5765

>  <SCORE.INTRA.POLAR>
0

>  <SCORE.INTRA.POLAR.0>
0

>  <SCORE.INTRA.REPUL>
0

>  <SCORE.INTRA.REPUL.0>
0

>  <SCORE.INTRA.SOLV>
0.82238

>  <SCORE.INTRA.SOLV.lig_0>
-50.1861

>  <SCORE.INTRA.VDW>
0.272673

>  <SCORE.INTRA.VDW.0>
-1.36671

>  <SCORE.INTRA.norm>
-0.259592

>  <SCORE.RESTR>
0

>  <SCORE.RESTR.CAVITY>
0

>  <SCORE.RESTR.norm>
0

>  <SCORE.SYSTEM>
0

>  <SCORE.SYSTEM.CONST>
0

>  <SCORE.SYSTEM.DIHEDRAL>
0

>  <SCORE.SYSTEM.SOLV>
0

>  <SCORE.SYSTEM.norm>
0

>  <SCORE.heavy>
14

>  <SCORE.norm>
-0.413824

>  <RMSD>
0.847

$$$$
ligand
 OpenBabel11021811393D
libRbt.so/2013.1/901 2013/11/27
 14 13  0  0  0  0  0  0  0  0999 V2000
   -6.7000    2.1840    8.9729 N   0  0  0  0  0  0  0  0  0  0  0  0
   -5.3077    2.6329    9.4180 C   0  0  0  0  0  0  0  0  0  0  0  0
   -4.5679    1.3826    9.7283 C   0  0  0  0  0  0  0  0  0  0  0  0
   -3.1105    1.5889   10.1076 C   0  0  0  0  0  0  0  0  0  0  0  0
   -2.4561    0.2675   10.3019 N   0  0  0  0  0  0  0  0  0  0  0  0
   -0.9352    0.4656   10.4333 C   0  0  0  0  0  0  0  0  0  0  0  0
   -0.4135   -1.0431   10.5873 C   0  0  0  0  0  0  0  0  0  0  0  0
    0.8974   -1.0493   10.5963 C   0  0  0  0  0  0  0  0  0  0  0  0
    1.0812   -2.6738   10.6900 C   0  0  0  0  0  0  0  0  0  0  0  0
    2.6447   -2.7217   10.6222 N   0  0  0  0  0  0  0  0  0  0  0  0
    3.2248   -4.1826   10.4536 C   0  0  0  0  0  0  0  0  0  0  0  0
    4.8401   -4.0508   10.6562 C   0  0  0  0  0  0  0  0  0  0  0  0
    5.3273   -5.4658   10.5398 C   0  0  0  0  0  0  0  0  0  0  0  0
    5.1557   -5.8278    9.0833 N   0  0  0  0  0  0  0  0  0  0  0  0
  1  2  1  0  0  0  0
  2  3  1  0  0  0  0
  3  4  1  0  0  0  0
  4  5  1  0  0  0  0
  5  6  1  0  0  0  0
  6  7  1  0  0  0  0
  7  8  1  0  0  0  0
  8  9  1  0  0  0  0
  9 10  1  0  0  0  0
 10 11  1  0  0  0  0
 11 12  1  0  0  0  0
 12 13  1  0  0  0  0
 13 14  1  0  0  0  0
M  END
>  <CHROM.1>
176.08451070,-176.11146083,169.84759647,-178.35176037,174.63667546,-177.55554343
177.01556260,-170.73380238,-170.72083325,177.86759500,70.47487093,-0.02270307
-1.32087856,10.15662557,2.68086416,-0.42658048,0.59949602

>  <Name>
ligand

>  <RI>
0

>  <Rbt.Current_Directory>
/home/itssahil/PROJECTS/Mol_Feturizer/New_Systems/rnas/1FUF

>  <Rbt.Executable>
rbdock ($Id: //depot/dev/client3/rdock/2013.1/src/exe/rbdock.cxx#4 $)

>  <Rbt.Library>
libRbt.so (2013.1, Build901 2013/11/27)

>  <Rbt.Parameter_File>
/export/apps/rDock/src/rDock_2013.1_src/data/scripts/dock_solv.prm

>  <Rbt.Receptor>
prm/blind_docking_60.prm

>  <SCORE>
-5.7484

>  <SCORE.INTER>
-1.6713

>  <SCORE.INTER.CONST>
1

>  <SCORE.INTER.POLAR>
0

>  <SCORE.INTER.ROT>
11

>  <SCORE.INTER.SOLV>
14.6179

>  <SCORE.INTER.VDW>
-16.9202

>  <SCORE.INTER.norm>
-0.119378

>  <SCORE.INTRA>
-4.0771

>  <SCORE.INTRA.DIHEDRAL>
-9.64917

>  <SCORE.INTRA.DIHEDRAL.0>
10.5765

>  <SCORE.INTRA.POLAR>
0

>  <SCORE.INTRA.POLAR.0>
0

>  <SCORE.INTRA.REPUL>
0

>  <SCORE.INTRA.REPUL.0>
0

>  <SCORE.INTRA.SOLV>
0.77908

>  <SCORE.INTRA.SOLV.lig_0>
-50.1861

>  <SCORE.INTRA.VDW>
0.357946

>  <SCORE.INTRA.VDW.0>
-1.36671

>  <SCORE.INTRA.norm>
-0.291222

>  <SCORE.RESTR>
0

>  <SCORE.RESTR.CAVITY>
0

>  <SCORE.RESTR.norm>
0

>  <SCORE.SYSTEM>
0

>  <SCORE.SYSTEM.CONST>
0

>  <SCORE.SYSTEM.DIHEDRAL>
0

>  <SCORE.SYSTEM.SOLV>
0

>  <SCORE.SYSTEM.norm>
0

>  <SCORE.heavy>
14

>  <SCORE.norm>
-0.4106

>  <RMSD>
0.874

$$$$
ligand
 OpenBabel11021811393D
libRbt.so/2013.1/901 2013/11/27
 14 13  0  0  0  0  0  0  0  0999 V2000
   -6.8778    2.3254    9.7446 N   0  0  0  0  0  0  0  0  0  0  0  0
   -5.4137    2.6089    9.4068 C   0  0  0  0  0  0  0  0  0  0  0  0
   -4.6482    1.4674    9.9704 C   0  0  0  0  0  0  0  0  0  0  0  0
   -3.1444    1.5533    9.7660 C   0  0  0  0  0  0  0  0  0  0  0  0
   -2.4942    0.3507   10.3518 N   0  0  0  0  0  0  0  0  0  0  0  0
   -0.9695    0.5606   10.3860 C   0  0  0  0  0  0  0  0  0  0  0  0
   -0.4311   -0.9338   10.6068 C   0  0  0  0  0  0  0  0  0  0  0  0
    0.8783   -0.9364   10.5423 C   0  0  0  0  0  0  0  0  0  0  0  0
    1.0755   -2.5538   10.7061 C   0  0  0  0  0  0  0  0  0  0  0  0
    2.6387   -2.5931   10.6257 N   0  0  0  0  0  0  0  0  0  0  0  0
    3.2386   -4.0531   10.7128 C   0  0  0  0  0  0  0  0  0  0  0  0
    4.8409   -3.8977   10.4364 C   0  0  0  0  0  0  0  0  0  0  0  0
    5.3532   -5.3057   10.5274 C   0  0  0  0  0  0  0  0  0  0  0  0
    4.8470   -5.9950    9.2822 N   0  0  0  0  0  0  0  0  0  0  0  0
  1  2  1  0  0  0  0
  2  3  1  0  0  0  0
  3  4  1  0  0  0  0
  4  5  1  0  0  0  0
  5  6  1  0  0  0  0
  6  7  1  0  0  0  0
  7  8  1  0  0  0  0
  8  9  1  0  0  0  0
  9 10  1  0  0  0  0
 10 11  1  0  0  0  0
 11 12  1  0  0  0  0
 12 13  1  0  0  0  0
 13 14  1  0  0  0  0
M  END
>  <CHROM.1>
-179.11555656,-179.14430734,-169.30188696,-163.63013227,174.57165533,-176.72364513
179.73286238,-178.51024285,173.52355829,-179.85988489,71.67780206,-0.07888504
-1.24291492,10.21904585,2.58884367,-0.28042789,0.35065183

>  <Name>
ligand

>  <RI>
0

>  <Rbt.Current_Directory>
/home/itssahil/PROJECTS/Mol_Feturizer/New_Systems/rnas/1FUF

>  <Rbt.Executable>
rbdock ($Id: //depot/dev/client3/rdock/2013.1/src/exe/rbdock.cxx#4 $)

>  <Rbt.Library>
libRbt.so (2013.1, Build901 2013/11/27)

>  <Rbt.Parameter_File>
/export/apps/rDock/src/rDock_2013.1_src/data/scripts/dock_solv.prm

>  <Rbt.Receptor>
prm/blind_docking_100.prm

>  <SCORE>
-5.75809

>  <SCORE.INTER>
-1.67581

>  <SCORE.INTER.CONST>
1

>  <SCORE.INTER.POLAR>
0

>  <SCORE.INTER.ROT>
11

>  <SCORE.INTER.SOLV>
15.238

>  <SCORE.INTER.VDW>
-17.1299

>  <SCORE.INTER.norm>
-0.119701

>  <SCORE.INTRA>
-4.08227

>  <SCORE.INTRA.DIHEDRAL>
-9.57976

>  <SCORE.INTRA.DIHEDRAL.0>
10.5765

>  <SCORE.INTRA.POLAR>
0

>  <SCORE.INTRA.POLAR.0>
0

>  <SCORE.INTRA.REPUL>
0

>  <SCORE.INTRA.REPUL.0>
0

>  <SCORE.INTRA.SOLV>
0.771358

>  <SCORE.INTRA.SOLV.lig_0>
-50.1861

>  <SCORE.INTRA.VDW>
0.321928

>  <SCORE.INTRA.VDW.0>
-1.36671

>  <SCORE.INTRA.norm>
-0.291591

>  <SCORE.RESTR>
0

>  <SCORE.RESTR.CAVITY>
0

>  <SCORE.RESTR.norm>
0

>  <SCORE.SYSTEM>
0

>  <SCORE.SYSTEM.CONST>
0

>  <SCORE.SYSTEM.DIHEDRAL>
0

>  <SCORE.SYSTEM.SOLV>
0

>  <SCORE.SYSTEM.norm>
0

>  <SCORE.heavy>
14

>  <SCORE.norm>
-0.411292

>  <RMSD>
0.926

$$$$
ligand
 OpenBabel11021811393D
libRbt.so/2013.1/901 2013/11/27
 14 13  0  0  0  0  0  0  0  0999 V2000
    5.6311   -6.0981    9.0026 N   0  0  0  0  0  0  0  0  0  0  0  0
    4.9901   -5.5453   10.2760 C   0  0  0  0  0  0  0  0  0  0  0  0
    4.3503   -4.2660    9.8752 C   0  0  0  0  0  0  0  0  0  0  0  0
    3.6061   -3.5546   10.9935 C   0  0  0  0  0  0  0  0  0  0  0  0
    2.8973   -2.3688   10.4425 N   0  0  0  0  0  0  0  0  0  0  0  0
    1.8452   -1.8860   11.4573 C   0  0  0  0  0  0  0  0  0  0  0  0
    0.8551   -1.0296   10.5308 C   0  0  0  0  0  0  0  0  0  0  0  0
   -0.2002   -0.6844   11.2278 C   0  0  0  0  0  0  0  0  0  0  0  0
   -1.0120    0.0374   10.0025 C   0  0  0  0  0  0  0  0  0  0  0  0
   -2.4364    0.0357   10.6524 N   0  0  0  0  0  0  0  0  0  0  0  0
   -3.5986    0.3468    9.6269 C   0  0  0  0  0  0  0  0  0  0  0  0
   -4.0227    1.9025    9.8868 C   0  0  0  0  0  0  0  0  0  0  0  0
   -5.2057    2.1015    8.9846 C   0  0  0  0  0  0  0  0  0  0  0  0
   -6.3283    1.3157    9.6203 N   0  0  0  0  0  0  0  0  0  0  0  0
  1  2  1  0  0  0  0
  2  3  1  0  0  0  0
  3  4  1  0  0  0  0
  4  5  1  0  0  0  0
  5  6  1  0  0  0  0
  6  7  1  0  0  0  0
  7  8  1  0  0  0  0
  8  9  1  0  0  0  0
  9 10  1  0  0  0  0
 10 11  1  0  0  0  0
 11 12  1  0  0  0  0
 12 13  1  0  0  0  0
 13 14  1  0  0  0  0
M  END
>  <CHROM.1>
178.23362836,-174.26140170,164.19577983,-159.59928401,172.09300700,-175.93148773
162.21758359,-165.97598075,-102.54547334,-174.86462948,71.49469609,0.09800049
-1.40649426,10.18434278,0.36348892,0.46633642,-2.34040724

>  <Name>
ligand

>  <RI>
0

>  <Rbt.Current_Directory>
/home/itssahil/PROJECTS/Mol_Feturizer/New_Systems/rnas/1FUF

>  <Rbt.Executable>
rbdock ($Id: //depot/dev/client3/rdock/2013.1/src/exe/rbdock.cxx#4 $)

>  <Rbt.Library>
libRbt.so (2013.1, Build901 2013/11/27)

>  <Rbt.Parameter_File>
/export/apps/rDock/src/rDock_2013.1_src/data/scripts/dock_solv.prm

>  <Rbt.Receptor>
prm/pocket_docking_2.prm

>  <SCORE>
-3.22369

>  <SCORE.INTER>
-0.553451

>  <SCORE.INTER.CONST>
1

>  <SCORE.INTER.POLAR>
0

>  <SCORE.INTER.ROT>
11

>  <SCORE.INTER.SOLV>
17.1986

>  <SCORE.INTER.VDW>
-17.0352

>  <SCORE.INTER.norm>
-0.0395322

>  <SCORE.INTRA>
-2.67176

>  <SCORE.INTRA.DIHEDRAL>
-6.81619

>  <SCORE.INTRA.DIHEDRAL.0>
10.5765

>  <SCORE.INTRA.POLAR>
0

>  <SCORE.INTRA.POLAR.0>
0

>  <SCORE.INTRA.REPUL>
0

>  <SCORE.INTRA.REPUL.0>
0

>  <SCORE.INTRA.SOLV>
0.84314

>  <SCORE.INTRA.SOLV.lig_0>
-50.1861

>  <SCORE.INTRA.VDW>
0.314765

>  <SCORE.INTRA.VDW.0>
-1.36671

>  <SCORE.INTRA.norm>
-0.19084

>  <SCORE.RESTR>
0.0015246

>  <SCORE.RESTR.CAVITY>
0.0015246

>  <SCORE.RESTR.norm>
0.0001089

>  <SCORE.SYSTEM>
0

>  <SCORE.SYSTEM.CONST>
0

>  <SCORE.SYSTEM.DIHEDRAL>
0

>  <SCORE.SYSTEM.SOLV>
0

>  <SCORE.SYSTEM.norm>
0

>  <SCORE.heavy>
14

>  <SCORE.norm>
-0.230263

>  <RMSD>
0.929

$$$$
ligand
 OpenBabel11021811393D
libRbt.so/2013.1/901 2013/11/27
 14 13  0  0  0  0  0  0  0  0999 V2000
   -6.8589    1.7544    9.1641 N   0  0  0  0  0  0  0  0  0  0  0  0
   -5.4540    2.2919    9.4388 C   0  0  0  0  0  0  0  0  0  0  0  0
   -4.6193    1.0957    9.7197 C   0  0  0  0  0  0  0  0  0  0  0  0
   -3.1663    1.4018   10.0449 C   0  0  0  0  0  0  0  0  0  0  0  0
   -2.4382    0.1318   10.3082 N   0  0  0  0  0  0  0  0  0  0  0  0
   -0.9446    0.4355   10.5247 C   0  0  0  0  0  0  0  0  0  0  0  0
   -0.3117   -1.0362   10.6001 C   0  0  0  0  0  0  0  0  0  0  0  0
    0.9954   -0.9441   10.6384 C   0  0  0  0  0  0  0  0  0  0  0  0
    1.3002   -2.5525   10.6810 C   0  0  0  0  0  0  0  0  0  0  0  0
    2.8611   -2.4825   10.5813 N   0  0  0  0  0  0  0  0  0  0  0  0
    3.5800   -3.8344   10.9743 C   0  0  0  0  0  0  0  0  0  0  0  0
    3.9241   -4.5863    9.5657 C   0  0  0  0  0  0  0  0  0  0  0  0
    4.5428   -5.8833    9.9996 C   0  0  0  0  0  0  0  0  0  0  0  0
    4.9076   -6.5984    8.7201 N   0  0  0  0  0  0  0  0  0  0  0  0
  1  2  1  0  0  0  0
  2  3  1  0  0  0  0
  3  4  1  0  0  0  0
  4  5  1  0  0  0  0
  5  6  1  0  0  0  0
  6  7  1  0  0  0  0
  7  8  1  0  0  0  0
  8  9  1  0  0  0  0
  9 10  1  0  0  0  0
 10 11  1  0  0  0  0
 11 12  1  0  0  0  0
 12 13  1  0  0  0  0
 13 14  1  0  0  0  0
M  END
>  <CHROM.1>
-179.12522221,179.89145815,175.45666986,-173.01852365,173.13627017,-179.03763418
174.58893207,164.59826867,98.77762071,-177.46325056,-178.68445660,-0.12003055
-1.48606385,10.06880135,2.63419712,-0.39096085,0.57018742

>  <Name>
ligand

>  <RI>
0

>  <Rbt.Current_Directory>
/home/itssahil/PROJECTS/Mol_Feturizer/New_Systems/rnas/1FUF

>  <Rbt.Executable>
rbdock ($Id: //depot/dev/client3/rdock/2013.1/src/exe/rbdock.cxx#4 $)

>  <Rbt.Library>
libRbt.so (2013.1, Build901 2013/11/27)

>  <Rbt.Parameter_File>
/export/apps/rDock/src/rDock_2013.1_src/data/scripts/dock_solv.prm

>  <Rbt.Receptor>
prm/pocket_docking_5.prm

>  <SCORE>
-7.1284

>  <SCORE.INTER>
-2.49737

>  <SCORE.INTER.CONST>
1

>  <SCORE.INTER.POLAR>
0

>  <SCORE.INTER.ROT>
11

>  <SCORE.INTER.SOLV>
14.9375

>  <SCORE.INTER.VDW>
-17.5774

>  <SCORE.INTER.norm>
-0.178384

>  <SCORE.INTRA>
-4.63103

>  <SCORE.INTRA.DIHEDRAL>
-9.14498

>  <SCORE.INTRA.DIHEDRAL.0>
10.5765

>  <SCORE.INTRA.POLAR>
0

>  <SCORE.INTRA.POLAR.0>
0

>  <SCORE.INTRA.REPUL>
0

>  <SCORE.INTRA.REPUL.0>
0

>  <SCORE.INTRA.SOLV>
-0.148895

>  <SCORE.INTRA.SOLV.lig_0>
-50.1861

>  <SCORE.INTRA.VDW>
0.0159096

>  <SCORE.INTRA.VDW.0>
-1.36671

>  <SCORE.INTRA.norm>
-0.330788

>  <SCORE.RESTR>
0

>  <SCORE.RESTR.CAVITY>
0

>  <SCORE.RESTR.norm>
0

>  <SCORE.SYSTEM>
0

>  <SCORE.SYSTEM.CONST>
0

>  <SCORE.SYSTEM.DIHEDRAL>
0

>  <SCORE.SYSTEM.SOLV>
0

>  <SCORE.SYSTEM.norm>
0

>  <SCORE.heavy>
14

>  <SCORE.norm>
-0.509172

>  <RMSD>
0.958

$$$$
ligand
 OpenBabel11021811393D
libRbt.so/2013.1/901 2013/11/27
 14 13  0  0  0  0  0  0  0  0999 V2000
   -6.2718    1.4889   10.2182 N   0  0  0  0  0  0  0  0  0  0  0  0
   -5.2307    2.0140    9.2289 C   0  0  0  0  0  0  0  0  0  0  0  0
   -3.9193    1.8456    9.9061 C   0  0  0  0  0  0  0  0  0  0  0  0
   -3.4449    0.4055   10.0142 C   0  0  0  0  0  0  0  0  0  0  0  0
   -2.1088    0.3707   10.6669 N   0  0  0  0  0  0  0  0  0  0  0  0
   -1.0150    0.2925    9.5865 C   0  0  0  0  0  0  0  0  0  0  0  0
   -0.0829   -0.8898   10.1392 C   0  0  0  0  0  0  0  0  0  0  0  0
    0.6840   -0.4256   11.0958 C   0  0  0  0  0  0  0  0  0  0  0  0
    1.2975   -1.8688   11.5675 C   0  0  0  0  0  0  0  0  0  0  0  0
    2.4008   -2.0086   10.4655 N   0  0  0  0  0  0  0  0  0  0  0  0
    3.3613   -3.2445   10.6870 C   0  0  0  0  0  0  0  0  0  0  0  0
    3.9045   -3.6628    9.2045 C   0  0  0  0  0  0  0  0  0  0  0  0
    4.6661   -4.9323    9.4527 C   0  0  0  0  0  0  0  0  0  0  0  0
    5.0893   -5.4167    8.0859 N   0  0  0  0  0  0  0  0  0  0  0  0
  1  2  1  0  0  0  0
  2  3  1  0  0  0  0
  3  4  1  0  0  0  0
  4  5  1  0  0  0  0
  5  6  1  0  0  0  0
  6  7  1  0  0  0  0
  7  8  1  0  0  0  0
  8  9  1  0  0  0  0
  9 10  1  0  0  0  0
 10 11  1  0  0  0  0
 11 12  1  0  0  0  0
 12 13  1  0  0  0  0
 13 14  1  0  0  0  0
M  END
>  <CHROM.1>
72.07391665,178.17503446,-97.06131997,-132.33722582,-78.54740989,171.88568281
81.26271244,173.04317653,153.12493958,-173.22721257,175.39007373,-0.04778073
-1.14503518,10.02284934,2.83134256,-0.49025596,1.05264476

>  <Name>
ligand

>  <RI>
0

>  <Rbt.Current_Directory>
/home/itssahil/PROJECTS/Mol_Feturizer/New_Systems/rnas/1FUF

>  <Rbt.Executable>
rbdock ($Id: //depot/dev/client3/rdock/2013.1/src/exe/rbdock.cxx#4 $)

>  <Rbt.Library>
libRbt.so (2013.1, Build901 2013/11/27)

>  <Rbt.Parameter_File>
/export/apps/rDock/src/rDock_2013.1_src/data/scripts/dock_solv.prm

>  <Rbt.Receptor>
prm/pocket_docking_2.prm

>  <SCORE>
0.343592

>  <SCORE.INTER>
0.528707

>  <SCORE.INTER.CONST>
1

>  <SCORE.INTER.POLAR>
0

>  <SCORE.INTER.ROT>
11

>  <SCORE.INTER.SOLV>
18.0504

>  <SCORE.INTER.VDW>
-16.5977

>  <SCORE.INTER.norm>
0.0377648

>  <SCORE.INTRA>
-0.195318

>  <SCORE.INTRA.DIHEDRAL>
-4.32582

>  <SCORE.INTRA.DIHEDRAL.0>
10.5765

>  <SCORE.INTRA.POLAR>
0

>  <SCORE.INTRA.POLAR.0>
0

>  <SCORE.INTRA.REPUL>
0

>  <SCORE.INTRA.REPUL.0>
0

>  <SCORE.INTRA.SOLV>
1.51006

>  <SCORE.INTRA.SOLV.lig_0>
-50.1861

>  <SCORE.INTRA.VDW>
1.21256

>  <SCORE.INTRA.VDW.0>
-1.36671

>  <SCORE.INTRA.norm>
-0.0139513

>  <SCORE.RESTR>
0.0102032

>  <SCORE.RESTR.CAVITY>
0.0102032

>  <SCORE.RESTR.norm>
0.000728803

>  <SCORE.SYSTEM>
0

>  <SCORE.SYSTEM.CONST>
0

>  <SCORE.SYSTEM.DIHEDRAL>
0

>  <SCORE.SYSTEM.SOLV>
0

>  <SCORE.SYSTEM.norm>
0

>  <SCORE.heavy>
14

>  <SCORE.norm>
0.0245423

>  <RMSD>
0.971

$$$$
ligand
 OpenBabel11021811393D
libRbt.so/2013.1/901 2013/11/27
 14 13  0  0  0  0  0  0  0  0999 V2000
    4.6594   -5.7352    8.2018 N   0  0  0  0  0  0  0  0  0  0  0  0
    4.7095   -4.7922    9.4044 C   0  0  0  0  0  0  0  0  0  0  0  0
    3.5039   -3.9325    9.2852 C   0  0  0  0  0  0  0  0  0  0  0  0
    3.3278   -2.9317   10.4156 C   0  0  0  0  0  0  0  0  0  0  0  0
    2.0439   -2.2022   10.2373 N   0  0  0  0  0  0  0  0  0  0  0  0
    1.5127   -1.7605   11.6130 C   0  0  0  0  0  0  0  0  0  0  0  0
    0.6956   -0.4306   11.2447 C   0  0  0  0  0  0  0  0  0  0  0  0
   -0.4732   -0.7626   10.7527 C   0  0  0  0  0  0  0  0  0  0  0  0
   -1.0678    0.7581   10.6271 C   0  0  0  0  0  0  0  0  0  0  0  0
   -2.5182    0.3889   10.1670 N   0  0  0  0  0  0  0  0  0  0  0  0
   -3.4217    1.6484    9.8568 C   0  0  0  0  0  0  0  0  0  0  0  0
   -4.9497    1.0851    9.7310 C   0  0  0  0  0  0  0  0  0  0  0  0
   -5.7599    2.3193    9.4597 C   0  0  0  0  0  0  0  0  0  0  0  0
   -7.1852    1.8381    9.3226 N   0  0  0  0  0  0  0  0  0  0  0  0
  1  2  1  0  0  0  0
  2  3  1  0  0  0  0
  3  4  1  0  0  0  0
  4  5  1  0  0  0  0
  5  6  1  0  0  0  0
  6  7  1  0  0  0  0
  7  8  1  0  0  0  0
  8  9  1  0  0  0  0
  9 10  1  0  0  0  0
 10 11  1  0  0  0  0
 11 12  1  0  0  0  0
 12 13  1  0  0  0  0
 13 14  1  0  0  0  0
M  END
>  <CHROM.1>
178.28779022,-175.94745477,151.67320544,150.72768077,79.42629913,175.09992743
-174.94874204,-176.98689287,-167.53200838,179.13507742,179.46060715,-0.35147874
-1.03624045,10.02299693,0.39284133,0.42553044,-2.32784765

>  <Name>
ligand

>  <RI>
0

>  <Rbt.Current_Directory>
/home/itssahil/PROJECTS/Mol_Feturizer/New_Systems/rnas/1FUF

>  <Rbt.Executable>
rbdock ($Id: //depot/dev/client3/rdock/2013.1/src/exe/rbdock.cxx#4 $)

>  <Rbt.Library>
libRbt.so (2013.1, Build901 2013/11/27)

>  <Rbt.Parameter_File>
/export/apps/rDock/src/rDock_2013.1_src/data/scripts/dock_solv.prm

>  <Rbt.Receptor>
prm/pocket_docking_6.prm

>  <SCORE>
-4.22497

>  <SCORE.INTER>
-0.667613

>  <SCORE.INTER.CONST>
1

>  <SCORE.INTER.POLAR>
0

>  <SCORE.INTER.ROT>
11

>  <SCORE.INTER.SOLV>
16.6518

>  <SCORE.INTER.VDW>
-16.929

>  <SCORE.INTER.norm>
-0.0476867

>  <SCORE.INTRA>
-3.55736

>  <SCORE.INTRA.DIHEDRAL>
-7.73911

>  <SCORE.INTRA.DIHEDRAL.0>
10.5765

>  <SCORE.INTRA.POLAR>
0

>  <SCORE.INTRA.POLAR.0>
0

>  <SCORE.INTRA.REPUL>
0

>  <SCORE.INTRA.REPUL.0>
0

>  <SCORE.INTRA.SOLV>
0.212915

>  <SCORE.INTRA.SOLV.lig_0>
-50.1861

>  <SCORE.INTRA.VDW>
0.205737

>  <SCORE.INTRA.VDW.0>
-1.36671

>  <SCORE.INTRA.norm>
-0.254097

>  <SCORE.RESTR>
0

>  <SCORE.RESTR.CAVITY>
0

>  <SCORE.RESTR.norm>
0

>  <SCORE.SYSTEM>
0

>  <SCORE.SYSTEM.CONST>
0

>  <SCORE.SYSTEM.DIHEDRAL>
0

>  <SCORE.SYSTEM.SOLV>
0

>  <SCORE.SYSTEM.norm>
0

>  <SCORE.heavy>
14

>  <SCORE.norm>
-0.301784

>  <RMSD>
0.979

$$$$
ligand
 OpenBabel11021811393D
libRbt.so/2013.1/901 2013/11/27
 14 13  0  0  0  0  0  0  0  0999 V2000
   -6.6751    1.8413    9.2275 N   0  0  0  0  0  0  0  0  0  0  0  0
   -5.2787    2.3435    9.5963 C   0  0  0  0  0  0  0  0  0  0  0  0
   -4.4729    1.1224    9.8536 C   0  0  0  0  0  0  0  0  0  0  0  0
   -3.0095    1.3864   10.1688 C   0  0  0  0  0  0  0  0  0  0  0  0
   -2.3011    0.0924   10.3581 N   0  0  0  0  0  0  0  0  0  0  0  0
   -0.8076    0.3613   10.6167 C   0  0  0  0  0  0  0  0  0  0  0  0
   -0.1930   -1.1199   10.5988 C   0  0  0  0  0  0  0  0  0  0  0  0
    1.1120   -1.0487   10.7011 C   0  0  0  0  0  0  0  0  0  0  0  0
    1.4009   -2.6573   10.5982 C   0  0  0  0  0  0  0  0  0  0  0  0
    2.9581   -2.6106   10.7539 N   0  0  0  0  0  0  0  0  0  0  0  0
    3.6080   -4.0259   11.0254 C   0  0  0  0  0  0  0  0  0  0  0  0
    3.9531   -4.6511    9.5564 C   0  0  0  0  0  0  0  0  0  0  0  0
    4.6095   -5.9626    9.8761 C   0  0  0  0  0  0  0  0  0  0  0  0
    4.9742   -6.5622    8.5385 N   0  0  0  0  0  0  0  0  0  0  0  0
  1  2  1  0  0  0  0
  2  3  1  0  0  0  0
  3  4  1  0  0  0  0
  4  5  1  0  0  0  0
  5  6  1  0  0  0  0
  6  7  1  0  0  0  0
  7  8  1  0  0  0  0
  8  9  1  0  0  0  0
  9 10  1  0  0  0  0
 10 11  1  0  0  0  0
 11 12  1  0  0  0  0
 12 13  1  0  0  0  0
 13 14  1  0  0  0  0
M  END
>  <CHROM.1>
176.84639314,-177.99178185,177.56819003,-172.84240491,174.93534454,-178.07845911
-178.65066672,167.21201863,89.96649353,177.98522484,-178.76995122,-0.00862169
-1.53494274,10.10511542,2.64192242,-0.42263304,0.63827276

>  <Name>
ligand

>  <RI>
0

>  <Rbt.Current_Directory>
/home/itssahil/PROJECTS/Mol_Feturizer/New_Systems/rnas/1FUF

>  <Rbt.Executable>
rbdock ($Id: //depot/dev/client3/rdock/2013.1/src/exe/rbdock.cxx#4 $)

>  <Rbt.Library>
libRbt.so (2013.1, Build901 2013/11/27)

>  <Rbt.Parameter_File>
/export/apps/rDock/src/rDock_2013.1_src/data/scripts/dock_solv.prm

>  <Rbt.Receptor>
prm/pocket_docking_3.prm

>  <SCORE>
-7.0919

>  <SCORE.INTER>
-2.27432

>  <SCORE.INTER.CONST>
1

>  <SCORE.INTER.POLAR>
0

>  <SCORE.INTER.ROT>
11

>  <SCORE.INTER.SOLV>
14.88

>  <SCORE.INTER.VDW>
-17.4095

>  <SCORE.INTER.norm>
-0.162451

>  <SCORE.INTRA>
-4.81758

>  <SCORE.INTRA.DIHEDRAL>
-9.60878

>  <SCORE.INTRA.DIHEDRAL.0>
10.5765

>  <SCORE.INTRA.POLAR>
0

>  <SCORE.INTRA.POLAR.0>
0

>  <SCORE.INTRA.REPUL>
0

>  <SCORE.INTRA.REPUL.0>
0

>  <SCORE.INTRA.SOLV>
-0.149554

>  <SCORE.INTRA.SOLV.lig_0>
-50.1861

>  <SCORE.INTRA.VDW>
0.0615874

>  <SCORE.INTRA.VDW.0>
-1.36671

>  <SCORE.INTRA.norm>
-0.344113

>  <SCORE.RESTR>
0

>  <SCORE.RESTR.CAVITY>
0

>  <SCORE.RESTR.norm>
0

>  <SCORE.SYSTEM>
0

>  <SCORE.SYSTEM.CONST>
0

>  <SCORE.SYSTEM.DIHEDRAL>
0

>  <SCORE.SYSTEM.SOLV>
0

>  <SCORE.SYSTEM.norm>
0

>  <SCORE.heavy>
14

>  <SCORE.norm>
-0.506564

>  <RMSD>
0.985

$$$$
ligand
 OpenBabel11021811393D
libRbt.so/2013.1/901 2013/11/27
 14 13  0  0  0  0  0  0  0  0999 V2000
    4.9083   -5.7505    9.3123 N   0  0  0  0  0  0  0  0  0  0  0  0
    5.2354   -4.4294    8.6152 C   0  0  0  0  0  0  0  0  0  0  0  0
    4.6393   -3.3712    9.4704 C   0  0  0  0  0  0  0  0  0  0  0  0
    3.1199   -3.3769    9.5153 C   0  0  0  0  0  0  0  0  0  0  0  0
    2.6454   -2.2845   10.4062 N   0  0  0  0  0  0  0  0  0  0  0  0
    1.1099   -2.3358   10.5030 C   0  0  0  0  0  0  0  0  0  0  0  0
    0.7787   -0.9770   11.2879 C   0  0  0  0  0  0  0  0  0  0  0  0
   -0.5188   -0.8717   11.4432 C   0  0  0  0  0  0  0  0  0  0  0  0
   -0.7892    0.0958   10.1499 C   0  0  0  0  0  0  0  0  0  0  0  0
   -2.3401    0.2423   10.3064 N   0  0  0  0  0  0  0  0  0  0  0  0
   -2.9490    1.4367    9.4686 C   0  0  0  0  0  0  0  0  0  0  0  0
   -4.5501    1.4418    9.7917 C   0  0  0  0  0  0  0  0  0  0  0  0
   -5.0731    2.5820    8.9673 C   0  0  0  0  0  0  0  0  0  0  0  0
   -6.5704    2.5631    9.1657 N   0  0  0  0  0  0  0  0  0  0  0  0
  1  2  1  0  0  0  0
  2  3  1  0  0  0  0
  3  4  1  0  0  0  0
  4  5  1  0  0  0  0
  5  6  1  0  0  0  0
  6  7  1  0  0  0  0
  7  8  1  0  0  0  0
  8  9  1  0  0  0  0
  9 10  1  0  0  0  0
 10 11  1  0  0  0  0
 11 12  1  0  0  0  0
 12 13  1  0  0  0  0
 13 14  1  0  0  0  0
M  END
>  <CHROM.1>
-67.06810375,179.59060950,-177.29366550,-171.32588879,179.62017270,-96.69990527
179.99539547,163.99313558,-178.69833232,-179.61649623,176.29550732,-0.02513393
-1.07385317,9.88596894,0.11724861,0.57722428,-1.77633172

>  <Name>
ligand

>  <RI>
0

>  <Rbt.Current_Directory>
/home/itssahil/PROJECTS/Mol_Feturizer/New_Systems/rnas/1FUF

>  <Rbt.Executable>
rbdock ($Id: //depot/dev/client3/rdock/2013.1/src/exe/rbdock.cxx#4 $)

>  <Rbt.Library>
libRbt.so (2013.1, Build901 2013/11/27)

>  <Rbt.Parameter_File>
/export/apps/rDock/src/rDock_2013.1_src/data/scripts/dock_solv.prm

>  <Rbt.Receptor>
prm/pocket_docking_3.prm

>  <SCORE>
-3.41927

>  <SCORE.INTER>
-1.63105

>  <SCORE.INTER.CONST>
1

>  <SCORE.INTER.POLAR>
0

>  <SCORE.INTER.ROT>
11

>  <SCORE.INTER.SOLV>
15.2082

>  <SCORE.INTER.VDW>
-17.0901

>  <SCORE.INTER.norm>
-0.116504

>  <SCORE.INTRA>
-1.78822

>  <SCORE.INTRA.DIHEDRAL>
-5.95762

>  <SCORE.INTRA.DIHEDRAL.0>
10.5765

>  <SCORE.INTRA.POLAR>
0

>  <SCORE.INTRA.POLAR.0>
0

>  <SCORE.INTRA.REPUL>
0

>  <SCORE.INTRA.REPUL.0>
0

>  <SCORE.INTRA.SOLV>
1.00926

>  <SCORE.INTRA.SOLV.lig_0>
-50.1861

>  <SCORE.INTRA.VDW>
0.685963

>  <SCORE.INTRA.VDW.0>
-1.36671

>  <SCORE.INTRA.norm>
-0.12773

>  <SCORE.RESTR>
0

>  <SCORE.RESTR.CAVITY>
0

>  <SCORE.RESTR.norm>
0

>  <SCORE.SYSTEM>
0

>  <SCORE.SYSTEM.CONST>
0

>  <SCORE.SYSTEM.DIHEDRAL>
0

>  <SCORE.SYSTEM.SOLV>
0

>  <SCORE.SYSTEM.norm>
0

>  <SCORE.heavy>
14

>  <SCORE.norm>
-0.244233

>  <RMSD>
1.003

$$$$
ligand
 OpenBabel11021811393D
libRbt.so/2013.1/901 2013/11/27
 14 13  0  0  0  0  0  0  0  0999 V2000
   -6.3427    2.4852    8.2833 N   0  0  0  0  0  0  0  0  0  0  0  0
   -5.4320    2.4862    9.5116 C   0  0  0  0  0  0  0  0  0  0  0  0
   -4.3781    1.4793    9.2251 C   0  0  0  0  0  0  0  0  0  0  0  0
   -3.2774    1.4023   10.2706 C   0  0  0  0  0  0  0  0  0  0  0  0
   -2.2498    0.4178    9.8382 N   0  0  0  0  0  0  0  0  0  0  0  0
   -1.0169    0.5320   10.7529 C   0  0  0  0  0  0  0  0  0  0  0  0
   -0.2137   -0.8107   10.4009 C   0  0  0  0  0  0  0  0  0  0  0  0
    0.8727   -0.8699   11.1321 C   0  0  0  0  0  0  0  0  0  0  0  0
    1.3780   -2.3365   10.6072 C   0  0  0  0  0  0  0  0  0  0  0  0
    2.6747   -2.4460   11.4778 N   0  0  0  0  0  0  0  0  0  0  0  0
    3.5857   -3.6817   11.1005 C   0  0  0  0  0  0  0  0  0  0  0  0
    4.4403   -3.2249    9.7857 C   0  0  0  0  0  0  0  0  0  0  0  0
    5.4557   -4.3189    9.6269 C   0  0  0  0  0  0  0  0  0  0  0  0
    4.6669   -5.5367    9.2069 N   0  0  0  0  0  0  0  0  0  0  0  0
  1  2  1  0  0  0  0
  2  3  1  0  0  0  0
  3  4  1  0  0  0  0
  4  5  1  0  0  0  0
  5  6  1  0  0  0  0
  6  7  1  0  0  0  0
  7  8  1  0  0  0  0
  8  9  1  0  0  0  0
  9 10  1  0  0  0  0
 10 11  1  0  0  0  0
 11 12  1  0  0  0  0
 12 13  1  0  0  0  0
 13 14  1  0  0  0  0
M  END
>  <CHROM.1>
174.66738322,-176.94580374,169.41803613,165.88978552,-178.92650417,176.89451405
-179.42303991,-171.75371968,80.61602250,169.93236874,68.93590154,0.01179941
-1.03007635,10.08728361,2.93283710,-0.55009473,1.05346157

>  <Name>
ligand

>  <RI>
0

>  <Rbt.Current_Directory>
/home/itssahil/PROJECTS/Mol_Feturizer/New_Systems/rnas/1FUF

>  <Rbt.Executable>
rbdock ($Id: //depot/dev/client3/rdock/2013.1/src/exe/rbdock.cxx#4 $)

>  <Rbt.Library>
libRbt.so (2013.1, Build901 2013/11/27)

>  <Rbt.Parameter_File>
/export/apps/rDock/src/rDock_2013.1_src/data/scripts/dock_solv.prm

>  <Rbt.Receptor>
prm/pocket_docking_2.prm

>  <SCORE>
-4.96385

>  <SCORE.INTER>
-1.29587

>  <SCORE.INTER.CONST>
1

>  <SCORE.INTER.POLAR>
0

>  <SCORE.INTER.ROT>
11

>  <SCORE.INTER.SOLV>
15.399

>  <SCORE.INTER.VDW>
-16.9302

>  <SCORE.INTER.norm>
-0.0925621

>  <SCORE.INTRA>
-3.66799

>  <SCORE.INTRA.DIHEDRAL>
-9.0989

>  <SCORE.INTRA.DIHEDRAL.0>
10.5765

>  <SCORE.INTRA.POLAR>
0

>  <SCORE.INTRA.POLAR.0>
0

>  <SCORE.INTRA.REPUL>
0

>  <SCORE.INTRA.REPUL.0>
0

>  <SCORE.INTRA.SOLV>
0.760822

>  <SCORE.INTRA.SOLV.lig_0>
-50.1861

>  <SCORE.INTRA.VDW>
0.501053

>  <SCORE.INTRA.VDW.0>
-1.36671

>  <SCORE.INTRA.norm>
-0.261999

>  <SCORE.RESTR>
0

>  <SCORE.RESTR.CAVITY>
0

>  <SCORE.RESTR.norm>
0

>  <SCORE.SYSTEM>
0

>  <SCORE.SYSTEM.CONST>
0

>  <SCORE.SYSTEM.DIHEDRAL>
0

>  <SCORE.SYSTEM.SOLV>
0

>  <SCORE.SYSTEM.norm>
0

>  <SCORE.heavy>
14

>  <SCORE.norm>
-0.354561

>  <RMSD>
1.024

$$$$
ligand
 OpenBabel11021811393D
libRbt.so/2013.1/901 2013/11/27
 14 13  0  0  0  0  0  0  0  0999 V2000
   -6.9801    1.7723    9.3927 N   0  0  0  0  0  0  0  0  0  0  0  0
   -5.5528    2.3103    9.5002 C   0  0  0  0  0  0  0  0  0  0  0  0
   -4.7159    1.1427    9.8780 C   0  0  0  0  0  0  0  0  0  0  0  0
   -3.2347    1.4494   10.0276 C   0  0  0  0  0  0  0  0  0  0  0  0
   -2.5043    0.2058   10.3912 N   0  0  0  0  0  0  0  0  0  0  0  0
   -0.9927    0.4947   10.4300 C   0  0  0  0  0  0  0  0  0  0  0  0
   -0.3757   -0.9752   10.6055 C   0  0  0  0  0  0  0  0  0  0  0  0
    0.9328   -0.9023   10.5744 C   0  0  0  0  0  0  0  0  0  0  0  0
    1.2168   -2.5136   10.6442 C   0  0  0  0  0  0  0  0  0  0  0  0
    2.7629   -2.4743   10.4010 N   0  0  0  0  0  0  0  0  0  0  0  0
    3.3043   -3.7115    9.5792 C   0  0  0  0  0  0  0  0  0  0  0  0
    3.5219   -4.9118   10.6654 C   0  0  0  0  0  0  0  0  0  0  0  0
    3.9820   -6.0682    9.8262 C   0  0  0  0  0  0  0  0  0  0  0  0
    5.3660   -5.6912    9.3528 N   0  0  0  0  0  0  0  0  0  0  0  0
  1  2  1  0  0  0  0
  2  3  1  0  0  0  0
  3  4  1  0  0  0  0
  4  5  1  0  0  0  0
  5  6  1  0  0  0  0
  6  7  1  0  0  0  0
  7  8  1  0  0  0  0
  8  9  1  0  0  0  0
  9 10  1  0  0  0  0
 10 11  1  0  0  0  0
 11 12  1  0  0  0  0
 12 13  1  0  0  0  0
 13 14  1  0  0  0  0
M  END
>  <CHROM.1>
179.38329522,-179.39392786,175.44939721,-171.62357547,176.19469945,-175.47889147
172.28132406,-145.86192042,-83.48909931,177.88045002,69.27327709,-0.23349571
-1.41943629,10.09068218,2.55950367,-0.23512798,0.31126285

>  <Name>
ligand

>  <RI>
0

>  <Rbt.Current_Directory>
/home/itssahil/PROJECTS/Mol_Feturizer/New_Systems/rnas/1FUF

>  <Rbt.Executable>
rbdock ($Id: //depot/dev/client3/rdock/2013.1/src/exe/rbdock.cxx#4 $)

>  <Rbt.Library>
libRbt.so (2013.1, Build901 2013/11/27)

>  <Rbt.Parameter_File>
/export/apps/rDock/src/rDock_2013.1_src/data/scripts/dock_solv.prm

>  <Rbt.Receptor>
prm/pocket_docking_2.prm

>  <SCORE>
-5.57002

>  <SCORE.INTER>
-2.1274

>  <SCORE.INTER.CONST>
1

>  <SCORE.INTER.POLAR>
0

>  <SCORE.INTER.ROT>
11

>  <SCORE.INTER.SOLV>
14.8354

>  <SCORE.INTER.VDW>
-17.2967

>  <SCORE.INTER.norm>
-0.151957

>  <SCORE.INTRA>
-3.44262

>  <SCORE.INTRA.DIHEDRAL>
-8.67324

>  <SCORE.INTRA.DIHEDRAL.0>
10.5765

>  <SCORE.INTRA.POLAR>
0

>  <SCORE.INTRA.POLAR.0>
0

>  <SCORE.INTRA.REPUL>
0

>  <SCORE.INTRA.REPUL.0>
0

>  <SCORE.INTRA.SOLV>
0.814182

>  <SCORE.INTRA.SOLV.lig_0>
-50.1861

>  <SCORE.INTRA.VDW>
0.486911

>  <SCORE.INTRA.VDW.0>
-1.36671

>  <SCORE.INTRA.norm>
-0.245901

>  <SCORE.RESTR>
0

>  <SCORE.RESTR.CAVITY>
0

>  <SCORE.RESTR.norm>
0

>  <SCORE.SYSTEM>
0

>  <SCORE.SYSTEM.CONST>
0

>  <SCORE.SYSTEM.DIHEDRAL>
0

>  <SCORE.SYSTEM.SOLV>
0

>  <SCORE.SYSTEM.norm>
0

>  <SCORE.heavy>
14

>  <SCORE.norm>
-0.397859

>  <RMSD>
1.026

$$$$
ligand
 OpenBabel11021811393D
libRbt.so/2013.1/901 2013/11/27
 14 13  0  0  0  0  0  0  0  0999 V2000
   -7.4129    2.1474    9.4498 N   0  0  0  0  0  0  0  0  0  0  0  0
   -5.9769    2.6668    9.3723 C   0  0  0  0  0  0  0  0  0  0  0  0
   -5.1186    1.5220    9.7717 C   0  0  0  0  0  0  0  0  0  0  0  0
   -3.6295    1.8264    9.7929 C   0  0  0  0  0  0  0  0  0  0  0  0
   -2.8812    0.6149   10.2225 N   0  0  0  0  0  0  0  0  0  0  0  0
   -1.4488    0.6744    9.6616 C   0  0  0  0  0  0  0  0  0  0  0  0
   -0.7007   -0.4429   10.5357 C   0  0  0  0  0  0  0  0  0  0  0  0
    0.5384   -0.5575   10.1235 C   0  0  0  0  0  0  0  0  0  0  0  0
    0.9533   -1.8009   11.1051 C   0  0  0  0  0  0  0  0  0  0  0  0
    2.3582   -2.1091   10.4865 N   0  0  0  0  0  0  0  0  0  0  0  0
    3.0364   -3.4092   11.0771 C   0  0  0  0  0  0  0  0  0  0  0  0
    4.0160   -3.9788    9.9008 C   0  0  0  0  0  0  0  0  0  0  0  0
    4.5585   -5.2532   10.4793 C   0  0  0  0  0  0  0  0  0  0  0  0
    5.4643   -5.8214    9.4122 N   0  0  0  0  0  0  0  0  0  0  0  0
  1  2  1  0  0  0  0
  2  3  1  0  0  0  0
  3  4  1  0  0  0  0
  4  5  1  0  0  0  0
  5  6  1  0  0  0  0
  6  7  1  0  0  0  0
  7  8  1  0  0  0  0
  8  9  1  0  0  0  0
  9 10  1  0  0  0  0
 10 11  1  0  0  0  0
 11 12  1  0  0  0  0
 12 13  1  0  0  0  0
 13 14  1  0  0  0  0
M  END
>  <CHROM.1>
-178.81861552,179.25998428,154.62191675,164.80189950,176.97589367,-176.04507973
171.77008328,-173.07470644,152.44975911,-176.38177938,179.49700212,-0.44588870
-0.99424750,10.09944503,2.61441108,-0.28007118,0.35140683

>  <Name>
ligand

>  <RI>
0

>  <Rbt.Current_Directory>
/home/itssahil/PROJECTS/Mol_Feturizer/New_Systems/rnas/1FUF

>  <Rbt.Executable>
rbdock ($Id: //depot/dev/client3/rdock/2013.1/src/exe/rbdock.cxx#4 $)

>  <Rbt.Library>
libRbt.so (2013.1, Build901 2013/11/27)

>  <Rbt.Parameter_File>
/export/apps/rDock/src/rDock_2013.1_src/data/scripts/dock_solv.prm

>  <Rbt.Receptor>
prm/blind_docking_80.prm

>  <SCORE>
-6.13629

>  <SCORE.INTER>
-1.5916

>  <SCORE.INTER.CONST>
1

>  <SCORE.INTER.POLAR>
0

>  <SCORE.INTER.ROT>
11

>  <SCORE.INTER.SOLV>
15.1565

>  <SCORE.INTER.VDW>
-17.0466

>  <SCORE.INTER.norm>
-0.113685

>  <SCORE.INTRA>
-4.5447

>  <SCORE.INTRA.DIHEDRAL>
-8.96793

>  <SCORE.INTRA.DIHEDRAL.0>
10.5765

>  <SCORE.INTRA.POLAR>
0

>  <SCORE.INTRA.POLAR.0>
0

>  <SCORE.INTRA.REPUL>
0

>  <SCORE.INTRA.REPUL.0>
0

>  <SCORE.INTRA.SOLV>
-0.153374

>  <SCORE.INTRA.SOLV.lig_0>
-50.1861

>  <SCORE.INTRA.VDW>
0.0159573

>  <SCORE.INTRA.VDW.0>
-1.36671

>  <SCORE.INTRA.norm>
-0.324621

>  <SCORE.RESTR>
0

>  <SCORE.RESTR.CAVITY>
0

>  <SCORE.RESTR.norm>
0

>  <SCORE.SYSTEM>
0

>  <SCORE.SYSTEM.CONST>
0

>  <SCORE.SYSTEM.DIHEDRAL>
0

>  <SCORE.SYSTEM.SOLV>
0

>  <SCORE.SYSTEM.norm>
0

>  <SCORE.heavy>
14

>  <SCORE.norm>
-0.438306

>  <RMSD>
1.027

$$$$
ligand
 OpenBabel11021811393D
libRbt.so/2013.1/901 2013/11/27
 14 13  0  0  0  0  0  0  0  0999 V2000
   -6.1928    1.8632    9.3245 N   0  0  0  0  0  0  0  0  0  0  0  0
   -4.7035    1.9582    8.9915 C   0  0  0  0  0  0  0  0  0  0  0  0
   -4.0442    0.9167    9.8206 C   0  0  0  0  0  0  0  0  0  0  0  0
   -2.5353    0.8389    9.6543 C   0  0  0  0  0  0  0  0  0  0  0  0
   -1.9915   -0.2204   10.5457 N   0  0  0  0  0  0  0  0  0  0  0  0
   -0.4737   -0.0212   10.7078 C   0  0  0  0  0  0  0  0  0  0  0  0
    0.0768   -1.5213   10.5714 C   0  0  0  0  0  0  0  0  0  0  0  0
    1.3849   -1.5123   10.6578 C   0  0  0  0  0  0  0  0  0  0  0  0
    1.5999   -3.1268   10.4886 C   0  0  0  0  0  0  0  0  0  0  0  0
    3.1614   -3.1528   10.5999 N   0  0  0  0  0  0  0  0  0  0  0  0
    3.7358   -4.5395   11.0960 C   0  0  0  0  0  0  0  0  0  0  0  0
    4.9088   -4.9456   10.0344 C   0  0  0  0  0  0  0  0  0  0  0  0
    4.1564   -5.2215    8.7652 C   0  0  0  0  0  0  0  0  0  0  0  0
    5.2112   -5.5898    7.7486 N   0  0  0  0  0  0  0  0  0  0  0  0
  1  2  1  0  0  0  0
  2  3  1  0  0  0  0
  3  4  1  0  0  0  0
  4  5  1  0  0  0  0
  5  6  1  0  0  0  0
  6  7  1  0  0  0  0
  7  8  1  0  0  0  0
  8  9  1  0  0  0  0
  9 10  1  0  0  0  0
 10 11  1  0  0  0  0
 11 12  1  0  0  0  0
 12 13  1  0  0  0  0
 13 14  1  0  0  0  0
M  END
>  <CHROM.1>
-179.56813013,179.14226898,-162.88976254,-136.69981530,178.48582141,179.91906416
-179.54828011,155.22954565,129.80732794,-67.93924669,179.47741092,0.30683230
-1.73385470,9.92917010,2.92768207,-0.58568450,1.20554281

>  <Name>
ligand

>  <RI>
0

>  <Rbt.Current_Directory>
/home/itssahil/PROJECTS/Mol_Feturizer/New_Systems/rnas/1FUF

>  <Rbt.Executable>
rbdock ($Id: //depot/dev/client3/rdock/2013.1/src/exe/rbdock.cxx#4 $)

>  <Rbt.Library>
libRbt.so (2013.1, Build901 2013/11/27)

>  <Rbt.Parameter_File>
/export/apps/rDock/src/rDock_2013.1_src/data/scripts/dock_solv.prm

>  <Rbt.Receptor>
prm/pocket_docking_2.prm

>  <SCORE>
-5.15057

>  <SCORE.INTER>
-1.66144

>  <SCORE.INTER.CONST>
1

>  <SCORE.INTER.POLAR>
0

>  <SCORE.INTER.ROT>
11

>  <SCORE.INTER.SOLV>
15.9353

>  <SCORE.INTER.VDW>
-17.3527

>  <SCORE.INTER.norm>
-0.118674

>  <SCORE.INTRA>
-3.48913

>  <SCORE.INTRA.DIHEDRAL>
-7.55707

>  <SCORE.INTRA.DIHEDRAL.0>
10.5765

>  <SCORE.INTRA.POLAR>
0

>  <SCORE.INTRA.POLAR.0>
0

>  <SCORE.INTRA.REPUL>
0

>  <SCORE.INTRA.REPUL.0>
0

>  <SCORE.INTRA.SOLV>
0.368636

>  <SCORE.INTRA.SOLV.lig_0>
-50.1861

>  <SCORE.INTRA.VDW>
0.105088

>  <SCORE.INTRA.VDW.0>
-1.36671

>  <SCORE.INTRA.norm>
-0.249224

>  <SCORE.RESTR>
0

>  <SCORE.RESTR.CAVITY>
0

>  <SCORE.RESTR.norm>
0

>  <SCORE.SYSTEM>
0

>  <SCORE.SYSTEM.CONST>
0

>  <SCORE.SYSTEM.DIHEDRAL>
0

>  <SCORE.SYSTEM.SOLV>
0

>  <SCORE.SYSTEM.norm>
0

>  <SCORE.heavy>
14

>  <SCORE.norm>
-0.367898

>  <RMSD>
1.052

$$$$
ligand
 OpenBabel11021811393D
libRbt.so/2013.1/901 2013/11/27
 14 13  0  0  0  0  0  0  0  0999 V2000
   -5.9674    2.3966    8.5276 N   0  0  0  0  0  0  0  0  0  0  0  0
   -6.1168    1.9574    9.9846 C   0  0  0  0  0  0  0  0  0  0  0  0
   -5.1322    0.8609   10.1716 C   0  0  0  0  0  0  0  0  0  0  0  0
   -3.6786    1.3032   10.1267 C   0  0  0  0  0  0  0  0  0  0  0  0
   -2.7953    0.1316   10.3708 N   0  0  0  0  0  0  0  0  0  0  0  0
   -1.3275    0.5474   10.1645 C   0  0  0  0  0  0  0  0  0  0  0  0
   -0.5380   -0.7634   10.6446 C   0  0  0  0  0  0  0  0  0  0  0  0
    0.7415   -0.6111   10.4033 C   0  0  0  0  0  0  0  0  0  0  0  0
    1.2098   -2.0983   10.9039 C   0  0  0  0  0  0  0  0  0  0  0  0
    2.6880   -2.0468   10.3905 N   0  0  0  0  0  0  0  0  0  0  0  0
    3.0797   -3.2714    9.4705 C   0  0  0  0  0  0  0  0  0  0  0  0
    3.6392   -4.4291   10.4778 C   0  0  0  0  0  0  0  0  0  0  0  0
    3.9052   -5.5917    9.5663 C   0  0  0  0  0  0  0  0  0  0  0  0
    5.1334   -5.2056    8.7761 N   0  0  0  0  0  0  0  0  0  0  0  0
  1  2  1  0  0  0  0
  2  3  1  0  0  0  0
  3  4  1  0  0  0  0
  4  5  1  0  0  0  0
  5  6  1  0  0  0  0
  6  7  1  0  0  0  0
  7  8  1  0  0  0  0
  8  9  1  0  0  0  0
  9 10  1  0  0  0  0
 10 11  1  0  0  0  0
 11 12  1  0  0  0  0
 12 13  1  0  0  0  0
 13 14  1  0  0  0  0
M  END
>  <CHROM.1>
68.85399097,178.10031225,173.52782813,173.14999223,173.83497556,-176.74283816
170.29890574,-126.54622837,-89.22636810,176.28805431,72.15498199,-0.36854821
-1.20145476,9.99868598,2.68288547,-0.38359393,0.65256489

>  <Name>
ligand

>  <RI>
0

>  <Rbt.Current_Directory>
/home/itssahil/PROJECTS/Mol_Feturizer/New_Systems/rnas/1FUF

>  <Rbt.Executable>
rbdock ($Id: //depot/dev/client3/rdock/2013.1/src/exe/rbdock.cxx#4 $)

>  <Rbt.Library>
libRbt.so (2013.1, Build901 2013/11/27)

>  <Rbt.Parameter_File>
/export/apps/rDock/src/rDock_2013.1_src/data/scripts/dock_solv.prm

>  <Rbt.Receptor>
prm/pocket_docking_2.prm

>  <SCORE>
-4.64597

>  <SCORE.INTER>
-2.22761

>  <SCORE.INTER.CONST>
1

>  <SCORE.INTER.POLAR>
0

>  <SCORE.INTER.ROT>
11

>  <SCORE.INTER.SOLV>
15.1822

>  <SCORE.INTER.VDW>
-17.4791

>  <SCORE.INTER.norm>
-0.159115

>  <SCORE.INTRA>
-2.41836

>  <SCORE.INTRA.DIHEDRAL>
-7.33068

>  <SCORE.INTRA.DIHEDRAL.0>
10.5765

>  <SCORE.INTRA.POLAR>
0

>  <SCORE.INTRA.POLAR.0>
0

>  <SCORE.INTRA.REPUL>
0

>  <SCORE.INTRA.REPUL.0>
0

>  <SCORE.INTRA.SOLV>
1.54809

>  <SCORE.INTRA.SOLV.lig_0>
-50.1861

>  <SCORE.INTRA.VDW>
0.472935

>  <SCORE.INTRA.VDW.0>
-1.36671

>  <SCORE.INTRA.norm>
-0.17274

>  <SCORE.RESTR>
0

>  <SCORE.RESTR.CAVITY>
0

>  <SCORE.RESTR.norm>
0

>  <SCORE.SYSTEM>
0

>  <SCORE.SYSTEM.CONST>
0

>  <SCORE.SYSTEM.DIHEDRAL>
0

>  <SCORE.SYSTEM.SOLV>
0

>  <SCORE.SYSTEM.norm>
0

>  <SCORE.heavy>
14

>  <SCORE.norm>
-0.331855

>  <RMSD>
1.052

$$$$
ligand
 OpenBabel11021811393D
libRbt.so/2013.1/901 2013/11/27
 14 13  0  0  0  0  0  0  0  0999 V2000
    4.9333   -5.6416    9.7837 N   0  0  0  0  0  0  0  0  0  0  0  0
    5.3483   -4.2640   10.3013 C   0  0  0  0  0  0  0  0  0  0  0  0
    4.7764   -3.2890    9.3374 C   0  0  0  0  0  0  0  0  0  0  0  0
    3.2600   -3.1869    9.3674 C   0  0  0  0  0  0  0  0  0  0  0  0
    2.8236   -2.6645   10.6898 N   0  0  0  0  0  0  0  0  0  0  0  0
    1.2969   -2.8146   10.8191 C   0  0  0  0  0  0  0  0  0  0  0  0
    0.7959   -1.3016   10.6406 C   0  0  0  0  0  0  0  0  0  0  0  0
   -0.5007   -1.2498   10.8270 C   0  0  0  0  0  0  0  0  0  0  0  0
   -0.6894    0.3270   10.4274 C   0  0  0  0  0  0  0  0  0  0  0  0
   -2.2546    0.3611   10.4033 N   0  0  0  0  0  0  0  0  0  0  0  0
   -2.8471    1.6375    9.6830 C   0  0  0  0  0  0  0  0  0  0  0  0
   -4.4702    1.4575    9.7133 C   0  0  0  0  0  0  0  0  0  0  0  0
   -4.9739    2.6733    8.9912 C   0  0  0  0  0  0  0  0  0  0  0  0
   -6.4761    2.5194    8.9516 N   0  0  0  0  0  0  0  0  0  0  0  0
  1  2  1  0  0  0  0
  2  3  1  0  0  0  0
  3  4  1  0  0  0  0
  4  5  1  0  0  0  0
  5  6  1  0  0  0  0
  6  7  1  0  0  0  0
  7  8  1  0  0  0  0
  8  9  1  0  0  0  0
  9 10  1  0  0  0  0
 10 11  1  0  0  0  0
 11 12  1  0  0  0  0
 12 13  1  0  0  0  0
 13 14  1  0  0  0  0
M  END
>  <CHROM.1>
68.97201029,64.28183603,-169.24041992,-106.03947206,-175.33610230,-174.37535361
170.90667830,-164.77557865,177.90150263,-178.66996033,177.95034047,0.07316274
-1.10249977,9.99545549,-0.28486056,0.52598599,-1.13125473

>  <Name>
ligand

>  <RI>
0

>  <Rbt.Current_Directory>
/home/itssahil/PROJECTS/Mol_Feturizer/New_Systems/rnas/1FUF

>  <Rbt.Executable>
rbdock ($Id: //depot/dev/client3/rdock/2013.1/src/exe/rbdock.cxx#4 $)

>  <Rbt.Library>
libRbt.so (2013.1, Build901 2013/11/27)

>  <Rbt.Parameter_File>
/export/apps/rDock/src/rDock_2013.1_src/data/scripts/dock_solv.prm

>  <Rbt.Receptor>
prm/pocket_docking_3.prm

>  <SCORE>
-5.14284

>  <SCORE.INTER>
-1.99174

>  <SCORE.INTER.CONST>
1

>  <SCORE.INTER.POLAR>
0

>  <SCORE.INTER.ROT>
11

>  <SCORE.INTER.SOLV>
15.2394

>  <SCORE.INTER.VDW>
-17.341

>  <SCORE.INTER.norm>
-0.142267

>  <SCORE.INTRA>
-3.1511

>  <SCORE.INTRA.DIHEDRAL>
-8.34142

>  <SCORE.INTRA.DIHEDRAL.0>
10.5765

>  <SCORE.INTRA.POLAR>
0

>  <SCORE.INTRA.POLAR.0>
0

>  <SCORE.INTRA.REPUL>
0

>  <SCORE.INTRA.REPUL.0>
0

>  <SCORE.INTRA.SOLV>
1.53882

>  <SCORE.INTRA.SOLV.lig_0>
-50.1861

>  <SCORE.INTRA.VDW>
0.250198

>  <SCORE.INTRA.VDW.0>
-1.36671

>  <SCORE.INTRA.norm>
-0.225079

>  <SCORE.RESTR>
0

>  <SCORE.RESTR.CAVITY>
0

>  <SCORE.RESTR.norm>
0

>  <SCORE.SYSTEM>
0

>  <SCORE.SYSTEM.CONST>
0

>  <SCORE.SYSTEM.DIHEDRAL>
0

>  <SCORE.SYSTEM.SOLV>
0

>  <SCORE.SYSTEM.norm>
0

>  <SCORE.heavy>
14

>  <SCORE.norm>
-0.367346

>  <RMSD>
1.058

$$$$
ligand
 OpenBabel11021811393D
libRbt.so/2013.1/901 2013/11/27
 14 13  0  0  0  0  0  0  0  0999 V2000
   -6.0124    2.4454    8.4670 N   0  0  0  0  0  0  0  0  0  0  0  0
   -6.1099    2.1412    9.9623 C   0  0  0  0  0  0  0  0  0  0  0  0
   -5.1779    1.0088   10.1986 C   0  0  0  0  0  0  0  0  0  0  0  0
   -3.7064    1.3614   10.0537 C   0  0  0  0  0  0  0  0  0  0  0  0
   -2.8764    0.1686   10.3711 N   0  0  0  0  0  0  0  0  0  0  0  0
   -1.3898    0.5124   10.1671 C   0  0  0  0  0  0  0  0  0  0  0  0
   -0.6635   -0.8142   10.7004 C   0  0  0  0  0  0  0  0  0  0  0  0
    0.6102   -0.7637   10.3941 C   0  0  0  0  0  0  0  0  0  0  0  0
    0.9817   -2.2873   10.8653 C   0  0  0  0  0  0  0  0  0  0  0  0
    2.4921   -2.2820   10.4530 N   0  0  0  0  0  0  0  0  0  0  0  0
    3.3329   -3.4422   11.1209 C   0  0  0  0  0  0  0  0  0  0  0  0
    3.3675   -4.6574   10.0300 C   0  0  0  0  0  0  0  0  0  0  0  0
    4.3075   -4.1560    8.9726 C   0  0  0  0  0  0  0  0  0  0  0  0
    5.6770   -4.1885    9.6092 N   0  0  0  0  0  0  0  0  0  0  0  0
  1  2  1  0  0  0  0
  2  3  1  0  0  0  0
  3  4  1  0  0  0  0
  4  5  1  0  0  0  0
  5  6  1  0  0  0  0
  6  7  1  0  0  0  0
  7  8  1  0  0  0  0
  8  9  1  0  0  0  0
  9 10  1  0  0  0  0
 10 11  1  0  0  0  0
 11 12  1  0  0  0  0
 12 13  1  0  0  0  0
 13 14  1  0  0  0  0
M  END
>  <CHROM.1>
69.14432775,177.52398672,177.68182405,174.15983700,169.93812608,-172.53415989
177.65561402,163.24097986,95.46538046,72.92198596,70.80036612,-0.36917284
-1.06815018,10.09766631,-3.10349095,-0.54603192,1.59108322

>  <Name>
ligand

>  <RI>
0

>  <Rbt.Current_Directory>
/home/itssahil/PROJECTS/Mol_Feturizer/New_Systems/rnas/1FUF

>  <Rbt.Executable>
rbdock ($Id: //depot/dev/client3/rdock/2013.1/src/exe/rbdock.cxx#4 $)

>  <Rbt.Library>
libRbt.so (2013.1, Build901 2013/11/27)

>  <Rbt.Parameter_File>
/export/apps/rDock/src/rDock_2013.1_src/data/scripts/dock_solv.prm

>  <Rbt.Receptor>
prm/pocket_docking_2.prm

>  <SCORE>
-3.00556

>  <SCORE.INTER>
-0.988146

>  <SCORE.INTER.CONST>
1

>  <SCORE.INTER.POLAR>
0

>  <SCORE.INTER.ROT>
11

>  <SCORE.INTER.SOLV>
16.18

>  <SCORE.INTER.VDW>
-16.9854

>  <SCORE.INTER.norm>
-0.0705818

>  <SCORE.INTRA>
-2.01925

>  <SCORE.INTRA.DIHEDRAL>
-7.56123

>  <SCORE.INTRA.DIHEDRAL.0>
10.5765

>  <SCORE.INTRA.POLAR>
0

>  <SCORE.INTRA.POLAR.0>
0

>  <SCORE.INTRA.REPUL>
0

>  <SCORE.INTRA.REPUL.0>
0

>  <SCORE.INTRA.SOLV>
2.42168

>  <SCORE.INTRA.SOLV.lig_0>
-50.1861

>  <SCORE.INTRA.VDW>
0.550526

>  <SCORE.INTRA.VDW.0>
-1.36671

>  <SCORE.INTRA.norm>
-0.144232

>  <SCORE.RESTR>
0.00184182

>  <SCORE.RESTR.CAVITY>
0.00184182

>  <SCORE.RESTR.norm>
0.000131559

>  <SCORE.SYSTEM>
0

>  <SCORE.SYSTEM.CONST>
0

>  <SCORE.SYSTEM.DIHEDRAL>
0

>  <SCORE.SYSTEM.SOLV>
0

>  <SCORE.SYSTEM.norm>
0

>  <SCORE.heavy>
14

>  <SCORE.norm>
-0.214683

>  <RMSD>
1.069

$$$$
ligand
 OpenBabel11021811393D
libRbt.so/2013.1/901 2013/11/27
 14 13  0  0  0  0  0  0  0  0999 V2000
    4.9682   -6.5219    8.4105 N   0  0  0  0  0  0  0  0  0  0  0  0
    4.7527   -5.9967    9.8302 C   0  0  0  0  0  0  0  0  0  0  0  0
    4.1772   -4.6370    9.6673 C   0  0  0  0  0  0  0  0  0  0  0  0
    3.8783   -3.9173   10.9724 C   0  0  0  0  0  0  0  0  0  0  0  0
    3.1866   -2.6325   10.6838 N   0  0  0  0  0  0  0  0  0  0  0  0
    1.6669   -2.8262   10.8340 C   0  0  0  0  0  0  0  0  0  0  0  0
    1.1137   -1.3428   10.5779 C   0  0  0  0  0  0  0  0  0  0  0  0
   -0.1938   -1.3457   10.6726 C   0  0  0  0  0  0  0  0  0  0  0  0
   -0.4113    0.2503   10.3776 C   0  0  0  0  0  0  0  0  0  0  0  0
   -1.9715    0.2858   10.5040 N   0  0  0  0  0  0  0  0  0  0  0  0
   -2.6353    1.5248    9.7805 C   0  0  0  0  0  0  0  0  0  0  0  0
   -4.2488    1.3253    9.9377 C   0  0  0  0  0  0  0  0  0  0  0  0
   -4.8241    2.4620    9.1438 C   0  0  0  0  0  0  0  0  0  0  0  0
   -6.3224    2.3223    9.2763 N   0  0  0  0  0  0  0  0  0  0  0  0
  1  2  1  0  0  0  0
  2  3  1  0  0  0  0
  3  4  1  0  0  0  0
  4  5  1  0  0  0  0
  5  6  1  0  0  0  0
  6  7  1  0  0  0  0
  7  8  1  0  0  0  0
  8  9  1  0  0  0  0
  9 10  1  0  0  0  0
 10 11  1  0  0  0  0
 11 12  1  0  0  0  0
 12 13  1  0  0  0  0
 13 14  1  0  0  0  0
M  END
>  <CHROM.1>
179.97560639,-174.44512631,96.95104046,176.70784012,179.92080321,179.73522518
-179.24152047,-158.76817195,176.20690206,-175.63626611,-179.40195998,0.22412216
-1.50348342,10.04789030,0.46124823,0.50243928,-2.39713333

>  <Name>
ligand

>  <RI>
0

>  <Rbt.Current_Directory>
/home/itssahil/PROJECTS/Mol_Feturizer/New_Systems/rnas/1FUF

>  <Rbt.Executable>
rbdock ($Id: //depot/dev/client3/rdock/2013.1/src/exe/rbdock.cxx#4 $)

>  <Rbt.Library>
libRbt.so (2013.1, Build901 2013/11/27)

>  <Rbt.Parameter_File>
/export/apps/rDock/src/rDock_2013.1_src/data/scripts/dock_solv.prm

>  <Rbt.Receptor>
prm/pocket_docking_4.prm

>  <SCORE>
-6.63065

>  <SCORE.INTER>
-2.09046

>  <SCORE.INTER.CONST>
1

>  <SCORE.INTER.POLAR>
0

>  <SCORE.INTER.ROT>
11

>  <SCORE.INTER.SOLV>
14.8449

>  <SCORE.INTER.VDW>
-17.2753

>  <SCORE.INTER.norm>
-0.149318

>  <SCORE.INTRA>
-4.54019

>  <SCORE.INTRA.DIHEDRAL>
-9.21658

>  <SCORE.INTRA.DIHEDRAL.0>
10.5765

>  <SCORE.INTRA.POLAR>
0

>  <SCORE.INTRA.POLAR.0>
0

>  <SCORE.INTRA.REPUL>
0

>  <SCORE.INTRA.REPUL.0>
0

>  <SCORE.INTRA.SOLV>
-0.149961

>  <SCORE.INTRA.SOLV.lig_0>
-50.1861

>  <SCORE.INTRA.VDW>
0.14308

>  <SCORE.INTRA.VDW.0>
-1.36671

>  <SCORE.INTRA.norm>
-0.324299

>  <SCORE.RESTR>
0

>  <SCORE.RESTR.CAVITY>
0

>  <SCORE.RESTR.norm>
0

>  <SCORE.SYSTEM>
0

>  <SCORE.SYSTEM.CONST>
0

>  <SCORE.SYSTEM.DIHEDRAL>
0

>  <SCORE.SYSTEM.SOLV>
0

>  <SCORE.SYSTEM.norm>
0

>  <SCORE.heavy>
14

>  <SCORE.norm>
-0.473618

>  <RMSD>
1.085

$$$$
ligand
 OpenBabel11021811393D
libRbt.so/2013.1/901 2013/11/27
 14 13  0  0  0  0  0  0  0  0999 V2000
    4.2087   -6.2486    9.1239 N   0  0  0  0  0  0  0  0  0  0  0  0
    4.8345   -4.8669    8.9314 C   0  0  0  0  0  0  0  0  0  0  0  0
    5.0626   -4.3400   10.3014 C   0  0  0  0  0  0  0  0  0  0  0  0
    3.7933   -4.0589   11.0892 C   0  0  0  0  0  0  0  0  0  0  0  0
    3.0930   -2.8862   10.5005 N   0  0  0  0  0  0  0  0  0  0  0  0
    1.9022   -2.5004   11.3965 C   0  0  0  0  0  0  0  0  0  0  0  0
    1.1705   -1.3778   10.5153 C   0  0  0  0  0  0  0  0  0  0  0  0
    0.0266   -1.0657   11.0743 C   0  0  0  0  0  0  0  0  0  0  0  0
   -0.4387    0.0374    9.9571 C   0  0  0  0  0  0  0  0  0  0  0  0
   -1.8467    0.3732   10.5538 N   0  0  0  0  0  0  0  0  0  0  0  0
   -2.6320    1.4754    9.7367 C   0  0  0  0  0  0  0  0  0  0  0  0
   -4.2107    1.2624   10.0974 C   0  0  0  0  0  0  0  0  0  0  0  0
   -4.9021    2.3310    9.3017 C   0  0  0  0  0  0  0  0  0  0  0  0
   -6.3730    2.1623    9.6015 N   0  0  0  0  0  0  0  0  0  0  0  0
  1  2  1  0  0  0  0
  2  3  1  0  0  0  0
  3  4  1  0  0  0  0
  4  5  1  0  0  0  0
  5  6  1  0  0  0  0
  6  7  1  0  0  0  0
  7  8  1  0  0  0  0
  8  9  1  0  0  0  0
  9 10  1  0  0  0  0
 10 11  1  0  0  0  0
 11 12  1  0  0  0  0
 12 13  1  0  0  0  0
 13 14  1  0  0  0  0
M  END
>  <CHROM.1>
-66.40651987,-69.77332400,-173.29932746,-172.60816732,171.95709587,-179.35562534
176.93765755,178.64724386,157.71408863,179.85880411,179.64019814,0.26363124
-1.40724932,10.15584942,0.38561111,0.51027654,-2.30039500

>  <Name>
ligand

>  <RI>
0

>  <Rbt.Current_Directory>
/home/itssahil/PROJECTS/Mol_Feturizer/New_Systems/rnas/1FUF

>  <Rbt.Executable>
rbdock ($Id: //depot/dev/client3/rdock/2013.1/src/exe/rbdock.cxx#4 $)

>  <Rbt.Library>
libRbt.so (2013.1, Build901 2013/11/27)

>  <Rbt.Parameter_File>
/export/apps/rDock/src/rDock_2013.1_src/data/scripts/dock_solv.prm

>  <Rbt.Receptor>
prm/blind_docking_100.prm

>  <SCORE>
-5.28945

>  <SCORE.INTER>
-1.54183

>  <SCORE.INTER.CONST>
1

>  <SCORE.INTER.POLAR>
0

>  <SCORE.INTER.ROT>
11

>  <SCORE.INTER.SOLV>
15.4704

>  <SCORE.INTER.VDW>
-17.118

>  <SCORE.INTER.norm>
-0.110131

>  <SCORE.INTRA>
-3.74762

>  <SCORE.INTRA.DIHEDRAL>
-9.3436

>  <SCORE.INTRA.DIHEDRAL.0>
10.5765

>  <SCORE.INTRA.POLAR>
0

>  <SCORE.INTRA.POLAR.0>
0

>  <SCORE.INTRA.REPUL>
0

>  <SCORE.INTRA.REPUL.0>
0

>  <SCORE.INTRA.SOLV>
1.49625

>  <SCORE.INTRA.SOLV.lig_0>
-50.1861

>  <SCORE.INTRA.VDW>
0.176056

>  <SCORE.INTRA.VDW.0>
-1.36671

>  <SCORE.INTRA.norm>
-0.267687

>  <SCORE.RESTR>
0

>  <SCORE.RESTR.CAVITY>
0

>  <SCORE.RESTR.norm>
0

>  <SCORE.SYSTEM>
0

>  <SCORE.SYSTEM.CONST>
0

>  <SCORE.SYSTEM.DIHEDRAL>
0

>  <SCORE.SYSTEM.SOLV>
0

>  <SCORE.SYSTEM.norm>
0

>  <SCORE.heavy>
14

>  <SCORE.norm>
-0.377818

>  <RMSD>
1.105

$$$$
ligand
 OpenBabel11021811393D
libRbt.so/2013.1/901 2013/11/27
 14 13  0  0  0  0  0  0  0  0999 V2000
    5.8628   -6.0640    9.0614 N   0  0  0  0  0  0  0  0  0  0  0  0
    4.3664   -6.0284    8.7490 C   0  0  0  0  0  0  0  0  0  0  0  0
    3.9438   -4.6248    8.9902 C   0  0  0  0  0  0  0  0  0  0  0  0
    4.0455   -4.1748   10.4385 C   0  0  0  0  0  0  0  0  0  0  0  0
    3.4336   -2.8269   10.5837 N   0  0  0  0  0  0  0  0  0  0  0  0
    1.9470   -2.9786   10.9537 C   0  0  0  0  0  0  0  0  0  0  0  0
    1.3643   -1.5272   10.5989 C   0  0  0  0  0  0  0  0  0  0  0  0
    0.0781   -1.5032   10.8514 C   0  0  0  0  0  0  0  0  0  0  0  0
   -0.1984    0.0126   10.2967 C   0  0  0  0  0  0  0  0  0  0  0  0
   -1.7432    0.0593   10.5474 N   0  0  0  0  0  0  0  0  0  0  0  0
   -2.5036    1.0829    9.6130 C   0  0  0  0  0  0  0  0  0  0  0  0
   -4.0721    1.0239   10.0648 C   0  0  0  0  0  0  0  0  0  0  0  0
   -4.7377    2.0203    9.1607 C   0  0  0  0  0  0  0  0  0  0  0  0
   -6.1936    2.0133    9.5634 N   0  0  0  0  0  0  0  0  0  0  0  0
  1  2  1  0  0  0  0
  2  3  1  0  0  0  0
  3  4  1  0  0  0  0
  4  5  1  0  0  0  0
  5  6  1  0  0  0  0
  6  7  1  0  0  0  0
  7  8  1  0  0  0  0
  8  9  1  0  0  0  0
  9 10  1  0  0  0  0
 10 11  1  0  0  0  0
 11 12  1  0  0  0  0
 12 13  1  0  0  0  0
 13 14  1  0  0  0  0
M  END
>  <CHROM.1>
-65.44961460,-172.66017069,91.58452641,-162.26891673,179.29976713,-176.15010176
178.46993263,-155.32120904,-177.88957515,179.38159635,-179.08479851,0.39951259
-1.67966801,9.96233886,0.42283447,0.49026627,-2.30446863

>  <Name>
ligand

>  <RI>
0

>  <Rbt.Current_Directory>
/home/itssahil/PROJECTS/Mol_Feturizer/New_Systems/rnas/1FUF

>  <Rbt.Executable>
rbdock ($Id: //depot/dev/client3/rdock/2013.1/src/exe/rbdock.cxx#4 $)

>  <Rbt.Library>
libRbt.so (2013.1, Build901 2013/11/27)

>  <Rbt.Parameter_File>
/export/apps/rDock/src/rDock_2013.1_src/data/scripts/dock_solv.prm

>  <Rbt.Receptor>
prm/pocket_docking_2.prm

>  <SCORE>
-5.47856

>  <SCORE.INTER>
-1.76623

>  <SCORE.INTER.CONST>
1

>  <SCORE.INTER.POLAR>
0

>  <SCORE.INTER.ROT>
11

>  <SCORE.INTER.SOLV>
15.3901

>  <SCORE.INTER.VDW>
-17.2409

>  <SCORE.INTER.norm>
-0.126159

>  <SCORE.INTRA>
-3.71234

>  <SCORE.INTRA.DIHEDRAL>
-8.85737

>  <SCORE.INTRA.DIHEDRAL.0>
10.5765

>  <SCORE.INTRA.POLAR>
0

>  <SCORE.INTRA.POLAR.0>
0

>  <SCORE.INTRA.REPUL>
0

>  <SCORE.INTRA.REPUL.0>
0

>  <SCORE.INTRA.SOLV>
0.677622

>  <SCORE.INTRA.SOLV.lig_0>
-50.1861

>  <SCORE.INTRA.VDW>
0.377536

>  <SCORE.INTRA.VDW.0>
-1.36671

>  <SCORE.INTRA.norm>
-0.265167

>  <SCORE.RESTR>
0

>  <SCORE.RESTR.CAVITY>
0

>  <SCORE.RESTR.norm>
0

>  <SCORE.SYSTEM>
0

>  <SCORE.SYSTEM.CONST>
0

>  <SCORE.SYSTEM.DIHEDRAL>
0

>  <SCORE.SYSTEM.SOLV>
0

>  <SCORE.SYSTEM.norm>
0

>  <SCORE.heavy>
14

>  <SCORE.norm>
-0.391326

>  <RMSD>
1.121

$$$$
ligand
 OpenBabel11021811393D
libRbt.so/2013.1/901 2013/11/27
 14 13  0  0  0  0  0  0  0  0999 V2000
   -6.3996    2.5195    8.6669 N   0  0  0  0  0  0  0  0  0  0  0  0
   -4.8869    2.7417    8.6484 C   0  0  0  0  0  0  0  0  0  0  0  0
   -4.3226    1.7060    9.5515 C   0  0  0  0  0  0  0  0  0  0  0  0
   -2.8097    1.7480    9.6929 C   0  0  0  0  0  0  0  0  0  0  0  0
   -2.3541    0.5853   10.5010 N   0  0  0  0  0  0  0  0  0  0  0  0
   -0.8303    0.6701   10.7030 C   0  0  0  0  0  0  0  0  0  0  0  0
   -0.3990   -0.8735   10.6457 C   0  0  0  0  0  0  0  0  0  0  0  0
    0.9089   -0.9592   10.6744 C   0  0  0  0  0  0  0  0  0  0  0  0
    0.9971   -2.5903   10.5598 C   0  0  0  0  0  0  0  0  0  0  0  0
    2.5566   -2.7277   10.5865 N   0  0  0  0  0  0  0  0  0  0  0  0
    3.0585   -4.2267   10.5700 C   0  0  0  0  0  0  0  0  0  0  0  0
    4.6900   -4.1545   10.5961 C   0  0  0  0  0  0  0  0  0  0  0  0
    5.1080   -5.5956   10.5530 C   0  0  0  0  0  0  0  0  0  0  0  0
    4.7495   -6.0730    9.1654 N   0  0  0  0  0  0  0  0  0  0  0  0
  1  2  1  0  0  0  0
  2  3  1  0  0  0  0
  3  4  1  0  0  0  0
  4  5  1  0  0  0  0
  5  6  1  0  0  0  0
  6  7  1  0  0  0  0
  7  8  1  0  0  0  0
  8  9  1  0  0  0  0
  9 10  1  0  0  0  0
 10 11  1  0  0  0  0
 11 12  1  0  0  0  0
 12 13  1  0  0  0  0
 13 14  1  0  0  0  0
M  END
>  <CHROM.1>
-179.57424375,-174.13170824,-177.12623834,-143.96689393,173.89224824,-178.42264828
179.81141440,176.88442584,179.80118181,-178.96619805,69.53356411,0.00489230
-1.23063866,10.07976734,2.70632230,-0.53173579,0.68943816

>  <Name>
ligand

>  <RI>
0

>  <Rbt.Current_Directory>
/home/itssahil/PROJECTS/Mol_Feturizer/New_Systems/rnas/1FUF

>  <Rbt.Executable>
rbdock ($Id: //depot/dev/client3/rdock/2013.1/src/exe/rbdock.cxx#4 $)

>  <Rbt.Library>
libRbt.so (2013.1, Build901 2013/11/27)

>  <Rbt.Parameter_File>
/export/apps/rDock/src/rDock_2013.1_src/data/scripts/dock_solv.prm

>  <Rbt.Receptor>
prm/pocket_docking_3.prm

>  <SCORE>
-5.60031

>  <SCORE.INTER>
-1.82082

>  <SCORE.INTER.CONST>
1

>  <SCORE.INTER.POLAR>
0

>  <SCORE.INTER.ROT>
11

>  <SCORE.INTER.SOLV>
14.1691

>  <SCORE.INTER.VDW>
-16.8703

>  <SCORE.INTER.norm>
-0.130059

>  <SCORE.INTRA>
-3.77948

>  <SCORE.INTRA.DIHEDRAL>
-9.15401

>  <SCORE.INTRA.DIHEDRAL.0>
10.5765

>  <SCORE.INTRA.POLAR>
0

>  <SCORE.INTRA.POLAR.0>
0

>  <SCORE.INTRA.REPUL>
0

>  <SCORE.INTRA.REPUL.0>
0

>  <SCORE.INTRA.SOLV>
0.826361

>  <SCORE.INTRA.SOLV.lig_0>
-50.1861

>  <SCORE.INTRA.VDW>
0.384345

>  <SCORE.INTRA.VDW.0>
-1.36671

>  <SCORE.INTRA.norm>
-0.269963

>  <SCORE.RESTR>
0

>  <SCORE.RESTR.CAVITY>
0

>  <SCORE.RESTR.norm>
0

>  <SCORE.SYSTEM>
0

>  <SCORE.SYSTEM.CONST>
0

>  <SCORE.SYSTEM.DIHEDRAL>
0

>  <SCORE.SYSTEM.SOLV>
0

>  <SCORE.SYSTEM.norm>
0

>  <SCORE.heavy>
14

>  <SCORE.norm>
-0.400022

>  <RMSD>
1.124

$$$$
ligand
 OpenBabel11021811393D
libRbt.so/2013.1/901 2013/11/27
 14 13  0  0  0  0  0  0  0  0999 V2000
    4.5339   -4.8905    8.6771 N   0  0  0  0  0  0  0  0  0  0  0  0
    4.7988   -3.5369    9.3371 C   0  0  0  0  0  0  0  0  0  0  0  0
    4.2427   -3.6491   10.7100 C   0  0  0  0  0  0  0  0  0  0  0  0
    2.7287   -3.5390   10.7889 C   0  0  0  0  0  0  0  0  0  0  0  0
    2.3078   -2.1737   10.3753 N   0  0  0  0  0  0  0  0  0  0  0  0
    1.0632   -1.7577   11.1800 C   0  0  0  0  0  0  0  0  0  0  0  0
    0.3786   -0.6835   10.2057 C   0  0  0  0  0  0  0  0  0  0  0  0
   -0.7645   -0.2990   10.7197 C   0  0  0  0  0  0  0  0  0  0  0  0
   -1.2588    0.5964    9.4408 C   0  0  0  0  0  0  0  0  0  0  0  0
   -2.6796    0.9779    9.9765 N   0  0  0  0  0  0  0  0  0  0  0  0
   -3.8527    0.1827    9.2762 C   0  0  0  0  0  0  0  0  0  0  0  0
   -5.2364    0.7607    9.9237 C   0  0  0  0  0  0  0  0  0  0  0  0
   -5.3666    2.1273    9.3165 C   0  0  0  0  0  0  0  0  0  0  0  0
   -6.7310    2.6214    9.7363 N   0  0  0  0  0  0  0  0  0  0  0  0
  1  2  1  0  0  0  0
  2  3  1  0  0  0  0
  3  4  1  0  0  0  0
  4  5  1  0  0  0  0
  5  6  1  0  0  0  0
  6  7  1  0  0  0  0
  7  8  1  0  0  0  0
  8  9  1  0  0  0  0
  9 10  1  0  0  0  0
 10 11  1  0  0  0  0
 11 12  1  0  0  0  0
 12 13  1  0  0  0  0
 13 14  1  0  0  0  0
M  END
>  <CHROM.1>
-77.00621413,-65.24537702,-146.46960164,-154.88288418,175.53354586,-173.24096164
175.64307940,-105.26795742,-177.80218969,72.62105435,172.26673086,-0.41676244
-0.94739214,9.97610267,0.20800083,0.49184724,-2.04740796

>  <Name>
ligand

>  <RI>
0

>  <Rbt.Current_Directory>
/home/itssahil/PROJECTS/Mol_Feturizer/New_Systems/rnas/1FUF

>  <Rbt.Executable>
rbdock ($Id: //depot/dev/client3/rdock/2013.1/src/exe/rbdock.cxx#4 $)

>  <Rbt.Library>
libRbt.so (2013.1, Build901 2013/11/27)

>  <Rbt.Parameter_File>
/export/apps/rDock/src/rDock_2013.1_src/data/scripts/dock_solv.prm

>  <Rbt.Receptor>
prm/pocket_docking_2.prm

>  <SCORE>
-3.37187

>  <SCORE.INTER>
-1.39469

>  <SCORE.INTER.CONST>
1

>  <SCORE.INTER.POLAR>
0

>  <SCORE.INTER.ROT>
11

>  <SCORE.INTER.SOLV>
16.9772

>  <SCORE.INTER.VDW>
-17.5222

>  <SCORE.INTER.norm>
-0.0996206

>  <SCORE.INTRA>
-2.00107

>  <SCORE.INTRA.DIHEDRAL>
-6.11607

>  <SCORE.INTRA.DIHEDRAL.0>
10.5765

>  <SCORE.INTRA.POLAR>
0

>  <SCORE.INTRA.POLAR.0>
0

>  <SCORE.INTRA.REPUL>
0

>  <SCORE.INTRA.REPUL.0>
0

>  <SCORE.INTRA.SOLV>
1.69227

>  <SCORE.INTRA.SOLV.lig_0>
-50.1861

>  <SCORE.INTRA.VDW>
0.210836

>  <SCORE.INTRA.VDW.0>
-1.36671

>  <SCORE.INTRA.norm>
-0.142933

>  <SCORE.RESTR>
0.0238875

>  <SCORE.RESTR.CAVITY>
0.0238875

>  <SCORE.RESTR.norm>
0.00170625

>  <SCORE.SYSTEM>
0

>  <SCORE.SYSTEM.CONST>
0

>  <SCORE.SYSTEM.DIHEDRAL>
0

>  <SCORE.SYSTEM.SOLV>
0

>  <SCORE.SYSTEM.norm>
0

>  <SCORE.heavy>
14

>  <SCORE.norm>
-0.240848

>  <RMSD>
1.128

$$$$
ligand
 OpenBabel11021811393D
libRbt.so/2013.1/901 2013/11/27
 14 13  0  0  0  0  0  0  0  0999 V2000
   -6.5360    1.3665    9.5118 N   0  0  0  0  0  0  0  0  0  0  0  0
   -5.2959    2.1117    9.0170 C   0  0  0  0  0  0  0  0  0  0  0  0
   -4.1898    1.6774    9.9085 C   0  0  0  0  0  0  0  0  0  0  0  0
   -3.7257    0.2468    9.6880 C   0  0  0  0  0  0  0  0  0  0  0  0
   -2.5141   -0.0144   10.5101 N   0  0  0  0  0  0  0  0  0  0  0  0
   -1.2723    0.5179    9.7722 C   0  0  0  0  0  0  0  0  0  0  0  0
   -0.0760   -0.0676   10.6654 C   0  0  0  0  0  0  0  0  0  0  0  0
   -0.0476   -1.3731   10.5493 C   0  0  0  0  0  0  0  0  0  0  0  0
    1.3970   -1.6002   11.2864 C   0  0  0  0  0  0  0  0  0  0  0  0
    1.5595   -3.1278   10.9839 N   0  0  0  0  0  0  0  0  0  0  0  0
    3.0474   -3.6439   11.1225 C   0  0  0  0  0  0  0  0  0  0  0  0
    3.7940   -3.2425    9.7264 C   0  0  0  0  0  0  0  0  0  0  0  0
    5.1668   -3.8305    9.8783 C   0  0  0  0  0  0  0  0  0  0  0  0
    5.0090   -5.2984    9.5588 N   0  0  0  0  0  0  0  0  0  0  0  0
  1  2  1  0  0  0  0
  2  3  1  0  0  0  0
  3  4  1  0  0  0  0
  4  5  1  0  0  0  0
  5  6  1  0  0  0  0
  6  7  1  0  0  0  0
  7  8  1  0  0  0  0
  8  9  1  0  0  0  0
  9 10  1  0  0  0  0
 10 11  1  0  0  0  0
 11 12  1  0  0  0  0
 12 13  1  0  0  0  0
 13 14  1  0  0  0  0
M  END
>  <CHROM.1>
71.71090083,172.93030634,-82.22515887,-170.68472521,67.49374476,169.17090325
-172.33247990,161.13996590,-81.05968640,-176.51342645,79.69010053,-0.26296859
-1.16248394,10.15562346,2.72185850,-0.35341030,0.54976818

>  <Name>
ligand

>  <RI>
0

>  <Rbt.Current_Directory>
/home/itssahil/PROJECTS/Mol_Feturizer/New_Systems/rnas/1FUF

>  <Rbt.Executable>
rbdock ($Id: //depot/dev/client3/rdock/2013.1/src/exe/rbdock.cxx#4 $)

>  <Rbt.Library>
libRbt.so (2013.1, Build901 2013/11/27)

>  <Rbt.Parameter_File>
/export/apps/rDock/src/rDock_2013.1_src/data/scripts/dock_solv.prm

>  <Rbt.Receptor>
prm/pocket_docking_2.prm

>  <SCORE>
-2.49044

>  <SCORE.INTER>
-1.33568

>  <SCORE.INTER.CONST>
1

>  <SCORE.INTER.POLAR>
0

>  <SCORE.INTER.ROT>
11

>  <SCORE.INTER.SOLV>
16.6734

>  <SCORE.INTER.VDW>
-17.3816

>  <SCORE.INTER.norm>
-0.0954055

>  <SCORE.INTRA>
-1.16418

>  <SCORE.INTRA.DIHEDRAL>
-6.56017

>  <SCORE.INTRA.DIHEDRAL.0>
10.5765

>  <SCORE.INTRA.POLAR>
0

>  <SCORE.INTRA.POLAR.0>
0

>  <SCORE.INTRA.REPUL>
0

>  <SCORE.INTRA.REPUL.0>
0

>  <SCORE.INTRA.SOLV>
1.79011

>  <SCORE.INTRA.SOLV.lig_0>
-50.1861

>  <SCORE.INTRA.VDW>
1.22086

>  <SCORE.INTRA.VDW.0>
-1.36671

>  <SCORE.INTRA.norm>
-0.0831554

>  <SCORE.RESTR>
0.00941505

>  <SCORE.RESTR.CAVITY>
0.00941505

>  <SCORE.RESTR.norm>
0.000672504

>  <SCORE.SYSTEM>
0

>  <SCORE.SYSTEM.CONST>
0

>  <SCORE.SYSTEM.DIHEDRAL>
0

>  <SCORE.SYSTEM.SOLV>
0

>  <SCORE.SYSTEM.norm>
0

>  <SCORE.heavy>
14

>  <SCORE.norm>
-0.177888

>  <RMSD>
1.132

$$$$
ligand
 OpenBabel11021811393D
libRbt.so/2013.1/901 2013/11/27
 14 13  0  0  0  0  0  0  0  0999 V2000
    5.4355   -5.5427    9.6456 N   0  0  0  0  0  0  0  0  0  0  0  0
    3.9083   -5.4930    9.5897 C   0  0  0  0  0  0  0  0  0  0  0  0
    3.5178   -4.3328   10.4313 C   0  0  0  0  0  0  0  0  0  0  0  0
    2.0201   -4.0848   10.5091 C   0  0  0  0  0  0  0  0  0  0  0  0
    1.7663   -2.7901   11.1958 N   0  0  0  0  0  0  0  0  0  0  0  0
    2.0042   -1.6335   10.2082 C   0  0  0  0  0  0  0  0  0  0  0  0
    0.9823   -0.5200   10.7448 C   0  0  0  0  0  0  0  0  0  0  0  0
   -0.2415   -0.8659   10.4266 C   0  0  0  0  0  0  0  0  0  0  0  0
   -0.9504    0.5590   10.8124 C   0  0  0  0  0  0  0  0  0  0  0  0
   -2.3928    0.2323   10.2987 N   0  0  0  0  0  0  0  0  0  0  0  0
   -3.3072    1.5108   10.1293 C   0  0  0  0  0  0  0  0  0  0  0  0
   -4.7943    0.9524    9.7494 C   0  0  0  0  0  0  0  0  0  0  0  0
   -5.6021    2.2026    9.5556 C   0  0  0  0  0  0  0  0  0  0  0  0
   -6.9990    1.7281    9.2308 N   0  0  0  0  0  0  0  0  0  0  0  0
  1  2  1  0  0  0  0
  2  3  1  0  0  0  0
  3  4  1  0  0  0  0
  4  5  1  0  0  0  0
  5  6  1  0  0  0  0
  6  7  1  0  0  0  0
  7  8  1  0  0  0  0
  8  9  1  0  0  0  0
  9 10  1  0  0  0  0
 10 11  1  0  0  0  0
 11 12  1  0  0  0  0
 12 13  1  0  0  0  0
 13 14  1  0  0  0  0
M  END
>  <CHROM.1>
179.46523928,-171.29739620,78.77346733,149.92318922,-73.91730616,-168.96878651
174.22755393,-164.06206337,-174.02755993,-178.13591855,-178.79220566,-0.33227173
-1.29113961,10.18054925,0.54602157,0.28111479,-2.77721668

>  <Name>
ligand

>  <RI>
0

>  <Rbt.Current_Directory>
/home/itssahil/PROJECTS/Mol_Feturizer/New_Systems/rnas/1FUF

>  <Rbt.Executable>
rbdock ($Id: //depot/dev/client3/rdock/2013.1/src/exe/rbdock.cxx#4 $)

>  <Rbt.Library>
libRbt.so (2013.1, Build901 2013/11/27)

>  <Rbt.Parameter_File>
/export/apps/rDock/src/rDock_2013.1_src/data/scripts/dock_solv.prm

>  <Rbt.Receptor>
prm/pocket_docking_2.prm

>  <SCORE>
-3.41444

>  <SCORE.INTER>
-0.425729

>  <SCORE.INTER.CONST>
1

>  <SCORE.INTER.POLAR>
0

>  <SCORE.INTER.ROT>
11

>  <SCORE.INTER.SOLV>
15.6994

>  <SCORE.INTER.VDW>
-16.4503

>  <SCORE.INTER.norm>
-0.0304092

>  <SCORE.INTRA>
-2.98871

>  <SCORE.INTRA.DIHEDRAL>
-7.85682

>  <SCORE.INTRA.DIHEDRAL.0>
10.5765

>  <SCORE.INTRA.POLAR>
0

>  <SCORE.INTRA.POLAR.0>
0

>  <SCORE.INTRA.REPUL>
0

>  <SCORE.INTRA.REPUL.0>
0

>  <SCORE.INTRA.SOLV>
0.244157

>  <SCORE.INTRA.SOLV.lig_0>
-50.1861

>  <SCORE.INTRA.VDW>
0.817621

>  <SCORE.INTRA.VDW.0>
-1.36671

>  <SCORE.INTRA.norm>
-0.213479

>  <SCORE.RESTR>
0

>  <SCORE.RESTR.CAVITY>
0

>  <SCORE.RESTR.norm>
0

>  <SCORE.SYSTEM>
0

>  <SCORE.SYSTEM.CONST>
0

>  <SCORE.SYSTEM.DIHEDRAL>
0

>  <SCORE.SYSTEM.SOLV>
0

>  <SCORE.SYSTEM.norm>
0

>  <SCORE.heavy>
14

>  <SCORE.norm>
-0.243889

>  <RMSD>
1.139

$$$$
ligand
 OpenBabel11021811393D
libRbt.so/2013.1/901 2013/11/27
 14 13  0  0  0  0  0  0  0  0999 V2000
   -6.7100    2.7631    9.7507 N   0  0  0  0  0  0  0  0  0  0  0  0
   -5.2528    2.3407    9.5612 C   0  0  0  0  0  0  0  0  0  0  0  0
   -5.2439    0.8636    9.7190 C   0  0  0  0  0  0  0  0  0  0  0  0
   -3.9071    0.2047    9.4204 C   0  0  0  0  0  0  0  0  0  0  0  0
   -2.9026    0.6409   10.4269 N   0  0  0  0  0  0  0  0  0  0  0  0
   -1.5178    0.7298    9.7605 C   0  0  0  0  0  0  0  0  0  0  0  0
   -0.6853   -0.3760   10.5703 C   0  0  0  0  0  0  0  0  0  0  0  0
    0.5412   -0.4185   10.1093 C   0  0  0  0  0  0  0  0  0  0  0  0
    1.0395   -1.6948   11.0063 C   0  0  0  0  0  0  0  0  0  0  0  0
    2.4686   -1.8534   10.3866 N   0  0  0  0  0  0  0  0  0  0  0  0
    3.1835   -3.2054   10.7867 C   0  0  0  0  0  0  0  0  0  0  0  0
    4.5867   -3.2360    9.9512 C   0  0  0  0  0  0  0  0  0  0  0  0
    5.2024   -4.5477   10.3429 C   0  0  0  0  0  0  0  0  0  0  0  0
    4.3951   -5.5989    9.6182 N   0  0  0  0  0  0  0  0  0  0  0  0
  1  2  1  0  0  0  0
  2  3  1  0  0  0  0
  3  4  1  0  0  0  0
  4  5  1  0  0  0  0
  5  6  1  0  0  0  0
  6  7  1  0  0  0  0
  7  8  1  0  0  0  0
  8  9  1  0  0  0  0
  9 10  1  0  0  0  0
 10 11  1  0  0  0  0
 11 12  1  0  0  0  0
 12 13  1  0  0  0  0
 13 14  1  0  0  0  0
M  END
>  <CHROM.1>
173.72090979,65.58769553,-146.37141198,-117.14287818,-179.92015806,-174.64024656
175.27058051,-167.67894823,175.39979552,-178.69161882,73.72381626,-0.34290145
-0.95624630,10.10075611,2.63077779,-0.20369353,0.26195429

>  <Name>
ligand

>  <RI>
0

>  <Rbt.Current_Directory>
/home/itssahil/PROJECTS/Mol_Feturizer/New_Systems/rnas/1FUF

>  <Rbt.Executable>
rbdock ($Id: //depot/dev/client3/rdock/2013.1/src/exe/rbdock.cxx#4 $)

>  <Rbt.Library>
libRbt.so (2013.1, Build901 2013/11/27)

>  <Rbt.Parameter_File>
/export/apps/rDock/src/rDock_2013.1_src/data/scripts/dock_solv.prm

>  <Rbt.Receptor>
prm/blind_docking_60.prm

>  <SCORE>
-5.26496

>  <SCORE.INTER>
-2.41275

>  <SCORE.INTER.CONST>
1

>  <SCORE.INTER.POLAR>
0

>  <SCORE.INTER.ROT>
11

>  <SCORE.INTER.SOLV>
16.606

>  <SCORE.INTER.VDW>
-18.0772

>  <SCORE.INTER.norm>
-0.172339

>  <SCORE.INTRA>
-2.85221

>  <SCORE.INTRA.DIHEDRAL>
-7.37401

>  <SCORE.INTRA.DIHEDRAL.0>
10.5765

>  <SCORE.INTRA.POLAR>
0

>  <SCORE.INTRA.POLAR.0>
0

>  <SCORE.INTRA.REPUL>
0

>  <SCORE.INTRA.REPUL.0>
0

>  <SCORE.INTRA.SOLV>
1.06296

>  <SCORE.INTRA.SOLV.lig_0>
-50.1861

>  <SCORE.INTRA.VDW>
0.303313

>  <SCORE.INTRA.VDW.0>
-1.36671

>  <SCORE.INTRA.norm>
-0.203729

>  <SCORE.RESTR>
0

>  <SCORE.RESTR.CAVITY>
0

>  <SCORE.RESTR.norm>
0

>  <SCORE.SYSTEM>
0

>  <SCORE.SYSTEM.CONST>
0

>  <SCORE.SYSTEM.DIHEDRAL>
0

>  <SCORE.SYSTEM.SOLV>
0

>  <SCORE.SYSTEM.norm>
0

>  <SCORE.heavy>
14

>  <SCORE.norm>
-0.376069

>  <RMSD>
1.149

$$$$
ligand
 OpenBabel11021811393D
libRbt.so/2013.1/901 2013/11/27
 14 13  0  0  0  0  0  0  0  0999 V2000
   -5.9654    1.9651    9.2726 N   0  0  0  0  0  0  0  0  0  0  0  0
   -4.4738    2.2977    9.3259 C   0  0  0  0  0  0  0  0  0  0  0  0
   -3.8152    1.0818    9.8687 C   0  0  0  0  0  0  0  0  0  0  0  0
   -2.2986    1.1605    9.9327 C   0  0  0  0  0  0  0  0  0  0  0  0
   -1.7593   -0.1043   10.4998 N   0  0  0  0  0  0  0  0  0  0  0  0
   -0.2264   -0.0053   10.6011 C   0  0  0  0  0  0  0  0  0  0  0  0
    0.2123   -1.5472   10.5527 C   0  0  0  0  0  0  0  0  0  0  0  0
    1.5202   -1.6269   10.5916 C   0  0  0  0  0  0  0  0  0  0  0  0
    1.6155   -3.2600   10.5181 C   0  0  0  0  0  0  0  0  0  0  0  0
    3.1737   -3.3922   10.5935 N   0  0  0  0  0  0  0  0  0  0  0  0
    3.6678   -4.8583   10.9185 C   0  0  0  0  0  0  0  0  0  0  0  0
    5.2997   -4.8014   10.8797 C   0  0  0  0  0  0  0  0  0  0  0  0
    5.6112   -4.5868    9.4271 C   0  0  0  0  0  0  0  0  0  0  0  0
    5.2988   -5.9026    8.7541 N   0  0  0  0  0  0  0  0  0  0  0  0
  1  2  1  0  0  0  0
  2  3  1  0  0  0  0
  3  4  1  0  0  0  0
  4  5  1  0  0  0  0
  5  6  1  0  0  0  0
  6  7  1  0  0  0  0
  7  8  1  0  0  0  0
  8  9  1  0  0  0  0
  9 10  1  0  0  0  0
 10 11  1  0  0  0  0
 11 12  1  0  0  0  0
 12 13  1  0  0  0  0
 13 14  1  0  0  0  0
M  END
>  <CHROM.1>
176.57247315,179.55927180,-178.37473208,-154.97754549,178.18196599,-179.63329900
-178.86287953,165.26644121,177.26884289,-69.23217991,-72.07874684,0.56162228
-1.68419978,10.12414711,2.85703938,-0.56644073,1.01647529

>  <Name>
ligand

>  <RI>
0

>  <Rbt.Current_Directory>
/home/itssahil/PROJECTS/Mol_Feturizer/New_Systems/rnas/1FUF

>  <Rbt.Executable>
rbdock ($Id: //depot/dev/client3/rdock/2013.1/src/exe/rbdock.cxx#4 $)

>  <Rbt.Library>
libRbt.so (2013.1, Build901 2013/11/27)

>  <Rbt.Parameter_File>
/export/apps/rDock/src/rDock_2013.1_src/data/scripts/dock_solv.prm

>  <Rbt.Receptor>
prm/pocket_docking_5.prm

>  <SCORE>
-5.23279

>  <SCORE.INTER>
-1.94456

>  <SCORE.INTER.CONST>
1

>  <SCORE.INTER.POLAR>
0

>  <SCORE.INTER.ROT>
11

>  <SCORE.INTER.SOLV>
14.8895

>  <SCORE.INTER.VDW>
-17.1929

>  <SCORE.INTER.norm>
-0.138897

>  <SCORE.INTRA>
-3.28824

>  <SCORE.INTRA.DIHEDRAL>
-9.03986

>  <SCORE.INTRA.DIHEDRAL.0>
10.5765

>  <SCORE.INTRA.POLAR>
0

>  <SCORE.INTRA.POLAR.0>
0

>  <SCORE.INTRA.REPUL>
0

>  <SCORE.INTRA.REPUL.0>
0

>  <SCORE.INTRA.SOLV>
1.65607

>  <SCORE.INTRA.SOLV.lig_0>
-50.1861

>  <SCORE.INTRA.VDW>
0.403658

>  <SCORE.INTRA.VDW.0>
-1.36671

>  <SCORE.INTRA.norm>
-0.234874

>  <SCORE.RESTR>
0

>  <SCORE.RESTR.CAVITY>
0

>  <SCORE.RESTR.norm>
0

>  <SCORE.SYSTEM>
0

>  <SCORE.SYSTEM.CONST>
0

>  <SCORE.SYSTEM.DIHEDRAL>
0

>  <SCORE.SYSTEM.SOLV>
0

>  <SCORE.SYSTEM.norm>
0

>  <SCORE.heavy>
14

>  <SCORE.norm>
-0.373771

>  <RMSD>
1.150

$$$$
ligand
 OpenBabel11021811393D
libRbt.so/2013.1/901 2013/11/27
 14 13  0  0  0  0  0  0  0  0999 V2000
   -5.8259    1.3701    9.0492 N   0  0  0  0  0  0  0  0  0  0  0  0
   -4.7535    0.9379   10.0497 C   0  0  0  0  0  0  0  0  0  0  0  0
   -3.4920    1.5613    9.5734 C   0  0  0  0  0  0  0  0  0  0  0  0
   -2.3091    1.3898   10.5125 C   0  0  0  0  0  0  0  0  0  0  0  0
   -1.8047   -0.0067   10.4257 N   0  0  0  0  0  0  0  0  0  0  0  0
   -0.2898   -0.0200   10.6995 C   0  0  0  0  0  0  0  0  0  0  0  0
    0.0602   -1.5795   10.5676 C   0  0  0  0  0  0  0  0  0  0  0  0
    1.3570   -1.7424   10.6689 C   0  0  0  0  0  0  0  0  0  0  0  0
    1.3536   -3.3771   10.5707 C   0  0  0  0  0  0  0  0  0  0  0  0
    2.9018   -3.6033   10.6275 N   0  0  0  0  0  0  0  0  0  0  0  0
    3.3126   -5.1221   10.7803 C   0  0  0  0  0  0  0  0  0  0  0  0
    4.9135   -5.1886   10.4634 C   0  0  0  0  0  0  0  0  0  0  0  0
    4.9922   -4.9314    8.9866 C   0  0  0  0  0  0  0  0  0  0  0  0
    6.4534   -5.0799    8.6336 N   0  0  0  0  0  0  0  0  0  0  0  0
  1  2  1  0  0  0  0
  2  3  1  0  0  0  0
  3  4  1  0  0  0  0
  4  5  1  0  0  0  0
  5  6  1  0  0  0  0
  6  7  1  0  0  0  0
  7  8  1  0  0  0  0
  8  9  1  0  0  0  0
  9 10  1  0  0  0  0
 10 11  1  0  0  0  0
 11 12  1  0  0  0  0
 12 13  1  0  0  0  0
 13 14  1  0  0  0  0
M  END
>  <CHROM.1>
173.52367465,74.72132163,149.45914838,179.86620794,174.83662765,177.41855557
177.71039188,171.08706026,166.81576333,-70.57129232,-176.16725326,0.49067795
-1.81370912,10.11507494,-2.93875593,-0.57696259,1.94371786

>  <Name>
ligand

>  <RI>
0

>  <Rbt.Current_Directory>
/home/itssahil/PROJECTS/Mol_Feturizer/New_Systems/rnas/1FUF

>  <Rbt.Executable>
rbdock ($Id: //depot/dev/client3/rdock/2013.1/src/exe/rbdock.cxx#4 $)

>  <Rbt.Library>
libRbt.so (2013.1, Build901 2013/11/27)

>  <Rbt.Parameter_File>
/export/apps/rDock/src/rDock_2013.1_src/data/scripts/dock_solv.prm

>  <Rbt.Receptor>
prm/pocket_docking_2.prm

>  <SCORE>
-4.96697

>  <SCORE.INTER>
-1.24498

>  <SCORE.INTER.CONST>
1

>  <SCORE.INTER.POLAR>
0

>  <SCORE.INTER.ROT>
11

>  <SCORE.INTER.SOLV>
16.0382

>  <SCORE.INTER.VDW>
-17.1094

>  <SCORE.INTER.norm>
-0.0889268

>  <SCORE.INTRA>
-3.722

>  <SCORE.INTRA.DIHEDRAL>
-8.20517

>  <SCORE.INTRA.DIHEDRAL.0>
10.5765

>  <SCORE.INTRA.POLAR>
0

>  <SCORE.INTRA.POLAR.0>
0

>  <SCORE.INTRA.REPUL>
0

>  <SCORE.INTRA.REPUL.0>
0

>  <SCORE.INTRA.SOLV>
0.562499

>  <SCORE.INTRA.SOLV.lig_0>
-50.1861

>  <SCORE.INTRA.VDW>
0.099339

>  <SCORE.INTRA.VDW.0>
-1.36671

>  <SCORE.INTRA.norm>
-0.265857

>  <SCORE.RESTR>
0

>  <SCORE.RESTR.CAVITY>
0

>  <SCORE.RESTR.norm>
0

>  <SCORE.SYSTEM>
0

>  <SCORE.SYSTEM.CONST>
0

>  <SCORE.SYSTEM.DIHEDRAL>
0

>  <SCORE.SYSTEM.SOLV>
0

>  <SCORE.SYSTEM.norm>
0

>  <SCORE.heavy>
14

>  <SCORE.norm>
-0.354784

>  <RMSD>
1.170

$$$$
ligand
 OpenBabel11021811393D
libRbt.so/2013.1/901 2013/11/27
 14 13  0  0  0  0  0  0  0  0999 V2000
   -6.9192    1.4483    9.0562 N   0  0  0  0  0  0  0  0  0  0  0  0
   -5.6765    2.0266    9.7339 C   0  0  0  0  0  0  0  0  0  0  0  0
   -4.7038    0.9059    9.8021 C   0  0  0  0  0  0  0  0  0  0  0  0
   -3.3706    1.2648   10.4379 C   0  0  0  0  0  0  0  0  0  0  0  0
   -2.4710    0.0807   10.4071 N   0  0  0  0  0  0  0  0  0  0  0  0
   -1.2172    0.4139    9.5784 C   0  0  0  0  0  0  0  0  0  0  0  0
   -0.0371   -0.0936   10.5385 C   0  0  0  0  0  0  0  0  0  0  0  0
    0.0443   -1.4003   10.4714 C   0  0  0  0  0  0  0  0  0  0  0  0
    1.4044   -1.5546   11.3702 C   0  0  0  0  0  0  0  0  0  0  0  0
    1.6729   -3.0736   11.1024 N   0  0  0  0  0  0  0  0  0  0  0  0
    3.2088   -3.4460   11.0642 C   0  0  0  0  0  0  0  0  0  0  0  0
    3.2749   -5.0502   10.7643 C   0  0  0  0  0  0  0  0  0  0  0  0
    4.7452   -5.3265   10.6426 C   0  0  0  0  0  0  0  0  0  0  0  0
    5.1633   -4.6913    9.3373 N   0  0  0  0  0  0  0  0  0  0  0  0
  1  2  1  0  0  0  0
  2  3  1  0  0  0  0
  3  4  1  0  0  0  0
  4  5  1  0  0  0  0
  5  6  1  0  0  0  0
  6  7  1  0  0  0  0
  7  8  1  0  0  0  0
  8  9  1  0  0  0  0
  9 10  1  0  0  0  0
 10 11  1  0  0  0  0
 11 12  1  0  0  0  0
 12 13  1  0  0  0  0
 13 14  1  0  0  0  0
M  END
>  <CHROM.1>
179.46373192,-178.10433447,118.88852280,131.83377653,77.07325929,173.24486802
-170.57880092,146.84566984,-179.53360903,176.12968029,-71.00351348,-0.34856189
-1.32102802,10.30774706,2.63226068,-0.29027133,0.33473843

>  <Name>
ligand

>  <RI>
0

>  <Rbt.Current_Directory>
/home/itssahil/PROJECTS/Mol_Feturizer/New_Systems/rnas/1FUF

>  <Rbt.Executable>
rbdock ($Id: //depot/dev/client3/rdock/2013.1/src/exe/rbdock.cxx#4 $)

>  <Rbt.Library>
libRbt.so (2013.1, Build901 2013/11/27)

>  <Rbt.Parameter_File>
/export/apps/rDock/src/rDock_2013.1_src/data/scripts/dock_solv.prm

>  <Rbt.Receptor>
prm/pocket_docking_2.prm

>  <SCORE>
-3.15352

>  <SCORE.INTER>
-1.56169

>  <SCORE.INTER.CONST>
1

>  <SCORE.INTER.POLAR>
0

>  <SCORE.INTER.ROT>
11

>  <SCORE.INTER.SOLV>
16.2992

>  <SCORE.INTER.VDW>
-17.4075

>  <SCORE.INTER.norm>
-0.111549

>  <SCORE.INTRA>
-1.59182

>  <SCORE.INTRA.DIHEDRAL>
-5.52372

>  <SCORE.INTRA.DIHEDRAL.0>
10.5765

>  <SCORE.INTRA.POLAR>
0

>  <SCORE.INTRA.POLAR.0>
0

>  <SCORE.INTRA.REPUL>
0

>  <SCORE.INTRA.REPUL.0>
0

>  <SCORE.INTRA.SOLV>
1.20525

>  <SCORE.INTRA.SOLV.lig_0>
-50.1861

>  <SCORE.INTRA.VDW>
0.567407

>  <SCORE.INTRA.VDW.0>
-1.36671

>  <SCORE.INTRA.norm>
-0.113702

>  <SCORE.RESTR>
0

>  <SCORE.RESTR.CAVITY>
0

>  <SCORE.RESTR.norm>
0

>  <SCORE.SYSTEM>
0

>  <SCORE.SYSTEM.CONST>
0

>  <SCORE.SYSTEM.DIHEDRAL>
0

>  <SCORE.SYSTEM.SOLV>
0

>  <SCORE.SYSTEM.norm>
0

>  <SCORE.heavy>
14

>  <SCORE.norm>
-0.225251

>  <RMSD>
1.178

$$$$
ligand
 OpenBabel11021811393D
libRbt.so/2013.1/901 2013/11/27
 14 13  0  0  0  0  0  0  0  0999 V2000
    4.4856   -5.6867   10.1252 N   0  0  0  0  0  0  0  0  0  0  0  0
    5.3550   -4.4328   10.0257 C   0  0  0  0  0  0  0  0  0  0  0  0
    4.4226   -3.3300    9.6777 C   0  0  0  0  0  0  0  0  0  0  0  0
    3.4567   -2.9461   10.7868 C   0  0  0  0  0  0  0  0  0  0  0  0
    2.5799   -1.8387   10.3205 N   0  0  0  0  0  0  0  0  0  0  0  0
    1.1894   -1.9829   10.9651 C   0  0  0  0  0  0  0  0  0  0  0  0
    0.4138   -0.7091   10.3753 C   0  0  0  0  0  0  0  0  0  0  0  0
   -0.8378   -0.7460   10.7637 C   0  0  0  0  0  0  0  0  0  0  0  0
   -1.3383    0.5680    9.9244 C   0  0  0  0  0  0  0  0  0  0  0  0
   -2.8738    0.4310   10.1979 N   0  0  0  0  0  0  0  0  0  0  0  0
   -3.7060    1.7081    9.7791 C   0  0  0  0  0  0  0  0  0  0  0  0
   -5.2773    1.2966    9.9507 C   0  0  0  0  0  0  0  0  0  0  0  0
   -6.0092    2.5810    9.6905 C   0  0  0  0  0  0  0  0  0  0  0  0
   -6.0076    2.7433    8.1887 N   0  0  0  0  0  0  0  0  0  0  0  0
  1  2  1  0  0  0  0
  2  3  1  0  0  0  0
  3  4  1  0  0  0  0
  4  5  1  0  0  0  0
  5  6  1  0  0  0  0
  6  7  1  0  0  0  0
  7  8  1  0  0  0  0
  8  9  1  0  0  0  0
  9 10  1  0  0  0  0
 10 11  1  0  0  0  0
 11 12  1  0  0  0  0
 12 13  1  0  0  0  0
 13 14  1  0  0  0  0
M  END
>  <CHROM.1>
69.10464385,-179.95993253,146.92501100,178.96158641,175.42411878,-175.86369148
172.14021567,168.34192134,172.56561019,173.92436643,78.01710022,-0.29614647
-0.88165023,10.05523442,0.56970952,-0.02711456,2.97048406

>  <Name>
ligand

>  <RI>
0

>  <Rbt.Current_Directory>
/home/itssahil/PROJECTS/Mol_Feturizer/New_Systems/rnas/1FUF

>  <Rbt.Executable>
rbdock ($Id: //depot/dev/client3/rdock/2013.1/src/exe/rbdock.cxx#4 $)

>  <Rbt.Library>
libRbt.so (2013.1, Build901 2013/11/27)

>  <Rbt.Parameter_File>
/export/apps/rDock/src/rDock_2013.1_src/data/scripts/dock_solv.prm

>  <Rbt.Receptor>
prm/blind_docking_40.prm

>  <SCORE>
-4.6538

>  <SCORE.INTER>
-1.75825

>  <SCORE.INTER.CONST>
1

>  <SCORE.INTER.POLAR>
0

>  <SCORE.INTER.ROT>
11

>  <SCORE.INTER.SOLV>
16.3762

>  <SCORE.INTER.VDW>
-17.5642

>  <SCORE.INTER.norm>
-0.125589

>  <SCORE.INTRA>
-2.89556

>  <SCORE.INTRA.DIHEDRAL>
-7.75946

>  <SCORE.INTRA.DIHEDRAL.0>
10.5765

>  <SCORE.INTRA.POLAR>
0

>  <SCORE.INTRA.POLAR.0>
0

>  <SCORE.INTRA.REPUL>
0

>  <SCORE.INTRA.REPUL.0>
0

>  <SCORE.INTRA.SOLV>
1.40262

>  <SCORE.INTRA.SOLV.lig_0>
-50.1861

>  <SCORE.INTRA.VDW>
0.282868

>  <SCORE.INTRA.VDW.0>
-1.36671

>  <SCORE.INTRA.norm>
-0.206825

>  <SCORE.RESTR>
0

>  <SCORE.RESTR.CAVITY>
0

>  <SCORE.RESTR.norm>
0

>  <SCORE.SYSTEM>
0

>  <SCORE.SYSTEM.CONST>
0

>  <SCORE.SYSTEM.DIHEDRAL>
0

>  <SCORE.SYSTEM.SOLV>
0

>  <SCORE.SYSTEM.norm>
0

>  <SCORE.heavy>
14

>  <SCORE.norm>
-0.332415

>  <RMSD>
1.181

$$$$
ligand
 OpenBabel11021811393D
libRbt.so/2013.1/901 2013/11/27
 14 13  0  0  0  0  0  0  0  0999 V2000
   -6.2311    1.8312    8.9673 N   0  0  0  0  0  0  0  0  0  0  0  0
   -5.3271    1.1963   10.0245 C   0  0  0  0  0  0  0  0  0  0  0  0
   -3.9523    1.2686    9.4664 C   0  0  0  0  0  0  0  0  0  0  0  0
   -2.8800    0.6478   10.3469 C   0  0  0  0  0  0  0  0  0  0  0  0
   -1.5716    0.6907    9.6408 N   0  0  0  0  0  0  0  0  0  0  0  0
   -0.4382    0.4345   10.6506 C   0  0  0  0  0  0  0  0  0  0  0  0
   -0.0489   -1.0893   10.3368 C   0  0  0  0  0  0  0  0  0  0  0  0
    0.9605   -1.4434   11.0947 C   0  0  0  0  0  0  0  0  0  0  0  0
    1.1241   -2.9605   10.5002 C   0  0  0  0  0  0  0  0  0  0  0  0
    2.1420   -3.5022   11.5594 N   0  0  0  0  0  0  0  0  0  0  0  0
    3.6378   -3.5157   11.0481 C   0  0  0  0  0  0  0  0  0  0  0  0
    4.0674   -5.0890   10.9572 C   0  0  0  0  0  0  0  0  0  0  0  0
    5.5036   -5.0385   10.5240 C   0  0  0  0  0  0  0  0  0  0  0  0
    5.4696   -4.5843    9.0837 N   0  0  0  0  0  0  0  0  0  0  0  0
  1  2  1  0  0  0  0
  2  3  1  0  0  0  0
  3  4  1  0  0  0  0
  4  5  1  0  0  0  0
  5  6  1  0  0  0  0
  6  7  1  0  0  0  0
  7  8  1  0  0  0  0
  8  9  1  0  0  0  0
  9 10  1  0  0  0  0
 10 11  1  0  0  0  0
 11 12  1  0  0  0  0
 12 13  1  0  0  0  0
 13 14  1  0  0  0  0
M  END
>  <CHROM.1>
-178.27041255,175.82661048,164.42007188,103.14840028,177.39031864,-178.02243012
-170.09879938,-100.40946204,-113.87521553,-177.77022293,-71.04189598,0.17551312
-1.51103488,10.30025328,-2.82327252,-0.49846135,2.02872824

>  <Name>
ligand

>  <RI>
0

>  <Rbt.Current_Directory>
/home/itssahil/PROJECTS/Mol_Feturizer/New_Systems/rnas/1FUF

>  <Rbt.Executable>
rbdock ($Id: //depot/dev/client3/rdock/2013.1/src/exe/rbdock.cxx#4 $)

>  <Rbt.Library>
libRbt.so (2013.1, Build901 2013/11/27)

>  <Rbt.Parameter_File>
/export/apps/rDock/src/rDock_2013.1_src/data/scripts/dock_solv.prm

>  <Rbt.Receptor>
prm/pocket_docking_2.prm

>  <SCORE>
-3.56887

>  <SCORE.INTER>
-1.23681

>  <SCORE.INTER.CONST>
1

>  <SCORE.INTER.POLAR>
0

>  <SCORE.INTER.ROT>
11

>  <SCORE.INTER.SOLV>
16.8271

>  <SCORE.INTER.VDW>
-17.3669

>  <SCORE.INTER.norm>
-0.0883434

>  <SCORE.INTRA>
-2.33206

>  <SCORE.INTRA.DIHEDRAL>
-6.37689

>  <SCORE.INTRA.DIHEDRAL.0>
10.5765

>  <SCORE.INTRA.POLAR>
0

>  <SCORE.INTRA.POLAR.0>
0

>  <SCORE.INTRA.REPUL>
0

>  <SCORE.INTRA.REPUL.0>
0

>  <SCORE.INTRA.SOLV>
0.773895

>  <SCORE.INTRA.SOLV.lig_0>
-50.1861

>  <SCORE.INTRA.VDW>
0.469438

>  <SCORE.INTRA.VDW.0>
-1.36671

>  <SCORE.INTRA.norm>
-0.166576

>  <SCORE.RESTR>
0

>  <SCORE.RESTR.CAVITY>
0

>  <SCORE.RESTR.norm>
0

>  <SCORE.SYSTEM>
0

>  <SCORE.SYSTEM.CONST>
0

>  <SCORE.SYSTEM.DIHEDRAL>
0

>  <SCORE.SYSTEM.SOLV>
0

>  <SCORE.SYSTEM.norm>
0

>  <SCORE.heavy>
14

>  <SCORE.norm>
-0.254919

>  <RMSD>
1.183

$$$$
ligand
 OpenBabel11021811393D
libRbt.so/2013.1/901 2013/11/27
 14 13  0  0  0  0  0  0  0  0999 V2000
   -5.4081    2.4334    8.3456 N   0  0  0  0  0  0  0  0  0  0  0  0
   -5.7200    2.0077    9.7806 C   0  0  0  0  0  0  0  0  0  0  0  0
   -4.8095    0.8686   10.0636 C   0  0  0  0  0  0  0  0  0  0  0  0
   -3.3345    1.2340   10.1028 C   0  0  0  0  0  0  0  0  0  0  0  0
   -2.5293    0.0178   10.3942 N   0  0  0  0  0  0  0  0  0  0  0  0
   -1.0333    0.3805   10.3784 C   0  0  0  0  0  0  0  0  0  0  0  0
   -0.3401   -1.0502   10.5898 C   0  0  0  0  0  0  0  0  0  0  0  0
    0.9615   -0.9172   10.5077 C   0  0  0  0  0  0  0  0  0  0  0  0
    1.3283   -2.5030   10.6877 C   0  0  0  0  0  0  0  0  0  0  0  0
    2.8843   -2.3836   10.5613 N   0  0  0  0  0  0  0  0  0  0  0  0
    3.6566   -3.6841   11.0213 C   0  0  0  0  0  0  0  0  0  0  0  0
    3.8151   -4.6089    9.6843 C   0  0  0  0  0  0  0  0  0  0  0  0
    4.3974   -5.8896   10.2078 C   0  0  0  0  0  0  0  0  0  0  0  0
    4.6350   -6.7474    8.9874 N   0  0  0  0  0  0  0  0  0  0  0  0
  1  2  1  0  0  0  0
  2  3  1  0  0  0  0
  3  4  1  0  0  0  0
  4  5  1  0  0  0  0
  5  6  1  0  0  0  0
  6  7  1  0  0  0  0
  7  8  1  0  0  0  0
  8  9  1  0  0  0  0
  9 10  1  0  0  0  0
 10 11  1  0  0  0  0
 11 12  1  0  0  0  0
 12 13  1  0  0  0  0
 13 14  1  0  0  0  0
M  END
>  <CHROM.1>
66.34603594,179.93449991,177.79112901,-175.67501885,175.71687420,-177.47725024
178.78677957,166.34645302,90.61735659,-173.32108726,-176.82596723,-0.10689493
-1.48863700,10.09395111,2.63173407,-0.42758923,0.58119326

>  <Name>
ligand

>  <RI>
0

>  <Rbt.Current_Directory>
/home/itssahil/PROJECTS/Mol_Feturizer/New_Systems/rnas/1FUF

>  <Rbt.Executable>
rbdock ($Id: //depot/dev/client3/rdock/2013.1/src/exe/rbdock.cxx#4 $)

>  <Rbt.Library>
libRbt.so (2013.1, Build901 2013/11/27)

>  <Rbt.Parameter_File>
/export/apps/rDock/src/rDock_2013.1_src/data/scripts/dock_solv.prm

>  <Rbt.Receptor>
prm/pocket_docking_3.prm

>  <SCORE>
-6.6801

>  <SCORE.INTER>
-2.59176

>  <SCORE.INTER.CONST>
1

>  <SCORE.INTER.POLAR>
0

>  <SCORE.INTER.ROT>
11

>  <SCORE.INTER.SOLV>
15.6424

>  <SCORE.INTER.VDW>
-17.8753

>  <SCORE.INTER.norm>
-0.185126

>  <SCORE.INTRA>
-4.08834

>  <SCORE.INTRA.DIHEDRAL>
-9.33344

>  <SCORE.INTRA.DIHEDRAL.0>
10.5765

>  <SCORE.INTRA.POLAR>
0

>  <SCORE.INTRA.POLAR.0>
0

>  <SCORE.INTRA.REPUL>
0

>  <SCORE.INTRA.REPUL.0>
0

>  <SCORE.INTRA.SOLV>
0.716717

>  <SCORE.INTRA.SOLV.lig_0>
-50.1861

>  <SCORE.INTRA.VDW>
0.220023

>  <SCORE.INTRA.VDW.0>
-1.36671

>  <SCORE.INTRA.norm>
-0.292024

>  <SCORE.RESTR>
0

>  <SCORE.RESTR.CAVITY>
0

>  <SCORE.RESTR.norm>
0

>  <SCORE.SYSTEM>
0

>  <SCORE.SYSTEM.CONST>
0

>  <SCORE.SYSTEM.DIHEDRAL>
0

>  <SCORE.SYSTEM.SOLV>
0

>  <SCORE.SYSTEM.norm>
0

>  <SCORE.heavy>
14

>  <SCORE.norm>
-0.47715

>  <RMSD>
1.197

$$$$
ligand
 OpenBabel11021811393D
libRbt.so/2013.1/901 2013/11/27
 14 13  0  0  0  0  0  0  0  0999 V2000
    4.5008   -6.4483    9.3321 N   0  0  0  0  0  0  0  0  0  0  0  0
    4.3612   -5.5182   10.5377 C   0  0  0  0  0  0  0  0  0  0  0  0
    3.6314   -4.3254   10.0363 C   0  0  0  0  0  0  0  0  0  0  0  0
    3.4417   -3.2227   11.0652 C   0  0  0  0  0  0  0  0  0  0  0  0
    2.6161   -2.1332   10.4788 N   0  0  0  0  0  0  0  0  0  0  0  0
    1.2549   -2.0821   11.1959 C   0  0  0  0  0  0  0  0  0  0  0  0
    0.4845   -0.9434   10.3703 C   0  0  0  0  0  0  0  0  0  0  0  0
   -0.7218   -0.7934   10.8612 C   0  0  0  0  0  0  0  0  0  0  0  0
   -1.2010    0.3897    9.8355 C   0  0  0  0  0  0  0  0  0  0  0  0
   -2.6918    0.4940   10.3025 N   0  0  0  0  0  0  0  0  0  0  0  0
   -3.4268    1.7933    9.7823 C   0  0  0  0  0  0  0  0  0  0  0  0
   -5.0259    1.4773    9.8869 C   0  0  0  0  0  0  0  0  0  0  0  0
   -5.6680    2.7251    9.3543 C   0  0  0  0  0  0  0  0  0  0  0  0
   -7.1540    2.5107    9.5207 N   0  0  0  0  0  0  0  0  0  0  0  0
  1  2  1  0  0  0  0
  2  3  1  0  0  0  0
  3  4  1  0  0  0  0
  4  5  1  0  0  0  0
  5  6  1  0  0  0  0
  6  7  1  0  0  0  0
  7  8  1  0  0  0  0
  8  9  1  0  0  0  0
  9 10  1  0  0  0  0
 10 11  1  0  0  0  0
 11 12  1  0  0  0  0
 12 13  1  0  0  0  0
 13 14  1  0  0  0  0
M  END
>  <CHROM.1>
-176.98773233,-175.84407008,112.41440797,-176.08034845,179.17971943,179.85442528
174.63656349,165.81857339,160.04969359,-178.76566458,-176.28535683,-0.39978490
-1.14823263,10.18296192,0.54512994,0.35032736,-2.71438076

>  <Name>
ligand

>  <RI>
0

>  <Rbt.Current_Directory>
/home/itssahil/PROJECTS/Mol_Feturizer/New_Systems/rnas/1FUF

>  <Rbt.Executable>
rbdock ($Id: //depot/dev/client3/rdock/2013.1/src/exe/rbdock.cxx#4 $)

>  <Rbt.Library>
libRbt.so (2013.1, Build901 2013/11/27)

>  <Rbt.Parameter_File>
/export/apps/rDock/src/rDock_2013.1_src/data/scripts/dock_solv.prm

>  <Rbt.Receptor>
prm/pocket_docking_3.prm

>  <SCORE>
-6.25788

>  <SCORE.INTER>
-1.87375

>  <SCORE.INTER.CONST>
1

>  <SCORE.INTER.POLAR>
0

>  <SCORE.INTER.ROT>
11

>  <SCORE.INTER.SOLV>
15.4232

>  <SCORE.INTER.VDW>
-17.3236

>  <SCORE.INTER.norm>
-0.133839

>  <SCORE.INTRA>
-4.38413

>  <SCORE.INTRA.DIHEDRAL>
-8.68609

>  <SCORE.INTRA.DIHEDRAL.0>
10.5765

>  <SCORE.INTRA.POLAR>
0

>  <SCORE.INTRA.POLAR.0>
0

>  <SCORE.INTRA.REPUL>
0

>  <SCORE.INTRA.REPUL.0>
0

>  <SCORE.INTRA.SOLV>
-0.150504

>  <SCORE.INTRA.SOLV.lig_0>
-50.1861

>  <SCORE.INTRA.VDW>
0.0341663

>  <SCORE.INTRA.VDW.0>
-1.36671

>  <SCORE.INTRA.norm>
-0.313152

>  <SCORE.RESTR>
0

>  <SCORE.RESTR.CAVITY>
0

>  <SCORE.RESTR.norm>
0

>  <SCORE.SYSTEM>
0

>  <SCORE.SYSTEM.CONST>
0

>  <SCORE.SYSTEM.DIHEDRAL>
0

>  <SCORE.SYSTEM.SOLV>
0

>  <SCORE.SYSTEM.norm>
0

>  <SCORE.heavy>
14

>  <SCORE.norm>
-0.446991

>  <RMSD>
1.206

$$$$
ligand
 OpenBabel11021811393D
libRbt.so/2013.1/901 2013/11/27
 14 13  0  0  0  0  0  0  0  0999 V2000
   -5.7998    2.1632    9.1473 N   0  0  0  0  0  0  0  0  0  0  0  0
   -4.4650    2.4091    8.4432 C   0  0  0  0  0  0  0  0  0  0  0  0
   -3.6047    1.2547    8.8091 C   0  0  0  0  0  0  0  0  0  0  0  0
   -3.2025    1.2062   10.2742 C   0  0  0  0  0  0  0  0  0  0  0  0
   -2.4041   -0.0225   10.5295 N   0  0  0  0  0  0  0  0  0  0  0  0
   -0.9049    0.3231   10.4766 C   0  0  0  0  0  0  0  0  0  0  0  0
   -0.2242   -1.1261   10.5686 C   0  0  0  0  0  0  0  0  0  0  0  0
    1.0760   -1.0019   10.4566 C   0  0  0  0  0  0  0  0  0  0  0  0
    1.4351   -2.5919   10.6134 C   0  0  0  0  0  0  0  0  0  0  0  0
    2.9957   -2.4653   10.6108 N   0  0  0  0  0  0  0  0  0  0  0  0
    3.7385   -3.8078   10.9920 C   0  0  0  0  0  0  0  0  0  0  0  0
    3.9308   -4.6278    9.5925 C   0  0  0  0  0  0  0  0  0  0  0  0
    4.6387   -5.8829   10.0130 C   0  0  0  0  0  0  0  0  0  0  0  0
    4.8436   -6.6702    8.7403 N   0  0  0  0  0  0  0  0  0  0  0  0
  1  2  1  0  0  0  0
  2  3  1  0  0  0  0
  3  4  1  0  0  0  0
  4  5  1  0  0  0  0
  5  6  1  0  0  0  0
  6  7  1  0  0  0  0
  7  8  1  0  0  0  0
  8  9  1  0  0  0  0
  9 10  1  0  0  0  0
 10 11  1  0  0  0  0
 11 12  1  0  0  0  0
 12 13  1  0  0  0  0
 13 14  1  0  0  0  0
M  END
>  <CHROM.1>
-67.95784146,177.22215781,96.89124699,-172.59329447,176.35723562,179.08976855
-175.25822718,170.27358170,87.94098140,179.88947075,-179.69466246,0.14675366
-1.48847796,9.94772299,2.75254767,-0.57334489,0.84408538

>  <Name>
ligand

>  <RI>
0

>  <Rbt.Current_Directory>
/home/itssahil/PROJECTS/Mol_Feturizer/New_Systems/rnas/1FUF

>  <Rbt.Executable>
rbdock ($Id: //depot/dev/client3/rdock/2013.1/src/exe/rbdock.cxx#4 $)

>  <Rbt.Library>
libRbt.so (2013.1, Build901 2013/11/27)

>  <Rbt.Parameter_File>
/export/apps/rDock/src/rDock_2013.1_src/data/scripts/dock_solv.prm

>  <Rbt.Receptor>
prm/pocket_docking_6.prm

>  <SCORE>
-5.97336

>  <SCORE.INTER>
-2.31176

>  <SCORE.INTER.CONST>
1

>  <SCORE.INTER.POLAR>
0

>  <SCORE.INTER.ROT>
11

>  <SCORE.INTER.SOLV>
15.2139

>  <SCORE.INTER.VDW>
-17.5458

>  <SCORE.INTER.norm>
-0.165126

>  <SCORE.INTRA>
-3.66159

>  <SCORE.INTRA.DIHEDRAL>
-8.70466

>  <SCORE.INTRA.DIHEDRAL.0>
10.5765

>  <SCORE.INTRA.POLAR>
0

>  <SCORE.INTRA.POLAR.0>
0

>  <SCORE.INTRA.REPUL>
0

>  <SCORE.INTRA.REPUL.0>
0

>  <SCORE.INTRA.SOLV>
0.714776

>  <SCORE.INTRA.SOLV.lig_0>
-50.1861

>  <SCORE.INTRA.VDW>
0.333351

>  <SCORE.INTRA.VDW.0>
-1.36671

>  <SCORE.INTRA.norm>
-0.261542

>  <SCORE.RESTR>
0

>  <SCORE.RESTR.CAVITY>
0

>  <SCORE.RESTR.norm>
0

>  <SCORE.SYSTEM>
0

>  <SCORE.SYSTEM.CONST>
0

>  <SCORE.SYSTEM.DIHEDRAL>
0

>  <SCORE.SYSTEM.SOLV>
0

>  <SCORE.SYSTEM.norm>
0

>  <SCORE.heavy>
14

>  <SCORE.norm>
-0.426668

>  <RMSD>
1.212

$$$$
ligand
 OpenBabel11021811393D
libRbt.so/2013.1/901 2013/11/27
 14 13  0  0  0  0  0  0  0  0999 V2000
   -5.4199    2.1383    9.7938 N   0  0  0  0  0  0  0  0  0  0  0  0
   -4.4847    1.6642    8.6808 C   0  0  0  0  0  0  0  0  0  0  0  0
   -4.1151    0.2709    9.0397 C   0  0  0  0  0  0  0  0  0  0  0  0
   -3.1553    0.1545   10.2126 C   0  0  0  0  0  0  0  0  0  0  0  0
   -1.7865    0.5372    9.7741 N   0  0  0  0  0  0  0  0  0  0  0  0
   -0.8581    0.6048   11.0002 C   0  0  0  0  0  0  0  0  0  0  0  0
   -0.2854   -0.8916   11.0690 C   0  0  0  0  0  0  0  0  0  0  0  0
    0.7615   -0.9911   10.2863 C   0  0  0  0  0  0  0  0  0  0  0  0
    1.1672   -2.5223   10.7018 C   0  0  0  0  0  0  0  0  0  0  0  0
    2.5038   -2.6221    9.8925 N   0  0  0  0  0  0  0  0  0  0  0  0
    3.7306   -3.1164   10.7584 C   0  0  0  0  0  0  0  0  0  0  0  0
    3.9403   -4.6919   10.3821 C   0  0  0  0  0  0  0  0  0  0  0  0
    4.4413   -4.6535    8.9676 C   0  0  0  0  0  0  0  0  0  0  0  0
    4.6687   -6.0973    8.5861 N   0  0  0  0  0  0  0  0  0  0  0  0
  1  2  1  0  0  0  0
  2  3  1  0  0  0  0
  3  4  1  0  0  0  0
  4  5  1  0  0  0  0
  5  6  1  0  0  0  0
  6  7  1  0  0  0  0
  7  8  1  0  0  0  0
  8  9  1  0  0  0  0
  9 10  1  0  0  0  0
 10 11  1  0  0  0  0
 11 12  1  0  0  0  0
 12 13  1  0  0  0  0
 13 14  1  0  0  0  0
M  END
>  <CHROM.1>
-72.55983926,-74.98071994,172.32214451,90.42343416,85.89187814,174.51294419
-174.49401373,128.70882287,101.80730727,69.33143983,179.18060572,0.07920171
-1.44398815,9.93911589,2.75783396,-0.50064044,0.86249611

>  <Name>
ligand

>  <RI>
0

>  <Rbt.Current_Directory>
/home/itssahil/PROJECTS/Mol_Feturizer/New_Systems/rnas/1FUF

>  <Rbt.Executable>
rbdock ($Id: //depot/dev/client3/rdock/2013.1/src/exe/rbdock.cxx#4 $)

>  <Rbt.Library>
libRbt.so (2013.1, Build901 2013/11/27)

>  <Rbt.Parameter_File>
/export/apps/rDock/src/rDock_2013.1_src/data/scripts/dock_solv.prm

>  <Rbt.Receptor>
prm/pocket_docking_2.prm

>  <SCORE>
-0.20648

>  <SCORE.INTER>
0.000598908

>  <SCORE.INTER.CONST>
1

>  <SCORE.INTER.POLAR>
0

>  <SCORE.INTER.ROT>
11

>  <SCORE.INTER.SOLV>
17.1823

>  <SCORE.INTER.VDW>
-16.6604

>  <SCORE.INTER.norm>
4.27792e-05

>  <SCORE.INTRA>
-0.226391

>  <SCORE.INTRA.DIHEDRAL>
-3.71116

>  <SCORE.INTRA.DIHEDRAL.0>
10.5765

>  <SCORE.INTRA.POLAR>
0

>  <SCORE.INTRA.POLAR.0>
0

>  <SCORE.INTRA.REPUL>
0

>  <SCORE.INTRA.REPUL.0>
0

>  <SCORE.INTRA.SOLV>
2.03549

>  <SCORE.INTRA.SOLV.lig_0>
-50.1861

>  <SCORE.INTRA.VDW>
0.611439

>  <SCORE.INTRA.VDW.0>
-1.36671

>  <SCORE.INTRA.norm>
-0.0161708

>  <SCORE.RESTR>
0.0193124

>  <SCORE.RESTR.CAVITY>
0.0193124

>  <SCORE.RESTR.norm>
0.00137946

>  <SCORE.SYSTEM>
0

>  <SCORE.SYSTEM.CONST>
0

>  <SCORE.SYSTEM.DIHEDRAL>
0

>  <SCORE.SYSTEM.SOLV>
0

>  <SCORE.SYSTEM.norm>
0

>  <SCORE.heavy>
14

>  <SCORE.norm>
-0.0147486

>  <RMSD>
1.219

$$$$
ligand
 OpenBabel11021811393D
libRbt.so/2013.1/901 2013/11/27
 14 13  0  0  0  0  0  0  0  0999 V2000
   -5.7939    1.3445    9.0992 N   0  0  0  0  0  0  0  0  0  0  0  0
   -4.2777    1.2150    8.9495 C   0  0  0  0  0  0  0  0  0  0  0  0
   -3.7154    1.5806   10.2749 C   0  0  0  0  0  0  0  0  0  0  0  0
   -2.1973    1.6424   10.3215 C   0  0  0  0  0  0  0  0  0  0  0  0
   -1.6367    0.2930   10.0435 N   0  0  0  0  0  0  0  0  0  0  0  0
   -0.2577    0.1650   10.7158 C   0  0  0  0  0  0  0  0  0  0  0  0
    0.1270   -1.3600   10.4019 C   0  0  0  0  0  0  0  0  0  0  0  0
    1.2994   -1.6272   10.9240 C   0  0  0  0  0  0  0  0  0  0  0  0
    1.3955   -3.1752   10.3985 C   0  0  0  0  0  0  0  0  0  0  0  0
    2.7304   -3.5678   11.1163 N   0  0  0  0  0  0  0  0  0  0  0  0
    3.0878   -5.1025   10.9890 C   0  0  0  0  0  0  0  0  0  0  0  0
    4.0360   -5.2346    9.6656 C   0  0  0  0  0  0  0  0  0  0  0  0
    5.3101   -4.5545   10.0747 C   0  0  0  0  0  0  0  0  0  0  0  0
    6.1844   -4.5720    8.8430 N   0  0  0  0  0  0  0  0  0  0  0  0
  1  2  1  0  0  0  0
  2  3  1  0  0  0  0
  3  4  1  0  0  0  0
  4  5  1  0  0  0  0
  5  6  1  0  0  0  0
  6  7  1  0  0  0  0
  7  8  1  0  0  0  0
  8  9  1  0  0  0  0
  9 10  1  0  0  0  0
 10 11  1  0  0  0  0
 11 12  1  0  0  0  0
 12 13  1  0  0  0  0
 13 14  1  0  0  0  0
M  END
>  <CHROM.1>
-174.73895294,-63.24170873,-153.21877168,176.02131925,-179.84667448,-178.41116949
-175.14937714,172.92588966,92.20877262,69.01717107,-176.27167726,0.44945772
-1.63952654,10.12995633,2.55567273,-0.22358805,0.26913030

>  <Name>
ligand

>  <RI>
0

>  <Rbt.Current_Directory>
/home/itssahil/PROJECTS/Mol_Feturizer/New_Systems/rnas/1FUF

>  <Rbt.Executable>
rbdock ($Id: //depot/dev/client3/rdock/2013.1/src/exe/rbdock.cxx#4 $)

>  <Rbt.Library>
libRbt.so (2013.1, Build901 2013/11/27)

>  <Rbt.Parameter_File>
/export/apps/rDock/src/rDock_2013.1_src/data/scripts/dock_solv.prm

>  <Rbt.Receptor>
prm/pocket_docking_2.prm

>  <SCORE>
-4.16453

>  <SCORE.INTER>
-0.390127

>  <SCORE.INTER.CONST>
1

>  <SCORE.INTER.POLAR>
0

>  <SCORE.INTER.ROT>
11

>  <SCORE.INTER.SOLV>
16.6683

>  <SCORE.INTER.VDW>
-16.7495

>  <SCORE.INTER.norm>
-0.0278662

>  <SCORE.INTRA>
-3.7827

>  <SCORE.INTRA.DIHEDRAL>
-8.75691

>  <SCORE.INTRA.DIHEDRAL.0>
10.5765

>  <SCORE.INTRA.POLAR>
0

>  <SCORE.INTRA.POLAR.0>
0

>  <SCORE.INTRA.REPUL>
0

>  <SCORE.INTRA.REPUL.0>
0

>  <SCORE.INTRA.SOLV>
0.710636

>  <SCORE.INTRA.SOLV.lig_0>
-50.1861

>  <SCORE.INTRA.VDW>
0.240437

>  <SCORE.INTRA.VDW.0>
-1.36671

>  <SCORE.INTRA.norm>
-0.270193

>  <SCORE.RESTR>
0.00830071

>  <SCORE.RESTR.CAVITY>
0.00830071

>  <SCORE.RESTR.norm>
0.000592908

>  <SCORE.SYSTEM>
0

>  <SCORE.SYSTEM.CONST>
0

>  <SCORE.SYSTEM.DIHEDRAL>
0

>  <SCORE.SYSTEM.SOLV>
0

>  <SCORE.SYSTEM.norm>
0

>  <SCORE.heavy>
14

>  <SCORE.norm>
-0.297466

>  <RMSD>
1.224

$$$$
ligand
 OpenBabel11021811393D
libRbt.so/2013.1/901 2013/11/27
 14 13  0  0  0  0  0  0  0  0999 V2000
    5.4060   -6.0753    8.5122 N   0  0  0  0  0  0  0  0  0  0  0  0
    4.1822   -5.2256    8.8563 C   0  0  0  0  0  0  0  0  0  0  0  0
    3.9665   -5.4124   10.3141 C   0  0  0  0  0  0  0  0  0  0  0  0
    2.8303   -4.5866   10.8952 C   0  0  0  0  0  0  0  0  0  0  0  0
    3.1639   -3.1408   10.7918 N   0  0  0  0  0  0  0  0  0  0  0  0
    2.2000   -2.3302   11.6771 C   0  0  0  0  0  0  0  0  0  0  0  0
    1.3204   -1.5499   10.5865 C   0  0  0  0  0  0  0  0  0  0  0  0
    0.3433   -0.9177   11.1899 C   0  0  0  0  0  0  0  0  0  0  0  0
   -0.3181   -0.2578    9.8449 C   0  0  0  0  0  0  0  0  0  0  0  0
   -1.6703    0.2164   10.4758 N   0  0  0  0  0  0  0  0  0  0  0  0
   -2.7202    0.7256    9.4093 C   0  0  0  0  0  0  0  0  0  0  0  0
   -4.0818    1.0642   10.2454 C   0  0  0  0  0  0  0  0  0  0  0  0
   -5.0321    1.5513    9.1904 C   0  0  0  0  0  0  0  0  0  0  0  0
   -6.3065    1.8896    9.9276 N   0  0  0  0  0  0  0  0  0  0  0  0
  1  2  1  0  0  0  0
  2  3  1  0  0  0  0
  3  4  1  0  0  0  0
  4  5  1  0  0  0  0
  5  6  1  0  0  0  0
  6  7  1  0  0  0  0
  7  8  1  0  0  0  0
  8  9  1  0  0  0  0
  9 10  1  0  0  0  0
 10 11  1  0  0  0  0
 11 12  1  0  0  0  0
 12 13  1  0  0  0  0
 13 14  1  0  0  0  0
M  END
>  <CHROM.1>
176.76672239,-65.04968234,-166.08859482,-110.82798831,173.11231125,179.85087093
167.18960027,-170.85043267,175.91071059,179.51171050,-179.46943192,0.23458252
-1.71777610,10.13698201,0.32705142,0.55463209,-2.14463614

>  <Name>
ligand

>  <RI>
0

>  <Rbt.Current_Directory>
/home/itssahil/PROJECTS/Mol_Feturizer/New_Systems/rnas/1FUF

>  <Rbt.Executable>
rbdock ($Id: //depot/dev/client3/rdock/2013.1/src/exe/rbdock.cxx#4 $)

>  <Rbt.Library>
libRbt.so (2013.1, Build901 2013/11/27)

>  <Rbt.Parameter_File>
/export/apps/rDock/src/rDock_2013.1_src/data/scripts/dock_solv.prm

>  <Rbt.Receptor>
prm/pocket_docking_2.prm

>  <SCORE>
-4.97366

>  <SCORE.INTER>
-1.05011

>  <SCORE.INTER.CONST>
1

>  <SCORE.INTER.POLAR>
0

>  <SCORE.INTER.ROT>
11

>  <SCORE.INTER.SOLV>
16.1203

>  <SCORE.INTER.VDW>
-17.0068

>  <SCORE.INTER.norm>
-0.0750078

>  <SCORE.INTRA>
-3.93047

>  <SCORE.INTRA.DIHEDRAL>
-8.29792

>  <SCORE.INTRA.DIHEDRAL.0>
10.5765

>  <SCORE.INTRA.POLAR>
0

>  <SCORE.INTRA.POLAR.0>
0

>  <SCORE.INTRA.REPUL>
0

>  <SCORE.INTRA.REPUL.0>
0

>  <SCORE.INTRA.SOLV>
0.231924

>  <SCORE.INTRA.SOLV.lig_0>
-50.1861

>  <SCORE.INTRA.VDW>
0.102528

>  <SCORE.INTRA.VDW.0>
-1.36671

>  <SCORE.INTRA.norm>
-0.280748

>  <SCORE.RESTR>
0.00692007

>  <SCORE.RESTR.CAVITY>
0.00692007

>  <SCORE.RESTR.norm>
0.000494291

>  <SCORE.SYSTEM>
0

>  <SCORE.SYSTEM.CONST>
0

>  <SCORE.SYSTEM.DIHEDRAL>
0

>  <SCORE.SYSTEM.SOLV>
0

>  <SCORE.SYSTEM.norm>
0

>  <SCORE.heavy>
14

>  <SCORE.norm>
-0.355261

>  <RMSD>
1.227

$$$$
ligand
 OpenBabel11021811393D
libRbt.so/2013.1/901 2013/11/27
 14 13  0  0  0  0  0  0  0  0999 V2000
   -6.0771    1.7536   10.3697 N   0  0  0  0  0  0  0  0  0  0  0  0
   -5.5065    2.2755    9.0506 C   0  0  0  0  0  0  0  0  0  0  0  0
   -4.0354    2.0993    9.1572 C   0  0  0  0  0  0  0  0  0  0  0  0
   -3.5825    0.6578    9.3232 C   0  0  0  0  0  0  0  0  0  0  0  0
   -2.1010    0.5867    9.2107 N   0  0  0  0  0  0  0  0  0  0  0  0
   -1.4668    1.0139   10.5468 C   0  0  0  0  0  0  0  0  0  0  0  0
   -0.6891   -0.3173   10.9885 C   0  0  0  0  0  0  0  0  0  0  0  0
    0.3773   -0.4644   10.2404 C   0  0  0  0  0  0  0  0  0  0  0  0
    0.9479   -1.8088   10.9812 C   0  0  0  0  0  0  0  0  0  0  0  0
    2.3059   -1.9240   10.2106 N   0  0  0  0  0  0  0  0  0  0  0  0
    3.2409   -3.0796   10.7486 C   0  0  0  0  0  0  0  0  0  0  0  0
    4.4724   -3.1945    9.6819 C   0  0  0  0  0  0  0  0  0  0  0  0
    5.2753   -4.3551   10.1931 C   0  0  0  0  0  0  0  0  0  0  0  0
    4.4540   -5.5810    9.8698 N   0  0  0  0  0  0  0  0  0  0  0  0
  1  2  1  0  0  0  0
  2  3  1  0  0  0  0
  3  4  1  0  0  0  0
  4  5  1  0  0  0  0
  5  6  1  0  0  0  0
  6  7  1  0  0  0  0
  7  8  1  0  0  0  0
  8  9  1  0  0  0  0
  9 10  1  0  0  0  0
 10 11  1  0  0  0  0
 11 12  1  0  0  0  0
 12 13  1  0  0  0  0
 13 14  1  0  0  0  0
M  END
>  <CHROM.1>
61.54046805,171.45983893,79.87977721,117.96863645,73.62836747,177.21893068
-174.20844602,174.93824443,171.07311632,-176.60569036,72.93342501,-0.17025854
-0.88112006,10.04095148,2.68403364,-0.35871327,0.51929915

>  <Name>
ligand

>  <RI>
0

>  <Rbt.Current_Directory>
/home/itssahil/PROJECTS/Mol_Feturizer/New_Systems/rnas/1FUF

>  <Rbt.Executable>
rbdock ($Id: //depot/dev/client3/rdock/2013.1/src/exe/rbdock.cxx#4 $)

>  <Rbt.Library>
libRbt.so (2013.1, Build901 2013/11/27)

>  <Rbt.Parameter_File>
/export/apps/rDock/src/rDock_2013.1_src/data/scripts/dock_solv.prm

>  <Rbt.Receptor>
prm/blind_docking_60.prm

>  <SCORE>
-2.50896

>  <SCORE.INTER>
-1.28785

>  <SCORE.INTER.CONST>
1

>  <SCORE.INTER.POLAR>
0

>  <SCORE.INTER.ROT>
11

>  <SCORE.INTER.SOLV>
17.6396

>  <SCORE.INTER.VDW>
-17.6718

>  <SCORE.INTER.norm>
-0.091989

>  <SCORE.INTRA>
-1.22112

>  <SCORE.INTRA.DIHEDRAL>
-7.23327

>  <SCORE.INTRA.DIHEDRAL.0>
10.5765

>  <SCORE.INTRA.POLAR>
0

>  <SCORE.INTRA.POLAR.0>
0

>  <SCORE.INTRA.REPUL>
0

>  <SCORE.INTRA.REPUL.0>
0

>  <SCORE.INTRA.SOLV>
2.10203

>  <SCORE.INTRA.SOLV.lig_0>
-50.1861

>  <SCORE.INTRA.VDW>
1.34451

>  <SCORE.INTRA.VDW.0>
-1.36671

>  <SCORE.INTRA.norm>
-0.0872227

>  <SCORE.RESTR>
0

>  <SCORE.RESTR.CAVITY>
0

>  <SCORE.RESTR.norm>
0

>  <SCORE.SYSTEM>
0

>  <SCORE.SYSTEM.CONST>
0

>  <SCORE.SYSTEM.DIHEDRAL>
0

>  <SCORE.SYSTEM.SOLV>
0

>  <SCORE.SYSTEM.norm>
0

>  <SCORE.heavy>
14

>  <SCORE.norm>
-0.179212

>  <RMSD>
1.231

$$$$
ligand
 OpenBabel11021811393D
libRbt.so/2013.1/901 2013/11/27
 14 13  0  0  0  0  0  0  0  0999 V2000
   -5.5004    2.6920    7.8371 N   0  0  0  0  0  0  0  0  0  0  0  0
   -4.8534    2.6216    9.2207 C   0  0  0  0  0  0  0  0  0  0  0  0
   -4.0050    1.4024    9.2006 C   0  0  0  0  0  0  0  0  0  0  0  0
   -3.2191    1.1589   10.4787 C   0  0  0  0  0  0  0  0  0  0  0  0
   -2.3954   -0.0705   10.3284 N   0  0  0  0  0  0  0  0  0  0  0  0
   -0.9104    0.2827   10.5279 C   0  0  0  0  0  0  0  0  0  0  0  0
   -0.2270   -1.1669   10.5878 C   0  0  0  0  0  0  0  0  0  0  0  0
    1.0744   -1.0293   10.6650 C   0  0  0  0  0  0  0  0  0  0  0  0
    1.4383   -2.6257   10.6371 C   0  0  0  0  0  0  0  0  0  0  0  0
    2.9983   -2.4954   10.6676 N   0  0  0  0  0  0  0  0  0  0  0  0
    3.7396   -3.8574   10.9753 C   0  0  0  0  0  0  0  0  0  0  0  0
    3.9730   -4.5787    9.5286 C   0  0  0  0  0  0  0  0  0  0  0  0
    4.5627   -5.9111    9.8894 C   0  0  0  0  0  0  0  0  0  0  0  0
    4.8802   -6.5764    8.5709 N   0  0  0  0  0  0  0  0  0  0  0  0
  1  2  1  0  0  0  0
  2  3  1  0  0  0  0
  3  4  1  0  0  0  0
  4  5  1  0  0  0  0
  5  6  1  0  0  0  0
  6  7  1  0  0  0  0
  7  8  1  0  0  0  0
  8  9  1  0  0  0  0
  9 10  1  0  0  0  0
 10 11  1  0  0  0  0
 11 12  1  0  0  0  0
 12 13  1  0  0  0  0
 13 14  1  0  0  0  0
M  END
>  <CHROM.1>
177.99165300,-179.04566771,121.17276133,170.53963307,175.67006419,-177.52856100
177.74785584,167.09151560,88.60740598,-175.09122314,-176.33868454,0.11117948
-1.43948043,9.93703495,2.82272108,-0.62052469,0.97176335

>  <Name>
ligand

>  <RI>
0

>  <Rbt.Current_Directory>
/home/itssahil/PROJECTS/Mol_Feturizer/New_Systems/rnas/1FUF

>  <Rbt.Executable>
rbdock ($Id: //depot/dev/client3/rdock/2013.1/src/exe/rbdock.cxx#4 $)

>  <Rbt.Library>
libRbt.so (2013.1, Build901 2013/11/27)

>  <Rbt.Parameter_File>
/export/apps/rDock/src/rDock_2013.1_src/data/scripts/dock_solv.prm

>  <Rbt.Receptor>
prm/blind_docking_80.prm

>  <SCORE>
-6.45581

>  <SCORE.INTER>
-2.29295

>  <SCORE.INTER.CONST>
1

>  <SCORE.INTER.POLAR>
0

>  <SCORE.INTER.ROT>
11

>  <SCORE.INTER.SOLV>
14.9689

>  <SCORE.INTER.VDW>
-17.4516

>  <SCORE.INTER.norm>
-0.163782

>  <SCORE.INTRA>
-4.16286

>  <SCORE.INTRA.DIHEDRAL>
-8.34199

>  <SCORE.INTRA.DIHEDRAL.0>
10.5765

>  <SCORE.INTRA.POLAR>
0

>  <SCORE.INTRA.POLAR.0>
0

>  <SCORE.INTRA.REPUL>
0

>  <SCORE.INTRA.REPUL.0>
0

>  <SCORE.INTRA.SOLV>
-0.143434

>  <SCORE.INTRA.SOLV.lig_0>
-50.1861

>  <SCORE.INTRA.VDW>
0.0798479

>  <SCORE.INTRA.VDW.0>
-1.36671

>  <SCORE.INTRA.norm>
-0.297347

>  <SCORE.RESTR>
0

>  <SCORE.RESTR.CAVITY>
0

>  <SCORE.RESTR.norm>
0

>  <SCORE.SYSTEM>
0

>  <SCORE.SYSTEM.CONST>
0

>  <SCORE.SYSTEM.DIHEDRAL>
0

>  <SCORE.SYSTEM.SOLV>
0

>  <SCORE.SYSTEM.norm>
0

>  <SCORE.heavy>
14

>  <SCORE.norm>
-0.461129

>  <RMSD>
1.248

$$$$
ligand
 OpenBabel11021811393D
libRbt.so/2013.1/901 2013/11/27
 14 13  0  0  0  0  0  0  0  0999 V2000
    5.1039   -5.8307    9.0967 N   0  0  0  0  0  0  0  0  0  0  0  0
    4.3739   -5.9599   10.4340 C   0  0  0  0  0  0  0  0  0  0  0  0
    4.2359   -4.5725   10.9465 C   0  0  0  0  0  0  0  0  0  0  0  0
    3.3302   -3.6792   10.1146 C   0  0  0  0  0  0  0  0  0  0  0  0
    3.3024   -2.3137   10.7038 N   0  0  0  0  0  0  0  0  0  0  0  0
    1.9920   -2.1234   11.4890 C   0  0  0  0  0  0  0  0  0  0  0  0
    1.1374   -1.1999   10.4946 C   0  0  0  0  0  0  0  0  0  0  0  0
    0.0032   -0.8793   11.0685 C   0  0  0  0  0  0  0  0  0  0  0  0
   -0.6072   -0.0153    9.8184 C   0  0  0  0  0  0  0  0  0  0  0  0
   -1.9093    0.4967   10.5211 N   0  0  0  0  0  0  0  0  0  0  0  0
   -2.7226    1.5424    9.6585 C   0  0  0  0  0  0  0  0  0  0  0  0
   -3.8853    0.6870    8.8943 C   0  0  0  0  0  0  0  0  0  0  0  0
   -4.9566    0.5388    9.9353 C   0  0  0  0  0  0  0  0  0  0  0  0
   -5.6659    1.8721    9.9696 N   0  0  0  0  0  0  0  0  0  0  0  0
  1  2  1  0  0  0  0
  2  3  1  0  0  0  0
  3  4  1  0  0  0  0
  4  5  1  0  0  0  0
  5  6  1  0  0  0  0
  6  7  1  0  0  0  0
  7  8  1  0  0  0  0
  8  9  1  0  0  0  0
  9 10  1  0  0  0  0
 10 11  1  0  0  0  0
 11 12  1  0  0  0  0
 12 13  1  0  0  0  0
 13 14  1  0  0  0  0
M  END
>  <CHROM.1>
66.12240397,-178.44791594,-102.33916145,-104.04104010,-176.22492771,-178.45739002
-174.98287231,173.20210361,96.57936928,81.30343687,77.64215294,0.26659744
-1.53125634,10.22468170,0.49664908,0.38055182,-2.62547566

>  <Name>
ligand

>  <RI>
0

>  <Rbt.Current_Directory>
/home/itssahil/PROJECTS/Mol_Feturizer/New_Systems/rnas/1FUF

>  <Rbt.Executable>
rbdock ($Id: //depot/dev/client3/rdock/2013.1/src/exe/rbdock.cxx#4 $)

>  <Rbt.Library>
libRbt.so (2013.1, Build901 2013/11/27)

>  <Rbt.Parameter_File>
/export/apps/rDock/src/rDock_2013.1_src/data/scripts/dock_solv.prm

>  <Rbt.Receptor>
prm/pocket_docking_2.prm

>  <SCORE>
-3.01381

>  <SCORE.INTER>
-2.20244

>  <SCORE.INTER.CONST>
1

>  <SCORE.INTER.POLAR>
0

>  <SCORE.INTER.ROT>
11

>  <SCORE.INTER.SOLV>
17.0742

>  <SCORE.INTER.VDW>
-18.093

>  <SCORE.INTER.norm>
-0.157317

>  <SCORE.INTRA>
-0.812065

>  <SCORE.INTRA.DIHEDRAL>
-4.82206

>  <SCORE.INTRA.DIHEDRAL.0>
10.5765

>  <SCORE.INTRA.POLAR>
0

>  <SCORE.INTRA.POLAR.0>
0

>  <SCORE.INTRA.REPUL>
0

>  <SCORE.INTRA.REPUL.0>
0

>  <SCORE.INTRA.SOLV>
2.1397

>  <SCORE.INTRA.SOLV.lig_0>
-50.1861

>  <SCORE.INTRA.VDW>
0.529117

>  <SCORE.INTRA.VDW.0>
-1.36671

>  <SCORE.INTRA.norm>
-0.0580047

>  <SCORE.RESTR>
0.00069593

>  <SCORE.RESTR.CAVITY>
0.00069593

>  <SCORE.RESTR.norm>
4.97093e-05

>  <SCORE.SYSTEM>
0

>  <SCORE.SYSTEM.CONST>
0

>  <SCORE.SYSTEM.DIHEDRAL>
0

>  <SCORE.SYSTEM.SOLV>
0

>  <SCORE.SYSTEM.norm>
0

>  <SCORE.heavy>
14

>  <SCORE.norm>
-0.215272

>  <RMSD>
1.248

$$$$
ligand
 OpenBabel11021811393D
libRbt.so/2013.1/901 2013/11/27
 14 13  0  0  0  0  0  0  0  0999 V2000
   -6.0814    2.4630    8.4447 N   0  0  0  0  0  0  0  0  0  0  0  0
   -5.3198    2.0654    9.7096 C   0  0  0  0  0  0  0  0  0  0  0  0
   -4.0220    1.5191    9.2362 C   0  0  0  0  0  0  0  0  0  0  0  0
   -3.0499    1.1506   10.3451 C   0  0  0  0  0  0  0  0  0  0  0  0
   -1.8052    0.5948    9.7499 N   0  0  0  0  0  0  0  0  0  0  0  0
   -0.7934    0.2950   10.8707 C   0  0  0  0  0  0  0  0  0  0  0  0
   -0.0721   -1.0292   10.3246 C   0  0  0  0  0  0  0  0  0  0  0  0
    0.7641   -1.4725   11.2317 C   0  0  0  0  0  0  0  0  0  0  0  0
    1.2138   -2.8289   10.4320 C   0  0  0  0  0  0  0  0  0  0  0  0
    2.1301   -3.4442   11.5425 N   0  0  0  0  0  0  0  0  0  0  0  0
    2.7012   -4.8707   11.1708 C   0  0  0  0  0  0  0  0  0  0  0  0
    4.0625   -4.5993   10.3100 C   0  0  0  0  0  0  0  0  0  0  0  0
    4.5185   -5.9771    9.9266 C   0  0  0  0  0  0  0  0  0  0  0  0
    5.7377   -5.7666    9.0600 N   0  0  0  0  0  0  0  0  0  0  0  0
  1  2  1  0  0  0  0
  2  3  1  0  0  0  0
  3  4  1  0  0  0  0
  4  5  1  0  0  0  0
  5  6  1  0  0  0  0
  6  7  1  0  0  0  0
  7  8  1  0  0  0  0
  8  9  1  0  0  0  0
  9 10  1  0  0  0  0
 10 11  1  0  0  0  0
 11 12  1  0  0  0  0
 12 13  1  0  0  0  0
 13 14  1  0  0  0  0
M  END
>  <CHROM.1>
175.68837373,178.94509329,176.91090865,144.59013736,-175.30172199,175.94777131
-175.69133895,175.98771277,86.02238799,-177.18353368,176.91199167,-0.00114336
-1.56433748,10.16836317,3.01603247,-0.67100715,1.25968400

>  <Name>
ligand

>  <RI>
0

>  <Rbt.Current_Directory>
/home/itssahil/PROJECTS/Mol_Feturizer/New_Systems/rnas/1FUF

>  <Rbt.Executable>
rbdock ($Id: //depot/dev/client3/rdock/2013.1/src/exe/rbdock.cxx#4 $)

>  <Rbt.Library>
libRbt.so (2013.1, Build901 2013/11/27)

>  <Rbt.Parameter_File>
/export/apps/rDock/src/rDock_2013.1_src/data/scripts/dock_solv.prm

>  <Rbt.Receptor>
prm/pocket_docking_2.prm

>  <SCORE>
-5.75376

>  <SCORE.INTER>
-1.28861

>  <SCORE.INTER.CONST>
1

>  <SCORE.INTER.POLAR>
0

>  <SCORE.INTER.ROT>
11

>  <SCORE.INTER.SOLV>
14.8044

>  <SCORE.INTER.VDW>
-16.7272

>  <SCORE.INTER.norm>
-0.0920433

>  <SCORE.INTRA>
-4.46515

>  <SCORE.INTRA.DIHEDRAL>
-8.94996

>  <SCORE.INTRA.DIHEDRAL.0>
10.5765

>  <SCORE.INTRA.POLAR>
0

>  <SCORE.INTRA.POLAR.0>
0

>  <SCORE.INTRA.REPUL>
0

>  <SCORE.INTRA.REPUL.0>
0

>  <SCORE.INTRA.SOLV>
-0.146217

>  <SCORE.INTRA.SOLV.lig_0>
-50.1861

>  <SCORE.INTRA.VDW>
0.0829409

>  <SCORE.INTRA.VDW.0>
-1.36671

>  <SCORE.INTRA.norm>
-0.318939

>  <SCORE.RESTR>
0

>  <SCORE.RESTR.CAVITY>
0

>  <SCORE.RESTR.norm>
0

>  <SCORE.SYSTEM>
0

>  <SCORE.SYSTEM.CONST>
0

>  <SCORE.SYSTEM.DIHEDRAL>
0

>  <SCORE.SYSTEM.SOLV>
0

>  <SCORE.SYSTEM.norm>
0

>  <SCORE.heavy>
14

>  <SCORE.norm>
-0.410983

>  <RMSD>
1.258

$$$$
ligand
 OpenBabel11021811393D
libRbt.so/2013.1/901 2013/11/27
 14 13  0  0  0  0  0  0  0  0999 V2000
   -6.1945    2.4627    8.3856 N   0  0  0  0  0  0  0  0  0  0  0  0
   -5.1535    2.6171    9.4949 C   0  0  0  0  0  0  0  0  0  0  0  0
   -4.1039    1.6089    9.1974 C   0  0  0  0  0  0  0  0  0  0  0  0
   -2.9369    1.6061   10.1713 C   0  0  0  0  0  0  0  0  0  0  0  0
   -1.9577    0.5609    9.7700 N   0  0  0  0  0  0  0  0  0  0  0  0
   -0.8349    0.4834   10.8203 C   0  0  0  0  0  0  0  0  0  0  0  0
   -0.0938   -0.8806   10.4174 C   0  0  0  0  0  0  0  0  0  0  0  0
    0.7945   -1.1781   11.3346 C   0  0  0  0  0  0  0  0  0  0  0  0
    1.2688   -2.6054   10.6868 C   0  0  0  0  0  0  0  0  0  0  0  0
    2.6277   -2.1270   10.0738 N   0  0  0  0  0  0  0  0  0  0  0  0
    3.5136   -3.3064    9.5051 C   0  0  0  0  0  0  0  0  0  0  0  0
    4.1009   -4.0960   10.8087 C   0  0  0  0  0  0  0  0  0  0  0  0
    5.0177   -5.1254   10.2146 C   0  0  0  0  0  0  0  0  0  0  0  0
    4.1092   -6.1273    9.5419 N   0  0  0  0  0  0  0  0  0  0  0  0
  1  2  1  0  0  0  0
  2  3  1  0  0  0  0
  3  4  1  0  0  0  0
  4  5  1  0  0  0  0
  5  6  1  0  0  0  0
  6  7  1  0  0  0  0
  7  8  1  0  0  0  0
  8  9  1  0  0  0  0
  9 10  1  0  0  0  0
 10 11  1  0  0  0  0
 11 12  1  0  0  0  0
 12 13  1  0  0  0  0
 13 14  1  0  0  0  0
M  END
>  <CHROM.1>
178.71557153,-179.95868947,-175.47075132,167.41046761,-171.95918573,176.64708864
103.42880547,171.98770029,-72.98471162,-175.49265454,-70.48917675,0.01137820
-1.15043923,10.03040957,2.73051633,-0.52751817,0.73516660

>  <Name>
ligand

>  <RI>
0

>  <Rbt.Current_Directory>
/home/itssahil/PROJECTS/Mol_Feturizer/New_Systems/rnas/1FUF

>  <Rbt.Executable>
rbdock ($Id: //depot/dev/client3/rdock/2013.1/src/exe/rbdock.cxx#4 $)

>  <Rbt.Library>
libRbt.so (2013.1, Build901 2013/11/27)

>  <Rbt.Parameter_File>
/export/apps/rDock/src/rDock_2013.1_src/data/scripts/dock_solv.prm

>  <Rbt.Receptor>
prm/blind_docking_80.prm

>  <SCORE>
-3.29916

>  <SCORE.INTER>
-2.08389

>  <SCORE.INTER.CONST>
1

>  <SCORE.INTER.POLAR>
0

>  <SCORE.INTER.ROT>
11

>  <SCORE.INTER.SOLV>
15.2811

>  <SCORE.INTER.VDW>
-17.4163

>  <SCORE.INTER.norm>
-0.148849

>  <SCORE.INTRA>
-1.21527

>  <SCORE.INTRA.DIHEDRAL>
-4.92719

>  <SCORE.INTRA.DIHEDRAL.0>
10.5765

>  <SCORE.INTRA.POLAR>
0

>  <SCORE.INTRA.POLAR.0>
0

>  <SCORE.INTRA.REPUL>
0

>  <SCORE.INTRA.REPUL.0>
0

>  <SCORE.INTRA.SOLV>
1.09594

>  <SCORE.INTRA.SOLV.lig_0>
-50.1861

>  <SCORE.INTRA.VDW>
0.700354

>  <SCORE.INTRA.VDW.0>
-1.36671

>  <SCORE.INTRA.norm>
-0.0868051

>  <SCORE.RESTR>
0

>  <SCORE.RESTR.CAVITY>
0

>  <SCORE.RESTR.norm>
0

>  <SCORE.SYSTEM>
0

>  <SCORE.SYSTEM.CONST>
0

>  <SCORE.SYSTEM.DIHEDRAL>
0

>  <SCORE.SYSTEM.SOLV>
0

>  <SCORE.SYSTEM.norm>
0

>  <SCORE.heavy>
14

>  <SCORE.norm>
-0.235654

>  <RMSD>
1.276

$$$$
ligand
 OpenBabel11021811393D
libRbt.so/2013.1/901 2013/11/27
 14 13  0  0  0  0  0  0  0  0999 V2000
    5.8776   -5.9870    8.9096 N   0  0  0  0  0  0  0  0  0  0  0  0
    4.3994   -5.9433    8.5213 C   0  0  0  0  0  0  0  0  0  0  0  0
    3.9170   -4.6038    8.9455 C   0  0  0  0  0  0  0  0  0  0  0  0
    3.8993   -4.3863   10.4497 C   0  0  0  0  0  0  0  0  0  0  0  0
    3.3119   -3.0536   10.7518 N   0  0  0  0  0  0  0  0  0  0  0  0
    1.7762   -3.1605   10.7493 C   0  0  0  0  0  0  0  0  0  0  0  0
    1.3339   -1.6202   10.6859 C   0  0  0  0  0  0  0  0  0  0  0  0
    0.0276   -1.5411   10.7626 C   0  0  0  0  0  0  0  0  0  0  0  0
   -0.0770    0.0840   10.5908 C   0  0  0  0  0  0  0  0  0  0  0  0
   -1.6376    0.1990   10.5397 N   0  0  0  0  0  0  0  0  0  0  0  0
   -2.1503    1.5576    9.9149 C   0  0  0  0  0  0  0  0  0  0  0  0
   -3.7721    1.5575   10.1087 C   0  0  0  0  0  0  0  0  0  0  0  0
   -4.2374    0.4647    9.1909 C   0  0  0  0  0  0  0  0  0  0  0  0
   -5.7461    0.5092    9.2510 N   0  0  0  0  0  0  0  0  0  0  0  0
  1  2  1  0  0  0  0
  2  3  1  0  0  0  0
  3  4  1  0  0  0  0
  4  5  1  0  0  0  0
  5  6  1  0  0  0  0
  6  7  1  0  0  0  0
  7  8  1  0  0  0  0
  8  9  1  0  0  0  0
  9 10  1  0  0  0  0
 10 11  1  0  0  0  0
 11 12  1  0  0  0  0
 12 13  1  0  0  0  0
 13 14  1  0  0  0  0
M  END
>  <CHROM.1>
-66.68490536,-176.07759434,82.85774189,-165.24032029,-176.03296888,-177.10566026
174.84162544,-161.17084615,-173.62828257,-68.12026190,-175.31576239,0.49447855
-1.85160587,9.95515876,0.50718620,0.38878206,-2.48362708

>  <Name>
ligand

>  <RI>
0

>  <Rbt.Current_Directory>
/home/itssahil/PROJECTS/Mol_Feturizer/New_Systems/rnas/1FUF

>  <Rbt.Executable>
rbdock ($Id: //depot/dev/client3/rdock/2013.1/src/exe/rbdock.cxx#4 $)

>  <Rbt.Library>
libRbt.so (2013.1, Build901 2013/11/27)

>  <Rbt.Parameter_File>
/export/apps/rDock/src/rDock_2013.1_src/data/scripts/dock_solv.prm

>  <Rbt.Receptor>
prm/pocket_docking_2.prm

>  <SCORE>
-4.1704

>  <SCORE.INTER>
-0.952695

>  <SCORE.INTER.CONST>
1

>  <SCORE.INTER.POLAR>
0

>  <SCORE.INTER.ROT>
11

>  <SCORE.INTER.SOLV>
18.2061

>  <SCORE.INTER.VDW>
-17.6372

>  <SCORE.INTER.norm>
-0.0680496

>  <SCORE.INTRA>
-3.21771

>  <SCORE.INTRA.DIHEDRAL>
-8.97527

>  <SCORE.INTRA.DIHEDRAL.0>
10.5765

>  <SCORE.INTRA.POLAR>
0

>  <SCORE.INTRA.POLAR.0>
0

>  <SCORE.INTRA.REPUL>
0

>  <SCORE.INTRA.REPUL.0>
0

>  <SCORE.INTRA.SOLV>
1.14831

>  <SCORE.INTRA.SOLV.lig_0>
-50.1861

>  <SCORE.INTRA.VDW>
0.695769

>  <SCORE.INTRA.VDW.0>
-1.36671

>  <SCORE.INTRA.norm>
-0.229836

>  <SCORE.RESTR>
0

>  <SCORE.RESTR.CAVITY>
0

>  <SCORE.RESTR.norm>
0

>  <SCORE.SYSTEM>
0

>  <SCORE.SYSTEM.CONST>
0

>  <SCORE.SYSTEM.DIHEDRAL>
0

>  <SCORE.SYSTEM.SOLV>
0

>  <SCORE.SYSTEM.norm>
0

>  <SCORE.heavy>
14

>  <SCORE.norm>
-0.297886

>  <RMSD>
1.279

$$$$
ligand
 OpenBabel11021811393D
libRbt.so/2013.1/901 2013/11/27
 14 13  0  0  0  0  0  0  0  0999 V2000
    3.9936   -5.6718    9.9845 N   0  0  0  0  0  0  0  0  0  0  0  0
    4.0945   -4.5057    9.0006 C   0  0  0  0  0  0  0  0  0  0  0  0
    4.5105   -3.3347    9.8144 C   0  0  0  0  0  0  0  0  0  0  0  0
    3.4694   -2.8589   10.8146 C   0  0  0  0  0  0  0  0  0  0  0  0
    2.3590   -2.1829   10.0919 N   0  0  0  0  0  0  0  0  0  0  0  0
    1.3414   -1.6411   11.1121 C   0  0  0  0  0  0  0  0  0  0  0  0
    0.3033   -0.8640   10.1685 C   0  0  0  0  0  0  0  0  0  0  0  0
   -0.5938   -0.2644   10.9130 C   0  0  0  0  0  0  0  0  0  0  0  0
   -1.4375    0.4171    9.6860 C   0  0  0  0  0  0  0  0  0  0  0  0
   -2.5183    1.1541   10.5461 N   0  0  0  0  0  0  0  0  0  0  0  0
   -3.9964    0.6841   10.2403 C   0  0  0  0  0  0  0  0  0  0  0  0
   -4.7582    1.9819    9.6053 C   0  0  0  0  0  0  0  0  0  0  0  0
   -6.1911    1.5431    9.5192 C   0  0  0  0  0  0  0  0  0  0  0  0
   -6.9287    2.7093    8.9046 N   0  0  0  0  0  0  0  0  0  0  0  0
  1  2  1  0  0  0  0
  2  3  1  0  0  0  0
  3  4  1  0  0  0  0
  4  5  1  0  0  0  0
  5  6  1  0  0  0  0
  6  7  1  0  0  0  0
  7  8  1  0  0  0  0
  8  9  1  0  0  0  0
  9 10  1  0  0  0  0
 10 11  1  0  0  0  0
 11 12  1  0  0  0  0
 12 13  1  0  0  0  0
 13 14  1  0  0  0  0
M  END
>  <CHROM.1>
-67.11520804,-72.65159385,-177.21078341,175.80103194,-175.95353105,179.17509076
-179.62972239,-119.49958191,-115.00469255,-172.21530669,-178.75360029,-0.45361737
-0.91666881,10.02869581,0.43420599,0.36638829,-2.55139531

>  <Name>
ligand

>  <RI>
0

>  <Rbt.Current_Directory>
/home/itssahil/PROJECTS/Mol_Feturizer/New_Systems/rnas/1FUF

>  <Rbt.Executable>
rbdock ($Id: //depot/dev/client3/rdock/2013.1/src/exe/rbdock.cxx#4 $)

>  <Rbt.Library>
libRbt.so (2013.1, Build901 2013/11/27)

>  <Rbt.Parameter_File>
/export/apps/rDock/src/rDock_2013.1_src/data/scripts/dock_solv.prm

>  <Rbt.Receptor>
prm/pocket_docking_2.prm

>  <SCORE>
-3.98299

>  <SCORE.INTER>
-1.28479

>  <SCORE.INTER.CONST>
1

>  <SCORE.INTER.POLAR>
0

>  <SCORE.INTER.ROT>
11

>  <SCORE.INTER.SOLV>
15.6586

>  <SCORE.INTER.VDW>
-17.0094

>  <SCORE.INTER.norm>
-0.0917705

>  <SCORE.INTRA>
-2.69821

>  <SCORE.INTRA.DIHEDRAL>
-7.10609

>  <SCORE.INTRA.DIHEDRAL.0>
10.5765

>  <SCORE.INTRA.POLAR>
0

>  <SCORE.INTRA.POLAR.0>
0

>  <SCORE.INTRA.REPUL>
0

>  <SCORE.INTRA.REPUL.0>
0

>  <SCORE.INTRA.SOLV>
1.42788

>  <SCORE.INTRA.SOLV.lig_0>
-50.1861

>  <SCORE.INTRA.VDW>
0.140897

>  <SCORE.INTRA.VDW.0>
-1.36671

>  <SCORE.INTRA.norm>
-0.192729

>  <SCORE.RESTR>
0

>  <SCORE.RESTR.CAVITY>
0

>  <SCORE.RESTR.norm>
0

>  <SCORE.SYSTEM>
0

>  <SCORE.SYSTEM.CONST>
0

>  <SCORE.SYSTEM.DIHEDRAL>
0

>  <SCORE.SYSTEM.SOLV>
0

>  <SCORE.SYSTEM.norm>
0

>  <SCORE.heavy>
14

>  <SCORE.norm>
-0.2845

>  <RMSD>
1.290

$$$$
ligand
 OpenBabel11021811393D
libRbt.so/2013.1/901 2013/11/27
 14 13  0  0  0  0  0  0  0  0999 V2000
   -6.4450    2.0056    9.2604 N   0  0  0  0  0  0  0  0  0  0  0  0
   -4.9864    2.4418    9.4037 C   0  0  0  0  0  0  0  0  0  0  0  0
   -4.2558    1.2362    9.8720 C   0  0  0  0  0  0  0  0  0  0  0  0
   -2.7620    1.4391   10.0668 C   0  0  0  0  0  0  0  0  0  0  0  0
   -2.1231    0.1374   10.3979 N   0  0  0  0  0  0  0  0  0  0  0  0
   -0.5953    0.3179   10.4516 C   0  0  0  0  0  0  0  0  0  0  0  0
   -0.0815   -1.1996   10.5224 C   0  0  0  0  0  0  0  0  0  0  0  0
    1.2293   -1.2131   10.5341 C   0  0  0  0  0  0  0  0  0  0  0  0
    1.4044   -2.8406   10.5815 C   0  0  0  0  0  0  0  0  0  0  0  0
    2.9690   -2.8919   10.6112 N   0  0  0  0  0  0  0  0  0  0  0  0
    3.5465   -4.3049   11.0224 C   0  0  0  0  0  0  0  0  0  0  0  0
    3.7536   -5.1288    9.6273 C   0  0  0  0  0  0  0  0  0  0  0  0
    4.3031   -6.4514   10.0766 C   0  0  0  0  0  0  0  0  0  0  0  0
    4.6486   -7.1917    8.8059 N   0  0  0  0  0  0  0  0  0  0  0  0
  1  2  1  0  0  0  0
  2  3  1  0  0  0  0
  3  4  1  0  0  0  0
  4  5  1  0  0  0  0
  5  6  1  0  0  0  0
  6  7  1  0  0  0  0
  7  8  1  0  0  0  0
  8  9  1  0  0  0  0
  9 10  1  0  0  0  0
 10 11  1  0  0  0  0
 11 12  1  0  0  0  0
 12 13  1  0  0  0  0
 13 14  1  0  0  0  0
M  END
>  <CHROM.1>
179.21803712,-174.20566719,174.21783756,-169.22708637,178.14900492,-179.10902621
-179.45483737,165.53409853,91.11761114,179.85946860,-174.11285338,0.04335769
-1.68873848,10.08826845,2.53723214,-0.39428796,0.47971233

>  <Name>
ligand

>  <RI>
0

>  <Rbt.Current_Directory>
/home/itssahil/PROJECTS/Mol_Feturizer/New_Systems/rnas/1FUF

>  <Rbt.Executable>
rbdock ($Id: //depot/dev/client3/rdock/2013.1/src/exe/rbdock.cxx#4 $)

>  <Rbt.Library>
libRbt.so (2013.1, Build901 2013/11/27)

>  <Rbt.Parameter_File>
/export/apps/rDock/src/rDock_2013.1_src/data/scripts/dock_solv.prm

>  <Rbt.Receptor>
prm/blind_docking_80.prm

>  <SCORE>
-7.02565

>  <SCORE.INTER>
-2.31344

>  <SCORE.INTER.CONST>
1

>  <SCORE.INTER.POLAR>
0

>  <SCORE.INTER.ROT>
11

>  <SCORE.INTER.SOLV>
15.8827

>  <SCORE.INTER.VDW>
-17.7698

>  <SCORE.INTER.norm>
-0.165246

>  <SCORE.INTRA>
-4.71222

>  <SCORE.INTRA.DIHEDRAL>
-9.38117

>  <SCORE.INTRA.DIHEDRAL.0>
10.5765

>  <SCORE.INTRA.POLAR>
0

>  <SCORE.INTRA.POLAR.0>
0

>  <SCORE.INTRA.REPUL>
0

>  <SCORE.INTRA.REPUL.0>
0

>  <SCORE.INTRA.SOLV>
-0.148209

>  <SCORE.INTRA.SOLV.lig_0>
-50.1861

>  <SCORE.INTRA.VDW>
0.0524737

>  <SCORE.INTRA.VDW.0>
-1.36671

>  <SCORE.INTRA.norm>
-0.336587

>  <SCORE.RESTR>
0

>  <SCORE.RESTR.CAVITY>
0

>  <SCORE.RESTR.norm>
0

>  <SCORE.SYSTEM>
0

>  <SCORE.SYSTEM.CONST>
0

>  <SCORE.SYSTEM.DIHEDRAL>
0

>  <SCORE.SYSTEM.SOLV>
0

>  <SCORE.SYSTEM.norm>
0

>  <SCORE.heavy>
14

>  <SCORE.norm>
-0.501832

>  <RMSD>
1.298

$$$$
ligand
 OpenBabel11021811393D
libRbt.so/2013.1/901 2013/11/27
 14 13  0  0  0  0  0  0  0  0999 V2000
    5.5186   -6.0115    8.4599 N   0  0  0  0  0  0  0  0  0  0  0  0
    6.2544   -4.7458    8.9012 C   0  0  0  0  0  0  0  0  0  0  0  0
    5.5048   -4.2417   10.0804 C   0  0  0  0  0  0  0  0  0  0  0  0
    4.0863   -3.7859    9.7793 C   0  0  0  0  0  0  0  0  0  0  0  0
    3.4450   -3.2993   11.0300 N   0  0  0  0  0  0  0  0  0  0  0  0
    1.9148   -3.3850   10.8855 C   0  0  0  0  0  0  0  0  0  0  0  0
    1.5054   -1.8411   10.7419 C   0  0  0  0  0  0  0  0  0  0  0  0
    0.2030   -1.7473   10.6256 C   0  0  0  0  0  0  0  0  0  0  0  0
    0.1433   -0.1214   10.4397 C   0  0  0  0  0  0  0  0  0  0  0  0
   -1.4115    0.0302   10.3348 N   0  0  0  0  0  0  0  0  0  0  0  0
   -1.9029    1.5324   10.3694 C   0  0  0  0  0  0  0  0  0  0  0  0
   -3.5326    1.4699   10.4601 C   0  0  0  0  0  0  0  0  0  0  0  0
   -3.9413    0.9450    9.1145 C   0  0  0  0  0  0  0  0  0  0  0  0
   -5.4479    1.0507    9.0865 N   0  0  0  0  0  0  0  0  0  0  0  0
  1  2  1  0  0  0  0
  2  3  1  0  0  0  0
  3  4  1  0  0  0  0
  4  5  1  0  0  0  0
  5  6  1  0  0  0  0
  6  7  1  0  0  0  0
  7  8  1  0  0  0  0
  8  9  1  0  0  0  0
  9 10  1  0  0  0  0
 10 11  1  0  0  0  0
 11 12  1  0  0  0  0
 12 13  1  0  0  0  0
 13 14  1  0  0  0  0
M  END
>  <CHROM.1>
-65.10206131,-179.71033076,-157.03473489,-107.70037729,-179.17940398,-177.69107556
-178.59466038,170.90237551,-172.30957630,-69.19388463,-172.43114190,0.88153584
-1.72491202,10.02218687,0.37473676,0.45810891,-2.25119623

>  <Name>
ligand

>  <RI>
0

>  <Rbt.Current_Directory>
/home/itssahil/PROJECTS/Mol_Feturizer/New_Systems/rnas/1FUF

>  <Rbt.Executable>
rbdock ($Id: //depot/dev/client3/rdock/2013.1/src/exe/rbdock.cxx#4 $)

>  <Rbt.Library>
libRbt.so (2013.1, Build901 2013/11/27)

>  <Rbt.Parameter_File>
/export/apps/rDock/src/rDock_2013.1_src/data/scripts/dock_solv.prm

>  <Rbt.Receptor>
prm/pocket_docking_2.prm

>  <SCORE>
-2.9555

>  <SCORE.INTER>
0.250313

>  <SCORE.INTER.CONST>
1

>  <SCORE.INTER.POLAR>
0

>  <SCORE.INTER.ROT>
11

>  <SCORE.INTER.SOLV>
16.7897

>  <SCORE.INTER.VDW>
-16.363

>  <SCORE.INTER.norm>
0.0178795

>  <SCORE.INTRA>
-3.20581

>  <SCORE.INTRA.DIHEDRAL>
-8.33975

>  <SCORE.INTRA.DIHEDRAL.0>
10.5765

>  <SCORE.INTRA.POLAR>
0

>  <SCORE.INTRA.POLAR.0>
0

>  <SCORE.INTRA.REPUL>
0

>  <SCORE.INTRA.REPUL.0>
0

>  <SCORE.INTRA.SOLV>
1.16096

>  <SCORE.INTRA.SOLV.lig_0>
-50.1861

>  <SCORE.INTRA.VDW>
0.383584

>  <SCORE.INTRA.VDW.0>
-1.36671

>  <SCORE.INTRA.norm>
-0.228987

>  <SCORE.RESTR>
0

>  <SCORE.RESTR.CAVITY>
0

>  <SCORE.RESTR.norm>
0

>  <SCORE.SYSTEM>
0

>  <SCORE.SYSTEM.CONST>
0

>  <SCORE.SYSTEM.DIHEDRAL>
0

>  <SCORE.SYSTEM.SOLV>
0

>  <SCORE.SYSTEM.norm>
0

>  <SCORE.heavy>
14

>  <SCORE.norm>
-0.211107

>  <RMSD>
1.300

$$$$
ligand
 OpenBabel11021811393D
libRbt.so/2013.1/901 2013/11/27
 14 13  0  0  0  0  0  0  0  0999 V2000
   -6.3175    1.9188    9.0757 N   0  0  0  0  0  0  0  0  0  0  0  0
   -4.8841    2.3582    9.3765 C   0  0  0  0  0  0  0  0  0  0  0  0
   -4.1651    1.1209    9.7749 C   0  0  0  0  0  0  0  0  0  0  0  0
   -2.6858    1.3159   10.0652 C   0  0  0  0  0  0  0  0  0  0  0  0
   -2.0737    0.0088   10.4244 N   0  0  0  0  0  0  0  0  0  0  0  0
   -0.5518    0.1827   10.5769 C   0  0  0  0  0  0  0  0  0  0  0  0
   -0.0414   -1.3375   10.5933 C   0  0  0  0  0  0  0  0  0  0  0  0
    1.2694   -1.3543   10.6026 C   0  0  0  0  0  0  0  0  0  0  0  0
    1.4403   -2.9818   10.6647 C   0  0  0  0  0  0  0  0  0  0  0  0
    3.0041   -3.0400   10.6141 N   0  0  0  0  0  0  0  0  0  0  0  0
    3.5706   -3.6133    9.2541 C   0  0  0  0  0  0  0  0  0  0  0  0
    3.8166   -5.2082    9.5067 C   0  0  0  0  0  0  0  0  0  0  0  0
    4.3132   -5.7034    8.1795 C   0  0  0  0  0  0  0  0  0  0  0  0
    4.6176   -7.1680    8.3893 N   0  0  0  0  0  0  0  0  0  0  0  0
  1  2  1  0  0  0  0
  2  3  1  0  0  0  0
  3  4  1  0  0  0  0
  4  5  1  0  0  0  0
  5  6  1  0  0  0  0
  6  7  1  0  0  0  0
  7  8  1  0  0  0  0
  8  9  1  0  0  0  0
  9 10  1  0  0  0  0
 10 11  1  0  0  0  0
 11 12  1  0  0  0  0
 12 13  1  0  0  0  0
 13 14  1  0  0  0  0
M  END
>  <CHROM.1>
177.46543267,-178.86612366,174.25976052,-166.54086585,174.54083921,178.33610413
177.66565008,-109.91880171,-94.67513137,178.42629219,177.33671988,0.09387480
-1.67850168,9.79278111,2.60495523,-0.45617942,0.72006451

>  <Name>
ligand

>  <RI>
0

>  <Rbt.Current_Directory>
/home/itssahil/PROJECTS/Mol_Feturizer/New_Systems/rnas/1FUF

>  <Rbt.Executable>
rbdock ($Id: //depot/dev/client3/rdock/2013.1/src/exe/rbdock.cxx#4 $)

>  <Rbt.Library>
libRbt.so (2013.1, Build901 2013/11/27)

>  <Rbt.Parameter_File>
/export/apps/rDock/src/rDock_2013.1_src/data/scripts/dock_solv.prm

>  <Rbt.Receptor>
prm/blind_docking_20.prm

>  <SCORE>
-6.65517

>  <SCORE.INTER>
-2.46898

>  <SCORE.INTER.CONST>
1

>  <SCORE.INTER.POLAR>
0

>  <SCORE.INTER.ROT>
11

>  <SCORE.INTER.SOLV>
16.0816

>  <SCORE.INTER.VDW>
-17.9399

>  <SCORE.INTER.norm>
-0.176356

>  <SCORE.INTRA>
-4.18619

>  <SCORE.INTRA.DIHEDRAL>
-8.33343

>  <SCORE.INTRA.DIHEDRAL.0>
10.5765

>  <SCORE.INTRA.POLAR>
0

>  <SCORE.INTRA.POLAR.0>
0

>  <SCORE.INTRA.REPUL>
0

>  <SCORE.INTRA.REPUL.0>
0

>  <SCORE.INTRA.SOLV>
-0.147478

>  <SCORE.INTRA.SOLV.lig_0>
-50.1861

>  <SCORE.INTRA.VDW>
0.0542652

>  <SCORE.INTRA.VDW.0>
-1.36671

>  <SCORE.INTRA.norm>
-0.299014

>  <SCORE.RESTR>
0

>  <SCORE.RESTR.CAVITY>
0

>  <SCORE.RESTR.norm>
0

>  <SCORE.SYSTEM>
0

>  <SCORE.SYSTEM.CONST>
0

>  <SCORE.SYSTEM.DIHEDRAL>
0

>  <SCORE.SYSTEM.SOLV>
0

>  <SCORE.SYSTEM.norm>
0

>  <SCORE.heavy>
14

>  <SCORE.norm>
-0.475369

>  <RMSD>
1.316

$$$$
ligand
 OpenBabel11021811393D
libRbt.so/2013.1/901 2013/11/27
 14 13  0  0  0  0  0  0  0  0999 V2000
   -5.6434    1.3542    9.4274 N   0  0  0  0  0  0  0  0  0  0  0  0
   -4.3660    0.5159    9.4881 C   0  0  0  0  0  0  0  0  0  0  0  0
   -3.2477    1.4896    9.3988 C   0  0  0  0  0  0  0  0  0  0  0  0
   -1.8631    0.8622    9.3943 C   0  0  0  0  0  0  0  0  0  0  0  0
   -1.6138    0.2000   10.7026 N   0  0  0  0  0  0  0  0  0  0  0  0
   -0.0969    0.0490   10.9171 C   0  0  0  0  0  0  0  0  0  0  0  0
    0.1185   -1.5235   10.6874 C   0  0  0  0  0  0  0  0  0  0  0  0
    1.3960   -1.8035   10.7775 C   0  0  0  0  0  0  0  0  0  0  0  0
    1.2636   -3.4064   10.4698 C   0  0  0  0  0  0  0  0  0  0  0  0
    2.7816   -3.7756   10.5740 N   0  0  0  0  0  0  0  0  0  0  0  0
    3.4820   -3.9691    9.1701 C   0  0  0  0  0  0  0  0  0  0  0  0
    4.9401   -4.6351    9.4834 C   0  0  0  0  0  0  0  0  0  0  0  0
    5.5303   -4.8505    8.1201 C   0  0  0  0  0  0  0  0  0  0  0  0
    6.8645   -5.5154    8.3641 N   0  0  0  0  0  0  0  0  0  0  0  0
  1  2  1  0  0  0  0
  2  3  1  0  0  0  0
  3  4  1  0  0  0  0
  4  5  1  0  0  0  0
  5  6  1  0  0  0  0
  6  7  1  0  0  0  0
  7  8  1  0  0  0  0
  8  9  1  0  0  0  0
  9 10  1  0  0  0  0
 10 11  1  0  0  0  0
 11 12  1  0  0  0  0
 12 13  1  0  0  0  0
 13 14  1  0  0  0  0
M  END
>  <CHROM.1>
-178.06277916,-65.38450836,-158.40674040,-106.62351411,177.06920928,-178.74220992
-179.86107912,-102.40508111,-168.77497599,177.59224141,-177.95509311,0.68186962
-1.78624578,9.78391788,3.00120471,-0.56800843,1.43823988

>  <Name>
ligand

>  <RI>
0

>  <Rbt.Current_Directory>
/home/itssahil/PROJECTS/Mol_Feturizer/New_Systems/rnas/1FUF

>  <Rbt.Executable>
rbdock ($Id: //depot/dev/client3/rdock/2013.1/src/exe/rbdock.cxx#4 $)

>  <Rbt.Library>
libRbt.so (2013.1, Build901 2013/11/27)

>  <Rbt.Parameter_File>
/export/apps/rDock/src/rDock_2013.1_src/data/scripts/dock_solv.prm

>  <Rbt.Receptor>
prm/pocket_docking_2.prm

>  <SCORE>
-4.21745

>  <SCORE.INTER>
-0.534152

>  <SCORE.INTER.CONST>
1

>  <SCORE.INTER.POLAR>
0

>  <SCORE.INTER.ROT>
11

>  <SCORE.INTER.SOLV>
16.3365

>  <SCORE.INTER.VDW>
-16.7349

>  <SCORE.INTER.norm>
-0.0381537

>  <SCORE.INTRA>
-3.689

>  <SCORE.INTRA.DIHEDRAL>
-7.9098

>  <SCORE.INTRA.DIHEDRAL.0>
10.5765

>  <SCORE.INTRA.POLAR>
0

>  <SCORE.INTRA.POLAR.0>
0

>  <SCORE.INTRA.REPUL>
0

>  <SCORE.INTRA.REPUL.0>
0

>  <SCORE.INTRA.SOLV>
0.181178

>  <SCORE.INTRA.SOLV.lig_0>
-50.1861

>  <SCORE.INTRA.VDW>
0.175313

>  <SCORE.INTRA.VDW.0>
-1.36671

>  <SCORE.INTRA.norm>
-0.2635

>  <SCORE.RESTR>
0.00570299

>  <SCORE.RESTR.CAVITY>
0.00570299

>  <SCORE.RESTR.norm>
0.000407356

>  <SCORE.SYSTEM>
0

>  <SCORE.SYSTEM.CONST>
0

>  <SCORE.SYSTEM.DIHEDRAL>
0

>  <SCORE.SYSTEM.SOLV>
0

>  <SCORE.SYSTEM.norm>
0

>  <SCORE.heavy>
14

>  <SCORE.norm>
-0.301246

>  <RMSD>
1.317

$$$$
ligand
 OpenBabel11021811393D
libRbt.so/2013.1/901 2013/11/27
 14 13  0  0  0  0  0  0  0  0999 V2000
   -6.1594    2.1212   10.0142 N   0  0  0  0  0  0  0  0  0  0  0  0
   -5.3117    0.8488    9.9985 C   0  0  0  0  0  0  0  0  0  0  0  0
   -4.3490    1.0270    8.8813 C   0  0  0  0  0  0  0  0  0  0  0  0
   -3.2412    2.0308    9.1564 C   0  0  0  0  0  0  0  0  0  0  0  0
   -2.2902    1.4614   10.1483 N   0  0  0  0  0  0  0  0  0  0  0  0
   -1.3875    0.4260    9.4535 C   0  0  0  0  0  0  0  0  0  0  0  0
   -0.4158   -0.0249   10.6470 C   0  0  0  0  0  0  0  0  0  0  0  0
    0.2731   -1.0752   10.2715 C   0  0  0  0  0  0  0  0  0  0  0  0
    1.0892   -1.2819   11.6760 C   0  0  0  0  0  0  0  0  0  0  0  0
    1.7827   -2.6419   11.3283 N   0  0  0  0  0  0  0  0  0  0  0  0
    3.1290   -2.4746   10.5168 C   0  0  0  0  0  0  0  0  0  0  0  0
    3.5347   -3.9720   10.0059 C   0  0  0  0  0  0  0  0  0  0  0  0
    4.8144   -3.7534    9.2524 C   0  0  0  0  0  0  0  0  0  0  0  0
    5.2020   -5.1138    8.7223 N   0  0  0  0  0  0  0  0  0  0  0  0
  1  2  1  0  0  0  0
  2  3  1  0  0  0  0
  3  4  1  0  0  0  0
  4  5  1  0  0  0  0
  5  6  1  0  0  0  0
  6  7  1  0  0  0  0
  7  8  1  0  0  0  0
  8  9  1  0  0  0  0
  9 10  1  0  0  0  0
 10 11  1  0  0  0  0
 11 12  1  0  0  0  0
 12 13  1  0  0  0  0
 13 14  1  0  0  0  0
M  END
>  <CHROM.1>
72.85698402,71.52319696,76.39672672,177.98704594,169.42048563,-178.55412101
172.91974436,84.62268856,-169.24625572,-179.75308957,-178.20749605,-0.23777184
-0.88727252,10.00515311,2.98986415,-0.54012068,1.25612797

>  <Name>
ligand

>  <RI>
0

>  <Rbt.Current_Directory>
/home/itssahil/PROJECTS/Mol_Feturizer/New_Systems/rnas/1FUF

>  <Rbt.Executable>
rbdock ($Id: //depot/dev/client3/rdock/2013.1/src/exe/rbdock.cxx#4 $)

>  <Rbt.Library>
libRbt.so (2013.1, Build901 2013/11/27)

>  <Rbt.Parameter_File>
/export/apps/rDock/src/rDock_2013.1_src/data/scripts/dock_solv.prm

>  <Rbt.Receptor>
prm/pocket_docking_4.prm

>  <SCORE>
-2.285

>  <SCORE.INTER>
0.199525

>  <SCORE.INTER.CONST>
1

>  <SCORE.INTER.POLAR>
0

>  <SCORE.INTER.ROT>
11

>  <SCORE.INTER.SOLV>
17.5138

>  <SCORE.INTER.VDW>
-16.6382

>  <SCORE.INTER.norm>
0.0142518

>  <SCORE.INTRA>
-2.48452

>  <SCORE.INTRA.DIHEDRAL>
-8.12853

>  <SCORE.INTRA.DIHEDRAL.0>
10.5765

>  <SCORE.INTRA.POLAR>
0

>  <SCORE.INTRA.POLAR.0>
0

>  <SCORE.INTRA.REPUL>
0

>  <SCORE.INTRA.REPUL.0>
0

>  <SCORE.INTRA.SOLV>
1.30802

>  <SCORE.INTRA.SOLV.lig_0>
-50.1861

>  <SCORE.INTRA.VDW>
0.925735

>  <SCORE.INTRA.VDW.0>
-1.36671

>  <SCORE.INTRA.norm>
-0.177466

>  <SCORE.RESTR>
0

>  <SCORE.RESTR.CAVITY>
0

>  <SCORE.RESTR.norm>
0

>  <SCORE.SYSTEM>
0

>  <SCORE.SYSTEM.CONST>
0

>  <SCORE.SYSTEM.DIHEDRAL>
0

>  <SCORE.SYSTEM.SOLV>
0

>  <SCORE.SYSTEM.norm>
0

>  <SCORE.heavy>
14

>  <SCORE.norm>
-0.163214

>  <RMSD>
1.318

$$$$
ligand
 OpenBabel11021811393D
libRbt.so/2013.1/901 2013/11/27
 14 13  0  0  0  0  0  0  0  0999 V2000
   -6.3501    1.9581    9.3092 N   0  0  0  0  0  0  0  0  0  0  0  0
   -4.8846    2.3724    9.4469 C   0  0  0  0  0  0  0  0  0  0  0  0
   -4.1678    1.1518    9.8975 C   0  0  0  0  0  0  0  0  0  0  0  0
   -2.6681    1.3285   10.0719 C   0  0  0  0  0  0  0  0  0  0  0  0
   -2.0488    0.0172   10.4021 N   0  0  0  0  0  0  0  0  0  0  0  0
   -0.5175    0.1711   10.4395 C   0  0  0  0  0  0  0  0  0  0  0  0
   -0.0300   -1.3544   10.5238 C   0  0  0  0  0  0  0  0  0  0  0  0
    1.2793   -1.3883   10.5800 C   0  0  0  0  0  0  0  0  0  0  0  0
    1.4279   -3.0187   10.6174 C   0  0  0  0  0  0  0  0  0  0  0  0
    2.9904   -3.0949   10.6811 N   0  0  0  0  0  0  0  0  0  0  0  0
    3.5417   -4.5562   10.9252 C   0  0  0  0  0  0  0  0  0  0  0  0
    3.8441   -5.1755    9.4443 C   0  0  0  0  0  0  0  0  0  0  0  0
    4.2774   -6.5836    9.7321 C   0  0  0  0  0  0  0  0  0  0  0  0
    4.7051   -7.1493    8.3984 N   0  0  0  0  0  0  0  0  0  0  0  0
  1  2  1  0  0  0  0
  2  3  1  0  0  0  0
  3  4  1  0  0  0  0
  4  5  1  0  0  0  0
  5  6  1  0  0  0  0
  6  7  1  0  0  0  0
  7  8  1  0  0  0  0
  8  9  1  0  0  0  0
  9 10  1  0  0  0  0
 10 11  1  0  0  0  0
 11 12  1  0  0  0  0
 12 13  1  0  0  0  0
 13 14  1  0  0  0  0
M  END
>  <CHROM.1>
178.69086890,-174.87928140,174.39986071,-169.67117628,-179.23457673,-178.69544979
179.85087531,172.31783538,93.67467866,-176.49929207,-174.28462248,0.10004964
-1.80859450,10.03366573,2.56446642,-0.44400120,0.58983765

>  <Name>
ligand

>  <RI>
0

>  <Rbt.Current_Directory>
/home/itssahil/PROJECTS/Mol_Feturizer/New_Systems/rnas/1FUF

>  <Rbt.Executable>
rbdock ($Id: //depot/dev/client3/rdock/2013.1/src/exe/rbdock.cxx#4 $)

>  <Rbt.Library>
libRbt.so (2013.1, Build901 2013/11/27)

>  <Rbt.Parameter_File>
/export/apps/rDock/src/rDock_2013.1_src/data/scripts/dock_solv.prm

>  <Rbt.Receptor>
prm/blind_docking_20.prm

>  <SCORE>
-6.93343

>  <SCORE.INTER>
-2.18355

>  <SCORE.INTER.CONST>
1

>  <SCORE.INTER.POLAR>
0

>  <SCORE.INTER.ROT>
11

>  <SCORE.INTER.SOLV>
15.9641

>  <SCORE.INTER.VDW>
-17.7104

>  <SCORE.INTER.norm>
-0.155968

>  <SCORE.INTRA>
-4.74989

>  <SCORE.INTRA.DIHEDRAL>
-9.41918

>  <SCORE.INTRA.DIHEDRAL.0>
10.5765

>  <SCORE.INTRA.POLAR>
0

>  <SCORE.INTRA.POLAR.0>
0

>  <SCORE.INTRA.REPUL>
0

>  <SCORE.INTRA.REPUL.0>
0

>  <SCORE.INTRA.SOLV>
-0.148712

>  <SCORE.INTRA.SOLV.lig_0>
-50.1861

>  <SCORE.INTRA.VDW>
0.0340616

>  <SCORE.INTRA.VDW.0>
-1.36671

>  <SCORE.INTRA.norm>
-0.339278

>  <SCORE.RESTR>
0

>  <SCORE.RESTR.CAVITY>
0

>  <SCORE.RESTR.norm>
0

>  <SCORE.SYSTEM>
0

>  <SCORE.SYSTEM.CONST>
0

>  <SCORE.SYSTEM.DIHEDRAL>
0

>  <SCORE.SYSTEM.SOLV>
0

>  <SCORE.SYSTEM.norm>
0

>  <SCORE.heavy>
14

>  <SCORE.norm>
-0.495245

>  <RMSD>
1.320

$$$$
ligand
 OpenBabel11021811393D
libRbt.so/2013.1/901 2013/11/27
 14 13  0  0  0  0  0  0  0  0999 V2000
    4.9702   -5.0518    9.7378 N   0  0  0  0  0  0  0  0  0  0  0  0
    4.7298   -3.6542    9.1662 C   0  0  0  0  0  0  0  0  0  0  0  0
    3.3318   -3.3105    9.5326 C   0  0  0  0  0  0  0  0  0  0  0  0
    3.1075   -3.0772   11.0178 C   0  0  0  0  0  0  0  0  0  0  0  0
    1.6489   -2.9722   11.2892 N   0  0  0  0  0  0  0  0  0  0  0  0
    1.2839   -1.5004   11.5545 C   0  0  0  0  0  0  0  0  0  0  0  0
    0.6843   -1.0440   10.1388 C   0  0  0  0  0  0  0  0  0  0  0  0
    0.1597    0.1517   10.2557 C   0  0  0  0  0  0  0  0  0  0  0  0
   -1.3672   -0.3397   10.5853 C   0  0  0  0  0  0  0  0  0  0  0  0
   -2.1013    1.0105   10.2863 N   0  0  0  0  0  0  0  0  0  0  0  0
   -3.6563    0.9590   10.5662 C   0  0  0  0  0  0  0  0  0  0  0  0
   -4.3561    1.8322    9.3765 C   0  0  0  0  0  0  0  0  0  0  0  0
   -5.8215    1.7459    9.6903 C   0  0  0  0  0  0  0  0  0  0  0  0
   -6.5097    2.5310    8.5985 N   0  0  0  0  0  0  0  0  0  0  0  0
  1  2  1  0  0  0  0
  2  3  1  0  0  0  0
  3  4  1  0  0  0  0
  4  5  1  0  0  0  0
  5  6  1  0  0  0  0
  6  7  1  0  0  0  0
  7  8  1  0  0  0  0
  8  9  1  0  0  0  0
  9 10  1  0  0  0  0
 10 11  1  0  0  0  0
 11 12  1  0  0  0  0
 12 13  1  0  0  0  0
 13 14  1  0  0  0  0
M  END
>  <CHROM.1>
69.09583215,-170.44493904,-105.62469254,99.76795476,171.68303238,-92.85928659
-163.07651878,-177.21592311,-141.64746224,179.87640472,-179.34591859,-0.27819454
-0.90847830,10.12832629,0.01425414,0.55921729,-1.69593476

>  <Name>
ligand

>  <RI>
0

>  <Rbt.Current_Directory>
/home/itssahil/PROJECTS/Mol_Feturizer/New_Systems/rnas/1FUF

>  <Rbt.Executable>
rbdock ($Id: //depot/dev/client3/rdock/2013.1/src/exe/rbdock.cxx#4 $)

>  <Rbt.Library>
libRbt.so (2013.1, Build901 2013/11/27)

>  <Rbt.Parameter_File>
/export/apps/rDock/src/rDock_2013.1_src/data/scripts/dock_solv.prm

>  <Rbt.Receptor>
prm/pocket_docking_2.prm

>  <SCORE>
0.0633996

>  <SCORE.INTER>
-0.272448

>  <SCORE.INTER.CONST>
1

>  <SCORE.INTER.POLAR>
0

>  <SCORE.INTER.ROT>
11

>  <SCORE.INTER.SOLV>
14.8494

>  <SCORE.INTER.VDW>
-16.0648

>  <SCORE.INTER.norm>
-0.0194606

>  <SCORE.INTRA>
0.333026

>  <SCORE.INTRA.DIHEDRAL>
-2.34883

>  <SCORE.INTRA.DIHEDRAL.0>
10.5765

>  <SCORE.INTRA.POLAR>
0

>  <SCORE.INTRA.POLAR.0>
0

>  <SCORE.INTRA.REPUL>
0

>  <SCORE.INTRA.REPUL.0>
0

>  <SCORE.INTRA.SOLV>
1.07889

>  <SCORE.INTRA.SOLV.lig_0>
-50.1861

>  <SCORE.INTRA.VDW>
0.967997

>  <SCORE.INTRA.VDW.0>
-1.36671

>  <SCORE.INTRA.norm>
0.0237876

>  <SCORE.RESTR>
0.00282111

>  <SCORE.RESTR.CAVITY>
0.00282111

>  <SCORE.RESTR.norm>
0.000201508

>  <SCORE.SYSTEM>
0

>  <SCORE.SYSTEM.CONST>
0

>  <SCORE.SYSTEM.DIHEDRAL>
0

>  <SCORE.SYSTEM.SOLV>
0

>  <SCORE.SYSTEM.norm>
0

>  <SCORE.heavy>
14

>  <SCORE.norm>
0.00452854

>  <RMSD>
1.323

$$$$
ligand
 OpenBabel11021811393D
libRbt.so/2013.1/901 2013/11/27
 14 13  0  0  0  0  0  0  0  0999 V2000
   -6.4675    2.8965    9.6939 N   0  0  0  0  0  0  0  0  0  0  0  0
   -6.3347    1.3968    9.4268 C   0  0  0  0  0  0  0  0  0  0  0  0
   -5.1545    0.9564   10.2142 C   0  0  0  0  0  0  0  0  0  0  0  0
   -3.8261    1.5084    9.7230 C   0  0  0  0  0  0  0  0  0  0  0  0
   -2.7249    0.9818   10.5729 N   0  0  0  0  0  0  0  0  0  0  0  0
   -1.5191    0.6274    9.6839 C   0  0  0  0  0  0  0  0  0  0  0  0
   -0.6175   -0.2508   10.6777 C   0  0  0  0  0  0  0  0  0  0  0  0
    0.4627   -0.6451   10.0483 C   0  0  0  0  0  0  0  0  0  0  0  0
    1.0660   -1.5663   11.2605 C   0  0  0  0  0  0  0  0  0  0  0  0
    2.2833   -2.1760   10.4873 N   0  0  0  0  0  0  0  0  0  0  0  0
    2.8795   -3.4715   11.1694 C   0  0  0  0  0  0  0  0  0  0  0  0
    3.6789   -4.2722    9.9914 C   0  0  0  0  0  0  0  0  0  0  0  0
    4.1071   -5.5468   10.6586 C   0  0  0  0  0  0  0  0  0  0  0  0
    4.7451   -6.3731    9.5668 N   0  0  0  0  0  0  0  0  0  0  0  0
  1  2  1  0  0  0  0
  2  3  1  0  0  0  0
  3  4  1  0  0  0  0
  4  5  1  0  0  0  0
  5  6  1  0  0  0  0
  6  7  1  0  0  0  0
  7  8  1  0  0  0  0
  8  9  1  0  0  0  0
  9 10  1  0  0  0  0
 10 11  1  0  0  0  0
 11 12  1  0  0  0  0
 12 13  1  0  0  0  0
 13 14  1  0  0  0  0
M  END
>  <CHROM.1>
-67.54475749,-179.09007292,139.55857719,-165.95053200,179.42052384,-176.03600644
174.31111434,-162.00862590,158.08133758,-174.76649774,175.09461470,-0.53013205
-1.13816531,10.22682442,2.56695135,-0.26074755,0.29975809

>  <Name>
ligand

>  <RI>
0

>  <Rbt.Current_Directory>
/home/itssahil/PROJECTS/Mol_Feturizer/New_Systems/rnas/1FUF

>  <Rbt.Executable>
rbdock ($Id: //depot/dev/client3/rdock/2013.1/src/exe/rbdock.cxx#4 $)

>  <Rbt.Library>
libRbt.so (2013.1, Build901 2013/11/27)

>  <Rbt.Parameter_File>
/export/apps/rDock/src/rDock_2013.1_src/data/scripts/dock_solv.prm

>  <Rbt.Receptor>
prm/pocket_docking_4.prm

>  <SCORE>
-4.50672

>  <SCORE.INTER>
-0.847555

>  <SCORE.INTER.CONST>
1

>  <SCORE.INTER.POLAR>
0

>  <SCORE.INTER.ROT>
11

>  <SCORE.INTER.SOLV>
17.411

>  <SCORE.INTER.VDW>
-17.302

>  <SCORE.INTER.norm>
-0.0605397

>  <SCORE.INTRA>
-3.65917

>  <SCORE.INTRA.DIHEDRAL>
-8.31094

>  <SCORE.INTRA.DIHEDRAL.0>
10.5765

>  <SCORE.INTRA.POLAR>
0

>  <SCORE.INTRA.POLAR.0>
0

>  <SCORE.INTRA.REPUL>
0

>  <SCORE.INTRA.REPUL.0>
0

>  <SCORE.INTRA.SOLV>
0.68332

>  <SCORE.INTRA.SOLV.lig_0>
-50.1861

>  <SCORE.INTRA.VDW>
0.154646

>  <SCORE.INTRA.VDW.0>
-1.36671

>  <SCORE.INTRA.norm>
-0.261369

>  <SCORE.RESTR>
0

>  <SCORE.RESTR.CAVITY>
0

>  <SCORE.RESTR.norm>
0

>  <SCORE.SYSTEM>
0

>  <SCORE.SYSTEM.CONST>
0

>  <SCORE.SYSTEM.DIHEDRAL>
0

>  <SCORE.SYSTEM.SOLV>
0

>  <SCORE.SYSTEM.norm>
0

>  <SCORE.heavy>
14

>  <SCORE.norm>
-0.321909

>  <RMSD>
1.327

$$$$
ligand
 OpenBabel11021811393D
libRbt.so/2013.1/901 2013/11/27
 14 13  0  0  0  0  0  0  0  0999 V2000
    5.2342   -6.0845    8.4860 N   0  0  0  0  0  0  0  0  0  0  0  0
    6.1951   -4.9358    8.7949 C   0  0  0  0  0  0  0  0  0  0  0  0
    5.6118   -4.2348    9.9675 C   0  0  0  0  0  0  0  0  0  0  0  0
    4.2986   -3.5220    9.6880 C   0  0  0  0  0  0  0  0  0  0  0  0
    3.7936   -2.9019   10.9421 N   0  0  0  0  0  0  0  0  0  0  0  0
    2.2870   -3.1862   11.0811 C   0  0  0  0  0  0  0  0  0  0  0  0
    1.6397   -1.7952   10.6142 C   0  0  0  0  0  0  0  0  0  0  0  0
    0.3366   -1.8595   10.7414 C   0  0  0  0  0  0  0  0  0  0  0  0
    0.0152   -0.3507   10.1919 C   0  0  0  0  0  0  0  0  0  0  0  0
   -1.5079   -0.3063   10.5517 N   0  0  0  0  0  0  0  0  0  0  0  0
   -2.3028    0.8305    9.7934 C   0  0  0  0  0  0  0  0  0  0  0  0
   -3.7633    0.9183   10.5193 C   0  0  0  0  0  0  0  0  0  0  0  0
   -4.4457    2.0481    9.8043 C   0  0  0  0  0  0  0  0  0  0  0  0
   -4.7588    1.5159    8.4257 N   0  0  0  0  0  0  0  0  0  0  0  0
  1  2  1  0  0  0  0
  2  3  1  0  0  0  0
  3  4  1  0  0  0  0
  4  5  1  0  0  0  0
  5  6  1  0  0  0  0
  6  7  1  0  0  0  0
  7  8  1  0  0  0  0
  8  9  1  0  0  0  0
  9 10  1  0  0  0  0
 10 11  1  0  0  0  0
 11 12  1  0  0  0  0
 12 13  1  0  0  0  0
 13 14  1  0  0  0  0
M  END
>  <CHROM.1>
-67.26824845,178.04469626,-135.24886836,-101.50567090,-176.93061477,-179.57572630
-171.12172613,-162.60466383,-168.48912705,177.50374029,71.25819002,0.90246224
-1.70449523,9.97168314,0.19520287,0.55141796,-1.89647853

>  <Name>
ligand

>  <RI>
0

>  <Rbt.Current_Directory>
/home/itssahil/PROJECTS/Mol_Feturizer/New_Systems/rnas/1FUF

>  <Rbt.Executable>
rbdock ($Id: //depot/dev/client3/rdock/2013.1/src/exe/rbdock.cxx#4 $)

>  <Rbt.Library>
libRbt.so (2013.1, Build901 2013/11/27)

>  <Rbt.Parameter_File>
/export/apps/rDock/src/rDock_2013.1_src/data/scripts/dock_solv.prm

>  <Rbt.Receptor>
prm/pocket_docking_2.prm

>  <SCORE>
-2.40687

>  <SCORE.INTER>
-0.187017

>  <SCORE.INTER.CONST>
1

>  <SCORE.INTER.POLAR>
0

>  <SCORE.INTER.ROT>
11

>  <SCORE.INTER.SOLV>
16.5212

>  <SCORE.INTER.VDW>
-16.5651

>  <SCORE.INTER.norm>
-0.0133584

>  <SCORE.INTRA>
-2.21985

>  <SCORE.INTRA.DIHEDRAL>
-7.24945

>  <SCORE.INTRA.DIHEDRAL.0>
10.5765

>  <SCORE.INTRA.POLAR>
0

>  <SCORE.INTRA.POLAR.0>
0

>  <SCORE.INTRA.REPUL>
0

>  <SCORE.INTRA.REPUL.0>
0

>  <SCORE.INTRA.SOLV>
1.62791

>  <SCORE.INTRA.SOLV.lig_0>
-50.1861

>  <SCORE.INTRA.VDW>
0.590925

>  <SCORE.INTRA.VDW.0>
-1.36671

>  <SCORE.INTRA.norm>
-0.158561

>  <SCORE.RESTR>
0

>  <SCORE.RESTR.CAVITY>
0

>  <SCORE.RESTR.norm>
0

>  <SCORE.SYSTEM>
0

>  <SCORE.SYSTEM.CONST>
0

>  <SCORE.SYSTEM.DIHEDRAL>
0

>  <SCORE.SYSTEM.SOLV>
0

>  <SCORE.SYSTEM.norm>
0

>  <SCORE.heavy>
14

>  <SCORE.norm>
-0.171919

>  <RMSD>
1.347

$$$$
ligand
 OpenBabel11021811393D
libRbt.so/2013.1/901 2013/11/27
 14 13  0  0  0  0  0  0  0  0999 V2000
    4.6900   -6.3058    8.9919 N   0  0  0  0  0  0  0  0  0  0  0  0
    5.1796   -4.8599    8.9043 C   0  0  0  0  0  0  0  0  0  0  0  0
    5.2748   -4.3872   10.3093 C   0  0  0  0  0  0  0  0  0  0  0  0
    3.9376   -4.2307   11.0149 C   0  0  0  0  0  0  0  0  0  0  0  0
    3.2107   -3.0634   10.4481 N   0  0  0  0  0  0  0  0  0  0  0  0
    1.7416   -3.1057   10.9061 C   0  0  0  0  0  0  0  0  0  0  0  0
    1.2354   -1.6279   10.5428 C   0  0  0  0  0  0  0  0  0  0  0  0
   -0.0257   -1.5070   10.8798 C   0  0  0  0  0  0  0  0  0  0  0  0
   -0.2389    0.0046   10.2870 C   0  0  0  0  0  0  0  0  0  0  0  0
   -1.7440    0.1836   10.6794 N   0  0  0  0  0  0  0  0  0  0  0  0
   -2.3326    1.5994   10.2945 C   0  0  0  0  0  0  0  0  0  0  0  0
   -3.0841    1.3981    8.8583 C   0  0  0  0  0  0  0  0  0  0  0  0
   -4.2306    0.4858    9.1845 C   0  0  0  0  0  0  0  0  0  0  0  0
   -5.2192    1.3426    9.9397 N   0  0  0  0  0  0  0  0  0  0  0  0
  1  2  1  0  0  0  0
  2  3  1  0  0  0  0
  3  4  1  0  0  0  0
  4  5  1  0  0  0  0
  5  6  1  0  0  0  0
  6  7  1  0  0  0  0
  7  8  1  0  0  0  0
  8  9  1  0  0  0  0
  9 10  1  0  0  0  0
 10 11  1  0  0  0  0
 11 12  1  0  0  0  0
 12 13  1  0  0  0  0
 13 14  1  0  0  0  0
M  END
>  <CHROM.1>
-68.45672833,-70.88549687,166.33435554,165.82234670,179.94777770,-175.85231171
-179.82898425,178.30595201,96.38690034,66.16770527,73.23726552,0.59975827
-1.71942763,10.08864408,0.40456163,0.49228766,-2.32581019

>  <Name>
ligand

>  <RI>
0

>  <Rbt.Current_Directory>
/home/itssahil/PROJECTS/Mol_Feturizer/New_Systems/rnas/1FUF

>  <Rbt.Executable>
rbdock ($Id: //depot/dev/client3/rdock/2013.1/src/exe/rbdock.cxx#4 $)

>  <Rbt.Library>
libRbt.so (2013.1, Build901 2013/11/27)

>  <Rbt.Parameter_File>
/export/apps/rDock/src/rDock_2013.1_src/data/scripts/dock_solv.prm

>  <Rbt.Receptor>
prm/pocket_docking_7.prm

>  <SCORE>
-3.59106

>  <SCORE.INTER>
-1.80714

>  <SCORE.INTER.CONST>
1

>  <SCORE.INTER.POLAR>
0

>  <SCORE.INTER.ROT>
11

>  <SCORE.INTER.SOLV>
16.0788

>  <SCORE.INTER.VDW>
-17.4977

>  <SCORE.INTER.norm>
-0.129081

>  <SCORE.INTRA>
-1.78393

>  <SCORE.INTRA.DIHEDRAL>
-7.91819

>  <SCORE.INTRA.DIHEDRAL.0>
10.5765

>  <SCORE.INTRA.POLAR>
0

>  <SCORE.INTRA.POLAR.0>
0

>  <SCORE.INTRA.REPUL>
0

>  <SCORE.INTRA.REPUL.0>
0

>  <SCORE.INTRA.SOLV>
3.27142

>  <SCORE.INTRA.SOLV.lig_0>
-50.1861

>  <SCORE.INTRA.VDW>
0.539459

>  <SCORE.INTRA.VDW.0>
-1.36671

>  <SCORE.INTRA.norm>
-0.127423

>  <SCORE.RESTR>
0

>  <SCORE.RESTR.CAVITY>
0

>  <SCORE.RESTR.norm>
0

>  <SCORE.SYSTEM>
0

>  <SCORE.SYSTEM.CONST>
0

>  <SCORE.SYSTEM.DIHEDRAL>
0

>  <SCORE.SYSTEM.SOLV>
0

>  <SCORE.SYSTEM.norm>
0

>  <SCORE.heavy>
14

>  <SCORE.norm>
-0.256504

>  <RMSD>
1.348

$$$$
ligand
 OpenBabel11021811393D
libRbt.so/2013.1/901 2013/11/27
 14 13  0  0  0  0  0  0  0  0999 V2000
    4.5208   -5.4986    8.7873 N   0  0  0  0  0  0  0  0  0  0  0  0
    4.2553   -4.0712    9.2670 C   0  0  0  0  0  0  0  0  0  0  0  0
    3.5344   -4.2139   10.5579 C   0  0  0  0  0  0  0  0  0  0  0  0
    3.2040   -2.8990   11.2454 C   0  0  0  0  0  0  0  0  0  0  0  0
    2.2485   -2.1268   10.4070 N   0  0  0  0  0  0  0  0  0  0  0  0
    1.1266   -1.5643   11.2986 C   0  0  0  0  0  0  0  0  0  0  0  0
    0.2558   -0.7213   10.2484 C   0  0  0  0  0  0  0  0  0  0  0  0
   -0.8288   -0.2817   10.8391 C   0  0  0  0  0  0  0  0  0  0  0  0
   -1.4601    0.4841    9.5366 C   0  0  0  0  0  0  0  0  0  0  0  0
   -2.9011    0.7233   10.1002 N   0  0  0  0  0  0  0  0  0  0  0  0
   -4.0445    0.4667    9.0391 C   0  0  0  0  0  0  0  0  0  0  0  0
   -4.3022    1.9007    8.3007 C   0  0  0  0  0  0  0  0  0  0  0  0
   -5.0287    2.7065    9.3380 C   0  0  0  0  0  0  0  0  0  0  0  0
   -6.4094    2.0992    9.4193 N   0  0  0  0  0  0  0  0  0  0  0  0
  1  2  1  0  0  0  0
  2  3  1  0  0  0  0
  3  4  1  0  0  0  0
  4  5  1  0  0  0  0
  5  6  1  0  0  0  0
  6  7  1  0  0  0  0
  7  8  1  0  0  0  0
  8  9  1  0  0  0  0
  9 10  1  0  0  0  0
 10 11  1  0  0  0  0
 11 12  1  0  0  0  0
 12 13  1  0  0  0  0
 13 14  1  0  0  0  0
M  END
>  <CHROM.1>
178.14630712,64.68999918,134.71239687,177.36951766,173.71237673,-179.43230844
167.09191796,-138.60091123,-90.43857154,-73.48592299,-71.64884636,-0.41631073
-0.92819653,9.88469780,0.20522897,0.56932321,-2.07164653

>  <Name>
ligand

>  <RI>
0

>  <Rbt.Current_Directory>
/home/itssahil/PROJECTS/Mol_Feturizer/New_Systems/rnas/1FUF

>  <Rbt.Executable>
rbdock ($Id: //depot/dev/client3/rdock/2013.1/src/exe/rbdock.cxx#4 $)

>  <Rbt.Library>
libRbt.so (2013.1, Build901 2013/11/27)

>  <Rbt.Parameter_File>
/export/apps/rDock/src/rDock_2013.1_src/data/scripts/dock_solv.prm

>  <Rbt.Receptor>
prm/blind_docking_100.prm

>  <SCORE>
-3.0585

>  <SCORE.INTER>
-1.50948

>  <SCORE.INTER.CONST>
1

>  <SCORE.INTER.POLAR>
0

>  <SCORE.INTER.ROT>
11

>  <SCORE.INTER.SOLV>
15.3006

>  <SCORE.INTER.VDW>
-17.0398

>  <SCORE.INTER.norm>
-0.10782

>  <SCORE.INTRA>
-1.54902

>  <SCORE.INTRA.DIHEDRAL>
-5.97945

>  <SCORE.INTRA.DIHEDRAL.0>
10.5765

>  <SCORE.INTRA.POLAR>
0

>  <SCORE.INTRA.POLAR.0>
0

>  <SCORE.INTRA.REPUL>
0

>  <SCORE.INTRA.REPUL.0>
0

>  <SCORE.INTRA.SOLV>
1.93066

>  <SCORE.INTRA.SOLV.lig_0>
-50.1861

>  <SCORE.INTRA.VDW>
0.475367

>  <SCORE.INTRA.VDW.0>
-1.36671

>  <SCORE.INTRA.norm>
-0.110645

>  <SCORE.RESTR>
0

>  <SCORE.RESTR.CAVITY>
0

>  <SCORE.RESTR.norm>
0

>  <SCORE.SYSTEM>
0

>  <SCORE.SYSTEM.CONST>
0

>  <SCORE.SYSTEM.DIHEDRAL>
0

>  <SCORE.SYSTEM.SOLV>
0

>  <SCORE.SYSTEM.norm>
0

>  <SCORE.heavy>
14

>  <SCORE.norm>
-0.218464

>  <RMSD>
1.350

$$$$
ligand
 OpenBabel11021811393D
libRbt.so/2013.1/901 2013/11/27
 14 13  0  0  0  0  0  0  0  0999 V2000
    3.9877   -6.2985    9.2003 N   0  0  0  0  0  0  0  0  0  0  0  0
    3.3407   -5.1767   10.0132 C   0  0  0  0  0  0  0  0  0  0  0  0
    3.7663   -3.9141    9.3563 C   0  0  0  0  0  0  0  0  0  0  0  0
    3.4245   -2.6524   10.1320 C   0  0  0  0  0  0  0  0  0  0  0  0
    1.9471   -2.5272   10.2505 N   0  0  0  0  0  0  0  0  0  0  0  0
    1.6018   -1.7618   11.5407 C   0  0  0  0  0  0  0  0  0  0  0  0
    0.7519   -0.5238   10.9777 C   0  0  0  0  0  0  0  0  0  0  0  0
   -0.4605   -0.9278   10.6855 C   0  0  0  0  0  0  0  0  0  0  0  0
   -1.0657    0.5440   10.2992 C   0  0  0  0  0  0  0  0  0  0  0  0
   -2.5770    0.1439   10.2136 N   0  0  0  0  0  0  0  0  0  0  0  0
   -3.5498    1.3808   10.0620 C   0  0  0  0  0  0  0  0  0  0  0  0
   -5.0575    0.7586    9.9761 C   0  0  0  0  0  0  0  0  0  0  0  0
   -5.9347    1.9720    9.8694 C   0  0  0  0  0  0  0  0  0  0  0  0
   -5.7448    2.4782    8.4588 N   0  0  0  0  0  0  0  0  0  0  0  0
  1  2  1  0  0  0  0
  2  3  1  0  0  0  0
  3  4  1  0  0  0  0
  4  5  1  0  0  0  0
  5  6  1  0  0  0  0
  6  7  1  0  0  0  0
  7  8  1  0  0  0  0
  8  9  1  0  0  0  0
  9 10  1  0  0  0  0
 10 11  1  0  0  0  0
 11 12  1  0  0  0  0
 12 13  1  0  0  0  0
 13 14  1  0  0  0  0
M  END
>  <CHROM.1>
-170.46948034,-63.17218076,151.31714719,122.38690602,77.39263841,174.96472608
-169.62167789,171.29453313,179.46281266,178.60173438,74.11369171,-0.39778492
-1.17875231,10.07416565,0.50825832,0.37358276,-2.60275494

>  <Name>
ligand

>  <RI>
0

>  <Rbt.Current_Directory>
/home/itssahil/PROJECTS/Mol_Feturizer/New_Systems/rnas/1FUF

>  <Rbt.Executable>
rbdock ($Id: //depot/dev/client3/rdock/2013.1/src/exe/rbdock.cxx#4 $)

>  <Rbt.Library>
libRbt.so (2013.1, Build901 2013/11/27)

>  <Rbt.Parameter_File>
/export/apps/rDock/src/rDock_2013.1_src/data/scripts/dock_solv.prm

>  <Rbt.Receptor>
prm/blind_docking_20.prm

>  <SCORE>
-3.58286

>  <SCORE.INTER>
-1.77616

>  <SCORE.INTER.CONST>
1

>  <SCORE.INTER.POLAR>
0

>  <SCORE.INTER.ROT>
11

>  <SCORE.INTER.SOLV>
16.1375

>  <SCORE.INTER.VDW>
-17.4966

>  <SCORE.INTER.norm>
-0.126868

>  <SCORE.INTRA>
-1.80671

>  <SCORE.INTRA.DIHEDRAL>
-6.08826

>  <SCORE.INTRA.DIHEDRAL.0>
10.5765

>  <SCORE.INTRA.POLAR>
0

>  <SCORE.INTRA.POLAR.0>
0

>  <SCORE.INTRA.REPUL>
0

>  <SCORE.INTRA.REPUL.0>
0

>  <SCORE.INTRA.SOLV>
1.40854

>  <SCORE.INTRA.SOLV.lig_0>
-50.1861

>  <SCORE.INTRA.VDW>
0.533154

>  <SCORE.INTRA.VDW.0>
-1.36671

>  <SCORE.INTRA.norm>
-0.12905

>  <SCORE.RESTR>
0

>  <SCORE.RESTR.CAVITY>
0

>  <SCORE.RESTR.norm>
0

>  <SCORE.SYSTEM>
0

>  <SCORE.SYSTEM.CONST>
0

>  <SCORE.SYSTEM.DIHEDRAL>
0

>  <SCORE.SYSTEM.SOLV>
0

>  <SCORE.SYSTEM.norm>
0

>  <SCORE.heavy>
14

>  <SCORE.norm>
-0.255919

>  <RMSD>
1.352

$$$$
ligand
 OpenBabel11021811393D
libRbt.so/2013.1/901 2013/11/27
 14 13  0  0  0  0  0  0  0  0999 V2000
   -5.6004    1.4098    9.5670 N   0  0  0  0  0  0  0  0  0  0  0  0
   -4.3418    0.5466    9.4726 C   0  0  0  0  0  0  0  0  0  0  0  0
   -3.2024    1.4974    9.5387 C   0  0  0  0  0  0  0  0  0  0  0  0
   -1.8334    0.8536    9.3913 C   0  0  0  0  0  0  0  0  0  0  0  0
   -1.5567   -0.0015   10.5764 N   0  0  0  0  0  0  0  0  0  0  0  0
   -0.0491    0.0286   10.8866 C   0  0  0  0  0  0  0  0  0  0  0  0
    0.2970   -1.5320   11.0154 C   0  0  0  0  0  0  0  0  0  0  0  0
    1.5070   -1.7465   10.5589 C   0  0  0  0  0  0  0  0  0  0  0  0
    1.5324   -3.3608   10.8328 C   0  0  0  0  0  0  0  0  0  0  0  0
    2.9689   -3.6537   10.2831 N   0  0  0  0  0  0  0  0  0  0  0  0
    3.3663   -5.1828   10.3385 C   0  0  0  0  0  0  0  0  0  0  0  0
    4.3719   -5.4317    9.0756 C   0  0  0  0  0  0  0  0  0  0  0  0
    5.6631   -4.8120    9.5250 C   0  0  0  0  0  0  0  0  0  0  0  0
    6.6598   -5.1344    8.4366 N   0  0  0  0  0  0  0  0  0  0  0  0
  1  2  1  0  0  0  0
  2  3  1  0  0  0  0
  3  4  1  0  0  0  0
  4  5  1  0  0  0  0
  5  6  1  0  0  0  0
  6  7  1  0  0  0  0
  7  8  1  0  0  0  0
  8  9  1  0  0  0  0
  9 10  1  0  0  0  0
 10 11  1  0  0  0  0
 11 12  1  0  0  0  0
 12 13  1  0  0  0  0
 13 14  1  0  0  0  0
M  END
>  <CHROM.1>
-177.08933551,-67.46519909,-146.72870326,-130.11475499,145.59756556,179.84242302
179.51659671,-178.27573402,148.92049002,75.28588208,174.84244393,0.69879072
-1.89427080,9.96428267,-3.10904170,-0.60772750,1.67792796

>  <Name>
ligand

>  <RI>
0

>  <Rbt.Current_Directory>
/home/itssahil/PROJECTS/Mol_Feturizer/New_Systems/rnas/1FUF

>  <Rbt.Executable>
rbdock ($Id: //depot/dev/client3/rdock/2013.1/src/exe/rbdock.cxx#4 $)

>  <Rbt.Library>
libRbt.so (2013.1, Build901 2013/11/27)

>  <Rbt.Parameter_File>
/export/apps/rDock/src/rDock_2013.1_src/data/scripts/dock_solv.prm

>  <Rbt.Receptor>
prm/pocket_docking_2.prm

>  <SCORE>
-1.73378

>  <SCORE.INTER>
-0.30879

>  <SCORE.INTER.CONST>
1

>  <SCORE.INTER.POLAR>
0

>  <SCORE.INTER.ROT>
11

>  <SCORE.INTER.SOLV>
16.526

>  <SCORE.INTER.VDW>
-16.6479

>  <SCORE.INTER.norm>
-0.0220564

>  <SCORE.INTRA>
-1.43366

>  <SCORE.INTRA.DIHEDRAL>
-3.55047

>  <SCORE.INTRA.DIHEDRAL.0>
10.5765

>  <SCORE.INTRA.POLAR>
0

>  <SCORE.INTRA.POLAR.0>
0

>  <SCORE.INTRA.REPUL>
0

>  <SCORE.INTRA.REPUL.0>
0

>  <SCORE.INTRA.SOLV>
0.558146

>  <SCORE.INTRA.SOLV.lig_0>
-50.1861

>  <SCORE.INTRA.VDW>
0.0625061

>  <SCORE.INTRA.VDW.0>
-1.36671

>  <SCORE.INTRA.norm>
-0.102404

>  <SCORE.RESTR>
0.00866196

>  <SCORE.RESTR.CAVITY>
0.00866196

>  <SCORE.RESTR.norm>
0.000618712

>  <SCORE.SYSTEM>
0

>  <SCORE.SYSTEM.CONST>
0

>  <SCORE.SYSTEM.DIHEDRAL>
0

>  <SCORE.SYSTEM.SOLV>
0

>  <SCORE.SYSTEM.norm>
0

>  <SCORE.heavy>
14

>  <SCORE.norm>
-0.123842

>  <RMSD>
1.359

$$$$
ligand
 OpenBabel11021811393D
libRbt.so/2013.1/901 2013/11/27
 14 13  0  0  0  0  0  0  0  0999 V2000
    5.4214   -5.6614    9.3265 N   0  0  0  0  0  0  0  0  0  0  0  0
    4.8004   -4.9644   10.5376 C   0  0  0  0  0  0  0  0  0  0  0  0
    3.9375   -3.8920    9.9792 C   0  0  0  0  0  0  0  0  0  0  0  0
    3.1960   -3.0711   11.0217 C   0  0  0  0  0  0  0  0  0  0  0  0
    2.3078   -2.0907   10.3420 N   0  0  0  0  0  0  0  0  0  0  0  0
    1.0719   -1.8268   11.2211 C   0  0  0  0  0  0  0  0  0  0  0  0
    0.2346   -0.7974   10.3205 C   0  0  0  0  0  0  0  0  0  0  0  0
   -0.9249   -0.5691   10.8880 C   0  0  0  0  0  0  0  0  0  0  0  0
   -1.4699    0.5108    9.7842 C   0  0  0  0  0  0  0  0  0  0  0  0
   -2.9391    0.6390   10.3100 N   0  0  0  0  0  0  0  0  0  0  0  0
   -3.6888    1.9262    9.7807 C   0  0  0  0  0  0  0  0  0  0  0  0
   -3.9243    1.6838    8.1827 C   0  0  0  0  0  0  0  0  0  0  0  0
   -4.6553    2.9186    7.7422 C   0  0  0  0  0  0  0  0  0  0  0  0
   -6.0474    2.7824    8.3126 N   0  0  0  0  0  0  0  0  0  0  0  0
  1  2  1  0  0  0  0
  2  3  1  0  0  0  0
  3  4  1  0  0  0  0
  4  5  1  0  0  0  0
  5  6  1  0  0  0  0
  6  7  1  0  0  0  0
  7  8  1  0  0  0  0
  8  9  1  0  0  0  0
  9 10  1  0  0  0  0
 10 11  1  0  0  0  0
 11 12  1  0  0  0  0
 12 13  1  0  0  0  0
 13 14  1  0  0  0  0
M  END
>  <CHROM.1>
179.20846819,-176.59261287,149.36252101,-178.58473043,174.12202125,178.15191635
171.75119828,162.24877164,69.04863249,179.07899936,-72.28692506,-0.19138585
-0.88648382,9.83932668,-0.07708674,0.64906733,-1.67351285

>  <Name>
ligand

>  <RI>
0

>  <Rbt.Current_Directory>
/home/itssahil/PROJECTS/Mol_Feturizer/New_Systems/rnas/1FUF

>  <Rbt.Executable>
rbdock ($Id: //depot/dev/client3/rdock/2013.1/src/exe/rbdock.cxx#4 $)

>  <Rbt.Library>
libRbt.so (2013.1, Build901 2013/11/27)

>  <Rbt.Parameter_File>
/export/apps/rDock/src/rDock_2013.1_src/data/scripts/dock_solv.prm

>  <Rbt.Receptor>
prm/pocket_docking_5.prm

>  <SCORE>
-5.30984

>  <SCORE.INTER>
-2.03726

>  <SCORE.INTER.CONST>
1

>  <SCORE.INTER.POLAR>
0

>  <SCORE.INTER.ROT>
11

>  <SCORE.INTER.SOLV>
14.8815

>  <SCORE.INTER.VDW>
-17.252

>  <SCORE.INTER.norm>
-0.145519

>  <SCORE.INTRA>
-3.27258

>  <SCORE.INTRA.DIHEDRAL>
-8.64909

>  <SCORE.INTRA.DIHEDRAL.0>
10.5765

>  <SCORE.INTRA.POLAR>
0

>  <SCORE.INTRA.POLAR.0>
0

>  <SCORE.INTRA.REPUL>
0

>  <SCORE.INTRA.REPUL.0>
0

>  <SCORE.INTRA.SOLV>
0.776307

>  <SCORE.INTRA.SOLV.lig_0>
-50.1861

>  <SCORE.INTRA.VDW>
0.663816

>  <SCORE.INTRA.VDW.0>
-1.36671

>  <SCORE.INTRA.norm>
-0.233755

>  <SCORE.RESTR>
0

>  <SCORE.RESTR.CAVITY>
0

>  <SCORE.RESTR.norm>
0

>  <SCORE.SYSTEM>
0

>  <SCORE.SYSTEM.CONST>
0

>  <SCORE.SYSTEM.DIHEDRAL>
0

>  <SCORE.SYSTEM.SOLV>
0

>  <SCORE.SYSTEM.norm>
0

>  <SCORE.heavy>
14

>  <SCORE.norm>
-0.379274

>  <RMSD>
1.359

$$$$
ligand
 OpenBabel11021811393D
libRbt.so/2013.1/901 2013/11/27
 14 13  0  0  0  0  0  0  0  0999 V2000
    7.1377   -5.1215    8.2304 N   0  0  0  0  0  0  0  0  0  0  0  0
    5.6166   -5.1027    8.0756 C   0  0  0  0  0  0  0  0  0  0  0  0
    5.1077   -4.3446    9.2473 C   0  0  0  0  0  0  0  0  0  0  0  0
    3.5976   -4.1737    9.2814 C   0  0  0  0  0  0  0  0  0  0  0  0
    3.1970   -3.5549   10.5733 N   0  0  0  0  0  0  0  0  0  0  0  0
    1.6610   -3.4902   10.6534 C   0  0  0  0  0  0  0  0  0  0  0  0
    1.3881   -1.9120   10.5722 C   0  0  0  0  0  0  0  0  0  0  0  0
    0.0952   -1.6958   10.5645 C   0  0  0  0  0  0  0  0  0  0  0  0
    0.1726   -0.0754   10.3410 C   0  0  0  0  0  0  0  0  0  0  0  0
   -1.3509    0.1843   10.0904 N   0  0  0  0  0  0  0  0  0  0  0  0
   -1.8458    1.5915   10.6140 C   0  0  0  0  0  0  0  0  0  0  0  0
   -3.2122    1.9247    9.7834 C   0  0  0  0  0  0  0  0  0  0  0  0
   -4.1671    0.8568   10.2314 C   0  0  0  0  0  0  0  0  0  0  0  0
   -5.4963    1.2274    9.6168 N   0  0  0  0  0  0  0  0  0  0  0  0
  1  2  1  0  0  0  0
  2  3  1  0  0  0  0
  3  4  1  0  0  0  0
  4  5  1  0  0  0  0
  5  6  1  0  0  0  0
  6  7  1  0  0  0  0
  7  8  1  0  0  0  0
  8  9  1  0  0  0  0
  9 10  1  0  0  0  0
 10 11  1  0  0  0  0
 11 12  1  0  0  0  0
 12 13  1  0  0  0  0
 13 14  1  0  0  0  0
M  END
>  <CHROM.1>
178.69879671,172.96883554,-175.35318026,-111.76035421,176.98478107,-175.10022432
171.15055726,147.41612764,158.36855522,64.65569939,173.23480840,0.85007904
-1.69180293,9.84830137,-0.44400127,0.41369388,-0.51135819

>  <Name>
ligand

>  <RI>
0

>  <Rbt.Current_Directory>
/home/itssahil/PROJECTS/Mol_Feturizer/New_Systems/rnas/1FUF

>  <Rbt.Executable>
rbdock ($Id: //depot/dev/client3/rdock/2013.1/src/exe/rbdock.cxx#4 $)

>  <Rbt.Library>
libRbt.so (2013.1, Build901 2013/11/27)

>  <Rbt.Parameter_File>
/export/apps/rDock/src/rDock_2013.1_src/data/scripts/dock_solv.prm

>  <Rbt.Receptor>
prm/pocket_docking_5.prm

>  <SCORE>
-3.42788

>  <SCORE.INTER>
-0.118588

>  <SCORE.INTER.CONST>
1

>  <SCORE.INTER.POLAR>
0

>  <SCORE.INTER.ROT>
11

>  <SCORE.INTER.SOLV>
16.9563

>  <SCORE.INTER.VDW>
-16.6645

>  <SCORE.INTER.norm>
-0.0084706

>  <SCORE.INTRA>
-3.30929

>  <SCORE.INTRA.DIHEDRAL>
-7.51763

>  <SCORE.INTRA.DIHEDRAL.0>
10.5765

>  <SCORE.INTRA.POLAR>
0

>  <SCORE.INTRA.POLAR.0>
0

>  <SCORE.INTRA.REPUL>
0

>  <SCORE.INTRA.REPUL.0>
0

>  <SCORE.INTRA.SOLV>
0.354227

>  <SCORE.INTRA.SOLV.lig_0>
-50.1861

>  <SCORE.INTRA.VDW>
0.27241

>  <SCORE.INTRA.VDW.0>
-1.36671

>  <SCORE.INTRA.norm>
-0.236378

>  <SCORE.RESTR>
0

>  <SCORE.RESTR.CAVITY>
0

>  <SCORE.RESTR.norm>
0

>  <SCORE.SYSTEM>
0

>  <SCORE.SYSTEM.CONST>
0

>  <SCORE.SYSTEM.DIHEDRAL>
0

>  <SCORE.SYSTEM.SOLV>
0

>  <SCORE.SYSTEM.norm>
0

>  <SCORE.heavy>
14

>  <SCORE.norm>
-0.244849

>  <RMSD>
1.362

$$$$
ligand
 OpenBabel11021811393D
libRbt.so/2013.1/901 2013/11/27
 14 13  0  0  0  0  0  0  0  0999 V2000
   -6.6179    1.5358   10.1167 N   0  0  0  0  0  0  0  0  0  0  0  0
   -5.1936    2.0191    9.8415 C   0  0  0  0  0  0  0  0  0  0  0  0
   -4.4970    0.8658    9.2159 C   0  0  0  0  0  0  0  0  0  0  0  0
   -3.0310    1.1107    8.8972 C   0  0  0  0  0  0  0  0  0  0  0  0
   -2.2348    1.0593   10.1524 N   0  0  0  0  0  0  0  0  0  0  0  0
   -2.1178   -0.4017   10.6231 C   0  0  0  0  0  0  0  0  0  0  0  0
   -0.6152   -0.4541   11.1809 C   0  0  0  0  0  0  0  0  0  0  0  0
    0.2077   -0.6891   10.1878 C   0  0  0  0  0  0  0  0  0  0  0  0
    1.3323   -1.5012   11.0581 C   0  0  0  0  0  0  0  0  0  0  0  0
    2.3998   -1.6775    9.9264 N   0  0  0  0  0  0  0  0  0  0  0  0
    2.8259   -3.1813    9.6894 C   0  0  0  0  0  0  0  0  0  0  0  0
    3.5611   -3.6622   11.0664 C   0  0  0  0  0  0  0  0  0  0  0  0
    3.8090   -5.1256   10.8418 C   0  0  0  0  0  0  0  0  0  0  0  0
    4.9541   -5.1894    9.8586 N   0  0  0  0  0  0  0  0  0  0  0  0
  1  2  1  0  0  0  0
  2  3  1  0  0  0  0
  3  4  1  0  0  0  0
  4  5  1  0  0  0  0
  5  6  1  0  0  0  0
  6  7  1  0  0  0  0
  7  8  1  0  0  0  0
  8  9  1  0  0  0  0
  9 10  1  0  0  0  0
 10 11  1  0  0  0  0
 11 12  1  0  0  0  0
 12 13  1  0  0  0  0
 13 14  1  0  0  0  0
M  END
>  <CHROM.1>
-177.98191852,75.39284517,73.37822229,142.00792011,-84.86076252,-149.27838351
-174.81255112,-125.04766981,-64.52715711,174.14106658,74.08473963,-0.37267061
-1.09226002,10.18980716,2.57001292,-0.02788367,-0.06896979

>  <Name>
ligand

>  <RI>
0

>  <Rbt.Current_Directory>
/home/itssahil/PROJECTS/Mol_Feturizer/New_Systems/rnas/1FUF

>  <Rbt.Executable>
rbdock ($Id: //depot/dev/client3/rdock/2013.1/src/exe/rbdock.cxx#4 $)

>  <Rbt.Library>
libRbt.so (2013.1, Build901 2013/11/27)

>  <Rbt.Parameter_File>
/export/apps/rDock/src/rDock_2013.1_src/data/scripts/dock_solv.prm

>  <Rbt.Receptor>
prm/pocket_docking_2.prm

>  <SCORE>
2.72495

>  <SCORE.INTER>
1.14652

>  <SCORE.INTER.CONST>
1

>  <SCORE.INTER.POLAR>
0

>  <SCORE.INTER.ROT>
11

>  <SCORE.INTER.SOLV>
17.5694

>  <SCORE.INTER.VDW>
-16.0255

>  <SCORE.INTER.norm>
0.0818946

>  <SCORE.INTRA>
1.48431

>  <SCORE.INTRA.DIHEDRAL>
-1.38209

>  <SCORE.INTRA.DIHEDRAL.0>
10.5765

>  <SCORE.INTRA.POLAR>
0

>  <SCORE.INTRA.POLAR.0>
0

>  <SCORE.INTRA.REPUL>
0

>  <SCORE.INTRA.REPUL.0>
0

>  <SCORE.INTRA.SOLV>
1.24331

>  <SCORE.INTRA.SOLV.lig_0>
-50.1861

>  <SCORE.INTRA.VDW>
1.5537

>  <SCORE.INTRA.VDW.0>
-1.36671

>  <SCORE.INTRA.norm>
0.106022

>  <SCORE.RESTR>
0.094112

>  <SCORE.RESTR.CAVITY>
0.094112

>  <SCORE.RESTR.norm>
0.00672229

>  <SCORE.SYSTEM>
0

>  <SCORE.SYSTEM.CONST>
0

>  <SCORE.SYSTEM.DIHEDRAL>
0

>  <SCORE.SYSTEM.SOLV>
0

>  <SCORE.SYSTEM.norm>
0

>  <SCORE.heavy>
14

>  <SCORE.norm>
0.194639

>  <RMSD>
1.368

$$$$
ligand
 OpenBabel11021811393D
libRbt.so/2013.1/901 2013/11/27
 14 13  0  0  0  0  0  0  0  0999 V2000
   -6.5835    1.7488    9.3821 N   0  0  0  0  0  0  0  0  0  0  0  0
   -5.1276    1.7829    9.8480 C   0  0  0  0  0  0  0  0  0  0  0  0
   -4.3678    1.0093    8.8327 C   0  0  0  0  0  0  0  0  0  0  0  0
   -2.8668    0.9617    9.0683 C   0  0  0  0  0  0  0  0  0  0  0  0
   -2.5826    0.1838   10.3038 N   0  0  0  0  0  0  0  0  0  0  0  0
   -1.1181    0.4075   10.7220 C   0  0  0  0  0  0  0  0  0  0  0  0
   -0.6239   -1.0882   11.0227 C   0  0  0  0  0  0  0  0  0  0  0  0
    0.5445   -1.0475   11.6158 C   0  0  0  0  0  0  0  0  0  0  0  0
    1.4526   -1.0706   10.2533 C   0  0  0  0  0  0  0  0  0  0  0  0
    1.8046   -2.5962   10.2505 N   0  0  0  0  0  0  0  0  0  0  0  0
    2.9787   -2.9748   11.2391 C   0  0  0  0  0  0  0  0  0  0  0  0
    4.0236   -3.8805   10.3697 C   0  0  0  0  0  0  0  0  0  0  0  0
    3.2349   -5.1157   10.0451 C   0  0  0  0  0  0  0  0  0  0  0  0
    4.2095   -6.0408    9.3550 N   0  0  0  0  0  0  0  0  0  0  0  0
  1  2  1  0  0  0  0
  2  3  1  0  0  0  0
  3  4  1  0  0  0  0
  4  5  1  0  0  0  0
  5  6  1  0  0  0  0
  6  7  1  0  0  0  0
  7  8  1  0  0  0  0
  8  9  1  0  0  0  0
  9 10  1  0  0  0  0
 10 11  1  0  0  0  0
 11 12  1  0  0  0  0
 12 13  1  0  0  0  0
 13 14  1  0  0  0  0
M  END
>  <CHROM.1>
177.53022732,66.90581290,-166.92876807,-133.33935827,-169.09845261,-89.34178919
-98.94525532,-79.78867496,-130.73863446,-65.12234581,-174.63745690,-0.35853816
-1.26556472,10.16501621,2.72315547,-0.45822129,0.66267692

>  <Name>
ligand

>  <RI>
0

>  <Rbt.Current_Directory>
/home/itssahil/PROJECTS/Mol_Feturizer/New_Systems/rnas/1FUF

>  <Rbt.Executable>
rbdock ($Id: //depot/dev/client3/rdock/2013.1/src/exe/rbdock.cxx#4 $)

>  <Rbt.Library>
libRbt.so (2013.1, Build901 2013/11/27)

>  <Rbt.Parameter_File>
/export/apps/rDock/src/rDock_2013.1_src/data/scripts/dock_solv.prm

>  <Rbt.Receptor>
prm/pocket_docking_2.prm

>  <SCORE>
1.50476

>  <SCORE.INTER>
-0.864304

>  <SCORE.INTER.CONST>
1

>  <SCORE.INTER.POLAR>
0

>  <SCORE.INTER.ROT>
11

>  <SCORE.INTER.SOLV>
16.0853

>  <SCORE.INTER.VDW>
-16.8713

>  <SCORE.INTER.norm>
-0.061736

>  <SCORE.INTRA>
2.34631

>  <SCORE.INTRA.DIHEDRAL>
-0.173596

>  <SCORE.INTRA.DIHEDRAL.0>
10.5765

>  <SCORE.INTRA.POLAR>
0

>  <SCORE.INTRA.POLAR.0>
0

>  <SCORE.INTRA.REPUL>
0

>  <SCORE.INTRA.REPUL.0>
0

>  <SCORE.INTRA.SOLV>
1.19783

>  <SCORE.INTRA.SOLV.lig_0>
-50.1861

>  <SCORE.INTRA.VDW>
1.83419

>  <SCORE.INTRA.VDW.0>
-1.36671

>  <SCORE.INTRA.norm>
0.167594

>  <SCORE.RESTR>
0.02275

>  <SCORE.RESTR.CAVITY>
0.02275

>  <SCORE.RESTR.norm>
0.001625

>  <SCORE.SYSTEM>
0

>  <SCORE.SYSTEM.CONST>
0

>  <SCORE.SYSTEM.DIHEDRAL>
0

>  <SCORE.SYSTEM.SOLV>
0

>  <SCORE.SYSTEM.norm>
0

>  <SCORE.heavy>
14

>  <SCORE.norm>
0.107483

>  <RMSD>
1.382

$$$$
ligand
 OpenBabel11021811393D
libRbt.so/2013.1/901 2013/11/27
 14 13  0  0  0  0  0  0  0  0999 V2000
    4.9236   -6.1960    9.3793 N   0  0  0  0  0  0  0  0  0  0  0  0
    4.2970   -5.4932   10.5840 C   0  0  0  0  0  0  0  0  0  0  0  0
    3.6369   -4.2801   10.0368 C   0  0  0  0  0  0  0  0  0  0  0  0
    2.8392   -3.4816   11.0550 C   0  0  0  0  0  0  0  0  0  0  0  0
    2.2299   -2.2984   10.3910 N   0  0  0  0  0  0  0  0  0  0  0  0
    1.1490   -1.6987   11.3085 C   0  0  0  0  0  0  0  0  0  0  0  0
    0.2528   -0.8673   10.2705 C   0  0  0  0  0  0  0  0  0  0  0  0
   -0.6678   -0.2041   10.9272 C   0  0  0  0  0  0  0  0  0  0  0  0
   -1.3889    0.4691    9.6201 C   0  0  0  0  0  0  0  0  0  0  0  0
   -2.4150    1.3762   10.3789 N   0  0  0  0  0  0  0  0  0  0  0  0
   -3.8243    0.6927   10.5925 C   0  0  0  0  0  0  0  0  0  0  0  0
   -4.6585    0.9416    9.2104 C   0  0  0  0  0  0  0  0  0  0  0  0
   -4.9333    2.4172    9.2247 C   0  0  0  0  0  0  0  0  0  0  0  0
   -5.6590    2.7000    7.9304 N   0  0  0  0  0  0  0  0  0  0  0  0
  1  2  1  0  0  0  0
  2  3  1  0  0  0  0
  3  4  1  0  0  0  0
  4  5  1  0  0  0  0
  5  6  1  0  0  0  0
  6  7  1  0  0  0  0
  7  8  1  0  0  0  0
  8  9  1  0  0  0  0
  9 10  1  0  0  0  0
 10 11  1  0  0  0  0
 11 12  1  0  0  0  0
 12 13  1  0  0  0  0
 13 14  1  0  0  0  0
M  END
>  <CHROM.1>
175.02540516,179.99262323,165.67433158,-158.95744410,-175.17558258,-178.68150338
-175.04663362,-93.22774487,-83.68892003,-69.63377304,177.80425363,-0.30134249
-1.13733415,10.06517216,0.27823094,0.61779104,-2.18069424

>  <Name>
ligand

>  <RI>
0

>  <Rbt.Current_Directory>
/home/itssahil/PROJECTS/Mol_Feturizer/New_Systems/rnas/1FUF

>  <Rbt.Executable>
rbdock ($Id: //depot/dev/client3/rdock/2013.1/src/exe/rbdock.cxx#4 $)

>  <Rbt.Library>
libRbt.so (2013.1, Build901 2013/11/27)

>  <Rbt.Parameter_File>
/export/apps/rDock/src/rDock_2013.1_src/data/scripts/dock_solv.prm

>  <Rbt.Receptor>
prm/pocket_docking_6.prm

>  <SCORE>
-5.33245

>  <SCORE.INTER>
-1.67966

>  <SCORE.INTER.CONST>
1

>  <SCORE.INTER.POLAR>
0

>  <SCORE.INTER.ROT>
11

>  <SCORE.INTER.SOLV>
15.4374

>  <SCORE.INTER.VDW>
-17.1989

>  <SCORE.INTER.norm>
-0.119976

>  <SCORE.INTRA>
-3.65278

>  <SCORE.INTRA.DIHEDRAL>
-8.33815

>  <SCORE.INTRA.DIHEDRAL.0>
10.5765

>  <SCORE.INTRA.POLAR>
0

>  <SCORE.INTRA.POLAR.0>
0

>  <SCORE.INTRA.REPUL>
0

>  <SCORE.INTRA.REPUL.0>
0

>  <SCORE.INTRA.SOLV>
0.357752

>  <SCORE.INTRA.SOLV.lig_0>
-50.1861

>  <SCORE.INTRA.VDW>
0.337417

>  <SCORE.INTRA.VDW.0>
-1.36671

>  <SCORE.INTRA.norm>
-0.260913

>  <SCORE.RESTR>
0

>  <SCORE.RESTR.CAVITY>
0

>  <SCORE.RESTR.norm>
0

>  <SCORE.SYSTEM>
0

>  <SCORE.SYSTEM.CONST>
0

>  <SCORE.SYSTEM.DIHEDRAL>
0

>  <SCORE.SYSTEM.SOLV>
0

>  <SCORE.SYSTEM.norm>
0

>  <SCORE.heavy>
14

>  <SCORE.norm>
-0.380889

>  <RMSD>
1.382

$$$$
ligand
 OpenBabel11021811393D
libRbt.so/2013.1/901 2013/11/27
 14 13  0  0  0  0  0  0  0  0999 V2000
    4.8024   -6.3783    9.1805 N   0  0  0  0  0  0  0  0  0  0  0  0
    4.4668   -5.5540   10.4238 C   0  0  0  0  0  0  0  0  0  0  0  0
    3.7433   -4.3571    9.9231 C   0  0  0  0  0  0  0  0  0  0  0  0
    3.4192   -3.3232   10.9892 C   0  0  0  0  0  0  0  0  0  0  0  0
    2.5706   -2.2527   10.4010 N   0  0  0  0  0  0  0  0  0  0  0  0
    1.1265   -2.4082   10.9112 C   0  0  0  0  0  0  0  0  0  0  0  0
    0.4800   -0.9932   10.5218 C   0  0  0  0  0  0  0  0  0  0  0  0
   -0.7730   -0.9688   10.9066 C   0  0  0  0  0  0  0  0  0  0  0  0
   -1.1488    0.4815   10.2455 C   0  0  0  0  0  0  0  0  0  0  0  0
   -2.6923    0.4477   10.5061 N   0  0  0  0  0  0  0  0  0  0  0  0
   -3.4488    1.7340    9.9845 C   0  0  0  0  0  0  0  0  0  0  0  0
   -3.6656    1.5086    8.3814 C   0  0  0  0  0  0  0  0  0  0  0  0
   -4.3853    2.7513    7.9442 C   0  0  0  0  0  0  0  0  0  0  0  0
   -5.7813    2.6219    8.5064 N   0  0  0  0  0  0  0  0  0  0  0  0
  1  2  1  0  0  0  0
  2  3  1  0  0  0  0
  3  4  1  0  0  0  0
  4  5  1  0  0  0  0
  5  6  1  0  0  0  0
  6  7  1  0  0  0  0
  7  8  1  0  0  0  0
  8  9  1  0  0  0  0
  9 10  1  0  0  0  0
 10 11  1  0  0  0  0
 11 12  1  0  0  0  0
 12 13  1  0  0  0  0
 13 14  1  0  0  0  0
M  END
>  <CHROM.1>
-174.68958962,-173.80005395,106.53188222,165.16938701,-179.65307727,-174.63560590
172.21197384,-179.92891163,80.90016775,179.91192916,-71.79292679,-0.09181092
-1.19208819,9.91620171,0.13703783,0.68966072,-1.96055213

>  <Name>
ligand

>  <RI>
0

>  <Rbt.Current_Directory>
/home/itssahil/PROJECTS/Mol_Feturizer/New_Systems/rnas/1FUF

>  <Rbt.Executable>
rbdock ($Id: //depot/dev/client3/rdock/2013.1/src/exe/rbdock.cxx#4 $)

>  <Rbt.Library>
libRbt.so (2013.1, Build901 2013/11/27)

>  <Rbt.Parameter_File>
/export/apps/rDock/src/rDock_2013.1_src/data/scripts/dock_solv.prm

>  <Rbt.Receptor>
prm/blind_docking_40.prm

>  <SCORE>
-5.37255

>  <SCORE.INTER>
-2.303

>  <SCORE.INTER.CONST>
1

>  <SCORE.INTER.POLAR>
0

>  <SCORE.INTER.ROT>
11

>  <SCORE.INTER.SOLV>
14.7396

>  <SCORE.INTER.VDW>
-17.3819

>  <SCORE.INTER.norm>
-0.1645

>  <SCORE.INTRA>
-3.06955

>  <SCORE.INTRA.DIHEDRAL>
-7.91624

>  <SCORE.INTRA.DIHEDRAL.0>
10.5765

>  <SCORE.INTRA.POLAR>
0

>  <SCORE.INTRA.POLAR.0>
0

>  <SCORE.INTRA.REPUL>
0

>  <SCORE.INTRA.REPUL.0>
0

>  <SCORE.INTRA.SOLV>
0.784467

>  <SCORE.INTRA.SOLV.lig_0>
-50.1861

>  <SCORE.INTRA.VDW>
0.496332

>  <SCORE.INTRA.VDW.0>
-1.36671

>  <SCORE.INTRA.norm>
-0.219254

>  <SCORE.RESTR>
0

>  <SCORE.RESTR.CAVITY>
0

>  <SCORE.RESTR.norm>
0

>  <SCORE.SYSTEM>
0

>  <SCORE.SYSTEM.CONST>
0

>  <SCORE.SYSTEM.DIHEDRAL>
0

>  <SCORE.SYSTEM.SOLV>
0

>  <SCORE.SYSTEM.norm>
0

>  <SCORE.heavy>
14

>  <SCORE.norm>
-0.383754

>  <RMSD>
1.385

$$$$
ligand
 OpenBabel11021811393D
libRbt.so/2013.1/901 2013/11/27
 14 13  0  0  0  0  0  0  0  0999 V2000
   -6.2848    1.9636    9.3249 N   0  0  0  0  0  0  0  0  0  0  0  0
   -4.8217    2.3781    9.4848 C   0  0  0  0  0  0  0  0  0  0  0  0
   -4.1073    1.1516    9.9226 C   0  0  0  0  0  0  0  0  0  0  0  0
   -2.6150    1.3357   10.1458 C   0  0  0  0  0  0  0  0  0  0  0  0
   -1.9979    0.0251   10.4827 N   0  0  0  0  0  0  0  0  0  0  0  0
   -0.4685    0.1848   10.5554 C   0  0  0  0  0  0  0  0  0  0  0  0
    0.0256   -1.3404   10.5958 C   0  0  0  0  0  0  0  0  0  0  0  0
    1.3359   -1.3708   10.6210 C   0  0  0  0  0  0  0  0  0  0  0  0
    1.4907   -3.0009   10.6037 C   0  0  0  0  0  0  0  0  0  0  0  0
    3.0548   -3.0725   10.6036 N   0  0  0  0  0  0  0  0  0  0  0  0
    3.6609   -3.6310    9.2546 C   0  0  0  0  0  0  0  0  0  0  0  0
    3.7258   -5.2537    9.4292 C   0  0  0  0  0  0  0  0  0  0  0  0
    4.2899   -5.7273    8.1212 C   0  0  0  0  0  0  0  0  0  0  0  0
    4.3504   -7.2324    8.2350 N   0  0  0  0  0  0  0  0  0  0  0  0
  1  2  1  0  0  0  0
  2  3  1  0  0  0  0
  3  4  1  0  0  0  0
  4  5  1  0  0  0  0
  5  6  1  0  0  0  0
  6  7  1  0  0  0  0
  7  8  1  0  0  0  0
  8  9  1  0  0  0  0
  9 10  1  0  0  0  0
 10 11  1  0  0  0  0
 11 12  1  0  0  0  0
 12 13  1  0  0  0  0
 13 14  1  0  0  0  0
M  END
>  <CHROM.1>
179.99970497,-175.92240118,173.81444075,-167.96721435,178.20107092,-178.11707984
178.90155098,-112.06915903,-88.38930691,179.35393306,-179.31237900,0.11719231
-1.68484805,9.81294683,2.56419870,-0.42508151,0.67607420

>  <Name>
ligand

>  <RI>
0

>  <Rbt.Current_Directory>
/home/itssahil/PROJECTS/Mol_Feturizer/New_Systems/rnas/1FUF

>  <Rbt.Executable>
rbdock ($Id: //depot/dev/client3/rdock/2013.1/src/exe/rbdock.cxx#4 $)

>  <Rbt.Library>
libRbt.so (2013.1, Build901 2013/11/27)

>  <Rbt.Parameter_File>
/export/apps/rDock/src/rDock_2013.1_src/data/scripts/dock_solv.prm

>  <Rbt.Receptor>
prm/pocket_docking_5.prm

>  <SCORE>
-6.62781

>  <SCORE.INTER>
-2.32435

>  <SCORE.INTER.CONST>
1

>  <SCORE.INTER.POLAR>
0

>  <SCORE.INTER.ROT>
11

>  <SCORE.INTER.SOLV>
17.4953

>  <SCORE.INTER.VDW>
-18.3147

>  <SCORE.INTER.norm>
-0.166025

>  <SCORE.INTRA>
-4.30346

>  <SCORE.INTRA.DIHEDRAL>
-8.63392

>  <SCORE.INTRA.DIHEDRAL.0>
10.5765

>  <SCORE.INTRA.POLAR>
0

>  <SCORE.INTRA.POLAR.0>
0

>  <SCORE.INTRA.REPUL>
0

>  <SCORE.INTRA.REPUL.0>
0

>  <SCORE.INTRA.SOLV>
-0.148169

>  <SCORE.INTRA.SOLV.lig_0>
-50.1861

>  <SCORE.INTRA.VDW>
0.0875836

>  <SCORE.INTRA.VDW.0>
-1.36671

>  <SCORE.INTRA.norm>
-0.30739

>  <SCORE.RESTR>
0

>  <SCORE.RESTR.CAVITY>
0

>  <SCORE.RESTR.norm>
0

>  <SCORE.SYSTEM>
0

>  <SCORE.SYSTEM.CONST>
0

>  <SCORE.SYSTEM.DIHEDRAL>
0

>  <SCORE.SYSTEM.SOLV>
0

>  <SCORE.SYSTEM.norm>
0

>  <SCORE.heavy>
14

>  <SCORE.norm>
-0.473415

>  <RMSD>
1.390

$$$$
ligand
 OpenBabel11021811393D
libRbt.so/2013.1/901 2013/11/27
 14 13  0  0  0  0  0  0  0  0999 V2000
   -5.8604    1.8377    9.4866 N   0  0  0  0  0  0  0  0  0  0  0  0
   -4.3786    2.2142    9.4642 C   0  0  0  0  0  0  0  0  0  0  0  0
   -3.6650    1.0529   10.0549 C   0  0  0  0  0  0  0  0  0  0  0  0
   -2.1542    1.2070   10.1207 C   0  0  0  0  0  0  0  0  0  0  0  0
   -1.5490   -0.0496   10.6373 N   0  0  0  0  0  0  0  0  0  0  0  0
   -0.0239   -0.0028   10.4335 C   0  0  0  0  0  0  0  0  0  0  0  0
    0.3783   -1.5499   10.5619 C   0  0  0  0  0  0  0  0  0  0  0  0
    1.6781   -1.6711   10.4410 C   0  0  0  0  0  0  0  0  0  0  0  0
    1.7202   -3.3081   10.4510 C   0  0  0  0  0  0  0  0  0  0  0  0
    3.2662   -3.4885   10.2812 N   0  0  0  0  0  0  0  0  0  0  0  0
    3.8513   -4.7140   11.0907 C   0  0  0  0  0  0  0  0  0  0  0  0
    4.9830   -5.3901   10.1264 C   0  0  0  0  0  0  0  0  0  0  0  0
    4.1803   -6.0031    9.0159 C   0  0  0  0  0  0  0  0  0  0  0  0
    5.1791   -6.7619    8.1742 N   0  0  0  0  0  0  0  0  0  0  0  0
  1  2  1  0  0  0  0
  2  3  1  0  0  0  0
  3  4  1  0  0  0  0
  4  5  1  0  0  0  0
  5  6  1  0  0  0  0
  6  7  1  0  0  0  0
  7  8  1  0  0  0  0
  8  9  1  0  0  0  0
  9 10  1  0  0  0  0
 10 11  1  0  0  0  0
 11 12  1  0  0  0  0
 12 13  1  0  0  0  0
 13 14  1  0  0  0  0
M  END
>  <CHROM.1>
179.46337468,-176.00633048,168.46650805,-161.64736819,-178.45041082,-174.22404362
179.03564116,143.70249409,141.10426912,-69.65640723,-174.36871711,0.54334851
-1.90187404,10.02440100,2.63658351,-0.50518685,0.75443038

>  <Name>
ligand

>  <RI>
0

>  <Rbt.Current_Directory>
/home/itssahil/PROJECTS/Mol_Feturizer/New_Systems/rnas/1FUF

>  <Rbt.Executable>
rbdock ($Id: //depot/dev/client3/rdock/2013.1/src/exe/rbdock.cxx#4 $)

>  <Rbt.Library>
libRbt.so (2013.1, Build901 2013/11/27)

>  <Rbt.Parameter_File>
/export/apps/rDock/src/rDock_2013.1_src/data/scripts/dock_solv.prm

>  <Rbt.Receptor>
prm/pocket_docking_5.prm

>  <SCORE>
-6.07726

>  <SCORE.INTER>
-2.38127

>  <SCORE.INTER.CONST>
1

>  <SCORE.INTER.POLAR>
0

>  <SCORE.INTER.ROT>
11

>  <SCORE.INTER.SOLV>
14.5116

>  <SCORE.INTER.VDW>
-17.3581

>  <SCORE.INTER.norm>
-0.17009

>  <SCORE.INTRA>
-3.69599

>  <SCORE.INTRA.DIHEDRAL>
-7.87313

>  <SCORE.INTRA.DIHEDRAL.0>
10.5765

>  <SCORE.INTRA.POLAR>
0

>  <SCORE.INTRA.POLAR.0>
0

>  <SCORE.INTRA.REPUL>
0

>  <SCORE.INTRA.REPUL.0>
0

>  <SCORE.INTRA.SOLV>
0.291883

>  <SCORE.INTRA.SOLV.lig_0>
-50.1861

>  <SCORE.INTRA.VDW>
0.0946289

>  <SCORE.INTRA.VDW.0>
-1.36671

>  <SCORE.INTRA.norm>
-0.263999

>  <SCORE.RESTR>
0

>  <SCORE.RESTR.CAVITY>
0

>  <SCORE.RESTR.norm>
0

>  <SCORE.SYSTEM>
0

>  <SCORE.SYSTEM.CONST>
0

>  <SCORE.SYSTEM.DIHEDRAL>
0

>  <SCORE.SYSTEM.SOLV>
0

>  <SCORE.SYSTEM.norm>
0

>  <SCORE.heavy>
14

>  <SCORE.norm>
-0.43409

>  <RMSD>
1.392

$$$$
ligand
 OpenBabel11021811393D
libRbt.so/2013.1/901 2013/11/27
 14 13  0  0  0  0  0  0  0  0999 V2000
    5.9081   -4.0284   10.2490 N   0  0  0  0  0  0  0  0  0  0  0  0
    4.5167   -3.6116    9.7713 C   0  0  0  0  0  0  0  0  0  0  0  0
    3.6190   -3.8164   10.9370 C   0  0  0  0  0  0  0  0  0  0  0  0
    2.1476   -3.5613   10.6533 C   0  0  0  0  0  0  0  0  0  0  0  0
    1.9611   -2.1469   10.2324 N   0  0  0  0  0  0  0  0  0  0  0  0
    0.9836   -1.4520   11.1975 C   0  0  0  0  0  0  0  0  0  0  0  0
    0.0851   -0.5815   10.1941 C   0  0  0  0  0  0  0  0  0  0  0  0
   -0.9123   -0.0486   10.8573 C   0  0  0  0  0  0  0  0  0  0  0  0
   -1.7239    0.5249    9.5557 C   0  0  0  0  0  0  0  0  0  0  0  0
   -3.0210    0.9949   10.2959 N   0  0  0  0  0  0  0  0  0  0  0  0
   -4.2772    1.1278    9.3454 C   0  0  0  0  0  0  0  0  0  0  0  0
   -4.7877    2.6726    9.4888 C   0  0  0  0  0  0  0  0  0  0  0  0
   -5.9881    2.7328    8.5896 C   0  0  0  0  0  0  0  0  0  0  0  0
   -7.0380    1.8857    9.2694 N   0  0  0  0  0  0  0  0  0  0  0  0
  1  2  1  0  0  0  0
  2  3  1  0  0  0  0
  3  4  1  0  0  0  0
  4  5  1  0  0  0  0
  5  6  1  0  0  0  0
  6  7  1  0  0  0  0
  7  8  1  0  0  0  0
  8  9  1  0  0  0  0
  9 10  1  0  0  0  0
 10 11  1  0  0  0  0
 11 12  1  0  0  0  0
 12 13  1  0  0  0  0
 13 14  1  0  0  0  0
M  END
>  <CHROM.1>
-175.55517945,-60.97080690,-121.35424487,-138.80482208,172.33521379,-171.20564050
172.58306981,-158.60477925,-122.57611889,-179.02653277,69.01893519,-0.60909730
-0.66480110,10.04549058,-0.47768249,0.27713400,-0.68757530

>  <Name>
ligand

>  <RI>
0

>  <Rbt.Current_Directory>
/home/itssahil/PROJECTS/Mol_Feturizer/New_Systems/rnas/1FUF

>  <Rbt.Executable>
rbdock ($Id: //depot/dev/client3/rdock/2013.1/src/exe/rbdock.cxx#4 $)

>  <Rbt.Library>
libRbt.so (2013.1, Build901 2013/11/27)

>  <Rbt.Parameter_File>
/export/apps/rDock/src/rDock_2013.1_src/data/scripts/dock_solv.prm

>  <Rbt.Receptor>
prm/blind_docking_20.prm

>  <SCORE>
-1.92181

>  <SCORE.INTER>
-0.141499

>  <SCORE.INTER.CONST>
1

>  <SCORE.INTER.POLAR>
0

>  <SCORE.INTER.ROT>
11

>  <SCORE.INTER.SOLV>
17.785

>  <SCORE.INTER.VDW>
-16.956

>  <SCORE.INTER.norm>
-0.0101071

>  <SCORE.INTRA>
-1.78031

>  <SCORE.INTRA.DIHEDRAL>
-5.78563

>  <SCORE.INTRA.DIHEDRAL.0>
10.5765

>  <SCORE.INTRA.POLAR>
0

>  <SCORE.INTRA.POLAR.0>
0

>  <SCORE.INTRA.REPUL>
0

>  <SCORE.INTRA.REPUL.0>
0

>  <SCORE.INTRA.SOLV>
1.21357

>  <SCORE.INTRA.SOLV.lig_0>
-50.1861

>  <SCORE.INTRA.VDW>
0.505719

>  <SCORE.INTRA.VDW.0>
-1.36671

>  <SCORE.INTRA.norm>
-0.127165

>  <SCORE.RESTR>
0

>  <SCORE.RESTR.CAVITY>
0

>  <SCORE.RESTR.norm>
0

>  <SCORE.SYSTEM>
0

>  <SCORE.SYSTEM.CONST>
0

>  <SCORE.SYSTEM.DIHEDRAL>
0

>  <SCORE.SYSTEM.SOLV>
0

>  <SCORE.SYSTEM.norm>
0

>  <SCORE.heavy>
14

>  <SCORE.norm>
-0.137272

>  <RMSD>
1.405

$$$$
ligand
 OpenBabel11021811393D
libRbt.so/2013.1/901 2013/11/27
 14 13  0  0  0  0  0  0  0  0999 V2000
    4.5490   -7.0265    9.6293 N   0  0  0  0  0  0  0  0  0  0  0  0
    4.6478   -5.5612   10.0549 C   0  0  0  0  0  0  0  0  0  0  0  0
    3.7121   -4.8258    9.1660 C   0  0  0  0  0  0  0  0  0  0  0  0
    3.7196   -3.3170    9.3512 C   0  0  0  0  0  0  0  0  0  0  0  0
    3.3345   -2.9864   10.7493 N   0  0  0  0  0  0  0  0  0  0  0  0
    1.8103   -3.1340   10.9071 C   0  0  0  0  0  0  0  0  0  0  0  0
    1.3022   -1.6320   10.6669 C   0  0  0  0  0  0  0  0  0  0  0  0
    0.0019   -1.5838   10.8264 C   0  0  0  0  0  0  0  0  0  0  0  0
   -0.1822   -0.0059   10.4289 C   0  0  0  0  0  0  0  0  0  0  0  0
   -1.7331    0.0891   10.6216 N   0  0  0  0  0  0  0  0  0  0  0  0
   -2.3912    1.3043    9.8540 C   0  0  0  0  0  0  0  0  0  0  0  0
   -4.0058    1.1127   10.0098 C   0  0  0  0  0  0  0  0  0  0  0  0
   -4.5750    2.2463    9.2071 C   0  0  0  0  0  0  0  0  0  0  0  0
   -6.0741    2.0827    9.2941 N   0  0  0  0  0  0  0  0  0  0  0  0
  1  2  1  0  0  0  0
  2  3  1  0  0  0  0
  3  4  1  0  0  0  0
  4  5  1  0  0  0  0
  5  6  1  0  0  0  0
  6  7  1  0  0  0  0
  7  8  1  0  0  0  0
  8  9  1  0  0  0  0
  9 10  1  0  0  0  0
 10 11  1  0  0  0  0
 11 12  1  0  0  0  0
 12 13  1  0  0  0  0
 13 14  1  0  0  0  0
M  END
>  <CHROM.1>
-175.96079003,-60.05765202,-77.12061949,-94.99432782,-177.38352647,-176.58490525
-179.55785616,-159.35027272,172.51548168,-177.16566536,178.47894262,0.29412191
-1.65971218,10.05476339,0.58818203,0.36491827,-2.67712788

>  <Name>
ligand

>  <RI>
0

>  <Rbt.Current_Directory>
/home/itssahil/PROJECTS/Mol_Feturizer/New_Systems/rnas/1FUF

>  <Rbt.Executable>
rbdock ($Id: //depot/dev/client3/rdock/2013.1/src/exe/rbdock.cxx#4 $)

>  <Rbt.Library>
libRbt.so (2013.1, Build901 2013/11/27)

>  <Rbt.Parameter_File>
/export/apps/rDock/src/rDock_2013.1_src/data/scripts/dock_solv.prm

>  <Rbt.Receptor>
prm/pocket_docking_4.prm

>  <SCORE>
-4.82689

>  <SCORE.INTER>
-1.32118

>  <SCORE.INTER.CONST>
1

>  <SCORE.INTER.POLAR>
0

>  <SCORE.INTER.ROT>
11

>  <SCORE.INTER.SOLV>
17.4076

>  <SCORE.INTER.VDW>
-17.6167

>  <SCORE.INTER.norm>
-0.0943703

>  <SCORE.INTRA>
-3.5057

>  <SCORE.INTRA.DIHEDRAL>
-9.05667

>  <SCORE.INTRA.DIHEDRAL.0>
10.5765

>  <SCORE.INTRA.POLAR>
0

>  <SCORE.INTRA.POLAR.0>
0

>  <SCORE.INTRA.REPUL>
0

>  <SCORE.INTRA.REPUL.0>
0

>  <SCORE.INTRA.SOLV>
0.229347

>  <SCORE.INTRA.SOLV.lig_0>
-50.1861

>  <SCORE.INTRA.VDW>
0.907958

>  <SCORE.INTRA.VDW.0>
-1.36671

>  <SCORE.INTRA.norm>
-0.250407

>  <SCORE.RESTR>
0

>  <SCORE.RESTR.CAVITY>
0

>  <SCORE.RESTR.norm>
0

>  <SCORE.SYSTEM>
0

>  <SCORE.SYSTEM.CONST>
0

>  <SCORE.SYSTEM.DIHEDRAL>
0

>  <SCORE.SYSTEM.SOLV>
0

>  <SCORE.SYSTEM.norm>
0

>  <SCORE.heavy>
14

>  <SCORE.norm>
-0.344778

>  <RMSD>
1.409

$$$$
ligand
 OpenBabel11021811393D
libRbt.so/2013.1/901 2013/11/27
 14 13  0  0  0  0  0  0  0  0999 V2000
    4.7789   -6.1966    9.4319 N   0  0  0  0  0  0  0  0  0  0  0  0
    4.0298   -5.5911   10.6195 C   0  0  0  0  0  0  0  0  0  0  0  0
    3.6265   -4.2299   10.1822 C   0  0  0  0  0  0  0  0  0  0  0  0
    2.7537   -3.4803   11.1757 C   0  0  0  0  0  0  0  0  0  0  0  0
    2.3147   -2.1915   10.5771 N   0  0  0  0  0  0  0  0  0  0  0  0
    1.1347   -1.6274   11.3891 C   0  0  0  0  0  0  0  0  0  0  0  0
    0.3390   -0.7842   10.2812 C   0  0  0  0  0  0  0  0  0  0  0  0
   -0.7599   -0.3028   10.8098 C   0  0  0  0  0  0  0  0  0  0  0  0
   -1.3041    0.4557    9.4643 C   0  0  0  0  0  0  0  0  0  0  0  0
   -2.5761    1.1223   10.0879 N   0  0  0  0  0  0  0  0  0  0  0  0
   -3.3963    2.0006    9.0608 C   0  0  0  0  0  0  0  0  0  0  0  0
   -4.9096    2.1047    9.6667 C   0  0  0  0  0  0  0  0  0  0  0  0
   -5.6400    2.9350    8.6516 C   0  0  0  0  0  0  0  0  0  0  0  0
   -7.0732    2.9756    9.1271 N   0  0  0  0  0  0  0  0  0  0  0  0
  1  2  1  0  0  0  0
  2  3  1  0  0  0  0
  3  4  1  0  0  0  0
  4  5  1  0  0  0  0
  5  6  1  0  0  0  0
  6  7  1  0  0  0  0
  7  8  1  0  0  0  0
  8  9  1  0  0  0  0
  9 10  1  0  0  0  0
 10 11  1  0  0  0  0
 11 12  1  0  0  0  0
 12 13  1  0  0  0  0
 13 14  1  0  0  0  0
M  END
>  <CHROM.1>
174.94012467,-174.82445699,163.99814641,-151.51853080,175.96862480,-179.61345805
-176.53443660,179.07321912,158.08450754,-179.58332146,176.18994517,-0.47721456
-0.91492669,10.03758461,0.38319963,0.57795440,-2.36812376

>  <Name>
ligand

>  <RI>
0

>  <Rbt.Current_Directory>
/home/itssahil/PROJECTS/Mol_Feturizer/New_Systems/rnas/1FUF

>  <Rbt.Executable>
rbdock ($Id: //depot/dev/client3/rdock/2013.1/src/exe/rbdock.cxx#4 $)

>  <Rbt.Library>
libRbt.so (2013.1, Build901 2013/11/27)

>  <Rbt.Parameter_File>
/export/apps/rDock/src/rDock_2013.1_src/data/scripts/dock_solv.prm

>  <Rbt.Receptor>
prm/pocket_docking_3.prm

>  <SCORE>
-6.41391

>  <SCORE.INTER>
-1.79496

>  <SCORE.INTER.CONST>
1

>  <SCORE.INTER.POLAR>
0

>  <SCORE.INTER.ROT>
11

>  <SCORE.INTER.SOLV>
14.6793

>  <SCORE.INTER.VDW>
-17.0231

>  <SCORE.INTER.norm>
-0.128212

>  <SCORE.INTRA>
-4.61895

>  <SCORE.INTRA.DIHEDRAL>
-9.1117

>  <SCORE.INTRA.DIHEDRAL.0>
10.5765

>  <SCORE.INTRA.POLAR>
0

>  <SCORE.INTRA.POLAR.0>
0

>  <SCORE.INTRA.REPUL>
0

>  <SCORE.INTRA.REPUL.0>
0

>  <SCORE.INTRA.SOLV>
-0.153687

>  <SCORE.INTRA.SOLV.lig_0>
-50.1861

>  <SCORE.INTRA.VDW>
0.0137448

>  <SCORE.INTRA.VDW.0>
-1.36671

>  <SCORE.INTRA.norm>
-0.329925

>  <SCORE.RESTR>
0

>  <SCORE.RESTR.CAVITY>
0

>  <SCORE.RESTR.norm>
0

>  <SCORE.SYSTEM>
0

>  <SCORE.SYSTEM.CONST>
0

>  <SCORE.SYSTEM.DIHEDRAL>
0

>  <SCORE.SYSTEM.SOLV>
0

>  <SCORE.SYSTEM.norm>
0

>  <SCORE.heavy>
14

>  <SCORE.norm>
-0.458137

>  <RMSD>
1.422

$$$$
ligand
 OpenBabel11021811393D
libRbt.so/2013.1/901 2013/11/27
 14 13  0  0  0  0  0  0  0  0999 V2000
   -6.0255    2.5608    8.2976 N   0  0  0  0  0  0  0  0  0  0  0  0
   -5.0794    2.5804    9.4987 C   0  0  0  0  0  0  0  0  0  0  0  0
   -3.9465    1.6948    9.1261 C   0  0  0  0  0  0  0  0  0  0  0  0
   -2.8796    1.5492   10.1989 C   0  0  0  0  0  0  0  0  0  0  0  0
   -1.8068    0.6411    9.7122 N   0  0  0  0  0  0  0  0  0  0  0  0
   -0.8386    0.3298   10.8679 C   0  0  0  0  0  0  0  0  0  0  0  0
   -0.0440   -0.9442   10.3045 C   0  0  0  0  0  0  0  0  0  0  0  0
    0.7769   -1.3853   11.2266 C   0  0  0  0  0  0  0  0  0  0  0  0
    1.2458   -2.7396   10.4344 C   0  0  0  0  0  0  0  0  0  0  0  0
    2.1271   -3.3628   11.5686 N   0  0  0  0  0  0  0  0  0  0  0  0
    2.7893   -4.7413   11.1680 C   0  0  0  0  0  0  0  0  0  0  0  0
    4.3486   -4.4054   10.8166 C   0  0  0  0  0  0  0  0  0  0  0  0
    4.9378   -5.7502   10.5043 C   0  0  0  0  0  0  0  0  0  0  0  0
    4.3052   -6.1687    9.1980 N   0  0  0  0  0  0  0  0  0  0  0  0
  1  2  1  0  0  0  0
  2  3  1  0  0  0  0
  3  4  1  0  0  0  0
  4  5  1  0  0  0  0
  5  6  1  0  0  0  0
  6  7  1  0  0  0  0
  7  8  1  0  0  0  0
  8  9  1  0  0  0  0
  9 10  1  0  0  0  0
 10 11  1  0  0  0  0
 11 12  1  0  0  0  0
 12 13  1  0  0  0  0
 13 14  1  0  0  0  0
M  END
>  <CHROM.1>
-179.14346410,179.84851941,-171.69343331,164.27367582,-176.11185462,172.87038417
-174.92719757,-179.85275674,102.43879675,177.61093274,69.20680842,-0.00625825
-1.43860479,10.20894975,2.82374987,-0.65511412,0.90391865

>  <Name>
ligand

>  <RI>
0

>  <Rbt.Current_Directory>
/home/itssahil/PROJECTS/Mol_Feturizer/New_Systems/rnas/1FUF

>  <Rbt.Executable>
rbdock ($Id: //depot/dev/client3/rdock/2013.1/src/exe/rbdock.cxx#4 $)

>  <Rbt.Library>
libRbt.so (2013.1, Build901 2013/11/27)

>  <Rbt.Parameter_File>
/export/apps/rDock/src/rDock_2013.1_src/data/scripts/dock_solv.prm

>  <Rbt.Receptor>
prm/blind_docking_20.prm

>  <SCORE>
-5.40098

>  <SCORE.INTER>
-1.82086

>  <SCORE.INTER.CONST>
1

>  <SCORE.INTER.POLAR>
0

>  <SCORE.INTER.ROT>
11

>  <SCORE.INTER.SOLV>
15.2444

>  <SCORE.INTER.VDW>
-17.2287

>  <SCORE.INTER.norm>
-0.130061

>  <SCORE.INTRA>
-3.58013

>  <SCORE.INTRA.DIHEDRAL>
-8.66119

>  <SCORE.INTRA.DIHEDRAL.0>
10.5765

>  <SCORE.INTRA.POLAR>
0

>  <SCORE.INTRA.POLAR.0>
0

>  <SCORE.INTRA.REPUL>
0

>  <SCORE.INTRA.REPUL.0>
0

>  <SCORE.INTRA.SOLV>
0.808142

>  <SCORE.INTRA.SOLV.lig_0>
-50.1861

>  <SCORE.INTRA.VDW>
0.346398

>  <SCORE.INTRA.VDW.0>
-1.36671

>  <SCORE.INTRA.norm>
-0.255723

>  <SCORE.RESTR>
0

>  <SCORE.RESTR.CAVITY>
0

>  <SCORE.RESTR.norm>
0

>  <SCORE.SYSTEM>
0

>  <SCORE.SYSTEM.CONST>
0

>  <SCORE.SYSTEM.DIHEDRAL>
0

>  <SCORE.SYSTEM.SOLV>
0

>  <SCORE.SYSTEM.norm>
0

>  <SCORE.heavy>
14

>  <SCORE.norm>
-0.385785

>  <RMSD>
1.431

$$$$
ligand
 OpenBabel11021811393D
libRbt.so/2013.1/901 2013/11/27
 14 13  0  0  0  0  0  0  0  0999 V2000
    3.3191   -6.3081   10.0177 N   0  0  0  0  0  0  0  0  0  0  0  0
    4.1888   -5.3933    9.1547 C   0  0  0  0  0  0  0  0  0  0  0  0
    3.5130   -4.0705    9.1728 C   0  0  0  0  0  0  0  0  0  0  0  0
    3.5104   -3.3812   10.5275 C   0  0  0  0  0  0  0  0  0  0  0  0
    2.7369   -2.1139   10.4383 N   0  0  0  0  0  0  0  0  0  0  0  0
    1.2888   -2.3667   10.8952 C   0  0  0  0  0  0  0  0  0  0  0  0
    0.5862   -0.9616   10.5726 C   0  0  0  0  0  0  0  0  0  0  0  0
   -0.6847   -1.0306   10.8866 C   0  0  0  0  0  0  0  0  0  0  0  0
   -1.0920    0.4691   10.3700 C   0  0  0  0  0  0  0  0  0  0  0  0
   -2.6480    0.3040   10.4230 N   0  0  0  0  0  0  0  0  0  0  0  0
   -3.4356    1.5823    9.9282 C   0  0  0  0  0  0  0  0  0  0  0  0
   -5.0210    1.2149   10.0672 C   0  0  0  0  0  0  0  0  0  0  0  0
   -5.7139    2.4913    9.6878 C   0  0  0  0  0  0  0  0  0  0  0  0
   -5.5272    2.6173    8.1941 N   0  0  0  0  0  0  0  0  0  0  0  0
  1  2  1  0  0  0  0
  2  3  1  0  0  0  0
  3  4  1  0  0  0  0
  4  5  1  0  0  0  0
  5  6  1  0  0  0  0
  6  7  1  0  0  0  0
  7  8  1  0  0  0  0
  8  9  1  0  0  0  0
  9 10  1  0  0  0  0
 10 11  1  0  0  0  0
 11 12  1  0  0  0  0
 12 13  1  0  0  0  0
 13 14  1  0  0  0  0
M  END
>  <CHROM.1>
66.91759260,-176.51575572,95.22825530,-173.76383196,178.62034654,-176.93561930
167.69587017,-178.00487279,-179.70315990,175.79811810,72.31085123,-0.35559640
-1.21043787,10.02409283,0.51528233,0.43468040,-2.55335354

>  <Name>
ligand

>  <RI>
0

>  <Rbt.Current_Directory>
/home/itssahil/PROJECTS/Mol_Feturizer/New_Systems/rnas/1FUF

>  <Rbt.Executable>
rbdock ($Id: //depot/dev/client3/rdock/2013.1/src/exe/rbdock.cxx#4 $)

>  <Rbt.Library>
libRbt.so (2013.1, Build901 2013/11/27)

>  <Rbt.Parameter_File>
/export/apps/rDock/src/rDock_2013.1_src/data/scripts/dock_solv.prm

>  <Rbt.Receptor>
prm/blind_docking_100.prm

>  <SCORE>
-4.75553

>  <SCORE.INTER>
-2.02597

>  <SCORE.INTER.CONST>
1

>  <SCORE.INTER.POLAR>
0

>  <SCORE.INTER.ROT>
11

>  <SCORE.INTER.SOLV>
16.6612

>  <SCORE.INTER.VDW>
-17.8377

>  <SCORE.INTER.norm>
-0.144712

>  <SCORE.INTRA>
-2.72956

>  <SCORE.INTRA.DIHEDRAL>
-8.33427

>  <SCORE.INTRA.DIHEDRAL.0>
10.5765

>  <SCORE.INTRA.POLAR>
0

>  <SCORE.INTRA.POLAR.0>
0

>  <SCORE.INTRA.REPUL>
0

>  <SCORE.INTRA.REPUL.0>
0

>  <SCORE.INTRA.SOLV>
1.75219

>  <SCORE.INTRA.SOLV.lig_0>
-50.1861

>  <SCORE.INTRA.VDW>
0.561476

>  <SCORE.INTRA.VDW.0>
-1.36671

>  <SCORE.INTRA.norm>
-0.194969

>  <SCORE.RESTR>
0

>  <SCORE.RESTR.CAVITY>
0

>  <SCORE.RESTR.norm>
0

>  <SCORE.SYSTEM>
0

>  <SCORE.SYSTEM.CONST>
0

>  <SCORE.SYSTEM.DIHEDRAL>
0

>  <SCORE.SYSTEM.SOLV>
0

>  <SCORE.SYSTEM.norm>
0

>  <SCORE.heavy>
14

>  <SCORE.norm>
-0.339681

>  <RMSD>
1.435

$$$$
ligand
 OpenBabel11021811393D
libRbt.so/2013.1/901 2013/11/27
 14 13  0  0  0  0  0  0  0  0999 V2000
   -4.5124    1.6006    8.5062 N   0  0  0  0  0  0  0  0  0  0  0  0
   -4.2537    0.2832    9.2381 C   0  0  0  0  0  0  0  0  0  0  0  0
   -3.7989    0.6679   10.5989 C   0  0  0  0  0  0  0  0  0  0  0  0
   -2.3715    1.1864   10.6646 C   0  0  0  0  0  0  0  0  0  0  0  0
   -1.4233    0.0462   10.5497 N   0  0  0  0  0  0  0  0  0  0  0  0
   -0.0470    0.4704   11.0934 C   0  0  0  0  0  0  0  0  0  0  0  0
    0.5853   -0.9353   11.5364 C   0  0  0  0  0  0  0  0  0  0  0  0
    1.0268   -1.5654   10.4750 C   0  0  0  0  0  0  0  0  0  0  0  0
    2.0120   -2.6073   11.2659 C   0  0  0  0  0  0  0  0  0  0  0  0
    2.5223   -3.4122   10.0237 N   0  0  0  0  0  0  0  0  0  0  0  0
    3.8001   -4.2932   10.3239 C   0  0  0  0  0  0  0  0  0  0  0  0
    3.9041   -5.3665    9.0971 C   0  0  0  0  0  0  0  0  0  0  0  0
    5.1681   -6.1200    9.3933 C   0  0  0  0  0  0  0  0  0  0  0  0
    6.2893   -5.1906    8.9923 N   0  0  0  0  0  0  0  0  0  0  0  0
  1  2  1  0  0  0  0
  2  3  1  0  0  0  0
  3  4  1  0  0  0  0
  4  5  1  0  0  0  0
  5  6  1  0  0  0  0
  6  7  1  0  0  0  0
  7  8  1  0  0  0  0
  8  9  1  0  0  0  0
  9 10  1  0  0  0  0
 10 11  1  0  0  0  0
 11 12  1  0  0  0  0
 12 13  1  0  0  0  0
 13 14  1  0  0  0  0
M  END
>  <CHROM.1>
-75.10459145,-75.63509935,-160.45817755,154.49161018,78.36091019,161.61647082
178.19040891,164.95977058,163.38487711,176.99736078,-76.44663104,0.63575770
-1.80259460,10.12585150,2.71948645,-0.49607797,0.87333244

>  <Name>
ligand

>  <RI>
0

>  <Rbt.Current_Directory>
/home/itssahil/PROJECTS/Mol_Feturizer/New_Systems/rnas/1FUF

>  <Rbt.Executable>
rbdock ($Id: //depot/dev/client3/rdock/2013.1/src/exe/rbdock.cxx#4 $)

>  <Rbt.Library>
libRbt.so (2013.1, Build901 2013/11/27)

>  <Rbt.Parameter_File>
/export/apps/rDock/src/rDock_2013.1_src/data/scripts/dock_solv.prm

>  <Rbt.Receptor>
prm/pocket_docking_2.prm

>  <SCORE>
-0.484273

>  <SCORE.INTER>
0.0141513

>  <SCORE.INTER.CONST>
1

>  <SCORE.INTER.POLAR>
0

>  <SCORE.INTER.ROT>
11

>  <SCORE.INTER.SOLV>
16.5778

>  <SCORE.INTER.VDW>
-16.4498

>  <SCORE.INTER.norm>
0.00101081

>  <SCORE.INTRA>
-0.498424

>  <SCORE.INTRA.DIHEDRAL>
-4.24576

>  <SCORE.INTRA.DIHEDRAL.0>
10.5765

>  <SCORE.INTRA.POLAR>
0

>  <SCORE.INTRA.POLAR.0>
0

>  <SCORE.INTRA.REPUL>
0

>  <SCORE.INTRA.REPUL.0>
0

>  <SCORE.INTRA.SOLV>
2.33642

>  <SCORE.INTRA.SOLV.lig_0>
-50.1861

>  <SCORE.INTRA.VDW>
0.456243

>  <SCORE.INTRA.VDW.0>
-1.36671

>  <SCORE.INTRA.norm>
-0.0356017

>  <SCORE.RESTR>
0

>  <SCORE.RESTR.CAVITY>
0

>  <SCORE.RESTR.norm>
0

>  <SCORE.SYSTEM>
0

>  <SCORE.SYSTEM.CONST>
0

>  <SCORE.SYSTEM.DIHEDRAL>
0

>  <SCORE.SYSTEM.SOLV>
0

>  <SCORE.SYSTEM.norm>
0

>  <SCORE.heavy>
14

>  <SCORE.norm>
-0.0345909

>  <RMSD>
1.436

$$$$
ligand
 OpenBabel11021811393D
libRbt.so/2013.1/901 2013/11/27
 14 13  0  0  0  0  0  0  0  0999 V2000
   -6.1682    1.9686    9.3645 N   0  0  0  0  0  0  0  0  0  0  0  0
   -4.6799    2.3173    9.4022 C   0  0  0  0  0  0  0  0  0  0  0  0
   -4.0112    1.1380   10.0096 C   0  0  0  0  0  0  0  0  0  0  0  0
   -2.5022    1.2657   10.1404 C   0  0  0  0  0  0  0  0  0  0  0  0
   -1.9321   -0.0299   10.5973 N   0  0  0  0  0  0  0  0  0  0  0  0
   -0.3994    0.0881   10.6806 C   0  0  0  0  0  0  0  0  0  0  0  0
    0.0578   -1.4480   10.6253 C   0  0  0  0  0  0  0  0  0  0  0  0
    1.3672   -1.5109   10.6344 C   0  0  0  0  0  0  0  0  0  0  0  0
    1.4824   -3.1388   10.4993 C   0  0  0  0  0  0  0  0  0  0  0  0
    3.0433   -3.2435   10.4365 N   0  0  0  0  0  0  0  0  0  0  0  0
    3.5654   -4.2257    9.3132 C   0  0  0  0  0  0  0  0  0  0  0  0
    3.3133   -5.7353    9.8837 C   0  0  0  0  0  0  0  0  0  0  0  0
    3.7446   -6.6182    8.7490 C   0  0  0  0  0  0  0  0  0  0  0  0
    5.2519   -6.5224    8.7203 N   0  0  0  0  0  0  0  0  0  0  0  0
  1  2  1  0  0  0  0
  2  3  1  0  0  0  0
  3  4  1  0  0  0  0
  4  5  1  0  0  0  0
  5  6  1  0  0  0  0
  6  7  1  0  0  0  0
  7  8  1  0  0  0  0
  8  9  1  0  0  0  0
  9 10  1  0  0  0  0
 10 11  1  0  0  0  0
 11 12  1  0  0  0  0
 12 13  1  0  0  0  0
 13 14  1  0  0  0  0
M  END
>  <CHROM.1>
179.72802382,-172.93416731,178.00895295,-159.43138235,177.51943303,-177.42174852
177.37645984,-135.15444652,-75.82308529,176.59691870,72.53842374,0.15240314
-1.83530207,9.93267540,2.52616787,-0.39817184,0.56758780

>  <Name>
ligand

>  <RI>
0

>  <Rbt.Current_Directory>
/home/itssahil/PROJECTS/Mol_Feturizer/New_Systems/rnas/1FUF

>  <Rbt.Executable>
rbdock ($Id: //depot/dev/client3/rdock/2013.1/src/exe/rbdock.cxx#4 $)

>  <Rbt.Library>
libRbt.so (2013.1, Build901 2013/11/27)

>  <Rbt.Parameter_File>
/export/apps/rDock/src/rDock_2013.1_src/data/scripts/dock_solv.prm

>  <Rbt.Receptor>
prm/pocket_docking_3.prm

>  <SCORE>
-6.04672

>  <SCORE.INTER>
-2.82924

>  <SCORE.INTER.CONST>
1

>  <SCORE.INTER.POLAR>
0

>  <SCORE.INTER.ROT>
11

>  <SCORE.INTER.SOLV>
14.5636

>  <SCORE.INTER.VDW>
-17.674

>  <SCORE.INTER.norm>
-0.202089

>  <SCORE.INTRA>
-3.21748

>  <SCORE.INTRA.DIHEDRAL>
-8.16084

>  <SCORE.INTRA.DIHEDRAL.0>
10.5765

>  <SCORE.INTRA.POLAR>
0

>  <SCORE.INTRA.POLAR.0>
0

>  <SCORE.INTRA.REPUL>
0

>  <SCORE.INTRA.REPUL.0>
0

>  <SCORE.INTRA.SOLV>
0.732547

>  <SCORE.INTRA.SOLV.lig_0>
-50.1861

>  <SCORE.INTRA.VDW>
0.496671

>  <SCORE.INTRA.VDW.0>
-1.36671

>  <SCORE.INTRA.norm>
-0.22982

>  <SCORE.RESTR>
0

>  <SCORE.RESTR.CAVITY>
0

>  <SCORE.RESTR.norm>
0

>  <SCORE.SYSTEM>
0

>  <SCORE.SYSTEM.CONST>
0

>  <SCORE.SYSTEM.DIHEDRAL>
0

>  <SCORE.SYSTEM.SOLV>
0

>  <SCORE.SYSTEM.norm>
0

>  <SCORE.heavy>
14

>  <SCORE.norm>
-0.431909

>  <RMSD>
1.436

$$$$
ligand
 OpenBabel11021811393D
libRbt.so/2013.1/901 2013/11/27
 14 13  0  0  0  0  0  0  0  0999 V2000
    4.9316   -6.2689    8.6465 N   0  0  0  0  0  0  0  0  0  0  0  0
    5.4542   -4.8349    8.7387 C   0  0  0  0  0  0  0  0  0  0  0  0
    5.5618   -4.5443   10.1915 C   0  0  0  0  0  0  0  0  0  0  0  0
    4.2291   -4.4398   10.9150 C   0  0  0  0  0  0  0  0  0  0  0  0
    3.5070   -3.2246   10.4525 N   0  0  0  0  0  0  0  0  0  0  0  0
    2.0842   -3.2217   11.0403 C   0  0  0  0  0  0  0  0  0  0  0  0
    1.5035   -1.8263   10.5040 C   0  0  0  0  0  0  0  0  0  0  0  0
    0.2367   -1.7312   10.8277 C   0  0  0  0  0  0  0  0  0  0  0  0
   -0.0234   -0.2607   10.1557 C   0  0  0  0  0  0  0  0  0  0  0  0
   -1.5357   -0.1119   10.5329 N   0  0  0  0  0  0  0  0  0  0  0  0
   -2.2237    1.1593    9.8927 C   0  0  0  0  0  0  0  0  0  0  0  0
   -3.8277    0.9742   10.1397 C   0  0  0  0  0  0  0  0  0  0  0  0
   -4.4215    2.2221    9.5537 C   0  0  0  0  0  0  0  0  0  0  0  0
   -4.2537    2.0795    8.0593 N   0  0  0  0  0  0  0  0  0  0  0  0
  1  2  1  0  0  0  0
  2  3  1  0  0  0  0
  3  4  1  0  0  0  0
  4  5  1  0  0  0  0
  5  6  1  0  0  0  0
  6  7  1  0  0  0  0
  7  8  1  0  0  0  0
  8  9  1  0  0  0  0
  9 10  1  0  0  0  0
 10 11  1  0  0  0  0
 11 12  1  0  0  0  0
 12 13  1  0  0  0  0
 13 14  1  0  0  0  0
M  END
>  <CHROM.1>
-68.76666160,-68.21836893,172.41027709,177.14407014,174.35710163,-179.89229666
-179.72520359,-173.24909620,168.67967244,178.29383489,70.69122595,0.80165673
-1.71630233,9.97524477,0.05201209,0.64704716,-1.69732277

>  <Name>
ligand

>  <RI>
0

>  <Rbt.Current_Directory>
/home/itssahil/PROJECTS/Mol_Feturizer/New_Systems/rnas/1FUF

>  <Rbt.Executable>
rbdock ($Id: //depot/dev/client3/rdock/2013.1/src/exe/rbdock.cxx#4 $)

>  <Rbt.Library>
libRbt.so (2013.1, Build901 2013/11/27)

>  <Rbt.Parameter_File>
/export/apps/rDock/src/rDock_2013.1_src/data/scripts/dock_solv.prm

>  <Rbt.Receptor>
prm/blind_docking_20.prm

>  <SCORE>
-4.5634

>  <SCORE.INTER>
-1.58604

>  <SCORE.INTER.CONST>
1

>  <SCORE.INTER.POLAR>
0

>  <SCORE.INTER.ROT>
11

>  <SCORE.INTER.SOLV>
15.181

>  <SCORE.INTER.VDW>
-17.051

>  <SCORE.INTER.norm>
-0.113288

>  <SCORE.INTRA>
-2.97736

>  <SCORE.INTRA.DIHEDRAL>
-9.29405

>  <SCORE.INTRA.DIHEDRAL.0>
10.5765

>  <SCORE.INTRA.POLAR>
0

>  <SCORE.INTRA.POLAR.0>
0

>  <SCORE.INTRA.REPUL>
0

>  <SCORE.INTRA.REPUL.0>
0

>  <SCORE.INTRA.SOLV>
2.39616

>  <SCORE.INTRA.SOLV.lig_0>
-50.1861

>  <SCORE.INTRA.VDW>
0.471584

>  <SCORE.INTRA.VDW.0>
-1.36671

>  <SCORE.INTRA.norm>
-0.212669

>  <SCORE.RESTR>
0

>  <SCORE.RESTR.CAVITY>
0

>  <SCORE.RESTR.norm>
0

>  <SCORE.SYSTEM>
0

>  <SCORE.SYSTEM.CONST>
0

>  <SCORE.SYSTEM.DIHEDRAL>
0

>  <SCORE.SYSTEM.SOLV>
0

>  <SCORE.SYSTEM.norm>
0

>  <SCORE.heavy>
14

>  <SCORE.norm>
-0.325957

>  <RMSD>
1.442

$$$$
ligand
 OpenBabel11021811393D
libRbt.so/2013.1/901 2013/11/27
 14 13  0  0  0  0  0  0  0  0999 V2000
    5.0727   -6.6609    8.3912 N   0  0  0  0  0  0  0  0  0  0  0  0
    4.4042   -6.2625    9.7074 C   0  0  0  0  0  0  0  0  0  0  0  0
    3.8590   -4.8997    9.4791 C   0  0  0  0  0  0  0  0  0  0  0  0
    3.1673   -4.2860   10.6855 C   0  0  0  0  0  0  0  0  0  0  0  0
    2.5770   -2.9747   10.3056 N   0  0  0  0  0  0  0  0  0  0  0  0
    1.8151   -2.3903   11.5089 C   0  0  0  0  0  0  0  0  0  0  0  0
    0.9722   -1.2076   10.8287 C   0  0  0  0  0  0  0  0  0  0  0  0
    0.1686   -0.6802   11.7201 C   0  0  0  0  0  0  0  0  0  0  0  0
   -0.2690    0.6264   10.8352 C   0  0  0  0  0  0  0  0  0  0  0  0
   -1.3935   -0.0527    9.9833 N   0  0  0  0  0  0  0  0  0  0  0  0
   -2.8484    0.4507   10.3425 C   0  0  0  0  0  0  0  0  0  0  0  0
   -3.3595    1.3075    9.0492 C   0  0  0  0  0  0  0  0  0  0  0  0
   -4.6990    1.8307    9.4792 C   0  0  0  0  0  0  0  0  0  0  0  0
   -5.2369    2.5799    8.2829 N   0  0  0  0  0  0  0  0  0  0  0  0
  1  2  1  0  0  0  0
  2  3  1  0  0  0  0
  3  4  1  0  0  0  0
  4  5  1  0  0  0  0
  5  6  1  0  0  0  0
  6  7  1  0  0  0  0
  7  8  1  0  0  0  0
  8  9  1  0  0  0  0
  9 10  1  0  0  0  0
 10 11  1  0  0  0  0
 11 12  1  0  0  0  0
 12 13  1  0  0  0  0
 13 14  1  0  0  0  0
M  END
>  <CHROM.1>
-178.71924683,-175.72499809,177.07732891,-166.69469867,174.42025517,168.74043525
82.95117355,110.72992673,111.16278162,-176.49180165,-177.47822730,0.30214962
-1.61561222,10.04310440,0.35792979,0.64178910,-2.16647176

>  <Name>
ligand

>  <RI>
0

>  <Rbt.Current_Directory>
/home/itssahil/PROJECTS/Mol_Feturizer/New_Systems/rnas/1FUF

>  <Rbt.Executable>
rbdock ($Id: //depot/dev/client3/rdock/2013.1/src/exe/rbdock.cxx#4 $)

>  <Rbt.Library>
libRbt.so (2013.1, Build901 2013/11/27)

>  <Rbt.Parameter_File>
/export/apps/rDock/src/rDock_2013.1_src/data/scripts/dock_solv.prm

>  <Rbt.Receptor>
prm/pocket_docking_6.prm

>  <SCORE>
-2.54904

>  <SCORE.INTER>
-0.61133

>  <SCORE.INTER.CONST>
1

>  <SCORE.INTER.POLAR>
0

>  <SCORE.INTER.ROT>
11

>  <SCORE.INTER.SOLV>
15.5809

>  <SCORE.INTER.VDW>
-16.5345

>  <SCORE.INTER.norm>
-0.0436664

>  <SCORE.INTRA>
-1.93771

>  <SCORE.INTRA.DIHEDRAL>
-5.6187

>  <SCORE.INTRA.DIHEDRAL.0>
10.5765

>  <SCORE.INTRA.POLAR>
0

>  <SCORE.INTRA.POLAR.0>
0

>  <SCORE.INTRA.REPUL>
0

>  <SCORE.INTRA.REPUL.0>
0

>  <SCORE.INTRA.SOLV>
0.313322

>  <SCORE.INTRA.SOLV.lig_0>
-50.1861

>  <SCORE.INTRA.VDW>
0.714979

>  <SCORE.INTRA.VDW.0>
-1.36671

>  <SCORE.INTRA.norm>
-0.138408

>  <SCORE.RESTR>
0

>  <SCORE.RESTR.CAVITY>
0

>  <SCORE.RESTR.norm>
0

>  <SCORE.SYSTEM>
0

>  <SCORE.SYSTEM.CONST>
0

>  <SCORE.SYSTEM.DIHEDRAL>
0

>  <SCORE.SYSTEM.SOLV>
0

>  <SCORE.SYSTEM.norm>
0

>  <SCORE.heavy>
14

>  <SCORE.norm>
-0.182074

>  <RMSD>
1.451

$$$$
ligand
 OpenBabel11021811393D
libRbt.so/2013.1/901 2013/11/27
 14 13  0  0  0  0  0  0  0  0999 V2000
    4.9352   -6.6132    8.7861 N   0  0  0  0  0  0  0  0  0  0  0  0
    3.9723   -5.4499    9.0260 C   0  0  0  0  0  0  0  0  0  0  0  0
    4.8227   -4.3156    9.4695 C   0  0  0  0  0  0  0  0  0  0  0  0
    4.0588   -3.0411    9.7899 C   0  0  0  0  0  0  0  0  0  0  0  0
    3.2234   -3.2543   11.0019 N   0  0  0  0  0  0  0  0  0  0  0  0
    1.7368   -3.2605   10.6023 C   0  0  0  0  0  0  0  0  0  0  0  0
    1.3023   -1.7470   10.9069 C   0  0  0  0  0  0  0  0  0  0  0  0
    0.0418   -1.5852   10.5855 C   0  0  0  0  0  0  0  0  0  0  0  0
   -0.0568   -0.0005   10.9864 C   0  0  0  0  0  0  0  0  0  0  0  0
   -1.5800    0.2064   10.6890 N   0  0  0  0  0  0  0  0  0  0  0  0
   -1.8744    0.6985    9.2158 C   0  0  0  0  0  0  0  0  0  0  0  0
   -3.4956    0.6220    9.0321 C   0  0  0  0  0  0  0  0  0  0  0  0
   -3.9996    1.7649    9.8645 C   0  0  0  0  0  0  0  0  0  0  0  0
   -5.4986    1.7634    9.6772 N   0  0  0  0  0  0  0  0  0  0  0  0
  1  2  1  0  0  0  0
  2  3  1  0  0  0  0
  3  4  1  0  0  0  0
  4  5  1  0  0  0  0
  5  6  1  0  0  0  0
  6  7  1  0  0  0  0
  7  8  1  0  0  0  0
  8  9  1  0  0  0  0
  9 10  1  0  0  0  0
 10 11  1  0  0  0  0
 11 12  1  0  0  0  0
 12 13  1  0  0  0  0
 13 14  1  0  0  0  0
M  END
>  <CHROM.1>
-179.07744901,67.62661990,-110.85870879,-96.37822319,178.74419886,-179.28678724
-176.97698696,-91.79275981,171.14829441,72.43781466,177.80846167,0.54213137
-1.72933872,9.97376356,0.46632021,0.47468879,-2.36960190

>  <Name>
ligand

>  <RI>
0

>  <Rbt.Current_Directory>
/home/itssahil/PROJECTS/Mol_Feturizer/New_Systems/rnas/1FUF

>  <Rbt.Executable>
rbdock ($Id: //depot/dev/client3/rdock/2013.1/src/exe/rbdock.cxx#4 $)

>  <Rbt.Library>
libRbt.so (2013.1, Build901 2013/11/27)

>  <Rbt.Parameter_File>
/export/apps/rDock/src/rDock_2013.1_src/data/scripts/dock_solv.prm

>  <Rbt.Receptor>
prm/pocket_docking_3.prm

>  <SCORE>
-4.64734

>  <SCORE.INTER>
-1.86887

>  <SCORE.INTER.CONST>
1

>  <SCORE.INTER.POLAR>
0

>  <SCORE.INTER.ROT>
11

>  <SCORE.INTER.SOLV>
15.9539

>  <SCORE.INTER.VDW>
-17.4972

>  <SCORE.INTER.norm>
-0.13349

>  <SCORE.INTRA>
-2.77847

>  <SCORE.INTRA.DIHEDRAL>
-7.08168

>  <SCORE.INTRA.DIHEDRAL.0>
10.5765

>  <SCORE.INTRA.POLAR>
0

>  <SCORE.INTRA.POLAR.0>
0

>  <SCORE.INTRA.REPUL>
0

>  <SCORE.INTRA.REPUL.0>
0

>  <SCORE.INTRA.SOLV>
0.620855

>  <SCORE.INTRA.SOLV.lig_0>
-50.1861

>  <SCORE.INTRA.VDW>
0.451942

>  <SCORE.INTRA.VDW.0>
-1.36671

>  <SCORE.INTRA.norm>
-0.198462

>  <SCORE.RESTR>
0

>  <SCORE.RESTR.CAVITY>
0

>  <SCORE.RESTR.norm>
0

>  <SCORE.SYSTEM>
0

>  <SCORE.SYSTEM.CONST>
0

>  <SCORE.SYSTEM.DIHEDRAL>
0

>  <SCORE.SYSTEM.SOLV>
0

>  <SCORE.SYSTEM.norm>
0

>  <SCORE.heavy>
14

>  <SCORE.norm>
-0.331953

>  <RMSD>
1.461

$$$$
ligand
 OpenBabel11021811393D
libRbt.so/2013.1/901 2013/11/27
 14 13  0  0  0  0  0  0  0  0999 V2000
   -5.9895    1.9733    9.3775 N   0  0  0  0  0  0  0  0  0  0  0  0
   -4.4951    2.2856    9.2923 C   0  0  0  0  0  0  0  0  0  0  0  0
   -3.8161    1.1752   10.0083 C   0  0  0  0  0  0  0  0  0  0  0  0
   -2.2978    1.2454    9.9875 C   0  0  0  0  0  0  0  0  0  0  0  0
   -1.7357    0.0348   10.6438 N   0  0  0  0  0  0  0  0  0  0  0  0
   -0.2154   -0.0146   10.4070 C   0  0  0  0  0  0  0  0  0  0  0  0
    0.1141   -1.5616   10.6716 C   0  0  0  0  0  0  0  0  0  0  0  0
    1.3841   -1.7812   10.4315 C   0  0  0  0  0  0  0  0  0  0  0  0
    1.3327   -3.4094   10.5996 C   0  0  0  0  0  0  0  0  0  0  0  0
    2.8181   -3.7166   10.2115 N   0  0  0  0  0  0  0  0  0  0  0  0
    3.1483   -5.2615   10.1521 C   0  0  0  0  0  0  0  0  0  0  0  0
    4.3643   -5.4198    9.0733 C   0  0  0  0  0  0  0  0  0  0  0  0
    4.5549   -6.9053    8.9714 C   0  0  0  0  0  0  0  0  0  0  0  0
    5.7494   -7.0926    8.0660 N   0  0  0  0  0  0  0  0  0  0  0  0
  1  2  1  0  0  0  0
  2  3  1  0  0  0  0
  3  4  1  0  0  0  0
  4  5  1  0  0  0  0
  5  6  1  0  0  0  0
  6  7  1  0  0  0  0
  7  8  1  0  0  0  0
  8  9  1  0  0  0  0
  9 10  1  0  0  0  0
 10 11  1  0  0  0  0
 11 12  1  0  0  0  0
 12 13  1  0  0  0  0
 13 14  1  0  0  0  0
M  END
>  <CHROM.1>
177.05243993,-175.80321924,170.21120202,-159.89673543,176.46044875,-173.23893137
175.95784930,-175.73003771,152.13313818,-175.37440229,-175.51470204,0.35121391
-2.03194614,9.84963726,2.60312205,-0.52827258,0.78519313

>  <Name>
ligand

>  <RI>
0

>  <Rbt.Current_Directory>
/home/itssahil/PROJECTS/Mol_Feturizer/New_Systems/rnas/1FUF

>  <Rbt.Executable>
rbdock ($Id: //depot/dev/client3/rdock/2013.1/src/exe/rbdock.cxx#4 $)

>  <Rbt.Library>
libRbt.so (2013.1, Build901 2013/11/27)

>  <Rbt.Parameter_File>
/export/apps/rDock/src/rDock_2013.1_src/data/scripts/dock_solv.prm

>  <Rbt.Receptor>
prm/blind_docking_20.prm

>  <SCORE>
-6.30368

>  <SCORE.INTER>
-1.69444

>  <SCORE.INTER.CONST>
1

>  <SCORE.INTER.POLAR>
0

>  <SCORE.INTER.ROT>
11

>  <SCORE.INTER.SOLV>
14.6578

>  <SCORE.INTER.VDW>
-16.9489

>  <SCORE.INTER.norm>
-0.121031

>  <SCORE.INTRA>
-4.60925

>  <SCORE.INTRA.DIHEDRAL>
-9.09441

>  <SCORE.INTRA.DIHEDRAL.0>
10.5765

>  <SCORE.INTRA.POLAR>
0

>  <SCORE.INTRA.POLAR.0>
0

>  <SCORE.INTRA.REPUL>
0

>  <SCORE.INTRA.REPUL.0>
0

>  <SCORE.INTRA.SOLV>
-0.151649

>  <SCORE.INTRA.SOLV.lig_0>
-50.1861

>  <SCORE.INTRA.VDW>
0.0137812

>  <SCORE.INTRA.VDW.0>
-1.36671

>  <SCORE.INTRA.norm>
-0.329232

>  <SCORE.RESTR>
0

>  <SCORE.RESTR.CAVITY>
0

>  <SCORE.RESTR.norm>
0

>  <SCORE.SYSTEM>
0

>  <SCORE.SYSTEM.CONST>
0

>  <SCORE.SYSTEM.DIHEDRAL>
0

>  <SCORE.SYSTEM.SOLV>
0

>  <SCORE.SYSTEM.norm>
0

>  <SCORE.heavy>
14

>  <SCORE.norm>
-0.450263

>  <RMSD>
1.470

$$$$
ligand
 OpenBabel11021811393D
libRbt.so/2013.1/901 2013/11/27
 14 13  0  0  0  0  0  0  0  0999 V2000
   -4.6004    1.5149    8.3985 N   0  0  0  0  0  0  0  0  0  0  0  0
   -4.4314    1.8084    9.8895 C   0  0  0  0  0  0  0  0  0  0  0  0
   -3.6431    0.6717   10.4309 C   0  0  0  0  0  0  0  0  0  0  0  0
   -2.1908    0.6404    9.9830 C   0  0  0  0  0  0  0  0  0  0  0  0
   -1.4965   -0.5052   10.6294 N   0  0  0  0  0  0  0  0  0  0  0  0
    0.0108   -0.4248   10.3269 C   0  0  0  0  0  0  0  0  0  0  0  0
    0.5002   -1.9135   10.6679 C   0  0  0  0  0  0  0  0  0  0  0  0
    1.8103   -1.9547   10.6451 C   0  0  0  0  0  0  0  0  0  0  0  0
    1.9587   -3.5468   10.9984 C   0  0  0  0  0  0  0  0  0  0  0  0
    3.5117   -3.5841   11.1935 N   0  0  0  0  0  0  0  0  0  0  0  0
    4.2099   -4.8025   10.4675 C   0  0  0  0  0  0  0  0  0  0  0  0
    4.2309   -4.4264    8.8782 C   0  0  0  0  0  0  0  0  0  0  0  0
    4.8861   -5.6177    8.2420 C   0  0  0  0  0  0  0  0  0  0  0  0
    6.3378   -5.5404    8.6523 N   0  0  0  0  0  0  0  0  0  0  0  0
  1  2  1  0  0  0  0
  2  3  1  0  0  0  0
  3  4  1  0  0  0  0
  4  5  1  0  0  0  0
  5  6  1  0  0  0  0
  6  7  1  0  0  0  0
  7  8  1  0  0  0  0
  8  9  1  0  0  0  0
  9 10  1  0  0  0  0
 10 11  1  0  0  0  0
 11 12  1  0  0  0  0
 12 13  1  0  0  0  0
 13 14  1  0  0  0  0
M  END
>  <CHROM.1>
70.21722583,177.78644261,-172.43194741,-162.63893313,-170.85704819,-179.29110060
-171.87072709,-134.32861770,75.28983081,-179.37480269,-71.18976914,0.79236621
-1.97715169,9.95745866,3.04384640,-0.61769839,1.46237249

>  <Name>
ligand

>  <RI>
0

>  <Rbt.Current_Directory>
/home/itssahil/PROJECTS/Mol_Feturizer/New_Systems/rnas/1FUF

>  <Rbt.Executable>
rbdock ($Id: //depot/dev/client3/rdock/2013.1/src/exe/rbdock.cxx#4 $)

>  <Rbt.Library>
libRbt.so (2013.1, Build901 2013/11/27)

>  <Rbt.Parameter_File>
/export/apps/rDock/src/rDock_2013.1_src/data/scripts/dock_solv.prm

>  <Rbt.Receptor>
prm/pocket_docking_2.prm

>  <SCORE>
-3.39972

>  <SCORE.INTER>
-0.934164

>  <SCORE.INTER.CONST>
1

>  <SCORE.INTER.POLAR>
0

>  <SCORE.INTER.ROT>
11

>  <SCORE.INTER.SOLV>
16.2204

>  <SCORE.INTER.VDW>
-16.9629

>  <SCORE.INTER.norm>
-0.066726

>  <SCORE.INTRA>
-2.48329

>  <SCORE.INTRA.DIHEDRAL>
-7.65297

>  <SCORE.INTRA.DIHEDRAL.0>
10.5765

>  <SCORE.INTRA.POLAR>
0

>  <SCORE.INTRA.POLAR.0>
0

>  <SCORE.INTRA.REPUL>
0

>  <SCORE.INTRA.REPUL.0>
0

>  <SCORE.INTRA.SOLV>
1.56014

>  <SCORE.INTRA.SOLV.lig_0>
-50.1861

>  <SCORE.INTRA.VDW>
0.563125

>  <SCORE.INTRA.VDW.0>
-1.36671

>  <SCORE.INTRA.norm>
-0.177378

>  <SCORE.RESTR>
0.0177311

>  <SCORE.RESTR.CAVITY>
0.0177311

>  <SCORE.RESTR.norm>
0.00126651

>  <SCORE.SYSTEM>
0

>  <SCORE.SYSTEM.CONST>
0

>  <SCORE.SYSTEM.DIHEDRAL>
0

>  <SCORE.SYSTEM.SOLV>
0

>  <SCORE.SYSTEM.norm>
0

>  <SCORE.heavy>
14

>  <SCORE.norm>
-0.242837

>  <RMSD>
1.470

$$$$
ligand
 OpenBabel11021811393D
libRbt.so/2013.1/901 2013/11/27
 14 13  0  0  0  0  0  0  0  0999 V2000
   -6.4556    2.0996    8.7769 N   0  0  0  0  0  0  0  0  0  0  0  0
   -5.2605    2.4495    9.6642 C   0  0  0  0  0  0  0  0  0  0  0  0
   -4.4315    1.2180    9.7172 C   0  0  0  0  0  0  0  0  0  0  0  0
   -3.1841    1.3331   10.5782 C   0  0  0  0  0  0  0  0  0  0  0  0
   -2.3809    0.0871   10.4577 N   0  0  0  0  0  0  0  0  0  0  0  0
   -1.1738    0.3450    9.5379 C   0  0  0  0  0  0  0  0  0  0  0  0
    0.0445   -0.2086   10.4217 C   0  0  0  0  0  0  0  0  0  0  0  0
    0.0320   -1.5193   10.4040 C   0  0  0  0  0  0  0  0  0  0  0  0
    1.4546   -1.7357   11.1858 C   0  0  0  0  0  0  0  0  0  0  0  0
    1.5766   -3.2848   10.9939 N   0  0  0  0  0  0  0  0  0  0  0  0
    3.0414   -3.8352   11.2189 C   0  0  0  0  0  0  0  0  0  0  0  0
    3.1239   -5.2430   10.3948 C   0  0  0  0  0  0  0  0  0  0  0  0
    4.5507   -5.6736   10.5732 C   0  0  0  0  0  0  0  0  0  0  0  0
    4.7159   -6.8835    9.6840 N   0  0  0  0  0  0  0  0  0  0  0  0
  1  2  1  0  0  0  0
  2  3  1  0  0  0  0
  3  4  1  0  0  0  0
  4  5  1  0  0  0  0
  5  6  1  0  0  0  0
  6  7  1  0  0  0  0
  7  8  1  0  0  0  0
  8  9  1  0  0  0  0
  9 10  1  0  0  0  0
 10 11  1  0  0  0  0
 11 12  1  0  0  0  0
 12 13  1  0  0  0  0
 13 14  1  0  0  0  0
M  END
>  <CHROM.1>
-178.99327520,-175.10178348,103.46505260,129.39867537,75.19661835,172.77405032
-172.00171862,161.91511061,-156.55810950,176.65225390,-173.14772616,-0.31033827
-1.48916659,10.25784688,2.58864526,-0.44828439,0.49019288

>  <Name>
ligand

>  <RI>
0

>  <Rbt.Current_Directory>
/home/itssahil/PROJECTS/Mol_Feturizer/New_Systems/rnas/1FUF

>  <Rbt.Executable>
rbdock ($Id: //depot/dev/client3/rdock/2013.1/src/exe/rbdock.cxx#4 $)

>  <Rbt.Library>
libRbt.so (2013.1, Build901 2013/11/27)

>  <Rbt.Parameter_File>
/export/apps/rDock/src/rDock_2013.1_src/data/scripts/dock_solv.prm

>  <Rbt.Receptor>
prm/pocket_docking_3.prm

>  <SCORE>
-4.0244

>  <SCORE.INTER>
-1.39942

>  <SCORE.INTER.CONST>
1

>  <SCORE.INTER.POLAR>
0

>  <SCORE.INTER.ROT>
11

>  <SCORE.INTER.SOLV>
17.04

>  <SCORE.INTER.VDW>
-17.5463

>  <SCORE.INTER.norm>
-0.0999583

>  <SCORE.INTRA>
-2.62499

>  <SCORE.INTRA.DIHEDRAL>
-6.21569

>  <SCORE.INTRA.DIHEDRAL.0>
10.5765

>  <SCORE.INTRA.POLAR>
0

>  <SCORE.INTRA.POLAR.0>
0

>  <SCORE.INTRA.REPUL>
0

>  <SCORE.INTRA.REPUL.0>
0

>  <SCORE.INTRA.SOLV>
0.24395

>  <SCORE.INTRA.SOLV.lig_0>
-50.1861

>  <SCORE.INTRA.VDW>
0.360883

>  <SCORE.INTRA.VDW.0>
-1.36671

>  <SCORE.INTRA.norm>
-0.187499

>  <SCORE.RESTR>
0

>  <SCORE.RESTR.CAVITY>
0

>  <SCORE.RESTR.norm>
0

>  <SCORE.SYSTEM>
0

>  <SCORE.SYSTEM.CONST>
0

>  <SCORE.SYSTEM.DIHEDRAL>
0

>  <SCORE.SYSTEM.SOLV>
0

>  <SCORE.SYSTEM.norm>
0

>  <SCORE.heavy>
14

>  <SCORE.norm>
-0.287457

>  <RMSD>
1.474

$$$$
ligand
 OpenBabel11021811393D
libRbt.so/2013.1/901 2013/11/27
 14 13  0  0  0  0  0  0  0  0999 V2000
    5.9493   -5.9940    7.9485 N   0  0  0  0  0  0  0  0  0  0  0  0
    4.6458   -5.6048    8.6466 C   0  0  0  0  0  0  0  0  0  0  0  0
    5.0021   -5.4168   10.0764 C   0  0  0  0  0  0  0  0  0  0  0  0
    3.8405   -5.0093   10.9683 C   0  0  0  0  0  0  0  0  0  0  0  0
    3.3586   -3.6597   10.5702 N   0  0  0  0  0  0  0  0  0  0  0  0
    1.9810   -3.4015   11.2071 C   0  0  0  0  0  0  0  0  0  0  0  0
    1.5452   -2.0227   10.5136 C   0  0  0  0  0  0  0  0  0  0  0  0
    0.3277   -1.7145   10.8897 C   0  0  0  0  0  0  0  0  0  0  0  0
    0.1773   -0.3683    9.9695 C   0  0  0  0  0  0  0  0  0  0  0  0
   -1.3244   -0.0553   10.2832 N   0  0  0  0  0  0  0  0  0  0  0  0
   -1.8886    1.1901    9.4896 C   0  0  0  0  0  0  0  0  0  0  0  0
   -3.3484    1.5170   10.1455 C   0  0  0  0  0  0  0  0  0  0  0  0
   -4.2311    0.4317    9.6012 C   0  0  0  0  0  0  0  0  0  0  0  0
   -5.6287    0.7951   10.0445 N   0  0  0  0  0  0  0  0  0  0  0  0
  1  2  1  0  0  0  0
  2  3  1  0  0  0  0
  3  4  1  0  0  0  0
  4  5  1  0  0  0  0
  5  6  1  0  0  0  0
  6  7  1  0  0  0  0
  7  8  1  0  0  0  0
  8  9  1  0  0  0  0
  9 10  1  0  0  0  0
 10 11  1  0  0  0  0
 11 12  1  0  0  0  0
 12 13  1  0  0  0  0
 13 14  1  0  0  0  0
M  END
>  <CHROM.1>
179.53262061,-65.24173914,165.44459731,-172.48452997,175.48805475,-176.90863938
174.47507176,-177.06931554,-169.89453871,-74.96658835,-173.13423486,0.74336747
-2.09371798,10.02541000,0.10437036,0.62916327,-1.68178633

>  <Name>
ligand

>  <RI>
0

>  <Rbt.Current_Directory>
/home/itssahil/PROJECTS/Mol_Feturizer/New_Systems/rnas/1FUF

>  <Rbt.Executable>
rbdock ($Id: //depot/dev/client3/rdock/2013.1/src/exe/rbdock.cxx#4 $)

>  <Rbt.Library>
libRbt.so (2013.1, Build901 2013/11/27)

>  <Rbt.Parameter_File>
/export/apps/rDock/src/rDock_2013.1_src/data/scripts/dock_solv.prm

>  <Rbt.Receptor>
prm/pocket_docking_2.prm

>  <SCORE>
-4.40476

>  <SCORE.INTER>
-0.298497

>  <SCORE.INTER.CONST>
1

>  <SCORE.INTER.POLAR>
0

>  <SCORE.INTER.ROT>
11

>  <SCORE.INTER.SOLV>
17.774

>  <SCORE.INTER.VDW>
-17.057

>  <SCORE.INTER.norm>
-0.0213212

>  <SCORE.INTRA>
-4.10627

>  <SCORE.INTRA.DIHEDRAL>
-8.95866

>  <SCORE.INTRA.DIHEDRAL.0>
10.5765

>  <SCORE.INTRA.POLAR>
0

>  <SCORE.INTRA.POLAR.0>
0

>  <SCORE.INTRA.REPUL>
0

>  <SCORE.INTRA.REPUL.0>
0

>  <SCORE.INTRA.SOLV>
0.554717

>  <SCORE.INTRA.SOLV.lig_0>
-50.1861

>  <SCORE.INTRA.VDW>
0.0957059

>  <SCORE.INTRA.VDW.0>
-1.36671

>  <SCORE.INTRA.norm>
-0.293305

>  <SCORE.RESTR>
0

>  <SCORE.RESTR.CAVITY>
0

>  <SCORE.RESTR.norm>
0

>  <SCORE.SYSTEM>
0

>  <SCORE.SYSTEM.CONST>
0

>  <SCORE.SYSTEM.DIHEDRAL>
0

>  <SCORE.SYSTEM.SOLV>
0

>  <SCORE.SYSTEM.norm>
0

>  <SCORE.heavy>
14

>  <SCORE.norm>
-0.314626

>  <RMSD>
1.475

$$$$
ligand
 OpenBabel11021811393D
libRbt.so/2013.1/901 2013/11/27
 14 13  0  0  0  0  0  0  0  0999 V2000
   -5.3167    2.0301    8.9295 N   0  0  0  0  0  0  0  0  0  0  0  0
   -5.1180    0.8166    9.8383 C   0  0  0  0  0  0  0  0  0  0  0  0
   -3.7553    0.3105    9.5323 C   0  0  0  0  0  0  0  0  0  0  0  0
   -2.6258    1.1997   10.0263 C   0  0  0  0  0  0  0  0  0  0  0  0
   -1.3186    0.5828    9.6756 N   0  0  0  0  0  0  0  0  0  0  0  0
   -0.9007   -0.3948   10.7889 C   0  0  0  0  0  0  0  0  0  0  0  0
    0.5394   -0.8844   10.2808 C   0  0  0  0  0  0  0  0  0  0  0  0
    1.0347   -1.7401   11.1417 C   0  0  0  0  0  0  0  0  0  0  0  0
    2.4401   -2.0189   10.3488 C   0  0  0  0  0  0  0  0  0  0  0  0
    3.0802   -3.0090   11.3790 N   0  0  0  0  0  0  0  0  0  0  0  0
    2.9060   -4.5300   10.9849 C   0  0  0  0  0  0  0  0  0  0  0  0
    4.0912   -4.8538    9.9087 C   0  0  0  0  0  0  0  0  0  0  0  0
    3.8378   -6.2823    9.5234 C   0  0  0  0  0  0  0  0  0  0  0  0
    4.9234   -6.6259    8.5309 N   0  0  0  0  0  0  0  0  0  0  0  0
  1  2  1  0  0  0  0
  2  3  1  0  0  0  0
  3  4  1  0  0  0  0
  4  5  1  0  0  0  0
  5  6  1  0  0  0  0
  6  7  1  0  0  0  0
  7  8  1  0  0  0  0
  8  9  1  0  0  0  0
  9 10  1  0  0  0  0
 10 11  1  0  0  0  0
 11 12  1  0  0  0  0
 12 13  1  0  0  0  0
 13 14  1  0  0  0  0
M  END
>  <CHROM.1>
70.99170932,179.36516981,-87.07486846,-176.95523265,-179.96785834,-179.95143835
178.30026550,98.49489958,82.08885425,-177.41105012,-179.63408182,0.27265731
-1.81426960,10.06368092,2.61794621,-0.44940227,0.60788762

>  <Name>
ligand

>  <RI>
0

>  <Rbt.Current_Directory>
/home/itssahil/PROJECTS/Mol_Feturizer/New_Systems/rnas/1FUF

>  <Rbt.Executable>
rbdock ($Id: //depot/dev/client3/rdock/2013.1/src/exe/rbdock.cxx#4 $)

>  <Rbt.Library>
libRbt.so (2013.1, Build901 2013/11/27)

>  <Rbt.Parameter_File>
/export/apps/rDock/src/rDock_2013.1_src/data/scripts/dock_solv.prm

>  <Rbt.Receptor>
prm/pocket_docking_3.prm

>  <SCORE>
-5.85609

>  <SCORE.INTER>
-2.56344

>  <SCORE.INTER.CONST>
1

>  <SCORE.INTER.POLAR>
0

>  <SCORE.INTER.ROT>
11

>  <SCORE.INTER.SOLV>
15.7364

>  <SCORE.INTER.VDW>
-17.8877

>  <SCORE.INTER.norm>
-0.183103

>  <SCORE.INTRA>
-3.29265

>  <SCORE.INTRA.DIHEDRAL>
-8.36082

>  <SCORE.INTRA.DIHEDRAL.0>
10.5765

>  <SCORE.INTRA.POLAR>
0

>  <SCORE.INTRA.POLAR.0>
0

>  <SCORE.INTRA.REPUL>
0

>  <SCORE.INTRA.REPUL.0>
0

>  <SCORE.INTRA.SOLV>
0.639296

>  <SCORE.INTRA.SOLV.lig_0>
-50.1861

>  <SCORE.INTRA.VDW>
0.568116

>  <SCORE.INTRA.VDW.0>
-1.36671

>  <SCORE.INTRA.norm>
-0.235189

>  <SCORE.RESTR>
0

>  <SCORE.RESTR.CAVITY>
0

>  <SCORE.RESTR.norm>
0

>  <SCORE.SYSTEM>
0

>  <SCORE.SYSTEM.CONST>
0

>  <SCORE.SYSTEM.DIHEDRAL>
0

>  <SCORE.SYSTEM.SOLV>
0

>  <SCORE.SYSTEM.norm>
0

>  <SCORE.heavy>
14

>  <SCORE.norm>
-0.418292

>  <RMSD>
1.477

$$$$
ligand
 OpenBabel11021811393D
libRbt.so/2013.1/901 2013/11/27
 14 13  0  0  0  0  0  0  0  0999 V2000
    6.0820   -4.0676    9.6842 N   0  0  0  0  0  0  0  0  0  0  0  0
    5.0633   -4.2344    8.5561 C   0  0  0  0  0  0  0  0  0  0  0  0
    4.0800   -5.2307    9.0532 C   0  0  0  0  0  0  0  0  0  0  0  0
    3.3084   -4.7944   10.2881 C   0  0  0  0  0  0  0  0  0  0  0  0
    2.5037   -3.5848    9.9692 N   0  0  0  0  0  0  0  0  0  0  0  0
    1.5404   -3.2913   11.1335 C   0  0  0  0  0  0  0  0  0  0  0  0
    1.2415   -1.7283   10.9342 C   0  0  0  0  0  0  0  0  0  0  0  0
    0.0499   -1.5788   10.4086 C   0  0  0  0  0  0  0  0  0  0  0  0
    0.0341    0.0586   10.4308 C   0  0  0  0  0  0  0  0  0  0  0  0
   -1.2438    0.2773    9.5530 N   0  0  0  0  0  0  0  0  0  0  0  0
   -2.1309    1.4985   10.0230 C   0  0  0  0  0  0  0  0  0  0  0  0
   -3.5169    0.8523   10.5969 C   0  0  0  0  0  0  0  0  0  0  0  0
   -4.2516    0.4340    9.3565 C   0  0  0  0  0  0  0  0  0  0  0  0
   -4.7082    1.7210    8.7107 N   0  0  0  0  0  0  0  0  0  0  0  0
  1  2  1  0  0  0  0
  2  3  1  0  0  0  0
  3  4  1  0  0  0  0
  4  5  1  0  0  0  0
  5  6  1  0  0  0  0
  6  7  1  0  0  0  0
  7  8  1  0  0  0  0
  8  9  1  0  0  0  0
  9 10  1  0  0  0  0
 10 11  1  0  0  0  0
 11 12  1  0  0  0  0
 12 13  1  0  0  0  0
 13 14  1  0  0  0  0
M  END
>  <CHROM.1>
62.59547486,62.36193760,170.12340562,157.24855423,103.68608418,176.72483259
169.29128168,143.09464578,-112.02466960,-74.41906190,-71.80267128,0.57510371
-1.69071420,9.90717380,-0.55596411,0.26962259,-0.39248445

>  <Name>
ligand

>  <RI>
0

>  <Rbt.Current_Directory>
/home/itssahil/PROJECTS/Mol_Feturizer/New_Systems/rnas/1FUF

>  <Rbt.Executable>
rbdock ($Id: //depot/dev/client3/rdock/2013.1/src/exe/rbdock.cxx#4 $)

>  <Rbt.Library>
libRbt.so (2013.1, Build901 2013/11/27)

>  <Rbt.Parameter_File>
/export/apps/rDock/src/rDock_2013.1_src/data/scripts/dock_solv.prm

>  <Rbt.Receptor>
prm/pocket_docking_2.prm

>  <SCORE>
2.47473

>  <SCORE.INTER>
1.00229

>  <SCORE.INTER.CONST>
1

>  <SCORE.INTER.POLAR>
0

>  <SCORE.INTER.ROT>
11

>  <SCORE.INTER.SOLV>
17.4476

>  <SCORE.INTER.VDW>
-16.081

>  <SCORE.INTER.norm>
0.0715918

>  <SCORE.INTRA>
1.47245

>  <SCORE.INTRA.DIHEDRAL>
-1.81235

>  <SCORE.INTRA.DIHEDRAL.0>
10.5765

>  <SCORE.INTRA.POLAR>
0

>  <SCORE.INTRA.POLAR.0>
0

>  <SCORE.INTRA.REPUL>
0

>  <SCORE.INTRA.REPUL.0>
0

>  <SCORE.INTRA.SOLV>
3.66341

>  <SCORE.INTRA.SOLV.lig_0>
-50.1861

>  <SCORE.INTRA.VDW>
0.54692

>  <SCORE.INTRA.VDW.0>
-1.36671

>  <SCORE.INTRA.norm>
0.105175

>  <SCORE.RESTR>
0

>  <SCORE.RESTR.CAVITY>
0

>  <SCORE.RESTR.norm>
0

>  <SCORE.SYSTEM>
0

>  <SCORE.SYSTEM.CONST>
0

>  <SCORE.SYSTEM.DIHEDRAL>
0

>  <SCORE.SYSTEM.SOLV>
0

>  <SCORE.SYSTEM.norm>
0

>  <SCORE.heavy>
14

>  <SCORE.norm>
0.176767

>  <RMSD>
1.479

$$$$
ligand
 OpenBabel11021811393D
libRbt.so/2013.1/901 2013/11/27
 14 13  0  0  0  0  0  0  0  0999 V2000
   -4.7905    1.9037    8.8195 N   0  0  0  0  0  0  0  0  0  0  0  0
   -4.8620    0.8056    9.8811 C   0  0  0  0  0  0  0  0  0  0  0  0
   -3.5384    0.8184   10.5553 C   0  0  0  0  0  0  0  0  0  0  0  0
   -2.3800    0.3667    9.6809 C   0  0  0  0  0  0  0  0  0  0  0  0
   -1.1539    0.2312   10.5120 N   0  0  0  0  0  0  0  0  0  0  0  0
   -1.1069   -1.1798   11.1257 C   0  0  0  0  0  0  0  0  0  0  0  0
    0.2309   -1.7818   10.4778 C   0  0  0  0  0  0  0  0  0  0  0  0
    1.2746   -1.2353   11.0528 C   0  0  0  0  0  0  0  0  0  0  0  0
    2.4116   -2.0359   10.1880 C   0  0  0  0  0  0  0  0  0  0  0  0
    2.5746   -3.2735   11.1330 N   0  0  0  0  0  0  0  0  0  0  0  0
    2.9286   -4.6103   10.3670 C   0  0  0  0  0  0  0  0  0  0  0  0
    4.3769   -5.0915   10.9490 C   0  0  0  0  0  0  0  0  0  0  0  0
    5.3352   -4.0787   10.3929 C   0  0  0  0  0  0  0  0  0  0  0  0
    5.4108   -4.3724    8.9130 N   0  0  0  0  0  0  0  0  0  0  0  0
  1  2  1  0  0  0  0
  2  3  1  0  0  0  0
  3  4  1  0  0  0  0
  4  5  1  0  0  0  0
  5  6  1  0  0  0  0
  6  7  1  0  0  0  0
  7  8  1  0  0  0  0
  8  9  1  0  0  0  0
  9 10  1  0  0  0  0
 10 11  1  0  0  0  0
 11 12  1  0  0  0  0
 12 13  1  0  0  0  0
 13 14  1  0  0  0  0
M  END
>  <CHROM.1>
-67.70207875,-171.76641903,87.14294152,117.56419880,74.16697669,-179.82954207
-90.09612389,147.88556634,119.22822997,-70.44416498,-70.73101601,0.47937634
-1.68109177,10.28931108,-2.83576896,-0.48741667,2.08357074

>  <Name>
ligand

>  <RI>
0

>  <Rbt.Current_Directory>
/home/itssahil/PROJECTS/Mol_Feturizer/New_Systems/rnas/1FUF

>  <Rbt.Executable>
rbdock ($Id: //depot/dev/client3/rdock/2013.1/src/exe/rbdock.cxx#4 $)

>  <Rbt.Library>
libRbt.so (2013.1, Build901 2013/11/27)

>  <Rbt.Parameter_File>
/export/apps/rDock/src/rDock_2013.1_src/data/scripts/dock_solv.prm

>  <Rbt.Receptor>
prm/pocket_docking_2.prm

>  <SCORE>
1.56207

>  <SCORE.INTER>
-0.648934

>  <SCORE.INTER.CONST>
1

>  <SCORE.INTER.POLAR>
0

>  <SCORE.INTER.ROT>
11

>  <SCORE.INTER.SOLV>
16.4106

>  <SCORE.INTER.VDW>
-16.8361

>  <SCORE.INTER.norm>
-0.0463524

>  <SCORE.INTRA>
2.211

>  <SCORE.INTRA.DIHEDRAL>
-2.20503

>  <SCORE.INTRA.DIHEDRAL.0>
10.5765

>  <SCORE.INTRA.POLAR>
0

>  <SCORE.INTRA.POLAR.0>
0

>  <SCORE.INTRA.REPUL>
0

>  <SCORE.INTRA.REPUL.0>
0

>  <SCORE.INTRA.SOLV>
3.80693

>  <SCORE.INTRA.SOLV.lig_0>
-50.1861

>  <SCORE.INTRA.VDW>
1.41005

>  <SCORE.INTRA.VDW.0>
-1.36671

>  <SCORE.INTRA.norm>
0.157929

>  <SCORE.RESTR>
0

>  <SCORE.RESTR.CAVITY>
0

>  <SCORE.RESTR.norm>
0

>  <SCORE.SYSTEM>
0

>  <SCORE.SYSTEM.CONST>
0

>  <SCORE.SYSTEM.DIHEDRAL>
0

>  <SCORE.SYSTEM.SOLV>
0

>  <SCORE.SYSTEM.norm>
0

>  <SCORE.heavy>
14

>  <SCORE.norm>
0.111576

>  <RMSD>
1.480

$$$$
ligand
 OpenBabel11021811393D
libRbt.so/2013.1/901 2013/11/27
 14 13  0  0  0  0  0  0  0  0999 V2000
   -5.7869    2.6398    8.1653 N   0  0  0  0  0  0  0  0  0  0  0  0
   -4.9884    2.4718    9.4584 C   0  0  0  0  0  0  0  0  0  0  0  0
   -3.7600    1.7308    9.0729 C   0  0  0  0  0  0  0  0  0  0  0  0
   -2.8231    1.4171   10.2281 C   0  0  0  0  0  0  0  0  0  0  0  0
   -1.6596    0.6381    9.7263 N   0  0  0  0  0  0  0  0  0  0  0  0
   -0.7478    0.2641   10.9089 C   0  0  0  0  0  0  0  0  0  0  0  0
    0.0290   -1.0183   10.3397 C   0  0  0  0  0  0  0  0  0  0  0  0
    0.8013   -1.5089   11.2785 C   0  0  0  0  0  0  0  0  0  0  0  0
    1.3059   -2.8246   10.4442 C   0  0  0  0  0  0  0  0  0  0  0  0
    2.0888   -3.5309   11.6015 N   0  0  0  0  0  0  0  0  0  0  0  0
    2.8094   -4.8649   11.1538 C   0  0  0  0  0  0  0  0  0  0  0  0
    4.3287   -4.4360   10.7347 C   0  0  0  0  0  0  0  0  0  0  0  0
    4.9836   -5.7432   10.3948 C   0  0  0  0  0  0  0  0  0  0  0  0
    4.3558   -6.1761    9.0908 N   0  0  0  0  0  0  0  0  0  0  0  0
  1  2  1  0  0  0  0
  2  3  1  0  0  0  0
  3  4  1  0  0  0  0
  4  5  1  0  0  0  0
  5  6  1  0  0  0  0
  6  7  1  0  0  0  0
  7  8  1  0  0  0  0
  8  9  1  0  0  0  0
  9 10  1  0  0  0  0
 10 11  1  0  0  0  0
 11 12  1  0  0  0  0
 12 13  1  0  0  0  0
 13 14  1  0  0  0  0
M  END
>  <CHROM.1>
-178.44939454,178.11006928,-177.30192271,156.82448417,-176.26404417,175.00675839
-173.19187069,-177.30549760,93.06862971,176.95687204,71.18513065,0.06704117
-1.49576483,10.18577881,2.89848308,-0.69318626,1.03126661

>  <Name>
ligand

>  <RI>
0

>  <Rbt.Current_Directory>
/home/itssahil/PROJECTS/Mol_Feturizer/New_Systems/rnas/1FUF

>  <Rbt.Executable>
rbdock ($Id: //depot/dev/client3/rdock/2013.1/src/exe/rbdock.cxx#4 $)

>  <Rbt.Library>
libRbt.so (2013.1, Build901 2013/11/27)

>  <Rbt.Parameter_File>
/export/apps/rDock/src/rDock_2013.1_src/data/scripts/dock_solv.prm

>  <Rbt.Receptor>
prm/blind_docking_80.prm

>  <SCORE>
-5.41711

>  <SCORE.INTER>
-1.79647

>  <SCORE.INTER.CONST>
1

>  <SCORE.INTER.POLAR>
0

>  <SCORE.INTER.ROT>
11

>  <SCORE.INTER.SOLV>
15.4766

>  <SCORE.INTER.VDW>
-17.2898

>  <SCORE.INTER.norm>
-0.128319

>  <SCORE.INTRA>
-3.62064

>  <SCORE.INTRA.DIHEDRAL>
-8.63076

>  <SCORE.INTRA.DIHEDRAL.0>
10.5765

>  <SCORE.INTRA.POLAR>
0

>  <SCORE.INTRA.POLAR.0>
0

>  <SCORE.INTRA.REPUL>
0

>  <SCORE.INTRA.REPUL.0>
0

>  <SCORE.INTRA.SOLV>
0.760512

>  <SCORE.INTRA.SOLV.lig_0>
-50.1861

>  <SCORE.INTRA.VDW>
0.314484

>  <SCORE.INTRA.VDW.0>
-1.36671

>  <SCORE.INTRA.norm>
-0.258617

>  <SCORE.RESTR>
0

>  <SCORE.RESTR.CAVITY>
0

>  <SCORE.RESTR.norm>
0

>  <SCORE.SYSTEM>
0

>  <SCORE.SYSTEM.CONST>
0

>  <SCORE.SYSTEM.DIHEDRAL>
0

>  <SCORE.SYSTEM.SOLV>
0

>  <SCORE.SYSTEM.norm>
0

>  <SCORE.heavy>
14

>  <SCORE.norm>
-0.386937

>  <RMSD>
1.481

$$$$
ligand
 OpenBabel11021811393D
libRbt.so/2013.1/901 2013/11/27
 14 13  0  0  0  0  0  0  0  0999 V2000
    4.6922   -6.0878    9.4276 N   0  0  0  0  0  0  0  0  0  0  0  0
    4.7077   -4.7891   10.2345 C   0  0  0  0  0  0  0  0  0  0  0  0
    3.2899   -4.3524   10.3110 C   0  0  0  0  0  0  0  0  0  0  0  0
    3.0781   -3.0116   10.9951 C   0  0  0  0  0  0  0  0  0  0  0  0
    1.6219   -2.7196   11.0754 N   0  0  0  0  0  0  0  0  0  0  0  0
    1.3463   -1.3297   10.4738 C   0  0  0  0  0  0  0  0  0  0  0  0
    0.3918   -0.6695   11.5807 C   0  0  0  0  0  0  0  0  0  0  0  0
   -0.0177    0.5014   11.1568 C   0  0  0  0  0  0  0  0  0  0  0  0
   -1.3464   -0.0351   10.3641 C   0  0  0  0  0  0  0  0  0  0  0  0
   -2.0006    1.3559   10.0665 N   0  0  0  0  0  0  0  0  0  0  0  0
   -2.9593    1.3466    8.8096 C   0  0  0  0  0  0  0  0  0  0  0  0
   -4.1719    0.3158    9.1771 C   0  0  0  0  0  0  0  0  0  0  0  0
   -4.9997    1.0828   10.1668 C   0  0  0  0  0  0  0  0  0  0  0  0
   -5.7435    2.1133    9.3503 N   0  0  0  0  0  0  0  0  0  0  0  0
  1  2  1  0  0  0  0
  2  3  1  0  0  0  0
  3  4  1  0  0  0  0
  4  5  1  0  0  0  0
  5  6  1  0  0  0  0
  6  7  1  0  0  0  0
  7  8  1  0  0  0  0
  8  9  1  0  0  0  0
  9 10  1  0  0  0  0
 10 11  1  0  0  0  0
 11 12  1  0  0  0  0
 12 13  1  0  0  0  0
 13 14  1  0  0  0  0
M  END
>  <CHROM.1>
-175.87619261,-176.96813307,-126.97323377,-133.20051346,-175.23073998,88.48194152
170.25511410,155.03978916,62.78460184,74.00547140,74.61820855,-0.15071300
-1.16272569,10.22789389,0.46632885,0.44203307,-2.55044870

>  <Name>
ligand

>  <RI>
0

>  <Rbt.Current_Directory>
/home/itssahil/PROJECTS/Mol_Feturizer/New_Systems/rnas/1FUF

>  <Rbt.Executable>
rbdock ($Id: //depot/dev/client3/rdock/2013.1/src/exe/rbdock.cxx#4 $)

>  <Rbt.Library>
libRbt.so (2013.1, Build901 2013/11/27)

>  <Rbt.Parameter_File>
/export/apps/rDock/src/rDock_2013.1_src/data/scripts/dock_solv.prm

>  <Rbt.Receptor>
prm/blind_docking_20.prm

>  <SCORE>
0.194233

>  <SCORE.INTER>
-1.06006

>  <SCORE.INTER.CONST>
1

>  <SCORE.INTER.POLAR>
0

>  <SCORE.INTER.ROT>
11

>  <SCORE.INTER.SOLV>
15.9712

>  <SCORE.INTER.VDW>
-16.9638

>  <SCORE.INTER.norm>
-0.0757187

>  <SCORE.INTRA>
1.25429

>  <SCORE.INTRA.DIHEDRAL>
-3.07166

>  <SCORE.INTRA.DIHEDRAL.0>
10.5765

>  <SCORE.INTRA.POLAR>
0

>  <SCORE.INTRA.POLAR.0>
0

>  <SCORE.INTRA.REPUL>
0

>  <SCORE.INTRA.REPUL.0>
0

>  <SCORE.INTRA.SOLV>
1.84799

>  <SCORE.INTRA.SOLV.lig_0>
-50.1861

>  <SCORE.INTRA.VDW>
1.86613

>  <SCORE.INTRA.VDW.0>
-1.36671

>  <SCORE.INTRA.norm>
0.0895925

>  <SCORE.RESTR>
0

>  <SCORE.RESTR.CAVITY>
0

>  <SCORE.RESTR.norm>
0

>  <SCORE.SYSTEM>
0

>  <SCORE.SYSTEM.CONST>
0

>  <SCORE.SYSTEM.DIHEDRAL>
0

>  <SCORE.SYSTEM.SOLV>
0

>  <SCORE.SYSTEM.norm>
0

>  <SCORE.heavy>
14

>  <SCORE.norm>
0.0138738

>  <RMSD>
1.490

$$$$
ligand
 OpenBabel11021811393D
libRbt.so/2013.1/901 2013/11/27
 14 13  0  0  0  0  0  0  0  0999 V2000
    3.8827   -6.1050    9.5004 N   0  0  0  0  0  0  0  0  0  0  0  0
    4.3203   -4.7788   10.1230 C   0  0  0  0  0  0  0  0  0  0  0  0
    3.2066   -3.8311    9.8621 C   0  0  0  0  0  0  0  0  0  0  0  0
    3.4600   -2.4113   10.3421 C   0  0  0  0  0  0  0  0  0  0  0  0
    2.2539   -1.5787   10.0884 N   0  0  0  0  0  0  0  0  0  0  0  0
    1.3153   -1.6558   11.3061 C   0  0  0  0  0  0  0  0  0  0  0  0
    0.4233   -0.3354   11.1250 C   0  0  0  0  0  0  0  0  0  0  0  0
   -0.3392   -0.4695   10.0670 C   0  0  0  0  0  0  0  0  0  0  0  0
   -1.2898    0.8338   10.3489 C   0  0  0  0  0  0  0  0  0  0  0  0
   -2.2147    0.7062    9.0920 N   0  0  0  0  0  0  0  0  0  0  0  0
   -3.2401    1.8997    8.9392 C   0  0  0  0  0  0  0  0  0  0  0  0
   -4.5892    1.4376    9.7358 C   0  0  0  0  0  0  0  0  0  0  0  0
   -5.4902    2.6333    9.6274 C   0  0  0  0  0  0  0  0  0  0  0  0
   -5.9731    2.6399    8.1961 N   0  0  0  0  0  0  0  0  0  0  0  0
  1  2  1  0  0  0  0
  2  3  1  0  0  0  0
  3  4  1  0  0  0  0
  4  5  1  0  0  0  0
  5  6  1  0  0  0  0
  6  7  1  0  0  0  0
  7  8  1  0  0  0  0
  8  9  1  0  0  0  0
  9 10  1  0  0  0  0
 10 11  1  0  0  0  0
 11 12  1  0  0  0  0
 12 13  1  0  0  0  0
 13 14  1  0  0  0  0
M  END
>  <CHROM.1>
-177.12738871,-177.14897739,89.39628414,159.10902730,67.88616256,168.94832428
179.77215698,-175.37239743,-90.62553870,176.76491276,73.81306930,-0.30521469
-0.78668086,9.88267545,0.46940718,0.47041208,-2.55997754

>  <Name>
ligand

>  <RI>
0

>  <Rbt.Current_Directory>
/home/itssahil/PROJECTS/Mol_Feturizer/New_Systems/rnas/1FUF

>  <Rbt.Executable>
rbdock ($Id: //depot/dev/client3/rdock/2013.1/src/exe/rbdock.cxx#4 $)

>  <Rbt.Library>
libRbt.so (2013.1, Build901 2013/11/27)

>  <Rbt.Parameter_File>
/export/apps/rDock/src/rDock_2013.1_src/data/scripts/dock_solv.prm

>  <Rbt.Receptor>
prm/blind_docking_20.prm

>  <SCORE>
-3.34016

>  <SCORE.INTER>
-1.16543

>  <SCORE.INTER.CONST>
1

>  <SCORE.INTER.POLAR>
0

>  <SCORE.INTER.ROT>
11

>  <SCORE.INTER.SOLV>
16.4021

>  <SCORE.INTER.VDW>
-17.1776

>  <SCORE.INTER.norm>
-0.083245

>  <SCORE.INTRA>
-2.17473

>  <SCORE.INTRA.DIHEDRAL>
-7.51105

>  <SCORE.INTRA.DIHEDRAL.0>
10.5765

>  <SCORE.INTRA.POLAR>
0

>  <SCORE.INTRA.POLAR.0>
0

>  <SCORE.INTRA.REPUL>
0

>  <SCORE.INTRA.REPUL.0>
0

>  <SCORE.INTRA.SOLV>
1.1317

>  <SCORE.INTRA.SOLV.lig_0>
-50.1861

>  <SCORE.INTRA.VDW>
1.01495

>  <SCORE.INTRA.VDW.0>
-1.36671

>  <SCORE.INTRA.norm>
-0.155338

>  <SCORE.RESTR>
0

>  <SCORE.RESTR.CAVITY>
0

>  <SCORE.RESTR.norm>
0

>  <SCORE.SYSTEM>
0

>  <SCORE.SYSTEM.CONST>
0

>  <SCORE.SYSTEM.DIHEDRAL>
0

>  <SCORE.SYSTEM.SOLV>
0

>  <SCORE.SYSTEM.norm>
0

>  <SCORE.heavy>
14

>  <SCORE.norm>
-0.238583

>  <RMSD>
1.494

$$$$
ligand
 OpenBabel11021811393D
libRbt.so/2013.1/901 2013/11/27
 14 13  0  0  0  0  0  0  0  0999 V2000
    4.7368   -6.3806    9.3131 N   0  0  0  0  0  0  0  0  0  0  0  0
    4.1276   -5.6601   10.5163 C   0  0  0  0  0  0  0  0  0  0  0  0
    3.4942   -4.4343    9.9660 C   0  0  0  0  0  0  0  0  0  0  0  0
    2.9095   -3.5008   11.0135 C   0  0  0  0  0  0  0  0  0  0  0  0
    2.2917   -2.3260   10.3424 N   0  0  0  0  0  0  0  0  0  0  0  0
    1.2284   -1.7096   11.2694 C   0  0  0  0  0  0  0  0  0  0  0  0
    0.3427   -0.8555   10.2409 C   0  0  0  0  0  0  0  0  0  0  0  0
   -0.5867   -0.2095   10.9023 C   0  0  0  0  0  0  0  0  0  0  0  0
   -1.2698    0.5237    9.6071 C   0  0  0  0  0  0  0  0  0  0  0  0
   -2.3541    1.3545   10.3723 N   0  0  0  0  0  0  0  0  0  0  0  0
   -3.7764    0.6650   10.3970 C   0  0  0  0  0  0  0  0  0  0  0  0
   -4.4443    0.9603    8.9360 C   0  0  0  0  0  0  0  0  0  0  0  0
   -4.6780    2.4430    8.9477 C   0  0  0  0  0  0  0  0  0  0  0  0
   -5.3072    2.7578    7.6110 N   0  0  0  0  0  0  0  0  0  0  0  0
  1  2  1  0  0  0  0
  2  3  1  0  0  0  0
  3  4  1  0  0  0  0
  4  5  1  0  0  0  0
  5  6  1  0  0  0  0
  6  7  1  0  0  0  0
  7  8  1  0  0  0  0
  8  9  1  0  0  0  0
  9 10  1  0  0  0  0
 10 11  1  0  0  0  0
 11 12  1  0  0  0  0
 12 13  1  0  0  0  0
 13 14  1  0  0  0  0
M  END
>  <CHROM.1>
-175.55685234,-179.25585948,156.55132663,-160.60403338,-177.10060266,179.93818149
-177.80880644,-97.07388791,-79.02104025,-67.64731597,-179.60426903,-0.23472284
-1.16944949,9.95987380,0.29514139,0.64640720,-2.21053099

>  <Name>
ligand

>  <RI>
0

>  <Rbt.Current_Directory>
/home/itssahil/PROJECTS/Mol_Feturizer/New_Systems/rnas/1FUF

>  <Rbt.Executable>
rbdock ($Id: //depot/dev/client3/rdock/2013.1/src/exe/rbdock.cxx#4 $)

>  <Rbt.Library>
libRbt.so (2013.1, Build901 2013/11/27)

>  <Rbt.Parameter_File>
/export/apps/rDock/src/rDock_2013.1_src/data/scripts/dock_solv.prm

>  <Rbt.Receptor>
prm/pocket_docking_3.prm

>  <SCORE>
-5.46927

>  <SCORE.INTER>
-1.80301

>  <SCORE.INTER.CONST>
1

>  <SCORE.INTER.POLAR>
0

>  <SCORE.INTER.ROT>
11

>  <SCORE.INTER.SOLV>
15.6718

>  <SCORE.INTER.VDW>
-17.3593

>  <SCORE.INTER.norm>
-0.128787

>  <SCORE.INTRA>
-3.66626

>  <SCORE.INTRA.DIHEDRAL>
-8.45834

>  <SCORE.INTRA.DIHEDRAL.0>
10.5765

>  <SCORE.INTRA.POLAR>
0

>  <SCORE.INTRA.POLAR.0>
0

>  <SCORE.INTRA.REPUL>
0

>  <SCORE.INTRA.REPUL.0>
0

>  <SCORE.INTRA.SOLV>
0.362471

>  <SCORE.INTRA.SOLV.lig_0>
-50.1861

>  <SCORE.INTRA.VDW>
0.381677

>  <SCORE.INTRA.VDW.0>
-1.36671

>  <SCORE.INTRA.norm>
-0.261875

>  <SCORE.RESTR>
0

>  <SCORE.RESTR.CAVITY>
0

>  <SCORE.RESTR.norm>
0

>  <SCORE.SYSTEM>
0

>  <SCORE.SYSTEM.CONST>
0

>  <SCORE.SYSTEM.DIHEDRAL>
0

>  <SCORE.SYSTEM.SOLV>
0

>  <SCORE.SYSTEM.norm>
0

>  <SCORE.heavy>
14

>  <SCORE.norm>
-0.390662

>  <RMSD>
1.498

$$$$
ligand
 OpenBabel11021811393D
libRbt.so/2013.1/901 2013/11/27
 14 13  0  0  0  0  0  0  0  0999 V2000
    4.1974   -6.2122    9.1207 N   0  0  0  0  0  0  0  0  0  0  0  0
    4.7730   -5.9178   10.5064 C   0  0  0  0  0  0  0  0  0  0  0  0
    4.1603   -4.6311   10.9256 C   0  0  0  0  0  0  0  0  0  0  0  0
    2.6628   -4.6975   11.1781 C   0  0  0  0  0  0  0  0  0  0  0  0
    2.1670   -3.3539   11.5800 N   0  0  0  0  0  0  0  0  0  0  0  0
    1.4700   -2.6874   10.3801 C   0  0  0  0  0  0  0  0  0  0  0  0
    0.8145   -1.3880   11.0537 C   0  0  0  0  0  0  0  0  0  0  0  0
    0.1068   -0.7453   10.1566 C   0  0  0  0  0  0  0  0  0  0  0  0
   -0.4497    0.4274   11.1549 C   0  0  0  0  0  0  0  0  0  0  0  0
   -1.3806    1.1619   10.1325 N   0  0  0  0  0  0  0  0  0  0  0  0
   -2.9105    0.8000   10.2988 C   0  0  0  0  0  0  0  0  0  0  0  0
   -3.7119    1.7302    9.2217 C   0  0  0  0  0  0  0  0  0  0  0  0
   -5.1564    1.4663    9.5330 C   0  0  0  0  0  0  0  0  0  0  0  0
   -5.9358    2.3368    8.5757 N   0  0  0  0  0  0  0  0  0  0  0  0
  1  2  1  0  0  0  0
  2  3  1  0  0  0  0
  3  4  1  0  0  0  0
  4  5  1  0  0  0  0
  5  6  1  0  0  0  0
  6  7  1  0  0  0  0
  7  8  1  0  0  0  0
  8  9  1  0  0  0  0
  9 10  1  0  0  0  0
 10 11  1  0  0  0  0
 11 12  1  0  0  0  0
 12 13  1  0  0  0  0
 13 14  1  0  0  0  0
M  END
>  <CHROM.1>
67.20479353,-179.60893451,102.13638304,171.45468385,-176.28557083,177.53960746
-176.39265448,100.99805865,176.38958470,-173.61579015,178.70211043,0.05776056
-1.55076256,10.27287303,0.46534172,0.55814021,-2.48277023

>  <Name>
ligand

>  <RI>
0

>  <Rbt.Current_Directory>
/home/itssahil/PROJECTS/Mol_Feturizer/New_Systems/rnas/1FUF

>  <Rbt.Executable>
rbdock ($Id: //depot/dev/client3/rdock/2013.1/src/exe/rbdock.cxx#4 $)

>  <Rbt.Library>
libRbt.so (2013.1, Build901 2013/11/27)

>  <Rbt.Parameter_File>
/export/apps/rDock/src/rDock_2013.1_src/data/scripts/dock_solv.prm

>  <Rbt.Receptor>
prm/blind_docking_100.prm

>  <SCORE>
-4.95977

>  <SCORE.INTER>
-1.52912

>  <SCORE.INTER.CONST>
1

>  <SCORE.INTER.POLAR>
0

>  <SCORE.INTER.ROT>
11

>  <SCORE.INTER.SOLV>
15.3649

>  <SCORE.INTER.VDW>
-17.0744

>  <SCORE.INTER.norm>
-0.109223

>  <SCORE.INTRA>
-3.43065

>  <SCORE.INTRA.DIHEDRAL>
-8.14359

>  <SCORE.INTRA.DIHEDRAL.0>
10.5765

>  <SCORE.INTRA.POLAR>
0

>  <SCORE.INTRA.POLAR.0>
0

>  <SCORE.INTRA.REPUL>
0

>  <SCORE.INTRA.REPUL.0>
0

>  <SCORE.INTRA.SOLV>
0.757417

>  <SCORE.INTRA.SOLV.lig_0>
-50.1861

>  <SCORE.INTRA.VDW>
0.262433

>  <SCORE.INTRA.VDW.0>
-1.36671

>  <SCORE.INTRA.norm>
-0.245047

>  <SCORE.RESTR>
0

>  <SCORE.RESTR.CAVITY>
0

>  <SCORE.RESTR.norm>
0

>  <SCORE.SYSTEM>
0

>  <SCORE.SYSTEM.CONST>
0

>  <SCORE.SYSTEM.DIHEDRAL>
0

>  <SCORE.SYSTEM.SOLV>
0

>  <SCORE.SYSTEM.norm>
0

>  <SCORE.heavy>
14

>  <SCORE.norm>
-0.354269

>  <RMSD>
1.505

$$$$
ligand
 OpenBabel11021811393D
libRbt.so/2013.1/901 2013/11/27
 14 13  0  0  0  0  0  0  0  0999 V2000
   -6.5105    2.8298    8.3876 N   0  0  0  0  0  0  0  0  0  0  0  0
   -5.6129    2.5757    9.5991 C   0  0  0  0  0  0  0  0  0  0  0  0
   -5.1257    1.1807    9.4466 C   0  0  0  0  0  0  0  0  0  0  0  0
   -4.2352    0.6955   10.5790 C   0  0  0  0  0  0  0  0  0  0  0  0
   -2.9982    1.5201   10.6261 N   0  0  0  0  0  0  0  0  0  0  0  0
   -1.9499    0.9225    9.6702 C   0  0  0  0  0  0  0  0  0  0  0  0
   -0.9729    0.1541   10.6836 C   0  0  0  0  0  0  0  0  0  0  0  0
    0.0288   -0.3610   10.0129 C   0  0  0  0  0  0  0  0  0  0  0  0
    0.7453   -1.1087   11.2814 C   0  0  0  0  0  0  0  0  0  0  0  0
    1.9982   -1.6678   10.5271 N   0  0  0  0  0  0  0  0  0  0  0  0
    2.6504   -2.9239   11.2313 C   0  0  0  0  0  0  0  0  0  0  0  0
    3.5997   -3.6283   10.1041 C   0  0  0  0  0  0  0  0  0  0  0  0
    4.1403   -4.8405   10.8052 C   0  0  0  0  0  0  0  0  0  0  0  0
    4.9661   -5.5652    9.7685 N   0  0  0  0  0  0  0  0  0  0  0  0
  1  2  1  0  0  0  0
  2  3  1  0  0  0  0
  3  4  1  0  0  0  0
  4  5  1  0  0  0  0
  5  6  1  0  0  0  0
  6  7  1  0  0  0  0
  7  8  1  0  0  0  0
  8  9  1  0  0  0  0
  9 10  1  0  0  0  0
 10 11  1  0  0  0  0
 11 12  1  0  0  0  0
 12 13  1  0  0  0  0
 13 14  1  0  0  0  0
M  END
>  <CHROM.1>
-178.27604008,-62.96292255,-86.75400076,-102.00642949,-176.82613303,-177.02249835
-176.85549529,-156.49832803,162.73433430,-177.56018291,176.93193627,-0.66261214
-0.72978278,10.19463021,2.79180223,-0.50394856,0.76947596

>  <Name>
ligand

>  <RI>
0

>  <Rbt.Current_Directory>
/home/itssahil/PROJECTS/Mol_Feturizer/New_Systems/rnas/1FUF

>  <Rbt.Executable>
rbdock ($Id: //depot/dev/client3/rdock/2013.1/src/exe/rbdock.cxx#4 $)

>  <Rbt.Library>
libRbt.so (2013.1, Build901 2013/11/27)

>  <Rbt.Parameter_File>
/export/apps/rDock/src/rDock_2013.1_src/data/scripts/dock_solv.prm

>  <Rbt.Receptor>
prm/pocket_docking_4.prm

>  <SCORE>
-5.22021

>  <SCORE.INTER>
-1.67006

>  <SCORE.INTER.CONST>
1

>  <SCORE.INTER.POLAR>
0

>  <SCORE.INTER.ROT>
11

>  <SCORE.INTER.SOLV>
16.6067

>  <SCORE.INTER.VDW>
-17.5823

>  <SCORE.INTER.norm>
-0.11929

>  <SCORE.INTRA>
-3.55015

>  <SCORE.INTRA.DIHEDRAL>
-8.28155

>  <SCORE.INTRA.DIHEDRAL.0>
10.5765

>  <SCORE.INTRA.POLAR>
0

>  <SCORE.INTRA.POLAR.0>
0

>  <SCORE.INTRA.REPUL>
0

>  <SCORE.INTRA.REPUL.0>
0

>  <SCORE.INTRA.SOLV>
0.213695

>  <SCORE.INTRA.SOLV.lig_0>
-50.1861

>  <SCORE.INTRA.VDW>
0.483783

>  <SCORE.INTRA.VDW.0>
-1.36671

>  <SCORE.INTRA.norm>
-0.253582

>  <SCORE.RESTR>
0

>  <SCORE.RESTR.CAVITY>
0

>  <SCORE.RESTR.norm>
0

>  <SCORE.SYSTEM>
0

>  <SCORE.SYSTEM.CONST>
0

>  <SCORE.SYSTEM.DIHEDRAL>
0

>  <SCORE.SYSTEM.SOLV>
0

>  <SCORE.SYSTEM.norm>
0

>  <SCORE.heavy>
14

>  <SCORE.norm>
-0.372872

>  <RMSD>
1.505

$$$$
ligand
 OpenBabel11021811393D
libRbt.so/2013.1/901 2013/11/27
 14 13  0  0  0  0  0  0  0  0999 V2000
   -5.8791    1.2936   10.1360 N   0  0  0  0  0  0  0  0  0  0  0  0
   -4.4863    1.6611    9.6230 C   0  0  0  0  0  0  0  0  0  0  0  0
   -3.5503    0.7469   10.3264 C   0  0  0  0  0  0  0  0  0  0  0  0
   -2.1173    0.8002    9.8221 C   0  0  0  0  0  0  0  0  0  0  0  0
   -1.2787   -0.1432   10.6089 N   0  0  0  0  0  0  0  0  0  0  0  0
    0.0139   -0.4481    9.8303 C   0  0  0  0  0  0  0  0  0  0  0  0
    0.8635   -1.2810   10.9056 C   0  0  0  0  0  0  0  0  0  0  0  0
    1.8593   -1.8811   10.3000 C   0  0  0  0  0  0  0  0  0  0  0  0
    2.5542   -2.5052   11.6451 C   0  0  0  0  0  0  0  0  0  0  0  0
    3.5517   -3.4857   10.9416 N   0  0  0  0  0  0  0  0  0  0  0  0
    3.0254   -4.9744   10.8653 C   0  0  0  0  0  0  0  0  0  0  0  0
    4.2732   -5.8636   10.2994 C   0  0  0  0  0  0  0  0  0  0  0  0
    4.2903   -5.5536    8.8308 C   0  0  0  0  0  0  0  0  0  0  0  0
    4.8656   -4.1610    8.7242 N   0  0  0  0  0  0  0  0  0  0  0  0
  1  2  1  0  0  0  0
  2  3  1  0  0  0  0
  3  4  1  0  0  0  0
  4  5  1  0  0  0  0
  5  6  1  0  0  0  0
  6  7  1  0  0  0  0
  7  8  1  0  0  0  0
  8  9  1  0  0  0  0
  9 10  1  0  0  0  0
 10 11  1  0  0  0  0
 11 12  1  0  0  0  0
 12 13  1  0  0  0  0
 13 14  1  0  0  0  0
M  END
>  <CHROM.1>
171.71516469,179.42502055,161.16623827,171.97153582,165.38042899,175.74568837
167.99641397,-97.72933045,-172.29188243,-76.65044376,74.62325858,0.57049053
-1.84259773,10.20424310,2.76890649,-0.51939678,0.91439622

>  <Name>
ligand

>  <RI>
0

>  <Rbt.Current_Directory>
/home/itssahil/PROJECTS/Mol_Feturizer/New_Systems/rnas/1FUF

>  <Rbt.Executable>
rbdock ($Id: //depot/dev/client3/rdock/2013.1/src/exe/rbdock.cxx#4 $)

>  <Rbt.Library>
libRbt.so (2013.1, Build901 2013/11/27)

>  <Rbt.Parameter_File>
/export/apps/rDock/src/rDock_2013.1_src/data/scripts/dock_solv.prm

>  <Rbt.Receptor>
prm/pocket_docking_2.prm

>  <SCORE>
-2.34489

>  <SCORE.INTER>
-1.53789

>  <SCORE.INTER.CONST>
1

>  <SCORE.INTER.POLAR>
0

>  <SCORE.INTER.ROT>
11

>  <SCORE.INTER.SOLV>
18.3075

>  <SCORE.INTER.VDW>
-18.0611

>  <SCORE.INTER.norm>
-0.109849

>  <SCORE.INTRA>
-0.852143

>  <SCORE.INTRA.DIHEDRAL>
-5.98674

>  <SCORE.INTRA.DIHEDRAL.0>
10.5765

>  <SCORE.INTRA.POLAR>
0

>  <SCORE.INTRA.POLAR.0>
0

>  <SCORE.INTRA.REPUL>
0

>  <SCORE.INTRA.REPUL.0>
0

>  <SCORE.INTRA.SOLV>
3.59909

>  <SCORE.INTRA.SOLV.lig_0>
-50.1861

>  <SCORE.INTRA.VDW>
0.34168

>  <SCORE.INTRA.VDW.0>
-1.36671

>  <SCORE.INTRA.norm>
-0.0608674

>  <SCORE.RESTR>
0.0451476

>  <SCORE.RESTR.CAVITY>
0.0451476

>  <SCORE.RESTR.norm>
0.00322483

>  <SCORE.SYSTEM>
0

>  <SCORE.SYSTEM.CONST>
0

>  <SCORE.SYSTEM.DIHEDRAL>
0

>  <SCORE.SYSTEM.SOLV>
0

>  <SCORE.SYSTEM.norm>
0

>  <SCORE.heavy>
14

>  <SCORE.norm>
-0.167492

>  <RMSD>
1.507

$$$$
ligand
 OpenBabel11021811393D
libRbt.so/2013.1/901 2013/11/27
 14 13  0  0  0  0  0  0  0  0999 V2000
    5.3825   -6.9615    8.1051 N   0  0  0  0  0  0  0  0  0  0  0  0
    4.1972   -6.7882    9.0553 C   0  0  0  0  0  0  0  0  0  0  0  0
    3.9971   -5.3213    9.1769 C   0  0  0  0  0  0  0  0  0  0  0  0
    2.8725   -4.9130   10.1146 C   0  0  0  0  0  0  0  0  0  0  0  0
    2.7350   -3.4320   10.1097 N   0  0  0  0  0  0  0  0  0  0  0  0
    1.2807   -3.0535   10.4440 C   0  0  0  0  0  0  0  0  0  0  0  0
    1.4458   -1.5642   11.0157 C   0  0  0  0  0  0  0  0  0  0  0  0
    0.2772   -1.1195   11.4097 C   0  0  0  0  0  0  0  0  0  0  0  0
   -0.1339   -0.3875   10.0038 C   0  0  0  0  0  0  0  0  0  0  0  0
   -1.5762    0.0686   10.4078 N   0  0  0  0  0  0  0  0  0  0  0  0
   -2.2875    0.9575    9.3110 C   0  0  0  0  0  0  0  0  0  0  0  0
   -3.8018    1.2245    9.8619 C   0  0  0  0  0  0  0  0  0  0  0  0
   -4.4223    2.0743    8.7914 C   0  0  0  0  0  0  0  0  0  0  0  0
   -5.8670    2.2391    9.2010 N   0  0  0  0  0  0  0  0  0  0  0  0
  1  2  1  0  0  0  0
  2  3  1  0  0  0  0
  3  4  1  0  0  0  0
  4  5  1  0  0  0  0
  5  6  1  0  0  0  0
  6  7  1  0  0  0  0
  7  8  1  0  0  0  0
  8  9  1  0  0  0  0
  9 10  1  0  0  0  0
 10 11  1  0  0  0  0
 11 12  1  0  0  0  0
 12 13  1  0  0  0  0
 13 14  1  0  0  0  0
M  END
>  <CHROM.1>
-178.62414880,-177.71617218,152.41327181,156.28630438,-177.02861959,-92.71640406
176.13665020,174.83620138,175.57762112,179.66483883,174.93458671,0.29284848
-1.92685399,9.78640856,0.44228628,0.61507041,-2.22193239

>  <Name>
ligand

>  <RI>
0

>  <Rbt.Current_Directory>
/home/itssahil/PROJECTS/Mol_Feturizer/New_Systems/rnas/1FUF

>  <Rbt.Executable>
rbdock ($Id: //depot/dev/client3/rdock/2013.1/src/exe/rbdock.cxx#4 $)

>  <Rbt.Library>
libRbt.so (2013.1, Build901 2013/11/27)

>  <Rbt.Parameter_File>
/export/apps/rDock/src/rDock_2013.1_src/data/scripts/dock_solv.prm

>  <Rbt.Receptor>
prm/pocket_docking_3.prm

>  <SCORE>
-4.05583

>  <SCORE.INTER>
-1.93509

>  <SCORE.INTER.CONST>
1

>  <SCORE.INTER.POLAR>
0

>  <SCORE.INTER.ROT>
11

>  <SCORE.INTER.SOLV>
15.1408

>  <SCORE.INTER.VDW>
-17.2703

>  <SCORE.INTER.norm>
-0.138221

>  <SCORE.INTRA>
-2.12074

>  <SCORE.INTRA.DIHEDRAL>
-5.90104

>  <SCORE.INTRA.DIHEDRAL.0>
10.5765

>  <SCORE.INTRA.POLAR>
0

>  <SCORE.INTRA.POLAR.0>
0

>  <SCORE.INTRA.REPUL>
0

>  <SCORE.INTRA.REPUL.0>
0

>  <SCORE.INTRA.SOLV>
0.18962

>  <SCORE.INTRA.SOLV.lig_0>
-50.1861

>  <SCORE.INTRA.VDW>
0.734973

>  <SCORE.INTRA.VDW.0>
-1.36671

>  <SCORE.INTRA.norm>
-0.151481

>  <SCORE.RESTR>
0

>  <SCORE.RESTR.CAVITY>
0

>  <SCORE.RESTR.norm>
0

>  <SCORE.SYSTEM>
0

>  <SCORE.SYSTEM.CONST>
0

>  <SCORE.SYSTEM.DIHEDRAL>
0

>  <SCORE.SYSTEM.SOLV>
0

>  <SCORE.SYSTEM.norm>
0

>  <SCORE.heavy>
14

>  <SCORE.norm>
-0.289702

>  <RMSD>
1.509

$$$$
ligand
 OpenBabel11021811393D
libRbt.so/2013.1/901 2013/11/27
 14 13  0  0  0  0  0  0  0  0999 V2000
   -5.3318    2.6754    8.1358 N   0  0  0  0  0  0  0  0  0  0  0  0
   -4.8525    2.0128    9.4278 C   0  0  0  0  0  0  0  0  0  0  0  0
   -3.5032    1.4730    9.1202 C   0  0  0  0  0  0  0  0  0  0  0  0
   -2.8591    0.6972   10.2577 C   0  0  0  0  0  0  0  0  0  0  0  0
   -1.4950    0.2639    9.8532 N   0  0  0  0  0  0  0  0  0  0  0  0
   -0.8676   -0.5693   10.9854 C   0  0  0  0  0  0  0  0  0  0  0  0
    0.5223   -1.0298   10.3311 C   0  0  0  0  0  0  0  0  0  0  0  0
    1.1811   -1.7698   11.1896 C   0  0  0  0  0  0  0  0  0  0  0  0
    2.5088   -2.0060   10.2605 C   0  0  0  0  0  0  0  0  0  0  0  0
    3.3212   -2.8948   11.2612 N   0  0  0  0  0  0  0  0  0  0  0  0
    3.1560   -4.4460   11.0051 C   0  0  0  0  0  0  0  0  0  0  0  0
    4.2098   -4.8194    9.8143 C   0  0  0  0  0  0  0  0  0  0  0  0
    3.9940   -6.2893    9.5999 C   0  0  0  0  0  0  0  0  0  0  0  0
    4.9203   -6.6671    8.4680 N   0  0  0  0  0  0  0  0  0  0  0  0
  1  2  1  0  0  0  0
  2  3  1  0  0  0  0
  3  4  1  0  0  0  0
  4  5  1  0  0  0  0
  5  6  1  0  0  0  0
  6  7  1  0  0  0  0
  7  8  1  0  0  0  0
  8  9  1  0  0  0  0
  9 10  1  0  0  0  0
 10 11  1  0  0  0  0
 11 12  1  0  0  0  0
 12 13  1  0  0  0  0
 13 14  1  0  0  0  0
M  END
>  <CHROM.1>
-176.89812895,-177.42309402,-177.75034746,175.87603381,-179.63066454,-178.03889903
-179.88410634,95.87306930,82.74871268,-179.11840529,178.10496642,0.35029654
-1.66924175,9.97950184,2.78851123,-0.62749034,0.92486444

>  <Name>
ligand

>  <RI>
0

>  <Rbt.Current_Directory>
/home/itssahil/PROJECTS/Mol_Feturizer/New_Systems/rnas/1FUF

>  <Rbt.Executable>
rbdock ($Id: //depot/dev/client3/rdock/2013.1/src/exe/rbdock.cxx#4 $)

>  <Rbt.Library>
libRbt.so (2013.1, Build901 2013/11/27)

>  <Rbt.Parameter_File>
/export/apps/rDock/src/rDock_2013.1_src/data/scripts/dock_solv.prm

>  <Rbt.Receptor>
prm/blind_docking_40.prm

>  <SCORE>
-6.57509

>  <SCORE.INTER>
-2.04758

>  <SCORE.INTER.CONST>
1

>  <SCORE.INTER.POLAR>
0

>  <SCORE.INTER.ROT>
11

>  <SCORE.INTER.SOLV>
15.6284

>  <SCORE.INTER.VDW>
-17.5078

>  <SCORE.INTER.norm>
-0.146255

>  <SCORE.INTRA>
-4.52752

>  <SCORE.INTRA.DIHEDRAL>
-9.30453

>  <SCORE.INTRA.DIHEDRAL.0>
10.5765

>  <SCORE.INTRA.POLAR>
0

>  <SCORE.INTRA.POLAR.0>
0

>  <SCORE.INTRA.REPUL>
0

>  <SCORE.INTRA.REPUL.0>
0

>  <SCORE.INTRA.SOLV>
-0.147348

>  <SCORE.INTRA.SOLV.lig_0>
-50.1861

>  <SCORE.INTRA.VDW>
0.19842

>  <SCORE.INTRA.VDW.0>
-1.36671

>  <SCORE.INTRA.norm>
-0.323394

>  <SCORE.RESTR>
0

>  <SCORE.RESTR.CAVITY>
0

>  <SCORE.RESTR.norm>
0

>  <SCORE.SYSTEM>
0

>  <SCORE.SYSTEM.CONST>
0

>  <SCORE.SYSTEM.DIHEDRAL>
0

>  <SCORE.SYSTEM.SOLV>
0

>  <SCORE.SYSTEM.norm>
0

>  <SCORE.heavy>
14

>  <SCORE.norm>
-0.46965

>  <RMSD>
1.533

$$$$
ligand
 OpenBabel11021811393D
libRbt.so/2013.1/901 2013/11/27
 14 13  0  0  0  0  0  0  0  0999 V2000
    5.9734   -5.9946    8.0611 N   0  0  0  0  0  0  0  0  0  0  0  0
    5.6515   -5.0284    9.2017 C   0  0  0  0  0  0  0  0  0  0  0  0
    4.4495   -5.5898    9.8700 C   0  0  0  0  0  0  0  0  0  0  0  0
    3.9100   -4.7449   11.0127 C   0  0  0  0  0  0  0  0  0  0  0  0
    3.4588   -3.4287   10.4871 N   0  0  0  0  0  0  0  0  0  0  0  0
    2.5443   -2.7515   11.5239 C   0  0  0  0  0  0  0  0  0  0  0  0
    1.6060   -1.8393   10.5969 C   0  0  0  0  0  0  0  0  0  0  0  0
    0.7785   -1.1600   11.3536 C   0  0  0  0  0  0  0  0  0  0  0  0
   -0.0204   -0.4081   10.1378 C   0  0  0  0  0  0  0  0  0  0  0  0
   -0.9773    0.4686   11.0137 N   0  0  0  0  0  0  0  0  0  0  0  0
   -2.0771    1.2338   10.1746 C   0  0  0  0  0  0  0  0  0  0  0  0
   -3.2947    0.1680    9.9522 C   0  0  0  0  0  0  0  0  0  0  0  0
   -4.1483    0.8207    8.9041 C   0  0  0  0  0  0  0  0  0  0  0  0
   -4.7748    2.0137    9.5867 N   0  0  0  0  0  0  0  0  0  0  0  0
  1  2  1  0  0  0  0
  2  3  1  0  0  0  0
  3  4  1  0  0  0  0
  4  5  1  0  0  0  0
  5  6  1  0  0  0  0
  6  7  1  0  0  0  0
  7  8  1  0  0  0  0
  8  9  1  0  0  0  0
  9 10  1  0  0  0  0
 10 11  1  0  0  0  0
 11 12  1  0  0  0  0
 12 13  1  0  0  0  0
 13 14  1  0  0  0  0
M  END
>  <CHROM.1>
-177.40881811,63.19986507,163.10609461,-152.16954965,-178.36532191,-178.45758081
-177.45115649,-172.39647451,83.76256395,-167.41294119,-69.41289571,0.93425017
-1.87436843,10.13415323,0.27970528,0.58734461,-2.01869252

>  <Name>
ligand

>  <RI>
0

>  <Rbt.Current_Directory>
/home/itssahil/PROJECTS/Mol_Feturizer/New_Systems/rnas/1FUF

>  <Rbt.Executable>
rbdock ($Id: //depot/dev/client3/rdock/2013.1/src/exe/rbdock.cxx#4 $)

>  <Rbt.Library>
libRbt.so (2013.1, Build901 2013/11/27)

>  <Rbt.Parameter_File>
/export/apps/rDock/src/rDock_2013.1_src/data/scripts/dock_solv.prm

>  <Rbt.Receptor>
prm/pocket_docking_2.prm

>  <SCORE>
-3.85215

>  <SCORE.INTER>
-0.76878

>  <SCORE.INTER.CONST>
1

>  <SCORE.INTER.POLAR>
0

>  <SCORE.INTER.ROT>
11

>  <SCORE.INTER.SOLV>
16.0418

>  <SCORE.INTER.VDW>
-16.7931

>  <SCORE.INTER.norm>
-0.0549128

>  <SCORE.INTRA>
-3.08337

>  <SCORE.INTRA.DIHEDRAL>
-8.35508

>  <SCORE.INTRA.DIHEDRAL.0>
10.5765

>  <SCORE.INTRA.POLAR>
0

>  <SCORE.INTRA.POLAR.0>
0

>  <SCORE.INTRA.REPUL>
0

>  <SCORE.INTRA.REPUL.0>
0

>  <SCORE.INTRA.SOLV>
1.12982

>  <SCORE.INTRA.SOLV.lig_0>
-50.1861

>  <SCORE.INTRA.VDW>
0.529259

>  <SCORE.INTRA.VDW.0>
-1.36671

>  <SCORE.INTRA.norm>
-0.220241

>  <SCORE.RESTR>
0

>  <SCORE.RESTR.CAVITY>
0

>  <SCORE.RESTR.norm>
0

>  <SCORE.SYSTEM>
0

>  <SCORE.SYSTEM.CONST>
0

>  <SCORE.SYSTEM.DIHEDRAL>
0

>  <SCORE.SYSTEM.SOLV>
0

>  <SCORE.SYSTEM.norm>
0

>  <SCORE.heavy>
14

>  <SCORE.norm>
-0.275154

>  <RMSD>
1.536

$$$$
ligand
 OpenBabel11021811393D
libRbt.so/2013.1/901 2013/11/27
 14 13  0  0  0  0  0  0  0  0999 V2000
    5.8689   -4.5432   10.4920 N   0  0  0  0  0  0  0  0  0  0  0  0
    4.8116   -4.7919    9.4157 C   0  0  0  0  0  0  0  0  0  0  0  0
    4.0517   -3.5204    9.3045 C   0  0  0  0  0  0  0  0  0  0  0  0
    3.2205   -3.1725   10.5287 C   0  0  0  0  0  0  0  0  0  0  0  0
    2.4648   -1.9167   10.2753 N   0  0  0  0  0  0  0  0  0  0  0  0
    1.1151   -1.9757   11.0133 C   0  0  0  0  0  0  0  0  0  0  0  0
    0.3115   -0.7631   10.3381 C   0  0  0  0  0  0  0  0  0  0  0  0
   -0.9109   -0.7370   10.8109 C   0  0  0  0  0  0  0  0  0  0  0  0
   -1.4360    0.5301    9.9162 C   0  0  0  0  0  0  0  0  0  0  0  0
   -2.9438    0.4845   10.3355 N   0  0  0  0  0  0  0  0  0  0  0  0
   -3.7294    1.8178   10.0126 C   0  0  0  0  0  0  0  0  0  0  0  0
   -3.9987    1.8017    8.4017 C   0  0  0  0  0  0  0  0  0  0  0  0
   -4.8173    3.0380    8.1681 C   0  0  0  0  0  0  0  0  0  0  0  0
   -5.0956    3.0571    6.6835 N   0  0  0  0  0  0  0  0  0  0  0  0
  1  2  1  0  0  0  0
  2  3  1  0  0  0  0
  3  4  1  0  0  0  0
  4  5  1  0  0  0  0
  5  6  1  0  0  0  0
  6  7  1  0  0  0  0
  7  8  1  0  0  0  0
  8  9  1  0  0  0  0
  9 10  1  0  0  0  0
 10 11  1  0  0  0  0
 11 12  1  0  0  0  0
 12 13  1  0  0  0  0
 13 14  1  0  0  0  0
M  END
>  <CHROM.1>
-67.38724756,-177.57164281,147.02664628,-166.06076915,175.97397013,-178.39043151
173.81673381,162.89028080,75.89251369,176.53659294,-179.71234757,-0.07775838
-0.76368098,9.69267495,-0.23537210,0.59259952,-1.41926605

>  <Name>
ligand

>  <RI>
0

>  <Rbt.Current_Directory>
/home/itssahil/PROJECTS/Mol_Feturizer/New_Systems/rnas/1FUF

>  <Rbt.Executable>
rbdock ($Id: //depot/dev/client3/rdock/2013.1/src/exe/rbdock.cxx#4 $)

>  <Rbt.Library>
libRbt.so (2013.1, Build901 2013/11/27)

>  <Rbt.Parameter_File>
/export/apps/rDock/src/rDock_2013.1_src/data/scripts/dock_solv.prm

>  <Rbt.Receptor>
prm/pocket_docking_5.prm

>  <SCORE>
-4.18001

>  <SCORE.INTER>
-0.484362

>  <SCORE.INTER.CONST>
1

>  <SCORE.INTER.POLAR>
0

>  <SCORE.INTER.ROT>
11

>  <SCORE.INTER.SOLV>
20.1364

>  <SCORE.INTER.VDW>
-17.9684

>  <SCORE.INTER.norm>
-0.0345973

>  <SCORE.INTRA>
-3.69565

>  <SCORE.INTRA.DIHEDRAL>
-8.82239

>  <SCORE.INTRA.DIHEDRAL.0>
10.5765

>  <SCORE.INTRA.POLAR>
0

>  <SCORE.INTRA.POLAR.0>
0

>  <SCORE.INTRA.REPUL>
0

>  <SCORE.INTRA.REPUL.0>
0

>  <SCORE.INTRA.SOLV>
0.681031

>  <SCORE.INTRA.SOLV.lig_0>
-50.1861

>  <SCORE.INTRA.VDW>
0.375033

>  <SCORE.INTRA.VDW.0>
-1.36671

>  <SCORE.INTRA.norm>
-0.263975

>  <SCORE.RESTR>
0

>  <SCORE.RESTR.CAVITY>
0

>  <SCORE.RESTR.norm>
0

>  <SCORE.SYSTEM>
0

>  <SCORE.SYSTEM.CONST>
0

>  <SCORE.SYSTEM.DIHEDRAL>
0

>  <SCORE.SYSTEM.SOLV>
0

>  <SCORE.SYSTEM.norm>
0

>  <SCORE.heavy>
14

>  <SCORE.norm>
-0.298572

>  <RMSD>
1.536

$$$$
ligand
 OpenBabel11021811393D
libRbt.so/2013.1/901 2013/11/27
 14 13  0  0  0  0  0  0  0  0999 V2000
   -6.0662    3.3240    8.1852 N   0  0  0  0  0  0  0  0  0  0  0  0
   -5.8394    2.1247    9.1061 C   0  0  0  0  0  0  0  0  0  0  0  0
   -4.4143    2.2043    9.5178 C   0  0  0  0  0  0  0  0  0  0  0  0
   -3.9272    1.0215   10.3389 C   0  0  0  0  0  0  0  0  0  0  0  0
   -2.5450    1.2866   10.8200 N   0  0  0  0  0  0  0  0  0  0  0  0
   -1.5345    0.7034    9.8157 C   0  0  0  0  0  0  0  0  0  0  0  0
   -0.5864   -0.1738   10.7663 C   0  0  0  0  0  0  0  0  0  0  0  0
    0.4464   -0.5955   10.0778 C   0  0  0  0  0  0  0  0  0  0  0  0
    1.0781   -1.5533   11.2463 C   0  0  0  0  0  0  0  0  0  0  0  0
    2.2940   -2.1151   10.4356 N   0  0  0  0  0  0  0  0  0  0  0  0
    2.9501   -3.3966   11.0886 C   0  0  0  0  0  0  0  0  0  0  0  0
    4.3092   -3.6914   10.2320 C   0  0  0  0  0  0  0  0  0  0  0  0
    4.8544   -4.9437   10.8547 C   0  0  0  0  0  0  0  0  0  0  0  0
    3.9108   -6.0438   10.4289 N   0  0  0  0  0  0  0  0  0  0  0  0
  1  2  1  0  0  0  0
  2  3  1  0  0  0  0
  3  4  1  0  0  0  0
  4  5  1  0  0  0  0
  5  6  1  0  0  0  0
  6  7  1  0  0  0  0
  7  8  1  0  0  0  0
  8  9  1  0  0  0  0
  9 10  1  0  0  0  0
 10 11  1  0  0  0  0
 11 12  1  0  0  0  0
 12 13  1  0  0  0  0
 13 14  1  0  0  0  0
M  END
>  <CHROM.1>
-174.31380189,-173.55360353,-92.70904318,-128.50833823,-171.41067190,-173.96039741
178.14067629,-164.09965106,-171.92372630,-177.66398902,71.17458029,-0.36204737
-0.84633421,10.20822932,2.64938533,-0.44750735,0.47859119

>  <Name>
ligand

>  <RI>
0

>  <Rbt.Current_Directory>
/home/itssahil/PROJECTS/Mol_Feturizer/New_Systems/rnas/1FUF

>  <Rbt.Executable>
rbdock ($Id: //depot/dev/client3/rdock/2013.1/src/exe/rbdock.cxx#4 $)

>  <Rbt.Library>
libRbt.so (2013.1, Build901 2013/11/27)

>  <Rbt.Parameter_File>
/export/apps/rDock/src/rDock_2013.1_src/data/scripts/dock_solv.prm

>  <Rbt.Receptor>
prm/pocket_docking_8.prm

>  <SCORE>
-4.00184

>  <SCORE.INTER>
-1.29547

>  <SCORE.INTER.CONST>
1

>  <SCORE.INTER.POLAR>
0

>  <SCORE.INTER.ROT>
11

>  <SCORE.INTER.SOLV>
19.4465

>  <SCORE.INTER.VDW>
-18.2792

>  <SCORE.INTER.norm>
-0.0925334

>  <SCORE.INTRA>
-2.70637

>  <SCORE.INTRA.DIHEDRAL>
-7.30502

>  <SCORE.INTRA.DIHEDRAL.0>
10.5765

>  <SCORE.INTRA.POLAR>
0

>  <SCORE.INTRA.POLAR.0>
0

>  <SCORE.INTRA.REPUL>
0

>  <SCORE.INTRA.REPUL.0>
0

>  <SCORE.INTRA.SOLV>
0.813482

>  <SCORE.INTRA.SOLV.lig_0>
-50.1861

>  <SCORE.INTRA.VDW>
0.5394

>  <SCORE.INTRA.VDW.0>
-1.36671

>  <SCORE.INTRA.norm>
-0.193312

>  <SCORE.RESTR>
0

>  <SCORE.RESTR.CAVITY>
0

>  <SCORE.RESTR.norm>
0

>  <SCORE.SYSTEM>
0

>  <SCORE.SYSTEM.CONST>
0

>  <SCORE.SYSTEM.DIHEDRAL>
0

>  <SCORE.SYSTEM.SOLV>
0

>  <SCORE.SYSTEM.norm>
0

>  <SCORE.heavy>
14

>  <SCORE.norm>
-0.285845

>  <RMSD>
1.536

$$$$
ligand
 OpenBabel11021811393D
libRbt.so/2013.1/901 2013/11/27
 14 13  0  0  0  0  0  0  0  0999 V2000
    4.5061   -6.8119    8.3414 N   0  0  0  0  0  0  0  0  0  0  0  0
    3.8147   -6.1575    9.5379 C   0  0  0  0  0  0  0  0  0  0  0  0
    4.5640   -4.9000    9.7904 C   0  0  0  0  0  0  0  0  0  0  0  0
    4.1363   -4.1504   11.0417 C   0  0  0  0  0  0  0  0  0  0  0  0
    2.7133   -3.7377   10.9112 N   0  0  0  0  0  0  0  0  0  0  0  0
    2.6452   -2.3275   10.2974 C   0  0  0  0  0  0  0  0  0  0  0  0
    1.1660   -1.8580   10.7016 C   0  0  0  0  0  0  0  0  0  0  0  0
    0.9308   -0.6758   10.1860 C   0  0  0  0  0  0  0  0  0  0  0  0
   -0.5972   -0.5191   10.7539 C   0  0  0  0  0  0  0  0  0  0  0  0
   -0.9759    0.8011   10.0023 N   0  0  0  0  0  0  0  0  0  0  0  0
   -2.2937    1.4826   10.5484 C   0  0  0  0  0  0  0  0  0  0  0  0
   -3.5086    0.9298    9.6070 C   0  0  0  0  0  0  0  0  0  0  0  0
   -4.6690    1.8074    9.9766 C   0  0  0  0  0  0  0  0  0  0  0  0
   -5.8137    1.3409    9.1084 N   0  0  0  0  0  0  0  0  0  0  0  0
  1  2  1  0  0  0  0
  2  3  1  0  0  0  0
  3  4  1  0  0  0  0
  4  5  1  0  0  0  0
  5  6  1  0  0  0  0
  6  7  1  0  0  0  0
  7  8  1  0  0  0  0
  8  9  1  0  0  0  0
  9 10  1  0  0  0  0
 10 11  1  0  0  0  0
 11 12  1  0  0  0  0
 12 13  1  0  0  0  0
 13 14  1  0  0  0  0
M  END
>  <CHROM.1>
-173.82210630,-62.09166123,-91.63054546,-160.99989452,-177.02400910,179.37531683
-173.07835173,-166.56150196,-93.99675523,-168.82927668,179.14614450,0.47287208
-1.76957892,10.05763316,0.58635979,0.39304339,-2.61076088

>  <Name>
ligand

>  <RI>
0

>  <Rbt.Current_Directory>
/home/itssahil/PROJECTS/Mol_Feturizer/New_Systems/rnas/1FUF

>  <Rbt.Executable>
rbdock ($Id: //depot/dev/client3/rdock/2013.1/src/exe/rbdock.cxx#4 $)

>  <Rbt.Library>
libRbt.so (2013.1, Build901 2013/11/27)

>  <Rbt.Parameter_File>
/export/apps/rDock/src/rDock_2013.1_src/data/scripts/dock_solv.prm

>  <Rbt.Receptor>
prm/pocket_docking_5.prm

>  <SCORE>
-5.02384

>  <SCORE.INTER>
-1.47046

>  <SCORE.INTER.CONST>
1

>  <SCORE.INTER.POLAR>
0

>  <SCORE.INTER.ROT>
11

>  <SCORE.INTER.SOLV>
15.8782

>  <SCORE.INTER.VDW>
-17.2064

>  <SCORE.INTER.norm>
-0.105033

>  <SCORE.INTRA>
-3.55338

>  <SCORE.INTRA.DIHEDRAL>
-7.94934

>  <SCORE.INTRA.DIHEDRAL.0>
10.5765

>  <SCORE.INTRA.POLAR>
0

>  <SCORE.INTRA.POLAR.0>
0

>  <SCORE.INTRA.REPUL>
0

>  <SCORE.INTRA.REPUL.0>
0

>  <SCORE.INTRA.SOLV>
0.202227

>  <SCORE.INTRA.SOLV.lig_0>
-50.1861

>  <SCORE.INTRA.VDW>
0.320182

>  <SCORE.INTRA.VDW.0>
-1.36671

>  <SCORE.INTRA.norm>
-0.253813

>  <SCORE.RESTR>
0

>  <SCORE.RESTR.CAVITY>
0

>  <SCORE.RESTR.norm>
0

>  <SCORE.SYSTEM>
0

>  <SCORE.SYSTEM.CONST>
0

>  <SCORE.SYSTEM.DIHEDRAL>
0

>  <SCORE.SYSTEM.SOLV>
0

>  <SCORE.SYSTEM.norm>
0

>  <SCORE.heavy>
14

>  <SCORE.norm>
-0.358846

>  <RMSD>
1.537

$$$$
ligand
 OpenBabel11021811393D
libRbt.so/2013.1/901 2013/11/27
 14 13  0  0  0  0  0  0  0  0999 V2000
    4.7716   -5.0646    9.4670 N   0  0  0  0  0  0  0  0  0  0  0  0
    4.3016   -3.6776    9.9068 C   0  0  0  0  0  0  0  0  0  0  0  0
    3.3643   -3.9153   11.0345 C   0  0  0  0  0  0  0  0  0  0  0  0
    2.7464   -2.6551   11.6183 C   0  0  0  0  0  0  0  0  0  0  0  0
    1.8028   -2.0624   10.6331 N   0  0  0  0  0  0  0  0  0  0  0  0
    0.8930   -1.0456   11.3459 C   0  0  0  0  0  0  0  0  0  0  0  0
    0.0150   -0.4738   10.1317 C   0  0  0  0  0  0  0  0  0  0  0  0
   -0.8607    0.3839   10.5967 C   0  0  0  0  0  0  0  0  0  0  0  0
   -1.6229    0.6697    9.1758 C   0  0  0  0  0  0  0  0  0  0  0  0
   -2.7145    1.6581    9.7076 N   0  0  0  0  0  0  0  0  0  0  0  0
   -3.9254    0.9358   10.4226 C   0  0  0  0  0  0  0  0  0  0  0  0
   -5.2215    1.1691    9.4564 C   0  0  0  0  0  0  0  0  0  0  0  0
   -5.4404    2.6530    9.5113 C   0  0  0  0  0  0  0  0  0  0  0  0
   -6.7135    2.8969    8.7358 N   0  0  0  0  0  0  0  0  0  0  0  0
  1  2  1  0  0  0  0
  2  3  1  0  0  0  0
  3  4  1  0  0  0  0
  4  5  1  0  0  0  0
  5  6  1  0  0  0  0
  6  7  1  0  0  0  0
  7  8  1  0  0  0  0
  8  9  1  0  0  0  0
  9 10  1  0  0  0  0
 10 11  1  0  0  0  0
 11 12  1  0  0  0  0
 12 13  1  0  0  0  0
 13 14  1  0  0  0  0
M  END
>  <CHROM.1>
-178.89207641,69.16446577,164.02998123,177.34601202,177.56041231,-176.13951507
178.09488269,-79.10992423,-112.17046894,-65.45594177,-174.70149351,-0.61454842
-0.60911973,10.12473074,0.16529649,0.56666585,-2.05213952

>  <Name>
ligand

>  <RI>
0

>  <Rbt.Current_Directory>
/home/itssahil/PROJECTS/Mol_Feturizer/New_Systems/rnas/1FUF

>  <Rbt.Executable>
rbdock ($Id: //depot/dev/client3/rdock/2013.1/src/exe/rbdock.cxx#4 $)

>  <Rbt.Library>
libRbt.so (2013.1, Build901 2013/11/27)

>  <Rbt.Parameter_File>
/export/apps/rDock/src/rDock_2013.1_src/data/scripts/dock_solv.prm

>  <Rbt.Receptor>
prm/pocket_docking_4.prm

>  <SCORE>
-5.09001

>  <SCORE.INTER>
-1.95791

>  <SCORE.INTER.CONST>
1

>  <SCORE.INTER.POLAR>
0

>  <SCORE.INTER.ROT>
11

>  <SCORE.INTER.SOLV>
15.0701

>  <SCORE.INTER.VDW>
-17.262

>  <SCORE.INTER.norm>
-0.139851

>  <SCORE.INTRA>
-3.1321

>  <SCORE.INTRA.DIHEDRAL>
-8.31422

>  <SCORE.INTRA.DIHEDRAL.0>
10.5765

>  <SCORE.INTRA.POLAR>
0

>  <SCORE.INTRA.POLAR.0>
0

>  <SCORE.INTRA.REPUL>
0

>  <SCORE.INTRA.REPUL.0>
0

>  <SCORE.INTRA.SOLV>
0.671931

>  <SCORE.INTRA.SOLV.lig_0>
-50.1861

>  <SCORE.INTRA.VDW>
0.689048

>  <SCORE.INTRA.VDW.0>
-1.36671

>  <SCORE.INTRA.norm>
-0.223721

>  <SCORE.RESTR>
0

>  <SCORE.RESTR.CAVITY>
0

>  <SCORE.RESTR.norm>
0

>  <SCORE.SYSTEM>
0

>  <SCORE.SYSTEM.CONST>
0

>  <SCORE.SYSTEM.DIHEDRAL>
0

>  <SCORE.SYSTEM.SOLV>
0

>  <SCORE.SYSTEM.norm>
0

>  <SCORE.heavy>
14

>  <SCORE.norm>
-0.363572

>  <RMSD>
1.540

$$$$
ligand
 OpenBabel11021811393D
libRbt.so/2013.1/901 2013/11/27
 14 13  0  0  0  0  0  0  0  0999 V2000
    5.3122   -5.2200    9.5918 N   0  0  0  0  0  0  0  0  0  0  0  0
    4.4568   -4.6307   10.7139 C   0  0  0  0  0  0  0  0  0  0  0  0
    3.6607   -3.5487   10.0796 C   0  0  0  0  0  0  0  0  0  0  0  0
    2.7162   -2.8231   11.0240 C   0  0  0  0  0  0  0  0  0  0  0  0
    1.9043   -1.8411   10.2567 N   0  0  0  0  0  0  0  0  0  0  0  0
    0.7149   -1.3788   11.1178 C   0  0  0  0  0  0  0  0  0  0  0  0
   -0.1279   -0.4959   10.0776 C   0  0  0  0  0  0  0  0  0  0  0  0
   -1.2327   -0.0865   10.6523 C   0  0  0  0  0  0  0  0  0  0  0  0
   -1.8203    0.7443    9.3693 C   0  0  0  0  0  0  0  0  0  0  0  0
   -3.1857    1.1819    9.9983 N   0  0  0  0  0  0  0  0  0  0  0  0
   -4.0016    2.1915    9.0960 C   0  0  0  0  0  0  0  0  0  0  0  0
   -5.4891    2.2895    9.7636 C   0  0  0  0  0  0  0  0  0  0  0  0
   -6.2157    3.2499    8.8677 C   0  0  0  0  0  0  0  0  0  0  0  0
   -7.6399    3.2647    9.3711 N   0  0  0  0  0  0  0  0  0  0  0  0
  1  2  1  0  0  0  0
  2  3  1  0  0  0  0
  3  4  1  0  0  0  0
  4  5  1  0  0  0  0
  5  6  1  0  0  0  0
  6  7  1  0  0  0  0
  7  8  1  0  0  0  0
  8  9  1  0  0  0  0
  9 10  1  0  0  0  0
 10 11  1  0  0  0  0
 11 12  1  0  0  0  0
 12 13  1  0  0  0  0
 13 14  1  0  0  0  0
M  END
>  <CHROM.1>
179.49066160,-175.66866503,165.31828287,-172.99870361,176.39435712,-179.99958922
176.96357213,172.73039693,169.01564116,-179.75448278,174.57860109,-0.78193424
-0.50729335,9.99863482,-0.05702284,0.60116484,-1.61910055

>  <Name>
ligand

>  <RI>
0

>  <Rbt.Current_Directory>
/home/itssahil/PROJECTS/Mol_Feturizer/New_Systems/rnas/1FUF

>  <Rbt.Executable>
rbdock ($Id: //depot/dev/client3/rdock/2013.1/src/exe/rbdock.cxx#4 $)

>  <Rbt.Library>
libRbt.so (2013.1, Build901 2013/11/27)

>  <Rbt.Parameter_File>
/export/apps/rDock/src/rDock_2013.1_src/data/scripts/dock_solv.prm

>  <Rbt.Receptor>
prm/pocket_docking_5.prm

>  <SCORE>
-6.64899

>  <SCORE.INTER>
-1.61503

>  <SCORE.INTER.CONST>
1

>  <SCORE.INTER.POLAR>
0

>  <SCORE.INTER.ROT>
11

>  <SCORE.INTER.SOLV>
15.2227

>  <SCORE.INTER.VDW>
-17.0842

>  <SCORE.INTER.norm>
-0.115359

>  <SCORE.INTRA>
-5.03396

>  <SCORE.INTRA.DIHEDRAL>
-9.96222

>  <SCORE.INTRA.DIHEDRAL.0>
10.5765

>  <SCORE.INTRA.POLAR>
0

>  <SCORE.INTRA.POLAR.0>
0

>  <SCORE.INTRA.REPUL>
0

>  <SCORE.INTRA.REPUL.0>
0

>  <SCORE.INTRA.SOLV>
-0.1545

>  <SCORE.INTRA.SOLV.lig_0>
-50.1861

>  <SCORE.INTRA.VDW>
0.0244002

>  <SCORE.INTRA.VDW.0>
-1.36671

>  <SCORE.INTRA.norm>
-0.359569

>  <SCORE.RESTR>
0

>  <SCORE.RESTR.CAVITY>
0

>  <SCORE.RESTR.norm>
0

>  <SCORE.SYSTEM>
0

>  <SCORE.SYSTEM.CONST>
0

>  <SCORE.SYSTEM.DIHEDRAL>
0

>  <SCORE.SYSTEM.SOLV>
0

>  <SCORE.SYSTEM.norm>
0

>  <SCORE.heavy>
14

>  <SCORE.norm>
-0.474928

>  <RMSD>
1.540

$$$$
ligand
 OpenBabel11021811393D
libRbt.so/2013.1/901 2013/11/27
 14 13  0  0  0  0  0  0  0  0999 V2000
    5.0793   -5.5220    9.6763 N   0  0  0  0  0  0  0  0  0  0  0  0
    4.3359   -4.7704   10.7811 C   0  0  0  0  0  0  0  0  0  0  0  0
    3.5708   -3.7019   10.0885 C   0  0  0  0  0  0  0  0  0  0  0  0
    2.6972   -2.8575   11.0021 C   0  0  0  0  0  0  0  0  0  0  0  0
    1.9519   -1.8577   10.1914 N   0  0  0  0  0  0  0  0  0  0  0  0
    0.8592   -1.2088   11.0602 C   0  0  0  0  0  0  0  0  0  0  0  0
   -0.0838   -0.5265    9.9570 C   0  0  0  0  0  0  0  0  0  0  0  0
   -1.0000    0.1946   10.5564 C   0  0  0  0  0  0  0  0  0  0  0  0
   -1.7460    0.7249    9.1985 C   0  0  0  0  0  0  0  0  0  0  0  0
   -2.6594    1.8108    9.8602 N   0  0  0  0  0  0  0  0  0  0  0  0
   -4.1471    1.3285   10.0914 C   0  0  0  0  0  0  0  0  0  0  0  0
   -5.1011    2.5362    9.5444 C   0  0  0  0  0  0  0  0  0  0  0  0
   -6.4888    2.0638    9.8671 C   0  0  0  0  0  0  0  0  0  0  0  0
   -7.4101    3.1219    9.3072 N   0  0  0  0  0  0  0  0  0  0  0  0
  1  2  1  0  0  0  0
  2  3  1  0  0  0  0
  3  4  1  0  0  0  0
  4  5  1  0  0  0  0
  5  6  1  0  0  0  0
  6  7  1  0  0  0  0
  7  8  1  0  0  0  0
  8  9  1  0  0  0  0
  9 10  1  0  0  0  0
 10 11  1  0  0  0  0
 11 12  1  0  0  0  0
 12 13  1  0  0  0  0
 13 14  1  0  0  0  0
M  END
>  <CHROM.1>
177.40283775,-178.15927694,168.20759861,-163.88125503,-173.44577261,179.79419594
-169.23307883,-99.68538169,-133.09039140,-176.54471451,-176.98180441,-0.72441003
-0.61887338,10.08453083,0.55031803,0.25178194,-2.86596465

>  <Name>
ligand

>  <RI>
0

>  <Rbt.Current_Directory>
/home/itssahil/PROJECTS/Mol_Feturizer/New_Systems/rnas/1FUF

>  <Rbt.Executable>
rbdock ($Id: //depot/dev/client3/rdock/2013.1/src/exe/rbdock.cxx#4 $)

>  <Rbt.Library>
libRbt.so (2013.1, Build901 2013/11/27)

>  <Rbt.Parameter_File>
/export/apps/rDock/src/rDock_2013.1_src/data/scripts/dock_solv.prm

>  <Rbt.Receptor>
prm/blind_docking_80.prm

>  <SCORE>
-5.63016

>  <SCORE.INTER>
-1.83376

>  <SCORE.INTER.CONST>
1

>  <SCORE.INTER.POLAR>
0

>  <SCORE.INTER.ROT>
11

>  <SCORE.INTER.SOLV>
15.5038

>  <SCORE.INTER.VDW>
-17.3238

>  <SCORE.INTER.norm>
-0.130983

>  <SCORE.INTRA>
-3.7964

>  <SCORE.INTRA.DIHEDRAL>
-7.60255

>  <SCORE.INTRA.DIHEDRAL.0>
10.5765

>  <SCORE.INTRA.POLAR>
0

>  <SCORE.INTRA.POLAR.0>
0

>  <SCORE.INTRA.REPUL>
0

>  <SCORE.INTRA.REPUL.0>
0

>  <SCORE.INTRA.SOLV>
-0.147187

>  <SCORE.INTRA.SOLV.lig_0>
-50.1861

>  <SCORE.INTRA.VDW>
0.0784689

>  <SCORE.INTRA.VDW.0>
-1.36671

>  <SCORE.INTRA.norm>
-0.271171

>  <SCORE.RESTR>
0

>  <SCORE.RESTR.CAVITY>
0

>  <SCORE.RESTR.norm>
0

>  <SCORE.SYSTEM>
0

>  <SCORE.SYSTEM.CONST>
0

>  <SCORE.SYSTEM.DIHEDRAL>
0

>  <SCORE.SYSTEM.SOLV>
0

>  <SCORE.SYSTEM.norm>
0

>  <SCORE.heavy>
14

>  <SCORE.norm>
-0.402154

>  <RMSD>
1.544

$$$$
ligand
 OpenBabel11021811393D
libRbt.so/2013.1/901 2013/11/27
 14 13  0  0  0  0  0  0  0  0999 V2000
    5.0199   -6.6199    9.1663 N   0  0  0  0  0  0  0  0  0  0  0  0
    3.6722   -6.4657    9.8721 C   0  0  0  0  0  0  0  0  0  0  0  0
    3.6679   -5.0859   10.4223 C   0  0  0  0  0  0  0  0  0  0  0  0
    2.3948   -4.7043   11.1601 C   0  0  0  0  0  0  0  0  0  0  0  0
    2.4594   -3.2713   11.5534 N   0  0  0  0  0  0  0  0  0  0  0  0
    1.9876   -2.3976   10.3771 C   0  0  0  0  0  0  0  0  0  0  0  0
    1.0016   -1.3624   11.1040 C   0  0  0  0  0  0  0  0  0  0  0  0
    0.3448   -0.6803   10.1974 C   0  0  0  0  0  0  0  0  0  0  0  0
   -0.4568    0.2988   11.2368 C   0  0  0  0  0  0  0  0  0  0  0  0
   -1.4297    0.9634   10.2058 N   0  0  0  0  0  0  0  0  0  0  0  0
   -2.8936    0.3678   10.2447 C   0  0  0  0  0  0  0  0  0  0  0  0
   -3.8659    1.5246    9.6250 C   0  0  0  0  0  0  0  0  0  0  0  0
   -5.2420    0.9414    9.7647 C   0  0  0  0  0  0  0  0  0  0  0  0
   -6.1728    1.9680    9.1633 N   0  0  0  0  0  0  0  0  0  0  0  0
  1  2  1  0  0  0  0
  2  3  1  0  0  0  0
  3  4  1  0  0  0  0
  4  5  1  0  0  0  0
  5  6  1  0  0  0  0
  6  7  1  0  0  0  0
  7  8  1  0  0  0  0
  8  9  1  0  0  0  0
  9 10  1  0  0  0  0
 10 11  1  0  0  0  0
 11 12  1  0  0  0  0
 12 13  1  0  0  0  0
 13 14  1  0  0  0  0
M  END
>  <CHROM.1>
179.19986543,-174.88627880,84.69287798,134.42311233,-169.78122773,-176.70451702
-170.99146032,101.93603101,156.87137011,-176.64193124,-178.39509225,0.03484266
-1.75168025,10.29246087,0.60023642,0.38948801,-2.70116482

>  <Name>
ligand

>  <RI>
0

>  <Rbt.Current_Directory>
/home/itssahil/PROJECTS/Mol_Feturizer/New_Systems/rnas/1FUF

>  <Rbt.Executable>
rbdock ($Id: //depot/dev/client3/rdock/2013.1/src/exe/rbdock.cxx#4 $)

>  <Rbt.Library>
libRbt.so (2013.1, Build901 2013/11/27)

>  <Rbt.Parameter_File>
/export/apps/rDock/src/rDock_2013.1_src/data/scripts/dock_solv.prm

>  <Rbt.Receptor>
prm/blind_docking_80.prm

>  <SCORE>
-4.81135

>  <SCORE.INTER>
-1.70883

>  <SCORE.INTER.CONST>
1

>  <SCORE.INTER.POLAR>
0

>  <SCORE.INTER.ROT>
11

>  <SCORE.INTER.SOLV>
15.7029

>  <SCORE.INTER.VDW>
-17.3068

>  <SCORE.INTER.norm>
-0.122059

>  <SCORE.INTRA>
-3.10252

>  <SCORE.INTRA.DIHEDRAL>
-6.87876

>  <SCORE.INTRA.DIHEDRAL.0>
10.5765

>  <SCORE.INTRA.POLAR>
0

>  <SCORE.INTRA.POLAR.0>
0

>  <SCORE.INTRA.REPUL>
0

>  <SCORE.INTRA.REPUL.0>
0

>  <SCORE.INTRA.SOLV>
-0.137254

>  <SCORE.INTRA.SOLV.lig_0>
-50.1861

>  <SCORE.INTRA.VDW>
0.405487

>  <SCORE.INTRA.VDW.0>
-1.36671

>  <SCORE.INTRA.norm>
-0.221609

>  <SCORE.RESTR>
0

>  <SCORE.RESTR.CAVITY>
0

>  <SCORE.RESTR.norm>
0

>  <SCORE.SYSTEM>
0

>  <SCORE.SYSTEM.CONST>
0

>  <SCORE.SYSTEM.DIHEDRAL>
0

>  <SCORE.SYSTEM.SOLV>
0

>  <SCORE.SYSTEM.norm>
0

>  <SCORE.heavy>
14

>  <SCORE.norm>
-0.343668

>  <RMSD>
1.544

$$$$
ligand
 OpenBabel11021811393D
libRbt.so/2013.1/901 2013/11/27
 14 13  0  0  0  0  0  0  0  0999 V2000
   -6.9175    2.6118    8.7853 N   0  0  0  0  0  0  0  0  0  0  0  0
   -5.5732    2.4879    9.5034 C   0  0  0  0  0  0  0  0  0  0  0  0
   -5.4098    1.0400    9.7925 C   0  0  0  0  0  0  0  0  0  0  0  0
   -4.1153    0.6803   10.5035 C   0  0  0  0  0  0  0  0  0  0  0  0
   -2.9578    1.0674    9.6534 N   0  0  0  0  0  0  0  0  0  0  0  0
   -1.7019    1.2043   10.5331 C   0  0  0  0  0  0  0  0  0  0  0  0
   -1.0034   -0.2268   10.3439 C   0  0  0  0  0  0  0  0  0  0  0  0
    0.1878   -0.2032   10.8909 C   0  0  0  0  0  0  0  0  0  0  0  0
    0.5639   -1.7702   10.6000 C   0  0  0  0  0  0  0  0  0  0  0  0
    2.0219   -1.7551   11.1705 N   0  0  0  0  0  0  0  0  0  0  0  0
    2.5449   -3.1825   11.6040 C   0  0  0  0  0  0  0  0  0  0  0  0
    3.1180   -3.8831   10.2444 C   0  0  0  0  0  0  0  0  0  0  0  0
    3.6599   -5.1975   10.7258 C   0  0  0  0  0  0  0  0  0  0  0  0
    4.2398   -5.8625    9.4996 N   0  0  0  0  0  0  0  0  0  0  0  0
  1  2  1  0  0  0  0
  2  3  1  0  0  0  0
  3  4  1  0  0  0  0
  4  5  1  0  0  0  0
  5  6  1  0  0  0  0
  6  7  1  0  0  0  0
  7  8  1  0  0  0  0
  8  9  1  0  0  0  0
  9 10  1  0  0  0  0
 10 11  1  0  0  0  0
 11 12  1  0  0  0  0
 12 13  1  0  0  0  0
 13 14  1  0  0  0  0
M  END
>  <CHROM.1>
179.47571470,-60.82854281,159.00941100,96.53648533,171.27535727,177.18460397
176.90597979,156.97163038,84.10262543,177.26926634,-178.34058038,-0.81013827
-0.92777691,10.27522622,2.64561377,-0.40499977,0.47827677

>  <Name>
ligand

>  <RI>
0

>  <Rbt.Current_Directory>
/home/itssahil/PROJECTS/Mol_Feturizer/New_Systems/rnas/1FUF

>  <Rbt.Executable>
rbdock ($Id: //depot/dev/client3/rdock/2013.1/src/exe/rbdock.cxx#4 $)

>  <Rbt.Library>
libRbt.so (2013.1, Build901 2013/11/27)

>  <Rbt.Parameter_File>
/export/apps/rDock/src/rDock_2013.1_src/data/scripts/dock_solv.prm

>  <Rbt.Receptor>
prm/pocket_docking_2.prm

>  <SCORE>
-4.78617

>  <SCORE.INTER>
-1.19252

>  <SCORE.INTER.CONST>
1

>  <SCORE.INTER.POLAR>
0

>  <SCORE.INTER.ROT>
11

>  <SCORE.INTER.SOLV>
15.3728

>  <SCORE.INTER.VDW>
-16.8526

>  <SCORE.INTER.norm>
-0.0851799

>  <SCORE.INTRA>
-3.59768

>  <SCORE.INTRA.DIHEDRAL>
-8.24974

>  <SCORE.INTRA.DIHEDRAL.0>
10.5765

>  <SCORE.INTRA.POLAR>
0

>  <SCORE.INTRA.POLAR.0>
0

>  <SCORE.INTRA.REPUL>
0

>  <SCORE.INTRA.REPUL.0>
0

>  <SCORE.INTRA.SOLV>
0.257459

>  <SCORE.INTRA.SOLV.lig_0>
-50.1861

>  <SCORE.INTRA.VDW>
0.398463

>  <SCORE.INTRA.VDW.0>
-1.36671

>  <SCORE.INTRA.norm>
-0.256977

>  <SCORE.RESTR>
0.00403049

>  <SCORE.RESTR.CAVITY>
0.00403049

>  <SCORE.RESTR.norm>
0.000287892

>  <SCORE.SYSTEM>
0

>  <SCORE.SYSTEM.CONST>
0

>  <SCORE.SYSTEM.DIHEDRAL>
0

>  <SCORE.SYSTEM.SOLV>
0

>  <SCORE.SYSTEM.norm>
0

>  <SCORE.heavy>
14

>  <SCORE.norm>
-0.341869

>  <RMSD>
1.544

$$$$
ligand
 OpenBabel11021811393D
libRbt.so/2013.1/901 2013/11/27
 14 13  0  0  0  0  0  0  0  0999 V2000
    4.9229   -6.8920    8.5193 N   0  0  0  0  0  0  0  0  0  0  0  0
    5.1823   -5.9346    9.6830 C   0  0  0  0  0  0  0  0  0  0  0  0
    3.8861   -5.2536    9.9333 C   0  0  0  0  0  0  0  0  0  0  0  0
    3.9391   -4.1647   10.9925 C   0  0  0  0  0  0  0  0  0  0  0  0
    2.5773   -3.6016   11.1944 N   0  0  0  0  0  0  0  0  0  0  0  0
    2.4502   -2.2812   10.4133 C   0  0  0  0  0  0  0  0  0  0  0  0
    1.0005   -1.7643   10.8640 C   0  0  0  0  0  0  0  0  0  0  0  0
    0.6970   -0.6825   10.1885 C   0  0  0  0  0  0  0  0  0  0  0  0
   -0.7593   -0.4202   10.8899 C   0  0  0  0  0  0  0  0  0  0  0  0
   -1.2171    0.7842   10.0004 N   0  0  0  0  0  0  0  0  0  0  0  0
   -2.5988    1.4094   10.4470 C   0  0  0  0  0  0  0  0  0  0  0  0
   -3.4602    1.6214    9.0756 C   0  0  0  0  0  0  0  0  0  0  0  0
   -4.7083    2.3102    9.5455 C   0  0  0  0  0  0  0  0  0  0  0  0
   -5.5144    2.5710    8.2948 N   0  0  0  0  0  0  0  0  0  0  0  0
  1  2  1  0  0  0  0
  2  3  1  0  0  0  0
  3  4  1  0  0  0  0
  4  5  1  0  0  0  0
  5  6  1  0  0  0  0
  6  7  1  0  0  0  0
  7  8  1  0  0  0  0
  8  9  1  0  0  0  0
  9 10  1  0  0  0  0
 10 11  1  0  0  0  0
 11 12  1  0  0  0  0
 12 13  1  0  0  0  0
 13 14  1  0  0  0  0
M  END
>  <CHROM.1>
-175.43305137,-177.55899129,-99.53693162,-174.62609266,-174.91625485,-178.86331134
-174.48159741,-176.09094443,-134.81499944,-175.78324404,177.99721120,0.45705184
-1.59267158,10.00316610,0.36877248,0.63951659,-2.21439071

>  <Name>
ligand

>  <RI>
0

>  <Rbt.Current_Directory>
/home/itssahil/PROJECTS/Mol_Feturizer/New_Systems/rnas/1FUF

>  <Rbt.Executable>
rbdock ($Id: //depot/dev/client3/rdock/2013.1/src/exe/rbdock.cxx#4 $)

>  <Rbt.Library>
libRbt.so (2013.1, Build901 2013/11/27)

>  <Rbt.Parameter_File>
/export/apps/rDock/src/rDock_2013.1_src/data/scripts/dock_solv.prm

>  <Rbt.Receptor>
prm/pocket_docking_6.prm

>  <SCORE>
-5.9759

>  <SCORE.INTER>
-1.89994

>  <SCORE.INTER.CONST>
1

>  <SCORE.INTER.POLAR>
0

>  <SCORE.INTER.ROT>
11

>  <SCORE.INTER.SOLV>
14.7837

>  <SCORE.INTER.VDW>
-17.1279

>  <SCORE.INTER.norm>
-0.13571

>  <SCORE.INTRA>
-4.07596

>  <SCORE.INTRA.DIHEDRAL>
-8.22444

>  <SCORE.INTRA.DIHEDRAL.0>
10.5765

>  <SCORE.INTRA.POLAR>
0

>  <SCORE.INTRA.POLAR.0>
0

>  <SCORE.INTRA.REPUL>
0

>  <SCORE.INTRA.REPUL.0>
0

>  <SCORE.INTRA.SOLV>
-0.147989

>  <SCORE.INTRA.SOLV.lig_0>
-50.1861

>  <SCORE.INTRA.VDW>
0.110258

>  <SCORE.INTRA.VDW.0>
-1.36671

>  <SCORE.INTRA.norm>
-0.29114

>  <SCORE.RESTR>
0

>  <SCORE.RESTR.CAVITY>
0

>  <SCORE.RESTR.norm>
0

>  <SCORE.SYSTEM>
0

>  <SCORE.SYSTEM.CONST>
0

>  <SCORE.SYSTEM.DIHEDRAL>
0

>  <SCORE.SYSTEM.SOLV>
0

>  <SCORE.SYSTEM.norm>
0

>  <SCORE.heavy>
14

>  <SCORE.norm>
-0.42685

>  <RMSD>
1.553

$$$$
ligand
 OpenBabel11021811393D
libRbt.so/2013.1/901 2013/11/27
 14 13  0  0  0  0  0  0  0  0999 V2000
    4.0375   -6.8162    9.3677 N   0  0  0  0  0  0  0  0  0  0  0  0
    5.2264   -5.9743    9.8322 C   0  0  0  0  0  0  0  0  0  0  0  0
    4.7861   -4.5613    9.7045 C   0  0  0  0  0  0  0  0  0  0  0  0
    3.6894   -4.1516   10.6740 C   0  0  0  0  0  0  0  0  0  0  0  0
    3.2480   -2.7648   10.3670 N   0  0  0  0  0  0  0  0  0  0  0  0
    2.2198   -2.3119   11.4195 C   0  0  0  0  0  0  0  0  0  0  0  0
    1.2650   -1.3502   10.5620 C   0  0  0  0  0  0  0  0  0  0  0  0
    0.3740   -0.8057   11.3546 C   0  0  0  0  0  0  0  0  0  0  0  0
   -0.4139    0.0480   10.2004 C   0  0  0  0  0  0  0  0  0  0  0  0
   -1.3254    0.9026   11.1439 N   0  0  0  0  0  0  0  0  0  0  0  0
   -2.4160    1.7477   10.3721 C   0  0  0  0  0  0  0  0  0  0  0  0
   -3.6994    0.7559   10.1796 C   0  0  0  0  0  0  0  0  0  0  0  0
   -4.7495    1.6486    9.5851 C   0  0  0  0  0  0  0  0  0  0  0  0
   -4.2410    1.9985    8.2064 N   0  0  0  0  0  0  0  0  0  0  0  0
  1  2  1  0  0  0  0
  2  3  1  0  0  0  0
  3  4  1  0  0  0  0
  4  5  1  0  0  0  0
  5  6  1  0  0  0  0
  6  7  1  0  0  0  0
  7  8  1  0  0  0  0
  8  9  1  0  0  0  0
  9 10  1  0  0  0  0
 10 11  1  0  0  0  0
 11 12  1  0  0  0  0
 12 13  1  0  0  0  0
 13 14  1  0  0  0  0
M  END
>  <CHROM.1>
67.89818317,-174.78340167,-175.45800619,-147.36153642,-175.77147916,-178.95455447
-170.66718290,-171.90701653,86.43188015,173.92413875,67.43999906,0.57155077
-1.54529064,10.21224683,0.49725266,0.51905602,-2.43896039

>  <Name>
ligand

>  <RI>
0

>  <Rbt.Current_Directory>
/home/itssahil/PROJECTS/Mol_Feturizer/New_Systems/rnas/1FUF

>  <Rbt.Executable>
rbdock ($Id: //depot/dev/client3/rdock/2013.1/src/exe/rbdock.cxx#4 $)

>  <Rbt.Library>
libRbt.so (2013.1, Build901 2013/11/27)

>  <Rbt.Parameter_File>
/export/apps/rDock/src/rDock_2013.1_src/data/scripts/dock_solv.prm

>  <Rbt.Receptor>
prm/pocket_docking_4.prm

>  <SCORE>
-3.61466

>  <SCORE.INTER>
-0.96516

>  <SCORE.INTER.CONST>
1

>  <SCORE.INTER.POLAR>
0

>  <SCORE.INTER.ROT>
11

>  <SCORE.INTER.SOLV>
17.5742

>  <SCORE.INTER.VDW>
-17.4348

>  <SCORE.INTER.norm>
-0.06894

>  <SCORE.INTRA>
-2.6495

>  <SCORE.INTRA.DIHEDRAL>
-8.26009

>  <SCORE.INTRA.DIHEDRAL.0>
10.5765

>  <SCORE.INTRA.POLAR>
0

>  <SCORE.INTRA.POLAR.0>
0

>  <SCORE.INTRA.REPUL>
0

>  <SCORE.INTRA.REPUL.0>
0

>  <SCORE.INTRA.SOLV>
1.70278

>  <SCORE.INTRA.SOLV.lig_0>
-50.1861

>  <SCORE.INTRA.VDW>
0.629153

>  <SCORE.INTRA.VDW.0>
-1.36671

>  <SCORE.INTRA.norm>
-0.18925

>  <SCORE.RESTR>
0

>  <SCORE.RESTR.CAVITY>
0

>  <SCORE.RESTR.norm>
0

>  <SCORE.SYSTEM>
0

>  <SCORE.SYSTEM.CONST>
0

>  <SCORE.SYSTEM.DIHEDRAL>
0

>  <SCORE.SYSTEM.SOLV>
0

>  <SCORE.SYSTEM.norm>
0

>  <SCORE.heavy>
14

>  <SCORE.norm>
-0.25819

>  <RMSD>
1.555

$$$$
ligand
 OpenBabel11021811393D
libRbt.so/2013.1/901 2013/11/27
 14 13  0  0  0  0  0  0  0  0999 V2000
   -5.0158    1.7758    9.5760 N   0  0  0  0  0  0  0  0  0  0  0  0
   -3.9102    1.1286    8.7412 C   0  0  0  0  0  0  0  0  0  0  0  0
   -2.6578    1.8246    9.1333 C   0  0  0  0  0  0  0  0  0  0  0  0
   -2.1753    1.5115   10.5403 C   0  0  0  0  0  0  0  0  0  0  0  0
   -1.7390    0.0914   10.6111 N   0  0  0  0  0  0  0  0  0  0  0  0
   -0.2121    0.0355   10.7986 C   0  0  0  0  0  0  0  0  0  0  0  0
    0.0997   -1.5167   10.5426 C   0  0  0  0  0  0  0  0  0  0  0  0
    1.3701   -1.7466   10.7700 C   0  0  0  0  0  0  0  0  0  0  0  0
    1.3554   -3.3314   10.3577 C   0  0  0  0  0  0  0  0  0  0  0  0
    2.8632   -3.6451   10.6395 N   0  0  0  0  0  0  0  0  0  0  0  0
    3.8232   -3.2533    9.4461 C   0  0  0  0  0  0  0  0  0  0  0  0
    4.9122   -4.4650    9.3293 C   0  0  0  0  0  0  0  0  0  0  0  0
    4.1057   -5.6150    8.7999 C   0  0  0  0  0  0  0  0  0  0  0  0
    5.0911   -6.7468    8.6276 N   0  0  0  0  0  0  0  0  0  0  0  0
  1  2  1  0  0  0  0
  2  3  1  0  0  0  0
  3  4  1  0  0  0  0
  4  5  1  0  0  0  0
  5  6  1  0  0  0  0
  6  7  1  0  0  0  0
  7  8  1  0  0  0  0
  8  9  1  0  0  0  0
  9 10  1  0  0  0  0
 10 11  1  0  0  0  0
 11 12  1  0  0  0  0
 12 13  1  0  0  0  0
 13 14  1  0  0  0  0
M  END
>  <CHROM.1>
70.00817270,67.64387759,111.39118911,-168.56855956,-175.18894671,-177.34229528
-179.21800348,-82.97289907,-139.27898801,70.32343318,177.94446363,0.56513011
-1.71071864,9.85093633,2.66098403,-0.54035987,0.84418489

>  <Name>
ligand

>  <RI>
0

>  <Rbt.Current_Directory>
/home/itssahil/PROJECTS/Mol_Feturizer/New_Systems/rnas/1FUF

>  <Rbt.Executable>
rbdock ($Id: //depot/dev/client3/rdock/2013.1/src/exe/rbdock.cxx#4 $)

>  <Rbt.Library>
libRbt.so (2013.1, Build901 2013/11/27)

>  <Rbt.Parameter_File>
/export/apps/rDock/src/rDock_2013.1_src/data/scripts/dock_solv.prm

>  <Rbt.Receptor>
prm/blind_docking_20.prm

>  <SCORE>
-3.85955

>  <SCORE.INTER>
-1.94116

>  <SCORE.INTER.CONST>
1

>  <SCORE.INTER.POLAR>
0

>  <SCORE.INTER.ROT>
11

>  <SCORE.INTER.SOLV>
15.189

>  <SCORE.INTER.VDW>
-17.2904

>  <SCORE.INTER.norm>
-0.138654

>  <SCORE.INTRA>
-1.91839

>  <SCORE.INTRA.DIHEDRAL>
-6.91157

>  <SCORE.INTRA.DIHEDRAL.0>
10.5765

>  <SCORE.INTRA.POLAR>
0

>  <SCORE.INTRA.POLAR.0>
0

>  <SCORE.INTRA.REPUL>
0

>  <SCORE.INTRA.REPUL.0>
0

>  <SCORE.INTRA.SOLV>
1.909

>  <SCORE.INTRA.SOLV.lig_0>
-50.1861

>  <SCORE.INTRA.VDW>
0.582902

>  <SCORE.INTRA.VDW.0>
-1.36671

>  <SCORE.INTRA.norm>
-0.137028

>  <SCORE.RESTR>
0

>  <SCORE.RESTR.CAVITY>
0

>  <SCORE.RESTR.norm>
0

>  <SCORE.SYSTEM>
0

>  <SCORE.SYSTEM.CONST>
0

>  <SCORE.SYSTEM.DIHEDRAL>
0

>  <SCORE.SYSTEM.SOLV>
0

>  <SCORE.SYSTEM.norm>
0

>  <SCORE.heavy>
14

>  <SCORE.norm>
-0.275682

>  <RMSD>
1.558

$$$$
ligand
 OpenBabel11021811393D
libRbt.so/2013.1/901 2013/11/27
 14 13  0  0  0  0  0  0  0  0999 V2000
   -5.2591    2.3700    8.5160 N   0  0  0  0  0  0  0  0  0  0  0  0
   -5.2497    1.3472    9.6526 C   0  0  0  0  0  0  0  0  0  0  0  0
   -3.9661    0.6123    9.5146 C   0  0  0  0  0  0  0  0  0  0  0  0
   -2.7269    1.4488    9.7892 C   0  0  0  0  0  0  0  0  0  0  0  0
   -1.5106    0.6520    9.4761 N   0  0  0  0  0  0  0  0  0  0  0  0
   -0.9658    0.0226   10.7710 C   0  0  0  0  0  0  0  0  0  0  0  0
    0.2981   -0.8058   10.2341 C   0  0  0  0  0  0  0  0  0  0  0  0
    0.8840   -1.4044   11.2426 C   0  0  0  0  0  0  0  0  0  0  0  0
    2.0460   -2.1589   10.3696 C   0  0  0  0  0  0  0  0  0  0  0  0
    2.7272   -2.9417   11.5420 N   0  0  0  0  0  0  0  0  0  0  0  0
    3.8123   -3.9846   11.0582 C   0  0  0  0  0  0  0  0  0  0  0  0
    3.0086   -5.3833   10.8026 C   0  0  0  0  0  0  0  0  0  0  0  0
    4.0998   -6.3656   10.4903 C   0  0  0  0  0  0  0  0  0  0  0  0
    4.6182   -5.9657    9.1289 N   0  0  0  0  0  0  0  0  0  0  0  0
  1  2  1  0  0  0  0
  2  3  1  0  0  0  0
  3  4  1  0  0  0  0
  4  5  1  0  0  0  0
  5  6  1  0  0  0  0
  6  7  1  0  0  0  0
  7  8  1  0  0  0  0
  8  9  1  0  0  0  0
  9 10  1  0  0  0  0
 10 11  1  0  0  0  0
 11 12  1  0  0  0  0
 12 13  1  0  0  0  0
 13 14  1  0  0  0  0
M  END
>  <CHROM.1>
67.19560552,-173.83771127,-96.76802727,178.79926684,179.63620685,178.37384409
-177.46375159,171.70562899,-89.16070551,-174.19420771,-70.26286325,0.12970846
-1.61128386,10.18505236,2.61897533,-0.49049846,0.52213027

>  <Name>
ligand

>  <RI>
0

>  <Rbt.Current_Directory>
/home/itssahil/PROJECTS/Mol_Feturizer/New_Systems/rnas/1FUF

>  <Rbt.Executable>
rbdock ($Id: //depot/dev/client3/rdock/2013.1/src/exe/rbdock.cxx#4 $)

>  <Rbt.Library>
libRbt.so (2013.1, Build901 2013/11/27)

>  <Rbt.Parameter_File>
/export/apps/rDock/src/rDock_2013.1_src/data/scripts/dock_solv.prm

>  <Rbt.Receptor>
prm/pocket_docking_3.prm

>  <SCORE>
-5.69357

>  <SCORE.INTER>
-3.04456

>  <SCORE.INTER.CONST>
1

>  <SCORE.INTER.POLAR>
0

>  <SCORE.INTER.ROT>
11

>  <SCORE.INTER.SOLV>
15.9477

>  <SCORE.INTER.VDW>
-18.2789

>  <SCORE.INTER.norm>
-0.217469

>  <SCORE.INTRA>
-2.64901

>  <SCORE.INTRA.DIHEDRAL>
-8.25031

>  <SCORE.INTRA.DIHEDRAL.0>
10.5765

>  <SCORE.INTRA.POLAR>
0

>  <SCORE.INTRA.POLAR.0>
0

>  <SCORE.INTRA.REPUL>
0

>  <SCORE.INTRA.REPUL.0>
0

>  <SCORE.INTRA.SOLV>
1.66558

>  <SCORE.INTRA.SOLV.lig_0>
-50.1861

>  <SCORE.INTRA.VDW>
0.643353

>  <SCORE.INTRA.VDW.0>
-1.36671

>  <SCORE.INTRA.norm>
-0.189215

>  <SCORE.RESTR>
0

>  <SCORE.RESTR.CAVITY>
0

>  <SCORE.RESTR.norm>
0

>  <SCORE.SYSTEM>
0

>  <SCORE.SYSTEM.CONST>
0

>  <SCORE.SYSTEM.DIHEDRAL>
0

>  <SCORE.SYSTEM.SOLV>
0

>  <SCORE.SYSTEM.norm>
0

>  <SCORE.heavy>
14

>  <SCORE.norm>
-0.406684

>  <RMSD>
1.561

$$$$
ligand
 OpenBabel11021811393D
libRbt.so/2013.1/901 2013/11/27
 14 13  0  0  0  0  0  0  0  0999 V2000
    6.6564   -5.8845    7.9292 N   0  0  0  0  0  0  0  0  0  0  0  0
    5.2910   -6.2374    8.5201 C   0  0  0  0  0  0  0  0  0  0  0  0
    4.8541   -5.0263    9.2611 C   0  0  0  0  0  0  0  0  0  0  0  0
    3.4893   -5.1468    9.9193 C   0  0  0  0  0  0  0  0  0  0  0  0
    3.1332   -3.8546   10.5641 N   0  0  0  0  0  0  0  0  0  0  0  0
    1.6039   -3.7644   10.7157 C   0  0  0  0  0  0  0  0  0  0  0  0
    1.3479   -2.1863   10.5896 C   0  0  0  0  0  0  0  0  0  0  0  0
    0.0578   -1.9540   10.6071 C   0  0  0  0  0  0  0  0  0  0  0  0
    0.1468   -0.3509   10.2850 C   0  0  0  0  0  0  0  0  0  0  0  0
   -1.3815   -0.0236   10.3778 N   0  0  0  0  0  0  0  0  0  0  0  0
   -1.6863    1.5139   10.5836 C   0  0  0  0  0  0  0  0  0  0  0  0
   -2.9735    1.8476    9.6350 C   0  0  0  0  0  0  0  0  0  0  0  0
   -4.0757    1.0218   10.2320 C   0  0  0  0  0  0  0  0  0  0  0  0
   -5.3212    1.4093    9.4702 N   0  0  0  0  0  0  0  0  0  0  0  0
  1  2  1  0  0  0  0
  2  3  1  0  0  0  0
  3  4  1  0  0  0  0
  4  5  1  0  0  0  0
  5  6  1  0  0  0  0
  6  7  1  0  0  0  0
  7  8  1  0  0  0  0
  8  9  1  0  0  0  0
  9 10  1  0  0  0  0
 10 11  1  0  0  0  0
 11 12  1  0  0  0  0
 12 13  1  0  0  0  0
 13 14  1  0  0  0  0
M  END
>  <CHROM.1>
179.00261047,-176.99369482,157.10747599,-148.87709976,175.62929028,-173.53034874
-177.01556183,161.34606445,139.24160169,64.22263883,174.37534919,0.79588361
-2.04542058,9.90656253,-0.18412016,0.65998488,-1.13294261

>  <Name>
ligand

>  <RI>
0

>  <Rbt.Current_Directory>
/home/itssahil/PROJECTS/Mol_Feturizer/New_Systems/rnas/1FUF

>  <Rbt.Executable>
rbdock ($Id: //depot/dev/client3/rdock/2013.1/src/exe/rbdock.cxx#4 $)

>  <Rbt.Library>
libRbt.so (2013.1, Build901 2013/11/27)

>  <Rbt.Parameter_File>
/export/apps/rDock/src/rDock_2013.1_src/data/scripts/dock_solv.prm

>  <Rbt.Receptor>
prm/pocket_docking_3.prm

>  <SCORE>
-3.64394

>  <SCORE.INTER>
-0.134441

>  <SCORE.INTER.CONST>
1

>  <SCORE.INTER.POLAR>
0

>  <SCORE.INTER.ROT>
11

>  <SCORE.INTER.SOLV>
14.602

>  <SCORE.INTER.VDW>
-15.8903

>  <SCORE.INTER.norm>
-0.00960296

>  <SCORE.INTRA>
-3.50949

>  <SCORE.INTRA.DIHEDRAL>
-7.87145

>  <SCORE.INTRA.DIHEDRAL.0>
10.5765

>  <SCORE.INTRA.POLAR>
0

>  <SCORE.INTRA.POLAR.0>
0

>  <SCORE.INTRA.REPUL>
0

>  <SCORE.INTRA.REPUL.0>
0

>  <SCORE.INTRA.SOLV>
0.364648

>  <SCORE.INTRA.SOLV.lig_0>
-50.1861

>  <SCORE.INTRA.VDW>
0.243907

>  <SCORE.INTRA.VDW.0>
-1.36671

>  <SCORE.INTRA.norm>
-0.250678

>  <SCORE.RESTR>
0

>  <SCORE.RESTR.CAVITY>
0

>  <SCORE.RESTR.norm>
0

>  <SCORE.SYSTEM>
0

>  <SCORE.SYSTEM.CONST>
0

>  <SCORE.SYSTEM.DIHEDRAL>
0

>  <SCORE.SYSTEM.SOLV>
0

>  <SCORE.SYSTEM.norm>
0

>  <SCORE.heavy>
14

>  <SCORE.norm>
-0.260281

>  <RMSD>
1.565

$$$$
ligand
 OpenBabel11021811393D
libRbt.so/2013.1/901 2013/11/27
 14 13  0  0  0  0  0  0  0  0999 V2000
   -5.1091    1.3694    9.0063 N   0  0  0  0  0  0  0  0  0  0  0  0
   -4.1179    0.9103   10.0763 C   0  0  0  0  0  0  0  0  0  0  0  0
   -2.8450    1.6098    9.7644 C   0  0  0  0  0  0  0  0  0  0  0  0
   -1.7298    1.3693   10.7690 C   0  0  0  0  0  0  0  0  0  0  0  0
   -1.3279   -0.0623   10.7313 N   0  0  0  0  0  0  0  0  0  0  0  0
    0.1878   -0.1603   10.4809 C   0  0  0  0  0  0  0  0  0  0  0  0
    0.4520   -1.7341   10.6397 C   0  0  0  0  0  0  0  0  0  0  0  0
    1.7341   -1.9737   10.5076 C   0  0  0  0  0  0  0  0  0  0  0  0
    1.6339   -3.6062   10.5887 C   0  0  0  0  0  0  0  0  0  0  0  0
    3.1501   -3.9299   10.3705 N   0  0  0  0  0  0  0  0  0  0  0  0
    3.4838   -5.4731   10.4494 C   0  0  0  0  0  0  0  0  0  0  0  0
    5.0908   -5.5993   10.1858 C   0  0  0  0  0  0  0  0  0  0  0  0
    5.2618   -5.0758    8.7894 C   0  0  0  0  0  0  0  0  0  0  0  0
    6.6315   -5.5412    8.3544 N   0  0  0  0  0  0  0  0  0  0  0  0
  1  2  1  0  0  0  0
  2  3  1  0  0  0  0
  3  4  1  0  0  0  0
  4  5  1  0  0  0  0
  5  6  1  0  0  0  0
  6  7  1  0  0  0  0
  7  8  1  0  0  0  0
  8  9  1  0  0  0  0
  9 10  1  0  0  0  0
 10 11  1  0  0  0  0
 11 12  1  0  0  0  0
 12 13  1  0  0  0  0
 13 14  1  0  0  0  0
M  END
>  <CHROM.1>
176.08824284,65.54188048,125.32835873,173.83956314,-177.31535595,-175.45667695
177.66419337,177.36202370,179.50960956,-62.77117089,-163.80966371,0.89258584
-1.99262232,10.05116073,-2.99665031,-0.64578950,1.87864935

>  <Name>
ligand

>  <RI>
0

>  <Rbt.Current_Directory>
/home/itssahil/PROJECTS/Mol_Feturizer/New_Systems/rnas/1FUF

>  <Rbt.Executable>
rbdock ($Id: //depot/dev/client3/rdock/2013.1/src/exe/rbdock.cxx#4 $)

>  <Rbt.Library>
libRbt.so (2013.1, Build901 2013/11/27)

>  <Rbt.Parameter_File>
/export/apps/rDock/src/rDock_2013.1_src/data/scripts/dock_solv.prm

>  <Rbt.Receptor>
prm/pocket_docking_2.prm

>  <SCORE>
-4.44511

>  <SCORE.INTER>
-1.0925

>  <SCORE.INTER.CONST>
1

>  <SCORE.INTER.POLAR>
0

>  <SCORE.INTER.ROT>
11

>  <SCORE.INTER.SOLV>
15.1273

>  <SCORE.INTER.VDW>
-16.7041

>  <SCORE.INTER.norm>
-0.0780359

>  <SCORE.INTRA>
-3.36242

>  <SCORE.INTRA.DIHEDRAL>
-8.09299

>  <SCORE.INTRA.DIHEDRAL.0>
10.5765

>  <SCORE.INTRA.POLAR>
0

>  <SCORE.INTRA.POLAR.0>
0

>  <SCORE.INTRA.REPUL>
0

>  <SCORE.INTRA.REPUL.0>
0

>  <SCORE.INTRA.SOLV>
0.661735

>  <SCORE.INTRA.SOLV.lig_0>
-50.1861

>  <SCORE.INTRA.VDW>
0.353212

>  <SCORE.INTRA.VDW.0>
-1.36671

>  <SCORE.INTRA.norm>
-0.240173

>  <SCORE.RESTR>
0.0098049

>  <SCORE.RESTR.CAVITY>
0.0098049

>  <SCORE.RESTR.norm>
0.00070035

>  <SCORE.SYSTEM>
0

>  <SCORE.SYSTEM.CONST>
0

>  <SCORE.SYSTEM.DIHEDRAL>
0

>  <SCORE.SYSTEM.SOLV>
0

>  <SCORE.SYSTEM.norm>
0

>  <SCORE.heavy>
14

>  <SCORE.norm>
-0.317508

>  <RMSD>
1.567

$$$$
ligand
 OpenBabel11021811393D
libRbt.so/2013.1/901 2013/11/27
 14 13  0  0  0  0  0  0  0  0999 V2000
   -4.9118    2.9286    7.1583 N   0  0  0  0  0  0  0  0  0  0  0  0
   -3.7530    2.3267    7.9537 C   0  0  0  0  0  0  0  0  0  0  0  0
   -4.2736    2.1376    9.3321 C   0  0  0  0  0  0  0  0  0  0  0  0
   -3.2259    1.7195   10.3510 C   0  0  0  0  0  0  0  0  0  0  0  0
   -2.7184    0.3627   10.0131 N   0  0  0  0  0  0  0  0  0  0  0  0
   -1.2745    0.4734    9.4910 C   0  0  0  0  0  0  0  0  0  0  0  0
   -0.4689   -0.4326   10.5408 C   0  0  0  0  0  0  0  0  0  0  0  0
    0.7709   -0.5659   10.1362 C   0  0  0  0  0  0  0  0  0  0  0  0
    1.2165   -1.6835   11.2471 C   0  0  0  0  0  0  0  0  0  0  0  0
    2.5762   -2.1082   10.5974 N   0  0  0  0  0  0  0  0  0  0  0  0
    3.1475   -3.4698   11.1619 C   0  0  0  0  0  0  0  0  0  0  0  0
    3.9489   -4.1691    9.9223 C   0  0  0  0  0  0  0  0  0  0  0  0
    4.2462   -5.5506   10.4285 C   0  0  0  0  0  0  0  0  0  0  0  0
    4.9625   -6.2449    9.2942 N   0  0  0  0  0  0  0  0  0  0  0  0
  1  2  1  0  0  0  0
  2  3  1  0  0  0  0
  3  4  1  0  0  0  0
  4  5  1  0  0  0  0
  5  6  1  0  0  0  0
  6  7  1  0  0  0  0
  7  8  1  0  0  0  0
  8  9  1  0  0  0  0
  9 10  1  0  0  0  0
 10 11  1  0  0  0  0
 11 12  1  0  0  0  0
 12 13  1  0  0  0  0
 13 14  1  0  0  0  0
M  END
>  <CHROM.1>
-172.15439502,-65.69720820,108.94535669,120.54150116,172.67061104,-171.71928584
167.65273119,-163.97776293,147.97736477,-169.91785772,178.72283992,0.01734242
-1.01961611,9.83076735,3.08688316,-0.71971713,1.27239826

>  <Name>
ligand

>  <RI>
0

>  <Rbt.Current_Directory>
/home/itssahil/PROJECTS/Mol_Feturizer/New_Systems/rnas/1FUF

>  <Rbt.Executable>
rbdock ($Id: //depot/dev/client3/rdock/2013.1/src/exe/rbdock.cxx#4 $)

>  <Rbt.Library>
libRbt.so (2013.1, Build901 2013/11/27)

>  <Rbt.Parameter_File>
/export/apps/rDock/src/rDock_2013.1_src/data/scripts/dock_solv.prm

>  <Rbt.Receptor>
prm/blind_docking_60.prm

>  <SCORE>
-4.7212

>  <SCORE.INTER>
-2.12294

>  <SCORE.INTER.CONST>
1

>  <SCORE.INTER.POLAR>
0

>  <SCORE.INTER.ROT>
11

>  <SCORE.INTER.SOLV>
16.1027

>  <SCORE.INTER.VDW>
-17.7162

>  <SCORE.INTER.norm>
-0.151639

>  <SCORE.INTRA>
-2.59826

>  <SCORE.INTRA.DIHEDRAL>
-5.63769

>  <SCORE.INTRA.DIHEDRAL.0>
10.5765

>  <SCORE.INTRA.POLAR>
0

>  <SCORE.INTRA.POLAR.0>
0

>  <SCORE.INTRA.REPUL>
0

>  <SCORE.INTRA.REPUL.0>
0

>  <SCORE.INTRA.SOLV>
0.196108

>  <SCORE.INTRA.SOLV.lig_0>
-50.1861

>  <SCORE.INTRA.VDW>
0.122529

>  <SCORE.INTRA.VDW.0>
-1.36671

>  <SCORE.INTRA.norm>
-0.18559

>  <SCORE.RESTR>
0

>  <SCORE.RESTR.CAVITY>
0

>  <SCORE.RESTR.norm>
0

>  <SCORE.SYSTEM>
0

>  <SCORE.SYSTEM.CONST>
0

>  <SCORE.SYSTEM.DIHEDRAL>
0

>  <SCORE.SYSTEM.SOLV>
0

>  <SCORE.SYSTEM.norm>
0

>  <SCORE.heavy>
14

>  <SCORE.norm>
-0.337228

>  <RMSD>
1.568

$$$$
ligand
 OpenBabel11021811393D
libRbt.so/2013.1/901 2013/11/27
 14 13  0  0  0  0  0  0  0  0999 V2000
   -5.4384    2.5824    8.0289 N   0  0  0  0  0  0  0  0  0  0  0  0
   -5.0524    2.6502    9.5069 C   0  0  0  0  0  0  0  0  0  0  0  0
   -4.8611    1.2399    9.9323 C   0  0  0  0  0  0  0  0  0  0  0  0
   -3.6666    0.5457    9.2985 C   0  0  0  0  0  0  0  0  0  0  0  0
   -2.4144    1.2296    9.7185 N   0  0  0  0  0  0  0  0  0  0  0  0
   -1.2113    0.3133    9.4308 C   0  0  0  0  0  0  0  0  0  0  0  0
   -0.8149   -0.1898   10.9010 C   0  0  0  0  0  0  0  0  0  0  0  0
   -0.3502   -1.4135   10.8295 C   0  0  0  0  0  0  0  0  0  0  0  0
    1.2194   -1.0096   10.5949 C   0  0  0  0  0  0  0  0  0  0  0  0
    1.8147   -2.4572   10.5562 N   0  0  0  0  0  0  0  0  0  0  0  0
    3.3859   -2.4982   10.7261 C   0  0  0  0  0  0  0  0  0  0  0  0
    3.7951   -4.0794   10.7401 C   0  0  0  0  0  0  0  0  0  0  0  0
    3.6403   -4.4970    9.3066 C   0  0  0  0  0  0  0  0  0  0  0  0
    4.0301   -5.9560    9.2723 N   0  0  0  0  0  0  0  0  0  0  0  0
  1  2  1  0  0  0  0
  2  3  1  0  0  0  0
  3  4  1  0  0  0  0
  4  5  1  0  0  0  0
  5  6  1  0  0  0  0
  6  7  1  0  0  0  0
  7  8  1  0  0  0  0
  8  9  1  0  0  0  0
  9 10  1  0  0  0  0
 10 11  1  0  0  0  0
 11 12  1  0  0  0  0
 12 13  1  0  0  0  0
 13 14  1  0  0  0  0
M  END
>  <CHROM.1>
67.46568774,63.24758773,163.63029760,-105.95306192,146.97762810,89.35330409
178.07253490,-164.52741831,177.00278740,73.67935515,179.21532751,-0.42310620
-0.96703251,9.91754096,2.75465400,-0.53292478,0.75756847

>  <Name>
ligand

>  <RI>
0

>  <Rbt.Current_Directory>
/home/itssahil/PROJECTS/Mol_Feturizer/New_Systems/rnas/1FUF

>  <Rbt.Executable>
rbdock ($Id: //depot/dev/client3/rdock/2013.1/src/exe/rbdock.cxx#4 $)

>  <Rbt.Library>
libRbt.so (2013.1, Build901 2013/11/27)

>  <Rbt.Parameter_File>
/export/apps/rDock/src/rDock_2013.1_src/data/scripts/dock_solv.prm

>  <Rbt.Receptor>
prm/blind_docking_40.prm

>  <SCORE>
-0.168815

>  <SCORE.INTER>
-1.55783

>  <SCORE.INTER.CONST>
1

>  <SCORE.INTER.POLAR>
0

>  <SCORE.INTER.ROT>
11

>  <SCORE.INTER.SOLV>
14.8423

>  <SCORE.INTER.VDW>
-16.9193

>  <SCORE.INTER.norm>
-0.111274

>  <SCORE.INTRA>
1.38902

>  <SCORE.INTRA.DIHEDRAL>
-2.03667

>  <SCORE.INTRA.DIHEDRAL.0>
10.5765

>  <SCORE.INTRA.POLAR>
0

>  <SCORE.INTRA.POLAR.0>
0

>  <SCORE.INTRA.REPUL>
0

>  <SCORE.INTRA.REPUL.0>
0

>  <SCORE.INTRA.SOLV>
2.29871

>  <SCORE.INTRA.SOLV.lig_0>
-50.1861

>  <SCORE.INTRA.VDW>
1.25799

>  <SCORE.INTRA.VDW.0>
-1.36671

>  <SCORE.INTRA.norm>
0.0992155

>  <SCORE.RESTR>
0

>  <SCORE.RESTR.CAVITY>
0

>  <SCORE.RESTR.norm>
0

>  <SCORE.SYSTEM>
0

>  <SCORE.SYSTEM.CONST>
0

>  <SCORE.SYSTEM.DIHEDRAL>
0

>  <SCORE.SYSTEM.SOLV>
0

>  <SCORE.SYSTEM.norm>
0

>  <SCORE.heavy>
14

>  <SCORE.norm>
-0.0120582

>  <RMSD>
1.569

$$$$
ligand
 OpenBabel11021811393D
libRbt.so/2013.1/901 2013/11/27
 14 13  0  0  0  0  0  0  0  0999 V2000
   -5.1216    2.9221    7.2183 N   0  0  0  0  0  0  0  0  0  0  0  0
   -3.9200    2.3521    7.9728 C   0  0  0  0  0  0  0  0  0  0  0  0
   -4.3936    2.1290    9.3629 C   0  0  0  0  0  0  0  0  0  0  0  0
   -3.3051    1.7241   10.3436 C   0  0  0  0  0  0  0  0  0  0  0  0
   -2.7449    0.4047    9.9467 N   0  0  0  0  0  0  0  0  0  0  0  0
   -1.2744    0.5802    9.5264 C   0  0  0  0  0  0  0  0  0  0  0  0
   -0.5335   -0.5117   10.4378 C   0  0  0  0  0  0  0  0  0  0  0  0
    0.7403   -0.5412   10.1292 C   0  0  0  0  0  0  0  0  0  0  0  0
    1.1344   -1.8279   11.0624 C   0  0  0  0  0  0  0  0  0  0  0  0
    2.5911   -2.0457   10.5314 N   0  0  0  0  0  0  0  0  0  0  0  0
    3.3313   -3.2702   11.2033 C   0  0  0  0  0  0  0  0  0  0  0  0
    2.9323   -4.5801   10.3128 C   0  0  0  0  0  0  0  0  0  0  0  0
    3.6740   -4.3707    9.0247 C   0  0  0  0  0  0  0  0  0  0  0  0
    5.1119   -4.7169    9.3322 N   0  0  0  0  0  0  0  0  0  0  0  0
  1  2  1  0  0  0  0
  2  3  1  0  0  0  0
  3  4  1  0  0  0  0
  4  5  1  0  0  0  0
  5  6  1  0  0  0  0
  6  7  1  0  0  0  0
  7  8  1  0  0  0  0
  8  9  1  0  0  0  0
  9 10  1  0  0  0  0
 10 11  1  0  0  0  0
 11 12  1  0  0  0  0
 12 13  1  0  0  0  0
 13 14  1  0  0  0  0
M  END
>  <CHROM.1>
-172.67214254,-64.04679497,114.36569169,127.14930166,176.09577015,-173.46938447
170.75172111,-179.02153752,87.35532566,70.87893143,76.31588371,-0.12702741
-0.83942140,9.74336260,-3.07829443,-0.67477173,1.45727944

>  <Name>
ligand

>  <RI>
0

>  <Rbt.Current_Directory>
/home/itssahil/PROJECTS/Mol_Feturizer/New_Systems/rnas/1FUF

>  <Rbt.Executable>
rbdock ($Id: //depot/dev/client3/rdock/2013.1/src/exe/rbdock.cxx#4 $)

>  <Rbt.Library>
libRbt.so (2013.1, Build901 2013/11/27)

>  <Rbt.Parameter_File>
/export/apps/rDock/src/rDock_2013.1_src/data/scripts/dock_solv.prm

>  <Rbt.Receptor>
prm/blind_docking_40.prm

>  <SCORE>
-2.8922

>  <SCORE.INTER>
-1.48189

>  <SCORE.INTER.CONST>
1

>  <SCORE.INTER.POLAR>
0

>  <SCORE.INTER.ROT>
11

>  <SCORE.INTER.SOLV>
15.7156

>  <SCORE.INTER.VDW>
-17.1598

>  <SCORE.INTER.norm>
-0.105849

>  <SCORE.INTRA>
-1.41031

>  <SCORE.INTRA.DIHEDRAL>
-5.52846

>  <SCORE.INTRA.DIHEDRAL.0>
10.5765

>  <SCORE.INTRA.POLAR>
0

>  <SCORE.INTRA.POLAR.0>
0

>  <SCORE.INTRA.REPUL>
0

>  <SCORE.INTRA.REPUL.0>
0

>  <SCORE.INTRA.SOLV>
1.8508

>  <SCORE.INTRA.SOLV.lig_0>
-50.1861

>  <SCORE.INTRA.VDW>
0.42852

>  <SCORE.INTRA.VDW.0>
-1.36671

>  <SCORE.INTRA.norm>
-0.100736

>  <SCORE.RESTR>
0

>  <SCORE.RESTR.CAVITY>
0

>  <SCORE.RESTR.norm>
0

>  <SCORE.SYSTEM>
0

>  <SCORE.SYSTEM.CONST>
0

>  <SCORE.SYSTEM.DIHEDRAL>
0

>  <SCORE.SYSTEM.SOLV>
0

>  <SCORE.SYSTEM.norm>
0

>  <SCORE.heavy>
14

>  <SCORE.norm>
-0.206586

>  <RMSD>
1.572

$$$$
ligand
 OpenBabel11021811393D
libRbt.so/2013.1/901 2013/11/27
 14 13  0  0  0  0  0  0  0  0999 V2000
    4.9872   -5.5692    8.3671 N   0  0  0  0  0  0  0  0  0  0  0  0
    5.3325   -4.1896    8.9289 C   0  0  0  0  0  0  0  0  0  0  0  0
    5.2113   -4.3199   10.4036 C   0  0  0  0  0  0  0  0  0  0  0  0
    3.7903   -4.5192   10.9053 C   0  0  0  0  0  0  0  0  0  0  0  0
    2.9713   -3.3254   10.5640 N   0  0  0  0  0  0  0  0  0  0  0  0
    1.4957   -3.6057   10.9013 C   0  0  0  0  0  0  0  0  0  0  0  0
    0.7894   -2.2281   10.4824 C   0  0  0  0  0  0  0  0  0  0  0  0
    1.1865   -1.2747   11.2898 C   0  0  0  0  0  0  0  0  0  0  0  0
    0.5544   -0.0265   10.4388 C   0  0  0  0  0  0  0  0  0  0  0  0
   -0.8651   -0.0078   11.0990 N   0  0  0  0  0  0  0  0  0  0  0  0
   -2.0282    0.3372   10.0854 C   0  0  0  0  0  0  0  0  0  0  0  0
   -2.8882    1.5392   10.7807 C   0  0  0  0  0  0  0  0  0  0  0  0
   -4.0145    1.7712    9.8159 C   0  0  0  0  0  0  0  0  0  0  0  0
   -4.8738    0.5318    9.9011 N   0  0  0  0  0  0  0  0  0  0  0  0
  1  2  1  0  0  0  0
  2  3  1  0  0  0  0
  3  4  1  0  0  0  0
  4  5  1  0  0  0  0
  5  6  1  0  0  0  0
  6  7  1  0  0  0  0
  7  8  1  0  0  0  0
  8  9  1  0  0  0  0
  9 10  1  0  0  0  0
 10 11  1  0  0  0  0
 11 12  1  0  0  0  0
 12 13  1  0  0  0  0
 13 14  1  0  0  0  0
M  END
>  <CHROM.1>
-68.64743001,-62.80180649,172.44046731,179.60457016,-67.26413961,169.51676199
88.67952640,-143.27669163,-129.09708584,-176.99312113,68.58603780,0.83217195
-1.77749312,10.28320262,0.43294344,0.45806000,-2.28660675

>  <Name>
ligand

>  <RI>
0

>  <Rbt.Current_Directory>
/home/itssahil/PROJECTS/Mol_Feturizer/New_Systems/rnas/1FUF

>  <Rbt.Executable>
rbdock ($Id: //depot/dev/client3/rdock/2013.1/src/exe/rbdock.cxx#4 $)

>  <Rbt.Library>
libRbt.so (2013.1, Build901 2013/11/27)

>  <Rbt.Parameter_File>
/export/apps/rDock/src/rDock_2013.1_src/data/scripts/dock_solv.prm

>  <Rbt.Receptor>
prm/pocket_docking_2.prm

>  <SCORE>
1.10789

>  <SCORE.INTER>
0.371943

>  <SCORE.INTER.CONST>
1

>  <SCORE.INTER.POLAR>
0

>  <SCORE.INTER.ROT>
11

>  <SCORE.INTER.SOLV>
18.0399

>  <SCORE.INTER.VDW>
-16.6987

>  <SCORE.INTER.norm>
0.0265673

>  <SCORE.INTRA>
0.727052

>  <SCORE.INTRA.DIHEDRAL>
-4.75763

>  <SCORE.INTRA.DIHEDRAL.0>
10.5765

>  <SCORE.INTRA.POLAR>
0

>  <SCORE.INTRA.POLAR.0>
0

>  <SCORE.INTRA.REPUL>
0

>  <SCORE.INTRA.REPUL.0>
0

>  <SCORE.INTRA.SOLV>
3.46902

>  <SCORE.INTRA.SOLV.lig_0>
-50.1861

>  <SCORE.INTRA.VDW>
1.37135

>  <SCORE.INTRA.VDW.0>
-1.36671

>  <SCORE.INTRA.norm>
0.0519323

>  <SCORE.RESTR>
0.00889971

>  <SCORE.RESTR.CAVITY>
0.00889971

>  <SCORE.RESTR.norm>
0.000635694

>  <SCORE.SYSTEM>
0

>  <SCORE.SYSTEM.CONST>
0

>  <SCORE.SYSTEM.DIHEDRAL>
0

>  <SCORE.SYSTEM.SOLV>
0

>  <SCORE.SYSTEM.norm>
0

>  <SCORE.heavy>
14

>  <SCORE.norm>
0.0791353

>  <RMSD>
1.573

$$$$
ligand
 OpenBabel11021811393D
libRbt.so/2013.1/901 2013/11/27
 14 13  0  0  0  0  0  0  0  0999 V2000
   -5.4855    1.3934    9.2808 N   0  0  0  0  0  0  0  0  0  0  0  0
   -4.3120    0.8372   10.0879 C   0  0  0  0  0  0  0  0  0  0  0  0
   -3.2110    1.8195    9.9159 C   0  0  0  0  0  0  0  0  0  0  0  0
   -1.9498    1.4983   10.7012 C   0  0  0  0  0  0  0  0  0  0  0  0
   -1.3200    0.2695   10.1483 N   0  0  0  0  0  0  0  0  0  0  0  0
   -0.0605   -0.0704   10.9656 C   0  0  0  0  0  0  0  0  0  0  0  0
    0.2818   -1.5507   10.4523 C   0  0  0  0  0  0  0  0  0  0  0  0
    1.2832   -2.0301   11.1494 C   0  0  0  0  0  0  0  0  0  0  0  0
    1.3953   -3.4629   10.3644 C   0  0  0  0  0  0  0  0  0  0  0  0
    2.5109   -4.1117   11.2508 N   0  0  0  0  0  0  0  0  0  0  0  0
    3.9732   -3.6578   10.8574 C   0  0  0  0  0  0  0  0  0  0  0  0
    4.7584   -5.0162   10.4034 C   0  0  0  0  0  0  0  0  0  0  0  0
    4.0919   -5.3948    9.1128 C   0  0  0  0  0  0  0  0  0  0  0  0
    4.8376   -6.6132    8.6217 N   0  0  0  0  0  0  0  0  0  0  0  0
  1  2  1  0  0  0  0
  2  3  1  0  0  0  0
  3  4  1  0  0  0  0
  4  5  1  0  0  0  0
  5  6  1  0  0  0  0
  6  7  1  0  0  0  0
  7  8  1  0  0  0  0
  8  9  1  0  0  0  0
  9 10  1  0  0  0  0
 10 11  1  0  0  0  0
 11 12  1  0  0  0  0
 12 13  1  0  0  0  0
 13 14  1  0  0  0  0
M  END
>  <CHROM.1>
177.03545630,67.49652732,-178.75420965,168.07790436,-174.68553792,-178.22965125
-175.65279998,-82.12166170,-118.45370332,69.06470424,177.25418110,0.48539058
-1.86340174,10.23674076,2.60684772,-0.46786561,0.66884014

>  <Name>
ligand

>  <RI>
0

>  <Rbt.Current_Directory>
/home/itssahil/PROJECTS/Mol_Feturizer/New_Systems/rnas/1FUF

>  <Rbt.Executable>
rbdock ($Id: //depot/dev/client3/rdock/2013.1/src/exe/rbdock.cxx#4 $)

>  <Rbt.Library>
libRbt.so (2013.1, Build901 2013/11/27)

>  <Rbt.Parameter_File>
/export/apps/rDock/src/rDock_2013.1_src/data/scripts/dock_solv.prm

>  <Rbt.Receptor>
prm/pocket_docking_4.prm

>  <SCORE>
-5.46113

>  <SCORE.INTER>
-2.16691

>  <SCORE.INTER.CONST>
1

>  <SCORE.INTER.POLAR>
0

>  <SCORE.INTER.ROT>
11

>  <SCORE.INTER.SOLV>
15.6106

>  <SCORE.INTER.VDW>
-17.5815

>  <SCORE.INTER.norm>
-0.154779

>  <SCORE.INTRA>
-3.29422

>  <SCORE.INTRA.DIHEDRAL>
-8.13741

>  <SCORE.INTRA.DIHEDRAL.0>
10.5765

>  <SCORE.INTRA.POLAR>
0

>  <SCORE.INTRA.POLAR.0>
0

>  <SCORE.INTRA.REPUL>
0

>  <SCORE.INTRA.REPUL.0>
0

>  <SCORE.INTRA.SOLV>
0.639991

>  <SCORE.INTRA.SOLV.lig_0>
-50.1861

>  <SCORE.INTRA.VDW>
0.45449

>  <SCORE.INTRA.VDW.0>
-1.36671

>  <SCORE.INTRA.norm>
-0.235302

>  <SCORE.RESTR>
0

>  <SCORE.RESTR.CAVITY>
0

>  <SCORE.RESTR.norm>
0

>  <SCORE.SYSTEM>
0

>  <SCORE.SYSTEM.CONST>
0

>  <SCORE.SYSTEM.DIHEDRAL>
0

>  <SCORE.SYSTEM.SOLV>
0

>  <SCORE.SYSTEM.norm>
0

>  <SCORE.heavy>
14

>  <SCORE.norm>
-0.390081

>  <RMSD>
1.576

$$$$
ligand
 OpenBabel11021811393D
libRbt.so/2013.1/901 2013/11/27
 14 13  0  0  0  0  0  0  0  0999 V2000
   -4.7708    0.9592    9.0557 N   0  0  0  0  0  0  0  0  0  0  0  0
   -3.8986    2.1616    9.4180 C   0  0  0  0  0  0  0  0  0  0  0  0
   -2.9002    1.6489   10.3911 C   0  0  0  0  0  0  0  0  0  0  0  0
   -1.8203    0.7686    9.7833 C   0  0  0  0  0  0  0  0  0  0  0  0
   -0.9038    0.2955   10.8549 N   0  0  0  0  0  0  0  0  0  0  0  0
    0.4367   -0.1300   10.2289 C   0  0  0  0  0  0  0  0  0  0  0  0
    0.4861   -1.6949   10.5762 C   0  0  0  0  0  0  0  0  0  0  0  0
    1.7270   -2.1133   10.5148 C   0  0  0  0  0  0  0  0  0  0  0  0
    1.4012   -3.7082   10.6924 C   0  0  0  0  0  0  0  0  0  0  0  0
    2.8322   -4.1779   11.1201 N   0  0  0  0  0  0  0  0  0  0  0  0
    3.8216   -4.3754    9.9031 C   0  0  0  0  0  0  0  0  0  0  0  0
    5.3256   -4.3616   10.5400 C   0  0  0  0  0  0  0  0  0  0  0  0
    6.2182   -4.4999    9.3411 C   0  0  0  0  0  0  0  0  0  0  0  0
    5.9703   -5.8954    8.8186 N   0  0  0  0  0  0  0  0  0  0  0  0
  1  2  1  0  0  0  0
  2  3  1  0  0  0  0
  3  4  1  0  0  0  0
  4  5  1  0  0  0  0
  5  6  1  0  0  0  0
  6  7  1  0  0  0  0
  7  8  1  0  0  0  0
  8  9  1  0  0  0  0
  9 10  1  0  0  0  0
 10 11  1  0  0  0  0
 11 12  1  0  0  0  0
 12 13  1  0  0  0  0
 13 14  1  0  0  0  0
M  END
>  <CHROM.1>
73.02427013,-178.76675778,-159.06908702,-116.81851057,-159.13706883,-172.34868368
-161.34869437,-80.98492569,161.46920499,-177.94899449,-67.69531778,0.99475428
-1.79432167,10.08847833,2.50322400,-0.03764645,0.04414885

>  <Name>
ligand

>  <RI>
0

>  <Rbt.Current_Directory>
/home/itssahil/PROJECTS/Mol_Feturizer/New_Systems/rnas/1FUF

>  <Rbt.Executable>
rbdock ($Id: //depot/dev/client3/rdock/2013.1/src/exe/rbdock.cxx#4 $)

>  <Rbt.Library>
libRbt.so (2013.1, Build901 2013/11/27)

>  <Rbt.Parameter_File>
/export/apps/rDock/src/rDock_2013.1_src/data/scripts/dock_solv.prm

>  <Rbt.Receptor>
prm/pocket_docking_4.prm

>  <SCORE>
-0.957377

>  <SCORE.INTER>
-0.319534

>  <SCORE.INTER.CONST>
1

>  <SCORE.INTER.POLAR>
0

>  <SCORE.INTER.ROT>
11

>  <SCORE.INTER.SOLV>
16.6766

>  <SCORE.INTER.VDW>
-16.7052

>  <SCORE.INTER.norm>
-0.0228238

>  <SCORE.INTRA>
-0.637843

>  <SCORE.INTRA.DIHEDRAL>
-4.66455

>  <SCORE.INTRA.DIHEDRAL.0>
10.5765

>  <SCORE.INTRA.POLAR>
0

>  <SCORE.INTRA.POLAR.0>
0

>  <SCORE.INTRA.REPUL>
0

>  <SCORE.INTRA.REPUL.0>
0

>  <SCORE.INTRA.SOLV>
1.61994

>  <SCORE.INTRA.SOLV.lig_0>
-50.1861

>  <SCORE.INTRA.VDW>
0.884462

>  <SCORE.INTRA.VDW.0>
-1.36671

>  <SCORE.INTRA.norm>
-0.0455602

>  <SCORE.RESTR>
0

>  <SCORE.RESTR.CAVITY>
0

>  <SCORE.RESTR.norm>
0

>  <SCORE.SYSTEM>
0

>  <SCORE.SYSTEM.CONST>
0

>  <SCORE.SYSTEM.DIHEDRAL>
0

>  <SCORE.SYSTEM.SOLV>
0

>  <SCORE.SYSTEM.norm>
0

>  <SCORE.heavy>
14

>  <SCORE.norm>
-0.068384

>  <RMSD>
1.580

$$$$
ligand
 OpenBabel11021811393D
libRbt.so/2013.1/901 2013/11/27
 14 13  0  0  0  0  0  0  0  0999 V2000
   -5.0313    2.4706    8.0246 N   0  0  0  0  0  0  0  0  0  0  0  0
   -4.5418    1.9747    9.3857 C   0  0  0  0  0  0  0  0  0  0  0  0
   -3.2843    1.2337    9.1093 C   0  0  0  0  0  0  0  0  0  0  0  0
   -2.6081    0.6557   10.3419 C   0  0  0  0  0  0  0  0  0  0  0  0
   -1.3284    0.0079    9.9483 N   0  0  0  0  0  0  0  0  0  0  0  0
   -0.2522    0.3211   11.0036 C   0  0  0  0  0  0  0  0  0  0  0  0
    1.0319   -0.4302   10.4049 C   0  0  0  0  0  0  0  0  0  0  0  0
    0.9508   -1.7101   10.6766 C   0  0  0  0  0  0  0  0  0  0  0  0
    2.4712   -2.1021   10.2113 C   0  0  0  0  0  0  0  0  0  0  0  0
    2.4198   -3.6280   10.5579 N   0  0  0  0  0  0  0  0  0  0  0  0
    3.8440   -4.2666   10.8091 C   0  0  0  0  0  0  0  0  0  0  0  0
    4.6135   -4.2290    9.3689 C   0  0  0  0  0  0  0  0  0  0  0  0
    3.8739   -5.2440    8.5467 C   0  0  0  0  0  0  0  0  0  0  0  0
    4.3147   -6.5867    9.0804 N   0  0  0  0  0  0  0  0  0  0  0  0
  1  2  1  0  0  0  0
  2  3  1  0  0  0  0
  3  4  1  0  0  0  0
  4  5  1  0  0  0  0
  5  6  1  0  0  0  0
  6  7  1  0  0  0  0
  7  8  1  0  0  0  0
  8  9  1  0  0  0  0
  9 10  1  0  0  0  0
 10 11  1  0  0  0  0
 11 12  1  0  0  0  0
 12 13  1  0  0  0  0
 13 14  1  0  0  0  0
M  END
>  <CHROM.1>
179.45921169,-176.82831224,139.75430549,-179.25102423,-79.46543422,-169.92410290
178.66987474,-156.43184008,-67.10936194,-69.80764700,-74.12230789,0.46255293
-1.53791470,9.81941691,2.71832854,-0.57905564,0.82941568

>  <Name>
ligand

>  <RI>
0

>  <Rbt.Current_Directory>
/home/itssahil/PROJECTS/Mol_Feturizer/New_Systems/rnas/1FUF

>  <Rbt.Executable>
rbdock ($Id: //depot/dev/client3/rdock/2013.1/src/exe/rbdock.cxx#4 $)

>  <Rbt.Library>
libRbt.so (2013.1, Build901 2013/11/27)

>  <Rbt.Parameter_File>
/export/apps/rDock/src/rDock_2013.1_src/data/scripts/dock_solv.prm

>  <Rbt.Receptor>
prm/pocket_docking_3.prm

>  <SCORE>
-2.72901

>  <SCORE.INTER>
-1.45239

>  <SCORE.INTER.CONST>
1

>  <SCORE.INTER.POLAR>
0

>  <SCORE.INTER.ROT>
11

>  <SCORE.INTER.SOLV>
15.0793

>  <SCORE.INTER.VDW>
-16.928

>  <SCORE.INTER.norm>
-0.103742

>  <SCORE.INTRA>
-1.27661

>  <SCORE.INTRA.DIHEDRAL>
-6.37426

>  <SCORE.INTRA.DIHEDRAL.0>
10.5765

>  <SCORE.INTRA.POLAR>
0

>  <SCORE.INTRA.POLAR.0>
0

>  <SCORE.INTRA.REPUL>
0

>  <SCORE.INTRA.REPUL.0>
0

>  <SCORE.INTRA.SOLV>
1.94938

>  <SCORE.INTRA.SOLV.lig_0>
-50.1861

>  <SCORE.INTRA.VDW>
0.935825

>  <SCORE.INTRA.VDW.0>
-1.36671

>  <SCORE.INTRA.norm>
-0.0911867

>  <SCORE.RESTR>
0

>  <SCORE.RESTR.CAVITY>
0

>  <SCORE.RESTR.norm>
0

>  <SCORE.SYSTEM>
0

>  <SCORE.SYSTEM.CONST>
0

>  <SCORE.SYSTEM.DIHEDRAL>
0

>  <SCORE.SYSTEM.SOLV>
0

>  <SCORE.SYSTEM.norm>
0

>  <SCORE.heavy>
14

>  <SCORE.norm>
-0.194929

>  <RMSD>
1.589

$$$$
ligand
 OpenBabel11021811393D
libRbt.so/2013.1/901 2013/11/27
 14 13  0  0  0  0  0  0  0  0999 V2000
    4.6475   -6.8017    8.3705 N   0  0  0  0  0  0  0  0  0  0  0  0
    3.9730   -6.1809    9.5943 C   0  0  0  0  0  0  0  0  0  0  0  0
    4.6004   -4.8444    9.7581 C   0  0  0  0  0  0  0  0  0  0  0  0
    4.1736   -4.0956   11.0102 C   0  0  0  0  0  0  0  0  0  0  0  0
    2.7189   -3.7943   10.9369 N   0  0  0  0  0  0  0  0  0  0  0  0
    2.5181   -2.3914   10.3358 C   0  0  0  0  0  0  0  0  0  0  0  0
    1.0315   -2.0308   10.8175 C   0  0  0  0  0  0  0  0  0  0  0  0
    0.6682   -0.8896   10.2844 C   0  0  0  0  0  0  0  0  0  0  0  0
   -0.8398   -0.8513   10.9216 C   0  0  0  0  0  0  0  0  0  0  0  0
   -1.3761    0.3951   10.1404 N   0  0  0  0  0  0  0  0  0  0  0  0
   -2.9127    0.6778   10.3813 C   0  0  0  0  0  0  0  0  0  0  0  0
   -3.3943    1.6278    9.1430 C   0  0  0  0  0  0  0  0  0  0  0  0
   -4.8488    1.8671    9.4264 C   0  0  0  0  0  0  0  0  0  0  0  0
   -5.3534    2.6819    8.2588 N   0  0  0  0  0  0  0  0  0  0  0  0
  1  2  1  0  0  0  0
  2  3  1  0  0  0  0
  3  4  1  0  0  0  0
  4  5  1  0  0  0  0
  5  6  1  0  0  0  0
  6  7  1  0  0  0  0
  7  8  1  0  0  0  0
  8  9  1  0  0  0  0
  9 10  1  0  0  0  0
 10 11  1  0  0  0  0
 11 12  1  0  0  0  0
 12 13  1  0  0  0  0
 13 14  1  0  0  0  0
M  END
>  <CHROM.1>
-174.23545543,-64.06811343,-93.43277438,-160.20256259,-174.86762205,178.50184625
-172.28278105,173.93210482,-160.80071510,-179.74625720,-176.93914290,0.40052229
-1.75925349,9.95589117,0.36884492,0.61866276,-2.22486459

>  <Name>
ligand

>  <RI>
0

>  <Rbt.Current_Directory>
/home/itssahil/PROJECTS/Mol_Feturizer/New_Systems/rnas/1FUF

>  <Rbt.Executable>
rbdock ($Id: //depot/dev/client3/rdock/2013.1/src/exe/rbdock.cxx#4 $)

>  <Rbt.Library>
libRbt.so (2013.1, Build901 2013/11/27)

>  <Rbt.Parameter_File>
/export/apps/rDock/src/rDock_2013.1_src/data/scripts/dock_solv.prm

>  <Rbt.Receptor>
prm/pocket_docking_6.prm

>  <SCORE>
-6.05437

>  <SCORE.INTER>
-2.04231

>  <SCORE.INTER.CONST>
1

>  <SCORE.INTER.POLAR>
0

>  <SCORE.INTER.ROT>
11

>  <SCORE.INTER.SOLV>
15.1034

>  <SCORE.INTER.VDW>
-17.3294

>  <SCORE.INTER.norm>
-0.145879

>  <SCORE.INTRA>
-4.01206

>  <SCORE.INTRA.DIHEDRAL>
-8.71269

>  <SCORE.INTRA.DIHEDRAL.0>
10.5765

>  <SCORE.INTRA.POLAR>
0

>  <SCORE.INTRA.POLAR.0>
0

>  <SCORE.INTRA.REPUL>
0

>  <SCORE.INTRA.REPUL.0>
0

>  <SCORE.INTRA.SOLV>
0.176635

>  <SCORE.INTRA.SOLV.lig_0>
-50.1861

>  <SCORE.INTRA.VDW>
0.25597

>  <SCORE.INTRA.VDW.0>
-1.36671

>  <SCORE.INTRA.norm>
-0.286575

>  <SCORE.RESTR>
0

>  <SCORE.RESTR.CAVITY>
0

>  <SCORE.RESTR.norm>
0

>  <SCORE.SYSTEM>
0

>  <SCORE.SYSTEM.CONST>
0

>  <SCORE.SYSTEM.DIHEDRAL>
0

>  <SCORE.SYSTEM.SOLV>
0

>  <SCORE.SYSTEM.norm>
0

>  <SCORE.heavy>
14

>  <SCORE.norm>
-0.432455

>  <RMSD>
1.590

$$$$
ligand
 OpenBabel11021811393D
libRbt.so/2013.1/901 2013/11/27
 14 13  0  0  0  0  0  0  0  0999 V2000
    4.3390   -6.1208    9.1372 N   0  0  0  0  0  0  0  0  0  0  0  0
    3.8902   -6.5149   10.5448 C   0  0  0  0  0  0  0  0  0  0  0  0
    2.9325   -5.4602   10.9659 C   0  0  0  0  0  0  0  0  0  0  0  0
    3.5275   -4.0639   11.0494 C   0  0  0  0  0  0  0  0  0  0  0  0
    2.5104   -3.1222   11.5888 N   0  0  0  0  0  0  0  0  0  0  0  0
    1.5662   -2.6861   10.4539 C   0  0  0  0  0  0  0  0  0  0  0  0
    0.8856   -1.3718   11.0716 C   0  0  0  0  0  0  0  0  0  0  0  0
    0.0331   -0.8782   10.2067 C   0  0  0  0  0  0  0  0  0  0  0  0
   -0.4062    0.4268   11.0931 C   0  0  0  0  0  0  0  0  0  0  0  0
   -1.4595    1.0222   10.0995 N   0  0  0  0  0  0  0  0  0  0  0  0
   -2.9371    0.5349   10.3794 C   0  0  0  0  0  0  0  0  0  0  0  0
   -3.9025    1.4736    9.4548 C   0  0  0  0  0  0  0  0  0  0  0  0
   -5.2867    1.0142    9.8098 C   0  0  0  0  0  0  0  0  0  0  0  0
   -6.2168    1.9043    9.0195 N   0  0  0  0  0  0  0  0  0  0  0  0
  1  2  1  0  0  0  0
  2  3  1  0  0  0  0
  3  4  1  0  0  0  0
  4  5  1  0  0  0  0
  5  6  1  0  0  0  0
  6  7  1  0  0  0  0
  7  8  1  0  0  0  0
  8  9  1  0  0  0  0
  9 10  1  0  0  0  0
 10 11  1  0  0  0  0
 11 12  1  0  0  0  0
 12 13  1  0  0  0  0
 13 14  1  0  0  0  0
M  END
>  <CHROM.1>
-61.95960596,-175.21804332,-81.52980129,-162.41145465,-179.70374246,-177.75371552
-178.55017390,92.84704465,169.10394723,-177.34818317,177.49421232,-0.03737810
-1.70305271,10.34831684,0.59172425,0.39798205,-2.74133783

>  <Name>
ligand

>  <RI>
0

>  <Rbt.Current_Directory>
/home/itssahil/PROJECTS/Mol_Feturizer/New_Systems/rnas/1FUF

>  <Rbt.Executable>
rbdock ($Id: //depot/dev/client3/rdock/2013.1/src/exe/rbdock.cxx#4 $)

>  <Rbt.Library>
libRbt.so (2013.1, Build901 2013/11/27)

>  <Rbt.Parameter_File>
/export/apps/rDock/src/rDock_2013.1_src/data/scripts/dock_solv.prm

>  <Rbt.Receptor>
prm/pocket_docking_7.prm

>  <SCORE>
-5.57772

>  <SCORE.INTER>
-2.26394

>  <SCORE.INTER.CONST>
1

>  <SCORE.INTER.POLAR>
0

>  <SCORE.INTER.ROT>
11

>  <SCORE.INTER.SOLV>
15.4592

>  <SCORE.INTER.VDW>
-17.5957

>  <SCORE.INTER.norm>
-0.16171

>  <SCORE.INTRA>
-3.31377

>  <SCORE.INTRA.DIHEDRAL>
-9.03255

>  <SCORE.INTRA.DIHEDRAL.0>
10.5765

>  <SCORE.INTRA.POLAR>
0

>  <SCORE.INTRA.POLAR.0>
0

>  <SCORE.INTRA.REPUL>
0

>  <SCORE.INTRA.REPUL.0>
0

>  <SCORE.INTRA.SOLV>
0.828452

>  <SCORE.INTRA.SOLV.lig_0>
-50.1861

>  <SCORE.INTRA.VDW>
0.78828

>  <SCORE.INTRA.VDW.0>
-1.36671

>  <SCORE.INTRA.norm>
-0.236698

>  <SCORE.RESTR>
0

>  <SCORE.RESTR.CAVITY>
0

>  <SCORE.RESTR.norm>
0

>  <SCORE.SYSTEM>
0

>  <SCORE.SYSTEM.CONST>
0

>  <SCORE.SYSTEM.DIHEDRAL>
0

>  <SCORE.SYSTEM.SOLV>
0

>  <SCORE.SYSTEM.norm>
0

>  <SCORE.heavy>
14

>  <SCORE.norm>
-0.398408

>  <RMSD>
1.593

$$$$
ligand
 OpenBabel11021811393D
libRbt.so/2013.1/901 2013/11/27
 14 13  0  0  0  0  0  0  0  0999 V2000
    4.9953   -6.9547    8.4645 N   0  0  0  0  0  0  0  0  0  0  0  0
    4.6040   -5.5102    8.7780 C   0  0  0  0  0  0  0  0  0  0  0  0
    4.4423   -5.4541   10.2536 C   0  0  0  0  0  0  0  0  0  0  0  0
    4.0815   -4.0814   10.7976 C   0  0  0  0  0  0  0  0  0  0  0  0
    2.7765   -3.6494   10.2294 N   0  0  0  0  0  0  0  0  0  0  0  0
    2.2243   -2.4738   11.0557 C   0  0  0  0  0  0  0  0  0  0  0  0
    0.7127   -2.3758   10.5291 C   0  0  0  0  0  0  0  0  0  0  0  0
    0.0968   -1.4047   11.1586 C   0  0  0  0  0  0  0  0  0  0  0  0
    0.4201   -0.2305   10.0639 C   0  0  0  0  0  0  0  0  0  0  0  0
   -0.7457    0.7452   10.4385 N   0  0  0  0  0  0  0  0  0  0  0  0
   -1.9442    0.7217    9.4079 C   0  0  0  0  0  0  0  0  0  0  0  0
   -3.2139    1.3998   10.1799 C   0  0  0  0  0  0  0  0  0  0  0  0
   -4.3320    1.2900    9.1844 C   0  0  0  0  0  0  0  0  0  0  0  0
   -5.5421    1.8689    9.8790 N   0  0  0  0  0  0  0  0  0  0  0  0
  1  2  1  0  0  0  0
  2  3  1  0  0  0  0
  3  4  1  0  0  0  0
  4  5  1  0  0  0  0
  5  6  1  0  0  0  0
  6  7  1  0  0  0  0
  7  8  1  0  0  0  0
  8  9  1  0  0  0  0
  9 10  1  0  0  0  0
 10 11  1  0  0  0  0
 11 12  1  0  0  0  0
 12 13  1  0  0  0  0
 13 14  1  0  0  0  0
M  END
>  <CHROM.1>
178.57138652,61.30703170,164.32234124,-167.54622807,179.60880446,92.35238122
157.71990388,-104.00185012,162.51544217,-177.34668556,178.24843387,0.61263119
-1.86487619,10.03011245,0.48718156,0.52548211,-2.35361596

>  <Name>
ligand

>  <RI>
0

>  <Rbt.Current_Directory>
/home/itssahil/PROJECTS/Mol_Feturizer/New_Systems/rnas/1FUF

>  <Rbt.Executable>
rbdock ($Id: //depot/dev/client3/rdock/2013.1/src/exe/rbdock.cxx#4 $)

>  <Rbt.Library>
libRbt.so (2013.1, Build901 2013/11/27)

>  <Rbt.Parameter_File>
/export/apps/rDock/src/rDock_2013.1_src/data/scripts/dock_solv.prm

>  <Rbt.Receptor>
prm/pocket_docking_4.prm

>  <SCORE>
-2.43115

>  <SCORE.INTER>
-1.58059

>  <SCORE.INTER.CONST>
1

>  <SCORE.INTER.POLAR>
0

>  <SCORE.INTER.ROT>
11

>  <SCORE.INTER.SOLV>
16.2541

>  <SCORE.INTER.VDW>
-17.4051

>  <SCORE.INTER.norm>
-0.112899

>  <SCORE.INTRA>
-0.850562

>  <SCORE.INTRA.DIHEDRAL>
-3.86303

>  <SCORE.INTRA.DIHEDRAL.0>
10.5765

>  <SCORE.INTRA.POLAR>
0

>  <SCORE.INTRA.POLAR.0>
0

>  <SCORE.INTRA.REPUL>
0

>  <SCORE.INTRA.REPUL.0>
0

>  <SCORE.INTRA.SOLV>
0.514033

>  <SCORE.INTRA.SOLV.lig_0>
-50.1861

>  <SCORE.INTRA.VDW>
0.823936

>  <SCORE.INTRA.VDW.0>
-1.36671

>  <SCORE.INTRA.norm>
-0.0607544

>  <SCORE.RESTR>
0

>  <SCORE.RESTR.CAVITY>
0

>  <SCORE.RESTR.norm>
0

>  <SCORE.SYSTEM>
0

>  <SCORE.SYSTEM.CONST>
0

>  <SCORE.SYSTEM.DIHEDRAL>
0

>  <SCORE.SYSTEM.SOLV>
0

>  <SCORE.SYSTEM.norm>
0

>  <SCORE.heavy>
14

>  <SCORE.norm>
-0.173654

>  <RMSD>
1.597

$$$$
ligand
 OpenBabel11021811393D
libRbt.so/2013.1/901 2013/11/27
 14 13  0  0  0  0  0  0  0  0999 V2000
    4.9285   -6.7223    8.7929 N   0  0  0  0  0  0  0  0  0  0  0  0
    4.7550   -5.6100    9.8276 C   0  0  0  0  0  0  0  0  0  0  0  0
    4.1822   -4.4600    9.0819 C   0  0  0  0  0  0  0  0  0  0  0  0
    4.0462   -3.1838    9.8964 C   0  0  0  0  0  0  0  0  0  0  0  0
    3.1235   -3.4198   11.0388 N   0  0  0  0  0  0  0  0  0  0  0  0
    1.6679   -3.2997   10.5522 C   0  0  0  0  0  0  0  0  0  0  0  0
    1.3370   -1.7618   10.8639 C   0  0  0  0  0  0  0  0  0  0  0  0
    0.0747   -1.5278   10.5981 C   0  0  0  0  0  0  0  0  0  0  0  0
    0.1036    0.0765   10.9254 C   0  0  0  0  0  0  0  0  0  0  0  0
   -1.4332    0.3517   10.8083 N   0  0  0  0  0  0  0  0  0  0  0  0
   -1.8812    0.8289    9.3693 C   0  0  0  0  0  0  0  0  0  0  0  0
   -3.3687    1.4778    9.5539 C   0  0  0  0  0  0  0  0  0  0  0  0
   -3.7399    1.9109    8.1654 C   0  0  0  0  0  0  0  0  0  0  0  0
   -5.1280    2.4939    8.2877 N   0  0  0  0  0  0  0  0  0  0  0  0
  1  2  1  0  0  0  0
  2  3  1  0  0  0  0
  3  4  1  0  0  0  0
  4  5  1  0  0  0  0
  5  6  1  0  0  0  0
  6  7  1  0  0  0  0
  7  8  1  0  0  0  0
  8  9  1  0  0  0  0
  9 10  1  0  0  0  0
 10 11  1  0  0  0  0
 11 12  1  0  0  0  0
 12 13  1  0  0  0  0
 13 14  1  0  0  0  0
M  END
>  <CHROM.1>
-174.49086467,-61.59599559,-81.59839505,-93.48091957,-174.93834777,-176.87019770
-172.63818612,-93.34188646,-163.57037390,179.97665926,178.87230278,0.61920581
-1.63174831,9.84016755,0.25364473,0.67331973,-2.05449667

>  <Name>
ligand

>  <RI>
0

>  <Rbt.Current_Directory>
/home/itssahil/PROJECTS/Mol_Feturizer/New_Systems/rnas/1FUF

>  <Rbt.Executable>
rbdock ($Id: //depot/dev/client3/rdock/2013.1/src/exe/rbdock.cxx#4 $)

>  <Rbt.Library>
libRbt.so (2013.1, Build901 2013/11/27)

>  <Rbt.Parameter_File>
/export/apps/rDock/src/rDock_2013.1_src/data/scripts/dock_solv.prm

>  <Rbt.Receptor>
prm/pocket_docking_7.prm

>  <SCORE>
-4.67846

>  <SCORE.INTER>
-1.59311

>  <SCORE.INTER.CONST>
1

>  <SCORE.INTER.POLAR>
0

>  <SCORE.INTER.ROT>
11

>  <SCORE.INTER.SOLV>
15.422

>  <SCORE.INTER.VDW>
-17.1361

>  <SCORE.INTER.norm>
-0.113793

>  <SCORE.INTRA>
-3.08535

>  <SCORE.INTRA.DIHEDRAL>
-8.14177

>  <SCORE.INTRA.DIHEDRAL.0>
10.5765

>  <SCORE.INTRA.POLAR>
0

>  <SCORE.INTRA.POLAR.0>
0

>  <SCORE.INTRA.REPUL>
0

>  <SCORE.INTRA.REPUL.0>
0

>  <SCORE.INTRA.SOLV>
0.208293

>  <SCORE.INTRA.SOLV.lig_0>
-50.1861

>  <SCORE.INTRA.VDW>
0.881391

>  <SCORE.INTRA.VDW.0>
-1.36671

>  <SCORE.INTRA.norm>
-0.220382

>  <SCORE.RESTR>
0

>  <SCORE.RESTR.CAVITY>
0

>  <SCORE.RESTR.norm>
0

>  <SCORE.SYSTEM>
0

>  <SCORE.SYSTEM.CONST>
0

>  <SCORE.SYSTEM.DIHEDRAL>
0

>  <SCORE.SYSTEM.SOLV>
0

>  <SCORE.SYSTEM.norm>
0

>  <SCORE.heavy>
14

>  <SCORE.norm>
-0.334175

>  <RMSD>
1.599

$$$$
ligand
 OpenBabel11021811393D
libRbt.so/2013.1/901 2013/11/27
 14 13  0  0  0  0  0  0  0  0999 V2000
    4.7907   -7.1464    8.5245 N   0  0  0  0  0  0  0  0  0  0  0  0
    4.2275   -5.7863    8.1112 C   0  0  0  0  0  0  0  0  0  0  0  0
    4.0165   -5.0421    9.3794 C   0  0  0  0  0  0  0  0  0  0  0  0
    3.5005   -3.6236    9.2007 C   0  0  0  0  0  0  0  0  0  0  0  0
    3.3411   -2.9817   10.5330 N   0  0  0  0  0  0  0  0  0  0  0  0
    1.8667   -3.0669   10.9673 C   0  0  0  0  0  0  0  0  0  0  0  0
    1.3258   -1.6015   10.6040 C   0  0  0  0  0  0  0  0  0  0  0  0
    0.0486   -1.5279   10.8900 C   0  0  0  0  0  0  0  0  0  0  0  0
   -0.1815    0.0008   10.3498 C   0  0  0  0  0  0  0  0  0  0  0  0
   -1.7096    0.1187   10.6701 N   0  0  0  0  0  0  0  0  0  0  0  0
   -2.3147    1.5424   10.3447 C   0  0  0  0  0  0  0  0  0  0  0  0
   -3.0333    1.4022    8.8846 C   0  0  0  0  0  0  0  0  0  0  0  0
   -4.1789    0.4673    9.1432 C   0  0  0  0  0  0  0  0  0  0  0  0
   -5.1835    1.2761    9.9295 N   0  0  0  0  0  0  0  0  0  0  0  0
  1  2  1  0  0  0  0
  2  3  1  0  0  0  0
  3  4  1  0  0  0  0
  4  5  1  0  0  0  0
  5  6  1  0  0  0  0
  6  7  1  0  0  0  0
  7  8  1  0  0  0  0
  8  9  1  0  0  0  0
  9 10  1  0  0  0  0
 10 11  1  0  0  0  0
 11 12  1  0  0  0  0
 12 13  1  0  0  0  0
 13 14  1  0  0  0  0
M  END
>  <CHROM.1>
177.88179990,-179.53222235,-98.38528550,-99.88654662,178.35521261,-177.40211744
179.65892306,176.97800895,98.49427519,66.74580254,72.57248279,0.46548051
-1.85478436,9.82368389,0.54367528,0.47039957,-2.38645594

>  <Name>
ligand

>  <RI>
0

>  <Rbt.Current_Directory>
/home/itssahil/PROJECTS/Mol_Feturizer/New_Systems/rnas/1FUF

>  <Rbt.Executable>
rbdock ($Id: //depot/dev/client3/rdock/2013.1/src/exe/rbdock.cxx#4 $)

>  <Rbt.Library>
libRbt.so (2013.1, Build901 2013/11/27)

>  <Rbt.Parameter_File>
/export/apps/rDock/src/rDock_2013.1_src/data/scripts/dock_solv.prm

>  <Rbt.Receptor>
prm/pocket_docking_4.prm

>  <SCORE>
-4.32734

>  <SCORE.INTER>
-2.29706

>  <SCORE.INTER.CONST>
1

>  <SCORE.INTER.POLAR>
0

>  <SCORE.INTER.ROT>
11

>  <SCORE.INTER.SOLV>
17.4471

>  <SCORE.INTER.VDW>
-18.2804

>  <SCORE.INTER.norm>
-0.164076

>  <SCORE.INTRA>
-2.03028

>  <SCORE.INTRA.DIHEDRAL>
-7.15503

>  <SCORE.INTRA.DIHEDRAL.0>
10.5765

>  <SCORE.INTRA.POLAR>
0

>  <SCORE.INTRA.POLAR.0>
0

>  <SCORE.INTRA.REPUL>
0

>  <SCORE.INTRA.REPUL.0>
0

>  <SCORE.INTRA.SOLV>
1.70757

>  <SCORE.INTRA.SOLV.lig_0>
-50.1861

>  <SCORE.INTRA.VDW>
0.693451

>  <SCORE.INTRA.VDW.0>
-1.36671

>  <SCORE.INTRA.norm>
-0.14502

>  <SCORE.RESTR>
0

>  <SCORE.RESTR.CAVITY>
0

>  <SCORE.RESTR.norm>
0

>  <SCORE.SYSTEM>
0

>  <SCORE.SYSTEM.CONST>
0

>  <SCORE.SYSTEM.DIHEDRAL>
0

>  <SCORE.SYSTEM.SOLV>
0

>  <SCORE.SYSTEM.norm>
0

>  <SCORE.heavy>
14

>  <SCORE.norm>
-0.309096

>  <RMSD>
1.601

$$$$
ligand
 OpenBabel11021811393D
libRbt.so/2013.1/901 2013/11/27
 14 13  0  0  0  0  0  0  0  0999 V2000
   -5.2304    2.8475    7.5914 N   0  0  0  0  0  0  0  0  0  0  0  0
   -4.6969    2.5129    8.9848 C   0  0  0  0  0  0  0  0  0  0  0  0
   -3.3894    1.8450    8.7593 C   0  0  0  0  0  0  0  0  0  0  0  0
   -2.6798    1.4014   10.0283 C   0  0  0  0  0  0  0  0  0  0  0  0
   -1.4006    0.7307    9.6733 N   0  0  0  0  0  0  0  0  0  0  0  0
   -0.8790   -0.0513   10.8924 C   0  0  0  0  0  0  0  0  0  0  0  0
    0.4266   -0.7673   10.2969 C   0  0  0  0  0  0  0  0  0  0  0  0
    0.9198   -1.5852   11.1949 C   0  0  0  0  0  0  0  0  0  0  0  0
    2.1584   -2.1474   10.2831 C   0  0  0  0  0  0  0  0  0  0  0  0
    2.7042   -3.2154   11.2895 N   0  0  0  0  0  0  0  0  0  0  0  0
    4.0647   -3.8773   10.8312 C   0  0  0  0  0  0  0  0  0  0  0  0
    3.6591   -5.0445    9.7630 C   0  0  0  0  0  0  0  0  0  0  0  0
    4.9759   -5.6712    9.4077 C   0  0  0  0  0  0  0  0  0  0  0  0
    4.6472   -6.7408    8.3930 N   0  0  0  0  0  0  0  0  0  0  0  0
  1  2  1  0  0  0  0
  2  3  1  0  0  0  0
  3  4  1  0  0  0  0
  4  5  1  0  0  0  0
  5  6  1  0  0  0  0
  6  7  1  0  0  0  0
  7  8  1  0  0  0  0
  8  9  1  0  0  0  0
  9 10  1  0  0  0  0
 10 11  1  0  0  0  0
 11 12  1  0  0  0  0
 12 13  1  0  0  0  0
 13 14  1  0  0  0  0
M  END
>  <CHROM.1>
-179.15429492,179.09309995,-164.47056987,176.50229611,-173.96492103,178.64677254
-175.74657661,-172.59171601,-81.56002390,-177.76945216,-178.75920410,0.37721938
-1.41156811,9.81373560,2.87373189,-0.69255811,1.04591561

>  <Name>
ligand

>  <RI>
0

>  <Rbt.Current_Directory>
/home/itssahil/PROJECTS/Mol_Feturizer/New_Systems/rnas/1FUF

>  <Rbt.Executable>
rbdock ($Id: //depot/dev/client3/rdock/2013.1/src/exe/rbdock.cxx#4 $)

>  <Rbt.Library>
libRbt.so (2013.1, Build901 2013/11/27)

>  <Rbt.Parameter_File>
/export/apps/rDock/src/rDock_2013.1_src/data/scripts/dock_solv.prm

>  <Rbt.Receptor>
prm/pocket_docking_3.prm

>  <SCORE>
-6.01255

>  <SCORE.INTER>
-1.20309

>  <SCORE.INTER.CONST>
1

>  <SCORE.INTER.POLAR>
0

>  <SCORE.INTER.ROT>
11

>  <SCORE.INTER.SOLV>
16.1039

>  <SCORE.INTER.VDW>
-17.1034

>  <SCORE.INTER.norm>
-0.0859349

>  <SCORE.INTRA>
-4.80947

>  <SCORE.INTRA.DIHEDRAL>
-9.74787

>  <SCORE.INTRA.DIHEDRAL.0>
10.5765

>  <SCORE.INTRA.POLAR>
0

>  <SCORE.INTRA.POLAR.0>
0

>  <SCORE.INTRA.REPUL>
0

>  <SCORE.INTRA.REPUL.0>
0

>  <SCORE.INTRA.SOLV>
-0.148514

>  <SCORE.INTRA.SOLV.lig_0>
-50.1861

>  <SCORE.INTRA.VDW>
0.138724

>  <SCORE.INTRA.VDW.0>
-1.36671

>  <SCORE.INTRA.norm>
-0.343533

>  <SCORE.RESTR>
0

>  <SCORE.RESTR.CAVITY>
0

>  <SCORE.RESTR.norm>
0

>  <SCORE.SYSTEM>
0

>  <SCORE.SYSTEM.CONST>
0

>  <SCORE.SYSTEM.DIHEDRAL>
0

>  <SCORE.SYSTEM.SOLV>
0

>  <SCORE.SYSTEM.norm>
0

>  <SCORE.heavy>
14

>  <SCORE.norm>
-0.429468

>  <RMSD>
1.602

$$$$
ligand
 OpenBabel11021811393D
libRbt.so/2013.1/901 2013/11/27
 14 13  0  0  0  0  0  0  0  0999 V2000
    4.1242   -6.8644    8.2248 N   0  0  0  0  0  0  0  0  0  0  0  0
    4.3930   -5.4784    8.8120 C   0  0  0  0  0  0  0  0  0  0  0  0
    3.8403   -5.5173   10.1903 C   0  0  0  0  0  0  0  0  0  0  0  0
    4.0532   -4.2436   10.9921 C   0  0  0  0  0  0  0  0  0  0  0  0
    3.2932   -3.1293   10.3652 N   0  0  0  0  0  0  0  0  0  0  0  0
    1.8249   -3.1919   10.8233 C   0  0  0  0  0  0  0  0  0  0  0  0
    1.3252   -1.6927   10.5504 C   0  0  0  0  0  0  0  0  0  0  0  0
    0.0624   -1.5889   10.8871 C   0  0  0  0  0  0  0  0  0  0  0  0
   -0.1633   -0.0692   10.3202 C   0  0  0  0  0  0  0  0  0  0  0  0
   -1.6891    0.0618   10.6462 N   0  0  0  0  0  0  0  0  0  0  0  0
   -2.3682    1.3295    9.9899 C   0  0  0  0  0  0  0  0  0  0  0  0
   -3.9792    1.0890   10.1101 C   0  0  0  0  0  0  0  0  0  0  0  0
   -4.5677    2.3113    9.4675 C   0  0  0  0  0  0  0  0  0  0  0  0
   -4.3374    2.1323    7.9853 N   0  0  0  0  0  0  0  0  0  0  0  0
  1  2  1  0  0  0  0
  2  3  1  0  0  0  0
  3  4  1  0  0  0  0
  4  5  1  0  0  0  0
  5  6  1  0  0  0  0
  6  7  1  0  0  0  0
  7  8  1  0  0  0  0
  8  9  1  0  0  0  0
  9 10  1  0  0  0  0
 10 11  1  0  0  0  0
 11 12  1  0  0  0  0
 12 13  1  0  0  0  0
 13 14  1  0  0  0  0
M  END
>  <CHROM.1>
177.49443130,65.23147286,82.15607953,159.12730791,179.45057064,-173.14938125
177.41958329,-169.04516068,165.76011994,-179.65183130,73.44435792,0.41512503
-1.77505025,9.95485965,0.36347374,0.65431186,-2.15115868

>  <Name>
ligand

>  <RI>
0

>  <Rbt.Current_Directory>
/home/itssahil/PROJECTS/Mol_Feturizer/New_Systems/rnas/1FUF

>  <Rbt.Executable>
rbdock ($Id: //depot/dev/client3/rdock/2013.1/src/exe/rbdock.cxx#4 $)

>  <Rbt.Library>
libRbt.so (2013.1, Build901 2013/11/27)

>  <Rbt.Parameter_File>
/export/apps/rDock/src/rDock_2013.1_src/data/scripts/dock_solv.prm

>  <Rbt.Receptor>
prm/blind_docking_100.prm

>  <SCORE>
-5.15406

>  <SCORE.INTER>
-2.08589

>  <SCORE.INTER.CONST>
1

>  <SCORE.INTER.POLAR>
0

>  <SCORE.INTER.ROT>
11

>  <SCORE.INTER.SOLV>
17.3494

>  <SCORE.INTER.VDW>
-18.107

>  <SCORE.INTER.norm>
-0.148992

>  <SCORE.INTRA>
-3.06818

>  <SCORE.INTRA.DIHEDRAL>
-8.63257

>  <SCORE.INTRA.DIHEDRAL.0>
10.5765

>  <SCORE.INTRA.POLAR>
0

>  <SCORE.INTRA.POLAR.0>
0

>  <SCORE.INTRA.REPUL>
0

>  <SCORE.INTRA.REPUL.0>
0

>  <SCORE.INTRA.SOLV>
1.07527

>  <SCORE.INTRA.SOLV.lig_0>
-50.1861

>  <SCORE.INTRA.VDW>
0.710471

>  <SCORE.INTRA.VDW.0>
-1.36671

>  <SCORE.INTRA.norm>
-0.219156

>  <SCORE.RESTR>
0

>  <SCORE.RESTR.CAVITY>
0

>  <SCORE.RESTR.norm>
0

>  <SCORE.SYSTEM>
0

>  <SCORE.SYSTEM.CONST>
0

>  <SCORE.SYSTEM.DIHEDRAL>
0

>  <SCORE.SYSTEM.SOLV>
0

>  <SCORE.SYSTEM.norm>
0

>  <SCORE.heavy>
14

>  <SCORE.norm>
-0.368147

>  <RMSD>
1.611

$$$$
ligand
 OpenBabel11021811393D
libRbt.so/2013.1/901 2013/11/27
 14 13  0  0  0  0  0  0  0  0999 V2000
   -6.8444    2.7539    9.6524 N   0  0  0  0  0  0  0  0  0  0  0  0
   -5.6336    2.5888    8.7333 C   0  0  0  0  0  0  0  0  0  0  0  0
   -4.4966    2.2583    9.6302 C   0  0  0  0  0  0  0  0  0  0  0  0
   -3.1749    2.0281    8.9156 C   0  0  0  0  0  0  0  0  0  0  0  0
   -2.1049    1.7798    9.9185 N   0  0  0  0  0  0  0  0  0  0  0  0
   -2.0512    0.2765   10.2457 C   0  0  0  0  0  0  0  0  0  0  0  0
   -0.4724    0.0109   10.3401 C   0  0  0  0  0  0  0  0  0  0  0  0
   -0.2594   -1.2664   10.5440 C   0  0  0  0  0  0  0  0  0  0  0  0
    1.3753   -1.1834   10.5923 C   0  0  0  0  0  0  0  0  0  0  0  0
    1.6665   -2.7092   10.7882 N   0  0  0  0  0  0  0  0  0  0  0  0
    3.1350   -3.0123   11.2890 C   0  0  0  0  0  0  0  0  0  0  0  0
    4.0560   -3.1158    9.9440 C   0  0  0  0  0  0  0  0  0  0  0  0
    3.5366   -4.3435    9.2540 C   0  0  0  0  0  0  0  0  0  0  0  0
    3.9778   -5.5023   10.1168 N   0  0  0  0  0  0  0  0  0  0  0  0
  1  2  1  0  0  0  0
  2  3  1  0  0  0  0
  3  4  1  0  0  0  0
  4  5  1  0  0  0  0
  5  6  1  0  0  0  0
  6  7  1  0  0  0  0
  7  8  1  0  0  0  0
  8  9  1  0  0  0  0
  9 10  1  0  0  0  0
 10 11  1  0  0  0  0
 11 12  1  0  0  0  0
 12 13  1  0  0  0  0
 13 14  1  0  0  0  0
M  END
>  <CHROM.1>
179.14383788,176.95582816,87.91364777,139.96012363,-176.46433129,-179.80278513
-178.20979785,-163.64222062,-86.99564929,-66.34424640,-70.09731979,-0.52059970
-0.67394301,9.99738400,2.59628958,-0.36119890,0.39085136

>  <Name>
ligand

>  <RI>
0

>  <Rbt.Current_Directory>
/home/itssahil/PROJECTS/Mol_Feturizer/New_Systems/rnas/1FUF

>  <Rbt.Executable>
rbdock ($Id: //depot/dev/client3/rdock/2013.1/src/exe/rbdock.cxx#4 $)

>  <Rbt.Library>
libRbt.so (2013.1, Build901 2013/11/27)

>  <Rbt.Parameter_File>
/export/apps/rDock/src/rDock_2013.1_src/data/scripts/dock_solv.prm

>  <Rbt.Receptor>
prm/blind_docking_80.prm

>  <SCORE>
-3.16772

>  <SCORE.INTER>
-1.02257

>  <SCORE.INTER.CONST>
1

>  <SCORE.INTER.POLAR>
0

>  <SCORE.INTER.ROT>
11

>  <SCORE.INTER.SOLV>
15.4718

>  <SCORE.INTER.VDW>
-16.7723

>  <SCORE.INTER.norm>
-0.0730404

>  <SCORE.INTRA>
-2.14516

>  <SCORE.INTRA.DIHEDRAL>
-7.80294

>  <SCORE.INTRA.DIHEDRAL.0>
10.5765

>  <SCORE.INTRA.POLAR>
0

>  <SCORE.INTRA.POLAR.0>
0

>  <SCORE.INTRA.REPUL>
0

>  <SCORE.INTRA.REPUL.0>
0

>  <SCORE.INTRA.SOLV>
1.79204

>  <SCORE.INTRA.SOLV.lig_0>
-50.1861

>  <SCORE.INTRA.VDW>
0.860293

>  <SCORE.INTRA.VDW.0>
-1.36671

>  <SCORE.INTRA.norm>
-0.153226

>  <SCORE.RESTR>
0

>  <SCORE.RESTR.CAVITY>
0

>  <SCORE.RESTR.norm>
0

>  <SCORE.SYSTEM>
0

>  <SCORE.SYSTEM.CONST>
0

>  <SCORE.SYSTEM.DIHEDRAL>
0

>  <SCORE.SYSTEM.SOLV>
0

>  <SCORE.SYSTEM.norm>
0

>  <SCORE.heavy>
14

>  <SCORE.norm>
-0.226266

>  <RMSD>
1.614

$$$$
ligand
 OpenBabel11021811393D
libRbt.so/2013.1/901 2013/11/27
 14 13  0  0  0  0  0  0  0  0999 V2000
    5.5665   -7.0050    8.0381 N   0  0  0  0  0  0  0  0  0  0  0  0
    4.5237   -6.8661    9.1476 C   0  0  0  0  0  0  0  0  0  0  0  0
    4.0318   -5.4673    9.0573 C   0  0  0  0  0  0  0  0  0  0  0  0
    3.0338   -5.0780   10.1357 C   0  0  0  0  0  0  0  0  0  0  0  0
    2.5985   -3.6714    9.9250 N   0  0  0  0  0  0  0  0  0  0  0  0
    1.9187   -3.1506   11.2042 C   0  0  0  0  0  0  0  0  0  0  0  0
    1.2980   -1.7571   10.7094 C   0  0  0  0  0  0  0  0  0  0  0  0
    0.7162   -1.1587   11.7204 C   0  0  0  0  0  0  0  0  0  0  0  0
    0.3018    0.2093   10.9214 C   0  0  0  0  0  0  0  0  0  0  0  0
   -1.1224   -0.2365   10.4477 N   0  0  0  0  0  0  0  0  0  0  0  0
   -1.9424    0.9162    9.7420 C   0  0  0  0  0  0  0  0  0  0  0  0
   -3.5167    0.5135    9.9071 C   0  0  0  0  0  0  0  0  0  0  0  0
   -4.2443    1.6731    9.2915 C   0  0  0  0  0  0  0  0  0  0  0  0
   -5.7118    1.3485    9.4430 N   0  0  0  0  0  0  0  0  0  0  0  0
  1  2  1  0  0  0  0
  2  3  1  0  0  0  0
  3  4  1  0  0  0  0
  4  5  1  0  0  0  0
  5  6  1  0  0  0  0
  6  7  1  0  0  0  0
  7  8  1  0  0  0  0
  8  9  1  0  0  0  0
  9 10  1  0  0  0  0
 10 11  1  0  0  0  0
 11 12  1  0  0  0  0
 12 13  1  0  0  0  0
 13 14  1  0  0  0  0
M  END
>  <CHROM.1>
-176.45585087,-178.94832095,-164.13652052,-170.30735996,-177.69338170,176.53692441
91.39552020,173.70514672,-156.19877800,176.94313442,-179.17327502,0.53233456
-2.12347380,9.97808602,0.54138872,0.51358182,-2.36959022

>  <Name>
ligand

>  <RI>
0

>  <Rbt.Current_Directory>
/home/itssahil/PROJECTS/Mol_Feturizer/New_Systems/rnas/1FUF

>  <Rbt.Executable>
rbdock ($Id: //depot/dev/client3/rdock/2013.1/src/exe/rbdock.cxx#4 $)

>  <Rbt.Library>
libRbt.so (2013.1, Build901 2013/11/27)

>  <Rbt.Parameter_File>
/export/apps/rDock/src/rDock_2013.1_src/data/scripts/dock_solv.prm

>  <Rbt.Receptor>
prm/pocket_docking_6.prm

>  <SCORE>
-3.73502

>  <SCORE.INTER>
-0.841293

>  <SCORE.INTER.CONST>
1

>  <SCORE.INTER.POLAR>
0

>  <SCORE.INTER.ROT>
11

>  <SCORE.INTER.SOLV>
16.5201

>  <SCORE.INTER.VDW>
-17.0009

>  <SCORE.INTER.norm>
-0.0600924

>  <SCORE.INTRA>
-2.89373

>  <SCORE.INTRA.DIHEDRAL>
-6.74335

>  <SCORE.INTRA.DIHEDRAL.0>
10.5765

>  <SCORE.INTRA.POLAR>
0

>  <SCORE.INTRA.POLAR.0>
0

>  <SCORE.INTRA.REPUL>
0

>  <SCORE.INTRA.REPUL.0>
0

>  <SCORE.INTRA.SOLV>
0.253176

>  <SCORE.INTRA.SOLV.lig_0>
-50.1861

>  <SCORE.INTRA.VDW>
0.351355

>  <SCORE.INTRA.VDW.0>
-1.36671

>  <SCORE.INTRA.norm>
-0.206695

>  <SCORE.RESTR>
0

>  <SCORE.RESTR.CAVITY>
0

>  <SCORE.RESTR.norm>
0

>  <SCORE.SYSTEM>
0

>  <SCORE.SYSTEM.CONST>
0

>  <SCORE.SYSTEM.DIHEDRAL>
0

>  <SCORE.SYSTEM.SOLV>
0

>  <SCORE.SYSTEM.norm>
0

>  <SCORE.heavy>
14

>  <SCORE.norm>
-0.266787

>  <RMSD>
1.615

$$$$
ligand
 OpenBabel11021811393D
libRbt.so/2013.1/901 2013/11/27
 14 13  0  0  0  0  0  0  0  0999 V2000
    4.7894   -5.9628    9.1277 N   0  0  0  0  0  0  0  0  0  0  0  0
    4.0383   -6.4931   10.3495 C   0  0  0  0  0  0  0  0  0  0  0  0
    3.0496   -5.4398   10.6955 C   0  0  0  0  0  0  0  0  0  0  0  0
    3.6613   -4.1231   11.1460 C   0  0  0  0  0  0  0  0  0  0  0  0
    2.5821   -3.1993   11.5867 N   0  0  0  0  0  0  0  0  0  0  0  0
    2.2724   -2.2006   10.4570 C   0  0  0  0  0  0  0  0  0  0  0  0
    0.9277   -1.5044   10.9853 C   0  0  0  0  0  0  0  0  0  0  0  0
    0.5236   -0.6199   10.1062 C   0  0  0  0  0  0  0  0  0  0  0  0
   -0.8426   -0.1772   10.8931 C   0  0  0  0  0  0  0  0  0  0  0  0
   -1.4202    0.7874    9.8035 N   0  0  0  0  0  0  0  0  0  0  0  0
   -2.8746    1.3126   10.1324 C   0  0  0  0  0  0  0  0  0  0  0  0
   -3.4097    2.0367    8.7696 C   0  0  0  0  0  0  0  0  0  0  0  0
   -4.7584    2.5686    9.1586 C   0  0  0  0  0  0  0  0  0  0  0  0
   -5.6433    1.3517    9.2919 N   0  0  0  0  0  0  0  0  0  0  0  0
  1  2  1  0  0  0  0
  2  3  1  0  0  0  0
  3  4  1  0  0  0  0
  4  5  1  0  0  0  0
  5  6  1  0  0  0  0
  6  7  1  0  0  0  0
  7  8  1  0  0  0  0
  8  9  1  0  0  0  0
  9 10  1  0  0  0  0
 10 11  1  0  0  0  0
 11 12  1  0  0  0  0
 12 13  1  0  0  0  0
 13 14  1  0  0  0  0
M  END
>  <CHROM.1>
-64.87246603,-174.59885863,-99.89968407,169.22817554,-179.35128693,177.47620317
-175.08271123,173.20040488,-168.84431979,-177.43891680,-71.27985673,0.20687720
-1.54729012,10.17887096,0.57235267,0.49073454,-2.65528979

>  <Name>
ligand

>  <RI>
0

>  <Rbt.Current_Directory>
/home/itssahil/PROJECTS/Mol_Feturizer/New_Systems/rnas/1FUF

>  <Rbt.Executable>
rbdock ($Id: //depot/dev/client3/rdock/2013.1/src/exe/rbdock.cxx#4 $)

>  <Rbt.Library>
libRbt.so (2013.1, Build901 2013/11/27)

>  <Rbt.Parameter_File>
/export/apps/rDock/src/rDock_2013.1_src/data/scripts/dock_solv.prm

>  <Rbt.Receptor>
prm/pocket_docking_3.prm

>  <SCORE>
-5.5278

>  <SCORE.INTER>
-2.59401

>  <SCORE.INTER.CONST>
1

>  <SCORE.INTER.POLAR>
0

>  <SCORE.INTER.ROT>
11

>  <SCORE.INTER.SOLV>
15.3034

>  <SCORE.INTER.VDW>
-17.7638

>  <SCORE.INTER.norm>
-0.185286

>  <SCORE.INTRA>
-2.93379

>  <SCORE.INTRA.DIHEDRAL>
-8.63863

>  <SCORE.INTRA.DIHEDRAL.0>
10.5765

>  <SCORE.INTRA.POLAR>
0

>  <SCORE.INTRA.POLAR.0>
0

>  <SCORE.INTRA.REPUL>
0

>  <SCORE.INTRA.REPUL.0>
0

>  <SCORE.INTRA.SOLV>
1.60989

>  <SCORE.INTRA.SOLV.lig_0>
-50.1861

>  <SCORE.INTRA.VDW>
0.58058

>  <SCORE.INTRA.VDW.0>
-1.36671

>  <SCORE.INTRA.norm>
-0.209557

>  <SCORE.RESTR>
0

>  <SCORE.RESTR.CAVITY>
0

>  <SCORE.RESTR.norm>
0

>  <SCORE.SYSTEM>
0

>  <SCORE.SYSTEM.CONST>
0

>  <SCORE.SYSTEM.DIHEDRAL>
0

>  <SCORE.SYSTEM.SOLV>
0

>  <SCORE.SYSTEM.norm>
0

>  <SCORE.heavy>
14

>  <SCORE.norm>
-0.394843

>  <RMSD>
1.620

$$$$
ligand
 OpenBabel11021811393D
libRbt.so/2013.1/901 2013/11/27
 14 13  0  0  0  0  0  0  0  0999 V2000
   -4.9947    1.3036   10.2709 N   0  0  0  0  0  0  0  0  0  0  0  0
   -4.1547    1.5739    9.0222 C   0  0  0  0  0  0  0  0  0  0  0  0
   -2.9869    0.6616    9.1243 C   0  0  0  0  0  0  0  0  0  0  0  0
   -1.9545    1.0712   10.1621 C   0  0  0  0  0  0  0  0  0  0  0  0
   -0.7959    0.1403   10.1043 N   0  0  0  0  0  0  0  0  0  0  0  0
   -0.9946   -0.9860   11.1348 C   0  0  0  0  0  0  0  0  0  0  0  0
    0.5045   -1.2411   11.6445 C   0  0  0  0  0  0  0  0  0  0  0  0
    1.1666   -1.9046   10.7280 C   0  0  0  0  0  0  0  0  0  0  0  0
    2.5254   -2.1460   11.6096 C   0  0  0  0  0  0  0  0  0  0  0  0
    3.2294   -3.1655   10.6523 N   0  0  0  0  0  0  0  0  0  0  0  0
    2.9306   -4.6763   11.0091 C   0  0  0  0  0  0  0  0  0  0  0  0
    4.2437   -5.5198   10.5275 C   0  0  0  0  0  0  0  0  0  0  0  0
    4.2551   -5.3355    9.0379 C   0  0  0  0  0  0  0  0  0  0  0  0
    5.4668   -6.0952    8.5517 N   0  0  0  0  0  0  0  0  0  0  0  0
  1  2  1  0  0  0  0
  2  3  1  0  0  0  0
  3  4  1  0  0  0  0
  4  5  1  0  0  0  0
  5  6  1  0  0  0  0
  6  7  1  0  0  0  0
  7  8  1  0  0  0  0
  8  9  1  0  0  0  0
  9 10  1  0  0  0  0
 10 11  1  0  0  0  0
 11 12  1  0  0  0  0
 12 13  1  0  0  0  0
 13 14  1  0  0  0  0
M  END
>  <CHROM.1>
-73.57544523,-176.07491133,-93.97044929,-143.96635159,-75.46199168,-173.52672792
169.77187886,-93.13725573,-150.63745773,-64.14589798,179.57036640,0.60286008
-1.87993156,10.25579890,2.90515144,-0.64026015,1.17870306

>  <Name>
ligand

>  <RI>
0

>  <Rbt.Current_Directory>
/home/itssahil/PROJECTS/Mol_Feturizer/New_Systems/rnas/1FUF

>  <Rbt.Executable>
rbdock ($Id: //depot/dev/client3/rdock/2013.1/src/exe/rbdock.cxx#4 $)

>  <Rbt.Library>
libRbt.so (2013.1, Build901 2013/11/27)

>  <Rbt.Parameter_File>
/export/apps/rDock/src/rDock_2013.1_src/data/scripts/dock_solv.prm

>  <Rbt.Receptor>
prm/pocket_docking_2.prm

>  <SCORE>
-1.66455

>  <SCORE.INTER>
-0.519769

>  <SCORE.INTER.CONST>
1

>  <SCORE.INTER.POLAR>
0

>  <SCORE.INTER.ROT>
11

>  <SCORE.INTER.SOLV>
17.0491

>  <SCORE.INTER.VDW>
-16.9629

>  <SCORE.INTER.norm>
-0.0371263

>  <SCORE.INTRA>
-1.15436

>  <SCORE.INTRA.DIHEDRAL>
-5.57951

>  <SCORE.INTRA.DIHEDRAL.0>
10.5765

>  <SCORE.INTRA.POLAR>
0

>  <SCORE.INTRA.POLAR.0>
0

>  <SCORE.INTRA.REPUL>
0

>  <SCORE.INTRA.REPUL.0>
0

>  <SCORE.INTRA.SOLV>
1.52678

>  <SCORE.INTRA.SOLV.lig_0>
-50.1861

>  <SCORE.INTRA.VDW>
0.872001

>  <SCORE.INTRA.VDW.0>
-1.36671

>  <SCORE.INTRA.norm>
-0.0824546

>  <SCORE.RESTR>
0.00958663

>  <SCORE.RESTR.CAVITY>
0.00958663

>  <SCORE.RESTR.norm>
0.000684759

>  <SCORE.SYSTEM>
0

>  <SCORE.SYSTEM.CONST>
0

>  <SCORE.SYSTEM.DIHEDRAL>
0

>  <SCORE.SYSTEM.SOLV>
0

>  <SCORE.SYSTEM.norm>
0

>  <SCORE.heavy>
14

>  <SCORE.norm>
-0.118896

>  <RMSD>
1.622

$$$$
ligand
 OpenBabel11021811393D
libRbt.so/2013.1/901 2013/11/27
 14 13  0  0  0  0  0  0  0  0999 V2000
    4.9970   -6.6293    8.3364 N   0  0  0  0  0  0  0  0  0  0  0  0
    4.7152   -6.1933    9.7747 C   0  0  0  0  0  0  0  0  0  0  0  0
    4.2145   -4.7983    9.6756 C   0  0  0  0  0  0  0  0  0  0  0  0
    3.8657   -4.1565   11.0087 C   0  0  0  0  0  0  0  0  0  0  0  0
    3.2649   -2.8165   10.7725 N   0  0  0  0  0  0  0  0  0  0  0  0
    1.7427   -2.9635   10.5968 C   0  0  0  0  0  0  0  0  0  0  0  0
    1.2429   -1.4451   10.7260 C   0  0  0  0  0  0  0  0  0  0  0  0
   -0.0561   -1.4006   10.5553 C   0  0  0  0  0  0  0  0  0  0  0  0
   -0.2073    0.2270   10.6544 C   0  0  0  0  0  0  0  0  0  0  0  0
   -1.7247    0.3291   10.2822 N   0  0  0  0  0  0  0  0  0  0  0  0
   -2.4011    1.6776   10.7546 C   0  0  0  0  0  0  0  0  0  0  0  0
   -3.7133    1.8794    9.8032 C   0  0  0  0  0  0  0  0  0  0  0  0
   -3.1284    2.1464    8.4468 C   0  0  0  0  0  0  0  0  0  0  0  0
   -4.3149    2.3463    7.5336 N   0  0  0  0  0  0  0  0  0  0  0  0
  1  2  1  0  0  0  0
  2  3  1  0  0  0  0
  3  4  1  0  0  0  0
  4  5  1  0  0  0  0
  5  6  1  0  0  0  0
  6  7  1  0  0  0  0
  7  8  1  0  0  0  0
  8  9  1  0  0  0  0
  9 10  1  0  0  0  0
 10 11  1  0  0  0  0
 11 12  1  0  0  0  0
 12 13  1  0  0  0  0
 13 14  1  0  0  0  0
M  END
>  <CHROM.1>
179.96283004,-174.94874105,88.44240226,166.41878857,178.12193975,-176.82355044
173.54151918,159.35446168,157.65994670,-68.01849660,-179.73788068,0.60696506
-1.55688440,9.92319877,0.24235688,0.72487618,-2.00151130

>  <Name>
ligand

>  <RI>
0

>  <Rbt.Current_Directory>
/home/itssahil/PROJECTS/Mol_Feturizer/New_Systems/rnas/1FUF

>  <Rbt.Executable>
rbdock ($Id: //depot/dev/client3/rdock/2013.1/src/exe/rbdock.cxx#4 $)

>  <Rbt.Library>
libRbt.so (2013.1, Build901 2013/11/27)

>  <Rbt.Parameter_File>
/export/apps/rDock/src/rDock_2013.1_src/data/scripts/dock_solv.prm

>  <Rbt.Receptor>
prm/blind_docking_80.prm

>  <SCORE>
-5.96642

>  <SCORE.INTER>
-2.23038

>  <SCORE.INTER.CONST>
1

>  <SCORE.INTER.POLAR>
0

>  <SCORE.INTER.ROT>
11

>  <SCORE.INTER.SOLV>
15.4541

>  <SCORE.INTER.VDW>
-17.5716

>  <SCORE.INTER.norm>
-0.159313

>  <SCORE.INTRA>
-3.73605

>  <SCORE.INTRA.DIHEDRAL>
-8.64863

>  <SCORE.INTRA.DIHEDRAL.0>
10.5765

>  <SCORE.INTRA.POLAR>
0

>  <SCORE.INTRA.POLAR.0>
0

>  <SCORE.INTRA.REPUL>
0

>  <SCORE.INTRA.REPUL.0>
0

>  <SCORE.INTRA.SOLV>
0.363331

>  <SCORE.INTRA.SOLV.lig_0>
-50.1861

>  <SCORE.INTRA.VDW>
0.406604

>  <SCORE.INTRA.VDW.0>
-1.36671

>  <SCORE.INTRA.norm>
-0.266861

>  <SCORE.RESTR>
0

>  <SCORE.RESTR.CAVITY>
0

>  <SCORE.RESTR.norm>
0

>  <SCORE.SYSTEM>
0

>  <SCORE.SYSTEM.CONST>
0

>  <SCORE.SYSTEM.DIHEDRAL>
0

>  <SCORE.SYSTEM.SOLV>
0

>  <SCORE.SYSTEM.norm>
0

>  <SCORE.heavy>
14

>  <SCORE.norm>
-0.426173

>  <RMSD>
1.640

$$$$
ligand
 OpenBabel11021811393D
libRbt.so/2013.1/901 2013/11/27
 14 13  0  0  0  0  0  0  0  0999 V2000
    5.0666   -6.7745    8.6918 N   0  0  0  0  0  0  0  0  0  0  0  0
    3.9018   -6.4640    9.6325 C   0  0  0  0  0  0  0  0  0  0  0  0
    4.1006   -5.0549   10.0586 C   0  0  0  0  0  0  0  0  0  0  0  0
    3.0526   -4.5350   11.0292 C   0  0  0  0  0  0  0  0  0  0  0  0
    3.3331   -3.1090   11.3459 N   0  0  0  0  0  0  0  0  0  0  0  0
    2.6642   -2.2107   10.2897 C   0  0  0  0  0  0  0  0  0  0  0  0
    1.3545   -1.7031   11.0636 C   0  0  0  0  0  0  0  0  0  0  0  0
    0.6422   -0.9495   10.2615 C   0  0  0  0  0  0  0  0  0  0  0  0
   -0.5828   -0.6585   11.3087 C   0  0  0  0  0  0  0  0  0  0  0  0
   -1.5471    0.0773   10.3187 N   0  0  0  0  0  0  0  0  0  0  0  0
   -2.0289    1.4899   10.8398 C   0  0  0  0  0  0  0  0  0  0  0  0
   -3.1930    1.9780    9.8031 C   0  0  0  0  0  0  0  0  0  0  0  0
   -4.3472    1.0706   10.1155 C   0  0  0  0  0  0  0  0  0  0  0  0
   -5.4603    1.5099    9.1936 N   0  0  0  0  0  0  0  0  0  0  0  0
  1  2  1  0  0  0  0
  2  3  1  0  0  0  0
  3  4  1  0  0  0  0
  4  5  1  0  0  0  0
  5  6  1  0  0  0  0
  6  7  1  0  0  0  0
  7  8  1  0  0  0  0
  8  9  1  0  0  0  0
  9 10  1  0  0  0  0
 10 11  1  0  0  0  0
 11 12  1  0  0  0  0
 12 13  1  0  0  0  0
 13 14  1  0  0  0  0
M  END
>  <CHROM.1>
-179.10512127,-178.20950322,86.80646556,101.44410139,-177.77283868,178.36362583
-172.65023572,-126.63333504,-171.09949878,71.14846196,178.85145513,0.49693961
-1.80943818,10.28248251,0.58057782,0.44917311,-2.54313302

>  <Name>
ligand

>  <RI>
0

>  <Rbt.Current_Directory>
/home/itssahil/PROJECTS/Mol_Feturizer/New_Systems/rnas/1FUF

>  <Rbt.Executable>
rbdock ($Id: //depot/dev/client3/rdock/2013.1/src/exe/rbdock.cxx#4 $)

>  <Rbt.Library>
libRbt.so (2013.1, Build901 2013/11/27)

>  <Rbt.Parameter_File>
/export/apps/rDock/src/rDock_2013.1_src/data/scripts/dock_solv.prm

>  <Rbt.Receptor>
prm/pocket_docking_4.prm

>  <SCORE>
-5.04918

>  <SCORE.INTER>
-2.10485

>  <SCORE.INTER.CONST>
1

>  <SCORE.INTER.POLAR>
0

>  <SCORE.INTER.ROT>
11

>  <SCORE.INTER.SOLV>
15.8425

>  <SCORE.INTER.VDW>
-17.6174

>  <SCORE.INTER.norm>
-0.150346

>  <SCORE.INTRA>
-2.94433

>  <SCORE.INTRA.DIHEDRAL>
-7.20078

>  <SCORE.INTRA.DIHEDRAL.0>
10.5765

>  <SCORE.INTRA.POLAR>
0

>  <SCORE.INTRA.POLAR.0>
0

>  <SCORE.INTRA.REPUL>
0

>  <SCORE.INTRA.REPUL.0>
0

>  <SCORE.INTRA.SOLV>
0.309334

>  <SCORE.INTRA.SOLV.lig_0>
-50.1861

>  <SCORE.INTRA.VDW>
0.501396

>  <SCORE.INTRA.VDW.0>
-1.36671

>  <SCORE.INTRA.norm>
-0.210309

>  <SCORE.RESTR>
0

>  <SCORE.RESTR.CAVITY>
0

>  <SCORE.RESTR.norm>
0

>  <SCORE.SYSTEM>
0

>  <SCORE.SYSTEM.CONST>
0

>  <SCORE.SYSTEM.DIHEDRAL>
0

>  <SCORE.SYSTEM.SOLV>
0

>  <SCORE.SYSTEM.norm>
0

>  <SCORE.heavy>
14

>  <SCORE.norm>
-0.360655

>  <RMSD>
1.640

$$$$
ligand
 OpenBabel11021811393D
libRbt.so/2013.1/901 2013/11/27
 14 13  0  0  0  0  0  0  0  0999 V2000
   -5.7766    1.4909    9.2913 N   0  0  0  0  0  0  0  0  0  0  0  0
   -4.3012    1.8836    9.3755 C   0  0  0  0  0  0  0  0  0  0  0  0
   -3.5980    0.6780    9.8840 C   0  0  0  0  0  0  0  0  0  0  0  0
   -2.0983    0.8500   10.0622 C   0  0  0  0  0  0  0  0  0  0  0  0
   -1.5067   -0.4247   10.5496 N   0  0  0  0  0  0  0  0  0  0  0  0
    0.0273   -0.2987   10.5745 C   0  0  0  0  0  0  0  0  0  0  0  0
    0.4870   -1.8312   10.6851 C   0  0  0  0  0  0  0  0  0  0  0  0
    1.7956   -1.8882   10.7374 C   0  0  0  0  0  0  0  0  0  0  0  0
    1.9120   -3.5165   10.8677 C   0  0  0  0  0  0  0  0  0  0  0  0
    3.4687   -3.6147   11.0034 N   0  0  0  0  0  0  0  0  0  0  0  0
    4.0663   -4.9693   10.4491 C   0  0  0  0  0  0  0  0  0  0  0  0
    4.1967   -4.7746    8.8327 C   0  0  0  0  0  0  0  0  0  0  0  0
    4.8222   -6.0589    8.3717 C   0  0  0  0  0  0  0  0  0  0  0  0
    3.7373   -7.1013    8.5066 N   0  0  0  0  0  0  0  0  0  0  0  0
  1  2  1  0  0  0  0
  2  3  1  0  0  0  0
  3  4  1  0  0  0  0
  4  5  1  0  0  0  0
  5  6  1  0  0  0  0
  6  7  1  0  0  0  0
  7  8  1  0  0  0  0
  8  9  1  0  0  0  0
  9 10  1  0  0  0  0
 10 11  1  0  0  0  0
 11 12  1  0  0  0  0
 12 13  1  0  0  0  0
 13 14  1  0  0  0  0
M  END
>  <CHROM.1>
-179.36931267,-178.98383372,173.54090031,-163.86841901,-179.06115152,179.06526426
-177.38049029,-151.13615101,81.93227861,177.56434153,71.97918449,0.51679818
-2.11243401,9.94224649,2.63127853,-0.49389559,0.75741130

>  <Name>
ligand

>  <RI>
0

>  <Rbt.Current_Directory>
/home/itssahil/PROJECTS/Mol_Feturizer/New_Systems/rnas/1FUF

>  <Rbt.Executable>
rbdock ($Id: //depot/dev/client3/rdock/2013.1/src/exe/rbdock.cxx#4 $)

>  <Rbt.Library>
libRbt.so (2013.1, Build901 2013/11/27)

>  <Rbt.Parameter_File>
/export/apps/rDock/src/rDock_2013.1_src/data/scripts/dock_solv.prm

>  <Rbt.Receptor>
prm/pocket_docking_7.prm

>  <SCORE>
-5.14237

>  <SCORE.INTER>
-1.43858

>  <SCORE.INTER.CONST>
1

>  <SCORE.INTER.POLAR>
0

>  <SCORE.INTER.ROT>
11

>  <SCORE.INTER.SOLV>
18.2881

>  <SCORE.INTER.VDW>
-17.9884

>  <SCORE.INTER.norm>
-0.102756

>  <SCORE.INTRA>
-3.70379

>  <SCORE.INTRA.DIHEDRAL>
-8.83645

>  <SCORE.INTRA.DIHEDRAL.0>
10.5765

>  <SCORE.INTRA.POLAR>
0

>  <SCORE.INTRA.POLAR.0>
0

>  <SCORE.INTRA.REPUL>
0

>  <SCORE.INTRA.REPUL.0>
0

>  <SCORE.INTRA.SOLV>
0.769942

>  <SCORE.INTRA.SOLV.lig_0>
-50.1861

>  <SCORE.INTRA.VDW>
0.329461

>  <SCORE.INTRA.VDW.0>
-1.36671

>  <SCORE.INTRA.norm>
-0.264556

>  <SCORE.RESTR>
0

>  <SCORE.RESTR.CAVITY>
0

>  <SCORE.RESTR.norm>
0

>  <SCORE.SYSTEM>
0

>  <SCORE.SYSTEM.CONST>
0

>  <SCORE.SYSTEM.DIHEDRAL>
0

>  <SCORE.SYSTEM.SOLV>
0

>  <SCORE.SYSTEM.norm>
0

>  <SCORE.heavy>
14

>  <SCORE.norm>
-0.367312

>  <RMSD>
1.644

$$$$
ligand
 OpenBabel11021811393D
libRbt.so/2013.1/901 2013/11/27
 14 13  0  0  0  0  0  0  0  0999 V2000
    4.3671   -6.2994    8.9880 N   0  0  0  0  0  0  0  0  0  0  0  0
    4.2965   -6.4762   10.5051 C   0  0  0  0  0  0  0  0  0  0  0  0
    4.1680   -5.1039   11.0591 C   0  0  0  0  0  0  0  0  0  0  0  0
    2.8448   -4.4210   10.7537 C   0  0  0  0  0  0  0  0  0  0  0  0
    2.8148   -3.0835   11.4037 N   0  0  0  0  0  0  0  0  0  0  0  0
    2.4854   -2.0111   10.3494 C   0  0  0  0  0  0  0  0  0  0  0  0
    1.1295   -1.3792   10.9275 C   0  0  0  0  0  0  0  0  0  0  0  0
    0.6633   -0.4997   10.0744 C   0  0  0  0  0  0  0  0  0  0  0  0
   -0.7073   -0.1425   10.8963 C   0  0  0  0  0  0  0  0  0  0  0  0
   -1.4093    0.7143    9.7898 N   0  0  0  0  0  0  0  0  0  0  0  0
   -2.8281    1.2622   10.2210 C   0  0  0  0  0  0  0  0  0  0  0  0
   -3.5307    1.8150    8.8541 C   0  0  0  0  0  0  0  0  0  0  0  0
   -4.8568    2.3374    9.3250 C   0  0  0  0  0  0  0  0  0  0  0  0
   -5.6114    2.7001    8.0677 N   0  0  0  0  0  0  0  0  0  0  0  0
  1  2  1  0  0  0  0
  2  3  1  0  0  0  0
  3  4  1  0  0  0  0
  4  5  1  0  0  0  0
  5  6  1  0  0  0  0
  6  7  1  0  0  0  0
  7  8  1  0  0  0  0
  8  9  1  0  0  0  0
  9 10  1  0  0  0  0
 10 11  1  0  0  0  0
 11 12  1  0  0  0  0
 12 13  1  0  0  0  0
 13 14  1  0  0  0  0
M  END
>  <CHROM.1>
68.44254576,177.72609633,126.27333445,119.89070656,-175.43410171,176.65437189
-170.58599628,179.77402442,-167.25034876,-179.20868472,-173.08530571,0.27336142
-1.47053054,10.08697858,0.44019023,0.62342506,-2.42732222

>  <Name>
ligand

>  <RI>
0

>  <Rbt.Current_Directory>
/home/itssahil/PROJECTS/Mol_Feturizer/New_Systems/rnas/1FUF

>  <Rbt.Executable>
rbdock ($Id: //depot/dev/client3/rdock/2013.1/src/exe/rbdock.cxx#4 $)

>  <Rbt.Library>
libRbt.so (2013.1, Build901 2013/11/27)

>  <Rbt.Parameter_File>
/export/apps/rDock/src/rDock_2013.1_src/data/scripts/dock_solv.prm

>  <Rbt.Receptor>
prm/blind_docking_80.prm

>  <SCORE>
-5.67809

>  <SCORE.INTER>
-2.5835

>  <SCORE.INTER.CONST>
1

>  <SCORE.INTER.POLAR>
0

>  <SCORE.INTER.ROT>
11

>  <SCORE.INTER.SOLV>
15.711

>  <SCORE.INTER.VDW>
-17.8927

>  <SCORE.INTER.norm>
-0.184536

>  <SCORE.INTRA>
-3.09459

>  <SCORE.INTRA.DIHEDRAL>
-7.15969

>  <SCORE.INTRA.DIHEDRAL.0>
10.5765

>  <SCORE.INTRA.POLAR>
0

>  <SCORE.INTRA.POLAR.0>
0

>  <SCORE.INTRA.REPUL>
0

>  <SCORE.INTRA.REPUL.0>
0

>  <SCORE.INTRA.SOLV>
0.66665

>  <SCORE.INTRA.SOLV.lig_0>
-50.1861

>  <SCORE.INTRA.VDW>
0.151925

>  <SCORE.INTRA.VDW.0>
-1.36671

>  <SCORE.INTRA.norm>
-0.221042

>  <SCORE.RESTR>
0

>  <SCORE.RESTR.CAVITY>
0

>  <SCORE.RESTR.norm>
0

>  <SCORE.SYSTEM>
0

>  <SCORE.SYSTEM.CONST>
0

>  <SCORE.SYSTEM.DIHEDRAL>
0

>  <SCORE.SYSTEM.SOLV>
0

>  <SCORE.SYSTEM.norm>
0

>  <SCORE.heavy>
14

>  <SCORE.norm>
-0.405578

>  <RMSD>
1.645

$$$$
ligand
 OpenBabel11021811393D
libRbt.so/2013.1/901 2013/11/27
 14 13  0  0  0  0  0  0  0  0999 V2000
    5.4986   -7.0934    8.0217 N   0  0  0  0  0  0  0  0  0  0  0  0
    4.4286   -6.9227    9.1006 C   0  0  0  0  0  0  0  0  0  0  0  0
    3.9974   -5.5040    9.0109 C   0  0  0  0  0  0  0  0  0  0  0  0
    3.0318   -5.0674   10.1007 C   0  0  0  0  0  0  0  0  0  0  0  0
    2.6650   -3.6405    9.8967 N   0  0  0  0  0  0  0  0  0  0  0  0
    1.9601   -3.1095   11.1581 C   0  0  0  0  0  0  0  0  0  0  0  0
    1.3730   -1.7071   10.6477 C   0  0  0  0  0  0  0  0  0  0  0  0
    0.7748   -1.0998   11.6436 C   0  0  0  0  0  0  0  0  0  0  0  0
    0.3326    0.2408   10.8135 C   0  0  0  0  0  0  0  0  0  0  0  0
   -1.0825   -0.2446   10.3513 N   0  0  0  0  0  0  0  0  0  0  0  0
   -1.9113    0.8635    9.5870 C   0  0  0  0  0  0  0  0  0  0  0  0
   -3.4835    0.5267    9.8744 C   0  0  0  0  0  0  0  0  0  0  0  0
   -4.2159    1.6302    9.1679 C   0  0  0  0  0  0  0  0  0  0  0  0
   -5.6813    1.3532    9.4080 N   0  0  0  0  0  0  0  0  0  0  0  0
  1  2  1  0  0  0  0
  2  3  1  0  0  0  0
  3  4  1  0  0  0  0
  4  5  1  0  0  0  0
  5  6  1  0  0  0  0
  6  7  1  0  0  0  0
  7  8  1  0  0  0  0
  8  9  1  0  0  0  0
  9 10  1  0  0  0  0
 10 11  1  0  0  0  0
 11 12  1  0  0  0  0
 12 13  1  0  0  0  0
 13 14  1  0  0  0  0
M  END
>  <CHROM.1>
-173.80708872,-179.43404766,-167.04898099,-168.35910710,-177.65826864,179.32595272
91.63927954,175.18549668,-151.15452056,178.16180149,179.89627932,0.54916887
-2.12664211,9.91321523,0.56001144,0.50266831,-2.40667362

>  <Name>
ligand

>  <RI>
0

>  <Rbt.Current_Directory>
/home/itssahil/PROJECTS/Mol_Feturizer/New_Systems/rnas/1FUF

>  <Rbt.Executable>
rbdock ($Id: //depot/dev/client3/rdock/2013.1/src/exe/rbdock.cxx#4 $)

>  <Rbt.Library>
libRbt.so (2013.1, Build901 2013/11/27)

>  <Rbt.Parameter_File>
/export/apps/rDock/src/rDock_2013.1_src/data/scripts/dock_solv.prm

>  <Rbt.Receptor>
prm/pocket_docking_5.prm

>  <SCORE>
-3.65031

>  <SCORE.INTER>
-0.833309

>  <SCORE.INTER.CONST>
1

>  <SCORE.INTER.POLAR>
0

>  <SCORE.INTER.ROT>
11

>  <SCORE.INTER.SOLV>
16.5185

>  <SCORE.INTER.VDW>
-16.995

>  <SCORE.INTER.norm>
-0.0595221

>  <SCORE.INTRA>
-2.817

>  <SCORE.INTRA.DIHEDRAL>
-6.57587

>  <SCORE.INTRA.DIHEDRAL.0>
10.5765

>  <SCORE.INTRA.POLAR>
0

>  <SCORE.INTRA.POLAR.0>
0

>  <SCORE.INTRA.REPUL>
0

>  <SCORE.INTRA.REPUL.0>
0

>  <SCORE.INTRA.SOLV>
0.26115

>  <SCORE.INTRA.SOLV.lig_0>
-50.1861

>  <SCORE.INTRA.VDW>
0.340357

>  <SCORE.INTRA.VDW.0>
-1.36671

>  <SCORE.INTRA.norm>
-0.201215

>  <SCORE.RESTR>
0

>  <SCORE.RESTR.CAVITY>
0

>  <SCORE.RESTR.norm>
0

>  <SCORE.SYSTEM>
0

>  <SCORE.SYSTEM.CONST>
0

>  <SCORE.SYSTEM.DIHEDRAL>
0

>  <SCORE.SYSTEM.SOLV>
0

>  <SCORE.SYSTEM.norm>
0

>  <SCORE.heavy>
14

>  <SCORE.norm>
-0.260737

>  <RMSD>
1.647

$$$$
ligand
 OpenBabel11021811393D
libRbt.so/2013.1/901 2013/11/27
 14 13  0  0  0  0  0  0  0  0999 V2000
    5.1242   -6.6550    8.3075 N   0  0  0  0  0  0  0  0  0  0  0  0
    4.2853   -6.7598    9.5815 C   0  0  0  0  0  0  0  0  0  0  0  0
    4.4034   -5.4357   10.2445 C   0  0  0  0  0  0  0  0  0  0  0  0
    3.7720   -4.2862    9.4761 C   0  0  0  0  0  0  0  0  0  0  0  0
    3.9544   -3.0210   10.2366 N   0  0  0  0  0  0  0  0  0  0  0  0
    2.7855   -2.8455   11.2229 C   0  0  0  0  0  0  0  0  0  0  0  0
    1.8548   -1.7899   10.4539 C   0  0  0  0  0  0  0  0  0  0  0  0
    0.8058   -1.5190   11.1921 C   0  0  0  0  0  0  0  0  0  0  0  0
    0.1420   -0.4123   10.1840 C   0  0  0  0  0  0  0  0  0  0  0  0
   -1.0913   -0.0236   11.0667 N   0  0  0  0  0  0  0  0  0  0  0  0
   -1.8737    1.2431   10.5354 C   0  0  0  0  0  0  0  0  0  0  0  0
   -3.3462    0.7029   10.0792 C   0  0  0  0  0  0  0  0  0  0  0  0
   -4.0480    1.9442    9.6105 C   0  0  0  0  0  0  0  0  0  0  0  0
   -5.4307    1.4910    9.2048 N   0  0  0  0  0  0  0  0  0  0  0  0
  1  2  1  0  0  0  0
  2  3  1  0  0  0  0
  3  4  1  0  0  0  0
  4  5  1  0  0  0  0
  5  6  1  0  0  0  0
  6  7  1  0  0  0  0
  7  8  1  0  0  0  0
  8  9  1  0  0  0  0
  9 10  1  0  0  0  0
 10 11  1  0  0  0  0
 11 12  1  0  0  0  0
 12 13  1  0  0  0  0
 13 14  1  0  0  0  0
M  END
>  <CHROM.1>
66.02875802,-179.99248497,-87.87995861,-100.89929659,-179.06619949,177.59574560
-177.86633297,169.69741102,114.15658246,179.00775355,-178.84412388,0.80989148
-1.95472656,10.09985323,0.56568460,0.44136167,-2.49877894

>  <Name>
ligand

>  <RI>
0

>  <Rbt.Current_Directory>
/home/itssahil/PROJECTS/Mol_Feturizer/New_Systems/rnas/1FUF

>  <Rbt.Executable>
rbdock ($Id: //depot/dev/client3/rdock/2013.1/src/exe/rbdock.cxx#4 $)

>  <Rbt.Library>
libRbt.so (2013.1, Build901 2013/11/27)

>  <Rbt.Parameter_File>
/export/apps/rDock/src/rDock_2013.1_src/data/scripts/dock_solv.prm

>  <Rbt.Receptor>
prm/blind_docking_40.prm

>  <SCORE>
-5.10177

>  <SCORE.INTER>
-2.19403

>  <SCORE.INTER.CONST>
1

>  <SCORE.INTER.POLAR>
0

>  <SCORE.INTER.ROT>
11

>  <SCORE.INTER.SOLV>
15.0976

>  <SCORE.INTER.VDW>
-17.4285

>  <SCORE.INTER.norm>
-0.156716

>  <SCORE.INTRA>
-2.90774

>  <SCORE.INTRA.DIHEDRAL>
-7.67161

>  <SCORE.INTRA.DIHEDRAL.0>
10.5765

>  <SCORE.INTRA.POLAR>
0

>  <SCORE.INTRA.POLAR.0>
0

>  <SCORE.INTRA.REPUL>
0

>  <SCORE.INTRA.REPUL.0>
0

>  <SCORE.INTRA.SOLV>
0.725393

>  <SCORE.INTRA.SOLV.lig_0>
-50.1861

>  <SCORE.INTRA.VDW>
0.565364

>  <SCORE.INTRA.VDW.0>
-1.36671

>  <SCORE.INTRA.norm>
-0.207696

>  <SCORE.RESTR>
0

>  <SCORE.RESTR.CAVITY>
0

>  <SCORE.RESTR.norm>
0

>  <SCORE.SYSTEM>
0

>  <SCORE.SYSTEM.CONST>
0

>  <SCORE.SYSTEM.DIHEDRAL>
0

>  <SCORE.SYSTEM.SOLV>
0

>  <SCORE.SYSTEM.norm>
0

>  <SCORE.heavy>
14

>  <SCORE.norm>
-0.364412

>  <RMSD>
1.650

$$$$
ligand
 OpenBabel11021811393D
libRbt.so/2013.1/901 2013/11/27
 14 13  0  0  0  0  0  0  0  0999 V2000
   -6.7700    2.6090    9.6612 N   0  0  0  0  0  0  0  0  0  0  0  0
   -5.6643    2.8457    8.6319 C   0  0  0  0  0  0  0  0  0  0  0  0
   -4.3976    2.4896    9.3212 C   0  0  0  0  0  0  0  0  0  0  0  0
   -4.2735    1.0216    9.6957 C   0  0  0  0  0  0  0  0  0  0  0  0
   -2.9949    0.8010   10.4228 N   0  0  0  0  0  0  0  0  0  0  0  0
   -1.8537    0.6211    9.4053 C   0  0  0  0  0  0  0  0  0  0  0  0
   -0.6264    0.2039   10.3496 C   0  0  0  0  0  0  0  0  0  0  0  0
   -0.8862   -0.9513   10.9125 C   0  0  0  0  0  0  0  0  0  0  0  0
    0.5589   -1.1290   11.6621 C   0  0  0  0  0  0  0  0  0  0  0  0
    1.3045   -1.8989   10.5207 N   0  0  0  0  0  0  0  0  0  0  0  0
    2.7257   -2.4423   10.9499 C   0  0  0  0  0  0  0  0  0  0  0  0
    3.0387   -3.7078    9.9658 C   0  0  0  0  0  0  0  0  0  0  0  0
    4.3477   -4.2365   10.4759 C   0  0  0  0  0  0  0  0  0  0  0  0
    4.6724   -5.4172    9.5914 N   0  0  0  0  0  0  0  0  0  0  0  0
  1  2  1  0  0  0  0
  2  3  1  0  0  0  0
  3  4  1  0  0  0  0
  4  5  1  0  0  0  0
  5  6  1  0  0  0  0
  6  7  1  0  0  0  0
  7  8  1  0  0  0  0
  8  9  1  0  0  0  0
  9 10  1  0  0  0  0
 10 11  1  0  0  0  0
 11 12  1  0  0  0  0
 12 13  1  0  0  0  0
 13 14  1  0  0  0  0
M  END
>  <CHROM.1>
65.22661126,-177.79132990,-83.53937727,-172.66636657,64.55836324,175.39172333
-90.55357869,-172.00030694,155.42083542,-176.35738108,179.80234049,-0.77268697
-0.65636610,10.11190058,2.97989813,-0.59635813,1.14304919

>  <Name>
ligand

>  <RI>
0

>  <Rbt.Current_Directory>
/home/itssahil/PROJECTS/Mol_Feturizer/New_Systems/rnas/1FUF

>  <Rbt.Executable>
rbdock ($Id: //depot/dev/client3/rdock/2013.1/src/exe/rbdock.cxx#4 $)

>  <Rbt.Library>
libRbt.so (2013.1, Build901 2013/11/27)

>  <Rbt.Parameter_File>
/export/apps/rDock/src/rDock_2013.1_src/data/scripts/dock_solv.prm

>  <Rbt.Receptor>
prm/pocket_docking_4.prm

>  <SCORE>
-2.51425

>  <SCORE.INTER>
-1.62752

>  <SCORE.INTER.CONST>
1

>  <SCORE.INTER.POLAR>
0

>  <SCORE.INTER.ROT>
11

>  <SCORE.INTER.SOLV>
15.3503

>  <SCORE.INTER.VDW>
-17.1351

>  <SCORE.INTER.norm>
-0.116251

>  <SCORE.INTRA>
-0.886737

>  <SCORE.INTRA.DIHEDRAL>
-6.46983

>  <SCORE.INTRA.DIHEDRAL.0>
10.5765

>  <SCORE.INTRA.POLAR>
0

>  <SCORE.INTRA.POLAR.0>
0

>  <SCORE.INTRA.REPUL>
0

>  <SCORE.INTRA.REPUL.0>
0

>  <SCORE.INTRA.SOLV>
1.65495

>  <SCORE.INTRA.SOLV.lig_0>
-50.1861

>  <SCORE.INTRA.VDW>
1.5207

>  <SCORE.INTRA.VDW.0>
-1.36671

>  <SCORE.INTRA.norm>
-0.0633384

>  <SCORE.RESTR>
0

>  <SCORE.RESTR.CAVITY>
0

>  <SCORE.RESTR.norm>
0

>  <SCORE.SYSTEM>
0

>  <SCORE.SYSTEM.CONST>
0

>  <SCORE.SYSTEM.DIHEDRAL>
0

>  <SCORE.SYSTEM.SOLV>
0

>  <SCORE.SYSTEM.norm>
0

>  <SCORE.heavy>
14

>  <SCORE.norm>
-0.17959

>  <RMSD>
1.651

$$$$
ligand
 OpenBabel11021811393D
libRbt.so/2013.1/901 2013/11/27
 14 13  0  0  0  0  0  0  0  0999 V2000
    5.4982   -6.9872    8.0286 N   0  0  0  0  0  0  0  0  0  0  0  0
    4.4236   -6.8350    9.1057 C   0  0  0  0  0  0  0  0  0  0  0  0
    4.0053   -5.4107    9.0505 C   0  0  0  0  0  0  0  0  0  0  0  0
    2.9870   -5.0104   10.1057 C   0  0  0  0  0  0  0  0  0  0  0  0
    2.6489   -3.5705    9.9484 N   0  0  0  0  0  0  0  0  0  0  0  0
    1.9425   -3.0703   11.2214 C   0  0  0  0  0  0  0  0  0  0  0  0
    1.3044   -1.6845   10.7271 C   0  0  0  0  0  0  0  0  0  0  0  0
    0.6688   -1.1199   11.7251 C   0  0  0  0  0  0  0  0  0  0  0  0
    0.2045    0.2280   10.9192 C   0  0  0  0  0  0  0  0  0  0  0  0
   -1.1560   -0.3086   10.3602 N   0  0  0  0  0  0  0  0  0  0  0  0
   -1.8618    0.6865    9.3550 C   0  0  0  0  0  0  0  0  0  0  0  0
   -3.4326    0.7356    9.8000 C   0  0  0  0  0  0  0  0  0  0  0  0
   -4.0314    1.7511    8.8708 C   0  0  0  0  0  0  0  0  0  0  0  0
   -5.4920    1.8249    9.2491 N   0  0  0  0  0  0  0  0  0  0  0  0
  1  2  1  0  0  0  0
  2  3  1  0  0  0  0
  3  4  1  0  0  0  0
  4  5  1  0  0  0  0
  5  6  1  0  0  0  0
  6  7  1  0  0  0  0
  7  8  1  0  0  0  0
  8  9  1  0  0  0  0
  9 10  1  0  0  0  0
 10 11  1  0  0  0  0
 11 12  1  0  0  0  0
 12 13  1  0  0  0  0
 13 14  1  0  0  0  0
M  END
>  <CHROM.1>
-176.56926411,-179.98277823,-164.34890494,-164.79577483,-179.31388676,178.39051242
89.15253988,-173.38418945,-134.53650616,176.71874918,179.88573884,0.55074406
-2.05498300,9.89068972,0.46638603,0.60351660,-2.24156333

>  <Name>
ligand

>  <RI>
0

>  <Rbt.Current_Directory>
/home/itssahil/PROJECTS/Mol_Feturizer/New_Systems/rnas/1FUF

>  <Rbt.Executable>
rbdock ($Id: //depot/dev/client3/rdock/2013.1/src/exe/rbdock.cxx#4 $)

>  <Rbt.Library>
libRbt.so (2013.1, Build901 2013/11/27)

>  <Rbt.Parameter_File>
/export/apps/rDock/src/rDock_2013.1_src/data/scripts/dock_solv.prm

>  <Rbt.Receptor>
prm/pocket_docking_8.prm

>  <SCORE>
-3.7462

>  <SCORE.INTER>
-1.07483

>  <SCORE.INTER.CONST>
1

>  <SCORE.INTER.POLAR>
0

>  <SCORE.INTER.ROT>
11

>  <SCORE.INTER.SOLV>
15.7301

>  <SCORE.INTER.VDW>
-16.8933

>  <SCORE.INTER.norm>
-0.0767733

>  <SCORE.INTRA>
-2.67138

>  <SCORE.INTRA.DIHEDRAL>
-6.40035

>  <SCORE.INTRA.DIHEDRAL.0>
10.5765

>  <SCORE.INTRA.POLAR>
0

>  <SCORE.INTRA.POLAR.0>
0

>  <SCORE.INTRA.REPUL>
0

>  <SCORE.INTRA.REPUL.0>
0

>  <SCORE.INTRA.SOLV>
0.280413

>  <SCORE.INTRA.SOLV.lig_0>
-50.1861

>  <SCORE.INTRA.VDW>
0.38859

>  <SCORE.INTRA.VDW.0>
-1.36671

>  <SCORE.INTRA.norm>
-0.190813

>  <SCORE.RESTR>
0

>  <SCORE.RESTR.CAVITY>
0

>  <SCORE.RESTR.norm>
0

>  <SCORE.SYSTEM>
0

>  <SCORE.SYSTEM.CONST>
0

>  <SCORE.SYSTEM.DIHEDRAL>
0

>  <SCORE.SYSTEM.SOLV>
0

>  <SCORE.SYSTEM.norm>
0

>  <SCORE.heavy>
14

>  <SCORE.norm>
-0.267586

>  <RMSD>
1.655

$$$$
ligand
 OpenBabel11021811393D
libRbt.so/2013.1/901 2013/11/27
 14 13  0  0  0  0  0  0  0  0999 V2000
   -4.9080    2.9859    7.6753 N   0  0  0  0  0  0  0  0  0  0  0  0
   -3.9826    1.9337    8.2873 C   0  0  0  0  0  0  0  0  0  0  0  0
   -4.5851    1.5914    9.6013 C   0  0  0  0  0  0  0  0  0  0  0  0
   -3.8586    0.4944   10.3624 C   0  0  0  0  0  0  0  0  0  0  0  0
   -2.4512    0.9085   10.6074 N   0  0  0  0  0  0  0  0  0  0  0  0
   -1.5368   -0.3283   10.5428 C   0  0  0  0  0  0  0  0  0  0  0  0
   -0.1384    0.2623   11.0601 C   0  0  0  0  0  0  0  0  0  0  0  0
    0.8022   -0.0312   10.1954 C   0  0  0  0  0  0  0  0  0  0  0  0
    1.1885   -1.4945   10.8209 C   0  0  0  0  0  0  0  0  0  0  0  0
    2.4451   -1.7871    9.9340 N   0  0  0  0  0  0  0  0  0  0  0  0
    2.7443   -3.3287    9.7522 C   0  0  0  0  0  0  0  0  0  0  0  0
    3.4221   -3.8231   11.1536 C   0  0  0  0  0  0  0  0  0  0  0  0
    3.8187   -5.2433   10.8724 C   0  0  0  0  0  0  0  0  0  0  0  0
    4.8965   -5.1545    9.8177 N   0  0  0  0  0  0  0  0  0  0  0  0
  1  2  1  0  0  0  0
  2  3  1  0  0  0  0
  3  4  1  0  0  0  0
  4  5  1  0  0  0  0
  5  6  1  0  0  0  0
  6  7  1  0  0  0  0
  7  8  1  0  0  0  0
  8  9  1  0  0  0  0
  9 10  1  0  0  0  0
 10 11  1  0  0  0  0
 11 12  1  0  0  0  0
 12 13  1  0  0  0  0
 13 14  1  0  0  0  0
M  END
>  <CHROM.1>
176.92120924,59.05675776,-145.39473659,-171.10286625,-127.72516672,-87.62056885
-172.51380851,-154.04148022,-76.46925585,-174.06664248,65.89957866,-0.15315916
-0.92967366,10.04899688,-2.95775314,-0.63924058,1.66135436

>  <Name>
ligand

>  <RI>
0

>  <Rbt.Current_Directory>
/home/itssahil/PROJECTS/Mol_Feturizer/New_Systems/rnas/1FUF

>  <Rbt.Executable>
rbdock ($Id: //depot/dev/client3/rdock/2013.1/src/exe/rbdock.cxx#4 $)

>  <Rbt.Library>
libRbt.so (2013.1, Build901 2013/11/27)

>  <Rbt.Parameter_File>
/export/apps/rDock/src/rDock_2013.1_src/data/scripts/dock_solv.prm

>  <Rbt.Receptor>
prm/pocket_docking_3.prm

>  <SCORE>
1.66195

>  <SCORE.INTER>
-0.732621

>  <SCORE.INTER.CONST>
1

>  <SCORE.INTER.POLAR>
0

>  <SCORE.INTER.ROT>
11

>  <SCORE.INTER.SOLV>
17.2713

>  <SCORE.INTER.VDW>
-17.1788

>  <SCORE.INTER.norm>
-0.0523301

>  <SCORE.INTRA>
2.39457

>  <SCORE.INTRA.DIHEDRAL>
-0.597409

>  <SCORE.INTRA.DIHEDRAL.0>
10.5765

>  <SCORE.INTRA.POLAR>
0

>  <SCORE.INTRA.POLAR.0>
0

>  <SCORE.INTRA.REPUL>
0

>  <SCORE.INTRA.REPUL.0>
0

>  <SCORE.INTRA.SOLV>
1.68488

>  <SCORE.INTRA.SOLV.lig_0>
-50.1861

>  <SCORE.INTRA.VDW>
1.85084

>  <SCORE.INTRA.VDW.0>
-1.36671

>  <SCORE.INTRA.norm>
0.171041

>  <SCORE.RESTR>
0

>  <SCORE.RESTR.CAVITY>
0

>  <SCORE.RESTR.norm>
0

>  <SCORE.SYSTEM>
0

>  <SCORE.SYSTEM.CONST>
0

>  <SCORE.SYSTEM.DIHEDRAL>
0

>  <SCORE.SYSTEM.SOLV>
0

>  <SCORE.SYSTEM.norm>
0

>  <SCORE.heavy>
14

>  <SCORE.norm>
0.118711

>  <RMSD>
1.656

$$$$
ligand
 OpenBabel11021811393D
libRbt.so/2013.1/901 2013/11/27
 14 13  0  0  0  0  0  0  0  0999 V2000
    4.5298   -7.2850    8.8443 N   0  0  0  0  0  0  0  0  0  0  0  0
    5.0598   -6.1164    9.6759 C   0  0  0  0  0  0  0  0  0  0  0  0
    3.8564   -5.3673   10.1200 C   0  0  0  0  0  0  0  0  0  0  0  0
    4.1537   -4.1350   10.9588 C   0  0  0  0  0  0  0  0  0  0  0  0
    2.8758   -3.5037   11.3840 N   0  0  0  0  0  0  0  0  0  0  0  0
    2.5646   -2.3106   10.4623 C   0  0  0  0  0  0  0  0  0  0  0  0
    1.1049   -1.8735   10.9624 C   0  0  0  0  0  0  0  0  0  0  0  0
    0.6820   -0.8666   10.2372 C   0  0  0  0  0  0  0  0  0  0  0  0
   -0.7769   -0.7060   10.9636 C   0  0  0  0  0  0  0  0  0  0  0  0
   -1.3734    0.3894   10.0171 N   0  0  0  0  0  0  0  0  0  0  0  0
   -2.8679    0.7740   10.3600 C   0  0  0  0  0  0  0  0  0  0  0  0
   -3.4409    1.5626    9.0494 C   0  0  0  0  0  0  0  0  0  0  0  0
   -4.8372    1.9425    9.4484 C   0  0  0  0  0  0  0  0  0  0  0  0
   -5.4281    2.6199    8.2344 N   0  0  0  0  0  0  0  0  0  0  0  0
  1  2  1  0  0  0  0
  2  3  1  0  0  0  0
  3  4  1  0  0  0  0
  4  5  1  0  0  0  0
  5  6  1  0  0  0  0
  6  7  1  0  0  0  0
  7  8  1  0  0  0  0
  8  9  1  0  0  0  0
  9 10  1  0  0  0  0
 10 11  1  0  0  0  0
 11 12  1  0  0  0  0
 12 13  1  0  0  0  0
 13 14  1  0  0  0  0
M  END
>  <CHROM.1>
-179.21301299,-177.84259475,-99.56009416,174.01803578,-178.55391899,178.94052210
-174.15540782,176.82908783,-163.84121201,-178.10498819,-177.38587733,0.43600843
-1.77676960,10.05146068,0.41412484,0.60431451,-2.33019376

>  <Name>
ligand

>  <RI>
0

>  <Rbt.Current_Directory>
/home/itssahil/PROJECTS/Mol_Feturizer/New_Systems/rnas/1FUF

>  <Rbt.Executable>
rbdock ($Id: //depot/dev/client3/rdock/2013.1/src/exe/rbdock.cxx#4 $)

>  <Rbt.Library>
libRbt.so (2013.1, Build901 2013/11/27)

>  <Rbt.Parameter_File>
/export/apps/rDock/src/rDock_2013.1_src/data/scripts/dock_solv.prm

>  <Rbt.Receptor>
prm/blind_docking_60.prm

>  <SCORE>
-6.38708

>  <SCORE.INTER>
-1.80154

>  <SCORE.INTER.CONST>
1

>  <SCORE.INTER.POLAR>
0

>  <SCORE.INTER.ROT>
11

>  <SCORE.INTER.SOLV>
16.7326

>  <SCORE.INTER.VDW>
-17.7119

>  <SCORE.INTER.norm>
-0.128681

>  <SCORE.INTRA>
-4.58554

>  <SCORE.INTRA.DIHEDRAL>
-9.24866

>  <SCORE.INTRA.DIHEDRAL.0>
10.5765

>  <SCORE.INTRA.POLAR>
0

>  <SCORE.INTRA.POLAR.0>
0

>  <SCORE.INTRA.REPUL>
0

>  <SCORE.INTRA.REPUL.0>
0

>  <SCORE.INTRA.SOLV>
-0.151346

>  <SCORE.INTRA.SOLV.lig_0>
-50.1861

>  <SCORE.INTRA.VDW>
0.114467

>  <SCORE.INTRA.VDW.0>
-1.36671

>  <SCORE.INTRA.norm>
-0.327538

>  <SCORE.RESTR>
0

>  <SCORE.RESTR.CAVITY>
0

>  <SCORE.RESTR.norm>
0

>  <SCORE.SYSTEM>
0

>  <SCORE.SYSTEM.CONST>
0

>  <SCORE.SYSTEM.DIHEDRAL>
0

>  <SCORE.SYSTEM.SOLV>
0

>  <SCORE.SYSTEM.norm>
0

>  <SCORE.heavy>
14

>  <SCORE.norm>
-0.45622

>  <RMSD>
1.658

$$$$
ligand
 OpenBabel11021811393D
libRbt.so/2013.1/901 2013/11/27
 14 13  0  0  0  0  0  0  0  0999 V2000
    4.7818   -5.6872    8.3431 N   0  0  0  0  0  0  0  0  0  0  0  0
    5.3404   -5.8698    9.7547 C   0  0  0  0  0  0  0  0  0  0  0  0
    4.2181   -5.5423   10.6711 C   0  0  0  0  0  0  0  0  0  0  0  0
    3.8145   -4.0768   10.6766 C   0  0  0  0  0  0  0  0  0  0  0  0
    2.6794   -3.8779   11.6170 N   0  0  0  0  0  0  0  0  0  0  0  0
    2.5089   -2.3744   11.9002 C   0  0  0  0  0  0  0  0  0  0  0  0
    1.3133   -1.9804   10.9066 C   0  0  0  0  0  0  0  0  0  0  0  0
    0.9367   -0.7484   11.1491 C   0  0  0  0  0  0  0  0  0  0  0  0
   -0.2417   -0.6807   10.0140 C   0  0  0  0  0  0  0  0  0  0  0  0
   -0.8114    0.7327   10.3735 N   0  0  0  0  0  0  0  0  0  0  0  0
   -2.0781    1.1386    9.5193 C   0  0  0  0  0  0  0  0  0  0  0  0
   -3.3505    0.3914   10.2196 C   0  0  0  0  0  0  0  0  0  0  0  0
   -4.4635    0.5891    9.2321 C   0  0  0  0  0  0  0  0  0  0  0  0
   -4.7991    2.0604    9.2994 N   0  0  0  0  0  0  0  0  0  0  0  0
  1  2  1  0  0  0  0
  2  3  1  0  0  0  0
  3  4  1  0  0  0  0
  4  5  1  0  0  0  0
  5  6  1  0  0  0  0
  6  7  1  0  0  0  0
  7  8  1  0  0  0  0
  8  9  1  0  0  0  0
  9 10  1  0  0  0  0
 10 11  1  0  0  0  0
 11 12  1  0  0  0  0
 12 13  1  0  0  0  0
 13 14  1  0  0  0  0
M  END
>  <CHROM.1>
-68.60505961,179.44894629,165.50579805,98.78634623,172.33509245,-179.88233999
174.60876887,-176.27687901,80.79896510,-169.49223611,-70.33504201,0.70358670
-1.85188372,10.26273232,0.31179549,0.60532104,-2.16845693

>  <Name>
ligand

>  <RI>
0

>  <Rbt.Current_Directory>
/home/itssahil/PROJECTS/Mol_Feturizer/New_Systems/rnas/1FUF

>  <Rbt.Executable>
rbdock ($Id: //depot/dev/client3/rdock/2013.1/src/exe/rbdock.cxx#4 $)

>  <Rbt.Library>
libRbt.so (2013.1, Build901 2013/11/27)

>  <Rbt.Parameter_File>
/export/apps/rDock/src/rDock_2013.1_src/data/scripts/dock_solv.prm

>  <Rbt.Receptor>
prm/pocket_docking_4.prm

>  <SCORE>
-3.10111

>  <SCORE.INTER>
-0.746436

>  <SCORE.INTER.CONST>
1

>  <SCORE.INTER.POLAR>
0

>  <SCORE.INTER.ROT>
11

>  <SCORE.INTER.SOLV>
17.4814

>  <SCORE.INTER.VDW>
-17.2581

>  <SCORE.INTER.norm>
-0.0533169

>  <SCORE.INTRA>
-2.35468

>  <SCORE.INTRA.DIHEDRAL>
-7.80523

>  <SCORE.INTRA.DIHEDRAL.0>
10.5765

>  <SCORE.INTRA.POLAR>
0

>  <SCORE.INTRA.POLAR.0>
0

>  <SCORE.INTRA.REPUL>
0

>  <SCORE.INTRA.REPUL.0>
0

>  <SCORE.INTRA.SOLV>
1.56288

>  <SCORE.INTRA.SOLV.lig_0>
-50.1861

>  <SCORE.INTRA.VDW>
0.766498

>  <SCORE.INTRA.VDW.0>
-1.36671

>  <SCORE.INTRA.norm>
-0.168191

>  <SCORE.RESTR>
0

>  <SCORE.RESTR.CAVITY>
0

>  <SCORE.RESTR.norm>
0

>  <SCORE.SYSTEM>
0

>  <SCORE.SYSTEM.CONST>
0

>  <SCORE.SYSTEM.DIHEDRAL>
0

>  <SCORE.SYSTEM.SOLV>
0

>  <SCORE.SYSTEM.norm>
0

>  <SCORE.heavy>
14

>  <SCORE.norm>
-0.221508

>  <RMSD>
1.662

$$$$
ligand
 OpenBabel11021811393D
libRbt.so/2013.1/901 2013/11/27
 14 13  0  0  0  0  0  0  0  0999 V2000
    5.1039   -6.7913    8.6656 N   0  0  0  0  0  0  0  0  0  0  0  0
    4.7837   -5.9920    9.9292 C   0  0  0  0  0  0  0  0  0  0  0  0
    3.3115   -5.7950    9.9118 C   0  0  0  0  0  0  0  0  0  0  0  0
    2.7736   -4.9524   11.0570 C   0  0  0  0  0  0  0  0  0  0  0  0
    3.3787   -3.5948   11.0014 N   0  0  0  0  0  0  0  0  0  0  0  0
    2.5269   -2.6220   11.8368 C   0  0  0  0  0  0  0  0  0  0  0  0
    1.6480   -1.8946   10.7098 C   0  0  0  0  0  0  0  0  0  0  0  0
    0.7250   -1.1629   11.2854 C   0  0  0  0  0  0  0  0  0  0  0  0
    0.0607   -0.5740    9.9094 C   0  0  0  0  0  0  0  0  0  0  0  0
   -1.2211    0.0657   10.5413 N   0  0  0  0  0  0  0  0  0  0  0  0
   -2.2103    0.6830    9.4738 C   0  0  0  0  0  0  0  0  0  0  0  0
   -3.5754    1.0563   10.2892 C   0  0  0  0  0  0  0  0  0  0  0  0
   -4.4931    1.5774    9.2218 C   0  0  0  0  0  0  0  0  0  0  0  0
   -5.7841    1.9081    9.9329 N   0  0  0  0  0  0  0  0  0  0  0  0
  1  2  1  0  0  0  0
  2  3  1  0  0  0  0
  3  4  1  0  0  0  0
  4  5  1  0  0  0  0
  5  6  1  0  0  0  0
  6  7  1  0  0  0  0
  7  8  1  0  0  0  0
  8  9  1  0  0  0  0
  9 10  1  0  0  0  0
 10 11  1  0  0  0  0
 11 12  1  0  0  0  0
 12 13  1  0  0  0  0
 13 14  1  0  0  0  0
M  END
>  <CHROM.1>
-177.05390881,60.64173575,161.67677531,-99.23979317,170.96997178,179.18740632
168.98385971,-176.21024541,170.44879789,-177.57624502,178.81920354,0.50204479
-2.00627685,10.26904697,0.46288035,0.55327579,-2.36371393

>  <Name>
ligand

>  <RI>
0

>  <Rbt.Current_Directory>
/home/itssahil/PROJECTS/Mol_Feturizer/New_Systems/rnas/1FUF

>  <Rbt.Executable>
rbdock ($Id: //depot/dev/client3/rdock/2013.1/src/exe/rbdock.cxx#4 $)

>  <Rbt.Library>
libRbt.so (2013.1, Build901 2013/11/27)

>  <Rbt.Parameter_File>
/export/apps/rDock/src/rDock_2013.1_src/data/scripts/dock_solv.prm

>  <Rbt.Receptor>
prm/pocket_docking_8.prm

>  <SCORE>
-5.88891

>  <SCORE.INTER>
-1.98122

>  <SCORE.INTER.CONST>
1

>  <SCORE.INTER.POLAR>
0

>  <SCORE.INTER.ROT>
11

>  <SCORE.INTER.SOLV>
16.176

>  <SCORE.INTER.VDW>
-17.6461

>  <SCORE.INTER.norm>
-0.141516

>  <SCORE.INTRA>
-3.90769

>  <SCORE.INTRA.DIHEDRAL>
-8.54263

>  <SCORE.INTRA.DIHEDRAL.0>
10.5765

>  <SCORE.INTRA.POLAR>
0

>  <SCORE.INTRA.POLAR.0>
0

>  <SCORE.INTRA.REPUL>
0

>  <SCORE.INTRA.REPUL.0>
0

>  <SCORE.INTRA.SOLV>
0.269627

>  <SCORE.INTRA.SOLV.lig_0>
-50.1861

>  <SCORE.INTRA.VDW>
0.228815

>  <SCORE.INTRA.VDW.0>
-1.36671

>  <SCORE.INTRA.norm>
-0.279121

>  <SCORE.RESTR>
0

>  <SCORE.RESTR.CAVITY>
0

>  <SCORE.RESTR.norm>
0

>  <SCORE.SYSTEM>
0

>  <SCORE.SYSTEM.CONST>
0

>  <SCORE.SYSTEM.DIHEDRAL>
0

>  <SCORE.SYSTEM.SOLV>
0

>  <SCORE.SYSTEM.norm>
0

>  <SCORE.heavy>
14

>  <SCORE.norm>
-0.420636

>  <RMSD>
1.662

$$$$
ligand
 OpenBabel11021811393D
libRbt.so/2013.1/901 2013/11/27
 14 13  0  0  0  0  0  0  0  0999 V2000
    4.9430   -6.3162    9.3541 N   0  0  0  0  0  0  0  0  0  0  0  0
    4.3625   -5.2166    8.4642 C   0  0  0  0  0  0  0  0  0  0  0  0
    5.0045   -3.9570    8.9200 C   0  0  0  0  0  0  0  0  0  0  0  0
    4.5524   -3.4776   10.2898 C   0  0  0  0  0  0  0  0  0  0  0  0
    3.1316   -3.0434   10.2199 N   0  0  0  0  0  0  0  0  0  0  0  0
    2.7363   -2.3751   11.5492 C   0  0  0  0  0  0  0  0  0  0  0  0
    1.1704   -2.1037   11.3344 C   0  0  0  0  0  0  0  0  0  0  0  0
    1.0141   -1.0434   10.5795 C   0  0  0  0  0  0  0  0  0  0  0  0
   -0.6136   -0.9408   10.7269 C   0  0  0  0  0  0  0  0  0  0  0  0
   -0.8207    0.3980    9.9420 N   0  0  0  0  0  0  0  0  0  0  0  0
   -1.6234    1.4895   10.7566 C   0  0  0  0  0  0  0  0  0  0  0  0
   -3.2044    1.1548   10.5192 C   0  0  0  0  0  0  0  0  0  0  0  0
   -3.4226    1.4885    9.0721 C   0  0  0  0  0  0  0  0  0  0  0  0
   -4.9128    1.3682    8.8558 N   0  0  0  0  0  0  0  0  0  0  0  0
  1  2  1  0  0  0  0
  2  3  1  0  0  0  0
  3  4  1  0  0  0  0
  4  5  1  0  0  0  0
  5  6  1  0  0  0  0
  6  7  1  0  0  0  0
  7  8  1  0  0  0  0
  8  9  1  0  0  0  0
  9 10  1  0  0  0  0
 10 11  1  0  0  0  0
 11 12  1  0  0  0  0
 12 13  1  0  0  0  0
 13 14  1  0  0  0  0
M  END
>  <CHROM.1>
-70.27699223,-68.20384673,-172.02966830,-175.09673404,-78.47674579,-172.99513754
175.04310261,-126.37809760,-84.51975874,-69.04568568,-172.70404377,0.87992440
-1.61237542,10.04187783,0.36525326,0.54901416,-2.16106538

>  <Name>
ligand

>  <RI>
0

>  <Rbt.Current_Directory>
/home/itssahil/PROJECTS/Mol_Feturizer/New_Systems/rnas/1FUF

>  <Rbt.Executable>
rbdock ($Id: //depot/dev/client3/rdock/2013.1/src/exe/rbdock.cxx#4 $)

>  <Rbt.Library>
libRbt.so (2013.1, Build901 2013/11/27)

>  <Rbt.Parameter_File>
/export/apps/rDock/src/rDock_2013.1_src/data/scripts/dock_solv.prm

>  <Rbt.Receptor>
prm/pocket_docking_2.prm

>  <SCORE>
-1.93237

>  <SCORE.INTER>
-0.46033

>  <SCORE.INTER.CONST>
1

>  <SCORE.INTER.POLAR>
0

>  <SCORE.INTER.ROT>
11

>  <SCORE.INTER.SOLV>
15.6651

>  <SCORE.INTER.VDW>
-16.4619

>  <SCORE.INTER.norm>
-0.0328807

>  <SCORE.INTRA>
-1.48987

>  <SCORE.INTRA.DIHEDRAL>
-6.2748

>  <SCORE.INTRA.DIHEDRAL.0>
10.5765

>  <SCORE.INTRA.POLAR>
0

>  <SCORE.INTRA.POLAR.0>
0

>  <SCORE.INTRA.REPUL>
0

>  <SCORE.INTRA.REPUL.0>
0

>  <SCORE.INTRA.SOLV>
2.21431

>  <SCORE.INTRA.SOLV.lig_0>
-50.1861

>  <SCORE.INTRA.VDW>
0.54038

>  <SCORE.INTRA.VDW.0>
-1.36671

>  <SCORE.INTRA.norm>
-0.106419

>  <SCORE.RESTR>
0.0178302

>  <SCORE.RESTR.CAVITY>
0.0178302

>  <SCORE.RESTR.norm>
0.00127358

>  <SCORE.SYSTEM>
0

>  <SCORE.SYSTEM.CONST>
0

>  <SCORE.SYSTEM.DIHEDRAL>
0

>  <SCORE.SYSTEM.SOLV>
0

>  <SCORE.SYSTEM.norm>
0

>  <SCORE.heavy>
14

>  <SCORE.norm>
-0.138026

>  <RMSD>
1.667

$$$$
ligand
 OpenBabel11021811393D
libRbt.so/2013.1/901 2013/11/27
 14 13  0  0  0  0  0  0  0  0999 V2000
    4.7119   -6.8955    8.2678 N   0  0  0  0  0  0  0  0  0  0  0  0
    4.6287   -5.4694    8.8131 C   0  0  0  0  0  0  0  0  0  0  0  0
    4.1230   -5.6050   10.2033 C   0  0  0  0  0  0  0  0  0  0  0  0
    4.1183   -4.3120   11.0024 C   0  0  0  0  0  0  0  0  0  0  0  0
    3.2628   -3.3072   10.3163 N   0  0  0  0  0  0  0  0  0  0  0  0
    2.4348   -2.5414   11.3640 C   0  0  0  0  0  0  0  0  0  0  0  0
    1.5067   -1.6127   10.4431 C   0  0  0  0  0  0  0  0  0  0  0  0
    0.6368   -0.9860   11.1974 C   0  0  0  0  0  0  0  0  0  0  0  0
   -0.1538   -0.2211    9.9842 C   0  0  0  0  0  0  0  0  0  0  0  0
   -1.2806    0.4453   10.8430 N   0  0  0  0  0  0  0  0  0  0  0  0
   -2.6819    0.4991   10.1132 C   0  0  0  0  0  0  0  0  0  0  0  0
   -2.6247    1.7989    9.1259 C   0  0  0  0  0  0  0  0  0  0  0  0
   -3.9207    1.7270    8.3720 C   0  0  0  0  0  0  0  0  0  0  0  0
   -4.9893    2.0711    9.3828 N   0  0  0  0  0  0  0  0  0  0  0  0
  1  2  1  0  0  0  0
  2  3  1  0  0  0  0
  3  4  1  0  0  0  0
  4  5  1  0  0  0  0
  5  6  1  0  0  0  0
  6  7  1  0  0  0  0
  7  8  1  0  0  0  0
  8  9  1  0  0  0  0
  9 10  1  0  0  0  0
 10 11  1  0  0  0  0
 11 12  1  0  0  0  0
 12 13  1  0  0  0  0
 13 14  1  0  0  0  0
M  END
>  <CHROM.1>
173.00168644,59.42027343,139.07702919,-175.47612562,173.68055458,-177.57721816
175.48650626,-143.51514571,-81.66248021,174.97099328,70.68696337,0.69811656
-1.74342443,9.95927330,0.36185989,0.64573231,-2.16716034

>  <Name>
ligand

>  <RI>
0

>  <Rbt.Current_Directory>
/home/itssahil/PROJECTS/Mol_Feturizer/New_Systems/rnas/1FUF

>  <Rbt.Executable>
rbdock ($Id: //depot/dev/client3/rdock/2013.1/src/exe/rbdock.cxx#4 $)

>  <Rbt.Library>
libRbt.so (2013.1, Build901 2013/11/27)

>  <Rbt.Parameter_File>
/export/apps/rDock/src/rDock_2013.1_src/data/scripts/dock_solv.prm

>  <Rbt.Receptor>
prm/pocket_docking_3.prm

>  <SCORE>
-4.37729

>  <SCORE.INTER>
-1.75137

>  <SCORE.INTER.CONST>
1

>  <SCORE.INTER.POLAR>
0

>  <SCORE.INTER.ROT>
11

>  <SCORE.INTER.SOLV>
15.8392

>  <SCORE.INTER.VDW>
-17.3807

>  <SCORE.INTER.norm>
-0.125098

>  <SCORE.INTRA>
-2.62592

>  <SCORE.INTRA.DIHEDRAL>
-7.53722

>  <SCORE.INTRA.DIHEDRAL.0>
10.5765

>  <SCORE.INTRA.POLAR>
0

>  <SCORE.INTRA.POLAR.0>
0

>  <SCORE.INTRA.REPUL>
0

>  <SCORE.INTRA.REPUL.0>
0

>  <SCORE.INTRA.SOLV>
1.12599

>  <SCORE.INTRA.SOLV.lig_0>
-50.1861

>  <SCORE.INTRA.VDW>
0.579691

>  <SCORE.INTRA.VDW.0>
-1.36671

>  <SCORE.INTRA.norm>
-0.187566

>  <SCORE.RESTR>
0

>  <SCORE.RESTR.CAVITY>
0

>  <SCORE.RESTR.norm>
0

>  <SCORE.SYSTEM>
0

>  <SCORE.SYSTEM.CONST>
0

>  <SCORE.SYSTEM.DIHEDRAL>
0

>  <SCORE.SYSTEM.SOLV>
0

>  <SCORE.SYSTEM.norm>
0

>  <SCORE.heavy>
14

>  <SCORE.norm>
-0.312664

>  <RMSD>
1.678

$$$$
ligand
 OpenBabel11021811393D
libRbt.so/2013.1/901 2013/11/27
 14 13  0  0  0  0  0  0  0  0999 V2000
   -5.4245    1.5098    9.6742 N   0  0  0  0  0  0  0  0  0  0  0  0
   -3.9560    1.4999   10.1002 C   0  0  0  0  0  0  0  0  0  0  0  0
   -3.2403    0.7444    9.0402 C   0  0  0  0  0  0  0  0  0  0  0  0
   -1.7360    0.6507    9.2378 C   0  0  0  0  0  0  0  0  0  0  0  0
   -1.4419   -0.2263   10.4026 N   0  0  0  0  0  0  0  0  0  0  0  0
   -0.1508    0.2540   11.0897 C   0  0  0  0  0  0  0  0  0  0  0  0
    0.9674   -0.6317   10.3569 C   0  0  0  0  0  0  0  0  0  0  0  0
    0.9726   -1.8367   10.8732 C   0  0  0  0  0  0  0  0  0  0  0  0
    2.3666   -2.3386   10.1757 C   0  0  0  0  0  0  0  0  0  0  0  0
    2.3999   -3.7868   10.7699 N   0  0  0  0  0  0  0  0  0  0  0  0
    3.8525   -4.2780   11.1543 C   0  0  0  0  0  0  0  0  0  0  0  0
    4.0626   -5.7039   10.3857 C   0  0  0  0  0  0  0  0  0  0  0  0
    4.1455   -5.3159    8.9381 C   0  0  0  0  0  0  0  0  0  0  0  0
    4.4672   -6.5944    8.2007 N   0  0  0  0  0  0  0  0  0  0  0  0
  1  2  1  0  0  0  0
  2  3  1  0  0  0  0
  3  4  1  0  0  0  0
  4  5  1  0  0  0  0
  5  6  1  0  0  0  0
  6  7  1  0  0  0  0
  7  8  1  0  0  0  0
  8  9  1  0  0  0  0
  9 10  1  0  0  0  0
 10 11  1  0  0  0  0
 11 12  1  0  0  0  0
 12 13  1  0  0  0  0
 13 14  1  0  0  0  0
M  END
>  <CHROM.1>
177.96217541,69.35186468,-148.47745735,-92.26945107,-78.97438739,-168.56125153
-179.75352084,-142.26842332,-126.29032708,69.39837120,174.95484873,0.52056505
-1.86080626,10.02862688,2.66237967,-0.54221585,0.79254114

>  <Name>
ligand

>  <RI>
0

>  <Rbt.Current_Directory>
/home/itssahil/PROJECTS/Mol_Feturizer/New_Systems/rnas/1FUF

>  <Rbt.Executable>
rbdock ($Id: //depot/dev/client3/rdock/2013.1/src/exe/rbdock.cxx#4 $)

>  <Rbt.Library>
libRbt.so (2013.1, Build901 2013/11/27)

>  <Rbt.Parameter_File>
/export/apps/rDock/src/rDock_2013.1_src/data/scripts/dock_solv.prm

>  <Rbt.Receptor>
prm/blind_docking_40.prm

>  <SCORE>
-2.80586

>  <SCORE.INTER>
-1.47622

>  <SCORE.INTER.CONST>
1

>  <SCORE.INTER.POLAR>
0

>  <SCORE.INTER.ROT>
11

>  <SCORE.INTER.SOLV>
16.7182

>  <SCORE.INTER.VDW>
-17.4902

>  <SCORE.INTER.norm>
-0.105444

>  <SCORE.INTRA>
-1.32964

>  <SCORE.INTRA.DIHEDRAL>
-4.70369

>  <SCORE.INTRA.DIHEDRAL.0>
10.5765

>  <SCORE.INTRA.POLAR>
0

>  <SCORE.INTRA.POLAR.0>
0

>  <SCORE.INTRA.REPUL>
0

>  <SCORE.INTRA.REPUL.0>
0

>  <SCORE.INTRA.SOLV>
0.95105

>  <SCORE.INTRA.SOLV.lig_0>
-50.1861

>  <SCORE.INTRA.VDW>
0.546679

>  <SCORE.INTRA.VDW.0>
-1.36671

>  <SCORE.INTRA.norm>
-0.0949744

>  <SCORE.RESTR>
0

>  <SCORE.RESTR.CAVITY>
0

>  <SCORE.RESTR.norm>
0

>  <SCORE.SYSTEM>
0

>  <SCORE.SYSTEM.CONST>
0

>  <SCORE.SYSTEM.DIHEDRAL>
0

>  <SCORE.SYSTEM.SOLV>
0

>  <SCORE.SYSTEM.norm>
0

>  <SCORE.heavy>
14

>  <SCORE.norm>
-0.200418

>  <RMSD>
1.680

$$$$
ligand
 OpenBabel11021811393D
libRbt.so/2013.1/901 2013/11/27
 14 13  0  0  0  0  0  0  0  0999 V2000
    3.9751   -5.5781   10.2323 N   0  0  0  0  0  0  0  0  0  0  0  0
    4.4359   -4.1714   10.6153 C   0  0  0  0  0  0  0  0  0  0  0  0
    3.2152   -3.4683   11.0866 C   0  0  0  0  0  0  0  0  0  0  0  0
    2.1198   -3.3353   10.0411 C   0  0  0  0  0  0  0  0  0  0  0  0
    1.1027   -2.3563   10.5095 N   0  0  0  0  0  0  0  0  0  0  0  0
    1.5690   -0.9307   10.1630 C   0  0  0  0  0  0  0  0  0  0  0  0
    0.3350   -0.0421   10.6725 C   0  0  0  0  0  0  0  0  0  0  0  0
   -0.6342   -0.1013    9.7918 C   0  0  0  0  0  0  0  0  0  0  0  0
   -1.6758    0.8816   10.5859 C   0  0  0  0  0  0  0  0  0  0  0  0
   -2.8619    0.8136    9.5661 N   0  0  0  0  0  0  0  0  0  0  0  0
   -4.2515    1.2443   10.1846 C   0  0  0  0  0  0  0  0  0  0  0  0
   -5.1092    1.8922    8.9548 C   0  0  0  0  0  0  0  0  0  0  0  0
   -6.4540    2.1608    9.5651 C   0  0  0  0  0  0  0  0  0  0  0  0
   -7.3405    2.5687    8.4121 N   0  0  0  0  0  0  0  0  0  0  0  0
  1  2  1  0  0  0  0
  2  3  1  0  0  0  0
  3  4  1  0  0  0  0
  4  5  1  0  0  0  0
  5  6  1  0  0  0  0
  6  7  1  0  0  0  0
  7  8  1  0  0  0  0
  8  9  1  0  0  0  0
  9 10  1  0  0  0  0
 10 11  1  0  0  0  0
 11 12  1  0  0  0  0
 12 13  1  0  0  0  0
 13 14  1  0  0  0  0
M  END
>  <CHROM.1>
-61.37666261,-166.77441121,83.99267426,177.42845290,-78.53084216,-179.50577740
-179.11073054,160.64503464,149.71112060,174.83785494,-171.81931826,-0.82655387
-0.74429577,10.02733530,0.50944701,0.30916546,-2.85317390

>  <Name>
ligand

>  <RI>
0

>  <Rbt.Current_Directory>
/home/itssahil/PROJECTS/Mol_Feturizer/New_Systems/rnas/1FUF

>  <Rbt.Executable>
rbdock ($Id: //depot/dev/client3/rdock/2013.1/src/exe/rbdock.cxx#4 $)

>  <Rbt.Library>
libRbt.so (2013.1, Build901 2013/11/27)

>  <Rbt.Parameter_File>
/export/apps/rDock/src/rDock_2013.1_src/data/scripts/dock_solv.prm

>  <Rbt.Receptor>
prm/pocket_docking_2.prm

>  <SCORE>
-2.38929

>  <SCORE.INTER>
-0.235852

>  <SCORE.INTER.CONST>
1

>  <SCORE.INTER.POLAR>
0

>  <SCORE.INTER.ROT>
11

>  <SCORE.INTER.SOLV>
14.8977

>  <SCORE.INTER.VDW>
-16.0565

>  <SCORE.INTER.norm>
-0.0168466

>  <SCORE.INTRA>
-2.15927

>  <SCORE.INTRA.DIHEDRAL>
-7.0681

>  <SCORE.INTRA.DIHEDRAL.0>
10.5765

>  <SCORE.INTRA.POLAR>
0

>  <SCORE.INTRA.POLAR.0>
0

>  <SCORE.INTRA.REPUL>
0

>  <SCORE.INTRA.REPUL.0>
0

>  <SCORE.INTRA.SOLV>
1.11586

>  <SCORE.INTRA.SOLV.lig_0>
-50.1861

>  <SCORE.INTRA.VDW>
0.816851

>  <SCORE.INTRA.VDW.0>
-1.36671

>  <SCORE.INTRA.norm>
-0.154233

>  <SCORE.RESTR>
0.00583088

>  <SCORE.RESTR.CAVITY>
0.00583088

>  <SCORE.RESTR.norm>
0.000416492

>  <SCORE.SYSTEM>
0

>  <SCORE.SYSTEM.CONST>
0

>  <SCORE.SYSTEM.DIHEDRAL>
0

>  <SCORE.SYSTEM.SOLV>
0

>  <SCORE.SYSTEM.norm>
0

>  <SCORE.heavy>
14

>  <SCORE.norm>
-0.170663

>  <RMSD>
1.680

$$$$
ligand
 OpenBabel11021811393D
libRbt.so/2013.1/901 2013/11/27
 14 13  0  0  0  0  0  0  0  0999 V2000
   -5.2459    2.2415    8.2199 N   0  0  0  0  0  0  0  0  0  0  0  0
   -4.7802    2.3648    9.6710 C   0  0  0  0  0  0  0  0  0  0  0  0
   -3.3306    2.0405    9.6516 C   0  0  0  0  0  0  0  0  0  0  0  0
   -3.0160    0.5662    9.4566 C   0  0  0  0  0  0  0  0  0  0  0  0
   -1.5417    0.3745    9.4143 N   0  0  0  0  0  0  0  0  0  0  0  0
   -0.9723    0.4793   10.8407 C   0  0  0  0  0  0  0  0  0  0  0  0
    0.4469   -0.2519   10.6889 C   0  0  0  0  0  0  0  0  0  0  0  0
    0.2603   -1.5469   10.6059 C   0  0  0  0  0  0  0  0  0  0  0  0
    1.8419   -1.9708   10.6289 C   0  0  0  0  0  0  0  0  0  0  0  0
    1.6524   -3.5249   10.6131 N   0  0  0  0  0  0  0  0  0  0  0  0
    2.9513   -4.3234   11.0308 C   0  0  0  0  0  0  0  0  0  0  0  0
    3.2339   -5.3853    9.8223 C   0  0  0  0  0  0  0  0  0  0  0  0
    4.4481   -6.1351   10.2878 C   0  0  0  0  0  0  0  0  0  0  0  0
    4.7937   -7.0752    9.1570 N   0  0  0  0  0  0  0  0  0  0  0  0
  1  2  1  0  0  0  0
  2  3  1  0  0  0  0
  3  4  1  0  0  0  0
  4  5  1  0  0  0  0
  5  6  1  0  0  0  0
  6  7  1  0  0  0  0
  7  8  1  0  0  0  0
  8  9  1  0  0  0  0
  9 10  1  0  0  0  0
 10 11  1  0  0  0  0
 11 12  1  0  0  0  0
 12 13  1  0  0  0  0
 13 14  1  0  0  0  0
M  END
>  <CHROM.1>
-73.57098188,178.32462057,75.74382951,160.45336330,-74.45312470,-174.26751161
176.95068190,-163.88173414,-126.31493743,-178.53751348,-176.70970577,0.05304998
-1.58172996,10.00662083,2.61716104,-0.59621402,0.67276726

>  <Name>
ligand

>  <RI>
0

>  <Rbt.Current_Directory>
/home/itssahil/PROJECTS/Mol_Feturizer/New_Systems/rnas/1FUF

>  <Rbt.Executable>
rbdock ($Id: //depot/dev/client3/rdock/2013.1/src/exe/rbdock.cxx#4 $)

>  <Rbt.Library>
libRbt.so (2013.1, Build901 2013/11/27)

>  <Rbt.Parameter_File>
/export/apps/rDock/src/rDock_2013.1_src/data/scripts/dock_solv.prm

>  <Rbt.Receptor>
prm/blind_docking_40.prm

>  <SCORE>
-3.36943

>  <SCORE.INTER>
-1.33372

>  <SCORE.INTER.CONST>
1

>  <SCORE.INTER.POLAR>
0

>  <SCORE.INTER.ROT>
11

>  <SCORE.INTER.SOLV>
16.4089

>  <SCORE.INTER.VDW>
-17.2921

>  <SCORE.INTER.norm>
-0.0952655

>  <SCORE.INTRA>
-2.03571

>  <SCORE.INTRA.DIHEDRAL>
-7.07462

>  <SCORE.INTRA.DIHEDRAL.0>
10.5765

>  <SCORE.INTRA.POLAR>
0

>  <SCORE.INTRA.POLAR.0>
0

>  <SCORE.INTRA.REPUL>
0

>  <SCORE.INTRA.REPUL.0>
0

>  <SCORE.INTRA.SOLV>
1.00468

>  <SCORE.INTRA.SOLV.lig_0>
-50.1861

>  <SCORE.INTRA.VDW>
0.999256

>  <SCORE.INTRA.VDW.0>
-1.36671

>  <SCORE.INTRA.norm>
-0.145408

>  <SCORE.RESTR>
0

>  <SCORE.RESTR.CAVITY>
0

>  <SCORE.RESTR.norm>
0

>  <SCORE.SYSTEM>
0

>  <SCORE.SYSTEM.CONST>
0

>  <SCORE.SYSTEM.DIHEDRAL>
0

>  <SCORE.SYSTEM.SOLV>
0

>  <SCORE.SYSTEM.norm>
0

>  <SCORE.heavy>
14

>  <SCORE.norm>
-0.240673

>  <RMSD>
1.685

$$$$
ligand
 OpenBabel11021811393D
libRbt.so/2013.1/901 2013/11/27
 14 13  0  0  0  0  0  0  0  0999 V2000
    4.5425   -6.0948    9.1644 N   0  0  0  0  0  0  0  0  0  0  0  0
    3.9435   -6.5385   10.4995 C   0  0  0  0  0  0  0  0  0  0  0  0
    2.9530   -5.4909   10.8578 C   0  0  0  0  0  0  0  0  0  0  0  0
    3.5533   -4.1214   11.1310 C   0  0  0  0  0  0  0  0  0  0  0  0
    2.4809   -3.1870   11.5659 N   0  0  0  0  0  0  0  0  0  0  0  0
    2.2199   -2.1563   10.4527 C   0  0  0  0  0  0  0  0  0  0  0  0
    0.8643   -1.4602   10.9526 C   0  0  0  0  0  0  0  0  0  0  0  0
    0.4783   -0.5762   10.0649 C   0  0  0  0  0  0  0  0  0  0  0  0
   -0.8961   -0.1222   10.8307 C   0  0  0  0  0  0  0  0  0  0  0  0
   -1.4219    0.8883    9.7566 N   0  0  0  0  0  0  0  0  0  0  0  0
   -2.8841    1.4143   10.0471 C   0  0  0  0  0  0  0  0  0  0  0  0
   -3.4344    2.0166    8.6321 C   0  0  0  0  0  0  0  0  0  0  0  0
   -4.7706    2.5983    8.9917 C   0  0  0  0  0  0  0  0  0  0  0  0
   -5.6616    1.4098    9.2664 N   0  0  0  0  0  0  0  0  0  0  0  0
  1  2  1  0  0  0  0
  2  3  1  0  0  0  0
  3  4  1  0  0  0  0
  4  5  1  0  0  0  0
  5  6  1  0  0  0  0
  6  7  1  0  0  0  0
  7  8  1  0  0  0  0
  8  9  1  0  0  0  0
  9 10  1  0  0  0  0
 10 11  1  0  0  0  0
 11 12  1  0  0  0  0
 12 13  1  0  0  0  0
 13 14  1  0  0  0  0
M  END
>  <CHROM.1>
-65.01653443,-176.21163088,-109.41731438,168.47402634,-177.55104386,178.03017692
-177.34620554,171.84301581,-161.44653854,-175.55440755,-70.62457320,0.14057433
-1.52992604,10.15818856,0.60261369,0.48204093,-2.71511530

>  <Name>
ligand

>  <RI>
0

>  <Rbt.Current_Directory>
/home/itssahil/PROJECTS/Mol_Feturizer/New_Systems/rnas/1FUF

>  <Rbt.Executable>
rbdock ($Id: //depot/dev/client3/rdock/2013.1/src/exe/rbdock.cxx#4 $)

>  <Rbt.Library>
libRbt.so (2013.1, Build901 2013/11/27)

>  <Rbt.Parameter_File>
/export/apps/rDock/src/rDock_2013.1_src/data/scripts/dock_solv.prm

>  <Rbt.Receptor>
prm/blind_docking_80.prm

>  <SCORE>
-5.57753

>  <SCORE.INTER>
-2.74763

>  <SCORE.INTER.CONST>
1

>  <SCORE.INTER.POLAR>
0

>  <SCORE.INTER.ROT>
11

>  <SCORE.INTER.SOLV>
15.298

>  <SCORE.INTER.VDW>
-17.8644

>  <SCORE.INTER.norm>
-0.196259

>  <SCORE.INTRA>
-2.8299

>  <SCORE.INTRA.DIHEDRAL>
-8.33991

>  <SCORE.INTRA.DIHEDRAL.0>
10.5765

>  <SCORE.INTRA.POLAR>
0

>  <SCORE.INTRA.POLAR.0>
0

>  <SCORE.INTRA.REPUL>
0

>  <SCORE.INTRA.REPUL.0>
0

>  <SCORE.INTRA.SOLV>
1.61626

>  <SCORE.INTRA.SOLV.lig_0>
-50.1861

>  <SCORE.INTRA.VDW>
0.531922

>  <SCORE.INTRA.VDW.0>
-1.36671

>  <SCORE.INTRA.norm>
-0.202136

>  <SCORE.RESTR>
0

>  <SCORE.RESTR.CAVITY>
0

>  <SCORE.RESTR.norm>
0

>  <SCORE.SYSTEM>
0

>  <SCORE.SYSTEM.CONST>
0

>  <SCORE.SYSTEM.DIHEDRAL>
0

>  <SCORE.SYSTEM.SOLV>
0

>  <SCORE.SYSTEM.norm>
0

>  <SCORE.heavy>
14

>  <SCORE.norm>
-0.398395

>  <RMSD>
1.687

$$$$
ligand
 OpenBabel11021811393D
libRbt.so/2013.1/901 2013/11/27
 14 13  0  0  0  0  0  0  0  0999 V2000
    4.3980   -6.1455    9.1672 N   0  0  0  0  0  0  0  0  0  0  0  0
    3.7768   -6.4815   10.5234 C   0  0  0  0  0  0  0  0  0  0  0  0
    2.9059   -5.3256   10.8583 C   0  0  0  0  0  0  0  0  0  0  0  0
    3.6489   -4.0179   11.0781 C   0  0  0  0  0  0  0  0  0  0  0  0
    2.6943   -2.9765   11.5432 N   0  0  0  0  0  0  0  0  0  0  0  0
    2.2321   -2.1343   10.3403 C   0  0  0  0  0  0  0  0  0  0  0  0
    0.9641   -1.3587   10.9425 C   0  0  0  0  0  0  0  0  0  0  0  0
    0.4185   -0.6253   10.0028 C   0  0  0  0  0  0  0  0  0  0  0  0
   -0.8494   -0.0889   10.8896 C   0  0  0  0  0  0  0  0  0  0  0  0
   -1.5940    0.6937    9.7562 N   0  0  0  0  0  0  0  0  0  0  0  0
   -2.9122    1.4145   10.2480 C   0  0  0  0  0  0  0  0  0  0  0  0
   -3.7790    1.7336    8.9009 C   0  0  0  0  0  0  0  0  0  0  0  0
   -4.9886    2.4540    9.4217 C   0  0  0  0  0  0  0  0  0  0  0  0
   -5.8252    2.7612    8.2020 N   0  0  0  0  0  0  0  0  0  0  0  0
  1  2  1  0  0  0  0
  2  3  1  0  0  0  0
  3  4  1  0  0  0  0
  4  5  1  0  0  0  0
  5  6  1  0  0  0  0
  6  7  1  0  0  0  0
  7  8  1  0  0  0  0
  8  9  1  0  0  0  0
  9 10  1  0  0  0  0
 10 11  1  0  0  0  0
 11 12  1  0  0  0  0
 12 13  1  0  0  0  0
 13 14  1  0  0  0  0
M  END
>  <CHROM.1>
-65.00665480,-174.12099401,-96.46978376,165.76391928,-177.50926545,176.10191736
-175.30600421,-178.64630774,-161.76920334,-178.17039248,-179.65580554,0.07792190
-1.43551170,10.13407095,0.48490696,0.59502089,-2.50406509

>  <Name>
ligand

>  <RI>
0

>  <Rbt.Current_Directory>
/home/itssahil/PROJECTS/Mol_Feturizer/New_Systems/rnas/1FUF

>  <Rbt.Executable>
rbdock ($Id: //depot/dev/client3/rdock/2013.1/src/exe/rbdock.cxx#4 $)

>  <Rbt.Library>
libRbt.so (2013.1, Build901 2013/11/27)

>  <Rbt.Parameter_File>
/export/apps/rDock/src/rDock_2013.1_src/data/scripts/dock_solv.prm

>  <Rbt.Receptor>
prm/blind_docking_40.prm

>  <SCORE>
-6.65458

>  <SCORE.INTER>
-2.82413

>  <SCORE.INTER.CONST>
1

>  <SCORE.INTER.POLAR>
0

>  <SCORE.INTER.ROT>
11

>  <SCORE.INTER.SOLV>
15.4214

>  <SCORE.INTER.VDW>
-17.9565

>  <SCORE.INTER.norm>
-0.201723

>  <SCORE.INTRA>
-3.83046

>  <SCORE.INTRA.DIHEDRAL>
-8.95622

>  <SCORE.INTRA.DIHEDRAL.0>
10.5765

>  <SCORE.INTRA.POLAR>
0

>  <SCORE.INTRA.POLAR.0>
0

>  <SCORE.INTRA.REPUL>
0

>  <SCORE.INTRA.REPUL.0>
0

>  <SCORE.INTRA.SOLV>
0.693392

>  <SCORE.INTRA.SOLV.lig_0>
-50.1861

>  <SCORE.INTRA.VDW>
0.300954

>  <SCORE.INTRA.VDW.0>
-1.36671

>  <SCORE.INTRA.norm>
-0.273604

>  <SCORE.RESTR>
0

>  <SCORE.RESTR.CAVITY>
0

>  <SCORE.RESTR.norm>
0

>  <SCORE.SYSTEM>
0

>  <SCORE.SYSTEM.CONST>
0

>  <SCORE.SYSTEM.DIHEDRAL>
0

>  <SCORE.SYSTEM.SOLV>
0

>  <SCORE.SYSTEM.norm>
0

>  <SCORE.heavy>
14

>  <SCORE.norm>
-0.475327

>  <RMSD>
1.691

$$$$
ligand
 OpenBabel11021811393D
libRbt.so/2013.1/901 2013/11/27
 14 13  0  0  0  0  0  0  0  0999 V2000
    5.1284   -6.6676    8.6599 N   0  0  0  0  0  0  0  0  0  0  0  0
    4.2295   -6.7376    9.8948 C   0  0  0  0  0  0  0  0  0  0  0  0
    3.3566   -5.5380    9.8188 C   0  0  0  0  0  0  0  0  0  0  0  0
    2.4234   -5.3600   11.0054 C   0  0  0  0  0  0  0  0  0  0  0  0
    1.6104   -4.1288   10.8173 N   0  0  0  0  0  0  0  0  0  0  0  0
    2.4043   -2.9107   11.3231 C   0  0  0  0  0  0  0  0  0  0  0  0
    1.7025   -1.7033   10.5348 C   0  0  0  0  0  0  0  0  0  0  0  0
    0.4792   -1.5483   10.9800 C   0  0  0  0  0  0  0  0  0  0  0  0
    0.0777   -0.2944   10.0062 C   0  0  0  0  0  0  0  0  0  0  0  0
   -1.3635   -0.0383   10.5617 N   0  0  0  0  0  0  0  0  0  0  0  0
   -2.2201    0.9429    9.6659 C   0  0  0  0  0  0  0  0  0  0  0  0
   -3.7540    0.8294   10.2156 C   0  0  0  0  0  0  0  0  0  0  0  0
   -4.5161    1.7754    9.3338 C   0  0  0  0  0  0  0  0  0  0  0  0
   -5.9524    1.6767    9.7910 N   0  0  0  0  0  0  0  0  0  0  0  0
  1  2  1  0  0  0  0
  2  3  1  0  0  0  0
  3  4  1  0  0  0  0
  4  5  1  0  0  0  0
  5  6  1  0  0  0  0
  6  7  1  0  0  0  0
  7  8  1  0  0  0  0
  8  9  1  0  0  0  0
  9 10  1  0  0  0  0
 10 11  1  0  0  0  0
 11 12  1  0  0  0  0
 12 13  1  0  0  0  0
 13 14  1  0  0  0  0
M  END
>  <CHROM.1>
-176.61514983,179.74402633,-84.96148313,157.99356075,68.04978309,179.93898948
-177.46098210,-168.38047145,168.14677467,-179.98388085,178.76466902,0.25774420
-2.12154765,10.18640458,0.66667295,0.34530340,-2.75095933

>  <Name>
ligand

>  <RI>
0

>  <Rbt.Current_Directory>
/home/itssahil/PROJECTS/Mol_Feturizer/New_Systems/rnas/1FUF

>  <Rbt.Executable>
rbdock ($Id: //depot/dev/client3/rdock/2013.1/src/exe/rbdock.cxx#4 $)

>  <Rbt.Library>
libRbt.so (2013.1, Build901 2013/11/27)

>  <Rbt.Parameter_File>
/export/apps/rDock/src/rDock_2013.1_src/data/scripts/dock_solv.prm

>  <Rbt.Receptor>
prm/pocket_docking_4.prm

>  <SCORE>
-6.30757

>  <SCORE.INTER>
-2.61762

>  <SCORE.INTER.CONST>
1

>  <SCORE.INTER.POLAR>
0

>  <SCORE.INTER.ROT>
11

>  <SCORE.INTER.SOLV>
16.4938

>  <SCORE.INTER.VDW>
-18.1764

>  <SCORE.INTER.norm>
-0.186973

>  <SCORE.INTRA>
-3.68995

>  <SCORE.INTRA.DIHEDRAL>
-9.24206

>  <SCORE.INTRA.DIHEDRAL.0>
10.5765

>  <SCORE.INTRA.POLAR>
0

>  <SCORE.INTRA.POLAR.0>
0

>  <SCORE.INTRA.REPUL>
0

>  <SCORE.INTRA.REPUL.0>
0

>  <SCORE.INTRA.SOLV>
0.301243

>  <SCORE.INTRA.SOLV.lig_0>
-50.1861

>  <SCORE.INTRA.VDW>
0.780463

>  <SCORE.INTRA.VDW.0>
-1.36671

>  <SCORE.INTRA.norm>
-0.263568

>  <SCORE.RESTR>
0

>  <SCORE.RESTR.CAVITY>
0

>  <SCORE.RESTR.norm>
0

>  <SCORE.SYSTEM>
0

>  <SCORE.SYSTEM.CONST>
0

>  <SCORE.SYSTEM.DIHEDRAL>
0

>  <SCORE.SYSTEM.SOLV>
0

>  <SCORE.SYSTEM.norm>
0

>  <SCORE.heavy>
14

>  <SCORE.norm>
-0.450541

>  <RMSD>
1.692

$$$$
ligand
 OpenBabel11021811393D
libRbt.so/2013.1/901 2013/11/27
 14 13  0  0  0  0  0  0  0  0999 V2000
    4.5692   -7.1939    8.7334 N   0  0  0  0  0  0  0  0  0  0  0  0
    4.2750   -5.7690    8.2629 C   0  0  0  0  0  0  0  0  0  0  0  0
    3.7907   -5.0457    9.4666 C   0  0  0  0  0  0  0  0  0  0  0  0
    3.4753   -3.5767    9.2362 C   0  0  0  0  0  0  0  0  0  0  0  0
    2.9726   -2.9727   10.4990 N   0  0  0  0  0  0  0  0  0  0  0  0
    1.4384   -2.8622   10.4364 C   0  0  0  0  0  0  0  0  0  0  0  0
    1.1616   -1.5488   11.3141 C   0  0  0  0  0  0  0  0  0  0  0  0
   -0.1241   -1.2930   11.3174 C   0  0  0  0  0  0  0  0  0  0  0  0
   -0.1222   -0.2823   10.0289 C   0  0  0  0  0  0  0  0  0  0  0  0
   -1.6113    0.1927   10.1209 N   0  0  0  0  0  0  0  0  0  0  0  0
   -2.0628    1.0935    8.9027 C   0  0  0  0  0  0  0  0  0  0  0  0
   -3.6262    1.4756    9.1817 C   0  0  0  0  0  0  0  0  0  0  0  0
   -4.0158    2.2743    7.9720 C   0  0  0  0  0  0  0  0  0  0  0  0
   -5.4482    2.6890    8.2129 N   0  0  0  0  0  0  0  0  0  0  0  0
  1  2  1  0  0  0  0
  2  3  1  0  0  0  0
  3  4  1  0  0  0  0
  4  5  1  0  0  0  0
  5  6  1  0  0  0  0
  6  7  1  0  0  0  0
  7  8  1  0  0  0  0
  8  9  1  0  0  0  0
  9 10  1  0  0  0  0
 10 11  1  0  0  0  0
 11 12  1  0  0  0  0
 12 13  1  0  0  0  0
 13 14  1  0  0  0  0
M  END
>  <CHROM.1>
178.17456179,178.69356946,-101.13359781,-148.46068427,177.85018625,-92.19323892
-172.86088953,-173.37114386,179.82535782,-177.59132422,-178.13759541,0.33381208
-1.62986165,9.54900871,0.25854484,0.71065007,-2.01886877

>  <Name>
ligand

>  <RI>
0

>  <Rbt.Current_Directory>
/home/itssahil/PROJECTS/Mol_Feturizer/New_Systems/rnas/1FUF

>  <Rbt.Executable>
rbdock ($Id: //depot/dev/client3/rdock/2013.1/src/exe/rbdock.cxx#4 $)

>  <Rbt.Library>
libRbt.so (2013.1, Build901 2013/11/27)

>  <Rbt.Parameter_File>
/export/apps/rDock/src/rDock_2013.1_src/data/scripts/dock_solv.prm

>  <Rbt.Receptor>
prm/pocket_docking_4.prm

>  <SCORE>
-3.79852

>  <SCORE.INTER>
-2.10682

>  <SCORE.INTER.CONST>
1

>  <SCORE.INTER.POLAR>
0

>  <SCORE.INTER.ROT>
11

>  <SCORE.INTER.SOLV>
16.4733

>  <SCORE.INTER.VDW>
-17.829

>  <SCORE.INTER.norm>
-0.150487

>  <SCORE.INTRA>
-1.6917

>  <SCORE.INTRA.DIHEDRAL>
-5.28929

>  <SCORE.INTRA.DIHEDRAL.0>
10.5765

>  <SCORE.INTRA.POLAR>
0

>  <SCORE.INTRA.POLAR.0>
0

>  <SCORE.INTRA.REPUL>
0

>  <SCORE.INTRA.REPUL.0>
0

>  <SCORE.INTRA.SOLV>
0.180592

>  <SCORE.INTRA.SOLV.lig_0>
-50.1861

>  <SCORE.INTRA.VDW>
0.862647

>  <SCORE.INTRA.VDW.0>
-1.36671

>  <SCORE.INTRA.norm>
-0.120836

>  <SCORE.RESTR>
0

>  <SCORE.RESTR.CAVITY>
0

>  <SCORE.RESTR.norm>
0

>  <SCORE.SYSTEM>
0

>  <SCORE.SYSTEM.CONST>
0

>  <SCORE.SYSTEM.DIHEDRAL>
0

>  <SCORE.SYSTEM.SOLV>
0

>  <SCORE.SYSTEM.norm>
0

>  <SCORE.heavy>
14

>  <SCORE.norm>
-0.271323

>  <RMSD>
1.692

$$$$
ligand
 OpenBabel11021811393D
libRbt.so/2013.1/901 2013/11/27
 14 13  0  0  0  0  0  0  0  0999 V2000
    4.0513   -6.2386    9.4180 N   0  0  0  0  0  0  0  0  0  0  0  0
    4.2742   -5.6965   10.8302 C   0  0  0  0  0  0  0  0  0  0  0  0
    5.0714   -4.4551   10.6576 C   0  0  0  0  0  0  0  0  0  0  0  0
    4.3161   -3.3040   10.0134 C   0  0  0  0  0  0  0  0  0  0  0  0
    3.3151   -2.7676   10.9739 N   0  0  0  0  0  0  0  0  0  0  0  0
    2.1326   -2.1639   10.1947 C   0  0  0  0  0  0  0  0  0  0  0  0
    1.1097   -1.7938   11.3730 C   0  0  0  0  0  0  0  0  0  0  0  0
   -0.0483   -1.4648   10.8539 C   0  0  0  0  0  0  0  0  0  0  0  0
    0.1667    0.1574   10.9168 C   0  0  0  0  0  0  0  0  0  0  0  0
   -1.3113    0.5857   10.6279 N   0  0  0  0  0  0  0  0  0  0  0  0
   -1.6454    0.7006    9.0870 C   0  0  0  0  0  0  0  0  0  0  0  0
   -2.9708    1.6496    8.9843 C   0  0  0  0  0  0  0  0  0  0  0  0
   -4.0487    0.8208    9.6201 C   0  0  0  0  0  0  0  0  0  0  0  0
   -5.3268    1.5968    9.4054 N   0  0  0  0  0  0  0  0  0  0  0  0
  1  2  1  0  0  0  0
  2  3  1  0  0  0  0
  3  4  1  0  0  0  0
  4  5  1  0  0  0  0
  5  6  1  0  0  0  0
  6  7  1  0  0  0  0
  7  8  1  0  0  0  0
  8  9  1  0  0  0  0
  9 10  1  0  0  0  0
 10 11  1  0  0  0  0
 11 12  1  0  0  0  0
 12 13  1  0  0  0  0
 13 14  1  0  0  0  0
M  END
>  <CHROM.1>
69.54082646,71.39603315,-151.63209122,174.12472647,-169.76953318,-98.23810204
-167.26642566,-86.90294969,-159.70196845,-66.94652830,-173.75099584,0.64917813
-1.59807015,10.21120686,0.55453270,0.37411460,-2.74495555

>  <Name>
ligand

>  <RI>
0

>  <Rbt.Current_Directory>
/home/itssahil/PROJECTS/Mol_Feturizer/New_Systems/rnas/1FUF

>  <Rbt.Executable>
rbdock ($Id: //depot/dev/client3/rdock/2013.1/src/exe/rbdock.cxx#4 $)

>  <Rbt.Library>
libRbt.so (2013.1, Build901 2013/11/27)

>  <Rbt.Parameter_File>
/export/apps/rDock/src/rDock_2013.1_src/data/scripts/dock_solv.prm

>  <Rbt.Receptor>
prm/pocket_docking_3.prm

>  <SCORE>
-1.19112

>  <SCORE.INTER>
-1.85683

>  <SCORE.INTER.CONST>
1

>  <SCORE.INTER.POLAR>
0

>  <SCORE.INTER.ROT>
11

>  <SCORE.INTER.SOLV>
16.7456

>  <SCORE.INTER.VDW>
-17.7531

>  <SCORE.INTER.norm>
-0.13263

>  <SCORE.INTRA>
0.665711

>  <SCORE.INTRA.DIHEDRAL>
-2.73001

>  <SCORE.INTRA.DIHEDRAL.0>
10.5765

>  <SCORE.INTRA.POLAR>
0

>  <SCORE.INTRA.POLAR.0>
0

>  <SCORE.INTRA.REPUL>
0

>  <SCORE.INTRA.REPUL.0>
0

>  <SCORE.INTRA.SOLV>
2.18638

>  <SCORE.INTRA.SOLV.lig_0>
-50.1861

>  <SCORE.INTRA.VDW>
0.937529

>  <SCORE.INTRA.VDW.0>
-1.36671

>  <SCORE.INTRA.norm>
0.0475508

>  <SCORE.RESTR>
0

>  <SCORE.RESTR.CAVITY>
0

>  <SCORE.RESTR.norm>
0

>  <SCORE.SYSTEM>
0

>  <SCORE.SYSTEM.CONST>
0

>  <SCORE.SYSTEM.DIHEDRAL>
0

>  <SCORE.SYSTEM.SOLV>
0

>  <SCORE.SYSTEM.norm>
0

>  <SCORE.heavy>
14

>  <SCORE.norm>
-0.0850797

>  <RMSD>
1.694

$$$$
ligand
 OpenBabel11021811393D
libRbt.so/2013.1/901 2013/11/27
 14 13  0  0  0  0  0  0  0  0999 V2000
    4.7652   -7.5559    8.6521 N   0  0  0  0  0  0  0  0  0  0  0  0
    4.7152   -6.0541    8.3689 C   0  0  0  0  0  0  0  0  0  0  0  0
    3.7603   -5.4949    9.3599 C   0  0  0  0  0  0  0  0  0  0  0  0
    3.6211   -3.9818    9.3185 C   0  0  0  0  0  0  0  0  0  0  0  0
    2.6352   -3.5457   10.3432 N   0  0  0  0  0  0  0  0  0  0  0  0
    2.4736   -2.0162   10.2773 C   0  0  0  0  0  0  0  0  0  0  0  0
    0.9383   -1.8236   10.6988 C   0  0  0  0  0  0  0  0  0  0  0  0
    0.5925   -0.5724   10.5158 C   0  0  0  0  0  0  0  0  0  0  0  0
   -0.9688   -0.7343   10.9826 C   0  0  0  0  0  0  0  0  0  0  0  0
   -1.4630    0.7000   10.5957 N   0  0  0  0  0  0  0  0  0  0  0  0
   -1.9993    0.8041    9.1123 C   0  0  0  0  0  0  0  0  0  0  0  0
   -3.6148    0.5811    9.2018 C   0  0  0  0  0  0  0  0  0  0  0  0
   -4.1144    1.8586    9.8113 C   0  0  0  0  0  0  0  0  0  0  0  0
   -5.6164    1.7099    9.8730 N   0  0  0  0  0  0  0  0  0  0  0  0
  1  2  1  0  0  0  0
  2  3  1  0  0  0  0
  3  4  1  0  0  0  0
  4  5  1  0  0  0  0
  5  6  1  0  0  0  0
  6  7  1  0  0  0  0
  7  8  1  0  0  0  0
  8  9  1  0  0  0  0
  9 10  1  0  0  0  0
 10 11  1  0  0  0  0
 11 12  1  0  0  0  0
 12 13  1  0  0  0  0
 13 14  1  0  0  0  0
M  END
>  <CHROM.1>
176.27246389,179.54185042,-178.75711623,147.90842924,-171.53827222,178.54617127
-172.87502923,89.59058279,94.14688918,72.77020024,178.31714452,0.40903679
-1.86596530,9.79363013,0.62220378,0.39914974,-2.53671050

>  <Name>
ligand

>  <RI>
0

>  <Rbt.Current_Directory>
/home/itssahil/PROJECTS/Mol_Feturizer/New_Systems/rnas/1FUF

>  <Rbt.Executable>
rbdock ($Id: //depot/dev/client3/rdock/2013.1/src/exe/rbdock.cxx#4 $)

>  <Rbt.Library>
libRbt.so (2013.1, Build901 2013/11/27)

>  <Rbt.Parameter_File>
/export/apps/rDock/src/rDock_2013.1_src/data/scripts/dock_solv.prm

>  <Rbt.Receptor>
prm/blind_docking_20.prm

>  <SCORE>
-4.85124

>  <SCORE.INTER>
-1.53551

>  <SCORE.INTER.CONST>
1

>  <SCORE.INTER.POLAR>
0

>  <SCORE.INTER.ROT>
11

>  <SCORE.INTER.SOLV>
17.083

>  <SCORE.INTER.VDW>
-17.6513

>  <SCORE.INTER.norm>
-0.10968

>  <SCORE.INTRA>
-3.31573

>  <SCORE.INTRA.DIHEDRAL>
-7.46979

>  <SCORE.INTRA.DIHEDRAL.0>
10.5765

>  <SCORE.INTRA.POLAR>
0

>  <SCORE.INTRA.POLAR.0>
0

>  <SCORE.INTRA.REPUL>
0

>  <SCORE.INTRA.REPUL.0>
0

>  <SCORE.INTRA.SOLV>
0.278374

>  <SCORE.INTRA.SOLV.lig_0>
-50.1861

>  <SCORE.INTRA.VDW>
0.279985

>  <SCORE.INTRA.VDW.0>
-1.36671

>  <SCORE.INTRA.norm>
-0.236838

>  <SCORE.RESTR>
0

>  <SCORE.RESTR.CAVITY>
0

>  <SCORE.RESTR.norm>
0

>  <SCORE.SYSTEM>
0

>  <SCORE.SYSTEM.CONST>
0

>  <SCORE.SYSTEM.DIHEDRAL>
0

>  <SCORE.SYSTEM.SOLV>
0

>  <SCORE.SYSTEM.norm>
0

>  <SCORE.heavy>
14

>  <SCORE.norm>
-0.346517

>  <RMSD>
1.697

$$$$
ligand
 OpenBabel11021811393D
libRbt.so/2013.1/901 2013/11/27
 14 13  0  0  0  0  0  0  0  0999 V2000
    5.1965   -6.1062    9.0754 N   0  0  0  0  0  0  0  0  0  0  0  0
    3.7318   -6.5354    9.1664 C   0  0  0  0  0  0  0  0  0  0  0  0
    3.1148   -5.6313   10.1707 C   0  0  0  0  0  0  0  0  0  0  0  0
    3.1182   -4.1614    9.7834 C   0  0  0  0  0  0  0  0  0  0  0  0
    2.3568   -3.3799   10.7942 N   0  0  0  0  0  0  0  0  0  0  0  0
    2.2267   -1.9213   10.3193 C   0  0  0  0  0  0  0  0  0  0  0  0
    0.7373   -1.5500   10.7838 C   0  0  0  0  0  0  0  0  0  0  0  0
    0.4215   -0.3652   10.3199 C   0  0  0  0  0  0  0  0  0  0  0  0
   -1.1164   -0.3423   10.8821 C   0  0  0  0  0  0  0  0  0  0  0  0
   -1.5352    1.0567   10.3175 N   0  0  0  0  0  0  0  0  0  0  0  0
   -2.2738    0.9788    8.9220 C   0  0  0  0  0  0  0  0  0  0  0  0
   -3.7651    0.3909    9.2352 C   0  0  0  0  0  0  0  0  0  0  0  0
   -4.4675    1.5423    9.8940 C   0  0  0  0  0  0  0  0  0  0  0  0
   -4.7794    2.5105    8.7772 N   0  0  0  0  0  0  0  0  0  0  0  0
  1  2  1  0  0  0  0
  2  3  1  0  0  0  0
  3  4  1  0  0  0  0
  4  5  1  0  0  0  0
  5  6  1  0  0  0  0
  6  7  1  0  0  0  0
  7  8  1  0  0  0  0
  8  9  1  0  0  0  0
  9 10  1  0  0  0  0
 10 11  1  0  0  0  0
 11 12  1  0  0  0  0
 12 13  1  0  0  0  0
 13 14  1  0  0  0  0
M  END
>  <CHROM.1>
62.86767674,174.28540678,-173.68418641,141.76467711,-173.36579489,177.05390072
-178.93266806,95.00492439,73.09027253,73.12117991,74.78955187,0.21184441
-1.67964652,9.88871952,0.60696273,0.46537055,-2.59693181

>  <Name>
ligand

>  <RI>
0

>  <Rbt.Current_Directory>
/home/itssahil/PROJECTS/Mol_Feturizer/New_Systems/rnas/1FUF

>  <Rbt.Executable>
rbdock ($Id: //depot/dev/client3/rdock/2013.1/src/exe/rbdock.cxx#4 $)

>  <Rbt.Library>
libRbt.so (2013.1, Build901 2013/11/27)

>  <Rbt.Parameter_File>
/export/apps/rDock/src/rDock_2013.1_src/data/scripts/dock_solv.prm

>  <Rbt.Receptor>
prm/blind_docking_80.prm

>  <SCORE>
-3.7818

>  <SCORE.INTER>
-2.32383

>  <SCORE.INTER.CONST>
1

>  <SCORE.INTER.POLAR>
0

>  <SCORE.INTER.ROT>
11

>  <SCORE.INTER.SOLV>
14.9808

>  <SCORE.INTER.VDW>
-17.4762

>  <SCORE.INTER.norm>
-0.165988

>  <SCORE.INTRA>
-1.45797

>  <SCORE.INTRA.DIHEDRAL>
-7.02992

>  <SCORE.INTRA.DIHEDRAL.0>
10.5765

>  <SCORE.INTRA.POLAR>
0

>  <SCORE.INTRA.POLAR.0>
0

>  <SCORE.INTRA.REPUL>
0

>  <SCORE.INTRA.REPUL.0>
0

>  <SCORE.INTRA.SOLV>
2.38923

>  <SCORE.INTRA.SOLV.lig_0>
-50.1861

>  <SCORE.INTRA.VDW>
0.862375

>  <SCORE.INTRA.VDW.0>
-1.36671

>  <SCORE.INTRA.norm>
-0.104141

>  <SCORE.RESTR>
0

>  <SCORE.RESTR.CAVITY>
0

>  <SCORE.RESTR.norm>
0

>  <SCORE.SYSTEM>
0

>  <SCORE.SYSTEM.CONST>
0

>  <SCORE.SYSTEM.DIHEDRAL>
0

>  <SCORE.SYSTEM.SOLV>
0

>  <SCORE.SYSTEM.norm>
0

>  <SCORE.heavy>
14

>  <SCORE.norm>
-0.270129

>  <RMSD>
1.698

$$$$
ligand
 OpenBabel11021811393D
libRbt.so/2013.1/901 2013/11/27
 14 13  0  0  0  0  0  0  0  0999 V2000
   -5.5260    1.4142    9.1922 N   0  0  0  0  0  0  0  0  0  0  0  0
   -4.3953    0.9297   10.1005 C   0  0  0  0  0  0  0  0  0  0  0  0
   -3.2557    1.8460    9.8388 C   0  0  0  0  0  0  0  0  0  0  0  0
   -1.9994    1.5350   10.6360 C   0  0  0  0  0  0  0  0  0  0  0  0
   -1.4817    0.1967   10.2446 N   0  0  0  0  0  0  0  0  0  0  0  0
   -0.1980   -0.1060   11.0386 C   0  0  0  0  0  0  0  0  0  0  0  0
    0.2166   -1.5462   10.4677 C   0  0  0  0  0  0  0  0  0  0  0  0
    1.2597   -1.9894   11.1265 C   0  0  0  0  0  0  0  0  0  0  0  0
    1.3857   -3.4229   10.3449 C   0  0  0  0  0  0  0  0  0  0  0  0
    2.5311   -4.0453   11.2121 N   0  0  0  0  0  0  0  0  0  0  0  0
    2.9033   -5.5250   10.7981 C   0  0  0  0  0  0  0  0  0  0  0  0
    3.9453   -5.3929    9.5473 C   0  0  0  0  0  0  0  0  0  0  0  0
    4.2277   -6.8183    9.1710 C   0  0  0  0  0  0  0  0  0  0  0  0
    5.2784   -6.7439    8.0882 N   0  0  0  0  0  0  0  0  0  0  0  0
  1  2  1  0  0  0  0
  2  3  1  0  0  0  0
  3  4  1  0  0  0  0
  4  5  1  0  0  0  0
  5  6  1  0  0  0  0
  6  7  1  0  0  0  0
  7  8  1  0  0  0  0
  8  9  1  0  0  0  0
  9 10  1  0  0  0  0
 10 11  1  0  0  0  0
 11 12  1  0  0  0  0
 12 13  1  0  0  0  0
 13 14  1  0  0  0  0
M  END
>  <CHROM.1>
-179.35163691,63.67106681,179.16904077,-178.89487475,-175.53255118,178.87656484
-174.28595235,176.95730693,83.52459012,-178.27123141,-175.47367587,0.34947786
-2.11910037,10.12922252,2.58964160,-0.55643585,0.77498683

>  <Name>
ligand

>  <RI>
0

>  <Rbt.Current_Directory>
/home/itssahil/PROJECTS/Mol_Feturizer/New_Systems/rnas/1FUF

>  <Rbt.Executable>
rbdock ($Id: //depot/dev/client3/rdock/2013.1/src/exe/rbdock.cxx#4 $)

>  <Rbt.Library>
libRbt.so (2013.1, Build901 2013/11/27)

>  <Rbt.Parameter_File>
/export/apps/rDock/src/rDock_2013.1_src/data/scripts/dock_solv.prm

>  <Rbt.Receptor>
prm/pocket_docking_5.prm

>  <SCORE>
-7.10116

>  <SCORE.INTER>
-2.4774

>  <SCORE.INTER.CONST>
1

>  <SCORE.INTER.POLAR>
0

>  <SCORE.INTER.ROT>
11

>  <SCORE.INTER.SOLV>
15.1296

>  <SCORE.INTER.VDW>
-17.6281

>  <SCORE.INTER.norm>
-0.176957

>  <SCORE.INTRA>
-4.62376

>  <SCORE.INTRA.DIHEDRAL>
-9.82292

>  <SCORE.INTRA.DIHEDRAL.0>
10.5765

>  <SCORE.INTRA.POLAR>
0

>  <SCORE.INTRA.POLAR.0>
0

>  <SCORE.INTRA.REPUL>
0

>  <SCORE.INTRA.REPUL.0>
0

>  <SCORE.INTRA.SOLV>
0.225865

>  <SCORE.INTRA.SOLV.lig_0>
-50.1861

>  <SCORE.INTRA.VDW>
0.174768

>  <SCORE.INTRA.VDW.0>
-1.36671

>  <SCORE.INTRA.norm>
-0.330269

>  <SCORE.RESTR>
0

>  <SCORE.RESTR.CAVITY>
0

>  <SCORE.RESTR.norm>
0

>  <SCORE.SYSTEM>
0

>  <SCORE.SYSTEM.CONST>
0

>  <SCORE.SYSTEM.DIHEDRAL>
0

>  <SCORE.SYSTEM.SOLV>
0

>  <SCORE.SYSTEM.norm>
0

>  <SCORE.heavy>
14

>  <SCORE.norm>
-0.507226

>  <RMSD>
1.706

$$$$
ligand
 OpenBabel11021811393D
libRbt.so/2013.1/901 2013/11/27
 14 13  0  0  0  0  0  0  0  0999 V2000
   -5.2389    2.6581    7.9843 N   0  0  0  0  0  0  0  0  0  0  0  0
   -3.7588    2.2923    7.8689 C   0  0  0  0  0  0  0  0  0  0  0  0
   -3.4594    1.4665    9.0669 C   0  0  0  0  0  0  0  0  0  0  0  0
   -2.0216    0.9815    9.1563 C   0  0  0  0  0  0  0  0  0  0  0  0
   -1.8572    0.1364   10.3691 N   0  0  0  0  0  0  0  0  0  0  0  0
   -0.3700    0.0956   10.7648 C   0  0  0  0  0  0  0  0  0  0  0  0
    0.0054   -1.4403   10.4969 C   0  0  0  0  0  0  0  0  0  0  0  0
    1.2472   -1.6524   10.8595 C   0  0  0  0  0  0  0  0  0  0  0  0
    1.3114   -3.2268   10.4136 C   0  0  0  0  0  0  0  0  0  0  0  0
    2.7205   -3.5651   11.0064 N   0  0  0  0  0  0  0  0  0  0  0  0
    3.1292   -5.0827   10.8361 C   0  0  0  0  0  0  0  0  0  0  0  0
    3.9123   -5.1793    9.4060 C   0  0  0  0  0  0  0  0  0  0  0  0
    4.2678   -6.6335    9.2956 C   0  0  0  0  0  0  0  0  0  0  0  0
    5.1049   -6.7451    8.0431 N   0  0  0  0  0  0  0  0  0  0  0  0
  1  2  1  0  0  0  0
  2  3  1  0  0  0  0
  3  4  1  0  0  0  0
  4  5  1  0  0  0  0
  5  6  1  0  0  0  0
  6  7  1  0  0  0  0
  7  8  1  0  0  0  0
  8  9  1  0  0  0  0
  9 10  1  0  0  0  0
 10 11  1  0  0  0  0
 11 12  1  0  0  0  0
 12 13  1  0  0  0  0
 13 14  1  0  0  0  0
M  END
>  <CHROM.1>
179.80791904,-178.29315289,-158.36497809,-113.28231556,-176.72947777,-177.93518855
-172.90266673,176.97415226,90.19487199,-179.72834227,-175.01893727,0.35669090
-1.84961956,9.68353259,2.97235244,-0.76916590,1.22662565

>  <Name>
ligand

>  <RI>
0

>  <Rbt.Current_Directory>
/home/itssahil/PROJECTS/Mol_Feturizer/New_Systems/rnas/1FUF

>  <Rbt.Executable>
rbdock ($Id: //depot/dev/client3/rdock/2013.1/src/exe/rbdock.cxx#4 $)

>  <Rbt.Library>
libRbt.so (2013.1, Build901 2013/11/27)

>  <Rbt.Parameter_File>
/export/apps/rDock/src/rDock_2013.1_src/data/scripts/dock_solv.prm

>  <Rbt.Receptor>
prm/blind_docking_100.prm

>  <SCORE>
-6.56799

>  <SCORE.INTER>
-2.52863

>  <SCORE.INTER.CONST>
1

>  <SCORE.INTER.POLAR>
0

>  <SCORE.INTER.ROT>
11

>  <SCORE.INTER.SOLV>
14.9303

>  <SCORE.INTER.VDW>
-17.5959

>  <SCORE.INTER.norm>
-0.180616

>  <SCORE.INTRA>
-4.03936

>  <SCORE.INTRA.DIHEDRAL>
-8.10264

>  <SCORE.INTRA.DIHEDRAL.0>
10.5765

>  <SCORE.INTRA.POLAR>
0

>  <SCORE.INTRA.POLAR.0>
0

>  <SCORE.INTRA.REPUL>
0

>  <SCORE.INTRA.REPUL.0>
0

>  <SCORE.INTRA.SOLV>
-0.147045

>  <SCORE.INTRA.SOLV.lig_0>
-50.1861

>  <SCORE.INTRA.VDW>
0.0854817

>  <SCORE.INTRA.VDW.0>
-1.36671

>  <SCORE.INTRA.norm>
-0.288526

>  <SCORE.RESTR>
0

>  <SCORE.RESTR.CAVITY>
0

>  <SCORE.RESTR.norm>
0

>  <SCORE.SYSTEM>
0

>  <SCORE.SYSTEM.CONST>
0

>  <SCORE.SYSTEM.DIHEDRAL>
0

>  <SCORE.SYSTEM.SOLV>
0

>  <SCORE.SYSTEM.norm>
0

>  <SCORE.heavy>
14

>  <SCORE.norm>
-0.469142

>  <RMSD>
1.710

$$$$
ligand
 OpenBabel11021811393D
libRbt.so/2013.1/901 2013/11/27
 14 13  0  0  0  0  0  0  0  0999 V2000
    4.4827   -6.2715    8.7633 N   0  0  0  0  0  0  0  0  0  0  0  0
    4.1993   -6.6938   10.2054 C   0  0  0  0  0  0  0  0  0  0  0  0
    3.2694   -5.6682   10.7438 C   0  0  0  0  0  0  0  0  0  0  0  0
    3.8939   -4.2986   10.9558 C   0  0  0  0  0  0  0  0  0  0  0  0
    2.8792   -3.3733   11.5271 N   0  0  0  0  0  0  0  0  0  0  0  0
    2.4931   -2.3236   10.4693 C   0  0  0  0  0  0  0  0  0  0  0  0
    1.0753   -1.8072   11.0127 C   0  0  0  0  0  0  0  0  0  0  0  0
    0.6169   -0.8767   10.2110 C   0  0  0  0  0  0  0  0  0  0  0  0
   -0.8285   -0.6774   10.9545 C   0  0  0  0  0  0  0  0  0  0  0  0
   -1.4511    0.3505    9.9509 N   0  0  0  0  0  0  0  0  0  0  0  0
   -2.9196    0.7947   10.3323 C   0  0  0  0  0  0  0  0  0  0  0  0
   -3.5088    1.5711    9.0216 C   0  0  0  0  0  0  0  0  0  0  0  0
   -4.8762    2.0114    9.4570 C   0  0  0  0  0  0  0  0  0  0  0  0
   -5.4904    2.6645    8.2413 N   0  0  0  0  0  0  0  0  0  0  0  0
  1  2  1  0  0  0  0
  2  3  1  0  0  0  0
  3  4  1  0  0  0  0
  4  5  1  0  0  0  0
  5  6  1  0  0  0  0
  6  7  1  0  0  0  0
  7  8  1  0  0  0  0
  8  9  1  0  0  0  0
  9 10  1  0  0  0  0
 10 11  1  0  0  0  0
 11 12  1  0  0  0  0
 12 13  1  0  0  0  0
 13 14  1  0  0  0  0
M  END
>  <CHROM.1>
-69.67832878,-178.56156511,-110.04438396,159.52332047,179.12536745,175.59324079
-175.71336213,179.27541295,-167.34161086,-177.97941479,-176.71138485,0.27401742
-1.75704203,10.13205658,0.38398433,0.64440828,-2.30732425

>  <Name>
ligand

>  <RI>
0

>  <Rbt.Current_Directory>
/home/itssahil/PROJECTS/Mol_Feturizer/New_Systems/rnas/1FUF

>  <Rbt.Executable>
rbdock ($Id: //depot/dev/client3/rdock/2013.1/src/exe/rbdock.cxx#4 $)

>  <Rbt.Library>
libRbt.so (2013.1, Build901 2013/11/27)

>  <Rbt.Parameter_File>
/export/apps/rDock/src/rDock_2013.1_src/data/scripts/dock_solv.prm

>  <Rbt.Receptor>
prm/pocket_docking_4.prm

>  <SCORE>
-6.71886

>  <SCORE.INTER>
-2.93952

>  <SCORE.INTER.CONST>
1

>  <SCORE.INTER.POLAR>
0

>  <SCORE.INTER.ROT>
11

>  <SCORE.INTER.SOLV>
15.8055

>  <SCORE.INTER.VDW>
-18.1615

>  <SCORE.INTER.norm>
-0.209965

>  <SCORE.INTRA>
-3.77934

>  <SCORE.INTRA.DIHEDRAL>
-8.45147

>  <SCORE.INTRA.DIHEDRAL.0>
10.5765

>  <SCORE.INTRA.POLAR>
0

>  <SCORE.INTRA.POLAR.0>
0

>  <SCORE.INTRA.REPUL>
0

>  <SCORE.INTRA.REPUL.0>
0

>  <SCORE.INTRA.SOLV>
0.642146

>  <SCORE.INTRA.SOLV.lig_0>
-50.1861

>  <SCORE.INTRA.VDW>
0.12532

>  <SCORE.INTRA.VDW.0>
-1.36671

>  <SCORE.INTRA.norm>
-0.269953

>  <SCORE.RESTR>
0

>  <SCORE.RESTR.CAVITY>
0

>  <SCORE.RESTR.norm>
0

>  <SCORE.SYSTEM>
0

>  <SCORE.SYSTEM.CONST>
0

>  <SCORE.SYSTEM.DIHEDRAL>
0

>  <SCORE.SYSTEM.SOLV>
0

>  <SCORE.SYSTEM.norm>
0

>  <SCORE.heavy>
14

>  <SCORE.norm>
-0.479919

>  <RMSD>
1.712

$$$$
ligand
 OpenBabel11021811393D
libRbt.so/2013.1/901 2013/11/27
 14 13  0  0  0  0  0  0  0  0999 V2000
   -5.5019    1.5549    9.1977 N   0  0  0  0  0  0  0  0  0  0  0  0
   -4.3967    1.0968   10.1499 C   0  0  0  0  0  0  0  0  0  0  0  0
   -3.1825    1.8474    9.7390 C   0  0  0  0  0  0  0  0  0  0  0  0
   -1.9430    1.5440   10.5650 C   0  0  0  0  0  0  0  0  0  0  0  0
   -1.5339    0.1309   10.3458 N   0  0  0  0  0  0  0  0  0  0  0  0
   -0.1951   -0.1294   11.0598 C   0  0  0  0  0  0  0  0  0  0  0  0
    0.1760   -1.6032   10.5479 C   0  0  0  0  0  0  0  0  0  0  0  0
    1.2864   -1.9951   11.1239 C   0  0  0  0  0  0  0  0  0  0  0  0
    1.3440   -3.4815   10.4391 C   0  0  0  0  0  0  0  0  0  0  0  0
    2.5618   -4.0468   11.2447 N   0  0  0  0  0  0  0  0  0  0  0  0
    2.9553   -5.5235   10.8402 C   0  0  0  0  0  0  0  0  0  0  0  0
    3.9523   -5.3864    9.5537 C   0  0  0  0  0  0  0  0  0  0  0  0
    4.2246   -6.8103    9.1647 C   0  0  0  0  0  0  0  0  0  0  0  0
    5.2450   -6.7316    8.0536 N   0  0  0  0  0  0  0  0  0  0  0  0
  1  2  1  0  0  0  0
  2  3  1  0  0  0  0
  3  4  1  0  0  0  0
  4  5  1  0  0  0  0
  5  6  1  0  0  0  0
  6  7  1  0  0  0  0
  7  8  1  0  0  0  0
  8  9  1  0  0  0  0
  9 10  1  0  0  0  0
 10 11  1  0  0  0  0
 11 12  1  0  0  0  0
 12 13  1  0  0  0  0
 13 14  1  0  0  0  0
M  END
>  <CHROM.1>
179.93670971,65.67938652,173.86300059,-172.42421311,-177.37423484,178.55940956
-173.21309544,-179.33741676,85.40272204,-176.70819083,-175.01050917,0.35665446
-2.10948022,10.14481863,2.63052639,-0.59991095,0.85118180

>  <Name>
ligand

>  <RI>
0

>  <Rbt.Current_Directory>
/home/itssahil/PROJECTS/Mol_Feturizer/New_Systems/rnas/1FUF

>  <Rbt.Executable>
rbdock ($Id: //depot/dev/client3/rdock/2013.1/src/exe/rbdock.cxx#4 $)

>  <Rbt.Library>
libRbt.so (2013.1, Build901 2013/11/27)

>  <Rbt.Parameter_File>
/export/apps/rDock/src/rDock_2013.1_src/data/scripts/dock_solv.prm

>  <Rbt.Receptor>
prm/blind_docking_20.prm

>  <SCORE>
-6.96739

>  <SCORE.INTER>
-2.4129

>  <SCORE.INTER.CONST>
1

>  <SCORE.INTER.POLAR>
0

>  <SCORE.INTER.ROT>
11

>  <SCORE.INTER.SOLV>
15.0734

>  <SCORE.INTER.VDW>
-17.5664

>  <SCORE.INTER.norm>
-0.17235

>  <SCORE.INTRA>
-4.55449

>  <SCORE.INTRA.DIHEDRAL>
-9.57896

>  <SCORE.INTRA.DIHEDRAL.0>
10.5765

>  <SCORE.INTRA.POLAR>
0

>  <SCORE.INTRA.POLAR.0>
0

>  <SCORE.INTRA.REPUL>
0

>  <SCORE.INTRA.REPUL.0>
0

>  <SCORE.INTRA.SOLV>
0.199573

>  <SCORE.INTRA.SOLV.lig_0>
-50.1861

>  <SCORE.INTRA.VDW>
0.135199

>  <SCORE.INTRA.VDW.0>
-1.36671

>  <SCORE.INTRA.norm>
-0.325321

>  <SCORE.RESTR>
0

>  <SCORE.RESTR.CAVITY>
0

>  <SCORE.RESTR.norm>
0

>  <SCORE.SYSTEM>
0

>  <SCORE.SYSTEM.CONST>
0

>  <SCORE.SYSTEM.DIHEDRAL>
0

>  <SCORE.SYSTEM.SOLV>
0

>  <SCORE.SYSTEM.norm>
0

>  <SCORE.heavy>
14

>  <SCORE.norm>
-0.497671

>  <RMSD>
1.716

$$$$
ligand
 OpenBabel11021811393D
libRbt.so/2013.1/901 2013/11/27
 14 13  0  0  0  0  0  0  0  0999 V2000
    5.2664   -5.5742    9.0320 N   0  0  0  0  0  0  0  0  0  0  0  0
    5.2005   -5.3858   10.5480 C   0  0  0  0  0  0  0  0  0  0  0  0
    3.9428   -6.0501   10.9762 C   0  0  0  0  0  0  0  0  0  0  0  0
    2.6734   -5.3882   10.4651 C   0  0  0  0  0  0  0  0  0  0  0  0
    2.6086   -3.9880   10.9627 N   0  0  0  0  0  0  0  0  0  0  0  0
    1.3711   -3.2920   10.3679 C   0  0  0  0  0  0  0  0  0  0  0  0
    1.6656   -1.7497   10.6946 C   0  0  0  0  0  0  0  0  0  0  0  0
    0.6857   -1.0136   10.2293 C   0  0  0  0  0  0  0  0  0  0  0  0
   -0.2638   -1.0934   11.5612 C   0  0  0  0  0  0  0  0  0  0  0  0
   -1.6517   -0.9578   10.8493 N   0  0  0  0  0  0  0  0  0  0  0  0
   -2.0295    0.5325   10.4816 C   0  0  0  0  0  0  0  0  0  0  0  0
   -3.5898    0.4947   10.0001 C   0  0  0  0  0  0  0  0  0  0  0  0
   -3.9109    1.9358    9.7292 C   0  0  0  0  0  0  0  0  0  0  0  0
   -5.3796    1.9573    9.3768 N   0  0  0  0  0  0  0  0  0  0  0  0
  1  2  1  0  0  0  0
  2  3  1  0  0  0  0
  3  4  1  0  0  0  0
  4  5  1  0  0  0  0
  5  6  1  0  0  0  0
  6  7  1  0  0  0  0
  7  8  1  0  0  0  0
  8  9  1  0  0  0  0
  9 10  1  0  0  0  0
 10 11  1  0  0  0  0
 11 12  1  0  0  0  0
 12 13  1  0  0  0  0
 13 14  1  0  0  0  0
M  END
>  <CHROM.1>
-66.13319317,-60.18090947,176.27369298,-166.25698879,179.41687155,88.38315018
-150.53848765,-80.33359572,-170.35147857,177.37605442,-175.98530376,0.47072833
-2.11231650,10.37684077,-0.66549329,0.20147933,-0.30296681

>  <Name>
ligand

>  <RI>
0

>  <Rbt.Current_Directory>
/home/itssahil/PROJECTS/Mol_Feturizer/New_Systems/rnas/1FUF

>  <Rbt.Executable>
rbdock ($Id: //depot/dev/client3/rdock/2013.1/src/exe/rbdock.cxx#4 $)

>  <Rbt.Library>
libRbt.so (2013.1, Build901 2013/11/27)

>  <Rbt.Parameter_File>
/export/apps/rDock/src/rDock_2013.1_src/data/scripts/dock_solv.prm

>  <Rbt.Receptor>
prm/blind_docking_80.prm

>  <SCORE>
-1.33859

>  <SCORE.INTER>
-1.95063

>  <SCORE.INTER.CONST>
1

>  <SCORE.INTER.POLAR>
0

>  <SCORE.INTER.ROT>
11

>  <SCORE.INTER.SOLV>
16.3943

>  <SCORE.INTER.VDW>
-17.6985

>  <SCORE.INTER.norm>
-0.13933

>  <SCORE.INTRA>
0.612038

>  <SCORE.INTRA.DIHEDRAL>
-4.31954

>  <SCORE.INTRA.DIHEDRAL.0>
10.5765

>  <SCORE.INTRA.POLAR>
0

>  <SCORE.INTRA.POLAR.0>
0

>  <SCORE.INTRA.REPUL>
0

>  <SCORE.INTRA.REPUL.0>
0

>  <SCORE.INTRA.SOLV>
2.22305

>  <SCORE.INTRA.SOLV.lig_0>
-50.1861

>  <SCORE.INTRA.VDW>
1.66029

>  <SCORE.INTRA.VDW.0>
-1.36671

>  <SCORE.INTRA.norm>
0.043717

>  <SCORE.RESTR>
0

>  <SCORE.RESTR.CAVITY>
0

>  <SCORE.RESTR.norm>
0

>  <SCORE.SYSTEM>
0

>  <SCORE.SYSTEM.CONST>
0

>  <SCORE.SYSTEM.DIHEDRAL>
0

>  <SCORE.SYSTEM.SOLV>
0

>  <SCORE.SYSTEM.norm>
0

>  <SCORE.heavy>
14

>  <SCORE.norm>
-0.0956135

>  <RMSD>
1.717

$$$$
ligand
 OpenBabel11021811393D
libRbt.so/2013.1/901 2013/11/27
 14 13  0  0  0  0  0  0  0  0999 V2000
   -3.4292    2.0461    7.8949 N   0  0  0  0  0  0  0  0  0  0  0  0
   -3.9621    1.0175    8.8929 C   0  0  0  0  0  0  0  0  0  0  0  0
   -3.5380    1.5054   10.2303 C   0  0  0  0  0  0  0  0  0  0  0  0
   -2.0381    1.4602   10.4725 C   0  0  0  0  0  0  0  0  0  0  0  0
   -1.5758    0.0465   10.4625 N   0  0  0  0  0  0  0  0  0  0  0  0
   -0.0386    0.0118   10.5379 C   0  0  0  0  0  0  0  0  0  0  0  0
    0.2607   -1.5637   10.5372 C   0  0  0  0  0  0  0  0  0  0  0  0
    1.5551   -1.7588   10.6081 C   0  0  0  0  0  0  0  0  0  0  0  0
    1.5066   -3.3945   10.5473 C   0  0  0  0  0  0  0  0  0  0  0  0
    3.0442   -3.6639   10.6675 N   0  0  0  0  0  0  0  0  0  0  0  0
    3.4071   -5.1956   10.8140 C   0  0  0  0  0  0  0  0  0  0  0  0
    5.0309   -5.2890   10.6636 C   0  0  0  0  0  0  0  0  0  0  0  0
    5.2699   -4.9764    9.2150 C   0  0  0  0  0  0  0  0  0  0  0  0
    4.7781   -6.1884    8.4594 N   0  0  0  0  0  0  0  0  0  0  0  0
  1  2  1  0  0  0  0
  2  3  1  0  0  0  0
  3  4  1  0  0  0  0
  4  5  1  0  0  0  0
  5  6  1  0  0  0  0
  6  7  1  0  0  0  0
  7  8  1  0  0  0  0
  8  9  1  0  0  0  0
  9 10  1  0  0  0  0
 10 11  1  0  0  0  0
 11 12  1  0  0  0  0
 12 13  1  0  0  0  0
 13 14  1  0  0  0  0
M  END
>  <CHROM.1>
-67.81755538,-64.57337411,173.24185661,179.22817043,-179.58221364,-178.59903045
-178.62242087,173.33263225,170.44540791,-70.01612923,-71.74200367,0.73363899
-1.85302627,10.00048278,3.01731760,-0.71374856,1.32458693

>  <Name>
ligand

>  <RI>
0

>  <Rbt.Current_Directory>
/home/itssahil/PROJECTS/Mol_Feturizer/New_Systems/rnas/1FUF

>  <Rbt.Executable>
rbdock ($Id: //depot/dev/client3/rdock/2013.1/src/exe/rbdock.cxx#4 $)

>  <Rbt.Library>
libRbt.so (2013.1, Build901 2013/11/27)

>  <Rbt.Parameter_File>
/export/apps/rDock/src/rDock_2013.1_src/data/scripts/dock_solv.prm

>  <Rbt.Receptor>
prm/pocket_docking_5.prm

>  <SCORE>
-4.36679

>  <SCORE.INTER>
-1.98979

>  <SCORE.INTER.CONST>
1

>  <SCORE.INTER.POLAR>
0

>  <SCORE.INTER.ROT>
11

>  <SCORE.INTER.SOLV>
15.7773

>  <SCORE.INTER.VDW>
-17.519

>  <SCORE.INTER.norm>
-0.142128

>  <SCORE.INTRA>
-2.377

>  <SCORE.INTRA.DIHEDRAL>
-9.22992

>  <SCORE.INTRA.DIHEDRAL.0>
10.5765

>  <SCORE.INTRA.POLAR>
0

>  <SCORE.INTRA.POLAR.0>
0

>  <SCORE.INTRA.REPUL>
0

>  <SCORE.INTRA.REPUL.0>
0

>  <SCORE.INTRA.SOLV>
3.36588

>  <SCORE.INTRA.SOLV.lig_0>
-50.1861

>  <SCORE.INTRA.VDW>
0.555022

>  <SCORE.INTRA.VDW.0>
-1.36671

>  <SCORE.INTRA.norm>
-0.169786

>  <SCORE.RESTR>
0

>  <SCORE.RESTR.CAVITY>
0

>  <SCORE.RESTR.norm>
0

>  <SCORE.SYSTEM>
0

>  <SCORE.SYSTEM.CONST>
0

>  <SCORE.SYSTEM.DIHEDRAL>
0

>  <SCORE.SYSTEM.SOLV>
0

>  <SCORE.SYSTEM.norm>
0

>  <SCORE.heavy>
14

>  <SCORE.norm>
-0.311914

>  <RMSD>
1.717

$$$$
ligand
 OpenBabel11021811393D
libRbt.so/2013.1/901 2013/11/27
 14 13  0  0  0  0  0  0  0  0999 V2000
   -6.6552    2.8635    8.6351 N   0  0  0  0  0  0  0  0  0  0  0  0
   -5.2120    3.1663    8.2305 C   0  0  0  0  0  0  0  0  0  0  0  0
   -4.4071    2.0326    8.7533 C   0  0  0  0  0  0  0  0  0  0  0  0
   -2.9195    2.1236    8.4542 C   0  0  0  0  0  0  0  0  0  0  0  0
   -2.2353    0.9049    8.9631 N   0  0  0  0  0  0  0  0  0  0  0  0
   -1.8717    1.1053   10.4455 C   0  0  0  0  0  0  0  0  0  0  0  0
   -1.0540   -0.2348   10.7733 C   0  0  0  0  0  0  0  0  0  0  0  0
    0.1083   -0.1919   10.1685 C   0  0  0  0  0  0  0  0  0  0  0  0
    0.6829   -1.6086   10.7556 C   0  0  0  0  0  0  0  0  0  0  0  0
    2.1358   -1.5109   10.1805 N   0  0  0  0  0  0  0  0  0  0  0  0
    3.1270   -2.5844   10.7841 C   0  0  0  0  0  0  0  0  0  0  0  0
    3.0560   -3.8739    9.7840 C   0  0  0  0  0  0  0  0  0  0  0  0
    3.9383   -4.8879   10.4521 C   0  0  0  0  0  0  0  0  0  0  0  0
    3.9866   -6.0615    9.5022 N   0  0  0  0  0  0  0  0  0  0  0  0
  1  2  1  0  0  0  0
  2  3  1  0  0  0  0
  3  4  1  0  0  0  0
  4  5  1  0  0  0  0
  5  6  1  0  0  0  0
  6  7  1  0  0  0  0
  7  8  1  0  0  0  0
  8  9  1  0  0  0  0
  9 10  1  0  0  0  0
 10 11  1  0  0  0  0
 11 12  1  0  0  0  0
 12 13  1  0  0  0  0
 13 14  1  0  0  0  0
M  END
>  <CHROM.1>
179.67462872,-177.08801116,-86.05330328,-175.61256660,71.06321230,177.29743280
-173.95735755,168.13696014,91.65538701,-176.31575983,-175.70585061,-0.52277015
-0.62539883,9.70603376,2.68659898,-0.54913277,0.60355530

>  <Name>
ligand

>  <RI>
0

>  <Rbt.Current_Directory>
/home/itssahil/PROJECTS/Mol_Feturizer/New_Systems/rnas/1FUF

>  <Rbt.Executable>
rbdock ($Id: //depot/dev/client3/rdock/2013.1/src/exe/rbdock.cxx#4 $)

>  <Rbt.Library>
libRbt.so (2013.1, Build901 2013/11/27)

>  <Rbt.Parameter_File>
/export/apps/rDock/src/rDock_2013.1_src/data/scripts/dock_solv.prm

>  <Rbt.Receptor>
prm/pocket_docking_8.prm

>  <SCORE>
-5.37643

>  <SCORE.INTER>
-1.96301

>  <SCORE.INTER.CONST>
1

>  <SCORE.INTER.POLAR>
0

>  <SCORE.INTER.ROT>
11

>  <SCORE.INTER.SOLV>
16.1426

>  <SCORE.INTER.VDW>
-17.6229

>  <SCORE.INTER.norm>
-0.140215

>  <SCORE.INTRA>
-3.41342

>  <SCORE.INTRA.DIHEDRAL>
-8.54888

>  <SCORE.INTRA.DIHEDRAL.0>
10.5765

>  <SCORE.INTRA.POLAR>
0

>  <SCORE.INTRA.POLAR.0>
0

>  <SCORE.INTRA.REPUL>
0

>  <SCORE.INTRA.REPUL.0>
0

>  <SCORE.INTRA.SOLV>
0.285843

>  <SCORE.INTRA.SOLV.lig_0>
-50.1861

>  <SCORE.INTRA.VDW>
0.718096

>  <SCORE.INTRA.VDW.0>
-1.36671

>  <SCORE.INTRA.norm>
-0.243816

>  <SCORE.RESTR>
0

>  <SCORE.RESTR.CAVITY>
0

>  <SCORE.RESTR.norm>
0

>  <SCORE.SYSTEM>
0

>  <SCORE.SYSTEM.CONST>
0

>  <SCORE.SYSTEM.DIHEDRAL>
0

>  <SCORE.SYSTEM.SOLV>
0

>  <SCORE.SYSTEM.norm>
0

>  <SCORE.heavy>
14

>  <SCORE.norm>
-0.384031

>  <RMSD>
1.720

$$$$
ligand
 OpenBabel11021811393D
libRbt.so/2013.1/901 2013/11/27
 14 13  0  0  0  0  0  0  0  0999 V2000
    4.3810   -6.4522    8.6200 N   0  0  0  0  0  0  0  0  0  0  0  0
    4.4425   -6.7132   10.1253 C   0  0  0  0  0  0  0  0  0  0  0  0
    3.5392   -5.7068   10.7399 C   0  0  0  0  0  0  0  0  0  0  0  0
    4.0170   -4.2693   10.6143 C   0  0  0  0  0  0  0  0  0  0  0  0
    3.0865   -3.3708   11.3486 N   0  0  0  0  0  0  0  0  0  0  0  0
    2.7243   -2.1708   10.4549 C   0  0  0  0  0  0  0  0  0  0  0  0
    1.2437   -1.8142   10.9577 C   0  0  0  0  0  0  0  0  0  0  0  0
    0.7725   -0.8193   10.2460 C   0  0  0  0  0  0  0  0  0  0  0  0
   -0.7038   -0.7602   10.9522 C   0  0  0  0  0  0  0  0  0  0  0  0
   -1.3243    0.3734   10.0682 N   0  0  0  0  0  0  0  0  0  0  0  0
   -2.8693    0.5953   10.3193 C   0  0  0  0  0  0  0  0  0  0  0  0
   -3.3936    1.5355    9.0909 C   0  0  0  0  0  0  0  0  0  0  0  0
   -4.8518    1.7276    9.3907 C   0  0  0  0  0  0  0  0  0  0  0  0
   -5.3833    2.5740    8.2581 N   0  0  0  0  0  0  0  0  0  0  0  0
  1  2  1  0  0  0  0
  2  3  1  0  0  0  0
  3  4  1  0  0  0  0
  4  5  1  0  0  0  0
  5  6  1  0  0  0  0
  6  7  1  0  0  0  0
  7  8  1  0  0  0  0
  8  9  1  0  0  0  0
  9 10  1  0  0  0  0
 10 11  1  0  0  0  0
 11 12  1  0  0  0  0
 12 13  1  0  0  0  0
 13 14  1  0  0  0  0
M  END
>  <CHROM.1>
-67.09765144,-175.91880199,-132.47258881,149.80443948,-177.90446653,177.95136957
-177.09460597,171.87930528,-166.96428850,-179.22744472,-178.93002881,0.40583427
-1.80510799,10.08492441,0.45727166,0.58383409,-2.42568212

>  <Name>
ligand

>  <RI>
0

>  <Rbt.Current_Directory>
/home/itssahil/PROJECTS/Mol_Feturizer/New_Systems/rnas/1FUF

>  <Rbt.Executable>
rbdock ($Id: //depot/dev/client3/rdock/2013.1/src/exe/rbdock.cxx#4 $)

>  <Rbt.Library>
libRbt.so (2013.1, Build901 2013/11/27)

>  <Rbt.Parameter_File>
/export/apps/rDock/src/rDock_2013.1_src/data/scripts/dock_solv.prm

>  <Rbt.Receptor>
prm/pocket_docking_3.prm

>  <SCORE>
-6.44388

>  <SCORE.INTER>
-2.70662

>  <SCORE.INTER.CONST>
1

>  <SCORE.INTER.POLAR>
0

>  <SCORE.INTER.ROT>
11

>  <SCORE.INTER.SOLV>
15.9732

>  <SCORE.INTER.VDW>
-18.0621

>  <SCORE.INTER.norm>
-0.19333

>  <SCORE.INTRA>
-3.73725

>  <SCORE.INTRA.DIHEDRAL>
-8.38211

>  <SCORE.INTRA.DIHEDRAL.0>
10.5765

>  <SCORE.INTRA.POLAR>
0

>  <SCORE.INTRA.POLAR.0>
0

>  <SCORE.INTRA.REPUL>
0

>  <SCORE.INTRA.REPUL.0>
0

>  <SCORE.INTRA.SOLV>
0.663645

>  <SCORE.INTRA.SOLV.lig_0>
-50.1861

>  <SCORE.INTRA.VDW>
0.121984

>  <SCORE.INTRA.VDW.0>
-1.36671

>  <SCORE.INTRA.norm>
-0.266946

>  <SCORE.RESTR>
0

>  <SCORE.RESTR.CAVITY>
0

>  <SCORE.RESTR.norm>
0

>  <SCORE.SYSTEM>
0

>  <SCORE.SYSTEM.CONST>
0

>  <SCORE.SYSTEM.DIHEDRAL>
0

>  <SCORE.SYSTEM.SOLV>
0

>  <SCORE.SYSTEM.norm>
0

>  <SCORE.heavy>
14

>  <SCORE.norm>
-0.460277

>  <RMSD>
1.724

$$$$
ligand
 OpenBabel11021811393D
libRbt.so/2013.1/901 2013/11/27
 14 13  0  0  0  0  0  0  0  0999 V2000
   -4.9779    1.3618    9.0253 N   0  0  0  0  0  0  0  0  0  0  0  0
   -3.4720    1.0970    9.0453 C   0  0  0  0  0  0  0  0  0  0  0  0
   -3.0389    1.3735   10.4391 C   0  0  0  0  0  0  0  0  0  0  0  0
   -1.5463    1.2158   10.6795 C   0  0  0  0  0  0  0  0  0  0  0  0
   -1.1636   -0.2111   10.5069 N   0  0  0  0  0  0  0  0  0  0  0  0
    0.3649   -0.3477   10.6282 C   0  0  0  0  0  0  0  0  0  0  0  0
    0.5595   -1.9396   10.6286 C   0  0  0  0  0  0  0  0  0  0  0  0
    1.8399   -2.2195   10.6536 C   0  0  0  0  0  0  0  0  0  0  0  0
    1.6814   -3.8487   10.6060 C   0  0  0  0  0  0  0  0  0  0  0  0
    3.2020   -4.2148   10.5329 N   0  0  0  0  0  0  0  0  0  0  0  0
    3.7582   -4.3090    9.0561 C   0  0  0  0  0  0  0  0  0  0  0  0
    5.1623   -5.1374    9.1569 C   0  0  0  0  0  0  0  0  0  0  0  0
    5.6277   -5.2180    7.7321 C   0  0  0  0  0  0  0  0  0  0  0  0
    6.9178   -6.0026    7.7782 N   0  0  0  0  0  0  0  0  0  0  0  0
  1  2  1  0  0  0  0
  2  3  1  0  0  0  0
  3  4  1  0  0  0  0
  4  5  1  0  0  0  0
  5  6  1  0  0  0  0
  6  7  1  0  0  0  0
  7  8  1  0  0  0  0
  8  9  1  0  0  0  0
  9 10  1  0  0  0  0
 10 11  1  0  0  0  0
 11 12  1  0  0  0  0
 12 13  1  0  0  0  0
 13 14  1  0  0  0  0
M  END
>  <CHROM.1>
-178.07283667,-65.82692423,175.04534843,172.25647821,176.53715092,-178.56033847
176.23317407,-89.77996591,-162.50681045,178.95786870,-178.99790193,1.06538235
-2.02850481,9.74790368,2.95632154,-0.62969569,1.45005946

>  <Name>
ligand

>  <RI>
0

>  <Rbt.Current_Directory>
/home/itssahil/PROJECTS/Mol_Feturizer/New_Systems/rnas/1FUF

>  <Rbt.Executable>
rbdock ($Id: //depot/dev/client3/rdock/2013.1/src/exe/rbdock.cxx#4 $)

>  <Rbt.Library>
libRbt.so (2013.1, Build901 2013/11/27)

>  <Rbt.Parameter_File>
/export/apps/rDock/src/rDock_2013.1_src/data/scripts/dock_solv.prm

>  <Rbt.Receptor>
prm/pocket_docking_3.prm

>  <SCORE>
-5.2612

>  <SCORE.INTER>
-0.860008

>  <SCORE.INTER.CONST>
1

>  <SCORE.INTER.POLAR>
0

>  <SCORE.INTER.ROT>
11

>  <SCORE.INTER.SOLV>
14.9329

>  <SCORE.INTER.VDW>
-16.4843

>  <SCORE.INTER.norm>
-0.0614291

>  <SCORE.INTRA>
-4.40119

>  <SCORE.INTRA.DIHEDRAL>
-9.42324

>  <SCORE.INTRA.DIHEDRAL.0>
10.5765

>  <SCORE.INTRA.POLAR>
0

>  <SCORE.INTRA.POLAR.0>
0

>  <SCORE.INTRA.REPUL>
0

>  <SCORE.INTRA.REPUL.0>
0

>  <SCORE.INTRA.SOLV>
0.178442

>  <SCORE.INTRA.SOLV.lig_0>
-50.1861

>  <SCORE.INTRA.VDW>
0.221205

>  <SCORE.INTRA.VDW.0>
-1.36671

>  <SCORE.INTRA.norm>
-0.314371

>  <SCORE.RESTR>
0

>  <SCORE.RESTR.CAVITY>
0

>  <SCORE.RESTR.norm>
0

>  <SCORE.SYSTEM>
0

>  <SCORE.SYSTEM.CONST>
0

>  <SCORE.SYSTEM.DIHEDRAL>
0

>  <SCORE.SYSTEM.SOLV>
0

>  <SCORE.SYSTEM.norm>
0

>  <SCORE.heavy>
14

>  <SCORE.norm>
-0.3758

>  <RMSD>
1.725

$$$$
ligand
 OpenBabel11021811393D
libRbt.so/2013.1/901 2013/11/27
 14 13  0  0  0  0  0  0  0  0999 V2000
    4.7344   -6.1552    8.5151 N   0  0  0  0  0  0  0  0  0  0  0  0
    3.7225   -6.4940    9.6102 C   0  0  0  0  0  0  0  0  0  0  0  0
    4.1969   -5.7804   10.8236 C   0  0  0  0  0  0  0  0  0  0  0  0
    4.0300   -4.2703   10.7737 C   0  0  0  0  0  0  0  0  0  0  0  0
    2.5820   -3.9304   10.7780 N   0  0  0  0  0  0  0  0  0  0  0  0
    2.4063   -2.4419   10.4271 C   0  0  0  0  0  0  0  0  0  0  0  0
    0.8669   -2.1900   10.7996 C   0  0  0  0  0  0  0  0  0  0  0  0
    0.5575   -0.9423   10.5424 C   0  0  0  0  0  0  0  0  0  0  0  0
   -0.9976   -1.0214   11.0493 C   0  0  0  0  0  0  0  0  0  0  0  0
   -1.4042    0.4587   10.7406 N   0  0  0  0  0  0  0  0  0  0  0  0
   -1.8365    0.6943    9.2384 C   0  0  0  0  0  0  0  0  0  0  0  0
   -3.4644    0.5629    9.2134 C   0  0  0  0  0  0  0  0  0  0  0  0
   -3.9313    1.8349    9.8594 C   0  0  0  0  0  0  0  0  0  0  0  0
   -5.4394    1.7884    9.7868 N   0  0  0  0  0  0  0  0  0  0  0  0
  1  2  1  0  0  0  0
  2  3  1  0  0  0  0
  3  4  1  0  0  0  0
  4  5  1  0  0  0  0
  5  6  1  0  0  0  0
  6  7  1  0  0  0  0
  7  8  1  0  0  0  0
  8  9  1  0  0  0  0
  9 10  1  0  0  0  0
 10 11  1  0  0  0  0
 11 12  1  0  0  0  0
 12 13  1  0  0  0  0
 13 14  1  0  0  0  0
M  END
>  <CHROM.1>
71.24021118,66.82253959,-168.00734163,-167.81212756,-179.59806975,-178.75443078
-179.45708575,83.83107877,94.94532176,73.69668230,176.93622531,0.43034269
-1.99193625,10.15419397,0.45862446,0.57438651,-2.33514293

>  <Name>
ligand

>  <RI>
0

>  <Rbt.Current_Directory>
/home/itssahil/PROJECTS/Mol_Feturizer/New_Systems/rnas/1FUF

>  <Rbt.Executable>
rbdock ($Id: //depot/dev/client3/rdock/2013.1/src/exe/rbdock.cxx#4 $)

>  <Rbt.Library>
libRbt.so (2013.1, Build901 2013/11/27)

>  <Rbt.Parameter_File>
/export/apps/rDock/src/rDock_2013.1_src/data/scripts/dock_solv.prm

>  <Rbt.Receptor>
prm/blind_docking_100.prm

>  <SCORE>
-5.28134

>  <SCORE.INTER>
-2.79036

>  <SCORE.INTER.CONST>
1

>  <SCORE.INTER.POLAR>
0

>  <SCORE.INTER.ROT>
11

>  <SCORE.INTER.SOLV>
15.4473

>  <SCORE.INTER.VDW>
-17.9427

>  <SCORE.INTER.norm>
-0.199312

>  <SCORE.INTRA>
-2.49098

>  <SCORE.INTRA.DIHEDRAL>
-7.81864

>  <SCORE.INTRA.DIHEDRAL.0>
10.5765

>  <SCORE.INTRA.POLAR>
0

>  <SCORE.INTRA.POLAR.0>
0

>  <SCORE.INTRA.REPUL>
0

>  <SCORE.INTRA.REPUL.0>
0

>  <SCORE.INTRA.SOLV>
1.83033

>  <SCORE.INTRA.SOLV.lig_0>
-50.1861

>  <SCORE.INTRA.VDW>
0.503174

>  <SCORE.INTRA.VDW.0>
-1.36671

>  <SCORE.INTRA.norm>
-0.177927

>  <SCORE.RESTR>
0

>  <SCORE.RESTR.CAVITY>
0

>  <SCORE.RESTR.norm>
0

>  <SCORE.SYSTEM>
0

>  <SCORE.SYSTEM.CONST>
0

>  <SCORE.SYSTEM.DIHEDRAL>
0

>  <SCORE.SYSTEM.SOLV>
0

>  <SCORE.SYSTEM.norm>
0

>  <SCORE.heavy>
14

>  <SCORE.norm>
-0.377239

>  <RMSD>
1.726

$$$$
ligand
 OpenBabel11021811393D
libRbt.so/2013.1/901 2013/11/27
 14 13  0  0  0  0  0  0  0  0999 V2000
   -5.1095    2.6663    8.1969 N   0  0  0  0  0  0  0  0  0  0  0  0
   -4.5363    2.1730    9.5259 C   0  0  0  0  0  0  0  0  0  0  0  0
   -3.2562    1.5026    9.1816 C   0  0  0  0  0  0  0  0  0  0  0  0
   -2.5337    0.8762   10.3632 C   0  0  0  0  0  0  0  0  0  0  0  0
   -1.2486    0.2855    9.9031 N   0  0  0  0  0  0  0  0  0  0  0  0
   -0.6146   -0.5166   11.0540 C   0  0  0  0  0  0  0  0  0  0  0  0
    0.7025   -1.1130   10.3601 C   0  0  0  0  0  0  0  0  0  0  0  0
    1.3232   -1.8953   11.2095 C   0  0  0  0  0  0  0  0  0  0  0  0
    2.5339   -2.3483   10.2042 C   0  0  0  0  0  0  0  0  0  0  0  0
    3.2196   -3.3952   11.1449 N   0  0  0  0  0  0  0  0  0  0  0  0
    4.4269   -4.1578   10.4666 C   0  0  0  0  0  0  0  0  0  0  0  0
    3.7657   -5.4050    9.6449 C   0  0  0  0  0  0  0  0  0  0  0  0
    4.9520   -6.0978    9.0400 C   0  0  0  0  0  0  0  0  0  0  0  0
    4.3790   -7.2447    8.2411 N   0  0  0  0  0  0  0  0  0  0  0  0
  1  2  1  0  0  0  0
  2  3  1  0  0  0  0
  3  4  1  0  0  0  0
  4  5  1  0  0  0  0
  5  6  1  0  0  0  0
  6  7  1  0  0  0  0
  7  8  1  0  0  0  0
  8  9  1  0  0  0  0
  9 10  1  0  0  0  0
 10 11  1  0  0  0  0
 11 12  1  0  0  0  0
 12 13  1  0  0  0  0
 13 14  1  0  0  0  0
M  END
>  <CHROM.1>
-177.52125927,-177.83916360,-172.12431473,177.80433919,-176.50089809,178.31323672
-174.78838548,175.97392595,-84.87079506,-179.32890133,-178.72354032,0.57181977
-1.76210056,9.89563813,2.71995257,-0.62109211,0.88829833

>  <Name>
ligand

>  <RI>
0

>  <Rbt.Current_Directory>
/home/itssahil/PROJECTS/Mol_Feturizer/New_Systems/rnas/1FUF

>  <Rbt.Executable>
rbdock ($Id: //depot/dev/client3/rdock/2013.1/src/exe/rbdock.cxx#4 $)

>  <Rbt.Library>
libRbt.so (2013.1, Build901 2013/11/27)

>  <Rbt.Parameter_File>
/export/apps/rDock/src/rDock_2013.1_src/data/scripts/dock_solv.prm

>  <Rbt.Receptor>
prm/pocket_docking_4.prm

>  <SCORE>
-6.19497

>  <SCORE.INTER>
-1.2829

>  <SCORE.INTER.CONST>
1

>  <SCORE.INTER.POLAR>
0

>  <SCORE.INTER.ROT>
11

>  <SCORE.INTER.SOLV>
17.7002

>  <SCORE.INTER.VDW>
-17.6887

>  <SCORE.INTER.norm>
-0.0916357

>  <SCORE.INTRA>
-4.91207

>  <SCORE.INTRA.DIHEDRAL>
-9.85917

>  <SCORE.INTRA.DIHEDRAL.0>
10.5765

>  <SCORE.INTRA.POLAR>
0

>  <SCORE.INTRA.POLAR.0>
0

>  <SCORE.INTRA.REPUL>
0

>  <SCORE.INTRA.REPUL.0>
0

>  <SCORE.INTRA.SOLV>
-0.1504

>  <SCORE.INTRA.SOLV.lig_0>
-50.1861

>  <SCORE.INTRA.VDW>
0.0927169

>  <SCORE.INTRA.VDW.0>
-1.36671

>  <SCORE.INTRA.norm>
-0.350862

>  <SCORE.RESTR>
0

>  <SCORE.RESTR.CAVITY>
0

>  <SCORE.RESTR.norm>
0

>  <SCORE.SYSTEM>
0

>  <SCORE.SYSTEM.CONST>
0

>  <SCORE.SYSTEM.DIHEDRAL>
0

>  <SCORE.SYSTEM.SOLV>
0

>  <SCORE.SYSTEM.norm>
0

>  <SCORE.heavy>
14

>  <SCORE.norm>
-0.442498

>  <RMSD>
1.728

$$$$
ligand
 OpenBabel11021811393D
libRbt.so/2013.1/901 2013/11/27
 14 13  0  0  0  0  0  0  0  0999 V2000
    5.3143   -7.0351    8.5702 N   0  0  0  0  0  0  0  0  0  0  0  0
    4.9194   -6.1994    9.7882 C   0  0  0  0  0  0  0  0  0  0  0  0
    3.4377   -6.1040    9.7406 C   0  0  0  0  0  0  0  0  0  0  0  0
    2.8263   -5.2277   10.8218 C   0  0  0  0  0  0  0  0  0  0  0  0
    3.3077   -3.8298   10.6591 N   0  0  0  0  0  0  0  0  0  0  0  0
    2.5453   -2.9112   11.6310 C   0  0  0  0  0  0  0  0  0  0  0  0
    1.6546   -2.0304   10.6296 C   0  0  0  0  0  0  0  0  0  0  0  0
    0.7528   -1.3724   11.3168 C   0  0  0  0  0  0  0  0  0  0  0  0
    0.0768   -0.5899   10.0469 C   0  0  0  0  0  0  0  0  0  0  0  0
   -1.1119    0.0831   10.8119 N   0  0  0  0  0  0  0  0  0  0  0  0
   -1.9507    1.0835    9.9203 C   0  0  0  0  0  0  0  0  0  0  0  0
   -3.5188    0.7940   10.2741 C   0  0  0  0  0  0  0  0  0  0  0  0
   -4.2610    1.7858    9.4263 C   0  0  0  0  0  0  0  0  0  0  0  0
   -5.7239    1.4734    9.6362 N   0  0  0  0  0  0  0  0  0  0  0  0
  1  2  1  0  0  0  0
  2  3  1  0  0  0  0
  3  4  1  0  0  0  0
  4  5  1  0  0  0  0
  5  6  1  0  0  0  0
  6  7  1  0  0  0  0
  7  8  1  0  0  0  0
  8  9  1  0  0  0  0
  9 10  1  0  0  0  0
 10 11  1  0  0  0  0
 11 12  1  0  0  0  0
 12 13  1  0  0  0  0
 13 14  1  0  0  0  0
M  END
>  <CHROM.1>
-176.12258873,62.36989999,172.44470953,-111.32882039,167.81888507,178.82035956
173.93116788,173.99900441,137.38984386,178.82738316,175.37460702,0.59067289
-2.14850968,10.23391061,0.55139735,0.49785237,-2.47522685

>  <Name>
ligand

>  <RI>
0

>  <Rbt.Current_Directory>
/home/itssahil/PROJECTS/Mol_Feturizer/New_Systems/rnas/1FUF

>  <Rbt.Executable>
rbdock ($Id: //depot/dev/client3/rdock/2013.1/src/exe/rbdock.cxx#4 $)

>  <Rbt.Library>
libRbt.so (2013.1, Build901 2013/11/27)

>  <Rbt.Parameter_File>
/export/apps/rDock/src/rDock_2013.1_src/data/scripts/dock_solv.prm

>  <Rbt.Receptor>
prm/pocket_docking_3.prm

>  <SCORE>
-5.55214

>  <SCORE.INTER>
-2.00976

>  <SCORE.INTER.CONST>
1

>  <SCORE.INTER.POLAR>
0

>  <SCORE.INTER.ROT>
11

>  <SCORE.INTER.SOLV>
15.3421

>  <SCORE.INTER.VDW>
-17.3872

>  <SCORE.INTER.norm>
-0.143554

>  <SCORE.INTRA>
-3.54238

>  <SCORE.INTRA.DIHEDRAL>
-7.54328

>  <SCORE.INTRA.DIHEDRAL.0>
10.5765

>  <SCORE.INTRA.POLAR>
0

>  <SCORE.INTRA.POLAR.0>
0

>  <SCORE.INTRA.REPUL>
0

>  <SCORE.INTRA.REPUL.0>
0

>  <SCORE.INTRA.SOLV>
0.264299

>  <SCORE.INTRA.SOLV.lig_0>
-50.1861

>  <SCORE.INTRA.VDW>
0.0971121

>  <SCORE.INTRA.VDW.0>
-1.36671

>  <SCORE.INTRA.norm>
-0.253027

>  <SCORE.RESTR>
0

>  <SCORE.RESTR.CAVITY>
0

>  <SCORE.RESTR.norm>
0

>  <SCORE.SYSTEM>
0

>  <SCORE.SYSTEM.CONST>
0

>  <SCORE.SYSTEM.DIHEDRAL>
0

>  <SCORE.SYSTEM.SOLV>
0

>  <SCORE.SYSTEM.norm>
0

>  <SCORE.heavy>
14

>  <SCORE.norm>
-0.396581

>  <RMSD>
1.730

$$$$
ligand
 OpenBabel11021811393D
libRbt.so/2013.1/901 2013/11/27
 14 13  0  0  0  0  0  0  0  0999 V2000
    4.6392   -7.3466    8.3737 N   0  0  0  0  0  0  0  0  0  0  0  0
    4.3679   -5.8805    8.0344 C   0  0  0  0  0  0  0  0  0  0  0  0
    3.8529   -5.2718    9.2878 C   0  0  0  0  0  0  0  0  0  0  0  0
    3.6188   -3.7718    9.2115 C   0  0  0  0  0  0  0  0  0  0  0  0
    3.1286   -3.2783   10.5262 N   0  0  0  0  0  0  0  0  0  0  0  0
    1.5901   -3.2259   10.5102 C   0  0  0  0  0  0  0  0  0  0  0  0
    1.3070   -1.6580   10.6931 C   0  0  0  0  0  0  0  0  0  0  0  0
    0.0141   -1.4443   10.6583 C   0  0  0  0  0  0  0  0  0  0  0  0
    0.0839    0.1836   10.8223 C   0  0  0  0  0  0  0  0  0  0  0  0
   -1.4547    0.4727   10.7952 N   0  0  0  0  0  0  0  0  0  0  0  0
   -2.0075    0.8137    9.3540 C   0  0  0  0  0  0  0  0  0  0  0  0
   -3.4514    1.5409    9.5871 C   0  0  0  0  0  0  0  0  0  0  0  0
   -3.9104    1.8687    8.1961 C   0  0  0  0  0  0  0  0  0  0  0  0
   -5.2441    2.5567    8.3684 N   0  0  0  0  0  0  0  0  0  0  0  0
  1  2  1  0  0  0  0
  2  3  1  0  0  0  0
  3  4  1  0  0  0  0
  4  5  1  0  0  0  0
  5  6  1  0  0  0  0
  6  7  1  0  0  0  0
  7  8  1  0  0  0  0
  8  9  1  0  0  0  0
  9 10  1  0  0  0  0
 10 11  1  0  0  0  0
 11 12  1  0  0  0  0
 12 13  1  0  0  0  0
 13 14  1  0  0  0  0
M  END
>  <CHROM.1>
175.28980948,-179.04001309,-94.99288823,-116.67951548,178.08823258,-178.48787877
-179.59940511,-93.30743289,-162.04812022,178.71370790,-179.53120262,0.46682035
-1.74571880,9.60133589,0.40839164,0.66059594,-2.16373076

>  <Name>
ligand

>  <RI>
0

>  <Rbt.Current_Directory>
/home/itssahil/PROJECTS/Mol_Feturizer/New_Systems/rnas/1FUF

>  <Rbt.Executable>
rbdock ($Id: //depot/dev/client3/rdock/2013.1/src/exe/rbdock.cxx#4 $)

>  <Rbt.Library>
libRbt.so (2013.1, Build901 2013/11/27)

>  <Rbt.Parameter_File>
/export/apps/rDock/src/rDock_2013.1_src/data/scripts/dock_solv.prm

>  <Rbt.Receptor>
prm/blind_docking_60.prm

>  <SCORE>
-5.84964

>  <SCORE.INTER>
-2.30115

>  <SCORE.INTER.CONST>
1

>  <SCORE.INTER.POLAR>
0

>  <SCORE.INTER.ROT>
11

>  <SCORE.INTER.SOLV>
16.7381

>  <SCORE.INTER.VDW>
-18.0468

>  <SCORE.INTER.norm>
-0.164368

>  <SCORE.INTRA>
-3.54849

>  <SCORE.INTRA.DIHEDRAL>
-7.56285

>  <SCORE.INTRA.DIHEDRAL.0>
10.5765

>  <SCORE.INTRA.POLAR>
0

>  <SCORE.INTRA.POLAR.0>
0

>  <SCORE.INTRA.REPUL>
0

>  <SCORE.INTRA.REPUL.0>
0

>  <SCORE.INTRA.SOLV>
-0.144689

>  <SCORE.INTRA.SOLV.lig_0>
-50.1861

>  <SCORE.INTRA.VDW>
0.30528

>  <SCORE.INTRA.VDW.0>
-1.36671

>  <SCORE.INTRA.norm>
-0.253463

>  <SCORE.RESTR>
0

>  <SCORE.RESTR.CAVITY>
0

>  <SCORE.RESTR.norm>
0

>  <SCORE.SYSTEM>
0

>  <SCORE.SYSTEM.CONST>
0

>  <SCORE.SYSTEM.DIHEDRAL>
0

>  <SCORE.SYSTEM.SOLV>
0

>  <SCORE.SYSTEM.norm>
0

>  <SCORE.heavy>
14

>  <SCORE.norm>
-0.417832

>  <RMSD>
1.732

$$$$
ligand
 OpenBabel11021811393D
libRbt.so/2013.1/901 2013/11/27
 14 13  0  0  0  0  0  0  0  0999 V2000
   -5.4138    2.7874    7.6253 N   0  0  0  0  0  0  0  0  0  0  0  0
   -4.7807    2.5564    8.9979 C   0  0  0  0  0  0  0  0  0  0  0  0
   -3.5949    1.6971    8.7486 C   0  0  0  0  0  0  0  0  0  0  0  0
   -2.7993    1.3420    9.9941 C   0  0  0  0  0  0  0  0  0  0  0  0
   -1.6294    0.5057    9.6144 N   0  0  0  0  0  0  0  0  0  0  0  0
   -0.8677    0.0869   10.8849 C   0  0  0  0  0  0  0  0  0  0  0  0
    0.2402   -0.9123   10.2965 C   0  0  0  0  0  0  0  0  0  0  0  0
    0.9724   -1.3752   11.2805 C   0  0  0  0  0  0  0  0  0  0  0  0
    1.9694   -2.2942   10.3623 C   0  0  0  0  0  0  0  0  0  0  0  0
    2.7950   -2.9470   11.5215 N   0  0  0  0  0  0  0  0  0  0  0  0
    3.8158   -4.0481   11.0269 C   0  0  0  0  0  0  0  0  0  0  0  0
    2.9437   -5.4157   10.8353 C   0  0  0  0  0  0  0  0  0  0  0  0
    3.9814   -6.4564   10.5297 C   0  0  0  0  0  0  0  0  0  0  0  0
    4.4799   -6.1265    9.1424 N   0  0  0  0  0  0  0  0  0  0  0  0
  1  2  1  0  0  0  0
  2  3  1  0  0  0  0
  3  4  1  0  0  0  0
  4  5  1  0  0  0  0
  5  6  1  0  0  0  0
  6  7  1  0  0  0  0
  7  8  1  0  0  0  0
  8  9  1  0  0  0  0
  9 10  1  0  0  0  0
 10 11  1  0  0  0  0
 11 12  1  0  0  0  0
 12 13  1  0  0  0  0
 13 14  1  0  0  0  0
M  END
>  <CHROM.1>
179.73739093,-178.92147261,-177.07148645,174.34109399,-179.20203466,-179.02515653
-176.06434396,174.47419451,-81.58064500,-173.41646896,-70.46852487,0.15088815
-1.47143078,10.06169625,2.79287381,-0.69335817,0.83134152

>  <Name>
ligand

>  <RI>
0

>  <Rbt.Current_Directory>
/home/itssahil/PROJECTS/Mol_Feturizer/New_Systems/rnas/1FUF

>  <Rbt.Executable>
rbdock ($Id: //depot/dev/client3/rdock/2013.1/src/exe/rbdock.cxx#4 $)

>  <Rbt.Library>
libRbt.so (2013.1, Build901 2013/11/27)

>  <Rbt.Parameter_File>
/export/apps/rDock/src/rDock_2013.1_src/data/scripts/dock_solv.prm

>  <Rbt.Receptor>
prm/blind_docking_60.prm

>  <SCORE>
-6.57248

>  <SCORE.INTER>
-2.61425

>  <SCORE.INTER.CONST>
1

>  <SCORE.INTER.POLAR>
0

>  <SCORE.INTER.ROT>
11

>  <SCORE.INTER.SOLV>
16.0823

>  <SCORE.INTER.VDW>
-18.0369

>  <SCORE.INTER.norm>
-0.186732

>  <SCORE.INTRA>
-3.95823

>  <SCORE.INTRA.DIHEDRAL>
-9.53821

>  <SCORE.INTRA.DIHEDRAL.0>
10.5765

>  <SCORE.INTRA.POLAR>
0

>  <SCORE.INTRA.POLAR.0>
0

>  <SCORE.INTRA.REPUL>
0

>  <SCORE.INTRA.REPUL.0>
0

>  <SCORE.INTRA.SOLV>
0.746927

>  <SCORE.INTRA.SOLV.lig_0>
-50.1861

>  <SCORE.INTRA.VDW>
0.437416

>  <SCORE.INTRA.VDW.0>
-1.36671

>  <SCORE.INTRA.norm>
-0.28273

>  <SCORE.RESTR>
0

>  <SCORE.RESTR.CAVITY>
0

>  <SCORE.RESTR.norm>
0

>  <SCORE.SYSTEM>
0

>  <SCORE.SYSTEM.CONST>
0

>  <SCORE.SYSTEM.DIHEDRAL>
0

>  <SCORE.SYSTEM.SOLV>
0

>  <SCORE.SYSTEM.norm>
0

>  <SCORE.heavy>
14

>  <SCORE.norm>
-0.469463

>  <RMSD>
1.732

$$$$
ligand
 OpenBabel11021811393D
libRbt.so/2013.1/901 2013/11/27
 14 13  0  0  0  0  0  0  0  0999 V2000
   -5.2032    2.1169    9.2432 N   0  0  0  0  0  0  0  0  0  0  0  0
   -5.0745    0.6475    9.6461 C   0  0  0  0  0  0  0  0  0  0  0  0
   -3.6374    0.3132    9.4740 C   0  0  0  0  0  0  0  0  0  0  0  0
   -2.7121    0.9618   10.4907 C   0  0  0  0  0  0  0  0  0  0  0  0
   -1.3038    0.5914   10.1877 N   0  0  0  0  0  0  0  0  0  0  0  0
   -0.9808   -0.7642   10.8417 C   0  0  0  0  0  0  0  0  0  0  0  0
    0.5531   -0.9792   10.4257 C   0  0  0  0  0  0  0  0  0  0  0  0
    0.9406   -2.1737   10.8020 C   0  0  0  0  0  0  0  0  0  0  0  0
    2.4667   -2.0739   10.2166 C   0  0  0  0  0  0  0  0  0  0  0  0
    2.8715   -3.5748   10.4031 N   0  0  0  0  0  0  0  0  0  0  0  0
    3.5602   -4.2059    9.1277 C   0  0  0  0  0  0  0  0  0  0  0  0
    3.8463   -5.7704    9.4996 C   0  0  0  0  0  0  0  0  0  0  0  0
    4.4700   -6.3219    8.2505 C   0  0  0  0  0  0  0  0  0  0  0  0
    4.9030   -7.7244    8.6072 N   0  0  0  0  0  0  0  0  0  0  0  0
  1  2  1  0  0  0  0
  2  3  1  0  0  0  0
  3  4  1  0  0  0  0
  4  5  1  0  0  0  0
  5  6  1  0  0  0  0
  6  7  1  0  0  0  0
  7  8  1  0  0  0  0
  8  9  1  0  0  0  0
  9 10  1  0  0  0  0
 10 11  1  0  0  0  0
 11 12  1  0  0  0  0
 12 13  1  0  0  0  0
 13 14  1  0  0  0  0
M  END
>  <CHROM.1>
70.43194713,-178.06375623,-85.19112107,-179.35521667,-173.67141397,178.78767477
-169.76112310,132.57163936,-177.78251737,178.86573451,173.38098139,0.33570604
-2.06838114,9.80122345,2.51938828,-0.36986080,0.57637552

>  <Name>
ligand

>  <RI>
0

>  <Rbt.Current_Directory>
/home/itssahil/PROJECTS/Mol_Feturizer/New_Systems/rnas/1FUF

>  <Rbt.Executable>
rbdock ($Id: //depot/dev/client3/rdock/2013.1/src/exe/rbdock.cxx#4 $)

>  <Rbt.Library>
libRbt.so (2013.1, Build901 2013/11/27)

>  <Rbt.Parameter_File>
/export/apps/rDock/src/rDock_2013.1_src/data/scripts/dock_solv.prm

>  <Rbt.Receptor>
prm/blind_docking_60.prm

>  <SCORE>
-5.26096

>  <SCORE.INTER>
-2.07904

>  <SCORE.INTER.CONST>
1

>  <SCORE.INTER.POLAR>
0

>  <SCORE.INTER.ROT>
11

>  <SCORE.INTER.SOLV>
16.764

>  <SCORE.INTER.VDW>
-17.9074

>  <SCORE.INTER.norm>
-0.148503

>  <SCORE.INTRA>
-3.18191

>  <SCORE.INTRA.DIHEDRAL>
-7.91868

>  <SCORE.INTRA.DIHEDRAL.0>
10.5765

>  <SCORE.INTRA.POLAR>
0

>  <SCORE.INTRA.POLAR.0>
0

>  <SCORE.INTRA.REPUL>
0

>  <SCORE.INTRA.REPUL.0>
0

>  <SCORE.INTRA.SOLV>
0.669518

>  <SCORE.INTRA.SOLV.lig_0>
-50.1861

>  <SCORE.INTRA.VDW>
0.442666

>  <SCORE.INTRA.VDW.0>
-1.36671

>  <SCORE.INTRA.norm>
-0.22728

>  <SCORE.RESTR>
0

>  <SCORE.RESTR.CAVITY>
0

>  <SCORE.RESTR.norm>
0

>  <SCORE.SYSTEM>
0

>  <SCORE.SYSTEM.CONST>
0

>  <SCORE.SYSTEM.DIHEDRAL>
0

>  <SCORE.SYSTEM.SOLV>
0

>  <SCORE.SYSTEM.norm>
0

>  <SCORE.heavy>
14

>  <SCORE.norm>
-0.375783

>  <RMSD>
1.736

$$$$
ligand
 OpenBabel11021811393D
libRbt.so/2013.1/901 2013/11/27
 14 13  0  0  0  0  0  0  0  0999 V2000
    4.4727   -6.3293    8.9591 N   0  0  0  0  0  0  0  0  0  0  0  0
    4.0451   -6.4436   10.4227 C   0  0  0  0  0  0  0  0  0  0  0  0
    4.5651   -5.2199   11.0850 C   0  0  0  0  0  0  0  0  0  0  0  0
    3.8317   -3.9411   10.7143 C   0  0  0  0  0  0  0  0  0  0  0  0
    2.4335   -4.0070   11.2171 N   0  0  0  0  0  0  0  0  0  0  0  0
    1.5304   -3.1313   10.3298 C   0  0  0  0  0  0  0  0  0  0  0  0
    1.5384   -1.7353   11.1192 C   0  0  0  0  0  0  0  0  0  0  0  0
    1.0948   -0.7882   10.3288 C   0  0  0  0  0  0  0  0  0  0  0  0
   -0.4739   -0.8710   10.7913 C   0  0  0  0  0  0  0  0  0  0  0  0
   -1.0443    0.2241    9.8285 N   0  0  0  0  0  0  0  0  0  0  0  0
   -2.5215    0.6649   10.1786 C   0  0  0  0  0  0  0  0  0  0  0  0
   -2.9031    1.8431    9.1136 C   0  0  0  0  0  0  0  0  0  0  0  0
   -4.2871    2.2550    9.5235 C   0  0  0  0  0  0  0  0  0  0  0  0
   -5.1763    1.0931    9.1477 N   0  0  0  0  0  0  0  0  0  0  0  0
  1  2  1  0  0  0  0
  2  3  1  0  0  0  0
  3  4  1  0  0  0  0
  4  5  1  0  0  0  0
  5  6  1  0  0  0  0
  6  7  1  0  0  0  0
  7  8  1  0  0  0  0
  8  9  1  0  0  0  0
  9 10  1  0  0  0  0
 10 11  1  0  0  0  0
 11 12  1  0  0  0  0
 12 13  1  0  0  0  0
 13 14  1  0  0  0  0
M  END
>  <CHROM.1>
71.89458373,65.64544888,-152.87585031,-93.35374088,164.18068996,93.14599084
-178.33779376,-167.93030303,177.62645892,-177.99243971,-70.22638430,0.50767479
-1.88461055,10.19724312,0.57807909,0.48079582,-2.65214587

>  <Name>
ligand

>  <RI>
0

>  <Rbt.Current_Directory>
/home/itssahil/PROJECTS/Mol_Feturizer/New_Systems/rnas/1FUF

>  <Rbt.Executable>
rbdock ($Id: //depot/dev/client3/rdock/2013.1/src/exe/rbdock.cxx#4 $)

>  <Rbt.Library>
libRbt.so (2013.1, Build901 2013/11/27)

>  <Rbt.Parameter_File>
/export/apps/rDock/src/rDock_2013.1_src/data/scripts/dock_solv.prm

>  <Rbt.Receptor>
prm/pocket_docking_4.prm

>  <SCORE>
-1.74602

>  <SCORE.INTER>
-2.6653

>  <SCORE.INTER.CONST>
1

>  <SCORE.INTER.POLAR>
0

>  <SCORE.INTER.ROT>
11

>  <SCORE.INTER.SOLV>
16.0479

>  <SCORE.INTER.VDW>
-18.0595

>  <SCORE.INTER.norm>
-0.190379

>  <SCORE.INTRA>
0.919276

>  <SCORE.INTRA.DIHEDRAL>
-3.73562

>  <SCORE.INTRA.DIHEDRAL.0>
10.5765

>  <SCORE.INTRA.POLAR>
0

>  <SCORE.INTRA.POLAR.0>
0

>  <SCORE.INTRA.REPUL>
0

>  <SCORE.INTRA.REPUL.0>
0

>  <SCORE.INTRA.SOLV>
2.77421

>  <SCORE.INTRA.SOLV.lig_0>
-50.1861

>  <SCORE.INTRA.VDW>
1.39998

>  <SCORE.INTRA.VDW.0>
-1.36671

>  <SCORE.INTRA.norm>
0.0656626

>  <SCORE.RESTR>
0

>  <SCORE.RESTR.CAVITY>
0

>  <SCORE.RESTR.norm>
0

>  <SCORE.SYSTEM>
0

>  <SCORE.SYSTEM.CONST>
0

>  <SCORE.SYSTEM.DIHEDRAL>
0

>  <SCORE.SYSTEM.SOLV>
0

>  <SCORE.SYSTEM.norm>
0

>  <SCORE.heavy>
14

>  <SCORE.norm>
-0.124716

>  <RMSD>
1.739

$$$$
ligand
 OpenBabel11021811393D
libRbt.so/2013.1/901 2013/11/27
 14 13  0  0  0  0  0  0  0  0999 V2000
    3.9524   -5.3137    9.7847 N   0  0  0  0  0  0  0  0  0  0  0  0
    3.7920   -3.8820    9.2722 C   0  0  0  0  0  0  0  0  0  0  0  0
    3.7608   -3.0269   10.4865 C   0  0  0  0  0  0  0  0  0  0  0  0
    2.5864   -3.2911   11.4148 C   0  0  0  0  0  0  0  0  0  0  0  0
    1.3370   -2.7753   10.7941 N   0  0  0  0  0  0  0  0  0  0  0  0
    1.1789   -1.2815   11.1310 C   0  0  0  0  0  0  0  0  0  0  0  0
   -0.2197   -0.9270   10.4309 C   0  0  0  0  0  0  0  0  0  0  0  0
   -0.4401    0.3614   10.5313 C   0  0  0  0  0  0  0  0  0  0  0  0
   -1.8071    0.3933    9.6302 C   0  0  0  0  0  0  0  0  0  0  0  0
   -2.0640    1.9371    9.6765 N   0  0  0  0  0  0  0  0  0  0  0  0
   -2.7469    2.5028    8.3678 C   0  0  0  0  0  0  0  0  0  0  0  0
   -4.2628    1.8946    8.3532 C   0  0  0  0  0  0  0  0  0  0  0  0
   -4.9195    2.5547    9.5305 C   0  0  0  0  0  0  0  0  0  0  0  0
   -6.3378    2.0349    9.5388 N   0  0  0  0  0  0  0  0  0  0  0  0
  1  2  1  0  0  0  0
  2  3  1  0  0  0  0
  3  4  1  0  0  0  0
  4  5  1  0  0  0  0
  5  6  1  0  0  0  0
  6  7  1  0  0  0  0
  7  8  1  0  0  0  0
  8  9  1  0  0  0  0
  9 10  1  0  0  0  0
 10 11  1  0  0  0  0
 11 12  1  0  0  0  0
 12 13  1  0  0  0  0
 13 14  1  0  0  0  0
M  END
>  <CHROM.1>
-63.04793166,-72.17068098,-85.72783477,-178.20528041,-174.45544634,175.00687938
-177.60174303,147.68998486,68.36810347,66.83259980,179.04562594,-0.44202967
-0.62974044,9.92445031,-0.24464507,0.62865879,-1.36396806

>  <Name>
ligand

>  <RI>
0

>  <Rbt.Current_Directory>
/home/itssahil/PROJECTS/Mol_Feturizer/New_Systems/rnas/1FUF

>  <Rbt.Executable>
rbdock ($Id: //depot/dev/client3/rdock/2013.1/src/exe/rbdock.cxx#4 $)

>  <Rbt.Library>
libRbt.so (2013.1, Build901 2013/11/27)

>  <Rbt.Parameter_File>
/export/apps/rDock/src/rDock_2013.1_src/data/scripts/dock_solv.prm

>  <Rbt.Receptor>
prm/blind_docking_80.prm

>  <SCORE>
-2.34816

>  <SCORE.INTER>
-0.242028

>  <SCORE.INTER.CONST>
1

>  <SCORE.INTER.POLAR>
0

>  <SCORE.INTER.ROT>
11

>  <SCORE.INTER.SOLV>
15.6484

>  <SCORE.INTER.VDW>
-16.3108

>  <SCORE.INTER.norm>
-0.0172877

>  <SCORE.INTRA>
-2.10614

>  <SCORE.INTRA.DIHEDRAL>
-8.38168

>  <SCORE.INTRA.DIHEDRAL.0>
10.5765

>  <SCORE.INTRA.POLAR>
0

>  <SCORE.INTRA.POLAR.0>
0

>  <SCORE.INTRA.REPUL>
0

>  <SCORE.INTRA.REPUL.0>
0

>  <SCORE.INTRA.SOLV>
2.07126

>  <SCORE.INTRA.SOLV.lig_0>
-50.1861

>  <SCORE.INTRA.VDW>
1.04907

>  <SCORE.INTRA.VDW.0>
-1.36671

>  <SCORE.INTRA.norm>
-0.150438

>  <SCORE.RESTR>
0

>  <SCORE.RESTR.CAVITY>
0

>  <SCORE.RESTR.norm>
0

>  <SCORE.SYSTEM>
0

>  <SCORE.SYSTEM.CONST>
0

>  <SCORE.SYSTEM.DIHEDRAL>
0

>  <SCORE.SYSTEM.SOLV>
0

>  <SCORE.SYSTEM.norm>
0

>  <SCORE.heavy>
14

>  <SCORE.norm>
-0.167726

>  <RMSD>
1.740

$$$$
ligand
 OpenBabel11021811393D
libRbt.so/2013.1/901 2013/11/27
 14 13  0  0  0  0  0  0  0  0999 V2000
   -4.0167    1.7166    8.3666 N   0  0  0  0  0  0  0  0  0  0  0  0
   -4.3082    1.5194    9.8546 C   0  0  0  0  0  0  0  0  0  0  0  0
   -3.4356    0.3968   10.2846 C   0  0  0  0  0  0  0  0  0  0  0  0
   -1.9457    0.6819   10.1867 C   0  0  0  0  0  0  0  0  0  0  0  0
   -1.1817   -0.4880   10.6966 N   0  0  0  0  0  0  0  0  0  0  0  0
    0.2902   -0.3645   10.2630 C   0  0  0  0  0  0  0  0  0  0  0  0
    0.9284   -1.7096   10.8591 C   0  0  0  0  0  0  0  0  0  0  0  0
    2.1802   -1.8000   10.4802 C   0  0  0  0  0  0  0  0  0  0  0  0
    2.4793   -3.2630   11.1526 C   0  0  0  0  0  0  0  0  0  0  0  0
    3.9453   -3.4466   10.6345 N   0  0  0  0  0  0  0  0  0  0  0  0
    4.0477   -4.3372    9.3324 C   0  0  0  0  0  0  0  0  0  0  0  0
    5.6438   -4.5417    9.0524 C   0  0  0  0  0  0  0  0  0  0  0  0
    5.6799   -5.3443    7.7844 C   0  0  0  0  0  0  0  0  0  0  0  0
    5.1359   -6.7033    8.1575 N   0  0  0  0  0  0  0  0  0  0  0  0
  1  2  1  0  0  0  0
  2  3  1  0  0  0  0
  3  4  1  0  0  0  0
  4  5  1  0  0  0  0
  5  6  1  0  0  0  0
  6  7  1  0  0  0  0
  7  8  1  0  0  0  0
  8  9  1  0  0  0  0
  9 10  1  0  0  0  0
 10 11  1  0  0  0  0
 11 12  1  0  0  0  0
 12 13  1  0  0  0  0
 13 14  1  0  0  0  0
M  END
>  <CHROM.1>
63.96652525,177.60431238,165.16585691,-178.50088785,175.26755649,-176.73859438
176.38731418,-97.66422271,-173.97635365,-177.92069938,-68.49451886,1.10311958
-1.97728754,9.79336770,2.86010195,-0.58078995,1.22458890

>  <Name>
ligand

>  <RI>
0

>  <Rbt.Current_Directory>
/home/itssahil/PROJECTS/Mol_Feturizer/New_Systems/rnas/1FUF

>  <Rbt.Executable>
rbdock ($Id: //depot/dev/client3/rdock/2013.1/src/exe/rbdock.cxx#4 $)

>  <Rbt.Library>
libRbt.so (2013.1, Build901 2013/11/27)

>  <Rbt.Parameter_File>
/export/apps/rDock/src/rDock_2013.1_src/data/scripts/dock_solv.prm

>  <Rbt.Receptor>
prm/pocket_docking_8.prm

>  <SCORE>
-4.49796

>  <SCORE.INTER>
-1.51812

>  <SCORE.INTER.CONST>
1

>  <SCORE.INTER.POLAR>
0

>  <SCORE.INTER.ROT>
11

>  <SCORE.INTER.SOLV>
15.6725

>  <SCORE.INTER.VDW>
-17.1696

>  <SCORE.INTER.norm>
-0.108437

>  <SCORE.INTRA>
-2.97984

>  <SCORE.INTRA.DIHEDRAL>
-8.99469

>  <SCORE.INTRA.DIHEDRAL.0>
10.5765

>  <SCORE.INTRA.POLAR>
0

>  <SCORE.INTRA.POLAR.0>
0

>  <SCORE.INTRA.REPUL>
0

>  <SCORE.INTRA.REPUL.0>
0

>  <SCORE.INTRA.SOLV>
1.70881

>  <SCORE.INTRA.SOLV.lig_0>
-50.1861

>  <SCORE.INTRA.VDW>
0.663095

>  <SCORE.INTRA.VDW.0>
-1.36671

>  <SCORE.INTRA.norm>
-0.212846

>  <SCORE.RESTR>
0

>  <SCORE.RESTR.CAVITY>
0

>  <SCORE.RESTR.norm>
0

>  <SCORE.SYSTEM>
0

>  <SCORE.SYSTEM.CONST>
0

>  <SCORE.SYSTEM.DIHEDRAL>
0

>  <SCORE.SYSTEM.SOLV>
0

>  <SCORE.SYSTEM.norm>
0

>  <SCORE.heavy>
14

>  <SCORE.norm>
-0.321283

>  <RMSD>
1.741

$$$$
ligand
 OpenBabel11021811393D
libRbt.so/2013.1/901 2013/11/27
 14 13  0  0  0  0  0  0  0  0999 V2000
    4.4701   -6.8935    7.9686 N   0  0  0  0  0  0  0  0  0  0  0  0
    4.6953   -5.5795    8.7174 C   0  0  0  0  0  0  0  0  0  0  0  0
    4.0466   -5.7609   10.0413 C   0  0  0  0  0  0  0  0  0  0  0  0
    4.1983   -4.5797   10.9860 C   0  0  0  0  0  0  0  0  0  0  0  0
    3.5497   -3.3810   10.3903 N   0  0  0  0  0  0  0  0  0  0  0  0
    2.0398   -3.4168   10.6880 C   0  0  0  0  0  0  0  0  0  0  0  0
    1.6411   -1.8671   10.5814 C   0  0  0  0  0  0  0  0  0  0  0  0
    0.3452   -1.7417   10.7352 C   0  0  0  0  0  0  0  0  0  0  0  0
    0.2887   -0.1135   10.5695 C   0  0  0  0  0  0  0  0  0  0  0  0
   -1.2632    0.0639   10.6769 N   0  0  0  0  0  0  0  0  0  0  0  0
   -1.7177    1.5712   10.8209 C   0  0  0  0  0  0  0  0  0  0  0  0
   -2.8751    1.8013    9.6916 C   0  0  0  0  0  0  0  0  0  0  0  0
   -4.0549    1.0505   10.2371 C   0  0  0  0  0  0  0  0  0  0  0  0
   -5.1564    1.2477    9.2224 N   0  0  0  0  0  0  0  0  0  0  0  0
  1  2  1  0  0  0  0
  2  3  1  0  0  0  0
  3  4  1  0  0  0  0
  4  5  1  0  0  0  0
  5  6  1  0  0  0  0
  6  7  1  0  0  0  0
  7  8  1  0  0  0  0
  8  9  1  0  0  0  0
  9 10  1  0  0  0  0
 10 11  1  0  0  0  0
 11 12  1  0  0  0  0
 12 13  1  0  0  0  0
 13 14  1  0  0  0  0
M  END
>  <CHROM.1>
177.63106684,61.91980686,83.12461849,156.26087412,176.24364811,-179.74835007
177.30585259,169.56517600,129.53370709,72.39999266,179.57609745,0.72925158
-1.97125909,10.09497199,0.57438476,0.48087398,-2.44027138

>  <Name>
ligand

>  <RI>
0

>  <Rbt.Current_Directory>
/home/itssahil/PROJECTS/Mol_Feturizer/New_Systems/rnas/1FUF

>  <Rbt.Executable>
rbdock ($Id: //depot/dev/client3/rdock/2013.1/src/exe/rbdock.cxx#4 $)

>  <Rbt.Library>
libRbt.so (2013.1, Build901 2013/11/27)

>  <Rbt.Parameter_File>
/export/apps/rDock/src/rDock_2013.1_src/data/scripts/dock_solv.prm

>  <Rbt.Receptor>
prm/pocket_docking_4.prm

>  <SCORE>
-5.11516

>  <SCORE.INTER>
-2.03949

>  <SCORE.INTER.CONST>
1

>  <SCORE.INTER.POLAR>
0

>  <SCORE.INTER.ROT>
11

>  <SCORE.INTER.SOLV>
17.1996

>  <SCORE.INTER.VDW>
-18.0262

>  <SCORE.INTER.norm>
-0.145678

>  <SCORE.INTRA>
-3.07567

>  <SCORE.INTRA.DIHEDRAL>
-7.8886

>  <SCORE.INTRA.DIHEDRAL.0>
10.5765

>  <SCORE.INTRA.POLAR>
0

>  <SCORE.INTRA.POLAR.0>
0

>  <SCORE.INTRA.REPUL>
0

>  <SCORE.INTRA.REPUL.0>
0

>  <SCORE.INTRA.SOLV>
0.65774

>  <SCORE.INTRA.SOLV.lig_0>
-50.1861

>  <SCORE.INTRA.VDW>
0.539758

>  <SCORE.INTRA.VDW.0>
-1.36671

>  <SCORE.INTRA.norm>
-0.219691

>  <SCORE.RESTR>
0

>  <SCORE.RESTR.CAVITY>
0

>  <SCORE.RESTR.norm>
0

>  <SCORE.SYSTEM>
0

>  <SCORE.SYSTEM.CONST>
0

>  <SCORE.SYSTEM.DIHEDRAL>
0

>  <SCORE.SYSTEM.SOLV>
0

>  <SCORE.SYSTEM.norm>
0

>  <SCORE.heavy>
14

>  <SCORE.norm>
-0.365369

>  <RMSD>
1.745

$$$$
ligand
 OpenBabel11021811393D
libRbt.so/2013.1/901 2013/11/27
 14 13  0  0  0  0  0  0  0  0999 V2000
   -5.5182    1.3501    9.2544 N   0  0  0  0  0  0  0  0  0  0  0  0
   -4.4009    0.9483   10.2178 C   0  0  0  0  0  0  0  0  0  0  0  0
   -3.2241    1.7644    9.8233 C   0  0  0  0  0  0  0  0  0  0  0  0
   -1.9755    1.5147   10.6535 C   0  0  0  0  0  0  0  0  0  0  0  0
   -1.5102    0.1178   10.4428 N   0  0  0  0  0  0  0  0  0  0  0  0
    0.0277    0.0784   10.4983 C   0  0  0  0  0  0  0  0  0  0  0  0
    0.3217   -1.4981   10.5087 C   0  0  0  0  0  0  0  0  0  0  0  0
    1.6147   -1.6982   10.4278 C   0  0  0  0  0  0  0  0  0  0  0  0
    1.5550   -3.3345   10.4064 C   0  0  0  0  0  0  0  0  0  0  0  0
    3.0650   -3.6048   10.0927 N   0  0  0  0  0  0  0  0  0  0  0  0
    3.7622   -4.5716   11.1311 C   0  0  0  0  0  0  0  0  0  0  0  0
    3.2227   -6.0727   10.7797 C   0  0  0  0  0  0  0  0  0  0  0  0
    4.1482   -6.5350    9.6921 C   0  0  0  0  0  0  0  0  0  0  0  0
    3.7697   -5.7239    8.4753 N   0  0  0  0  0  0  0  0  0  0  0  0
  1  2  1  0  0  0  0
  2  3  1  0  0  0  0
  3  4  1  0  0  0  0
  4  5  1  0  0  0  0
  5  6  1  0  0  0  0
  6  7  1  0  0  0  0
  7  8  1  0  0  0  0
  8  9  1  0  0  0  0
  9 10  1  0  0  0  0
 10 11  1  0  0  0  0
 11 12  1  0  0  0  0
 12 13  1  0  0  0  0
 13 14  1  0  0  0  0
M  END
>  <CHROM.1>
-179.48084335,64.49711145,145.60150418,170.68058771,174.08721909,-178.03027411
171.90672454,125.76862071,75.10232564,85.06688912,-71.37439407,0.34714539
-1.94749146,10.17194399,2.46241768,-0.34046620,0.39070658

>  <Name>
ligand

>  <RI>
0

>  <Rbt.Current_Directory>
/home/itssahil/PROJECTS/Mol_Feturizer/New_Systems/rnas/1FUF

>  <Rbt.Executable>
rbdock ($Id: //depot/dev/client3/rdock/2013.1/src/exe/rbdock.cxx#4 $)

>  <Rbt.Library>
libRbt.so (2013.1, Build901 2013/11/27)

>  <Rbt.Parameter_File>
/export/apps/rDock/src/rDock_2013.1_src/data/scripts/dock_solv.prm

>  <Rbt.Receptor>
prm/blind_docking_20.prm

>  <SCORE>
-3.12289

>  <SCORE.INTER>
-2.75953

>  <SCORE.INTER.CONST>
1

>  <SCORE.INTER.POLAR>
0

>  <SCORE.INTER.ROT>
11

>  <SCORE.INTER.SOLV>
16.4228

>  <SCORE.INTER.VDW>
-18.2473

>  <SCORE.INTER.norm>
-0.197109

>  <SCORE.INTRA>
-0.363361

>  <SCORE.INTRA.DIHEDRAL>
-5.41966

>  <SCORE.INTRA.DIHEDRAL.0>
10.5765

>  <SCORE.INTRA.POLAR>
0

>  <SCORE.INTRA.POLAR.0>
0

>  <SCORE.INTRA.REPUL>
0

>  <SCORE.INTRA.REPUL.0>
0

>  <SCORE.INTRA.SOLV>
3.64971

>  <SCORE.INTRA.SOLV.lig_0>
-50.1861

>  <SCORE.INTRA.VDW>
0.521613

>  <SCORE.INTRA.VDW.0>
-1.36671

>  <SCORE.INTRA.norm>
-0.0259543

>  <SCORE.RESTR>
0

>  <SCORE.RESTR.CAVITY>
0

>  <SCORE.RESTR.norm>
0

>  <SCORE.SYSTEM>
0

>  <SCORE.SYSTEM.CONST>
0

>  <SCORE.SYSTEM.DIHEDRAL>
0

>  <SCORE.SYSTEM.SOLV>
0

>  <SCORE.SYSTEM.norm>
0

>  <SCORE.heavy>
14

>  <SCORE.norm>
-0.223063

>  <RMSD>
1.746

$$$$
ligand
 OpenBabel11021811393D
libRbt.so/2013.1/901 2013/11/27
 14 13  0  0  0  0  0  0  0  0999 V2000
   -4.4547    2.1384    8.4545 N   0  0  0  0  0  0  0  0  0  0  0  0
   -4.8184    1.1553    9.5677 C   0  0  0  0  0  0  0  0  0  0  0  0
   -3.6843    0.1985    9.6385 C   0  0  0  0  0  0  0  0  0  0  0  0
   -2.3858    0.7956   10.1559 C   0  0  0  0  0  0  0  0  0  0  0  0
   -1.3451   -0.2648   10.2265 N   0  0  0  0  0  0  0  0  0  0  0  0
   -0.0881    0.2989   10.9135 C   0  0  0  0  0  0  0  0  0  0  0  0
    1.0740   -0.6060   10.2791 C   0  0  0  0  0  0  0  0  0  0  0  0
    1.0403   -1.7983   10.8229 C   0  0  0  0  0  0  0  0  0  0  0  0
    2.4352   -2.3491   10.1652 C   0  0  0  0  0  0  0  0  0  0  0  0
    2.4323   -3.7764   10.8087 N   0  0  0  0  0  0  0  0  0  0  0  0
    3.8789   -4.3261   11.1317 C   0  0  0  0  0  0  0  0  0  0  0  0
    3.9542   -5.8137   10.4614 C   0  0  0  0  0  0  0  0  0  0  0  0
    3.9904   -5.5352    8.9868 C   0  0  0  0  0  0  0  0  0  0  0  0
    4.1096   -6.8895    8.3284 N   0  0  0  0  0  0  0  0  0  0  0  0
  1  2  1  0  0  0  0
  2  3  1  0  0  0  0
  3  4  1  0  0  0  0
  4  5  1  0  0  0  0
  5  6  1  0  0  0  0
  6  7  1  0  0  0  0
  7  8  1  0  0  0  0
  8  9  1  0  0  0  0
  9 10  1  0  0  0  0
 10 11  1  0  0  0  0
 11 12  1  0  0  0  0
 12 13  1  0  0  0  0
 13 14  1  0  0  0  0
M  END
>  <CHROM.1>
68.66404321,177.98549647,-172.98053514,-152.88973874,-75.06929254,-171.55090604
179.51512568,-146.67286363,-128.74731603,70.76642472,178.06856492,0.43857216
-1.91220060,9.99600431,2.60201906,-0.50315134,0.63948966

>  <Name>
ligand

>  <RI>
0

>  <Rbt.Current_Directory>
/home/itssahil/PROJECTS/Mol_Feturizer/New_Systems/rnas/1FUF

>  <Rbt.Executable>
rbdock ($Id: //depot/dev/client3/rdock/2013.1/src/exe/rbdock.cxx#4 $)

>  <Rbt.Library>
libRbt.so (2013.1, Build901 2013/11/27)

>  <Rbt.Parameter_File>
/export/apps/rDock/src/rDock_2013.1_src/data/scripts/dock_solv.prm

>  <Rbt.Receptor>
prm/pocket_docking_4.prm

>  <SCORE>
-3.85357

>  <SCORE.INTER>
-1.90541

>  <SCORE.INTER.CONST>
1

>  <SCORE.INTER.POLAR>
0

>  <SCORE.INTER.ROT>
11

>  <SCORE.INTER.SOLV>
17.451

>  <SCORE.INTER.VDW>
-18.0206

>  <SCORE.INTER.norm>
-0.1361

>  <SCORE.INTRA>
-1.94816

>  <SCORE.INTRA.DIHEDRAL>
-6.33806

>  <SCORE.INTRA.DIHEDRAL.0>
10.5765

>  <SCORE.INTRA.POLAR>
0

>  <SCORE.INTRA.POLAR.0>
0

>  <SCORE.INTRA.REPUL>
0

>  <SCORE.INTRA.REPUL.0>
0

>  <SCORE.INTRA.SOLV>
1.49823

>  <SCORE.INTRA.SOLV.lig_0>
-50.1861

>  <SCORE.INTRA.VDW>
0.471755

>  <SCORE.INTRA.VDW.0>
-1.36671

>  <SCORE.INTRA.norm>
-0.139154

>  <SCORE.RESTR>
0

>  <SCORE.RESTR.CAVITY>
0

>  <SCORE.RESTR.norm>
0

>  <SCORE.SYSTEM>
0

>  <SCORE.SYSTEM.CONST>
0

>  <SCORE.SYSTEM.DIHEDRAL>
0

>  <SCORE.SYSTEM.SOLV>
0

>  <SCORE.SYSTEM.norm>
0

>  <SCORE.heavy>
14

>  <SCORE.norm>
-0.275255

>  <RMSD>
1.747

$$$$
ligand
 OpenBabel11021811393D
libRbt.so/2013.1/901 2013/11/27
 14 13  0  0  0  0  0  0  0  0999 V2000
   -7.9093    3.1059    9.4713 N   0  0  0  0  0  0  0  0  0  0  0  0
   -6.4442    3.3483    9.1067 C   0  0  0  0  0  0  0  0  0  0  0  0
   -5.6909    2.2261    9.7230 C   0  0  0  0  0  0  0  0  0  0  0  0
   -4.1924    2.2573    9.4701 C   0  0  0  0  0  0  0  0  0  0  0  0
   -3.5768    1.0022    9.9782 N   0  0  0  0  0  0  0  0  0  0  0  0
   -2.2275    0.7739    9.2732 C   0  0  0  0  0  0  0  0  0  0  0  0
   -1.4023   -0.0360   10.3846 C   0  0  0  0  0  0  0  0  0  0  0  0
   -0.1860   -0.2547    9.9472 C   0  0  0  0  0  0  0  0  0  0  0  0
    0.2466   -1.3245   11.1092 C   0  0  0  0  0  0  0  0  0  0  0  0
    1.7182   -1.5765   10.6381 N   0  0  0  0  0  0  0  0  0  0  0  0
    2.3813   -2.8526   11.2945 C   0  0  0  0  0  0  0  0  0  0  0  0
    3.4569   -3.4131   10.2005 C   0  0  0  0  0  0  0  0  0  0  0  0
    3.9936   -4.6606   10.8400 C   0  0  0  0  0  0  0  0  0  0  0  0
    4.8777   -5.2963    9.7930 N   0  0  0  0  0  0  0  0  0  0  0  0
  1  2  1  0  0  0  0
  2  3  1  0  0  0  0
  3  4  1  0  0  0  0
  4  5  1  0  0  0  0
  5  6  1  0  0  0  0
  6  7  1  0  0  0  0
  7  8  1  0  0  0  0
  8  9  1  0  0  0  0
  9 10  1  0  0  0  0
 10 11  1  0  0  0  0
 11 12  1  0  0  0  0
 12 13  1  0  0  0  0
 13 14  1  0  0  0  0
M  END
>  <CHROM.1>
179.32095743,-172.64066334,158.35160868,150.95538026,-177.08080182,-168.58400968
-178.43375528,-165.00268216,150.33409241,-176.85138688,173.76826044,-1.06816686
-0.47852469,10.08788549,-3.12873552,-0.60449870,1.43313196

>  <Name>
ligand

>  <RI>
0

>  <Rbt.Current_Directory>
/home/itssahil/PROJECTS/Mol_Feturizer/New_Systems/rnas/1FUF

>  <Rbt.Executable>
rbdock ($Id: //depot/dev/client3/rdock/2013.1/src/exe/rbdock.cxx#4 $)

>  <Rbt.Library>
libRbt.so (2013.1, Build901 2013/11/27)

>  <Rbt.Parameter_File>
/export/apps/rDock/src/rDock_2013.1_src/data/scripts/dock_solv.prm

>  <Rbt.Receptor>
prm/blind_docking_40.prm

>  <SCORE>
-5.94346

>  <SCORE.INTER>
-1.90995

>  <SCORE.INTER.CONST>
1

>  <SCORE.INTER.POLAR>
0

>  <SCORE.INTER.ROT>
11

>  <SCORE.INTER.SOLV>
14.4354

>  <SCORE.INTER.VDW>
-17.0184

>  <SCORE.INTER.norm>
-0.136425

>  <SCORE.INTRA>
-4.0335

>  <SCORE.INTRA.DIHEDRAL>
-7.93618

>  <SCORE.INTRA.DIHEDRAL.0>
10.5765

>  <SCORE.INTRA.POLAR>
0

>  <SCORE.INTRA.POLAR.0>
0

>  <SCORE.INTRA.REPUL>
0

>  <SCORE.INTRA.REPUL.0>
0

>  <SCORE.INTRA.SOLV>
-0.150615

>  <SCORE.INTRA.SOLV.lig_0>
-50.1861

>  <SCORE.INTRA.VDW>
0.00989221

>  <SCORE.INTRA.VDW.0>
-1.36671

>  <SCORE.INTRA.norm>
-0.288107

>  <SCORE.RESTR>
0

>  <SCORE.RESTR.CAVITY>
0

>  <SCORE.RESTR.norm>
0

>  <SCORE.SYSTEM>
0

>  <SCORE.SYSTEM.CONST>
0

>  <SCORE.SYSTEM.DIHEDRAL>
0

>  <SCORE.SYSTEM.SOLV>
0

>  <SCORE.SYSTEM.norm>
0

>  <SCORE.heavy>
14

>  <SCORE.norm>
-0.424533

>  <RMSD>
1.748

$$$$
ligand
 OpenBabel11021811393D
libRbt.so/2013.1/901 2013/11/27
 14 13  0  0  0  0  0  0  0  0999 V2000
    4.9245   -6.8443    8.6742 N   0  0  0  0  0  0  0  0  0  0  0  0
    4.1443   -5.6046    8.2353 C   0  0  0  0  0  0  0  0  0  0  0  0
    4.8425   -4.4534    8.8629 C   0  0  0  0  0  0  0  0  0  0  0  0
    4.5981   -4.3043   10.3558 C   0  0  0  0  0  0  0  0  0  0  0  0
    3.1736   -3.9476   10.5925 N   0  0  0  0  0  0  0  0  0  0  0  0
    2.9740   -2.4437   10.3311 C   0  0  0  0  0  0  0  0  0  0  0  0
    1.4311   -2.2389   10.7178 C   0  0  0  0  0  0  0  0  0  0  0  0
    1.0593   -1.0257   10.3886 C   0  0  0  0  0  0  0  0  0  0  0  0
   -0.4979   -1.1629   10.8763 C   0  0  0  0  0  0  0  0  0  0  0  0
   -1.0364    0.1760   10.2692 N   0  0  0  0  0  0  0  0  0  0  0  0
   -2.6060    0.3312   10.3759 C   0  0  0  0  0  0  0  0  0  0  0  0
   -3.0114    1.5232    9.3355 C   0  0  0  0  0  0  0  0  0  0  0  0
   -4.4930    1.6702    9.5267 C   0  0  0  0  0  0  0  0  0  0  0  0
   -4.9548    2.5573    8.3946 N   0  0  0  0  0  0  0  0  0  0  0  0
  1  2  1  0  0  0  0
  2  3  1  0  0  0  0
  3  4  1  0  0  0  0
  4  5  1  0  0  0  0
  5  6  1  0  0  0  0
  6  7  1  0  0  0  0
  7  8  1  0  0  0  0
  8  9  1  0  0  0  0
  9 10  1  0  0  0  0
 10 11  1  0  0  0  0
 11 12  1  0  0  0  0
 12 13  1  0  0  0  0
 13 14  1  0  0  0  0
M  END
>  <CHROM.1>
-74.70377606,-66.94869460,-79.59061496,-176.72039996,-172.23568465,179.12531430
-170.54300673,172.55845225,-163.84891063,-177.39597970,-168.84575598,0.75350440
-1.84046605,9.78129898,0.34302629,0.60575579,-2.10820546

>  <Name>
ligand

>  <RI>
0

>  <Rbt.Current_Directory>
/home/itssahil/PROJECTS/Mol_Feturizer/New_Systems/rnas/1FUF

>  <Rbt.Executable>
rbdock ($Id: //depot/dev/client3/rdock/2013.1/src/exe/rbdock.cxx#4 $)

>  <Rbt.Library>
libRbt.so (2013.1, Build901 2013/11/27)

>  <Rbt.Parameter_File>
/export/apps/rDock/src/rDock_2013.1_src/data/scripts/dock_solv.prm

>  <Rbt.Receptor>
prm/pocket_docking_6.prm

>  <SCORE>
-5.25252

>  <SCORE.INTER>
-2.49469

>  <SCORE.INTER.CONST>
1

>  <SCORE.INTER.POLAR>
0

>  <SCORE.INTER.ROT>
11

>  <SCORE.INTER.SOLV>
14.6476

>  <SCORE.INTER.VDW>
-17.479

>  <SCORE.INTER.norm>
-0.178192

>  <SCORE.INTRA>
-2.75783

>  <SCORE.INTRA.DIHEDRAL>
-8.02989

>  <SCORE.INTRA.DIHEDRAL.0>
10.5765

>  <SCORE.INTRA.POLAR>
0

>  <SCORE.INTRA.POLAR.0>
0

>  <SCORE.INTRA.REPUL>
0

>  <SCORE.INTRA.REPUL.0>
0

>  <SCORE.INTRA.SOLV>
1.35456

>  <SCORE.INTRA.SOLV.lig_0>
-50.1861

>  <SCORE.INTRA.VDW>
0.579835

>  <SCORE.INTRA.VDW.0>
-1.36671

>  <SCORE.INTRA.norm>
-0.196988

>  <SCORE.RESTR>
0

>  <SCORE.RESTR.CAVITY>
0

>  <SCORE.RESTR.norm>
0

>  <SCORE.SYSTEM>
0

>  <SCORE.SYSTEM.CONST>
0

>  <SCORE.SYSTEM.DIHEDRAL>
0

>  <SCORE.SYSTEM.SOLV>
0

>  <SCORE.SYSTEM.norm>
0

>  <SCORE.heavy>
14

>  <SCORE.norm>
-0.37518

>  <RMSD>
1.749

$$$$
ligand
 OpenBabel11021811393D
libRbt.so/2013.1/901 2013/11/27
 14 13  0  0  0  0  0  0  0  0999 V2000
    4.4571   -7.4567    8.2281 N   0  0  0  0  0  0  0  0  0  0  0  0
    5.1020   -6.2918    8.9798 C   0  0  0  0  0  0  0  0  0  0  0  0
    4.0346   -5.2676    9.1156 C   0  0  0  0  0  0  0  0  0  0  0  0
    4.4674   -3.9948    9.8250 C   0  0  0  0  0  0  0  0  0  0  0  0
    3.3031   -3.0785    9.9552 N   0  0  0  0  0  0  0  0  0  0  0  0
    2.6834   -3.2366   11.3555 C   0  0  0  0  0  0  0  0  0  0  0  0
    1.8647   -1.8669   11.5155 C   0  0  0  0  0  0  0  0  0  0  0  0
    0.8237   -1.8888   10.7191 C   0  0  0  0  0  0  0  0  0  0  0  0
    0.2686   -0.3928   11.0871 C   0  0  0  0  0  0  0  0  0  0  0  0
   -1.0509   -0.4355   10.2454 N   0  0  0  0  0  0  0  0  0  0  0  0
   -1.9257    0.8747   10.3762 C   0  0  0  0  0  0  0  0  0  0  0  0
   -3.3573    0.5316    9.6688 C   0  0  0  0  0  0  0  0  0  0  0  0
   -4.1166    1.8230    9.7635 C   0  0  0  0  0  0  0  0  0  0  0  0
   -5.4661    1.5378    9.1476 N   0  0  0  0  0  0  0  0  0  0  0  0
  1  2  1  0  0  0  0
  2  3  1  0  0  0  0
  3  4  1  0  0  0  0
  4  5  1  0  0  0  0
  5  6  1  0  0  0  0
  6  7  1  0  0  0  0
  7  8  1  0  0  0  0
  8  9  1  0  0  0  0
  9 10  1  0  0  0  0
 10 11  1  0  0  0  0
 11 12  1  0  0  0  0
 12 13  1  0  0  0  0
 13 14  1  0  0  0  0
M  END
>  <CHROM.1>
-179.11517935,-177.38078949,97.31522350,159.69617414,71.02464349,-178.40650050
-175.21340660,178.42980981,-169.76563480,-177.38096070,-178.64664110,0.79219658
-2.08150708,9.99898287,0.53079012,0.47459807,-2.40138198

>  <Name>
ligand

>  <RI>
0

>  <Rbt.Current_Directory>
/home/itssahil/PROJECTS/Mol_Feturizer/New_Systems/rnas/1FUF

>  <Rbt.Executable>
rbdock ($Id: //depot/dev/client3/rdock/2013.1/src/exe/rbdock.cxx#4 $)

>  <Rbt.Library>
libRbt.so (2013.1, Build901 2013/11/27)

>  <Rbt.Parameter_File>
/export/apps/rDock/src/rDock_2013.1_src/data/scripts/dock_solv.prm

>  <Rbt.Receptor>
prm/blind_docking_20.prm

>  <SCORE>
-4.58998

>  <SCORE.INTER>
-0.866154

>  <SCORE.INTER.CONST>
1

>  <SCORE.INTER.POLAR>
0

>  <SCORE.INTER.ROT>
11

>  <SCORE.INTER.SOLV>
18.1302

>  <SCORE.INTER.VDW>
-17.5542

>  <SCORE.INTER.norm>
-0.0618681

>  <SCORE.INTRA>
-3.72382

>  <SCORE.INTRA.DIHEDRAL>
-8.752

>  <SCORE.INTRA.DIHEDRAL.0>
10.5765

>  <SCORE.INTRA.POLAR>
0

>  <SCORE.INTRA.POLAR.0>
0

>  <SCORE.INTRA.REPUL>
0

>  <SCORE.INTRA.REPUL.0>
0

>  <SCORE.INTRA.SOLV>
0.290583

>  <SCORE.INTRA.SOLV.lig_0>
-50.1861

>  <SCORE.INTRA.VDW>
0.506885

>  <SCORE.INTRA.VDW.0>
-1.36671

>  <SCORE.INTRA.norm>
-0.265987

>  <SCORE.RESTR>
0

>  <SCORE.RESTR.CAVITY>
0

>  <SCORE.RESTR.norm>
0

>  <SCORE.SYSTEM>
0

>  <SCORE.SYSTEM.CONST>
0

>  <SCORE.SYSTEM.DIHEDRAL>
0

>  <SCORE.SYSTEM.SOLV>
0

>  <SCORE.SYSTEM.norm>
0

>  <SCORE.heavy>
14

>  <SCORE.norm>
-0.327856

>  <RMSD>
1.757

$$$$
ligand
 OpenBabel11021811393D
libRbt.so/2013.1/901 2013/11/27
 14 13  0  0  0  0  0  0  0  0999 V2000
    4.8606   -5.3533    9.7606 N   0  0  0  0  0  0  0  0  0  0  0  0
    4.0826   -4.6541   10.8760 C   0  0  0  0  0  0  0  0  0  0  0  0
    3.3825   -3.5196   10.2206 C   0  0  0  0  0  0  0  0  0  0  0  0
    2.5319   -2.6768   11.1570 C   0  0  0  0  0  0  0  0  0  0  0  0
    1.7976   -1.6493   10.3712 N   0  0  0  0  0  0  0  0  0  0  0  0
    0.5966   -1.1427   11.1901 C   0  0  0  0  0  0  0  0  0  0  0  0
   -0.2098   -0.2818   10.1036 C   0  0  0  0  0  0  0  0  0  0  0  0
   -1.3245    0.1549   10.6376 C   0  0  0  0  0  0  0  0  0  0  0  0
   -1.9612    0.7835    9.2660 C   0  0  0  0  0  0  0  0  0  0  0  0
   -3.3633    1.1818    9.8379 N   0  0  0  0  0  0  0  0  0  0  0  0
   -4.1860    2.1367    8.8837 C   0  0  0  0  0  0  0  0  0  0  0  0
   -5.6650    2.2833    9.5613 C   0  0  0  0  0  0  0  0  0  0  0  0
   -6.3958    3.1959    8.6199 C   0  0  0  0  0  0  0  0  0  0  0  0
   -7.7738    3.3625    9.2159 N   0  0  0  0  0  0  0  0  0  0  0  0
  1  2  1  0  0  0  0
  2  3  1  0  0  0  0
  3  4  1  0  0  0  0
  4  5  1  0  0  0  0
  5  6  1  0  0  0  0
  6  7  1  0  0  0  0
  7  8  1  0  0  0  0
  8  9  1  0  0  0  0
  9 10  1  0  0  0  0
 10 11  1  0  0  0  0
 11 12  1  0  0  0  0
 12 13  1  0  0  0  0
 13 14  1  0  0  0  0
M  END
>  <CHROM.1>
179.80449693,-175.34073008,160.07234514,-169.69899235,176.02368653,-172.94774282
174.36861025,166.80593089,173.23621409,179.90897787,-179.79022942,-0.97333478
-0.44128244,9.97874825,0.15790725,0.59537161,-2.04855298

>  <Name>
ligand

>  <RI>
0

>  <Rbt.Current_Directory>
/home/itssahil/PROJECTS/Mol_Feturizer/New_Systems/rnas/1FUF

>  <Rbt.Executable>
rbdock ($Id: //depot/dev/client3/rdock/2013.1/src/exe/rbdock.cxx#4 $)

>  <Rbt.Library>
libRbt.so (2013.1, Build901 2013/11/27)

>  <Rbt.Parameter_File>
/export/apps/rDock/src/rDock_2013.1_src/data/scripts/dock_solv.prm

>  <Rbt.Receptor>
prm/blind_docking_40.prm

>  <SCORE>
-6.60732

>  <SCORE.INTER>
-1.77692

>  <SCORE.INTER.CONST>
1

>  <SCORE.INTER.POLAR>
0

>  <SCORE.INTER.ROT>
11

>  <SCORE.INTER.SOLV>
14.6763

>  <SCORE.INTER.VDW>
-17.0101

>  <SCORE.INTER.norm>
-0.126923

>  <SCORE.INTRA>
-4.8304

>  <SCORE.INTRA.DIHEDRAL>
-9.55141

>  <SCORE.INTRA.DIHEDRAL.0>
10.5765

>  <SCORE.INTRA.POLAR>
0

>  <SCORE.INTRA.POLAR.0>
0

>  <SCORE.INTRA.REPUL>
0

>  <SCORE.INTRA.REPUL.0>
0

>  <SCORE.INTRA.SOLV>
-0.152713

>  <SCORE.INTRA.SOLV.lig_0>
-50.1861

>  <SCORE.INTRA.VDW>
0.02166

>  <SCORE.INTRA.VDW.0>
-1.36671

>  <SCORE.INTRA.norm>
-0.345029

>  <SCORE.RESTR>
0

>  <SCORE.RESTR.CAVITY>
0

>  <SCORE.RESTR.norm>
0

>  <SCORE.SYSTEM>
0

>  <SCORE.SYSTEM.CONST>
0

>  <SCORE.SYSTEM.DIHEDRAL>
0

>  <SCORE.SYSTEM.SOLV>
0

>  <SCORE.SYSTEM.norm>
0

>  <SCORE.heavy>
14

>  <SCORE.norm>
-0.471951

>  <RMSD>
1.757

$$$$
ligand
 OpenBabel11021811393D
libRbt.so/2013.1/901 2013/11/27
 14 13  0  0  0  0  0  0  0  0999 V2000
   -4.9253    1.0928    9.0716 N   0  0  0  0  0  0  0  0  0  0  0  0
   -3.8938    0.7810   10.1564 C   0  0  0  0  0  0  0  0  0  0  0  0
   -2.6996    1.5956    9.8144 C   0  0  0  0  0  0  0  0  0  0  0  0
   -1.5407    1.4571   10.7882 C   0  0  0  0  0  0  0  0  0  0  0  0
   -0.9356    0.1053   10.6509 N   0  0  0  0  0  0  0  0  0  0  0  0
    0.1564   -0.0760   11.7207 C   0  0  0  0  0  0  0  0  0  0  0  0
    0.6969   -1.5515   11.4002 C   0  0  0  0  0  0  0  0  0  0  0  0
    1.5098   -1.5014   10.3729 C   0  0  0  0  0  0  0  0  0  0  0  0
    1.8435   -3.1035   10.3136 C   0  0  0  0  0  0  0  0  0  0  0  0
    2.9163   -3.0618    9.1739 N   0  0  0  0  0  0  0  0  0  0  0  0
    4.3913   -3.3082    9.6864 C   0  0  0  0  0  0  0  0  0  0  0  0
    4.5614   -4.9284    9.8039 C   0  0  0  0  0  0  0  0  0  0  0  0
    4.5083   -5.3934    8.3777 C   0  0  0  0  0  0  0  0  0  0  0  0
    4.7379   -6.8853    8.4363 N   0  0  0  0  0  0  0  0  0  0  0  0
  1  2  1  0  0  0  0
  2  3  1  0  0  0  0
  3  4  1  0  0  0  0
  4  5  1  0  0  0  0
  5  6  1  0  0  0  0
  6  7  1  0  0  0  0
  7  8  1  0  0  0  0
  8  9  1  0  0  0  0
  9 10  1  0  0  0  0
 10 11  1  0  0  0  0
 11 12  1  0  0  0  0
 12 13  1  0  0  0  0
 13 14  1  0  0  0  0
M  END
>  <CHROM.1>
179.01406123,70.31715507,-175.11578766,-179.03884532,78.87816449,-179.40086324
-175.17932303,107.63071620,82.35377116,67.51301504,177.01474958,0.80920010
-1.76968981,9.98362387,2.56768483,-0.43007355,0.74124478

>  <Name>
ligand

>  <RI>
0

>  <Rbt.Current_Directory>
/home/itssahil/PROJECTS/Mol_Feturizer/New_Systems/rnas/1FUF

>  <Rbt.Executable>
rbdock ($Id: //depot/dev/client3/rdock/2013.1/src/exe/rbdock.cxx#4 $)

>  <Rbt.Library>
libRbt.so (2013.1, Build901 2013/11/27)

>  <Rbt.Parameter_File>
/export/apps/rDock/src/rDock_2013.1_src/data/scripts/dock_solv.prm

>  <Rbt.Receptor>
prm/blind_docking_40.prm

>  <SCORE>
-3.01277

>  <SCORE.INTER>
-0.408254

>  <SCORE.INTER.CONST>
1

>  <SCORE.INTER.POLAR>
0

>  <SCORE.INTER.ROT>
11

>  <SCORE.INTER.SOLV>
18.1465

>  <SCORE.INTER.VDW>
-17.2543

>  <SCORE.INTER.norm>
-0.029161

>  <SCORE.INTRA>
-2.60451

>  <SCORE.INTRA.DIHEDRAL>
-7.13937

>  <SCORE.INTRA.DIHEDRAL.0>
10.5765

>  <SCORE.INTRA.POLAR>
0

>  <SCORE.INTRA.POLAR.0>
0

>  <SCORE.INTRA.REPUL>
0

>  <SCORE.INTRA.REPUL.0>
0

>  <SCORE.INTRA.SOLV>
1.014

>  <SCORE.INTRA.SOLV.lig_0>
-50.1861

>  <SCORE.INTRA.VDW>
0.458175

>  <SCORE.INTRA.VDW.0>
-1.36671

>  <SCORE.INTRA.norm>
-0.186037

>  <SCORE.RESTR>
0

>  <SCORE.RESTR.CAVITY>
0

>  <SCORE.RESTR.norm>
0

>  <SCORE.SYSTEM>
0

>  <SCORE.SYSTEM.CONST>
0

>  <SCORE.SYSTEM.DIHEDRAL>
0

>  <SCORE.SYSTEM.SOLV>
0

>  <SCORE.SYSTEM.norm>
0

>  <SCORE.heavy>
14

>  <SCORE.norm>
-0.215198

>  <RMSD>
1.759

$$$$
ligand
 OpenBabel11021811393D
libRbt.so/2013.1/901 2013/11/27
 14 13  0  0  0  0  0  0  0  0999 V2000
   -5.3690    2.8188    7.6334 N   0  0  0  0  0  0  0  0  0  0  0  0
   -4.7380    2.5828    9.0060 C   0  0  0  0  0  0  0  0  0  0  0  0
   -3.5856    1.6775    8.7627 C   0  0  0  0  0  0  0  0  0  0  0  0
   -2.7626    1.3564    9.9997 C   0  0  0  0  0  0  0  0  0  0  0  0
   -1.6080    0.4996    9.6193 N   0  0  0  0  0  0  0  0  0  0  0  0
   -0.8376    0.0891   10.8873 C   0  0  0  0  0  0  0  0  0  0  0  0
    0.2877   -0.8872   10.2935 C   0  0  0  0  0  0  0  0  0  0  0  0
    1.0247   -1.3467   11.2756 C   0  0  0  0  0  0  0  0  0  0  0  0
    1.9223   -2.3790   10.3755 C   0  0  0  0  0  0  0  0  0  0  0  0
    2.7038   -3.0666   11.5450 N   0  0  0  0  0  0  0  0  0  0  0  0
    3.7641   -4.1320   11.0551 C   0  0  0  0  0  0  0  0  0  0  0  0
    2.9433   -5.5325   10.8744 C   0  0  0  0  0  0  0  0  0  0  0  0
    4.0133   -6.5268   10.5285 C   0  0  0  0  0  0  0  0  0  0  0  0
    4.4918   -6.1340    9.1506 N   0  0  0  0  0  0  0  0  0  0  0  0
  1  2  1  0  0  0  0
  2  3  1  0  0  0  0
  3  4  1  0  0  0  0
  4  5  1  0  0  0  0
  5  6  1  0  0  0  0
  6  7  1  0  0  0  0
  7  8  1  0  0  0  0
  8  9  1  0  0  0  0
  9 10  1  0  0  0  0
 10 11  1  0  0  0  0
 11 12  1  0  0  0  0
 12 13  1  0  0  0  0
 13 14  1  0  0  0  0
M  END
>  <CHROM.1>
177.29913572,-177.35527203,-175.76961136,176.50567707,-178.87052914,174.57812291
-173.84997676,-177.48616264,-85.65664733,-175.21058523,-68.52427085,0.16077648
-1.49862584,10.07212962,2.79559072,-0.70531908,0.84282370

>  <Name>
ligand

>  <RI>
0

>  <Rbt.Current_Directory>
/home/itssahil/PROJECTS/Mol_Feturizer/New_Systems/rnas/1FUF

>  <Rbt.Executable>
rbdock ($Id: //depot/dev/client3/rdock/2013.1/src/exe/rbdock.cxx#4 $)

>  <Rbt.Library>
libRbt.so (2013.1, Build901 2013/11/27)

>  <Rbt.Parameter_File>
/export/apps/rDock/src/rDock_2013.1_src/data/scripts/dock_solv.prm

>  <Rbt.Receptor>
prm/pocket_docking_3.prm

>  <SCORE>
-6.36354

>  <SCORE.INTER>
-2.52698

>  <SCORE.INTER.CONST>
1

>  <SCORE.INTER.POLAR>
0

>  <SCORE.INTER.ROT>
11

>  <SCORE.INTER.SOLV>
16.191

>  <SCORE.INTER.VDW>
-18.015

>  <SCORE.INTER.norm>
-0.180498

>  <SCORE.INTRA>
-3.83656

>  <SCORE.INTRA.DIHEDRAL>
-9.40203

>  <SCORE.INTRA.DIHEDRAL.0>
10.5765

>  <SCORE.INTRA.POLAR>
0

>  <SCORE.INTRA.POLAR.0>
0

>  <SCORE.INTRA.REPUL>
0

>  <SCORE.INTRA.REPUL.0>
0

>  <SCORE.INTRA.SOLV>
0.805072

>  <SCORE.INTRA.SOLV.lig_0>
-50.1861

>  <SCORE.INTRA.VDW>
0.461917

>  <SCORE.INTRA.VDW.0>
-1.36671

>  <SCORE.INTRA.norm>
-0.27404

>  <SCORE.RESTR>
0

>  <SCORE.RESTR.CAVITY>
0

>  <SCORE.RESTR.norm>
0

>  <SCORE.SYSTEM>
0

>  <SCORE.SYSTEM.CONST>
0

>  <SCORE.SYSTEM.DIHEDRAL>
0

>  <SCORE.SYSTEM.SOLV>
0

>  <SCORE.SYSTEM.norm>
0

>  <SCORE.heavy>
14

>  <SCORE.norm>
-0.454539

>  <RMSD>
1.759

$$$$
ligand
 OpenBabel11021811393D
libRbt.so/2013.1/901 2013/11/27
 14 13  0  0  0  0  0  0  0  0999 V2000
   -5.4229    1.9564    9.0955 N   0  0  0  0  0  0  0  0  0  0  0  0
   -3.9555    1.8472    8.6795 C   0  0  0  0  0  0  0  0  0  0  0  0
   -3.3128    0.9936    9.7115 C   0  0  0  0  0  0  0  0  0  0  0  0
   -1.8238    0.7674    9.5060 C   0  0  0  0  0  0  0  0  0  0  0  0
   -1.2995   -0.1040   10.5914 N   0  0  0  0  0  0  0  0  0  0  0  0
    0.2252   -0.2499   10.4370 C   0  0  0  0  0  0  0  0  0  0  0  0
    0.4290   -1.8312   10.6096 C   0  0  0  0  0  0  0  0  0  0  0  0
    1.7083   -2.1119   10.5528 C   0  0  0  0  0  0  0  0  0  0  0  0
    1.5523   -3.7394   10.6450 C   0  0  0  0  0  0  0  0  0  0  0  0
    3.0704   -4.1107   10.5511 N   0  0  0  0  0  0  0  0  0  0  0  0
    3.3352   -5.5231    9.8923 C   0  0  0  0  0  0  0  0  0  0  0  0
    4.9013   -5.8740   10.1958 C   0  0  0  0  0  0  0  0  0  0  0  0
    5.1426   -7.1260    9.4037 C   0  0  0  0  0  0  0  0  0  0  0  0
    5.1816   -6.6829    7.9601 N   0  0  0  0  0  0  0  0  0  0  0  0
  1  2  1  0  0  0  0
  2  3  1  0  0  0  0
  3  4  1  0  0  0  0
  4  5  1  0  0  0  0
  5  6  1  0  0  0  0
  6  7  1  0  0  0  0
  7  8  1  0  0  0  0
  8  9  1  0  0  0  0
  9 10  1  0  0  0  0
 10 11  1  0  0  0  0
 11 12  1  0  0  0  0
 12 13  1  0  0  0  0
 13 14  1  0  0  0  0
M  END
>  <CHROM.1>
-179.04638063,-179.64351962,-176.03723806,-133.22330004,-177.57180408,-176.11541912
178.95050161,-150.83091094,-167.22700049,-172.93746100,72.75792886,0.69520154
-2.27061524,9.84521479,2.76452844,-0.66123605,0.98516895

>  <Name>
ligand

>  <RI>
0

>  <Rbt.Current_Directory>
/home/itssahil/PROJECTS/Mol_Feturizer/New_Systems/rnas/1FUF

>  <Rbt.Executable>
rbdock ($Id: //depot/dev/client3/rdock/2013.1/src/exe/rbdock.cxx#4 $)

>  <Rbt.Library>
libRbt.so (2013.1, Build901 2013/11/27)

>  <Rbt.Parameter_File>
/export/apps/rDock/src/rDock_2013.1_src/data/scripts/dock_solv.prm

>  <Rbt.Receptor>
prm/blind_docking_80.prm

>  <SCORE>
-4.97382

>  <SCORE.INTER>
-1.70438

>  <SCORE.INTER.CONST>
1

>  <SCORE.INTER.POLAR>
0

>  <SCORE.INTER.ROT>
11

>  <SCORE.INTER.SOLV>
14.514

>  <SCORE.INTER.VDW>
-16.9076

>  <SCORE.INTER.norm>
-0.121742

>  <SCORE.INTRA>
-3.26943

>  <SCORE.INTRA.DIHEDRAL>
-7.92535

>  <SCORE.INTRA.DIHEDRAL.0>
10.5765

>  <SCORE.INTRA.POLAR>
0

>  <SCORE.INTRA.POLAR.0>
0

>  <SCORE.INTRA.REPUL>
0

>  <SCORE.INTRA.REPUL.0>
0

>  <SCORE.INTRA.SOLV>
0.815999

>  <SCORE.INTRA.SOLV.lig_0>
-50.1861

>  <SCORE.INTRA.VDW>
0.285243

>  <SCORE.INTRA.VDW.0>
-1.36671

>  <SCORE.INTRA.norm>
-0.233531

>  <SCORE.RESTR>
0

>  <SCORE.RESTR.CAVITY>
0

>  <SCORE.RESTR.norm>
0

>  <SCORE.SYSTEM>
0

>  <SCORE.SYSTEM.CONST>
0

>  <SCORE.SYSTEM.DIHEDRAL>
0

>  <SCORE.SYSTEM.SOLV>
0

>  <SCORE.SYSTEM.norm>
0

>  <SCORE.heavy>
14

>  <SCORE.norm>
-0.355273

>  <RMSD>
1.760

$$$$
ligand
 OpenBabel11021811393D
libRbt.so/2013.1/901 2013/11/27
 14 13  0  0  0  0  0  0  0  0999 V2000
   -5.1032    2.6598    8.1704 N   0  0  0  0  0  0  0  0  0  0  0  0
   -4.5246    2.1810    9.5023 C   0  0  0  0  0  0  0  0  0  0  0  0
   -3.2455    1.5076    9.1602 C   0  0  0  0  0  0  0  0  0  0  0  0
   -2.5044    0.9184   10.3493 C   0  0  0  0  0  0  0  0  0  0  0  0
   -1.2314    0.3040    9.8862 N   0  0  0  0  0  0  0  0  0  0  0  0
   -0.6200   -0.5262   11.0294 C   0  0  0  0  0  0  0  0  0  0  0  0
    0.7383   -1.0607   10.3651 C   0  0  0  0  0  0  0  0  0  0  0  0
    1.3637   -1.8332   11.2199 C   0  0  0  0  0  0  0  0  0  0  0  0
    2.5948   -2.2601   10.2279 C   0  0  0  0  0  0  0  0  0  0  0  0
    3.2833   -3.3040   11.1700 N   0  0  0  0  0  0  0  0  0  0  0  0
    4.4168   -4.1453   10.4583 C   0  0  0  0  0  0  0  0  0  0  0  0
    3.6527   -5.3625    9.6821 C   0  0  0  0  0  0  0  0  0  0  0  0
    4.7751   -6.1585    9.0824 C   0  0  0  0  0  0  0  0  0  0  0  0
    4.1063   -7.2760    8.3170 N   0  0  0  0  0  0  0  0  0  0  0  0
  1  2  1  0  0  0  0
  2  3  1  0  0  0  0
  3  4  1  0  0  0  0
  4  5  1  0  0  0  0
  5  6  1  0  0  0  0
  6  7  1  0  0  0  0
  7  8  1  0  0  0  0
  8  9  1  0  0  0  0
  9 10  1  0  0  0  0
 10 11  1  0  0  0  0
 11 12  1  0  0  0  0
 12 13  1  0  0  0  0
 13 14  1  0  0  0  0
M  END
>  <CHROM.1>
-178.68708883,-178.64948125,-168.98951271,-178.40036672,-178.04703212,176.65991189
-174.39397814,170.20349246,-83.18052323,-177.47337665,-178.34404050,0.55025358
-1.73963077,9.90167812,2.67660752,-0.60131590,0.80874559

>  <Name>
ligand

>  <RI>
0

>  <Rbt.Current_Directory>
/home/itssahil/PROJECTS/Mol_Feturizer/New_Systems/rnas/1FUF

>  <Rbt.Executable>
rbdock ($Id: //depot/dev/client3/rdock/2013.1/src/exe/rbdock.cxx#4 $)

>  <Rbt.Library>
libRbt.so (2013.1, Build901 2013/11/27)

>  <Rbt.Parameter_File>
/export/apps/rDock/src/rDock_2013.1_src/data/scripts/dock_solv.prm

>  <Rbt.Receptor>
prm/blind_docking_20.prm

>  <SCORE>
-6.22863

>  <SCORE.INTER>
-1.36655

>  <SCORE.INTER.CONST>
1

>  <SCORE.INTER.POLAR>
0

>  <SCORE.INTER.ROT>
11

>  <SCORE.INTER.SOLV>
18.4448

>  <SCORE.INTER.VDW>
-17.9926

>  <SCORE.INTER.norm>
-0.0976111

>  <SCORE.INTRA>
-4.86208

>  <SCORE.INTRA.DIHEDRAL>
-9.78284

>  <SCORE.INTRA.DIHEDRAL.0>
10.5765

>  <SCORE.INTRA.POLAR>
0

>  <SCORE.INTRA.POLAR.0>
0

>  <SCORE.INTRA.REPUL>
0

>  <SCORE.INTRA.REPUL.0>
0

>  <SCORE.INTRA.SOLV>
-0.150876

>  <SCORE.INTRA.SOLV.lig_0>
-50.1861

>  <SCORE.INTRA.VDW>
0.104782

>  <SCORE.INTRA.VDW.0>
-1.36671

>  <SCORE.INTRA.norm>
-0.347291

>  <SCORE.RESTR>
0

>  <SCORE.RESTR.CAVITY>
0

>  <SCORE.RESTR.norm>
0

>  <SCORE.SYSTEM>
0

>  <SCORE.SYSTEM.CONST>
0

>  <SCORE.SYSTEM.DIHEDRAL>
0

>  <SCORE.SYSTEM.SOLV>
0

>  <SCORE.SYSTEM.norm>
0

>  <SCORE.heavy>
14

>  <SCORE.norm>
-0.444902

>  <RMSD>
1.770

$$$$
ligand
 OpenBabel11021811393D
libRbt.so/2013.1/901 2013/11/27
 14 13  0  0  0  0  0  0  0  0999 V2000
   -4.1739    1.8891    8.3640 N   0  0  0  0  0  0  0  0  0  0  0  0
   -3.9772    0.4907    8.9503 C   0  0  0  0  0  0  0  0  0  0  0  0
   -3.5838    0.7059   10.3665 C   0  0  0  0  0  0  0  0  0  0  0  0
   -2.2338    1.3795   10.5515 C   0  0  0  0  0  0  0  0  0  0  0  0
   -1.1636    0.5072    9.9982 N   0  0  0  0  0  0  0  0  0  0  0  0
   -0.6255   -0.4091   11.1121 C   0  0  0  0  0  0  0  0  0  0  0  0
    0.6671   -1.0561   10.4175 C   0  0  0  0  0  0  0  0  0  0  0  0
    1.2387   -1.8870   11.2551 C   0  0  0  0  0  0  0  0  0  0  0  0
    2.4351   -2.3792   10.2511 C   0  0  0  0  0  0  0  0  0  0  0  0
    3.0597   -3.4771   11.1763 N   0  0  0  0  0  0  0  0  0  0  0  0
    2.9057   -4.9440   10.6075 C   0  0  0  0  0  0  0  0  0  0  0  0
    4.1702   -5.1697    9.5985 C   0  0  0  0  0  0  0  0  0  0  0  0
    3.9243   -6.5344    9.0238 C   0  0  0  0  0  0  0  0  0  0  0  0
    5.1205   -6.8187    8.1464 N   0  0  0  0  0  0  0  0  0  0  0  0
  1  2  1  0  0  0  0
  2  3  1  0  0  0  0
  3  4  1  0  0  0  0
  4  5  1  0  0  0  0
  5  6  1  0  0  0  0
  6  7  1  0  0  0  0
  7  8  1  0  0  0  0
  8  9  1  0  0  0  0
  9 10  1  0  0  0  0
 10 11  1  0  0  0  0
 11 12  1  0  0  0  0
 12 13  1  0  0  0  0
 13 14  1  0  0  0  0
M  END
>  <CHROM.1>
-66.08274907,-63.11933099,-91.54898609,-169.93053201,-179.40895419,178.28592985
-174.92594112,114.22300985,85.49685042,-176.44258380,-176.58920633,0.55446156
-1.97878065,9.98728177,2.68808728,-0.61478927,0.89766200

>  <Name>
ligand

>  <RI>
0

>  <Rbt.Current_Directory>
/home/itssahil/PROJECTS/Mol_Feturizer/New_Systems/rnas/1FUF

>  <Rbt.Executable>
rbdock ($Id: //depot/dev/client3/rdock/2013.1/src/exe/rbdock.cxx#4 $)

>  <Rbt.Library>
libRbt.so (2013.1, Build901 2013/11/27)

>  <Rbt.Parameter_File>
/export/apps/rDock/src/rDock_2013.1_src/data/scripts/dock_solv.prm

>  <Rbt.Receptor>
prm/blind_docking_60.prm

>  <SCORE>
-4.994

>  <SCORE.INTER>
-2.41486

>  <SCORE.INTER.CONST>
1

>  <SCORE.INTER.POLAR>
0

>  <SCORE.INTER.ROT>
11

>  <SCORE.INTER.SOLV>
15.6071

>  <SCORE.INTER.VDW>
-17.7456

>  <SCORE.INTER.norm>
-0.17249

>  <SCORE.INTRA>
-2.57914

>  <SCORE.INTRA.DIHEDRAL>
-7.83614

>  <SCORE.INTRA.DIHEDRAL.0>
10.5765

>  <SCORE.INTRA.POLAR>
0

>  <SCORE.INTRA.POLAR.0>
0

>  <SCORE.INTRA.REPUL>
0

>  <SCORE.INTRA.REPUL.0>
0

>  <SCORE.INTRA.SOLV>
1.65084

>  <SCORE.INTRA.SOLV.lig_0>
-50.1861

>  <SCORE.INTRA.VDW>
0.513511

>  <SCORE.INTRA.VDW.0>
-1.36671

>  <SCORE.INTRA.norm>
-0.184224

>  <SCORE.RESTR>
0

>  <SCORE.RESTR.CAVITY>
0

>  <SCORE.RESTR.norm>
0

>  <SCORE.SYSTEM>
0

>  <SCORE.SYSTEM.CONST>
0

>  <SCORE.SYSTEM.DIHEDRAL>
0

>  <SCORE.SYSTEM.SOLV>
0

>  <SCORE.SYSTEM.norm>
0

>  <SCORE.heavy>
14

>  <SCORE.norm>
-0.356714

>  <RMSD>
1.771

$$$$
ligand
 OpenBabel11021811393D
libRbt.so/2013.1/901 2013/11/27
 14 13  0  0  0  0  0  0  0  0999 V2000
    4.6751   -6.5491    9.6353 N   0  0  0  0  0  0  0  0  0  0  0  0
    4.4867   -5.4163   10.6449 C   0  0  0  0  0  0  0  0  0  0  0  0
    3.1863   -4.7876   10.2980 C   0  0  0  0  0  0  0  0  0  0  0  0
    2.8464   -3.5496   11.1119 C   0  0  0  0  0  0  0  0  0  0  0  0
    1.5041   -3.0471   10.7143 N   0  0  0  0  0  0  0  0  0  0  0  0
    1.5013   -1.5084   10.7597 C   0  0  0  0  0  0  0  0  0  0  0  0
   -0.0534   -1.1707   10.5577 C   0  0  0  0  0  0  0  0  0  0  0  0
   -0.2070    0.1284   10.4720 C   0  0  0  0  0  0  0  0  0  0  0  0
   -1.8359    0.1187   10.3045 C   0  0  0  0  0  0  0  0  0  0  0  0
   -2.0534    1.6649   10.1878 N   0  0  0  0  0  0  0  0  0  0  0  0
   -2.6367    2.1165    8.7897 C   0  0  0  0  0  0  0  0  0  0  0  0
   -4.2564    2.1981    8.9839 C   0  0  0  0  0  0  0  0  0  0  0  0
   -4.7414    2.7532    7.6763 C   0  0  0  0  0  0  0  0  0  0  0  0
   -6.2356    2.9049    7.8374 N   0  0  0  0  0  0  0  0  0  0  0  0
  1  2  1  0  0  0  0
  2  3  1  0  0  0  0
  3  4  1  0  0  0  0
  4  5  1  0  0  0  0
  5  6  1  0  0  0  0
  6  7  1  0  0  0  0
  7  8  1  0  0  0  0
  8  9  1  0  0  0  0
  9 10  1  0  0  0  0
 10 11  1  0  0  0  0
 11 12  1  0  0  0  0
 12 13  1  0  0  0  0
 13 14  1  0  0  0  0
M  END
>  <CHROM.1>
-175.17704400,-177.66799646,-144.01551070,-170.68203868,-175.25493645,-179.11774083
-179.59117163,116.14357574,94.44687143,174.80448806,-177.46596314,-0.27275103
-1.01019232,9.85535219,0.37917353,0.67263129,-2.38824710

>  <Name>
ligand

>  <RI>
0

>  <Rbt.Current_Directory>
/home/itssahil/PROJECTS/Mol_Feturizer/New_Systems/rnas/1FUF

>  <Rbt.Executable>
rbdock ($Id: //depot/dev/client3/rdock/2013.1/src/exe/rbdock.cxx#4 $)

>  <Rbt.Library>
libRbt.so (2013.1, Build901 2013/11/27)

>  <Rbt.Parameter_File>
/export/apps/rDock/src/rDock_2013.1_src/data/scripts/dock_solv.prm

>  <Rbt.Receptor>
prm/blind_docking_40.prm

>  <SCORE>
-5.26256

>  <SCORE.INTER>
-1.49683

>  <SCORE.INTER.CONST>
1

>  <SCORE.INTER.POLAR>
0

>  <SCORE.INTER.ROT>
11

>  <SCORE.INTER.SOLV>
16.3779

>  <SCORE.INTER.VDW>
-17.3905

>  <SCORE.INTER.norm>
-0.106917

>  <SCORE.INTRA>
-3.76573

>  <SCORE.INTRA.DIHEDRAL>
-7.47278

>  <SCORE.INTRA.DIHEDRAL.0>
10.5765

>  <SCORE.INTRA.POLAR>
0

>  <SCORE.INTRA.POLAR.0>
0

>  <SCORE.INTRA.REPUL>
0

>  <SCORE.INTRA.REPUL.0>
0

>  <SCORE.INTRA.SOLV>
-0.145205

>  <SCORE.INTRA.SOLV.lig_0>
-50.1861

>  <SCORE.INTRA.VDW>
0.0432606

>  <SCORE.INTRA.VDW.0>
-1.36671

>  <SCORE.INTRA.norm>
-0.268981

>  <SCORE.RESTR>
0

>  <SCORE.RESTR.CAVITY>
0

>  <SCORE.RESTR.norm>
0

>  <SCORE.SYSTEM>
0

>  <SCORE.SYSTEM.CONST>
0

>  <SCORE.SYSTEM.DIHEDRAL>
0

>  <SCORE.SYSTEM.SOLV>
0

>  <SCORE.SYSTEM.norm>
0

>  <SCORE.heavy>
14

>  <SCORE.norm>
-0.375897

>  <RMSD>
1.772

$$$$
ligand
 OpenBabel11021811393D
libRbt.so/2013.1/901 2013/11/27
 14 13  0  0  0  0  0  0  0  0999 V2000
   -4.5220    0.7234   10.3138 N   0  0  0  0  0  0  0  0  0  0  0  0
   -3.5497    0.5812    9.1423 C   0  0  0  0  0  0  0  0  0  0  0  0
   -2.4434    1.5308    9.4272 C   0  0  0  0  0  0  0  0  0  0  0  0
   -1.5383    1.1191   10.5769 C   0  0  0  0  0  0  0  0  0  0  0  0
   -0.6784   -0.0169   10.1497 N   0  0  0  0  0  0  0  0  0  0  0  0
   -0.4791   -0.9796   11.3342 C   0  0  0  0  0  0  0  0  0  0  0  0
    0.4400   -2.1225   10.6853 C   0  0  0  0  0  0  0  0  0  0  0  0
    1.6919   -1.7340   10.7038 C   0  0  0  0  0  0  0  0  0  0  0  0
    2.3349   -3.1310   10.1411 C   0  0  0  0  0  0  0  0  0  0  0  0
    3.8467   -2.7587   10.3067 N   0  0  0  0  0  0  0  0  0  0  0  0
    4.7672   -3.3302    9.1556 C   0  0  0  0  0  0  0  0  0  0  0  0
    4.7443   -4.9544    9.3265 C   0  0  0  0  0  0  0  0  0  0  0  0
    5.4778   -5.4476    8.1133 C   0  0  0  0  0  0  0  0  0  0  0  0
    6.9270   -5.0954    8.3533 N   0  0  0  0  0  0  0  0  0  0  0  0
  1  2  1  0  0  0  0
  2  3  1  0  0  0  0
  3  4  1  0  0  0  0
  4  5  1  0  0  0  0
  5  6  1  0  0  0  0
  6  7  1  0  0  0  0
  7  8  1  0  0  0  0
  8  9  1  0  0  0  0
  9 10  1  0  0  0  0
 10 11  1  0  0  0  0
 11 12  1  0  0  0  0
 12 13  1  0  0  0  0
 13 14  1  0  0  0  0
M  END
>  <CHROM.1>
70.91440570,72.95079190,-143.81620368,179.37474911,82.54675421,174.64368886
-173.82184649,-143.67034344,-66.69283815,172.83882517,71.93396235,1.21555697
-1.82973469,9.83785094,2.88928748,-0.53684903,1.31252872

>  <Name>
ligand

>  <RI>
0

>  <Rbt.Current_Directory>
/home/itssahil/PROJECTS/Mol_Feturizer/New_Systems/rnas/1FUF

>  <Rbt.Executable>
rbdock ($Id: //depot/dev/client3/rdock/2013.1/src/exe/rbdock.cxx#4 $)

>  <Rbt.Library>
libRbt.so (2013.1, Build901 2013/11/27)

>  <Rbt.Parameter_File>
/export/apps/rDock/src/rDock_2013.1_src/data/scripts/dock_solv.prm

>  <Rbt.Receptor>
prm/pocket_docking_2.prm

>  <SCORE>
0.0987104

>  <SCORE.INTER>
0.477582

>  <SCORE.INTER.CONST>
1

>  <SCORE.INTER.POLAR>
0

>  <SCORE.INTER.ROT>
11

>  <SCORE.INTER.SOLV>
18.8706

>  <SCORE.INTER.VDW>
-16.9052

>  <SCORE.INTER.norm>
0.034113

>  <SCORE.INTRA>
-0.379793

>  <SCORE.INTRA.DIHEDRAL>
-5.21837

>  <SCORE.INTRA.DIHEDRAL.0>
10.5765

>  <SCORE.INTRA.POLAR>
0

>  <SCORE.INTRA.POLAR.0>
0

>  <SCORE.INTRA.REPUL>
0

>  <SCORE.INTRA.REPUL.0>
0

>  <SCORE.INTRA.SOLV>
2.67512

>  <SCORE.INTRA.SOLV.lig_0>
-50.1861

>  <SCORE.INTRA.VDW>
0.891833

>  <SCORE.INTRA.VDW.0>
-1.36671

>  <SCORE.INTRA.norm>
-0.0271281

>  <SCORE.RESTR>
0.000921789

>  <SCORE.RESTR.CAVITY>
0.000921789

>  <SCORE.RESTR.norm>
6.5842e-05

>  <SCORE.SYSTEM>
0

>  <SCORE.SYSTEM.CONST>
0

>  <SCORE.SYSTEM.DIHEDRAL>
0

>  <SCORE.SYSTEM.SOLV>
0

>  <SCORE.SYSTEM.norm>
0

>  <SCORE.heavy>
14

>  <SCORE.norm>
0.00705074

>  <RMSD>
1.776

$$$$
ligand
 OpenBabel11021811393D
libRbt.so/2013.1/901 2013/11/27
 14 13  0  0  0  0  0  0  0  0999 V2000
    4.7486   -4.7663    9.7194 N   0  0  0  0  0  0  0  0  0  0  0  0
    3.6353   -4.8094   10.7667 C   0  0  0  0  0  0  0  0  0  0  0  0
    2.6441   -3.7909   10.3345 C   0  0  0  0  0  0  0  0  0  0  0  0
    3.0183   -2.3589   10.6807 C   0  0  0  0  0  0  0  0  0  0  0  0
    2.0645   -1.4243   10.0257 N   0  0  0  0  0  0  0  0  0  0  0  0
    0.8487   -1.2086   10.9452 C   0  0  0  0  0  0  0  0  0  0  0  0
   -0.1297   -0.3488   10.0096 C   0  0  0  0  0  0  0  0  0  0  0  0
   -1.2299   -0.0761   10.6682 C   0  0  0  0  0  0  0  0  0  0  0  0
   -2.0217    0.6452    9.4295 C   0  0  0  0  0  0  0  0  0  0  0  0
   -3.3553    0.9714   10.1823 N   0  0  0  0  0  0  0  0  0  0  0  0
   -4.6523    0.6017    9.3575 C   0  0  0  0  0  0  0  0  0  0  0  0
   -5.7379    1.7799    9.6756 C   0  0  0  0  0  0  0  0  0  0  0  0
   -5.1668    2.9828    8.9828 C   0  0  0  0  0  0  0  0  0  0  0  0
   -5.4959    2.7941    7.5206 N   0  0  0  0  0  0  0  0  0  0  0  0
  1  2  1  0  0  0  0
  2  3  1  0  0  0  0
  3  4  1  0  0  0  0
  4  5  1  0  0  0  0
  5  6  1  0  0  0  0
  6  7  1  0  0  0  0
  7  8  1  0  0  0  0
  8  9  1  0  0  0  0
  9 10  1  0  0  0  0
 10 11  1  0  0  0  0
 11 12  1  0  0  0  0
 12 13  1  0  0  0  0
 13 14  1  0  0  0  0
M  END
>  <CHROM.1>
-79.43353563,171.56887911,87.61685576,-173.03366962,-179.74909182,-174.94431823
179.40266772,-134.16428551,-142.59428741,69.74841686,77.94135538,-0.77369261
-0.64346382,9.87865882,-0.20457578,0.57941747,-1.43982625

>  <Name>
ligand

>  <RI>
0

>  <Rbt.Current_Directory>
/home/itssahil/PROJECTS/Mol_Feturizer/New_Systems/rnas/1FUF

>  <Rbt.Executable>
rbdock ($Id: //depot/dev/client3/rdock/2013.1/src/exe/rbdock.cxx#4 $)

>  <Rbt.Library>
libRbt.so (2013.1, Build901 2013/11/27)

>  <Rbt.Parameter_File>
/export/apps/rDock/src/rDock_2013.1_src/data/scripts/dock_solv.prm

>  <Rbt.Receptor>
prm/pocket_docking_8.prm

>  <SCORE>
-3.01549

>  <SCORE.INTER>
-2.21423

>  <SCORE.INTER.CONST>
1

>  <SCORE.INTER.POLAR>
0

>  <SCORE.INTER.ROT>
11

>  <SCORE.INTER.SOLV>
15.7179

>  <SCORE.INTER.VDW>
-17.6488

>  <SCORE.INTER.norm>
-0.158159

>  <SCORE.INTRA>
-0.801262

>  <SCORE.INTRA.DIHEDRAL>
-4.97722

>  <SCORE.INTRA.DIHEDRAL.0>
10.5765

>  <SCORE.INTRA.POLAR>
0

>  <SCORE.INTRA.POLAR.0>
0

>  <SCORE.INTRA.REPUL>
0

>  <SCORE.INTRA.REPUL.0>
0

>  <SCORE.INTRA.SOLV>
2.35215

>  <SCORE.INTRA.SOLV.lig_0>
-50.1861

>  <SCORE.INTRA.VDW>
0.511276

>  <SCORE.INTRA.VDW.0>
-1.36671

>  <SCORE.INTRA.norm>
-0.057233

>  <SCORE.RESTR>
0

>  <SCORE.RESTR.CAVITY>
0

>  <SCORE.RESTR.norm>
0

>  <SCORE.SYSTEM>
0

>  <SCORE.SYSTEM.CONST>
0

>  <SCORE.SYSTEM.DIHEDRAL>
0

>  <SCORE.SYSTEM.SOLV>
0

>  <SCORE.SYSTEM.norm>
0

>  <SCORE.heavy>
14

>  <SCORE.norm>
-0.215392

>  <RMSD>
1.777

$$$$
ligand
 OpenBabel11021811393D
libRbt.so/2013.1/901 2013/11/27
 14 13  0  0  0  0  0  0  0  0999 V2000
   -4.3049    1.9855    8.5911 N   0  0  0  0  0  0  0  0  0  0  0  0
   -4.5193    0.7300    9.4371 C   0  0  0  0  0  0  0  0  0  0  0  0
   -3.3658    0.6796   10.3718 C   0  0  0  0  0  0  0  0  0  0  0  0
   -2.0153    0.4961    9.6989 C   0  0  0  0  0  0  0  0  0  0  0  0
   -0.9733    0.2582   10.7333 N   0  0  0  0  0  0  0  0  0  0  0  0
    0.3481   -0.1313   10.0463 C   0  0  0  0  0  0  0  0  0  0  0  0
    0.9010   -1.2843   11.0142 C   0  0  0  0  0  0  0  0  0  0  0  0
    1.9758   -1.8161   10.4845 C   0  0  0  0  0  0  0  0  0  0  0  0
    2.2983   -2.8563   11.7075 C   0  0  0  0  0  0  0  0  0  0  0  0
    3.5488   -3.5557   11.0763 N   0  0  0  0  0  0  0  0  0  0  0  0
    3.1945   -4.8554   10.2491 C   0  0  0  0  0  0  0  0  0  0  0  0
    4.5795   -5.3106    9.5126 C   0  0  0  0  0  0  0  0  0  0  0  0
    4.1672   -6.4930    8.6849 C   0  0  0  0  0  0  0  0  0  0  0  0
    5.4388   -6.9892    8.0377 N   0  0  0  0  0  0  0  0  0  0  0  0
  1  2  1  0  0  0  0
  2  3  1  0  0  0  0
  3  4  1  0  0  0  0
  4  5  1  0  0  0  0
  5  6  1  0  0  0  0
  6  7  1  0  0  0  0
  7  8  1  0  0  0  0
  8  9  1  0  0  0  0
  9 10  1  0  0  0  0
 10 11  1  0  0  0  0
 11 12  1  0  0  0  0
 12 13  1  0  0  0  0
 13 14  1  0  0  0  0
M  END
>  <CHROM.1>
-64.20940128,-171.62409440,171.74499541,-140.02989732,173.87813588,177.65672511
177.67799253,-91.98336042,172.39171958,-176.83921985,-177.25329728,0.80518891
-2.08160744,9.97481574,2.68317153,-0.57215207,0.87189673

>  <Name>
ligand

>  <RI>
0

>  <Rbt.Current_Directory>
/home/itssahil/PROJECTS/Mol_Feturizer/New_Systems/rnas/1FUF

>  <Rbt.Executable>
rbdock ($Id: //depot/dev/client3/rdock/2013.1/src/exe/rbdock.cxx#4 $)

>  <Rbt.Library>
libRbt.so (2013.1, Build901 2013/11/27)

>  <Rbt.Parameter_File>
/export/apps/rDock/src/rDock_2013.1_src/data/scripts/dock_solv.prm

>  <Rbt.Receptor>
prm/pocket_docking_3.prm

>  <SCORE>
-5.24807

>  <SCORE.INTER>
-1.73465

>  <SCORE.INTER.CONST>
1

>  <SCORE.INTER.POLAR>
0

>  <SCORE.INTER.ROT>
11

>  <SCORE.INTER.SOLV>
15.7391

>  <SCORE.INTER.VDW>
-17.3361

>  <SCORE.INTER.norm>
-0.123903

>  <SCORE.INTRA>
-3.51342

>  <SCORE.INTRA.DIHEDRAL>
-8.3348

>  <SCORE.INTRA.DIHEDRAL.0>
10.5765

>  <SCORE.INTRA.POLAR>
0

>  <SCORE.INTRA.POLAR.0>
0

>  <SCORE.INTRA.REPUL>
0

>  <SCORE.INTRA.REPUL.0>
0

>  <SCORE.INTRA.SOLV>
0.688511

>  <SCORE.INTRA.SOLV.lig_0>
-50.1861

>  <SCORE.INTRA.VDW>
0.309722

>  <SCORE.INTRA.VDW.0>
-1.36671

>  <SCORE.INTRA.norm>
-0.250959

>  <SCORE.RESTR>
0

>  <SCORE.RESTR.CAVITY>
0

>  <SCORE.RESTR.norm>
0

>  <SCORE.SYSTEM>
0

>  <SCORE.SYSTEM.CONST>
0

>  <SCORE.SYSTEM.DIHEDRAL>
0

>  <SCORE.SYSTEM.SOLV>
0

>  <SCORE.SYSTEM.norm>
0

>  <SCORE.heavy>
14

>  <SCORE.norm>
-0.374862

>  <RMSD>
1.778

$$$$
ligand
 OpenBabel11021811393D
libRbt.so/2013.1/901 2013/11/27
 14 13  0  0  0  0  0  0  0  0999 V2000
    4.9342   -5.4447    9.2048 N   0  0  0  0  0  0  0  0  0  0  0  0
    4.8514   -5.3988   10.7309 C   0  0  0  0  0  0  0  0  0  0  0  0
    3.5764   -6.0765   11.0797 C   0  0  0  0  0  0  0  0  0  0  0  0
    2.3255   -5.3370   10.6337 C   0  0  0  0  0  0  0  0  0  0  0  0
    2.2343   -4.0376   11.3517 N   0  0  0  0  0  0  0  0  0  0  0  0
    2.0715   -2.8994   10.3281 C   0  0  0  0  0  0  0  0  0  0  0  0
    1.0435   -1.9216   11.0760 C   0  0  0  0  0  0  0  0  0  0  0  0
    0.6839   -0.9630   10.2573 C   0  0  0  0  0  0  0  0  0  0  0  0
   -0.5791   -0.4161   11.1448 C   0  0  0  0  0  0  0  0  0  0  0  0
   -1.2006    0.5422   10.0740 N   0  0  0  0  0  0  0  0  0  0  0  0
   -2.6340    1.0816   10.4658 C   0  0  0  0  0  0  0  0  0  0  0  0
   -3.3021    1.6298    9.0798 C   0  0  0  0  0  0  0  0  0  0  0  0
   -4.6547    2.1192    9.5092 C   0  0  0  0  0  0  0  0  0  0  0  0
   -5.3409    2.5601    8.2377 N   0  0  0  0  0  0  0  0  0  0  0  0
  1  2  1  0  0  0  0
  2  3  1  0  0  0  0
  3  4  1  0  0  0  0
  4  5  1  0  0  0  0
  5  6  1  0  0  0  0
  6  7  1  0  0  0  0
  7  8  1  0  0  0  0
  8  9  1  0  0  0  0
  9 10  1  0  0  0  0
 10 11  1  0  0  0  0
 11 12  1  0  0  0  0
 12 13  1  0  0  0  0
 13 14  1  0  0  0  0
M  END
>  <CHROM.1>
-66.84659090,-64.34192554,126.68035718,142.08014118,-172.91844945,166.62204781
-169.61046614,169.18510828,-162.00263705,179.70303605,-176.68039058,0.28641886
-1.75448050,10.22688554,0.03264485,0.75356280,-1.78417344

>  <Name>
ligand

>  <RI>
0

>  <Rbt.Current_Directory>
/home/itssahil/PROJECTS/Mol_Feturizer/New_Systems/rnas/1FUF

>  <Rbt.Executable>
rbdock ($Id: //depot/dev/client3/rdock/2013.1/src/exe/rbdock.cxx#4 $)

>  <Rbt.Library>
libRbt.so (2013.1, Build901 2013/11/27)

>  <Rbt.Parameter_File>
/export/apps/rDock/src/rDock_2013.1_src/data/scripts/dock_solv.prm

>  <Rbt.Receptor>
prm/blind_docking_40.prm

>  <SCORE>
-4.82216

>  <SCORE.INTER>
-2.71276

>  <SCORE.INTER.CONST>
1

>  <SCORE.INTER.POLAR>
0

>  <SCORE.INTER.ROT>
11

>  <SCORE.INTER.SOLV>
14.8199

>  <SCORE.INTER.VDW>
-17.6818

>  <SCORE.INTER.norm>
-0.193769

>  <SCORE.INTRA>
-2.1094

>  <SCORE.INTRA.DIHEDRAL>
-6.63527

>  <SCORE.INTRA.DIHEDRAL.0>
10.5765

>  <SCORE.INTRA.POLAR>
0

>  <SCORE.INTRA.POLAR.0>
0

>  <SCORE.INTRA.REPUL>
0

>  <SCORE.INTRA.REPUL.0>
0

>  <SCORE.INTRA.SOLV>
2.14745

>  <SCORE.INTRA.SOLV.lig_0>
-50.1861

>  <SCORE.INTRA.VDW>
0.134508

>  <SCORE.INTRA.VDW.0>
-1.36671

>  <SCORE.INTRA.norm>
-0.150672

>  <SCORE.RESTR>
0

>  <SCORE.RESTR.CAVITY>
0

>  <SCORE.RESTR.norm>
0

>  <SCORE.SYSTEM>
0

>  <SCORE.SYSTEM.CONST>
0

>  <SCORE.SYSTEM.DIHEDRAL>
0

>  <SCORE.SYSTEM.SOLV>
0

>  <SCORE.SYSTEM.norm>
0

>  <SCORE.heavy>
14

>  <SCORE.norm>
-0.34444

>  <RMSD>
1.780

$$$$
ligand
 OpenBabel11021811393D
libRbt.so/2013.1/901 2013/11/27
 14 13  0  0  0  0  0  0  0  0999 V2000
   -3.6261    1.9192    7.9332 N   0  0  0  0  0  0  0  0  0  0  0  0
   -4.1236    0.8488    8.9052 C   0  0  0  0  0  0  0  0  0  0  0  0
   -3.6867    1.3011   10.2511 C   0  0  0  0  0  0  0  0  0  0  0  0
   -2.1802    1.3190   10.4530 C   0  0  0  0  0  0  0  0  0  0  0  0
   -1.6524   -0.0694   10.3762 N   0  0  0  0  0  0  0  0  0  0  0  0
   -0.1657   -0.0729   10.7759 C   0  0  0  0  0  0  0  0  0  0  0  0
    0.2334   -1.6120   10.5660 C   0  0  0  0  0  0  0  0  0  0  0  0
    1.4960   -1.7783   10.8767 C   0  0  0  0  0  0  0  0  0  0  0  0
    1.5553   -3.3886   10.5848 C   0  0  0  0  0  0  0  0  0  0  0  0
    3.0175   -3.6475   11.0810 N   0  0  0  0  0  0  0  0  0  0  0  0
    3.4775   -5.1526   10.9316 C   0  0  0  0  0  0  0  0  0  0  0  0
    4.1246   -5.2784    9.4372 C   0  0  0  0  0  0  0  0  0  0  0  0
    4.5032   -6.7275    9.3371 C   0  0  0  0  0  0  0  0  0  0  0  0
    5.2055   -6.8649    8.0068 N   0  0  0  0  0  0  0  0  0  0  0  0
  1  2  1  0  0  0  0
  2  3  1  0  0  0  0
  3  4  1  0  0  0  0
  4  5  1  0  0  0  0
  5  6  1  0  0  0  0
  6  7  1  0  0  0  0
  7  8  1  0  0  0  0
  8  9  1  0  0  0  0
  9 10  1  0  0  0  0
 10 11  1  0  0  0  0
 11 12  1  0  0  0  0
 12 13  1  0  0  0  0
 13 14  1  0  0  0  0
M  END
>  <CHROM.1>
-65.95039638,-64.78864708,-172.09288556,-177.39267940,-179.78148277,179.14470719
-174.76710186,-178.98748078,88.89495223,-178.36889089,-175.72063130,0.58409619
-2.08597012,9.96565576,2.84195826,-0.71023999,1.12794371

>  <Name>
ligand

>  <RI>
0

>  <Rbt.Current_Directory>
/home/itssahil/PROJECTS/Mol_Feturizer/New_Systems/rnas/1FUF

>  <Rbt.Executable>
rbdock ($Id: //depot/dev/client3/rdock/2013.1/src/exe/rbdock.cxx#4 $)

>  <Rbt.Library>
libRbt.so (2013.1, Build901 2013/11/27)

>  <Rbt.Parameter_File>
/export/apps/rDock/src/rDock_2013.1_src/data/scripts/dock_solv.prm

>  <Rbt.Receptor>
prm/blind_docking_100.prm

>  <SCORE>
-5.69605

>  <SCORE.INTER>
-1.98641

>  <SCORE.INTER.CONST>
1

>  <SCORE.INTER.POLAR>
0

>  <SCORE.INTER.ROT>
11

>  <SCORE.INTER.SOLV>
16.0646

>  <SCORE.INTER.VDW>
-17.6125

>  <SCORE.INTER.norm>
-0.141886

>  <SCORE.INTRA>
-3.70964

>  <SCORE.INTRA.DIHEDRAL>
-9.54961

>  <SCORE.INTRA.DIHEDRAL.0>
10.5765

>  <SCORE.INTRA.POLAR>
0

>  <SCORE.INTRA.POLAR.0>
0

>  <SCORE.INTRA.REPUL>
0

>  <SCORE.INTRA.REPUL.0>
0

>  <SCORE.INTRA.SOLV>
1.61077

>  <SCORE.INTRA.SOLV.lig_0>
-50.1861

>  <SCORE.INTRA.VDW>
0.259779

>  <SCORE.INTRA.VDW.0>
-1.36671

>  <SCORE.INTRA.norm>
-0.264974

>  <SCORE.RESTR>
0

>  <SCORE.RESTR.CAVITY>
0

>  <SCORE.RESTR.norm>
0

>  <SCORE.SYSTEM>
0

>  <SCORE.SYSTEM.CONST>
0

>  <SCORE.SYSTEM.DIHEDRAL>
0

>  <SCORE.SYSTEM.SOLV>
0

>  <SCORE.SYSTEM.norm>
0

>  <SCORE.heavy>
14

>  <SCORE.norm>
-0.406861

>  <RMSD>
1.783

$$$$
ligand
 OpenBabel11021811393D
libRbt.so/2013.1/901 2013/11/27
 14 13  0  0  0  0  0  0  0  0999 V2000
    4.9695   -4.6614    9.7425 N   0  0  0  0  0  0  0  0  0  0  0  0
    3.9993   -3.7915   10.5425 C   0  0  0  0  0  0  0  0  0  0  0  0
    2.6869   -3.9307    9.8609 C   0  0  0  0  0  0  0  0  0  0  0  0
    1.5459   -3.1802   10.5283 C   0  0  0  0  0  0  0  0  0  0  0  0
    1.8349   -1.7212   10.5126 N   0  0  0  0  0  0  0  0  0  0  0  0
    0.7018   -0.9689   11.2336 C   0  0  0  0  0  0  0  0  0  0  0  0
   -0.1512   -0.3914   10.0044 C   0  0  0  0  0  0  0  0  0  0  0  0
   -1.1706    0.2908   10.4671 C   0  0  0  0  0  0  0  0  0  0  0  0
   -1.7632    0.7600    9.0144 C   0  0  0  0  0  0  0  0  0  0  0  0
   -2.9926    1.5788    9.5334 N   0  0  0  0  0  0  0  0  0  0  0  0
   -3.9085    2.1443    8.3756 C   0  0  0  0  0  0  0  0  0  0  0  0
   -5.2433    2.7365    9.1074 C   0  0  0  0  0  0  0  0  0  0  0  0
   -5.9260    1.5112    9.6420 C   0  0  0  0  0  0  0  0  0  0  0  0
   -7.2251    2.0052   10.2338 N   0  0  0  0  0  0  0  0  0  0  0  0
  1  2  1  0  0  0  0
  2  3  1  0  0  0  0
  3  4  1  0  0  0  0
  4  5  1  0  0  0  0
  5  6  1  0  0  0  0
  6  7  1  0  0  0  0
  7  8  1  0  0  0  0
  8  9  1  0  0  0  0
  9 10  1  0  0  0  0
 10 11  1  0  0  0  0
 11 12  1  0  0  0  0
 12 13  1  0  0  0  0
 13 14  1  0  0  0  0
M  END
>  <CHROM.1>
177.77970845,62.38983946,-177.99862591,-101.80980765,-179.83901227,178.07976839
179.82903605,-176.33984492,170.75186893,-67.73722696,-175.64973263,-0.90303720
-0.54411191,9.91412946,-0.52839255,0.25882885,-0.55540186

>  <Name>
ligand

>  <RI>
0

>  <Rbt.Current_Directory>
/home/itssahil/PROJECTS/Mol_Feturizer/New_Systems/rnas/1FUF

>  <Rbt.Executable>
rbdock ($Id: //depot/dev/client3/rdock/2013.1/src/exe/rbdock.cxx#4 $)

>  <Rbt.Library>
libRbt.so (2013.1, Build901 2013/11/27)

>  <Rbt.Parameter_File>
/export/apps/rDock/src/rDock_2013.1_src/data/scripts/dock_solv.prm

>  <Rbt.Receptor>
prm/blind_docking_60.prm

>  <SCORE>
-4.41567

>  <SCORE.INTER>
-0.517677

>  <SCORE.INTER.CONST>
1

>  <SCORE.INTER.POLAR>
0

>  <SCORE.INTER.ROT>
11

>  <SCORE.INTER.SOLV>
16.7098

>  <SCORE.INTER.VDW>
-16.8484

>  <SCORE.INTER.norm>
-0.0369769

>  <SCORE.INTRA>
-3.898

>  <SCORE.INTRA.DIHEDRAL>
-9.19482

>  <SCORE.INTRA.DIHEDRAL.0>
10.5765

>  <SCORE.INTRA.POLAR>
0

>  <SCORE.INTRA.POLAR.0>
0

>  <SCORE.INTRA.REPUL>
0

>  <SCORE.INTRA.REPUL.0>
0

>  <SCORE.INTRA.SOLV>
0.686181

>  <SCORE.INTRA.SOLV.lig_0>
-50.1861

>  <SCORE.INTRA.VDW>
0.356325

>  <SCORE.INTRA.VDW.0>
-1.36671

>  <SCORE.INTRA.norm>
-0.278428

>  <SCORE.RESTR>
0

>  <SCORE.RESTR.CAVITY>
0

>  <SCORE.RESTR.norm>
0

>  <SCORE.SYSTEM>
0

>  <SCORE.SYSTEM.CONST>
0

>  <SCORE.SYSTEM.DIHEDRAL>
0

>  <SCORE.SYSTEM.SOLV>
0

>  <SCORE.SYSTEM.norm>
0

>  <SCORE.heavy>
14

>  <SCORE.norm>
-0.315405

>  <RMSD>
1.788

$$$$
ligand
 OpenBabel11021811393D
libRbt.so/2013.1/901 2013/11/27
 14 13  0  0  0  0  0  0  0  0999 V2000
   -4.7954    2.2573    8.1791 N   0  0  0  0  0  0  0  0  0  0  0  0
   -3.3752    1.8674    8.5902 C   0  0  0  0  0  0  0  0  0  0  0  0
   -3.4102    1.7438   10.0701 C   0  0  0  0  0  0  0  0  0  0  0  0
   -2.0573    1.4894   10.7146 C   0  0  0  0  0  0  0  0  0  0  0  0
   -1.5669    0.1406   10.3240 N   0  0  0  0  0  0  0  0  0  0  0  0
   -0.2759   -0.1774   11.0999 C   0  0  0  0  0  0  0  0  0  0  0  0
    0.1064   -1.6280   10.5329 C   0  0  0  0  0  0  0  0  0  0  0  0
    1.1985   -2.0497   11.1228 C   0  0  0  0  0  0  0  0  0  0  0  0
    1.2759   -3.5013   10.3688 C   0  0  0  0  0  0  0  0  0  0  0  0
    2.4389   -4.1244   11.2118 N   0  0  0  0  0  0  0  0  0  0  0  0
    2.9132   -5.5375   10.6854 C   0  0  0  0  0  0  0  0  0  0  0  0
    3.9720   -5.2353    9.4790 C   0  0  0  0  0  0  0  0  0  0  0  0
    4.3669   -6.6037    9.0047 C   0  0  0  0  0  0  0  0  0  0  0  0
    5.4640   -6.3732    7.9923 N   0  0  0  0  0  0  0  0  0  0  0  0
  1  2  1  0  0  0  0
  2  3  1  0  0  0  0
  3  4  1  0  0  0  0
  4  5  1  0  0  0  0
  5  6  1  0  0  0  0
  6  7  1  0  0  0  0
  7  8  1  0  0  0  0
  8  9  1  0  0  0  0
  9 10  1  0  0  0  0
 10 11  1  0  0  0  0
 11 12  1  0  0  0  0
 12 13  1  0  0  0  0
 13 14  1  0  0  0  0
M  END
>  <CHROM.1>
-174.39209310,-67.17323335,-173.74517966,-178.93423525,-179.21976590,178.78199146
-171.56768847,-174.77631523,83.51157690,-179.02034239,-173.80311533,0.44679465
-1.98083867,9.95559805,2.99923854,-0.78524136,1.37569499

>  <Name>
ligand

>  <RI>
0

>  <Rbt.Current_Directory>
/home/itssahil/PROJECTS/Mol_Feturizer/New_Systems/rnas/1FUF

>  <Rbt.Executable>
rbdock ($Id: //depot/dev/client3/rdock/2013.1/src/exe/rbdock.cxx#4 $)

>  <Rbt.Library>
libRbt.so (2013.1, Build901 2013/11/27)

>  <Rbt.Parameter_File>
/export/apps/rDock/src/rDock_2013.1_src/data/scripts/dock_solv.prm

>  <Rbt.Receptor>
prm/pocket_docking_3.prm

>  <SCORE>
-6.30848

>  <SCORE.INTER>
-1.8349

>  <SCORE.INTER.CONST>
1

>  <SCORE.INTER.POLAR>
0

>  <SCORE.INTER.ROT>
11

>  <SCORE.INTER.SOLV>
15.1126

>  <SCORE.INTER.VDW>
-17.1941

>  <SCORE.INTER.norm>
-0.131064

>  <SCORE.INTRA>
-4.47358

>  <SCORE.INTRA.DIHEDRAL>
-9.38992

>  <SCORE.INTRA.DIHEDRAL.0>
10.5765

>  <SCORE.INTRA.POLAR>
0

>  <SCORE.INTRA.POLAR.0>
0

>  <SCORE.INTRA.REPUL>
0

>  <SCORE.INTRA.REPUL.0>
0

>  <SCORE.INTRA.SOLV>
0.163942

>  <SCORE.INTRA.SOLV.lig_0>
-50.1861

>  <SCORE.INTRA.VDW>
0.139408

>  <SCORE.INTRA.VDW.0>
-1.36671

>  <SCORE.INTRA.norm>
-0.319542

>  <SCORE.RESTR>
0

>  <SCORE.RESTR.CAVITY>
0

>  <SCORE.RESTR.norm>
0

>  <SCORE.SYSTEM>
0

>  <SCORE.SYSTEM.CONST>
0

>  <SCORE.SYSTEM.DIHEDRAL>
0

>  <SCORE.SYSTEM.SOLV>
0

>  <SCORE.SYSTEM.norm>
0

>  <SCORE.heavy>
14

>  <SCORE.norm>
-0.450606

>  <RMSD>
1.791

$$$$
ligand
 OpenBabel11021811393D
libRbt.so/2013.1/901 2013/11/27
 14 13  0  0  0  0  0  0  0  0999 V2000
    4.9052   -7.5263    8.6273 N   0  0  0  0  0  0  0  0  0  0  0  0
    4.4038   -6.1489    8.1921 C   0  0  0  0  0  0  0  0  0  0  0  0
    3.8885   -5.5054    9.4279 C   0  0  0  0  0  0  0  0  0  0  0  0
    3.4092   -4.0749    9.2422 C   0  0  0  0  0  0  0  0  0  0  0  0
    2.8891   -3.5538   10.5345 N   0  0  0  0  0  0  0  0  0  0  0  0
    2.6016   -2.0476   10.3987 C   0  0  0  0  0  0  0  0  0  0  0  0
    1.0425   -1.9702   10.7664 C   0  0  0  0  0  0  0  0  0  0  0  0
    0.6224   -0.7376   10.6151 C   0  0  0  0  0  0  0  0  0  0  0  0
   -0.9424   -1.0184   11.0078 C   0  0  0  0  0  0  0  0  0  0  0  0
   -1.5018    0.4147   10.7168 N   0  0  0  0  0  0  0  0  0  0  0  0
   -1.8460    0.6606    9.1936 C   0  0  0  0  0  0  0  0  0  0  0  0
   -3.1222    1.6799    9.1802 C   0  0  0  0  0  0  0  0  0  0  0  0
   -4.2406    0.8530    9.7445 C   0  0  0  0  0  0  0  0  0  0  0  0
   -5.4599    1.7431    9.6921 N   0  0  0  0  0  0  0  0  0  0  0  0
  1  2  1  0  0  0  0
  2  3  1  0  0  0  0
  3  4  1  0  0  0  0
  4  5  1  0  0  0  0
  5  6  1  0  0  0  0
  6  7  1  0  0  0  0
  7  8  1  0  0  0  0
  8  9  1  0  0  0  0
  9 10  1  0  0  0  0
 10 11  1  0  0  0  0
 11 12  1  0  0  0  0
 12 13  1  0  0  0  0
 13 14  1  0  0  0  0
M  END
>  <CHROM.1>
176.49141867,178.62749893,171.60354846,121.85055895,-176.20927697,178.30988580
-175.36444986,83.32241993,147.33988972,-67.97611756,-177.54739827,0.47507622
-1.94502891,9.80991058,0.58011222,0.46989572,-2.43540288

>  <Name>
ligand

>  <RI>
0

>  <Rbt.Current_Directory>
/home/itssahil/PROJECTS/Mol_Feturizer/New_Systems/rnas/1FUF

>  <Rbt.Executable>
rbdock ($Id: //depot/dev/client3/rdock/2013.1/src/exe/rbdock.cxx#4 $)

>  <Rbt.Library>
libRbt.so (2013.1, Build901 2013/11/27)

>  <Rbt.Parameter_File>
/export/apps/rDock/src/rDock_2013.1_src/data/scripts/dock_solv.prm

>  <Rbt.Receptor>
prm/blind_docking_20.prm

>  <SCORE>
-4.99675

>  <SCORE.INTER>
-1.74019

>  <SCORE.INTER.CONST>
1

>  <SCORE.INTER.POLAR>
0

>  <SCORE.INTER.ROT>
11

>  <SCORE.INTER.SOLV>
16.7658

>  <SCORE.INTER.VDW>
-17.682

>  <SCORE.INTER.norm>
-0.124299

>  <SCORE.INTRA>
-3.25656

>  <SCORE.INTRA.DIHEDRAL>
-7.7839

>  <SCORE.INTRA.DIHEDRAL.0>
10.5765

>  <SCORE.INTRA.POLAR>
0

>  <SCORE.INTRA.POLAR.0>
0

>  <SCORE.INTRA.REPUL>
0

>  <SCORE.INTRA.REPUL.0>
0

>  <SCORE.INTRA.SOLV>
0.342717

>  <SCORE.INTRA.SOLV.lig_0>
-50.1861

>  <SCORE.INTRA.VDW>
0.464027

>  <SCORE.INTRA.VDW.0>
-1.36671

>  <SCORE.INTRA.norm>
-0.232612

>  <SCORE.RESTR>
0

>  <SCORE.RESTR.CAVITY>
0

>  <SCORE.RESTR.norm>
0

>  <SCORE.SYSTEM>
0

>  <SCORE.SYSTEM.CONST>
0

>  <SCORE.SYSTEM.DIHEDRAL>
0

>  <SCORE.SYSTEM.SOLV>
0

>  <SCORE.SYSTEM.norm>
0

>  <SCORE.heavy>
14

>  <SCORE.norm>
-0.356911

>  <RMSD>
1.792

$$$$
ligand
 OpenBabel11021811393D
libRbt.so/2013.1/901 2013/11/27
 14 13  0  0  0  0  0  0  0  0999 V2000
    4.8973   -6.3378    9.2476 N   0  0  0  0  0  0  0  0  0  0  0  0
    3.8090   -5.3221    9.5967 C   0  0  0  0  0  0  0  0  0  0  0  0
    3.0665   -5.9130   10.7395 C   0  0  0  0  0  0  0  0  0  0  0  0
    1.8738   -5.0953   11.2081 C   0  0  0  0  0  0  0  0  0  0  0  0
    2.3460   -3.7913   11.7454 N   0  0  0  0  0  0  0  0  0  0  0  0
    2.2374   -2.7176   10.6475 C   0  0  0  0  0  0  0  0  0  0  0  0
    0.8686   -1.9783   11.0370 C   0  0  0  0  0  0  0  0  0  0  0  0
    0.7179   -0.9188   10.2798 C   0  0  0  0  0  0  0  0  0  0  0  0
   -0.7900   -0.5321   10.7883 C   0  0  0  0  0  0  0  0  0  0  0  0
   -0.9791    0.7713    9.9417 N   0  0  0  0  0  0  0  0  0  0  0  0
   -2.3318    0.8021    9.1241 C   0  0  0  0  0  0  0  0  0  0  0  0
   -3.4797    1.3015   10.1733 C   0  0  0  0  0  0  0  0  0  0  0  0
   -4.7337    1.3076    9.3483 C   0  0  0  0  0  0  0  0  0  0  0  0
   -5.8347    1.7127   10.2999 N   0  0  0  0  0  0  0  0  0  0  0  0
  1  2  1  0  0  0  0
  2  3  1  0  0  0  0
  3  4  1  0  0  0  0
  4  5  1  0  0  0  0
  5  6  1  0  0  0  0
  6  7  1  0  0  0  0
  7  8  1  0  0  0  0
  8  9  1  0  0  0  0
  9 10  1  0  0  0  0
 10 11  1  0  0  0  0
 11 12  1  0  0  0  0
 12 13  1  0  0  0  0
 13 14  1  0  0  0  0
M  END
>  <CHROM.1>
-176.76297557,-64.56916875,96.45719917,99.46927607,172.31618331,173.55890219
177.78433325,129.38111346,82.32675389,-179.84192363,177.79855854,0.11911740
-1.90793914,10.29835803,-0.71030403,0.19245366,-0.28760235

>  <Name>
ligand

>  <RI>
0

>  <Rbt.Current_Directory>
/home/itssahil/PROJECTS/Mol_Feturizer/New_Systems/rnas/1FUF

>  <Rbt.Executable>
rbdock ($Id: //depot/dev/client3/rdock/2013.1/src/exe/rbdock.cxx#4 $)

>  <Rbt.Library>
libRbt.so (2013.1, Build901 2013/11/27)

>  <Rbt.Parameter_File>
/export/apps/rDock/src/rDock_2013.1_src/data/scripts/dock_solv.prm

>  <Rbt.Receptor>
prm/blind_docking_80.prm

>  <SCORE>
-4.58379

>  <SCORE.INTER>
-1.95701

>  <SCORE.INTER.CONST>
1

>  <SCORE.INTER.POLAR>
0

>  <SCORE.INTER.ROT>
11

>  <SCORE.INTER.SOLV>
17.3258

>  <SCORE.INTER.VDW>
-18.0133

>  <SCORE.INTER.norm>
-0.139787

>  <SCORE.INTRA>
-2.62677

>  <SCORE.INTRA.DIHEDRAL>
-6.8497

>  <SCORE.INTRA.DIHEDRAL.0>
10.5765

>  <SCORE.INTRA.POLAR>
0

>  <SCORE.INTRA.POLAR.0>
0

>  <SCORE.INTRA.REPUL>
0

>  <SCORE.INTRA.REPUL.0>
0

>  <SCORE.INTRA.SOLV>
0.212439

>  <SCORE.INTRA.SOLV.lig_0>
-50.1861

>  <SCORE.INTRA.VDW>
0.691856

>  <SCORE.INTRA.VDW.0>
-1.36671

>  <SCORE.INTRA.norm>
-0.187627

>  <SCORE.RESTR>
0

>  <SCORE.RESTR.CAVITY>
0

>  <SCORE.RESTR.norm>
0

>  <SCORE.SYSTEM>
0

>  <SCORE.SYSTEM.CONST>
0

>  <SCORE.SYSTEM.DIHEDRAL>
0

>  <SCORE.SYSTEM.SOLV>
0

>  <SCORE.SYSTEM.norm>
0

>  <SCORE.heavy>
14

>  <SCORE.norm>
-0.327413

>  <RMSD>
1.808

$$$$
ligand
 OpenBabel11021811393D
libRbt.so/2013.1/901 2013/11/27
 14 13  0  0  0  0  0  0  0  0999 V2000
    5.2612   -7.0090    8.1403 N   0  0  0  0  0  0  0  0  0  0  0  0
    4.0787   -6.2279    8.7143 C   0  0  0  0  0  0  0  0  0  0  0  0
    4.2910   -6.2097   10.1844 C   0  0  0  0  0  0  0  0  0  0  0  0
    3.2516   -5.4196   10.9628 C   0  0  0  0  0  0  0  0  0  0  0  0
    3.3223   -3.9862   10.5719 N   0  0  0  0  0  0  0  0  0  0  0  0
    2.4885   -3.1470   11.5569 C   0  0  0  0  0  0  0  0  0  0  0  0
    1.7621   -2.1055   10.5774 C   0  0  0  0  0  0  0  0  0  0  0  0
    0.8484   -1.4458   11.2471 C   0  0  0  0  0  0  0  0  0  0  0  0
    0.3270   -0.5206   10.0006 C   0  0  0  0  0  0  0  0  0  0  0  0
   -0.9212    0.1111   10.7037 N   0  0  0  0  0  0  0  0  0  0  0  0
   -1.8163    0.9837    9.7362 C   0  0  0  0  0  0  0  0  0  0  0  0
   -3.3583    0.7585   10.2255 C   0  0  0  0  0  0  0  0  0  0  0  0
   -4.1565    1.6089    9.2806 C   0  0  0  0  0  0  0  0  0  0  0  0
   -5.5966    1.4229    9.6968 N   0  0  0  0  0  0  0  0  0  0  0  0
  1  2  1  0  0  0  0
  2  3  1  0  0  0  0
  3  4  1  0  0  0  0
  4  5  1  0  0  0  0
  5  6  1  0  0  0  0
  6  7  1  0  0  0  0
  7  8  1  0  0  0  0
  8  9  1  0  0  0  0
  9 10  1  0  0  0  0
 10 11  1  0  0  0  0
 11 12  1  0  0  0  0
 12 13  1  0  0  0  0
 13 14  1  0  0  0  0
M  END
>  <CHROM.1>
177.32606997,-63.68134690,-168.26411995,-138.93252220,170.28263061,-179.79967526
171.16864050,-173.63159511,144.95869156,179.80292873,179.73920527,0.69878724
-2.22752686,10.11431645,0.46756541,0.59000192,-2.28016171

>  <Name>
ligand

>  <RI>
0

>  <Rbt.Current_Directory>
/home/itssahil/PROJECTS/Mol_Feturizer/New_Systems/rnas/1FUF

>  <Rbt.Executable>
rbdock ($Id: //depot/dev/client3/rdock/2013.1/src/exe/rbdock.cxx#4 $)

>  <Rbt.Library>
libRbt.so (2013.1, Build901 2013/11/27)

>  <Rbt.Parameter_File>
/export/apps/rDock/src/rDock_2013.1_src/data/scripts/dock_solv.prm

>  <Rbt.Receptor>
prm/pocket_docking_5.prm

>  <SCORE>
-6.38633

>  <SCORE.INTER>
-2.55901

>  <SCORE.INTER.CONST>
1

>  <SCORE.INTER.POLAR>
0

>  <SCORE.INTER.ROT>
11

>  <SCORE.INTER.SOLV>
15.3595

>  <SCORE.INTER.VDW>
-17.7592

>  <SCORE.INTER.norm>
-0.182787

>  <SCORE.INTRA>
-3.82732

>  <SCORE.INTRA.DIHEDRAL>
-8.0304

>  <SCORE.INTRA.DIHEDRAL.0>
10.5765

>  <SCORE.INTRA.POLAR>
0

>  <SCORE.INTRA.POLAR.0>
0

>  <SCORE.INTRA.REPUL>
0

>  <SCORE.INTRA.REPUL.0>
0

>  <SCORE.INTRA.SOLV>
0.238529

>  <SCORE.INTRA.SOLV.lig_0>
-50.1861

>  <SCORE.INTRA.VDW>
0.0686175

>  <SCORE.INTRA.VDW.0>
-1.36671

>  <SCORE.INTRA.norm>
-0.27338

>  <SCORE.RESTR>
0

>  <SCORE.RESTR.CAVITY>
0

>  <SCORE.RESTR.norm>
0

>  <SCORE.SYSTEM>
0

>  <SCORE.SYSTEM.CONST>
0

>  <SCORE.SYSTEM.DIHEDRAL>
0

>  <SCORE.SYSTEM.SOLV>
0

>  <SCORE.SYSTEM.norm>
0

>  <SCORE.heavy>
14

>  <SCORE.norm>
-0.456167

>  <RMSD>
1.811

$$$$
ligand
 OpenBabel11021811393D
libRbt.so/2013.1/901 2013/11/27
 14 13  0  0  0  0  0  0  0  0999 V2000
    4.0953   -5.3458    9.7081 N   0  0  0  0  0  0  0  0  0  0  0  0
    4.1941   -4.1649   10.6743 C   0  0  0  0  0  0  0  0  0  0  0  0
    2.8236   -3.5967   10.7482 C   0  0  0  0  0  0  0  0  0  0  0  0
    2.6983   -2.3620   11.6258 C   0  0  0  0  0  0  0  0  0  0  0  0
    1.2772   -1.9249   11.6681 N   0  0  0  0  0  0  0  0  0  0  0  0
    1.0107   -0.9433   10.5126 C   0  0  0  0  0  0  0  0  0  0  0  0
   -0.5346   -0.5766   10.7349 C   0  0  0  0  0  0  0  0  0  0  0  0
   -0.9438    0.1891    9.7527 C   0  0  0  0  0  0  0  0  0  0  0  0
   -2.4508    0.4587   10.3341 C   0  0  0  0  0  0  0  0  0  0  0  0
   -3.0362    1.2045    9.0882 N   0  0  0  0  0  0  0  0  0  0  0  0
   -4.1612    2.2539    9.4519 C   0  0  0  0  0  0  0  0  0  0  0  0
   -5.5642    1.4180    9.4767 C   0  0  0  0  0  0  0  0  0  0  0  0
   -6.5845    2.4516    9.8560 C   0  0  0  0  0  0  0  0  0  0  0  0
   -7.9182    1.7489    9.7601 N   0  0  0  0  0  0  0  0  0  0  0  0
  1  2  1  0  0  0  0
  2  3  1  0  0  0  0
  3  4  1  0  0  0  0
  4  5  1  0  0  0  0
  5  6  1  0  0  0  0
  6  7  1  0  0  0  0
  7  8  1  0  0  0  0
  8  9  1  0  0  0  0
  9 10  1  0  0  0  0
 10 11  1  0  0  0  0
 11 12  1  0  0  0  0
 12 13  1  0  0  0  0
 13 14  1  0  0  0  0
M  END
>  <CHROM.1>
-177.79288878,-177.49437601,-89.23931666,-179.22552861,-175.31456155,-175.81853499
-172.44866122,-150.48057787,-87.10068949,178.73719668,174.68172434,-1.07802688
-0.65622524,10.24233696,0.48052834,0.28755146,-2.83501814

>  <Name>
ligand

>  <RI>
0

>  <Rbt.Current_Directory>
/home/itssahil/PROJECTS/Mol_Feturizer/New_Systems/rnas/1FUF

>  <Rbt.Executable>
rbdock ($Id: //depot/dev/client3/rdock/2013.1/src/exe/rbdock.cxx#4 $)

>  <Rbt.Library>
libRbt.so (2013.1, Build901 2013/11/27)

>  <Rbt.Parameter_File>
/export/apps/rDock/src/rDock_2013.1_src/data/scripts/dock_solv.prm

>  <Rbt.Receptor>
prm/blind_docking_100.prm

>  <SCORE>
-4.32966

>  <SCORE.INTER>
-0.39096

>  <SCORE.INTER.CONST>
1

>  <SCORE.INTER.POLAR>
0

>  <SCORE.INTER.ROT>
11

>  <SCORE.INTER.SOLV>
16.1059

>  <SCORE.INTER.VDW>
-16.5626

>  <SCORE.INTER.norm>
-0.0279257

>  <SCORE.INTRA>
-3.93869

>  <SCORE.INTRA.DIHEDRAL>
-8.38259

>  <SCORE.INTRA.DIHEDRAL.0>
10.5765

>  <SCORE.INTRA.POLAR>
0

>  <SCORE.INTRA.POLAR.0>
0

>  <SCORE.INTRA.REPUL>
0

>  <SCORE.INTRA.REPUL.0>
0

>  <SCORE.INTRA.SOLV>
-0.13862

>  <SCORE.INTRA.SOLV.lig_0>
-50.1861

>  <SCORE.INTRA.VDW>
0.321911

>  <SCORE.INTRA.VDW.0>
-1.36671

>  <SCORE.INTRA.norm>
-0.281335

>  <SCORE.RESTR>
0

>  <SCORE.RESTR.CAVITY>
0

>  <SCORE.RESTR.norm>
0

>  <SCORE.SYSTEM>
0

>  <SCORE.SYSTEM.CONST>
0

>  <SCORE.SYSTEM.DIHEDRAL>
0

>  <SCORE.SYSTEM.SOLV>
0

>  <SCORE.SYSTEM.norm>
0

>  <SCORE.heavy>
14

>  <SCORE.norm>
-0.309261

>  <RMSD>
1.818

$$$$
ligand
 OpenBabel11021811393D
libRbt.so/2013.1/901 2013/11/27
 14 13  0  0  0  0  0  0  0  0999 V2000
   -4.5861    1.8404    8.4224 N   0  0  0  0  0  0  0  0  0  0  0  0
   -3.1449    1.5494    8.8422 C   0  0  0  0  0  0  0  0  0  0  0  0
   -3.1538    1.5623   10.3276 C   0  0  0  0  0  0  0  0  0  0  0  0
   -1.7755    1.5301   10.9677 C   0  0  0  0  0  0  0  0  0  0  0  0
   -1.1099    0.2388   10.6487 N   0  0  0  0  0  0  0  0  0  0  0  0
    0.4161    0.4114   10.7550 C   0  0  0  0  0  0  0  0  0  0  0  0
    0.9492   -1.0227   10.2742 C   0  0  0  0  0  0  0  0  0  0  0  0
    0.8184   -1.8841   11.2537 C   0  0  0  0  0  0  0  0  0  0  0  0
    1.3189   -3.2013   10.4193 C   0  0  0  0  0  0  0  0  0  0  0  0
    2.8619   -2.9755   10.5583 N   0  0  0  0  0  0  0  0  0  0  0  0
    3.6899   -3.4908    9.3142 C   0  0  0  0  0  0  0  0  0  0  0  0
    3.7852   -5.1131    9.4787 C   0  0  0  0  0  0  0  0  0  0  0  0
    4.5758   -5.5440    8.2777 C   0  0  0  0  0  0  0  0  0  0  0  0
    4.6966   -7.0449    8.3978 N   0  0  0  0  0  0  0  0  0  0  0  0
  1  2  1  0  0  0  0
  2  3  1  0  0  0  0
  3  4  1  0  0  0  0
  4  5  1  0  0  0  0
  5  6  1  0  0  0  0
  6  7  1  0  0  0  0
  7  8  1  0  0  0  0
  8  9  1  0  0  0  0
  9 10  1  0  0  0  0
 10 11  1  0  0  0  0
 11 12  1  0  0  0  0
 12 13  1  0  0  0  0
 13 14  1  0  0  0  0
M  END
>  <CHROM.1>
-170.02770998,-64.92331832,156.39474118,-175.82435945,-78.12866804,175.83598580
81.62763963,-147.71122543,-77.77377833,179.97840986,179.56648149,0.66736004
-1.65300744,9.85281963,2.63958537,-0.61767865,0.91408603

>  <Name>
ligand

>  <RI>
0

>  <Rbt.Current_Directory>
/home/itssahil/PROJECTS/Mol_Feturizer/New_Systems/rnas/1FUF

>  <Rbt.Executable>
rbdock ($Id: //depot/dev/client3/rdock/2013.1/src/exe/rbdock.cxx#4 $)

>  <Rbt.Library>
libRbt.so (2013.1, Build901 2013/11/27)

>  <Rbt.Parameter_File>
/export/apps/rDock/src/rDock_2013.1_src/data/scripts/dock_solv.prm

>  <Rbt.Receptor>
prm/pocket_docking_3.prm

>  <SCORE>
-1.90725

>  <SCORE.INTER>
-0.581324

>  <SCORE.INTER.CONST>
1

>  <SCORE.INTER.POLAR>
0

>  <SCORE.INTER.ROT>
11

>  <SCORE.INTER.SOLV>
16.3827

>  <SCORE.INTER.VDW>
-16.7818

>  <SCORE.INTER.norm>
-0.0415232

>  <SCORE.INTRA>
-1.32592

>  <SCORE.INTRA.DIHEDRAL>
-5.97263

>  <SCORE.INTRA.DIHEDRAL.0>
10.5765

>  <SCORE.INTRA.POLAR>
0

>  <SCORE.INTRA.POLAR.0>
0

>  <SCORE.INTRA.REPUL>
0

>  <SCORE.INTRA.REPUL.0>
0

>  <SCORE.INTRA.SOLV>
1.0679

>  <SCORE.INTRA.SOLV.lig_0>
-50.1861

>  <SCORE.INTRA.VDW>
1.12645

>  <SCORE.INTRA.VDW.0>
-1.36671

>  <SCORE.INTRA.norm>
-0.0947087

>  <SCORE.RESTR>
0

>  <SCORE.RESTR.CAVITY>
0

>  <SCORE.RESTR.norm>
0

>  <SCORE.SYSTEM>
0

>  <SCORE.SYSTEM.CONST>
0

>  <SCORE.SYSTEM.DIHEDRAL>
0

>  <SCORE.SYSTEM.SOLV>
0

>  <SCORE.SYSTEM.norm>
0

>  <SCORE.heavy>
14

>  <SCORE.norm>
-0.136232

>  <RMSD>
1.820

$$$$
ligand
 OpenBabel11021811393D
libRbt.so/2013.1/901 2013/11/27
 14 13  0  0  0  0  0  0  0  0999 V2000
    4.8035   -5.3891    9.8198 N   0  0  0  0  0  0  0  0  0  0  0  0
    4.0080   -4.6498   10.8963 C   0  0  0  0  0  0  0  0  0  0  0  0
    3.3588   -3.5107   10.1981 C   0  0  0  0  0  0  0  0  0  0  0  0
    2.5365   -2.6037   11.0990 C   0  0  0  0  0  0  0  0  0  0  0  0
    1.8688   -1.5598   10.2764 N   0  0  0  0  0  0  0  0  0  0  0  0
    0.7927   -0.8548   11.1219 C   0  0  0  0  0  0  0  0  0  0  0  0
   -0.1960   -0.2833    9.9960 C   0  0  0  0  0  0  0  0  0  0  0  0
   -1.1348    0.4321   10.5665 C   0  0  0  0  0  0  0  0  0  0  0  0
   -1.9456    0.8133    9.1958 C   0  0  0  0  0  0  0  0  0  0  0  0
   -3.1572    1.5529    9.8564 N   0  0  0  0  0  0  0  0  0  0  0  0
   -4.1491    2.1997    8.8091 C   0  0  0  0  0  0  0  0  0  0  0  0
   -5.5106    2.5538    9.6391 C   0  0  0  0  0  0  0  0  0  0  0  0
   -6.4170    3.1410    8.5966 C   0  0  0  0  0  0  0  0  0  0  0  0
   -7.7274    3.3935    9.3045 N   0  0  0  0  0  0  0  0  0  0  0  0
  1  2  1  0  0  0  0
  2  3  1  0  0  0  0
  3  4  1  0  0  0  0
  4  5  1  0  0  0  0
  5  6  1  0  0  0  0
  6  7  1  0  0  0  0
  7  8  1  0  0  0  0
  8  9  1  0  0  0  0
  9 10  1  0  0  0  0
 10 11  1  0  0  0  0
 11 12  1  0  0  0  0
 12 13  1  0  0  0  0
 13 14  1  0  0  0  0
M  END
>  <CHROM.1>
-178.32054484,-176.32622894,166.93195384,-156.47516707,-175.79478637,-178.84457873
174.71012130,175.17173449,165.15016089,-179.14448770,176.11380790,-0.91920168
-0.34028133,9.95545570,0.31611611,0.54551864,-2.32779248

>  <Name>
ligand

>  <RI>
0

>  <Rbt.Current_Directory>
/home/itssahil/PROJECTS/Mol_Feturizer/New_Systems/rnas/1FUF

>  <Rbt.Executable>
rbdock ($Id: //depot/dev/client3/rdock/2013.1/src/exe/rbdock.cxx#4 $)

>  <Rbt.Library>
libRbt.so (2013.1, Build901 2013/11/27)

>  <Rbt.Parameter_File>
/export/apps/rDock/src/rDock_2013.1_src/data/scripts/dock_solv.prm

>  <Rbt.Receptor>
prm/blind_docking_20.prm

>  <SCORE>
-6.49926

>  <SCORE.INTER>
-1.66662

>  <SCORE.INTER.CONST>
1

>  <SCORE.INTER.POLAR>
0

>  <SCORE.INTER.ROT>
11

>  <SCORE.INTER.SOLV>
15.2422

>  <SCORE.INTER.VDW>
-17.1251

>  <SCORE.INTER.norm>
-0.119044

>  <SCORE.INTRA>
-4.83264

>  <SCORE.INTRA.DIHEDRAL>
-9.55077

>  <SCORE.INTRA.DIHEDRAL.0>
10.5765

>  <SCORE.INTRA.POLAR>
0

>  <SCORE.INTRA.POLAR.0>
0

>  <SCORE.INTRA.REPUL>
0

>  <SCORE.INTRA.REPUL.0>
0

>  <SCORE.INTRA.SOLV>
-0.155309

>  <SCORE.INTRA.SOLV.lig_0>
-50.1861

>  <SCORE.INTRA.VDW>
0.0204019

>  <SCORE.INTRA.VDW.0>
-1.36671

>  <SCORE.INTRA.norm>
-0.345188

>  <SCORE.RESTR>
0

>  <SCORE.RESTR.CAVITY>
0

>  <SCORE.RESTR.norm>
0

>  <SCORE.SYSTEM>
0

>  <SCORE.SYSTEM.CONST>
0

>  <SCORE.SYSTEM.DIHEDRAL>
0

>  <SCORE.SYSTEM.SOLV>
0

>  <SCORE.SYSTEM.norm>
0

>  <SCORE.heavy>
14

>  <SCORE.norm>
-0.464233

>  <RMSD>
1.822

$$$$
ligand
 OpenBabel11021811393D
libRbt.so/2013.1/901 2013/11/27
 14 13  0  0  0  0  0  0  0  0999 V2000
    4.8210   -5.4698    9.7799 N   0  0  0  0  0  0  0  0  0  0  0  0
    4.0040   -4.7820   10.8742 C   0  0  0  0  0  0  0  0  0  0  0  0
    3.4120   -3.5806   10.2317 C   0  0  0  0  0  0  0  0  0  0  0  0
    2.5041   -2.7634   11.1364 C   0  0  0  0  0  0  0  0  0  0  0  0
    1.9488   -1.6131   10.3743 N   0  0  0  0  0  0  0  0  0  0  0  0
    0.7811   -0.9941   11.1637 C   0  0  0  0  0  0  0  0  0  0  0  0
   -0.0575   -0.2678   10.0057 C   0  0  0  0  0  0  0  0  0  0  0  0
   -1.0941    0.3356   10.5349 C   0  0  0  0  0  0  0  0  0  0  0  0
   -1.7584    0.8461    9.1278 C   0  0  0  0  0  0  0  0  0  0  0  0
   -2.9979    1.5908    9.7282 N   0  0  0  0  0  0  0  0  0  0  0  0
   -3.9346    2.2414    8.6335 C   0  0  0  0  0  0  0  0  0  0  0  0
   -5.2950    2.6926    9.4168 C   0  0  0  0  0  0  0  0  0  0  0  0
   -6.1685    3.2355    8.3234 C   0  0  0  0  0  0  0  0  0  0  0  0
   -7.4663    3.6104    8.9994 N   0  0  0  0  0  0  0  0  0  0  0  0
  1  2  1  0  0  0  0
  2  3  1  0  0  0  0
  3  4  1  0  0  0  0
  4  5  1  0  0  0  0
  5  6  1  0  0  0  0
  6  7  1  0  0  0  0
  7  8  1  0  0  0  0
  8  9  1  0  0  0  0
  9 10  1  0  0  0  0
 10 11  1  0  0  0  0
 11 12  1  0  0  0  0
 12 13  1  0  0  0  0
 13 14  1  0  0  0  0
M  END
>  <CHROM.1>
177.79035740,-178.59658607,166.22774029,-156.52015484,-179.00200618,-175.95841232
-179.34268741,-179.60323159,168.84675826,-177.22469097,177.60430390,-0.80717234
-0.35127245,9.88077433,0.22830966,0.61656372,-2.17592660

>  <Name>
ligand

>  <RI>
0

>  <Rbt.Current_Directory>
/home/itssahil/PROJECTS/Mol_Feturizer/New_Systems/rnas/1FUF

>  <Rbt.Executable>
rbdock ($Id: //depot/dev/client3/rdock/2013.1/src/exe/rbdock.cxx#4 $)

>  <Rbt.Library>
libRbt.so (2013.1, Build901 2013/11/27)

>  <Rbt.Parameter_File>
/export/apps/rDock/src/rDock_2013.1_src/data/scripts/dock_solv.prm

>  <Rbt.Receptor>
prm/pocket_docking_6.prm

>  <SCORE>
-6.56622

>  <SCORE.INTER>
-1.61933

>  <SCORE.INTER.CONST>
1

>  <SCORE.INTER.POLAR>
0

>  <SCORE.INTER.ROT>
11

>  <SCORE.INTER.SOLV>
15.9727

>  <SCORE.INTER.VDW>
-17.3371

>  <SCORE.INTER.norm>
-0.115666

>  <SCORE.INTRA>
-4.9469

>  <SCORE.INTRA.DIHEDRAL>
-9.77809

>  <SCORE.INTRA.DIHEDRAL.0>
10.5765

>  <SCORE.INTRA.POLAR>
0

>  <SCORE.INTRA.POLAR.0>
0

>  <SCORE.INTRA.REPUL>
0

>  <SCORE.INTRA.REPUL.0>
0

>  <SCORE.INTRA.SOLV>
-0.157408

>  <SCORE.INTRA.SOLV.lig_0>
-50.1861

>  <SCORE.INTRA.VDW>
0.0208526

>  <SCORE.INTRA.VDW.0>
-1.36671

>  <SCORE.INTRA.norm>
-0.35335

>  <SCORE.RESTR>
0

>  <SCORE.RESTR.CAVITY>
0

>  <SCORE.RESTR.norm>
0

>  <SCORE.SYSTEM>
0

>  <SCORE.SYSTEM.CONST>
0

>  <SCORE.SYSTEM.DIHEDRAL>
0

>  <SCORE.SYSTEM.SOLV>
0

>  <SCORE.SYSTEM.norm>
0

>  <SCORE.heavy>
14

>  <SCORE.norm>
-0.469016

>  <RMSD>
1.822

$$$$
ligand
 OpenBabel11021811393D
libRbt.so/2013.1/901 2013/11/27
 14 13  0  0  0  0  0  0  0  0999 V2000
   -5.1207    3.2050    7.0668 N   0  0  0  0  0  0  0  0  0  0  0  0
   -3.6627    2.7776    7.2385 C   0  0  0  0  0  0  0  0  0  0  0  0
   -3.6201    2.0144    8.5123 C   0  0  0  0  0  0  0  0  0  0  0  0
   -2.2542    1.4473    8.8633 C   0  0  0  0  0  0  0  0  0  0  0  0
   -2.3178    0.7872   10.1946 N   0  0  0  0  0  0  0  0  0  0  0  0
   -0.9036    0.7205   10.7992 C   0  0  0  0  0  0  0  0  0  0  0  0
   -0.4942   -0.8055   10.5245 C   0  0  0  0  0  0  0  0  0  0  0  0
    0.7352   -1.0046   10.9338 C   0  0  0  0  0  0  0  0  0  0  0  0
    0.8247   -2.5844   10.5123 C   0  0  0  0  0  0  0  0  0  0  0  0
    2.2846   -2.8606   11.0061 N   0  0  0  0  0  0  0  0  0  0  0  0
    2.7394   -4.3634   10.8224 C   0  0  0  0  0  0  0  0  0  0  0  0
    4.3714   -4.3349   10.7631 C   0  0  0  0  0  0  0  0  0  0  0  0
    4.7444   -5.7803   10.6049 C   0  0  0  0  0  0  0  0  0  0  0  0
    4.3256   -6.1484    9.2010 N   0  0  0  0  0  0  0  0  0  0  0  0
  1  2  1  0  0  0  0
  2  3  1  0  0  0  0
  3  4  1  0  0  0  0
  4  5  1  0  0  0  0
  5  6  1  0  0  0  0
  6  7  1  0  0  0  0
  7  8  1  0  0  0  0
  8  9  1  0  0  0  0
  9 10  1  0  0  0  0
 10 11  1  0  0  0  0
 11 12  1  0  0  0  0
 12 13  1  0  0  0  0
 13 14  1  0  0  0  0
M  END
>  <CHROM.1>
178.10336147,176.25219998,-157.50755970,-101.81852668,176.96738956,-179.65959695
-179.35500092,177.44078677,156.32930377,179.37541783,70.71985618,0.11813956
-1.20927045,9.78894848,3.12469786,-0.79052346,1.24995621

>  <Name>
ligand

>  <RI>
0

>  <Rbt.Current_Directory>
/home/itssahil/PROJECTS/Mol_Feturizer/New_Systems/rnas/1FUF

>  <Rbt.Executable>
rbdock ($Id: //depot/dev/client3/rdock/2013.1/src/exe/rbdock.cxx#4 $)

>  <Rbt.Library>
libRbt.so (2013.1, Build901 2013/11/27)

>  <Rbt.Parameter_File>
/export/apps/rDock/src/rDock_2013.1_src/data/scripts/dock_solv.prm

>  <Rbt.Receptor>
prm/blind_docking_100.prm

>  <SCORE>
-5.25925

>  <SCORE.INTER>
-1.9391

>  <SCORE.INTER.CONST>
1

>  <SCORE.INTER.POLAR>
0

>  <SCORE.INTER.ROT>
11

>  <SCORE.INTER.SOLV>
16.6866

>  <SCORE.INTER.VDW>
-17.7883

>  <SCORE.INTER.norm>
-0.138507

>  <SCORE.INTRA>
-3.32014

>  <SCORE.INTRA.DIHEDRAL>
-8.3198

>  <SCORE.INTRA.DIHEDRAL.0>
10.5765

>  <SCORE.INTRA.POLAR>
0

>  <SCORE.INTRA.POLAR.0>
0

>  <SCORE.INTRA.REPUL>
0

>  <SCORE.INTRA.REPUL.0>
0

>  <SCORE.INTRA.SOLV>
0.786011

>  <SCORE.INTRA.SOLV.lig_0>
-50.1861

>  <SCORE.INTRA.VDW>
0.446753

>  <SCORE.INTRA.VDW.0>
-1.36671

>  <SCORE.INTRA.norm>
-0.237153

>  <SCORE.RESTR>
0

>  <SCORE.RESTR.CAVITY>
0

>  <SCORE.RESTR.norm>
0

>  <SCORE.SYSTEM>
0

>  <SCORE.SYSTEM.CONST>
0

>  <SCORE.SYSTEM.DIHEDRAL>
0

>  <SCORE.SYSTEM.SOLV>
0

>  <SCORE.SYSTEM.norm>
0

>  <SCORE.heavy>
14

>  <SCORE.norm>
-0.37566

>  <RMSD>
1.823

$$$$
ligand
 OpenBabel11021811393D
libRbt.so/2013.1/901 2013/11/27
 14 13  0  0  0  0  0  0  0  0999 V2000
   -5.4538    1.3114    9.5492 N   0  0  0  0  0  0  0  0  0  0  0  0
   -4.2094    0.4233    9.5218 C   0  0  0  0  0  0  0  0  0  0  0  0
   -3.0635    1.3511    9.3406 C   0  0  0  0  0  0  0  0  0  0  0  0
   -1.7247    0.6657    9.1212 C   0  0  0  0  0  0  0  0  0  0  0  0
   -1.3640   -0.1185   10.3325 N   0  0  0  0  0  0  0  0  0  0  0  0
    0.1684   -0.1687   10.4703 C   0  0  0  0  0  0  0  0  0  0  0  0
    0.4427   -1.7447   10.5833 C   0  0  0  0  0  0  0  0  0  0  0  0
    1.7355   -1.9572   10.6306 C   0  0  0  0  0  0  0  0  0  0  0  0
    1.6583   -3.5898   10.7322 C   0  0  0  0  0  0  0  0  0  0  0  0
    3.1964   -3.8823   10.7316 N   0  0  0  0  0  0  0  0  0  0  0  0
    3.5532   -5.3855   11.0663 C   0  0  0  0  0  0  0  0  0  0  0  0
    3.1299   -6.2520    9.7480 C   0  0  0  0  0  0  0  0  0  0  0  0
    4.0875   -5.7801    8.6928 C   0  0  0  0  0  0  0  0  0  0  0  0
    5.4000   -6.4547    9.0155 N   0  0  0  0  0  0  0  0  0  0  0  0
  1  2  1  0  0  0  0
  2  3  1  0  0  0  0
  3  4  1  0  0  0  0
  4  5  1  0  0  0  0
  5  6  1  0  0  0  0
  6  7  1  0  0  0  0
  7  8  1  0  0  0  0
  8  9  1  0  0  0  0
  9 10  1  0  0  0  0
 10 11  1  0  0  0  0
 11 12  1  0  0  0  0
 12 13  1  0  0  0  0
 13 14  1  0  0  0  0
M  END
>  <CHROM.1>
-173.16810184,-63.67296818,-149.70821002,-126.42487265,176.38089826,-179.78267513
177.81010642,170.23436491,72.50075017,66.77373697,76.25368944,0.53978788
-2.25583006,9.96688096,2.54472517,-0.42850666,0.51805602

>  <Name>
ligand

>  <RI>
0

>  <Rbt.Current_Directory>
/home/itssahil/PROJECTS/Mol_Feturizer/New_Systems/rnas/1FUF

>  <Rbt.Executable>
rbdock ($Id: //depot/dev/client3/rdock/2013.1/src/exe/rbdock.cxx#4 $)

>  <Rbt.Library>
libRbt.so (2013.1, Build901 2013/11/27)

>  <Rbt.Parameter_File>
/export/apps/rDock/src/rDock_2013.1_src/data/scripts/dock_solv.prm

>  <Rbt.Receptor>
prm/pocket_docking_3.prm

>  <SCORE>
-4.48052

>  <SCORE.INTER>
-2.53073

>  <SCORE.INTER.CONST>
1

>  <SCORE.INTER.POLAR>
0

>  <SCORE.INTER.ROT>
11

>  <SCORE.INTER.SOLV>
15.4238

>  <SCORE.INTER.VDW>
-17.7618

>  <SCORE.INTER.norm>
-0.180766

>  <SCORE.INTRA>
-1.94979

>  <SCORE.INTRA.DIHEDRAL>
-7.19448

>  <SCORE.INTRA.DIHEDRAL.0>
10.5765

>  <SCORE.INTRA.POLAR>
0

>  <SCORE.INTRA.POLAR.0>
0

>  <SCORE.INTRA.REPUL>
0

>  <SCORE.INTRA.REPUL.0>
0

>  <SCORE.INTRA.SOLV>
1.92552

>  <SCORE.INTRA.SOLV.lig_0>
-50.1861

>  <SCORE.INTRA.VDW>
0.684685

>  <SCORE.INTRA.VDW.0>
-1.36671

>  <SCORE.INTRA.norm>
-0.139271

>  <SCORE.RESTR>
0

>  <SCORE.RESTR.CAVITY>
0

>  <SCORE.RESTR.norm>
0

>  <SCORE.SYSTEM>
0

>  <SCORE.SYSTEM.CONST>
0

>  <SCORE.SYSTEM.DIHEDRAL>
0

>  <SCORE.SYSTEM.SOLV>
0

>  <SCORE.SYSTEM.norm>
0

>  <SCORE.heavy>
14

>  <SCORE.norm>
-0.320037

>  <RMSD>
1.823

$$$$
ligand
 OpenBabel11021811393D
libRbt.so/2013.1/901 2013/11/27
 14 13  0  0  0  0  0  0  0  0999 V2000
   -4.9297    1.0231    9.1018 N   0  0  0  0  0  0  0  0  0  0  0  0
   -4.0252    2.2441    9.2722 C   0  0  0  0  0  0  0  0  0  0  0  0
   -2.6368    1.7292    9.1536 C   0  0  0  0  0  0  0  0  0  0  0  0
   -2.2235    0.7679   10.2561 C   0  0  0  0  0  0  0  0  0  0  0  0
   -0.8001    0.3795   10.0684 N   0  0  0  0  0  0  0  0  0  0  0  0
   -0.5268   -0.9361   10.8196 C   0  0  0  0  0  0  0  0  0  0  0  0
    1.0189   -1.1989   10.4824 C   0  0  0  0  0  0  0  0  0  0  0  0
    1.3592   -2.3902   10.9108 C   0  0  0  0  0  0  0  0  0  0  0  0
    2.8908   -2.3725   10.3315 C   0  0  0  0  0  0  0  0  0  0  0  0
    3.2820   -3.8427   10.7014 N   0  0  0  0  0  0  0  0  0  0  0  0
    4.8339   -4.1271   10.6015 C   0  0  0  0  0  0  0  0  0  0  0  0
    4.9756   -5.6680   10.0789 C   0  0  0  0  0  0  0  0  0  0  0  0
    4.5089   -5.6019    8.6538 C   0  0  0  0  0  0  0  0  0  0  0  0
    4.6821   -7.0015    8.1124 N   0  0  0  0  0  0  0  0  0  0  0  0
  1  2  1  0  0  0  0
  2  3  1  0  0  0  0
  3  4  1  0  0  0  0
  4  5  1  0  0  0  0
  5  6  1  0  0  0  0
  6  7  1  0  0  0  0
  7  8  1  0  0  0  0
  8  9  1  0  0  0  0
  9 10  1  0  0  0  0
 10 11  1  0  0  0  0
 11 12  1  0  0  0  0
 12 13  1  0  0  0  0
 13 14  1  0  0  0  0
M  END
>  <CHROM.1>
-64.72183936,-177.09039751,-159.32131465,179.02689795,-171.63813305,176.21009858
-174.60910086,-166.47532752,-145.01368005,70.11098978,177.57995659,0.88650553
-1.92804839,9.89619246,2.65604386,-0.53892156,0.77338081

>  <Name>
ligand

>  <RI>
0

>  <Rbt.Current_Directory>
/home/itssahil/PROJECTS/Mol_Feturizer/New_Systems/rnas/1FUF

>  <Rbt.Executable>
rbdock ($Id: //depot/dev/client3/rdock/2013.1/src/exe/rbdock.cxx#4 $)

>  <Rbt.Library>
libRbt.so (2013.1, Build901 2013/11/27)

>  <Rbt.Parameter_File>
/export/apps/rDock/src/rDock_2013.1_src/data/scripts/dock_solv.prm

>  <Rbt.Receptor>
prm/pocket_docking_3.prm

>  <SCORE>
-5.04237

>  <SCORE.INTER>
-1.69352

>  <SCORE.INTER.CONST>
1

>  <SCORE.INTER.POLAR>
0

>  <SCORE.INTER.ROT>
11

>  <SCORE.INTER.SOLV>
16.6163

>  <SCORE.INTER.VDW>
-17.6011

>  <SCORE.INTER.norm>
-0.120966

>  <SCORE.INTRA>
-3.34885

>  <SCORE.INTRA.DIHEDRAL>
-8.41245

>  <SCORE.INTRA.DIHEDRAL.0>
10.5765

>  <SCORE.INTRA.POLAR>
0

>  <SCORE.INTRA.POLAR.0>
0

>  <SCORE.INTRA.REPUL>
0

>  <SCORE.INTRA.REPUL.0>
0

>  <SCORE.INTRA.SOLV>
1.18246

>  <SCORE.INTRA.SOLV.lig_0>
-50.1861

>  <SCORE.INTRA.VDW>
0.266142

>  <SCORE.INTRA.VDW.0>
-1.36671

>  <SCORE.INTRA.norm>
-0.239204

>  <SCORE.RESTR>
0

>  <SCORE.RESTR.CAVITY>
0

>  <SCORE.RESTR.norm>
0

>  <SCORE.SYSTEM>
0

>  <SCORE.SYSTEM.CONST>
0

>  <SCORE.SYSTEM.DIHEDRAL>
0

>  <SCORE.SYSTEM.SOLV>
0

>  <SCORE.SYSTEM.norm>
0

>  <SCORE.heavy>
14

>  <SCORE.norm>
-0.36017

>  <RMSD>
1.824

$$$$
ligand
 OpenBabel11021811393D
libRbt.so/2013.1/901 2013/11/27
 14 13  0  0  0  0  0  0  0  0999 V2000
    5.2433   -6.5346    8.6559 N   0  0  0  0  0  0  0  0  0  0  0  0
    3.7616   -6.2250    8.8715 C   0  0  0  0  0  0  0  0  0  0  0  0
    3.5861   -6.1291   10.3434 C   0  0  0  0  0  0  0  0  0  0  0  0
    4.2382   -4.9121   10.9791 C   0  0  0  0  0  0  0  0  0  0  0  0
    3.5871   -3.6762   10.4682 N   0  0  0  0  0  0  0  0  0  0  0  0
    2.2574   -3.4553   11.2119 C   0  0  0  0  0  0  0  0  0  0  0  0
    1.7237   -2.0974   10.5463 C   0  0  0  0  0  0  0  0  0  0  0  0
    0.4933   -1.8758   10.9411 C   0  0  0  0  0  0  0  0  0  0  0  0
    0.3014   -0.4408   10.1760 C   0  0  0  0  0  0  0  0  0  0  0  0
   -1.1953   -0.1867   10.5590 N   0  0  0  0  0  0  0  0  0  0  0  0
   -1.7295    1.2319   10.1105 C   0  0  0  0  0  0  0  0  0  0  0  0
   -3.3437    1.2032   10.3587 C   0  0  0  0  0  0  0  0  0  0  0  0
   -3.8574    0.3419    9.2417 C   0  0  0  0  0  0  0  0  0  0  0  0
   -5.3626    0.3957    9.3571 N   0  0  0  0  0  0  0  0  0  0  0  0
  1  2  1  0  0  0  0
  2  3  1  0  0  0  0
  3  4  1  0  0  0  0
  4  5  1  0  0  0  0
  5  6  1  0  0  0  0
  6  7  1  0  0  0  0
  7  8  1  0  0  0  0
  8  9  1  0  0  0  0
  9 10  1  0  0  0  0
 10 11  1  0  0  0  0
 11 12  1  0  0  0  0
 12 13  1  0  0  0  0
 13 14  1  0  0  0  0
M  END
>  <CHROM.1>
69.59374842,64.16024436,79.35833974,179.47400201,170.88859515,177.18129376
176.82349711,173.92116981,170.41970301,-74.30461884,-174.78963076,0.69317702
-2.31136813,10.13017560,0.58209400,0.40541460,-2.59943332

>  <Name>
ligand

>  <RI>
0

>  <Rbt.Current_Directory>
/home/itssahil/PROJECTS/Mol_Feturizer/New_Systems/rnas/1FUF

>  <Rbt.Executable>
rbdock ($Id: //depot/dev/client3/rdock/2013.1/src/exe/rbdock.cxx#4 $)

>  <Rbt.Library>
libRbt.so (2013.1, Build901 2013/11/27)

>  <Rbt.Parameter_File>
/export/apps/rDock/src/rDock_2013.1_src/data/scripts/dock_solv.prm

>  <Rbt.Receptor>
prm/pocket_docking_8.prm

>  <SCORE>
-4.54471

>  <SCORE.INTER>
-1.91299

>  <SCORE.INTER.CONST>
1

>  <SCORE.INTER.POLAR>
0

>  <SCORE.INTER.ROT>
11

>  <SCORE.INTER.SOLV>
18.2045

>  <SCORE.INTER.VDW>
-18.2768

>  <SCORE.INTER.norm>
-0.136642

>  <SCORE.INTRA>
-2.63173

>  <SCORE.INTRA.DIHEDRAL>
-8.56306

>  <SCORE.INTRA.DIHEDRAL.0>
10.5765

>  <SCORE.INTRA.POLAR>
0

>  <SCORE.INTRA.POLAR.0>
0

>  <SCORE.INTRA.REPUL>
0

>  <SCORE.INTRA.REPUL.0>
0

>  <SCORE.INTRA.SOLV>
1.90423

>  <SCORE.INTRA.SOLV.lig_0>
-50.1861

>  <SCORE.INTRA.VDW>
0.697687

>  <SCORE.INTRA.VDW.0>
-1.36671

>  <SCORE.INTRA.norm>
-0.18798

>  <SCORE.RESTR>
0

>  <SCORE.RESTR.CAVITY>
0

>  <SCORE.RESTR.norm>
0

>  <SCORE.SYSTEM>
0

>  <SCORE.SYSTEM.CONST>
0

>  <SCORE.SYSTEM.DIHEDRAL>
0

>  <SCORE.SYSTEM.SOLV>
0

>  <SCORE.SYSTEM.norm>
0

>  <SCORE.heavy>
14

>  <SCORE.norm>
-0.324622

>  <RMSD>
1.828

$$$$
ligand
 OpenBabel11021811393D
libRbt.so/2013.1/901 2013/11/27
 14 13  0  0  0  0  0  0  0  0999 V2000
   -5.5878    1.2280    9.6821 N   0  0  0  0  0  0  0  0  0  0  0  0
   -4.6182    2.2944    9.1716 C   0  0  0  0  0  0  0  0  0  0  0  0
   -3.3543    1.5724    8.8751 C   0  0  0  0  0  0  0  0  0  0  0  0
   -2.6066    1.0778   10.1026 C   0  0  0  0  0  0  0  0  0  0  0  0
   -1.4460    0.2506    9.6773 N   0  0  0  0  0  0  0  0  0  0  0  0
   -0.6897   -0.2460   10.9228 C   0  0  0  0  0  0  0  0  0  0  0  0
    0.3053   -1.3370   10.2969 C   0  0  0  0  0  0  0  0  0  0  0  0
    1.0051   -1.8875   11.2591 C   0  0  0  0  0  0  0  0  0  0  0  0
    1.6047   -3.1285   10.3747 C   0  0  0  0  0  0  0  0  0  0  0  0
    2.1854   -3.9780   11.5548 N   0  0  0  0  0  0  0  0  0  0  0  0
    1.9170   -5.5290   11.4078 C   0  0  0  0  0  0  0  0  0  0  0  0
    2.8544   -6.0317   10.1683 C   0  0  0  0  0  0  0  0  0  0  0  0
    4.2505   -5.8906   10.7016 C   0  0  0  0  0  0  0  0  0  0  0  0
    5.1565   -6.1964    9.5322 N   0  0  0  0  0  0  0  0  0  0  0  0
  1  2  1  0  0  0  0
  2  3  1  0  0  0  0
  3  4  1  0  0  0  0
  4  5  1  0  0  0  0
  5  6  1  0  0  0  0
  6  7  1  0  0  0  0
  7  8  1  0  0  0  0
  8  9  1  0  0  0  0
  9 10  1  0  0  0  0
 10 11  1  0  0  0  0
 11 12  1  0  0  0  0
 12 13  1  0  0  0  0
 13 14  1  0  0  0  0
M  END
>  <CHROM.1>
-70.28808873,173.94021894,179.88687208,168.73164101,-178.22335026,167.38495035
-168.21048506,138.09714609,69.96754106,68.14495337,-173.75508954,0.06973230
-1.98574483,10.26625718,2.37543909,-0.04140353,-0.09849656

>  <Name>
ligand

>  <RI>
0

>  <Rbt.Current_Directory>
/home/itssahil/PROJECTS/Mol_Feturizer/New_Systems/rnas/1FUF

>  <Rbt.Executable>
rbdock ($Id: //depot/dev/client3/rdock/2013.1/src/exe/rbdock.cxx#4 $)

>  <Rbt.Library>
libRbt.so (2013.1, Build901 2013/11/27)

>  <Rbt.Parameter_File>
/export/apps/rDock/src/rDock_2013.1_src/data/scripts/dock_solv.prm

>  <Rbt.Receptor>
prm/pocket_docking_3.prm

>  <SCORE>
-4.65629

>  <SCORE.INTER>
-2.19391

>  <SCORE.INTER.CONST>
1

>  <SCORE.INTER.POLAR>
0

>  <SCORE.INTER.ROT>
11

>  <SCORE.INTER.SOLV>
17.3842

>  <SCORE.INTER.VDW>
-18.1907

>  <SCORE.INTER.norm>
-0.156708

>  <SCORE.INTRA>
-2.46238

>  <SCORE.INTRA.DIHEDRAL>
-7.35797

>  <SCORE.INTRA.DIHEDRAL.0>
10.5765

>  <SCORE.INTRA.POLAR>
0

>  <SCORE.INTRA.POLAR.0>
0

>  <SCORE.INTRA.REPUL>
0

>  <SCORE.INTRA.REPUL.0>
0

>  <SCORE.INTRA.SOLV>
1.28369

>  <SCORE.INTRA.SOLV.lig_0>
-50.1861

>  <SCORE.INTRA.VDW>
0.574762

>  <SCORE.INTRA.VDW.0>
-1.36671

>  <SCORE.INTRA.norm>
-0.175884

>  <SCORE.RESTR>
0

>  <SCORE.RESTR.CAVITY>
0

>  <SCORE.RESTR.norm>
0

>  <SCORE.SYSTEM>
0

>  <SCORE.SYSTEM.CONST>
0

>  <SCORE.SYSTEM.DIHEDRAL>
0

>  <SCORE.SYSTEM.SOLV>
0

>  <SCORE.SYSTEM.norm>
0

>  <SCORE.heavy>
14

>  <SCORE.norm>
-0.332592

>  <RMSD>
1.831

$$$$
ligand
 OpenBabel11021811393D
libRbt.so/2013.1/901 2013/11/27
 14 13  0  0  0  0  0  0  0  0999 V2000
   -7.2452    2.8618    9.7337 N   0  0  0  0  0  0  0  0  0  0  0  0
   -6.1771    2.7452    8.6457 C   0  0  0  0  0  0  0  0  0  0  0  0
   -4.9010    2.5035    9.3666 C   0  0  0  0  0  0  0  0  0  0  0  0
   -3.7097    2.2234    8.4649 C   0  0  0  0  0  0  0  0  0  0  0  0
   -2.4839    2.0736    9.2939 N   0  0  0  0  0  0  0  0  0  0  0  0
   -2.4204    0.6422    9.8568 C   0  0  0  0  0  0  0  0  0  0  0  0
   -0.8395    0.3867    9.9433 C   0  0  0  0  0  0  0  0  0  0  0  0
   -0.6181   -0.7632   10.5325 C   0  0  0  0  0  0  0  0  0  0  0  0
    1.0107   -0.7555   10.3634 C   0  0  0  0  0  0  0  0  0  0  0  0
    1.3123   -2.1125   11.0837 N   0  0  0  0  0  0  0  0  0  0  0  0
    2.8553   -2.4353   11.2016 C   0  0  0  0  0  0  0  0  0  0  0  0
    3.0835   -3.8384   10.3971 C   0  0  0  0  0  0  0  0  0  0  0  0
    4.5302   -4.1549   10.6425 C   0  0  0  0  0  0  0  0  0  0  0  0
    4.8179   -5.3786    9.8050 N   0  0  0  0  0  0  0  0  0  0  0  0
  1  2  1  0  0  0  0
  2  3  1  0  0  0  0
  3  4  1  0  0  0  0
  4  5  1  0  0  0  0
  5  6  1  0  0  0  0
  6  7  1  0  0  0  0
  7  8  1  0  0  0  0
  8  9  1  0  0  0  0
  9 10  1  0  0  0  0
 10 11  1  0  0  0  0
 11 12  1  0  0  0  0
 12 13  1  0  0  0  0
 13 14  1  0  0  0  0
M  END
>  <CHROM.1>
174.50729221,176.89529229,81.99225050,148.81257852,174.01927284,176.31090931
179.05364140,-176.71112156,-119.57244097,-175.25069515,-174.72251514,-0.77029884
-0.42861835,9.95218836,2.52974451,-0.14702629,-0.00189883

>  <Name>
ligand

>  <RI>
0

>  <Rbt.Current_Directory>
/home/itssahil/PROJECTS/Mol_Feturizer/New_Systems/rnas/1FUF

>  <Rbt.Executable>
rbdock ($Id: //depot/dev/client3/rdock/2013.1/src/exe/rbdock.cxx#4 $)

>  <Rbt.Library>
libRbt.so (2013.1, Build901 2013/11/27)

>  <Rbt.Parameter_File>
/export/apps/rDock/src/rDock_2013.1_src/data/scripts/dock_solv.prm

>  <Rbt.Receptor>
prm/blind_docking_40.prm

>  <SCORE>
-4.46459

>  <SCORE.INTER>
-0.907978

>  <SCORE.INTER.CONST>
1

>  <SCORE.INTER.POLAR>
0

>  <SCORE.INTER.ROT>
11

>  <SCORE.INTER.SOLV>
15.2197

>  <SCORE.INTER.VDW>
-16.6119

>  <SCORE.INTER.norm>
-0.0648556

>  <SCORE.INTRA>
-3.55661

>  <SCORE.INTRA.DIHEDRAL>
-7.84086

>  <SCORE.INTRA.DIHEDRAL.0>
10.5765

>  <SCORE.INTRA.POLAR>
0

>  <SCORE.INTRA.POLAR.0>
0

>  <SCORE.INTRA.REPUL>
0

>  <SCORE.INTRA.REPUL.0>
0

>  <SCORE.INTRA.SOLV>
-0.141366

>  <SCORE.INTRA.SOLV.lig_0>
-50.1861

>  <SCORE.INTRA.VDW>
0.434501

>  <SCORE.INTRA.VDW.0>
-1.36671

>  <SCORE.INTRA.norm>
-0.254044

>  <SCORE.RESTR>
0

>  <SCORE.RESTR.CAVITY>
0

>  <SCORE.RESTR.norm>
0

>  <SCORE.SYSTEM>
0

>  <SCORE.SYSTEM.CONST>
0

>  <SCORE.SYSTEM.DIHEDRAL>
0

>  <SCORE.SYSTEM.SOLV>
0

>  <SCORE.SYSTEM.norm>
0

>  <SCORE.heavy>
14

>  <SCORE.norm>
-0.318899

>  <RMSD>
1.835

$$$$
ligand
 OpenBabel11021811393D
libRbt.so/2013.1/901 2013/11/27
 14 13  0  0  0  0  0  0  0  0999 V2000
   -4.8732    2.5660    8.1981 N   0  0  0  0  0  0  0  0  0  0  0  0
   -4.5018    1.7694    9.4493 C   0  0  0  0  0  0  0  0  0  0  0  0
   -3.0665    1.4226    9.2875 C   0  0  0  0  0  0  0  0  0  0  0  0
   -2.5102    0.5142   10.3720 C   0  0  0  0  0  0  0  0  0  0  0  0
   -1.0783    0.2255   10.0916 N   0  0  0  0  0  0  0  0  0  0  0  0
   -0.6031   -0.9253   10.9970 C   0  0  0  0  0  0  0  0  0  0  0  0
    0.8590   -1.2289   10.4123 C   0  0  0  0  0  0  0  0  0  0  0  0
    1.3162   -2.3371   10.9429 C   0  0  0  0  0  0  0  0  0  0  0  0
    2.7733   -2.3210   10.1957 C   0  0  0  0  0  0  0  0  0  0  0  0
    3.2710   -3.7324   10.6556 N   0  0  0  0  0  0  0  0  0  0  0  0
    4.8161   -3.9659   10.4160 C   0  0  0  0  0  0  0  0  0  0  0  0
    5.0150   -5.5837   10.3112 C   0  0  0  0  0  0  0  0  0  0  0  0
    4.3493   -5.9380    9.0133 C   0  0  0  0  0  0  0  0  0  0  0  0
    4.5723   -7.4223    8.8434 N   0  0  0  0  0  0  0  0  0  0  0  0
  1  2  1  0  0  0  0
  2  3  1  0  0  0  0
  3  4  1  0  0  0  0
  4  5  1  0  0  0  0
  5  6  1  0  0  0  0
  6  7  1  0  0  0  0
  7  8  1  0  0  0  0
  8  9  1  0  0  0  0
  9 10  1  0  0  0  0
 10 11  1  0  0  0  0
 11 12  1  0  0  0  0
 12 13  1  0  0  0  0
 13 14  1  0  0  0  0
M  END
>  <CHROM.1>
-174.83332420,179.24594459,-167.60362434,172.14190882,-169.87116097,-178.42504213
-172.70668186,-166.16132263,-155.63409673,69.16813551,177.22595750,0.73861648
-1.92544219,9.94205002,2.67250994,-0.56243338,0.75292709

>  <Name>
ligand

>  <RI>
0

>  <Rbt.Current_Directory>
/home/itssahil/PROJECTS/Mol_Feturizer/New_Systems/rnas/1FUF

>  <Rbt.Executable>
rbdock ($Id: //depot/dev/client3/rdock/2013.1/src/exe/rbdock.cxx#4 $)

>  <Rbt.Library>
libRbt.so (2013.1, Build901 2013/11/27)

>  <Rbt.Parameter_File>
/export/apps/rDock/src/rDock_2013.1_src/data/scripts/dock_solv.prm

>  <Rbt.Receptor>
prm/blind_docking_20.prm

>  <SCORE>
-5.58648

>  <SCORE.INTER>
-1.47111

>  <SCORE.INTER.CONST>
1

>  <SCORE.INTER.POLAR>
0

>  <SCORE.INTER.ROT>
11

>  <SCORE.INTER.SOLV>
16.8134

>  <SCORE.INTER.VDW>
-17.5185

>  <SCORE.INTER.norm>
-0.105079

>  <SCORE.INTRA>
-4.11537

>  <SCORE.INTRA.DIHEDRAL>
-8.7962

>  <SCORE.INTRA.DIHEDRAL.0>
10.5765

>  <SCORE.INTRA.POLAR>
0

>  <SCORE.INTRA.POLAR.0>
0

>  <SCORE.INTRA.REPUL>
0

>  <SCORE.INTRA.REPUL.0>
0

>  <SCORE.INTRA.SOLV>
0.321697

>  <SCORE.INTRA.SOLV.lig_0>
-50.1861

>  <SCORE.INTRA.VDW>
0.121882

>  <SCORE.INTRA.VDW.0>
-1.36671

>  <SCORE.INTRA.norm>
-0.293955

>  <SCORE.RESTR>
0

>  <SCORE.RESTR.CAVITY>
0

>  <SCORE.RESTR.norm>
0

>  <SCORE.SYSTEM>
0

>  <SCORE.SYSTEM.CONST>
0

>  <SCORE.SYSTEM.DIHEDRAL>
0

>  <SCORE.SYSTEM.SOLV>
0

>  <SCORE.SYSTEM.norm>
0

>  <SCORE.heavy>
14

>  <SCORE.norm>
-0.399034

>  <RMSD>
1.836

$$$$
ligand
 OpenBabel11021811393D
libRbt.so/2013.1/901 2013/11/27
 14 13  0  0  0  0  0  0  0  0999 V2000
    4.8529   -6.5963    9.0291 N   0  0  0  0  0  0  0  0  0  0  0  0
    4.0675   -6.3284   10.3134 C   0  0  0  0  0  0  0  0  0  0  0  0
    3.1629   -5.1936    9.9961 C   0  0  0  0  0  0  0  0  0  0  0  0
    2.2689   -4.7583   11.1457 C   0  0  0  0  0  0  0  0  0  0  0  0
    1.4690   -3.5746   10.7319 N   0  0  0  0  0  0  0  0  0  0  0  0
    2.3321   -2.3061   10.8579 C   0  0  0  0  0  0  0  0  0  0  0  0
    1.2728   -1.1470   10.5319 C   0  0  0  0  0  0  0  0  0  0  0  0
    0.4364   -1.0300   11.5347 C   0  0  0  0  0  0  0  0  0  0  0  0
   -0.2321    0.3884   11.0627 C   0  0  0  0  0  0  0  0  0  0  0  0
   -1.3229   -0.1926   10.1015 N   0  0  0  0  0  0  0  0  0  0  0  0
   -1.9076    0.8742    9.0920 C   0  0  0  0  0  0  0  0  0  0  0  0
   -2.8514    1.8658    9.9830 C   0  0  0  0  0  0  0  0  0  0  0  0
   -4.0677    1.0337   10.2681 C   0  0  0  0  0  0  0  0  0  0  0  0
   -4.8580    1.0290    8.9808 N   0  0  0  0  0  0  0  0  0  0  0  0
  1  2  1  0  0  0  0
  2  3  1  0  0  0  0
  3  4  1  0  0  0  0
  4  5  1  0  0  0  0
  5  6  1  0  0  0  0
  6  7  1  0  0  0  0
  7  8  1  0  0  0  0
  8  9  1  0  0  0  0
  9 10  1  0  0  0  0
 10 11  1  0  0  0  0
 11 12  1  0  0  0  0
 12 13  1  0  0  0  0
 13 14  1  0  0  0  0
M  END
>  <CHROM.1>
179.64540101,176.89558076,-80.77807326,-174.11660074,71.66316138,167.62059650
85.64301457,-162.06811783,-72.33436862,-73.81732922,-76.01844317,0.33030598
-1.85235422,10.25942357,0.62972060,0.48513534,-2.62005362

>  <Name>
ligand

>  <RI>
0

>  <Rbt.Current_Directory>
/home/itssahil/PROJECTS/Mol_Feturizer/New_Systems/rnas/1FUF

>  <Rbt.Executable>
rbdock ($Id: //depot/dev/client3/rdock/2013.1/src/exe/rbdock.cxx#4 $)

>  <Rbt.Library>
libRbt.so (2013.1, Build901 2013/11/27)

>  <Rbt.Parameter_File>
/export/apps/rDock/src/rDock_2013.1_src/data/scripts/dock_solv.prm

>  <Rbt.Receptor>
prm/pocket_docking_3.prm

>  <SCORE>
-1.37195

>  <SCORE.INTER>
-1.89781

>  <SCORE.INTER.CONST>
1

>  <SCORE.INTER.POLAR>
0

>  <SCORE.INTER.ROT>
11

>  <SCORE.INTER.SOLV>
17.0394

>  <SCORE.INTER.VDW>
-17.8783

>  <SCORE.INTER.norm>
-0.135558

>  <SCORE.INTRA>
0.525864

>  <SCORE.INTRA.DIHEDRAL>
-4.96171

>  <SCORE.INTRA.DIHEDRAL.0>
10.5765

>  <SCORE.INTRA.POLAR>
0

>  <SCORE.INTRA.POLAR.0>
0

>  <SCORE.INTRA.REPUL>
0.00215444

>  <SCORE.INTRA.REPUL.0>
0

>  <SCORE.INTRA.SOLV>
2.26819

>  <SCORE.INTRA.SOLV.lig_0>
-50.1861

>  <SCORE.INTRA.VDW>
1.86185

>  <SCORE.INTRA.VDW.0>
-1.36671

>  <SCORE.INTRA.norm>
0.0375617

>  <SCORE.RESTR>
0

>  <SCORE.RESTR.CAVITY>
0

>  <SCORE.RESTR.norm>
0

>  <SCORE.SYSTEM>
0

>  <SCORE.SYSTEM.CONST>
0

>  <SCORE.SYSTEM.DIHEDRAL>
0

>  <SCORE.SYSTEM.SOLV>
0

>  <SCORE.SYSTEM.norm>
0

>  <SCORE.heavy>
14

>  <SCORE.norm>
-0.0979961

>  <RMSD>
1.837

$$$$
ligand
 OpenBabel11021811393D
libRbt.so/2013.1/901 2013/11/27
 14 13  0  0  0  0  0  0  0  0999 V2000
    5.4516   -6.9374    8.0838 N   0  0  0  0  0  0  0  0  0  0  0  0
    4.2277   -6.2880    8.7307 C   0  0  0  0  0  0  0  0  0  0  0  0
    4.5541   -6.1779   10.1757 C   0  0  0  0  0  0  0  0  0  0  0  0
    3.4808   -5.5052   11.0160 C   0  0  0  0  0  0  0  0  0  0  0  0
    3.3055   -4.0989   10.5645 N   0  0  0  0  0  0  0  0  0  0  0  0
    2.3472   -3.3706   11.5242 C   0  0  0  0  0  0  0  0  0  0  0  0
    1.8158   -2.1625   10.6132 C   0  0  0  0  0  0  0  0  0  0  0  0
    0.8221   -1.5640   11.2238 C   0  0  0  0  0  0  0  0  0  0  0  0
    0.5398   -0.4356   10.0712 C   0  0  0  0  0  0  0  0  0  0  0  0
   -0.8473    0.0690   10.5935 N   0  0  0  0  0  0  0  0  0  0  0  0
   -1.7447    0.7245    9.4693 C   0  0  0  0  0  0  0  0  0  0  0  0
   -3.2482    0.8296   10.0989 C   0  0  0  0  0  0  0  0  0  0  0  0
   -4.0550    1.4351    8.9874 C   0  0  0  0  0  0  0  0  0  0  0  0
   -5.4664    1.5184    9.5192 N   0  0  0  0  0  0  0  0  0  0  0  0
  1  2  1  0  0  0  0
  2  3  1  0  0  0  0
  3  4  1  0  0  0  0
  4  5  1  0  0  0  0
  5  6  1  0  0  0  0
  6  7  1  0  0  0  0
  7  8  1  0  0  0  0
  8  9  1  0  0  0  0
  9 10  1  0  0  0  0
 10 11  1  0  0  0  0
 11 12  1  0  0  0  0
 12 13  1  0  0  0  0
 13 14  1  0  0  0  0
M  END
>  <CHROM.1>
177.92532684,-62.96700563,-173.09446888,-157.85115824,170.10761448,179.85547489
166.88257018,-155.84478481,165.91542472,-179.15611082,178.64153877,0.79885792
-2.28309561,10.04809027,0.36905896,0.64653012,-2.14063244

>  <Name>
ligand

>  <RI>
0

>  <Rbt.Current_Directory>
/home/itssahil/PROJECTS/Mol_Feturizer/New_Systems/rnas/1FUF

>  <Rbt.Executable>
rbdock ($Id: //depot/dev/client3/rdock/2013.1/src/exe/rbdock.cxx#4 $)

>  <Rbt.Library>
libRbt.so (2013.1, Build901 2013/11/27)

>  <Rbt.Parameter_File>
/export/apps/rDock/src/rDock_2013.1_src/data/scripts/dock_solv.prm

>  <Rbt.Receptor>
prm/blind_docking_40.prm

>  <SCORE>
-6.81059

>  <SCORE.INTER>
-2.73352

>  <SCORE.INTER.CONST>
1

>  <SCORE.INTER.POLAR>
0

>  <SCORE.INTER.ROT>
11

>  <SCORE.INTER.SOLV>
14.8405

>  <SCORE.INTER.VDW>
-17.7025

>  <SCORE.INTER.norm>
-0.195251

>  <SCORE.INTRA>
-4.07707

>  <SCORE.INTRA.DIHEDRAL>
-8.55521

>  <SCORE.INTRA.DIHEDRAL.0>
10.5765

>  <SCORE.INTRA.POLAR>
0

>  <SCORE.INTRA.POLAR.0>
0

>  <SCORE.INTRA.REPUL>
0

>  <SCORE.INTRA.REPUL.0>
0

>  <SCORE.INTRA.SOLV>
0.24387

>  <SCORE.INTRA.SOLV.lig_0>
-50.1861

>  <SCORE.INTRA.VDW>
0.0785971

>  <SCORE.INTRA.VDW.0>
-1.36671

>  <SCORE.INTRA.norm>
-0.29122

>  <SCORE.RESTR>
0

>  <SCORE.RESTR.CAVITY>
0

>  <SCORE.RESTR.norm>
0

>  <SCORE.SYSTEM>
0

>  <SCORE.SYSTEM.CONST>
0

>  <SCORE.SYSTEM.DIHEDRAL>
0

>  <SCORE.SYSTEM.SOLV>
0

>  <SCORE.SYSTEM.norm>
0

>  <SCORE.heavy>
14

>  <SCORE.norm>
-0.486471

>  <RMSD>
1.844

$$$$
ligand
 OpenBabel11021811393D
libRbt.so/2013.1/901 2013/11/27
 14 13  0  0  0  0  0  0  0  0999 V2000
    5.4168   -6.8430    7.9899 N   0  0  0  0  0  0  0  0  0  0  0  0
    4.1982   -6.1873    8.6405 C   0  0  0  0  0  0  0  0  0  0  0  0
    4.4883   -6.1679   10.0972 C   0  0  0  0  0  0  0  0  0  0  0  0
    3.4138   -5.5081   10.9462 C   0  0  0  0  0  0  0  0  0  0  0  0
    3.2792   -4.0795   10.5547 N   0  0  0  0  0  0  0  0  0  0  0  0
    2.2891   -3.3813   11.5045 C   0  0  0  0  0  0  0  0  0  0  0  0
    1.7967   -2.1380   10.6192 C   0  0  0  0  0  0  0  0  0  0  0  0
    0.7669   -1.5728   11.2010 C   0  0  0  0  0  0  0  0  0  0  0  0
    0.4902   -0.4438   10.0475 C   0  0  0  0  0  0  0  0  0  0  0  0
   -0.8697    0.1032   10.5981 N   0  0  0  0  0  0  0  0  0  0  0  0
   -1.7763    0.7720    9.4892 C   0  0  0  0  0  0  0  0  0  0  0  0
   -3.1867    1.1421   10.2251 C   0  0  0  0  0  0  0  0  0  0  0  0
   -4.0439    1.6587    9.1064 C   0  0  0  0  0  0  0  0  0  0  0  0
   -5.3846    1.9554    9.7360 N   0  0  0  0  0  0  0  0  0  0  0  0
  1  2  1  0  0  0  0
  2  3  1  0  0  0  0
  3  4  1  0  0  0  0
  4  5  1  0  0  0  0
  5  6  1  0  0  0  0
  6  7  1  0  0  0  0
  7  8  1  0  0  0  0
  8  9  1  0  0  0  0
  9 10  1  0  0  0  0
 10 11  1  0  0  0  0
 11 12  1  0  0  0  0
 12 13  1  0  0  0  0
 13 14  1  0  0  0  0
M  END
>  <CHROM.1>
178.07870988,-62.04562822,-174.61698222,-156.87380476,168.87256584,-177.48189869
171.50675140,-155.61650063,174.72614991,-175.23074529,177.51478998,0.77706046
-2.19215417,10.05409568,0.30856828,0.69414913,-2.00657869

>  <Name>
ligand

>  <RI>
0

>  <Rbt.Current_Directory>
/home/itssahil/PROJECTS/Mol_Feturizer/New_Systems/rnas/1FUF

>  <Rbt.Executable>
rbdock ($Id: //depot/dev/client3/rdock/2013.1/src/exe/rbdock.cxx#4 $)

>  <Rbt.Library>
libRbt.so (2013.1, Build901 2013/11/27)

>  <Rbt.Parameter_File>
/export/apps/rDock/src/rDock_2013.1_src/data/scripts/dock_solv.prm

>  <Rbt.Receptor>
prm/pocket_docking_4.prm

>  <SCORE>
-6.72836

>  <SCORE.INTER>
-2.53239

>  <SCORE.INTER.CONST>
1

>  <SCORE.INTER.POLAR>
0

>  <SCORE.INTER.ROT>
11

>  <SCORE.INTER.SOLV>
15.3095

>  <SCORE.INTER.VDW>
-17.7248

>  <SCORE.INTER.norm>
-0.180885

>  <SCORE.INTRA>
-4.19597

>  <SCORE.INTRA.DIHEDRAL>
-8.82623

>  <SCORE.INTRA.DIHEDRAL.0>
10.5765

>  <SCORE.INTRA.POLAR>
0

>  <SCORE.INTRA.POLAR.0>
0

>  <SCORE.INTRA.REPUL>
0

>  <SCORE.INTRA.REPUL.0>
0

>  <SCORE.INTRA.SOLV>
0.252415

>  <SCORE.INTRA.SOLV.lig_0>
-50.1861

>  <SCORE.INTRA.VDW>
0.0909383

>  <SCORE.INTRA.VDW.0>
-1.36671

>  <SCORE.INTRA.norm>
-0.299712

>  <SCORE.RESTR>
0

>  <SCORE.RESTR.CAVITY>
0

>  <SCORE.RESTR.norm>
0

>  <SCORE.SYSTEM>
0

>  <SCORE.SYSTEM.CONST>
0

>  <SCORE.SYSTEM.DIHEDRAL>
0

>  <SCORE.SYSTEM.SOLV>
0

>  <SCORE.SYSTEM.norm>
0

>  <SCORE.heavy>
14

>  <SCORE.norm>
-0.480597

>  <RMSD>
1.846

$$$$
ligand
 OpenBabel11021811393D
libRbt.so/2013.1/901 2013/11/27
 14 13  0  0  0  0  0  0  0  0999 V2000
    4.8967   -6.2154    8.8821 N   0  0  0  0  0  0  0  0  0  0  0  0
    3.6534   -6.4268    9.7466 C   0  0  0  0  0  0  0  0  0  0  0  0
    3.9384   -5.7321   11.0283 C   0  0  0  0  0  0  0  0  0  0  0  0
    3.9286   -4.2146   10.9398 C   0  0  0  0  0  0  0  0  0  0  0  0
    2.5397   -3.7402   10.6989 N   0  0  0  0  0  0  0  0  0  0  0  0
    2.5589   -2.2266   10.4190 C   0  0  0  0  0  0  0  0  0  0  0  0
    1.0194   -1.8284   10.6275 C   0  0  0  0  0  0  0  0  0  0  0  0
    0.8799   -0.5356   10.4608 C   0  0  0  0  0  0  0  0  0  0  0  0
   -0.7091   -0.4620   10.8497 C   0  0  0  0  0  0  0  0  0  0  0  0
   -0.8997    1.0848   10.7008 N   0  0  0  0  0  0  0  0  0  0  0  0
   -2.4108    1.5442   10.7706 C   0  0  0  0  0  0  0  0  0  0  0  0
   -2.8935    1.7376    9.2222 C   0  0  0  0  0  0  0  0  0  0  0  0
   -4.3071    2.2256    9.3514 C   0  0  0  0  0  0  0  0  0  0  0  0
   -4.7847    2.4426    7.9348 N   0  0  0  0  0  0  0  0  0  0  0  0
  1  2  1  0  0  0  0
  2  3  1  0  0  0  0
  3  4  1  0  0  0  0
  4  5  1  0  0  0  0
  5  6  1  0  0  0  0
  6  7  1  0  0  0  0
  7  8  1  0  0  0  0
  8  9  1  0  0  0  0
  9 10  1  0  0  0  0
 10 11  1  0  0  0  0
 11 12  1  0  0  0  0
 12 13  1  0  0  0  0
 13 14  1  0  0  0  0
M  END
>  <CHROM.1>
71.59501127,68.91945145,-172.34947164,-163.65167678,178.03180991,-175.73690557
178.42483857,170.42091075,-98.70130679,-177.73948484,178.97548934,0.52931384
-1.59620815,10.11682895,0.45110674,0.66647644,-2.33783850

>  <Name>
ligand

>  <RI>
0

>  <Rbt.Current_Directory>
/home/itssahil/PROJECTS/Mol_Feturizer/New_Systems/rnas/1FUF

>  <Rbt.Executable>
rbdock ($Id: //depot/dev/client3/rdock/2013.1/src/exe/rbdock.cxx#4 $)

>  <Rbt.Library>
libRbt.so (2013.1, Build901 2013/11/27)

>  <Rbt.Parameter_File>
/export/apps/rDock/src/rDock_2013.1_src/data/scripts/dock_solv.prm

>  <Rbt.Receptor>
prm/blind_docking_20.prm

>  <SCORE>
-6.13698

>  <SCORE.INTER>
-2.68098

>  <SCORE.INTER.CONST>
1

>  <SCORE.INTER.POLAR>
0

>  <SCORE.INTER.ROT>
11

>  <SCORE.INTER.SOLV>
14.485

>  <SCORE.INTER.VDW>
-17.549

>  <SCORE.INTER.norm>
-0.191498

>  <SCORE.INTRA>
-3.456

>  <SCORE.INTRA.DIHEDRAL>
-8.47235

>  <SCORE.INTRA.DIHEDRAL.0>
10.5765

>  <SCORE.INTRA.POLAR>
0

>  <SCORE.INTRA.POLAR.0>
0

>  <SCORE.INTRA.REPUL>
0

>  <SCORE.INTRA.REPUL.0>
0

>  <SCORE.INTRA.SOLV>
1.38032

>  <SCORE.INTRA.SOLV.lig_0>
-50.1861

>  <SCORE.INTRA.VDW>
0.0900132

>  <SCORE.INTRA.VDW.0>
-1.36671

>  <SCORE.INTRA.norm>
-0.246857

>  <SCORE.RESTR>
0

>  <SCORE.RESTR.CAVITY>
0

>  <SCORE.RESTR.norm>
0

>  <SCORE.SYSTEM>
0

>  <SCORE.SYSTEM.CONST>
0

>  <SCORE.SYSTEM.DIHEDRAL>
0

>  <SCORE.SYSTEM.SOLV>
0

>  <SCORE.SYSTEM.norm>
0

>  <SCORE.heavy>
14

>  <SCORE.norm>
-0.438356

>  <RMSD>
1.849

$$$$
ligand
 OpenBabel11021811393D
libRbt.so/2013.1/901 2013/11/27
 14 13  0  0  0  0  0  0  0  0999 V2000
   -4.8377    2.1340    8.2246 N   0  0  0  0  0  0  0  0  0  0  0  0
   -3.3845    1.8674    8.6184 C   0  0  0  0  0  0  0  0  0  0  0  0
   -3.3971    1.7032   10.0948 C   0  0  0  0  0  0  0  0  0  0  0  0
   -2.0251    1.5120   10.7206 C   0  0  0  0  0  0  0  0  0  0  0  0
   -1.4024    0.2729   10.1830 N   0  0  0  0  0  0  0  0  0  0  0  0
   -0.1233   -0.0424   10.9795 C   0  0  0  0  0  0  0  0  0  0  0  0
    0.2326   -1.5206   10.4692 C   0  0  0  0  0  0  0  0  0  0  0  0
    1.2909   -1.9564   11.1085 C   0  0  0  0  0  0  0  0  0  0  0  0
    1.3764   -3.4140   10.3670 C   0  0  0  0  0  0  0  0  0  0  0  0
    2.5125   -4.0396   11.2441 N   0  0  0  0  0  0  0  0  0  0  0  0
    2.8799   -5.5224   10.8374 C   0  0  0  0  0  0  0  0  0  0  0  0
    3.8977   -5.4004    9.5657 C   0  0  0  0  0  0  0  0  0  0  0  0
    4.1893   -6.8288    9.2084 C   0  0  0  0  0  0  0  0  0  0  0  0
    5.1770   -6.7605    8.0675 N   0  0  0  0  0  0  0  0  0  0  0  0
  1  2  1  0  0  0  0
  2  3  1  0  0  0  0
  3  4  1  0  0  0  0
  4  5  1  0  0  0  0
  5  6  1  0  0  0  0
  6  7  1  0  0  0  0
  7  8  1  0  0  0  0
  8  9  1  0  0  0  0
  9 10  1  0  0  0  0
 10 11  1  0  0  0  0
 11 12  1  0  0  0  0
 12 13  1  0  0  0  0
 13 14  1  0  0  0  0
M  END
>  <CHROM.1>
-176.36979463,-61.48426898,-170.86516664,169.29689962,-177.53152664,-179.53749421
-172.70528908,178.93403910,81.93220219,-178.94337168,-177.71146005,0.45619962
-1.99965512,9.97798084,2.85206238,-0.77428529,1.15894772

>  <Name>
ligand

>  <RI>
0

>  <Rbt.Current_Directory>
/home/itssahil/PROJECTS/Mol_Feturizer/New_Systems/rnas/1FUF

>  <Rbt.Executable>
rbdock ($Id: //depot/dev/client3/rdock/2013.1/src/exe/rbdock.cxx#4 $)

>  <Rbt.Library>
libRbt.so (2013.1, Build901 2013/11/27)

>  <Rbt.Parameter_File>
/export/apps/rDock/src/rDock_2013.1_src/data/scripts/dock_solv.prm

>  <Rbt.Receptor>
prm/pocket_docking_3.prm

>  <SCORE>
-7.11097

>  <SCORE.INTER>
-2.56123

>  <SCORE.INTER.CONST>
1

>  <SCORE.INTER.POLAR>
0

>  <SCORE.INTER.ROT>
11

>  <SCORE.INTER.SOLV>
15.0573

>  <SCORE.INTER.VDW>
-17.6599

>  <SCORE.INTER.norm>
-0.182945

>  <SCORE.INTRA>
-4.54974

>  <SCORE.INTRA.DIHEDRAL>
-9.75755

>  <SCORE.INTRA.DIHEDRAL.0>
10.5765

>  <SCORE.INTRA.POLAR>
0

>  <SCORE.INTRA.POLAR.0>
0

>  <SCORE.INTRA.REPUL>
0

>  <SCORE.INTRA.REPUL.0>
0

>  <SCORE.INTRA.SOLV>
0.214478

>  <SCORE.INTRA.SOLV.lig_0>
-50.1861

>  <SCORE.INTRA.VDW>
0.221801

>  <SCORE.INTRA.VDW.0>
-1.36671

>  <SCORE.INTRA.norm>
-0.324981

>  <SCORE.RESTR>
0

>  <SCORE.RESTR.CAVITY>
0

>  <SCORE.RESTR.norm>
0

>  <SCORE.SYSTEM>
0

>  <SCORE.SYSTEM.CONST>
0

>  <SCORE.SYSTEM.DIHEDRAL>
0

>  <SCORE.SYSTEM.SOLV>
0

>  <SCORE.SYSTEM.norm>
0

>  <SCORE.heavy>
14

>  <SCORE.norm>
-0.507926

>  <RMSD>
1.850

$$$$
ligand
 OpenBabel11021811393D
libRbt.so/2013.1/901 2013/11/27
 14 13  0  0  0  0  0  0  0  0999 V2000
   -7.0329    2.4490    8.1477 N   0  0  0  0  0  0  0  0  0  0  0  0
   -6.9462    2.5532    9.6708 C   0  0  0  0  0  0  0  0  0  0  0  0
   -5.9714    1.5117   10.0850 C   0  0  0  0  0  0  0  0  0  0  0  0
   -4.5419    1.7712    9.6381 C   0  0  0  0  0  0  0  0  0  0  0  0
   -3.6450    0.7353   10.2164 N   0  0  0  0  0  0  0  0  0  0  0  0
   -2.2364    0.8857    9.6138 C   0  0  0  0  0  0  0  0  0  0  0  0
   -1.3678   -0.0874   10.5467 C   0  0  0  0  0  0  0  0  0  0  0  0
   -0.1799   -0.2493   10.0164 C   0  0  0  0  0  0  0  0  0  0  0  0
    0.4014   -1.2719   11.1558 C   0  0  0  0  0  0  0  0  0  0  0  0
    1.7874   -1.5735   10.4928 N   0  0  0  0  0  0  0  0  0  0  0  0
    2.6918   -2.5554   11.3396 C   0  0  0  0  0  0  0  0  0  0  0  0
    3.9583   -2.9382   10.3819 C   0  0  0  0  0  0  0  0  0  0  0  0
    3.3475   -3.8021    9.3171 C   0  0  0  0  0  0  0  0  0  0  0  0
    2.9574   -5.0821   10.0178 N   0  0  0  0  0  0  0  0  0  0  0  0
  1  2  1  0  0  0  0
  2  3  1  0  0  0  0
  3  4  1  0  0  0  0
  4  5  1  0  0  0  0
  5  6  1  0  0  0  0
  6  7  1  0  0  0  0
  7  8  1  0  0  0  0
  8  9  1  0  0  0  0
  9 10  1  0  0  0  0
 10 11  1  0  0  0  0
 11 12  1  0  0  0  0
 12 13  1  0  0  0  0
 13 14  1  0  0  0  0
M  END
>  <CHROM.1>
67.25677783,174.74456593,172.43550020,169.19550121,169.12180502,-178.94041465
175.89166747,179.27474539,170.74915703,-69.97254504,-69.01612367,-1.19829780
-0.54657684,10.04583300,2.79180257,-0.42249576,0.67380896

>  <Name>
ligand

>  <RI>
0

>  <Rbt.Current_Directory>
/home/itssahil/PROJECTS/Mol_Feturizer/New_Systems/rnas/1FUF

>  <Rbt.Executable>
rbdock ($Id: //depot/dev/client3/rdock/2013.1/src/exe/rbdock.cxx#4 $)

>  <Rbt.Library>
libRbt.so (2013.1, Build901 2013/11/27)

>  <Rbt.Parameter_File>
/export/apps/rDock/src/rDock_2013.1_src/data/scripts/dock_solv.prm

>  <Rbt.Receptor>
prm/pocket_docking_2.prm

>  <SCORE>
-3.36934

>  <SCORE.INTER>
-0.823904

>  <SCORE.INTER.CONST>
1

>  <SCORE.INTER.POLAR>
0

>  <SCORE.INTER.ROT>
11

>  <SCORE.INTER.SOLV>
15.7253

>  <SCORE.INTER.VDW>
-16.7244

>  <SCORE.INTER.norm>
-0.0588503

>  <SCORE.INTRA>
-2.54543

>  <SCORE.INTRA.DIHEDRAL>
-8.89268

>  <SCORE.INTRA.DIHEDRAL.0>
10.5765

>  <SCORE.INTRA.POLAR>
0

>  <SCORE.INTRA.POLAR.0>
0

>  <SCORE.INTRA.REPUL>
0

>  <SCORE.INTRA.REPUL.0>
0

>  <SCORE.INTRA.SOLV>
2.54547

>  <SCORE.INTRA.SOLV.lig_0>
-50.1861

>  <SCORE.INTRA.VDW>
0.628173

>  <SCORE.INTRA.VDW.0>
-1.36671

>  <SCORE.INTRA.norm>
-0.181817

>  <SCORE.RESTR>
0

>  <SCORE.RESTR.CAVITY>
0

>  <SCORE.RESTR.norm>
0

>  <SCORE.SYSTEM>
0

>  <SCORE.SYSTEM.CONST>
0

>  <SCORE.SYSTEM.DIHEDRAL>
0

>  <SCORE.SYSTEM.SOLV>
0

>  <SCORE.SYSTEM.norm>
0

>  <SCORE.heavy>
14

>  <SCORE.norm>
-0.240667

>  <RMSD>
1.852

$$$$
ligand
 OpenBabel11021811393D
libRbt.so/2013.1/901 2013/11/27
 14 13  0  0  0  0  0  0  0  0999 V2000
   -4.9340    2.1930    8.9630 N   0  0  0  0  0  0  0  0  0  0  0  0
   -3.8433    2.2303    7.8920 C   0  0  0  0  0  0  0  0  0  0  0  0
   -2.5600    2.0921    8.6274 C   0  0  0  0  0  0  0  0  0  0  0  0
   -2.4060    0.7854    9.3886 C   0  0  0  0  0  0  0  0  0  0  0  0
   -1.0353    0.7022    9.9601 N   0  0  0  0  0  0  0  0  0  0  0  0
   -0.8758   -0.6321   10.7112 C   0  0  0  0  0  0  0  0  0  0  0  0
    0.6606   -0.9940   10.4273 C   0  0  0  0  0  0  0  0  0  0  0  0
    0.9121   -2.1991   10.8778 C   0  0  0  0  0  0  0  0  0  0  0  0
    2.4749   -2.2632   10.3928 C   0  0  0  0  0  0  0  0  0  0  0  0
    2.7943   -3.7183   10.8746 N   0  0  0  0  0  0  0  0  0  0  0  0
    4.3417   -4.0166   10.9991 C   0  0  0  0  0  0  0  0  0  0  0  0
    4.5321   -5.5843   10.5819 C   0  0  0  0  0  0  0  0  0  0  0  0
    4.2322   -5.5973    9.1112 C   0  0  0  0  0  0  0  0  0  0  0  0
    4.5927   -6.9876    8.6433 N   0  0  0  0  0  0  0  0  0  0  0  0
  1  2  1  0  0  0  0
  2  3  1  0  0  0  0
  3  4  1  0  0  0  0
  4  5  1  0  0  0  0
  5  6  1  0  0  0  0
  6  7  1  0  0  0  0
  7  8  1  0  0  0  0
  8  9  1  0  0  0  0
  9 10  1  0  0  0  0
 10 11  1  0  0  0  0
 11 12  1  0  0  0  0
 12 13  1  0  0  0  0
 13 14  1  0  0  0  0
M  END
>  <CHROM.1>
62.08099473,174.04554463,-179.10870845,145.26792182,-172.61284228,177.98919658
-178.15297041,-161.79406633,-145.60363743,68.93826812,171.93408370,0.63483895
-1.71343985,9.81794557,2.83772438,-0.70930301,0.97824281

>  <Name>
ligand

>  <RI>
0

>  <Rbt.Current_Directory>
/home/itssahil/PROJECTS/Mol_Feturizer/New_Systems/rnas/1FUF

>  <Rbt.Executable>
rbdock ($Id: //depot/dev/client3/rdock/2013.1/src/exe/rbdock.cxx#4 $)

>  <Rbt.Library>
libRbt.so (2013.1, Build901 2013/11/27)

>  <Rbt.Parameter_File>
/export/apps/rDock/src/rDock_2013.1_src/data/scripts/dock_solv.prm

>  <Rbt.Receptor>
prm/pocket_docking_8.prm

>  <SCORE>
-4.85062

>  <SCORE.INTER>
-1.83776

>  <SCORE.INTER.CONST>
1

>  <SCORE.INTER.POLAR>
0

>  <SCORE.INTER.ROT>
11

>  <SCORE.INTER.SOLV>
15.8172

>  <SCORE.INTER.VDW>
-17.4309

>  <SCORE.INTER.norm>
-0.131268

>  <SCORE.INTRA>
-3.01286

>  <SCORE.INTRA.DIHEDRAL>
-7.91674

>  <SCORE.INTRA.DIHEDRAL.0>
10.5765

>  <SCORE.INTRA.POLAR>
0

>  <SCORE.INTRA.POLAR.0>
0

>  <SCORE.INTRA.REPUL>
0

>  <SCORE.INTRA.REPUL.0>
0

>  <SCORE.INTRA.SOLV>
1.18342

>  <SCORE.INTRA.SOLV.lig_0>
-50.1861

>  <SCORE.INTRA.VDW>
0.353796

>  <SCORE.INTRA.VDW.0>
-1.36671

>  <SCORE.INTRA.norm>
-0.215204

>  <SCORE.RESTR>
0

>  <SCORE.RESTR.CAVITY>
0

>  <SCORE.RESTR.norm>
0

>  <SCORE.SYSTEM>
0

>  <SCORE.SYSTEM.CONST>
0

>  <SCORE.SYSTEM.DIHEDRAL>
0

>  <SCORE.SYSTEM.SOLV>
0

>  <SCORE.SYSTEM.norm>
0

>  <SCORE.heavy>
14

>  <SCORE.norm>
-0.346473

>  <RMSD>
1.861

$$$$
ligand
 OpenBabel11021811393D
libRbt.so/2013.1/901 2013/11/27
 14 13  0  0  0  0  0  0  0  0999 V2000
    5.1534   -6.8361    8.3042 N   0  0  0  0  0  0  0  0  0  0  0  0
    3.8720   -6.3040    8.9469 C   0  0  0  0  0  0  0  0  0  0  0  0
    4.3166   -5.5159   10.1251 C   0  0  0  0  0  0  0  0  0  0  0  0
    3.1901   -4.8634   10.9098 C   0  0  0  0  0  0  0  0  0  0  0  0
    2.4732   -3.8953   10.0374 N   0  0  0  0  0  0  0  0  0  0  0  0
    2.9354   -2.4659   10.3736 C   0  0  0  0  0  0  0  0  0  0  0  0
    1.7841   -1.9685   11.3731 C   0  0  0  0  0  0  0  0  0  0  0  0
    0.6565   -1.8568   10.7137 C   0  0  0  0  0  0  0  0  0  0  0  0
    0.8024   -0.2664   10.3517 C   0  0  0  0  0  0  0  0  0  0  0  0
   -0.5095   -0.1119    9.5111 N   0  0  0  0  0  0  0  0  0  0  0  0
   -1.7394    0.4166   10.3522 C   0  0  0  0  0  0  0  0  0  0  0  0
   -2.9435    0.6683    9.2776 C   0  0  0  0  0  0  0  0  0  0  0  0
   -4.0743    1.1726   10.1262 C   0  0  0  0  0  0  0  0  0  0  0  0
   -5.2050    1.4451    9.1623 N   0  0  0  0  0  0  0  0  0  0  0  0
  1  2  1  0  0  0  0
  2  3  1  0  0  0  0
  3  4  1  0  0  0  0
  4  5  1  0  0  0  0
  5  6  1  0  0  0  0
  6  7  1  0  0  0  0
  7  8  1  0  0  0  0
  8  9  1  0  0  0  0
  9 10  1  0  0  0  0
 10 11  1  0  0  0  0
 11 12  1  0  0  0  0
 12 13  1  0  0  0  0
 13 14  1  0  0  0  0
M  END
>  <CHROM.1>
178.90486122,-61.97728983,-101.55776613,-97.05292001,-67.18534175,-93.71553854
177.91564513,95.17491882,173.76201267,-179.70950603,178.90603782,0.76526864
-2.17004769,9.96920577,0.55374619,0.48789633,-2.47280664

>  <Name>
ligand

>  <RI>
0

>  <Rbt.Current_Directory>
/home/itssahil/PROJECTS/Mol_Feturizer/New_Systems/rnas/1FUF

>  <Rbt.Executable>
rbdock ($Id: //depot/dev/client3/rdock/2013.1/src/exe/rbdock.cxx#4 $)

>  <Rbt.Library>
libRbt.so (2013.1, Build901 2013/11/27)

>  <Rbt.Parameter_File>
/export/apps/rDock/src/rDock_2013.1_src/data/scripts/dock_solv.prm

>  <Rbt.Receptor>
prm/blind_docking_20.prm

>  <SCORE>
-2.53609

>  <SCORE.INTER>
-2.61301

>  <SCORE.INTER.CONST>
1

>  <SCORE.INTER.POLAR>
0

>  <SCORE.INTER.ROT>
11

>  <SCORE.INTER.SOLV>
15.7461

>  <SCORE.INTER.VDW>
-17.924

>  <SCORE.INTER.norm>
-0.186644

>  <SCORE.INTRA>
0.0769232

>  <SCORE.INTRA.DIHEDRAL>
-4.14107

>  <SCORE.INTRA.DIHEDRAL.0>
10.5765

>  <SCORE.INTRA.POLAR>
0

>  <SCORE.INTRA.POLAR.0>
0

>  <SCORE.INTRA.REPUL>
0

>  <SCORE.INTRA.REPUL.0>
0

>  <SCORE.INTRA.SOLV>
0.921728

>  <SCORE.INTRA.SOLV.lig_0>
-50.1861

>  <SCORE.INTRA.VDW>
1.68659

>  <SCORE.INTRA.VDW.0>
-1.36671

>  <SCORE.INTRA.norm>
0.00549452

>  <SCORE.RESTR>
0

>  <SCORE.RESTR.CAVITY>
0

>  <SCORE.RESTR.norm>
0

>  <SCORE.SYSTEM>
0

>  <SCORE.SYSTEM.CONST>
0

>  <SCORE.SYSTEM.DIHEDRAL>
0

>  <SCORE.SYSTEM.SOLV>
0

>  <SCORE.SYSTEM.norm>
0

>  <SCORE.heavy>
14

>  <SCORE.norm>
-0.181149

>  <RMSD>
1.872

$$$$
ligand
 OpenBabel11021811393D
libRbt.so/2013.1/901 2013/11/27
 14 13  0  0  0  0  0  0  0  0999 V2000
    4.8508   -6.8123    8.1369 N   0  0  0  0  0  0  0  0  0  0  0  0
    4.6002   -5.4701    8.8252 C   0  0  0  0  0  0  0  0  0  0  0  0
    3.9526   -5.8029   10.1201 C   0  0  0  0  0  0  0  0  0  0  0  0
    3.7287   -4.6125   11.0384 C   0  0  0  0  0  0  0  0  0  0  0  0
    2.8209   -3.6382   10.3760 N   0  0  0  0  0  0  0  0  0  0  0  0
    2.6459   -2.4062   11.2823 C   0  0  0  0  0  0  0  0  0  0  0  0
    1.5818   -1.5336   10.4587 C   0  0  0  0  0  0  0  0  0  0  0  0
    0.4066   -2.1109   10.5218 C   0  0  0  0  0  0  0  0  0  0  0  0
   -0.3209   -0.9660   11.4393 C   0  0  0  0  0  0  0  0  0  0  0  0
   -0.7547   -0.0025   10.2839 N   0  0  0  0  0  0  0  0  0  0  0  0
   -1.3715    1.3599   10.7964 C   0  0  0  0  0  0  0  0  0  0  0  0
   -2.9897    1.2100   10.6332 C   0  0  0  0  0  0  0  0  0  0  0  0
   -3.1967    1.2143    9.1465 C   0  0  0  0  0  0  0  0  0  0  0  0
   -4.6934    1.2793    8.9528 N   0  0  0  0  0  0  0  0  0  0  0  0
  1  2  1  0  0  0  0
  2  3  1  0  0  0  0
  3  4  1  0  0  0  0
  4  5  1  0  0  0  0
  5  6  1  0  0  0  0
  6  7  1  0  0  0  0
  7  8  1  0  0  0  0
  8  9  1  0  0  0  0
  9 10  1  0  0  0  0
 10 11  1  0  0  0  0
 11 12  1  0  0  0  0
 12 13  1  0  0  0  0
 13 14  1  0  0  0  0
M  END
>  <CHROM.1>
174.50162514,61.62259214,-177.52604848,-176.48175023,71.61906942,111.83545451
85.65106311,-173.27323684,-101.91144559,-69.35183837,-172.03201865,0.80441857
-2.02073008,10.14396469,0.44860585,0.61504332,-2.21006844

>  <Name>
ligand

>  <RI>
0

>  <Rbt.Current_Directory>
/home/itssahil/PROJECTS/Mol_Feturizer/New_Systems/rnas/1FUF

>  <Rbt.Executable>
rbdock ($Id: //depot/dev/client3/rdock/2013.1/src/exe/rbdock.cxx#4 $)

>  <Rbt.Library>
libRbt.so (2013.1, Build901 2013/11/27)

>  <Rbt.Parameter_File>
/export/apps/rDock/src/rDock_2013.1_src/data/scripts/dock_solv.prm

>  <Rbt.Receptor>
prm/blind_docking_80.prm

>  <SCORE>
0.343703

>  <SCORE.INTER>
-1.39673

>  <SCORE.INTER.CONST>
1

>  <SCORE.INTER.POLAR>
0

>  <SCORE.INTER.ROT>
11

>  <SCORE.INTER.SOLV>
15.5188

>  <SCORE.INTER.VDW>
-17.0374

>  <SCORE.INTER.norm>
-0.0997661

>  <SCORE.INTRA>
1.74043

>  <SCORE.INTRA.DIHEDRAL>
-0.412676

>  <SCORE.INTRA.DIHEDRAL.0>
10.5765

>  <SCORE.INTRA.POLAR>
0

>  <SCORE.INTRA.POLAR.0>
0

>  <SCORE.INTRA.REPUL>
0

>  <SCORE.INTRA.REPUL.0>
0

>  <SCORE.INTRA.SOLV>
1.45375

>  <SCORE.INTRA.SOLV.lig_0>
-50.1861

>  <SCORE.INTRA.VDW>
1.21989

>  <SCORE.INTRA.VDW.0>
-1.36671

>  <SCORE.INTRA.norm>
0.124316

>  <SCORE.RESTR>
0

>  <SCORE.RESTR.CAVITY>
0

>  <SCORE.RESTR.norm>
0

>  <SCORE.SYSTEM>
0

>  <SCORE.SYSTEM.CONST>
0

>  <SCORE.SYSTEM.DIHEDRAL>
0

>  <SCORE.SYSTEM.SOLV>
0

>  <SCORE.SYSTEM.norm>
0

>  <SCORE.heavy>
14

>  <SCORE.norm>
0.0245502

>  <RMSD>
1.872

$$$$
ligand
 OpenBabel11021811393D
libRbt.so/2013.1/901 2013/11/27
 14 13  0  0  0  0  0  0  0  0999 V2000
   -5.1497    1.2693    9.6471 N   0  0  0  0  0  0  0  0  0  0  0  0
   -3.9379    0.3446    9.5257 C   0  0  0  0  0  0  0  0  0  0  0  0
   -2.7598    1.2445    9.4316 C   0  0  0  0  0  0  0  0  0  0  0  0
   -1.4411    0.5336    9.1744 C   0  0  0  0  0  0  0  0  0  0  0  0
   -1.0822   -0.2909   10.3591 N   0  0  0  0  0  0  0  0  0  0  0  0
    0.1879    0.2820   11.0137 C   0  0  0  0  0  0  0  0  0  0  0  0
    0.8698   -1.0330   11.6281 C   0  0  0  0  0  0  0  0  0  0  0  0
    1.3479   -1.7685   10.6539 C   0  0  0  0  0  0  0  0  0  0  0  0
    2.1553   -2.8360   11.5974 C   0  0  0  0  0  0  0  0  0  0  0  0
    2.5908   -3.8358   10.4740 N   0  0  0  0  0  0  0  0  0  0  0  0
    2.7518   -5.3243   10.9814 C   0  0  0  0  0  0  0  0  0  0  0  0
    3.2694   -6.1846    9.6931 C   0  0  0  0  0  0  0  0  0  0  0  0
    4.6574   -5.6646    9.4558 C   0  0  0  0  0  0  0  0  0  0  0  0
    5.1645   -6.4187    8.2491 N   0  0  0  0  0  0  0  0  0  0  0  0
  1  2  1  0  0  0  0
  2  3  1  0  0  0  0
  3  4  1  0  0  0  0
  4  5  1  0  0  0  0
  5  6  1  0  0  0  0
  6  7  1  0  0  0  0
  7  8  1  0  0  0  0
  8  9  1  0  0  0  0
  9 10  1  0  0  0  0
 10 11  1  0  0  0  0
 11 12  1  0  0  0  0
 12 13  1  0  0  0  0
 13 14  1  0  0  0  0
M  END
>  <CHROM.1>
-174.66794935,-67.10321363,-113.81077913,-149.27658039,71.50218989,171.14804807
173.24850025,-150.87792162,-177.50853017,68.17157434,-178.89742594,0.61610095
-2.12008760,10.13477397,2.62801694,-0.55571929,0.76049628

>  <Name>
ligand

>  <RI>
0

>  <Rbt.Current_Directory>
/home/itssahil/PROJECTS/Mol_Feturizer/New_Systems/rnas/1FUF

>  <Rbt.Executable>
rbdock ($Id: //depot/dev/client3/rdock/2013.1/src/exe/rbdock.cxx#4 $)

>  <Rbt.Library>
libRbt.so (2013.1, Build901 2013/11/27)

>  <Rbt.Parameter_File>
/export/apps/rDock/src/rDock_2013.1_src/data/scripts/dock_solv.prm

>  <Rbt.Receptor>
prm/pocket_docking_3.prm

>  <SCORE>
-3.32857

>  <SCORE.INTER>
-1.06851

>  <SCORE.INTER.CONST>
1

>  <SCORE.INTER.POLAR>
0

>  <SCORE.INTER.ROT>
11

>  <SCORE.INTER.SOLV>
16.0246

>  <SCORE.INTER.VDW>
-16.9872

>  <SCORE.INTER.norm>
-0.0763224

>  <SCORE.INTRA>
-2.26005

>  <SCORE.INTRA.DIHEDRAL>
-6.67939

>  <SCORE.INTRA.DIHEDRAL.0>
10.5765

>  <SCORE.INTRA.POLAR>
0

>  <SCORE.INTRA.POLAR.0>
0

>  <SCORE.INTRA.REPUL>
0

>  <SCORE.INTRA.REPUL.0>
0

>  <SCORE.INTRA.SOLV>
1.06531

>  <SCORE.INTRA.SOLV.lig_0>
-50.1861

>  <SCORE.INTRA.VDW>
0.546992

>  <SCORE.INTRA.VDW.0>
-1.36671

>  <SCORE.INTRA.norm>
-0.161432

>  <SCORE.RESTR>
0

>  <SCORE.RESTR.CAVITY>
0

>  <SCORE.RESTR.norm>
0

>  <SCORE.SYSTEM>
0

>  <SCORE.SYSTEM.CONST>
0

>  <SCORE.SYSTEM.DIHEDRAL>
0

>  <SCORE.SYSTEM.SOLV>
0

>  <SCORE.SYSTEM.norm>
0

>  <SCORE.heavy>
14

>  <SCORE.norm>
-0.237755

>  <RMSD>
1.872

$$$$
ligand
 OpenBabel11021811393D
libRbt.so/2013.1/901 2013/11/27
 14 13  0  0  0  0  0  0  0  0999 V2000
   -5.1963    1.3506    9.9092 N   0  0  0  0  0  0  0  0  0  0  0  0
   -3.7020    1.5540   10.1611 C   0  0  0  0  0  0  0  0  0  0  0  0
   -3.0172    0.5200    9.3433 C   0  0  0  0  0  0  0  0  0  0  0  0
   -1.4991    0.5857    9.3845 C   0  0  0  0  0  0  0  0  0  0  0  0
   -1.0210    0.1801   10.7332 N   0  0  0  0  0  0  0  0  0  0  0  0
    0.4851   -0.1319   10.6681 C   0  0  0  0  0  0  0  0  0  0  0  0
    0.4944   -1.7356   10.6601 C   0  0  0  0  0  0  0  0  0  0  0  0
    1.7283   -2.1610   10.5367 C   0  0  0  0  0  0  0  0  0  0  0  0
    1.3757   -3.7591   10.4793 C   0  0  0  0  0  0  0  0  0  0  0  0
    2.8325   -4.2980   10.2827 N   0  0  0  0  0  0  0  0  0  0  0  0
    2.9335   -5.8750   10.3268 C   0  0  0  0  0  0  0  0  0  0  0  0
    3.8146   -6.3055    9.0206 C   0  0  0  0  0  0  0  0  0  0  0  0
    5.2016   -5.8447    9.3628 C   0  0  0  0  0  0  0  0  0  0  0  0
    6.0447   -6.1896    8.1577 N   0  0  0  0  0  0  0  0  0  0  0  0
  1  2  1  0  0  0  0
  2  3  1  0  0  0  0
  3  4  1  0  0  0  0
  4  5  1  0  0  0  0
  5  6  1  0  0  0  0
  6  7  1  0  0  0  0
  7  8  1  0  0  0  0
  8  9  1  0  0  0  0
  9 10  1  0  0  0  0
 10 11  1  0  0  0  0
 11 12  1  0  0  0  0
 12 13  1  0  0  0  0
 13 14  1  0  0  0  0
M  END
>  <CHROM.1>
176.87029771,69.53035872,164.38523267,-102.57819296,176.79203753,-177.01589976
178.20134929,174.05856972,131.42764050,70.91675375,-178.40076028,0.74823902
-2.29358966,9.93050319,2.42615454,-0.17517707,0.29438372

>  <Name>
ligand

>  <RI>
0

>  <Rbt.Current_Directory>
/home/itssahil/PROJECTS/Mol_Feturizer/New_Systems/rnas/1FUF

>  <Rbt.Executable>
rbdock ($Id: //depot/dev/client3/rdock/2013.1/src/exe/rbdock.cxx#4 $)

>  <Rbt.Library>
libRbt.so (2013.1, Build901 2013/11/27)

>  <Rbt.Parameter_File>
/export/apps/rDock/src/rDock_2013.1_src/data/scripts/dock_solv.prm

>  <Rbt.Receptor>
prm/pocket_docking_3.prm

>  <SCORE>
-4.80779

>  <SCORE.INTER>
-1.62608

>  <SCORE.INTER.CONST>
1

>  <SCORE.INTER.POLAR>
0

>  <SCORE.INTER.ROT>
11

>  <SCORE.INTER.SOLV>
15.0967

>  <SCORE.INTER.VDW>
-17.0496

>  <SCORE.INTER.norm>
-0.116149

>  <SCORE.INTRA>
-3.18171

>  <SCORE.INTRA.DIHEDRAL>
-7.3848

>  <SCORE.INTRA.DIHEDRAL.0>
10.5765

>  <SCORE.INTRA.POLAR>
0

>  <SCORE.INTRA.POLAR.0>
0

>  <SCORE.INTRA.REPUL>
0

>  <SCORE.INTRA.REPUL.0>
0

>  <SCORE.INTRA.SOLV>
0.619898

>  <SCORE.INTRA.SOLV.lig_0>
-50.1861

>  <SCORE.INTRA.VDW>
0.200742

>  <SCORE.INTRA.VDW.0>
-1.36671

>  <SCORE.INTRA.norm>
-0.227265

>  <SCORE.RESTR>
0

>  <SCORE.RESTR.CAVITY>
0

>  <SCORE.RESTR.norm>
0

>  <SCORE.SYSTEM>
0

>  <SCORE.SYSTEM.CONST>
0

>  <SCORE.SYSTEM.DIHEDRAL>
0

>  <SCORE.SYSTEM.SOLV>
0

>  <SCORE.SYSTEM.norm>
0

>  <SCORE.heavy>
14

>  <SCORE.norm>
-0.343414

>  <RMSD>
1.876

$$$$
ligand
 OpenBabel11021811393D
libRbt.so/2013.1/901 2013/11/27
 14 13  0  0  0  0  0  0  0  0999 V2000
   -8.0508    2.9749    9.4783 N   0  0  0  0  0  0  0  0  0  0  0  0
   -6.6398    3.2594    8.9622 C   0  0  0  0  0  0  0  0  0  0  0  0
   -5.7541    2.3106    9.6848 C   0  0  0  0  0  0  0  0  0  0  0  0
   -4.3040    2.3290    9.2295 C   0  0  0  0  0  0  0  0  0  0  0  0
   -3.5214    1.3453   10.0245 N   0  0  0  0  0  0  0  0  0  0  0  0
   -2.1288    1.1705    9.3922 C   0  0  0  0  0  0  0  0  0  0  0  0
   -1.3863    0.2432   10.4695 C   0  0  0  0  0  0  0  0  0  0  0  0
   -0.1853   -0.0506   10.0337 C   0  0  0  0  0  0  0  0  0  0  0  0
    0.2093   -1.0849   11.2404 C   0  0  0  0  0  0  0  0  0  0  0  0
    1.6333   -1.4863   10.7281 N   0  0  0  0  0  0  0  0  0  0  0  0
    2.1615   -2.8477   11.3336 C   0  0  0  0  0  0  0  0  0  0  0  0
    3.3419   -3.3591   10.3272 C   0  0  0  0  0  0  0  0  0  0  0  0
    3.7499   -4.6829   10.9053 C   0  0  0  0  0  0  0  0  0  0  0  0
    4.7103   -5.2769    9.9019 N   0  0  0  0  0  0  0  0  0  0  0  0
  1  2  1  0  0  0  0
  2  3  1  0  0  0  0
  3  4  1  0  0  0  0
  4  5  1  0  0  0  0
  5  6  1  0  0  0  0
  6  7  1  0  0  0  0
  7  8  1  0  0  0  0
  8  9  1  0  0  0  0
  9 10  1  0  0  0  0
 10 11  1  0  0  0  0
 11 12  1  0  0  0  0
 12 13  1  0  0  0  0
 13 14  1  0  0  0  0
M  END
>  <CHROM.1>
174.59538868,179.86349055,169.35840162,173.08363441,177.03316576,-174.52738432
178.59587909,-159.59026391,160.20513809,-176.96813590,172.64467935,-1.15453075
-0.36814911,10.12225409,2.55457030,-0.17567287,0.07294034

>  <Name>
ligand

>  <RI>
0

>  <Rbt.Current_Directory>
/home/itssahil/PROJECTS/Mol_Feturizer/New_Systems/rnas/1FUF

>  <Rbt.Executable>
rbdock ($Id: //depot/dev/client3/rdock/2013.1/src/exe/rbdock.cxx#4 $)

>  <Rbt.Library>
libRbt.so (2013.1, Build901 2013/11/27)

>  <Rbt.Parameter_File>
/export/apps/rDock/src/rDock_2013.1_src/data/scripts/dock_solv.prm

>  <Rbt.Receptor>
prm/blind_docking_80.prm

>  <SCORE>
-6.2316

>  <SCORE.INTER>
-1.50826

>  <SCORE.INTER.CONST>
1

>  <SCORE.INTER.POLAR>
0

>  <SCORE.INTER.ROT>
11

>  <SCORE.INTER.SOLV>
14.3234

>  <SCORE.INTER.VDW>
-16.7133

>  <SCORE.INTER.norm>
-0.107733

>  <SCORE.INTRA>
-4.72334

>  <SCORE.INTRA.DIHEDRAL>
-9.32897

>  <SCORE.INTRA.DIHEDRAL.0>
10.5765

>  <SCORE.INTRA.POLAR>
0

>  <SCORE.INTRA.POLAR.0>
0

>  <SCORE.INTRA.REPUL>
0

>  <SCORE.INTRA.REPUL.0>
0

>  <SCORE.INTRA.SOLV>
-0.15014

>  <SCORE.INTRA.SOLV.lig_0>
-50.1861

>  <SCORE.INTRA.VDW>
0.0162159

>  <SCORE.INTRA.VDW.0>
-1.36671

>  <SCORE.INTRA.norm>
-0.337382

>  <SCORE.RESTR>
0

>  <SCORE.RESTR.CAVITY>
0

>  <SCORE.RESTR.norm>
0

>  <SCORE.SYSTEM>
0

>  <SCORE.SYSTEM.CONST>
0

>  <SCORE.SYSTEM.DIHEDRAL>
0

>  <SCORE.SYSTEM.SOLV>
0

>  <SCORE.SYSTEM.norm>
0

>  <SCORE.heavy>
14

>  <SCORE.norm>
-0.445114

>  <RMSD>
1.877

$$$$
ligand
 OpenBabel11021811393D
libRbt.so/2013.1/901 2013/11/27
 14 13  0  0  0  0  0  0  0  0999 V2000
   -5.4729    1.7983    9.2142 N   0  0  0  0  0  0  0  0  0  0  0  0
   -4.0061    1.7688    8.7834 C   0  0  0  0  0  0  0  0  0  0  0  0
   -3.3225    0.8854    9.7626 C   0  0  0  0  0  0  0  0  0  0  0  0
   -1.8381    0.6853    9.5038 C   0  0  0  0  0  0  0  0  0  0  0  0
   -1.2591   -0.1731   10.5716 N   0  0  0  0  0  0  0  0  0  0  0  0
    0.2252   -0.4402   10.2628 C   0  0  0  0  0  0  0  0  0  0  0  0
    0.3804   -1.9821   10.6756 C   0  0  0  0  0  0  0  0  0  0  0  0
    1.6187   -2.3621   10.4737 C   0  0  0  0  0  0  0  0  0  0  0  0
    1.3956   -3.9438   10.8342 C   0  0  0  0  0  0  0  0  0  0  0  0
    2.8411   -4.4490   10.5074 N   0  0  0  0  0  0  0  0  0  0  0  0
    3.0620   -5.9810   10.8288 C   0  0  0  0  0  0  0  0  0  0  0  0
    4.4841   -6.3852   10.1344 C   0  0  0  0  0  0  0  0  0  0  0  0
    4.1787   -6.3621    8.6649 C   0  0  0  0  0  0  0  0  0  0  0  0
    5.4575   -6.7922    7.9855 N   0  0  0  0  0  0  0  0  0  0  0  0
  1  2  1  0  0  0  0
  2  3  1  0  0  0  0
  3  4  1  0  0  0  0
  4  5  1  0  0  0  0
  5  6  1  0  0  0  0
  6  7  1  0  0  0  0
  7  8  1  0  0  0  0
  8  9  1  0  0  0  0
  9 10  1  0  0  0  0
 10 11  1  0  0  0  0
 11 12  1  0  0  0  0
 12 13  1  0  0  0  0
 13 14  1  0  0  0  0
M  END
>  <CHROM.1>
178.70054699,177.99938781,176.77146023,-140.13642073,-179.58993746,-174.74274929
176.34413983,176.27966058,168.10534228,-70.81487196,-177.55289826,0.55324353
-2.40950893,9.87175784,3.02288898,-0.75457573,1.39166708

>  <Name>
ligand

>  <RI>
0

>  <Rbt.Current_Directory>
/home/itssahil/PROJECTS/Mol_Feturizer/New_Systems/rnas/1FUF

>  <Rbt.Executable>
rbdock ($Id: //depot/dev/client3/rdock/2013.1/src/exe/rbdock.cxx#4 $)

>  <Rbt.Library>
libRbt.so (2013.1, Build901 2013/11/27)

>  <Rbt.Parameter_File>
/export/apps/rDock/src/rDock_2013.1_src/data/scripts/dock_solv.prm

>  <Rbt.Receptor>
prm/blind_docking_100.prm

>  <SCORE>
-6.89222

>  <SCORE.INTER>
-2.68882

>  <SCORE.INTER.CONST>
1

>  <SCORE.INTER.POLAR>
0

>  <SCORE.INTER.ROT>
11

>  <SCORE.INTER.SOLV>
14.308

>  <SCORE.INTER.VDW>
-17.4952

>  <SCORE.INTER.norm>
-0.192059

>  <SCORE.INTRA>
-4.20339

>  <SCORE.INTRA.DIHEDRAL>
-8.90644

>  <SCORE.INTRA.DIHEDRAL.0>
10.5765

>  <SCORE.INTRA.POLAR>
0

>  <SCORE.INTRA.POLAR.0>
0

>  <SCORE.INTRA.REPUL>
0

>  <SCORE.INTRA.REPUL.0>
0

>  <SCORE.INTRA.SOLV>
0.290973

>  <SCORE.INTRA.SOLV.lig_0>
-50.1861

>  <SCORE.INTRA.VDW>
0.10434

>  <SCORE.INTRA.VDW.0>
-1.36671

>  <SCORE.INTRA.norm>
-0.300242

>  <SCORE.RESTR>
0

>  <SCORE.RESTR.CAVITY>
0

>  <SCORE.RESTR.norm>
0

>  <SCORE.SYSTEM>
0

>  <SCORE.SYSTEM.CONST>
0

>  <SCORE.SYSTEM.DIHEDRAL>
0

>  <SCORE.SYSTEM.SOLV>
0

>  <SCORE.SYSTEM.norm>
0

>  <SCORE.heavy>
14

>  <SCORE.norm>
-0.492301

>  <RMSD>
1.879

$$$$
ligand
 OpenBabel11021811393D
libRbt.so/2013.1/901 2013/11/27
 14 13  0  0  0  0  0  0  0  0999 V2000
   -5.3292    1.8533    9.3020 N   0  0  0  0  0  0  0  0  0  0  0  0
   -3.8627    1.7928    8.8731 C   0  0  0  0  0  0  0  0  0  0  0  0
   -3.2022    0.8838    9.8448 C   0  0  0  0  0  0  0  0  0  0  0  0
   -1.7056    0.7174    9.6370 C   0  0  0  0  0  0  0  0  0  0  0  0
   -1.1708   -0.2503   10.6319 N   0  0  0  0  0  0  0  0  0  0  0  0
    0.3260   -0.4864   10.3605 C   0  0  0  0  0  0  0  0  0  0  0  0
    0.4825   -2.0489   10.6864 C   0  0  0  0  0  0  0  0  0  0  0  0
    1.7203   -2.4167   10.4601 C   0  0  0  0  0  0  0  0  0  0  0  0
    1.4960   -4.0175   10.7222 C   0  0  0  0  0  0  0  0  0  0  0  0
    2.9602   -4.4934   10.4377 N   0  0  0  0  0  0  0  0  0  0  0  0
    3.1614   -6.0522   10.6067 C   0  0  0  0  0  0  0  0  0  0  0  0
    4.6375   -6.3841    9.9911 C   0  0  0  0  0  0  0  0  0  0  0  0
    4.4698   -6.1384    8.5198 C   0  0  0  0  0  0  0  0  0  0  0  0
    5.8195   -6.4356    7.9099 N   0  0  0  0  0  0  0  0  0  0  0  0
  1  2  1  0  0  0  0
  2  3  1  0  0  0  0
  3  4  1  0  0  0  0
  4  5  1  0  0  0  0
  5  6  1  0  0  0  0
  6  7  1  0  0  0  0
  7  8  1  0  0  0  0
  8  9  1  0  0  0  0
  9 10  1  0  0  0  0
 10 11  1  0  0  0  0
 11 12  1  0  0  0  0
 12 13  1  0  0  0  0
 13 14  1  0  0  0  0
M  END
>  <CHROM.1>
-177.75372293,-177.84086230,176.32957602,-142.87984695,178.16841935,-174.36357766
179.20543747,179.49876081,169.09367774,-68.32384586,-179.99328876,0.70023502
-2.39117521,9.85606287,-3.09144826,-0.74810539,1.66823105

>  <Name>
ligand

>  <RI>
0

>  <Rbt.Current_Directory>
/home/itssahil/PROJECTS/Mol_Feturizer/New_Systems/rnas/1FUF

>  <Rbt.Executable>
rbdock ($Id: //depot/dev/client3/rdock/2013.1/src/exe/rbdock.cxx#4 $)

>  <Rbt.Library>
libRbt.so (2013.1, Build901 2013/11/27)

>  <Rbt.Parameter_File>
/export/apps/rDock/src/rDock_2013.1_src/data/scripts/dock_solv.prm

>  <Rbt.Receptor>
prm/pocket_docking_6.prm

>  <SCORE>
-6.64821

>  <SCORE.INTER>
-2.36427

>  <SCORE.INTER.CONST>
1

>  <SCORE.INTER.POLAR>
0

>  <SCORE.INTER.ROT>
11

>  <SCORE.INTER.SOLV>
14.2417

>  <SCORE.INTER.VDW>
-17.2568

>  <SCORE.INTER.norm>
-0.168877

>  <SCORE.INTRA>
-4.28394

>  <SCORE.INTRA.DIHEDRAL>
-9.20941

>  <SCORE.INTRA.DIHEDRAL.0>
10.5765

>  <SCORE.INTRA.POLAR>
0

>  <SCORE.INTRA.POLAR.0>
0

>  <SCORE.INTRA.REPUL>
0

>  <SCORE.INTRA.REPUL.0>
0

>  <SCORE.INTRA.SOLV>
0.348733

>  <SCORE.INTRA.SOLV.lig_0>
-50.1861

>  <SCORE.INTRA.VDW>
0.146404

>  <SCORE.INTRA.VDW.0>
-1.36671

>  <SCORE.INTRA.norm>
-0.305995

>  <SCORE.RESTR>
0

>  <SCORE.RESTR.CAVITY>
0

>  <SCORE.RESTR.norm>
0

>  <SCORE.SYSTEM>
0

>  <SCORE.SYSTEM.CONST>
0

>  <SCORE.SYSTEM.DIHEDRAL>
0

>  <SCORE.SYSTEM.SOLV>
0

>  <SCORE.SYSTEM.norm>
0

>  <SCORE.heavy>
14

>  <SCORE.norm>
-0.474872

>  <RMSD>
1.883

$$$$
ligand
 OpenBabel11021811393D
libRbt.so/2013.1/901 2013/11/27
 14 13  0  0  0  0  0  0  0  0999 V2000
   -4.7179    2.2085    8.1655 N   0  0  0  0  0  0  0  0  0  0  0  0
   -3.2735    1.9620    8.6027 C   0  0  0  0  0  0  0  0  0  0  0  0
   -3.3400    1.7016   10.0636 C   0  0  0  0  0  0  0  0  0  0  0  0
   -1.9900    1.4884   10.7291 C   0  0  0  0  0  0  0  0  0  0  0  0
   -1.3447    0.2729   10.1646 N   0  0  0  0  0  0  0  0  0  0  0  0
   -0.0803   -0.0579   10.9780 C   0  0  0  0  0  0  0  0  0  0  0  0
    0.2786   -1.5305   10.4541 C   0  0  0  0  0  0  0  0  0  0  0  0
    1.3058   -1.9910   11.1261 C   0  0  0  0  0  0  0  0  0  0  0  0
    1.3850   -3.4475   10.3817 C   0  0  0  0  0  0  0  0  0  0  0  0
    2.5372   -4.0697   11.2400 N   0  0  0  0  0  0  0  0  0  0  0  0
    2.9095   -5.5477   10.8201 C   0  0  0  0  0  0  0  0  0  0  0  0
    3.9370   -5.4109    9.5578 C   0  0  0  0  0  0  0  0  0  0  0  0
    4.2344   -6.8351    9.1887 C   0  0  0  0  0  0  0  0  0  0  0  0
    5.2716   -6.7545    8.0935 N   0  0  0  0  0  0  0  0  0  0  0  0
  1  2  1  0  0  0  0
  2  3  1  0  0  0  0
  3  4  1  0  0  0  0
  4  5  1  0  0  0  0
  5  6  1  0  0  0  0
  6  7  1  0  0  0  0
  7  8  1  0  0  0  0
  8  9  1  0  0  0  0
  9 10  1  0  0  0  0
 10 11  1  0  0  0  0
 11 12  1  0  0  0  0
 12 13  1  0  0  0  0
 13 14  1  0  0  0  0
M  END
>  <CHROM.1>
-177.39908785,-63.09321877,-171.79245617,167.92623532,-176.11220503,179.38389657
-175.85733024,179.27622280,83.23956349,-179.01432014,-175.54708943,0.50807933
-2.00077184,9.96919237,2.88868765,-0.79014764,1.20940935

>  <Name>
ligand

>  <RI>
0

>  <Rbt.Current_Directory>
/home/itssahil/PROJECTS/Mol_Feturizer/New_Systems/rnas/1FUF

>  <Rbt.Executable>
rbdock ($Id: //depot/dev/client3/rdock/2013.1/src/exe/rbdock.cxx#4 $)

>  <Rbt.Library>
libRbt.so (2013.1, Build901 2013/11/27)

>  <Rbt.Parameter_File>
/export/apps/rDock/src/rDock_2013.1_src/data/scripts/dock_solv.prm

>  <Rbt.Receptor>
prm/blind_docking_40.prm

>  <SCORE>
-7.13349

>  <SCORE.INTER>
-2.54777

>  <SCORE.INTER.CONST>
1

>  <SCORE.INTER.POLAR>
0

>  <SCORE.INTER.ROT>
11

>  <SCORE.INTER.SOLV>
15.0812

>  <SCORE.INTER.VDW>
-17.6589

>  <SCORE.INTER.norm>
-0.181983

>  <SCORE.INTRA>
-4.58572

>  <SCORE.INTRA.DIHEDRAL>
-9.75022

>  <SCORE.INTRA.DIHEDRAL.0>
10.5765

>  <SCORE.INTRA.POLAR>
0

>  <SCORE.INTRA.POLAR.0>
0

>  <SCORE.INTRA.REPUL>
0

>  <SCORE.INTRA.REPUL.0>
0

>  <SCORE.INTRA.SOLV>
0.205316

>  <SCORE.INTRA.SOLV.lig_0>
-50.1861

>  <SCORE.INTRA.VDW>
0.186735

>  <SCORE.INTRA.VDW.0>
-1.36671

>  <SCORE.INTRA.norm>
-0.327551

>  <SCORE.RESTR>
0

>  <SCORE.RESTR.CAVITY>
0

>  <SCORE.RESTR.norm>
0

>  <SCORE.SYSTEM>
0

>  <SCORE.SYSTEM.CONST>
0

>  <SCORE.SYSTEM.DIHEDRAL>
0

>  <SCORE.SYSTEM.SOLV>
0

>  <SCORE.SYSTEM.norm>
0

>  <SCORE.heavy>
14

>  <SCORE.norm>
-0.509535

>  <RMSD>
1.884

$$$$
ligand
 OpenBabel11021811393D
libRbt.so/2013.1/901 2013/11/27
 14 13  0  0  0  0  0  0  0  0999 V2000
    4.3999   -5.5600   10.7920 N   0  0  0  0  0  0  0  0  0  0  0  0
    3.0132   -6.1997   10.7155 C   0  0  0  0  0  0  0  0  0  0  0  0
    2.0619   -5.1356   11.1269 C   0  0  0  0  0  0  0  0  0  0  0  0
    2.0920   -3.8904   10.2556 C   0  0  0  0  0  0  0  0  0  0  0  0
    0.9768   -2.9858   10.6435 N   0  0  0  0  0  0  0  0  0  0  0  0
    1.5539   -1.6450   11.1323 C   0  0  0  0  0  0  0  0  0  0  0  0
    0.6491   -0.5832   10.3412 C   0  0  0  0  0  0  0  0  0  0  0  0
   -0.5820   -0.6456   10.7874 C   0  0  0  0  0  0  0  0  0  0  0  0
   -1.1986    0.5176    9.8136 C   0  0  0  0  0  0  0  0  0  0  0  0
   -2.6888    0.4319   10.2862 N   0  0  0  0  0  0  0  0  0  0  0  0
   -3.5569    1.6848    9.8671 C   0  0  0  0  0  0  0  0  0  0  0  0
   -5.1160    1.2234   10.0227 C   0  0  0  0  0  0  0  0  0  0  0  0
   -5.8879    2.4543    9.6455 C   0  0  0  0  0  0  0  0  0  0  0  0
   -5.6332    2.6475    8.1692 N   0  0  0  0  0  0  0  0  0  0  0  0
  1  2  1  0  0  0  0
  2  3  1  0  0  0  0
  3  4  1  0  0  0  0
  4  5  1  0  0  0  0
  5  6  1  0  0  0  0
  6  7  1  0  0  0  0
  7  8  1  0  0  0  0
  8  9  1  0  0  0  0
  9 10  1  0  0  0  0
 10 11  1  0  0  0  0
 11 12  1  0  0  0  0
 12 13  1  0  0  0  0
 13 14  1  0  0  0  0
M  END
>  <CHROM.1>
59.64048465,172.12227918,118.78683789,132.88199059,67.42452427,179.77019249
178.02325797,163.75078269,162.98588122,178.70834497,67.93103070,-0.70832595
-1.26322966,10.25715358,-0.71562255,-0.18582760,0.01495948

>  <Name>
ligand

>  <RI>
0

>  <Rbt.Current_Directory>
/home/itssahil/PROJECTS/Mol_Feturizer/New_Systems/rnas/1FUF

>  <Rbt.Executable>
rbdock ($Id: //depot/dev/client3/rdock/2013.1/src/exe/rbdock.cxx#4 $)

>  <Rbt.Library>
libRbt.so (2013.1, Build901 2013/11/27)

>  <Rbt.Parameter_File>
/export/apps/rDock/src/rDock_2013.1_src/data/scripts/dock_solv.prm

>  <Rbt.Receptor>
prm/blind_docking_60.prm

>  <SCORE>
-3.22261

>  <SCORE.INTER>
-1.95061

>  <SCORE.INTER.CONST>
1

>  <SCORE.INTER.POLAR>
0

>  <SCORE.INTER.ROT>
11

>  <SCORE.INTER.SOLV>
18.6914

>  <SCORE.INTER.VDW>
-18.4642

>  <SCORE.INTER.norm>
-0.13933

>  <SCORE.INTRA>
-1.27199

>  <SCORE.INTRA.DIHEDRAL>
-7.18816

>  <SCORE.INTRA.DIHEDRAL.0>
10.5765

>  <SCORE.INTRA.POLAR>
0

>  <SCORE.INTRA.POLAR.0>
0

>  <SCORE.INTRA.REPUL>
0

>  <SCORE.INTRA.REPUL.0>
0

>  <SCORE.INTRA.SOLV>
2.22137

>  <SCORE.INTRA.SOLV.lig_0>
-50.1861

>  <SCORE.INTRA.VDW>
1.2114

>  <SCORE.INTRA.VDW.0>
-1.36671

>  <SCORE.INTRA.norm>
-0.0908567

>  <SCORE.RESTR>
0

>  <SCORE.RESTR.CAVITY>
0

>  <SCORE.RESTR.norm>
0

>  <SCORE.SYSTEM>
0

>  <SCORE.SYSTEM.CONST>
0

>  <SCORE.SYSTEM.DIHEDRAL>
0

>  <SCORE.SYSTEM.SOLV>
0

>  <SCORE.SYSTEM.norm>
0

>  <SCORE.heavy>
14

>  <SCORE.norm>
-0.230186

>  <RMSD>
1.885

$$$$
ligand
 OpenBabel11021811393D
libRbt.so/2013.1/901 2013/11/27
 14 13  0  0  0  0  0  0  0  0999 V2000
   -7.1223    2.9866    9.1070 N   0  0  0  0  0  0  0  0  0  0  0  0
   -5.6823    2.9707    8.5928 C   0  0  0  0  0  0  0  0  0  0  0  0
   -4.9595    2.0111    9.4665 C   0  0  0  0  0  0  0  0  0  0  0  0
   -3.4962    1.8092    9.1077 C   0  0  0  0  0  0  0  0  0  0  0  0
   -2.8840    0.8345   10.0497 N   0  0  0  0  0  0  0  0  0  0  0  0
   -1.4659    0.4799    9.5668 C   0  0  0  0  0  0  0  0  0  0  0  0
   -0.7136    0.1582   10.9461 C   0  0  0  0  0  0  0  0  0  0  0  0
    0.5519   -0.0832   10.7032 C   0  0  0  0  0  0  0  0  0  0  0  0
    0.4152   -1.7097   10.5705 C   0  0  0  0  0  0  0  0  0  0  0  0
    1.9126   -2.0293   10.2431 N   0  0  0  0  0  0  0  0  0  0  0  0
    2.7434   -2.5138   11.4978 C   0  0  0  0  0  0  0  0  0  0  0  0
    3.5715   -3.8330   11.0061 C   0  0  0  0  0  0  0  0  0  0  0  0
    2.5011   -4.8647   10.7983 C   0  0  0  0  0  0  0  0  0  0  0  0
    3.2245   -6.0956   10.3049 N   0  0  0  0  0  0  0  0  0  0  0  0
  1  2  1  0  0  0  0
  2  3  1  0  0  0  0
  3  4  1  0  0  0  0
  4  5  1  0  0  0  0
  5  6  1  0  0  0  0
  6  7  1  0  0  0  0
  7  8  1  0  0  0  0
  8  9  1  0  0  0  0
  9 10  1  0  0  0  0
 10 11  1  0  0  0  0
 11 12  1  0  0  0  0
 12 13  1  0  0  0  0
 13 14  1  0  0  0  0
M  END
>  <CHROM.1>
178.51473315,179.89861605,172.01475848,150.12984152,-175.97602503,-93.15680660
178.66809361,98.89184730,133.15046018,-68.74472122,178.51419277,-0.81438364
-0.70550070,10.14012277,2.53115140,-0.34241832,0.20138804

>  <Name>
ligand

>  <RI>
0

>  <Rbt.Current_Directory>
/home/itssahil/PROJECTS/Mol_Feturizer/New_Systems/rnas/1FUF

>  <Rbt.Executable>
rbdock ($Id: //depot/dev/client3/rdock/2013.1/src/exe/rbdock.cxx#4 $)

>  <Rbt.Library>
libRbt.so (2013.1, Build901 2013/11/27)

>  <Rbt.Parameter_File>
/export/apps/rDock/src/rDock_2013.1_src/data/scripts/dock_solv.prm

>  <Rbt.Receptor>
prm/blind_docking_80.prm

>  <SCORE>
-2.5804

>  <SCORE.INTER>
-1.77833

>  <SCORE.INTER.CONST>
1

>  <SCORE.INTER.POLAR>
0

>  <SCORE.INTER.ROT>
11

>  <SCORE.INTER.SOLV>
16.365

>  <SCORE.INTER.VDW>
-17.5739

>  <SCORE.INTER.norm>
-0.127024

>  <SCORE.INTRA>
-0.80207

>  <SCORE.INTRA.DIHEDRAL>
-4.06395

>  <SCORE.INTRA.DIHEDRAL.0>
10.5765

>  <SCORE.INTRA.POLAR>
0

>  <SCORE.INTRA.POLAR.0>
0

>  <SCORE.INTRA.REPUL>
0

>  <SCORE.INTRA.REPUL.0>
0

>  <SCORE.INTRA.SOLV>
0.685422

>  <SCORE.INTRA.SOLV.lig_0>
-50.1861

>  <SCORE.INTRA.VDW>
0.887193

>  <SCORE.INTRA.VDW.0>
-1.36671

>  <SCORE.INTRA.norm>
-0.0572907

>  <SCORE.RESTR>
0

>  <SCORE.RESTR.CAVITY>
0

>  <SCORE.RESTR.norm>
0

>  <SCORE.SYSTEM>
0

>  <SCORE.SYSTEM.CONST>
0

>  <SCORE.SYSTEM.DIHEDRAL>
0

>  <SCORE.SYSTEM.SOLV>
0

>  <SCORE.SYSTEM.norm>
0

>  <SCORE.heavy>
14

>  <SCORE.norm>
-0.184315

>  <RMSD>
1.891

$$$$
ligand
 OpenBabel11021811393D
libRbt.so/2013.1/901 2013/11/27
 14 13  0  0  0  0  0  0  0  0999 V2000
   -4.4412    3.0635    7.6589 N   0  0  0  0  0  0  0  0  0  0  0  0
   -3.8828    1.7201    8.1297 C   0  0  0  0  0  0  0  0  0  0  0  0
   -3.6975    1.8596    9.5969 C   0  0  0  0  0  0  0  0  0  0  0  0
   -3.1778    0.6102   10.2893 C   0  0  0  0  0  0  0  0  0  0  0  0
   -1.7960    0.3212    9.8207 N   0  0  0  0  0  0  0  0  0  0  0  0
   -0.7941    0.6839   10.9317 C   0  0  0  0  0  0  0  0  0  0  0  0
    0.4344   -0.2943   10.6066 C   0  0  0  0  0  0  0  0  0  0  0  0
    0.0680   -1.5351   10.8181 C   0  0  0  0  0  0  0  0  0  0  0  0
    1.5500   -2.2071   10.6349 C   0  0  0  0  0  0  0  0  0  0  0  0
    1.1337   -3.7064   10.8082 N   0  0  0  0  0  0  0  0  0  0  0  0
    2.3167   -4.6385   11.2886 C   0  0  0  0  0  0  0  0  0  0  0  0
    3.0971   -5.1087    9.9329 C   0  0  0  0  0  0  0  0  0  0  0  0
    4.1327   -6.0711   10.4373 C   0  0  0  0  0  0  0  0  0  0  0  0
    4.8756   -6.5377    9.2076 N   0  0  0  0  0  0  0  0  0  0  0  0
  1  2  1  0  0  0  0
  2  3  1  0  0  0  0
  3  4  1  0  0  0  0
  4  5  1  0  0  0  0
  5  6  1  0  0  0  0
  6  7  1  0  0  0  0
  7  8  1  0  0  0  0
  8  9  1  0  0  0  0
  9 10  1  0  0  0  0
 10 11  1  0  0  0  0
 11 12  1  0  0  0  0
 12 13  1  0  0  0  0
 13 14  1  0  0  0  0
M  END
>  <CHROM.1>
178.43831274,65.74465647,106.12124785,153.38092463,-67.22131419,-171.71309944
-177.18979208,-156.00491062,-86.54657461,-175.63629644,179.69848634,-0.01292209
-1.55998066,10.01179234,3.01935781,-0.80218456,1.23804198

>  <Name>
ligand

>  <RI>
0

>  <Rbt.Current_Directory>
/home/itssahil/PROJECTS/Mol_Feturizer/New_Systems/rnas/1FUF

>  <Rbt.Executable>
rbdock ($Id: //depot/dev/client3/rdock/2013.1/src/exe/rbdock.cxx#4 $)

>  <Rbt.Library>
libRbt.so (2013.1, Build901 2013/11/27)

>  <Rbt.Parameter_File>
/export/apps/rDock/src/rDock_2013.1_src/data/scripts/dock_solv.prm

>  <Rbt.Receptor>
prm/blind_docking_60.prm

>  <SCORE>
-4.08411

>  <SCORE.INTER>
-1.34308

>  <SCORE.INTER.CONST>
1

>  <SCORE.INTER.POLAR>
0

>  <SCORE.INTER.ROT>
11

>  <SCORE.INTER.SOLV>
18.0601

>  <SCORE.INTER.VDW>
-17.8487

>  <SCORE.INTER.norm>
-0.0959346

>  <SCORE.INTRA>
-2.74103

>  <SCORE.INTRA.DIHEDRAL>
-7.41361

>  <SCORE.INTRA.DIHEDRAL.0>
10.5765

>  <SCORE.INTRA.POLAR>
0

>  <SCORE.INTRA.POLAR.0>
0

>  <SCORE.INTRA.REPUL>
0

>  <SCORE.INTRA.REPUL.0>
0

>  <SCORE.INTRA.SOLV>
0.606432

>  <SCORE.INTRA.SOLV.lig_0>
-50.1861

>  <SCORE.INTRA.VDW>
0.662565

>  <SCORE.INTRA.VDW.0>
-1.36671

>  <SCORE.INTRA.norm>
-0.195788

>  <SCORE.RESTR>
0

>  <SCORE.RESTR.CAVITY>
0

>  <SCORE.RESTR.norm>
0

>  <SCORE.SYSTEM>
0

>  <SCORE.SYSTEM.CONST>
0

>  <SCORE.SYSTEM.DIHEDRAL>
0

>  <SCORE.SYSTEM.SOLV>
0

>  <SCORE.SYSTEM.norm>
0

>  <SCORE.heavy>
14

>  <SCORE.norm>
-0.291722

>  <RMSD>
1.892

$$$$
ligand
 OpenBabel11021811393D
libRbt.so/2013.1/901 2013/11/27
 14 13  0  0  0  0  0  0  0  0999 V2000
    3.4151   -6.3945    9.0897 N   0  0  0  0  0  0  0  0  0  0  0  0
    3.3215   -6.1885   10.6019 C   0  0  0  0  0  0  0  0  0  0  0  0
    4.5165   -5.3855   10.9678 C   0  0  0  0  0  0  0  0  0  0  0  0
    4.4955   -3.9538   10.4576 C   0  0  0  0  0  0  0  0  0  0  0  0
    3.4691   -3.1763   11.2021 N   0  0  0  0  0  0  0  0  0  0  0  0
    2.2267   -2.9885   10.3126 C   0  0  0  0  0  0  0  0  0  0  0  0
    1.3977   -1.8822   11.1254 C   0  0  0  0  0  0  0  0  0  0  0  0
    0.2905   -1.6089   10.4788 C   0  0  0  0  0  0  0  0  0  0  0  0
   -0.1671   -0.3410   11.4087 C   0  0  0  0  0  0  0  0  0  0  0  0
   -1.4462    0.0699   10.6047 N   0  0  0  0  0  0  0  0  0  0  0  0
   -1.8809    1.5723   10.8351 C   0  0  0  0  0  0  0  0  0  0  0  0
   -2.9903    1.9008    9.6822 C   0  0  0  0  0  0  0  0  0  0  0  0
   -4.1826    1.0892   10.0978 C   0  0  0  0  0  0  0  0  0  0  0  0
   -5.2449    1.3839    9.0651 N   0  0  0  0  0  0  0  0  0  0  0  0
  1  2  1  0  0  0  0
  2  3  1  0  0  0  0
  3  4  1  0  0  0  0
  4  5  1  0  0  0  0
  5  6  1  0  0  0  0
  6  7  1  0  0  0  0
  7  8  1  0  0  0  0
  8  9  1  0  0  0  0
  9 10  1  0  0  0  0
 10 11  1  0  0  0  0
 11 12  1  0  0  0  0
 12 13  1  0  0  0  0
 13 14  1  0  0  0  0
M  END
>  <CHROM.1>
68.92318728,70.37888914,-103.61079724,-167.80602717,179.85926033,-171.74888028
176.54898674,-157.62975995,167.41952309,69.98534735,179.08091665,0.51594892
-1.85014273,10.42370709,0.61400971,0.41088996,-2.69376597

>  <Name>
ligand

>  <RI>
0

>  <Rbt.Current_Directory>
/home/itssahil/PROJECTS/Mol_Feturizer/New_Systems/rnas/1FUF

>  <Rbt.Executable>
rbdock ($Id: //depot/dev/client3/rdock/2013.1/src/exe/rbdock.cxx#4 $)

>  <Rbt.Library>
libRbt.so (2013.1, Build901 2013/11/27)

>  <Rbt.Parameter_File>
/export/apps/rDock/src/rDock_2013.1_src/data/scripts/dock_solv.prm

>  <Rbt.Receptor>
prm/blind_docking_100.prm

>  <SCORE>
-4.83181

>  <SCORE.INTER>
-2.6169

>  <SCORE.INTER.CONST>
1

>  <SCORE.INTER.POLAR>
0

>  <SCORE.INTER.ROT>
11

>  <SCORE.INTER.SOLV>
17.8905

>  <SCORE.INTER.VDW>
-18.6414

>  <SCORE.INTER.norm>
-0.186922

>  <SCORE.INTRA>
-2.21491

>  <SCORE.INTRA.DIHEDRAL>
-7.58231

>  <SCORE.INTRA.DIHEDRAL.0>
10.5765

>  <SCORE.INTRA.POLAR>
0

>  <SCORE.INTRA.POLAR.0>
0

>  <SCORE.INTRA.REPUL>
0

>  <SCORE.INTRA.REPUL.0>
0

>  <SCORE.INTRA.SOLV>
2.58109

>  <SCORE.INTRA.SOLV.lig_0>
-50.1861

>  <SCORE.INTRA.VDW>
0.285699

>  <SCORE.INTRA.VDW.0>
-1.36671

>  <SCORE.INTRA.norm>
-0.158208

>  <SCORE.RESTR>
0

>  <SCORE.RESTR.CAVITY>
0

>  <SCORE.RESTR.norm>
0

>  <SCORE.SYSTEM>
0

>  <SCORE.SYSTEM.CONST>
0

>  <SCORE.SYSTEM.DIHEDRAL>
0

>  <SCORE.SYSTEM.SOLV>
0

>  <SCORE.SYSTEM.norm>
0

>  <SCORE.heavy>
14

>  <SCORE.norm>
-0.34513

>  <RMSD>
1.896

$$$$
ligand
 OpenBabel11021811393D
libRbt.so/2013.1/901 2013/11/27
 14 13  0  0  0  0  0  0  0  0999 V2000
   -4.3497    2.0550    8.5289 N   0  0  0  0  0  0  0  0  0  0  0  0
   -4.4140    1.2439    9.8235 C   0  0  0  0  0  0  0  0  0  0  0  0
   -3.0301    1.2480   10.3636 C   0  0  0  0  0  0  0  0  0  0  0  0
   -2.0073    0.5464    9.4848 C   0  0  0  0  0  0  0  0  0  0  0  0
   -0.6940    0.5118   10.1822 N   0  0  0  0  0  0  0  0  0  0  0  0
   -0.4799   -0.8827   10.7981 C   0  0  0  0  0  0  0  0  0  0  0  0
    1.0632   -1.1629   10.4631 C   0  0  0  0  0  0  0  0  0  0  0  0
    1.3919   -2.3543   10.9003 C   0  0  0  0  0  0  0  0  0  0  0  0
    2.9569   -2.3101   10.4202 C   0  0  0  0  0  0  0  0  0  0  0  0
    3.4015   -3.6973   10.9942 N   0  0  0  0  0  0  0  0  0  0  0  0
    3.2387   -4.8872    9.9663 C   0  0  0  0  0  0  0  0  0  0  0  0
    4.4538   -4.7187    8.8879 C   0  0  0  0  0  0  0  0  0  0  0  0
    4.2562   -5.8738    7.9498 C   0  0  0  0  0  0  0  0  0  0  0  0
    4.6505   -7.0999    8.7391 N   0  0  0  0  0  0  0  0  0  0  0  0
  1  2  1  0  0  0  0
  2  3  1  0  0  0  0
  3  4  1  0  0  0  0
  4  5  1  0  0  0  0
  5  6  1  0  0  0  0
  6  7  1  0  0  0  0
  7  8  1  0  0  0  0
  8  9  1  0  0  0  0
  9 10  1  0  0  0  0
 10 11  1  0  0  0  0
 11 12  1  0  0  0  0
 12 13  1  0  0  0  0
 13 14  1  0  0  0  0
M  END
>  <CHROM.1>
-64.02703116,-175.05305394,101.00314406,138.08524421,-178.21766370,-179.77855401
177.29042295,91.01398761,74.73628200,179.57107104,-71.55729708,0.74554075
-1.95579511,9.82166034,2.67424001,-0.58670403,0.90023343

>  <Name>
ligand

>  <RI>
0

>  <Rbt.Current_Directory>
/home/itssahil/PROJECTS/Mol_Feturizer/New_Systems/rnas/1FUF

>  <Rbt.Executable>
rbdock ($Id: //depot/dev/client3/rdock/2013.1/src/exe/rbdock.cxx#4 $)

>  <Rbt.Library>
libRbt.so (2013.1, Build901 2013/11/27)

>  <Rbt.Parameter_File>
/export/apps/rDock/src/rDock_2013.1_src/data/scripts/dock_solv.prm

>  <Rbt.Receptor>
prm/pocket_docking_3.prm

>  <SCORE>
-4.25838

>  <SCORE.INTER>
-2.47704

>  <SCORE.INTER.CONST>
1

>  <SCORE.INTER.POLAR>
0

>  <SCORE.INTER.ROT>
11

>  <SCORE.INTER.SOLV>
15.9406

>  <SCORE.INTER.VDW>
-17.8982

>  <SCORE.INTER.norm>
-0.176931

>  <SCORE.INTRA>
-1.78134

>  <SCORE.INTRA.DIHEDRAL>
-7.21339

>  <SCORE.INTRA.DIHEDRAL.0>
10.5765

>  <SCORE.INTRA.POLAR>
0

>  <SCORE.INTRA.POLAR.0>
0

>  <SCORE.INTRA.REPUL>
0

>  <SCORE.INTRA.REPUL.0>
0

>  <SCORE.INTRA.SOLV>
1.66105

>  <SCORE.INTRA.SOLV.lig_0>
-50.1861

>  <SCORE.INTRA.VDW>
0.99483

>  <SCORE.INTRA.VDW.0>
-1.36671

>  <SCORE.INTRA.norm>
-0.127239

>  <SCORE.RESTR>
0

>  <SCORE.RESTR.CAVITY>
0

>  <SCORE.RESTR.norm>
0

>  <SCORE.SYSTEM>
0

>  <SCORE.SYSTEM.CONST>
0

>  <SCORE.SYSTEM.DIHEDRAL>
0

>  <SCORE.SYSTEM.SOLV>
0

>  <SCORE.SYSTEM.norm>
0

>  <SCORE.heavy>
14

>  <SCORE.norm>
-0.30417

>  <RMSD>
1.896

$$$$
ligand
 OpenBabel11021811393D
libRbt.so/2013.1/901 2013/11/27
 14 13  0  0  0  0  0  0  0  0999 V2000
   -6.7541    3.6546    7.5646 N   0  0  0  0  0  0  0  0  0  0  0  0
   -5.2821    3.2431    7.5198 C   0  0  0  0  0  0  0  0  0  0  0  0
   -4.9822    2.6944    8.8673 C   0  0  0  0  0  0  0  0  0  0  0  0
   -3.5831    2.1197    9.0179 C   0  0  0  0  0  0  0  0  0  0  0  0
   -3.3883    1.6468   10.4146 N   0  0  0  0  0  0  0  0  0  0  0  0
   -1.8919    1.7096   10.7706 C   0  0  0  0  0  0  0  0  0  0  0  0
   -1.4323    0.1886   10.5533 C   0  0  0  0  0  0  0  0  0  0  0  0
   -0.1438    0.0897   10.7738 C   0  0  0  0  0  0  0  0  0  0  0  0
   -0.0426   -1.5350   10.5959 C   0  0  0  0  0  0  0  0  0  0  0  0
    1.5148   -1.6687   10.6862 N   0  0  0  0  0  0  0  0  0  0  0  0
    2.0461   -3.1141   10.3287 C   0  0  0  0  0  0  0  0  0  0  0  0
    3.6759   -3.0072   10.3318 C   0  0  0  0  0  0  0  0  0  0  0  0
    4.1215   -4.3953    9.9744 C   0  0  0  0  0  0  0  0  0  0  0  0
    5.6297   -4.3282    9.9211 N   0  0  0  0  0  0  0  0  0  0  0  0
  1  2  1  0  0  0  0
  2  3  1  0  0  0  0
  3  4  1  0  0  0  0
  4  5  1  0  0  0  0
  5  6  1  0  0  0  0
  6  7  1  0  0  0  0
  7  8  1  0  0  0  0
  8  9  1  0  0  0  0
  9 10  1  0  0  0  0
 10 11  1  0  0  0  0
 11 12  1  0  0  0  0
 12 13  1  0  0  0  0
 13 14  1  0  0  0  0
M  END
>  <CHROM.1>
175.56078291,178.08635448,-152.87783180,-98.90052322,177.63235655,175.68447274
173.68264655,-170.98450714,174.39079383,-179.42777089,178.16086025,-0.75089251
-0.19300401,9.80864122,-3.13190815,-0.64679496,1.33314520

>  <Name>
ligand

>  <RI>
0

>  <Rbt.Current_Directory>
/home/itssahil/PROJECTS/Mol_Feturizer/New_Systems/rnas/1FUF

>  <Rbt.Executable>
rbdock ($Id: //depot/dev/client3/rdock/2013.1/src/exe/rbdock.cxx#4 $)

>  <Rbt.Library>
libRbt.so (2013.1, Build901 2013/11/27)

>  <Rbt.Parameter_File>
/export/apps/rDock/src/rDock_2013.1_src/data/scripts/dock_solv.prm

>  <Rbt.Receptor>
prm/pocket_docking_8.prm

>  <SCORE>
-5.39603

>  <SCORE.INTER>
-1.12534

>  <SCORE.INTER.CONST>
1

>  <SCORE.INTER.POLAR>
0

>  <SCORE.INTER.ROT>
11

>  <SCORE.INTER.SOLV>
18.0143

>  <SCORE.INTER.VDW>
-17.6883

>  <SCORE.INTER.norm>
-0.0803812

>  <SCORE.INTRA>
-4.2707

>  <SCORE.INTRA.DIHEDRAL>
-8.75495

>  <SCORE.INTRA.DIHEDRAL.0>
10.5765

>  <SCORE.INTRA.POLAR>
0

>  <SCORE.INTRA.POLAR.0>
0

>  <SCORE.INTRA.REPUL>
0

>  <SCORE.INTRA.REPUL.0>
0

>  <SCORE.INTRA.SOLV>
-0.152292

>  <SCORE.INTRA.SOLV.lig_0>
-50.1861

>  <SCORE.INTRA.VDW>
0.182921

>  <SCORE.INTRA.VDW.0>
-1.36671

>  <SCORE.INTRA.norm>
-0.30505

>  <SCORE.RESTR>
0

>  <SCORE.RESTR.CAVITY>
0

>  <SCORE.RESTR.norm>
0

>  <SCORE.SYSTEM>
0

>  <SCORE.SYSTEM.CONST>
0

>  <SCORE.SYSTEM.DIHEDRAL>
0

>  <SCORE.SYSTEM.SOLV>
0

>  <SCORE.SYSTEM.norm>
0

>  <SCORE.heavy>
14

>  <SCORE.norm>
-0.385431

>  <RMSD>
1.897

$$$$
ligand
 OpenBabel11021811393D
libRbt.so/2013.1/901 2013/11/27
 14 13  0  0  0  0  0  0  0  0999 V2000
    4.7345   -5.1881    9.7108 N   0  0  0  0  0  0  0  0  0  0  0  0
    4.0084   -6.2773   10.5009 C   0  0  0  0  0  0  0  0  0  0  0  0
    2.5665   -5.9283   10.4250 C   0  0  0  0  0  0  0  0  0  0  0  0
    2.1482   -4.7737   11.3208 C   0  0  0  0  0  0  0  0  0  0  0  0
    2.8221   -3.5265   10.8705 N   0  0  0  0  0  0  0  0  0  0  0  0
    2.2916   -2.3357   11.6893 C   0  0  0  0  0  0  0  0  0  0  0  0
    1.1950   -1.7114   10.6995 C   0  0  0  0  0  0  0  0  0  0  0  0
    0.3835   -0.9410   11.3826 C   0  0  0  0  0  0  0  0  0  0  0  0
   -0.4769   -0.3868   10.1042 C   0  0  0  0  0  0  0  0  0  0  0  0
   -1.6991    0.1887   10.8957 N   0  0  0  0  0  0  0  0  0  0  0  0
   -1.8581    1.7556   10.7595 C   0  0  0  0  0  0  0  0  0  0  0  0
   -2.8206    1.9985    9.4624 C   0  0  0  0  0  0  0  0  0  0  0  0
   -4.1501    1.4589    9.9033 C   0  0  0  0  0  0  0  0  0  0  0  0
   -5.1049    1.7842    8.7788 N   0  0  0  0  0  0  0  0  0  0  0  0
  1  2  1  0  0  0  0
  2  3  1  0  0  0  0
  3  4  1  0  0  0  0
  4  5  1  0  0  0  0
  5  6  1  0  0  0  0
  6  7  1  0  0  0  0
  7  8  1  0  0  0  0
  8  9  1  0  0  0  0
  9 10  1  0  0  0  0
 10 11  1  0  0  0  0
 11 12  1  0  0  0  0
 12 13  1  0  0  0  0
 13 14  1  0  0  0  0
M  END
>  <CHROM.1>
-75.67547854,64.73516654,174.45643760,-98.37348823,161.64779147,175.20804461
164.19937909,116.12006428,90.22195625,67.52435067,174.74888169,0.28862463
-1.70593429,10.46468673,0.65088852,0.46600916,-2.72760557

>  <Name>
ligand

>  <RI>
0

>  <Rbt.Current_Directory>
/home/itssahil/PROJECTS/Mol_Feturizer/New_Systems/rnas/1FUF

>  <Rbt.Executable>
rbdock ($Id: //depot/dev/client3/rdock/2013.1/src/exe/rbdock.cxx#4 $)

>  <Rbt.Library>
libRbt.so (2013.1, Build901 2013/11/27)

>  <Rbt.Parameter_File>
/export/apps/rDock/src/rDock_2013.1_src/data/scripts/dock_solv.prm

>  <Rbt.Receptor>
prm/pocket_docking_3.prm

>  <SCORE>
-2.86204

>  <SCORE.INTER>
-2.70415

>  <SCORE.INTER.CONST>
1

>  <SCORE.INTER.POLAR>
0

>  <SCORE.INTER.ROT>
11

>  <SCORE.INTER.SOLV>
14.4702

>  <SCORE.INTER.VDW>
-17.5595

>  <SCORE.INTER.norm>
-0.193154

>  <SCORE.INTRA>
-0.157891

>  <SCORE.INTRA.DIHEDRAL>
-4.45704

>  <SCORE.INTRA.DIHEDRAL.0>
10.5765

>  <SCORE.INTRA.POLAR>
0

>  <SCORE.INTRA.POLAR.0>
0

>  <SCORE.INTRA.REPUL>
0

>  <SCORE.INTRA.REPUL.0>
0

>  <SCORE.INTRA.SOLV>
3.29276

>  <SCORE.INTRA.SOLV.lig_0>
-50.1861

>  <SCORE.INTRA.VDW>
0.424244

>  <SCORE.INTRA.VDW.0>
-1.36671

>  <SCORE.INTRA.norm>
-0.011278

>  <SCORE.RESTR>
0

>  <SCORE.RESTR.CAVITY>
0

>  <SCORE.RESTR.norm>
0

>  <SCORE.SYSTEM>
0

>  <SCORE.SYSTEM.CONST>
0

>  <SCORE.SYSTEM.DIHEDRAL>
0

>  <SCORE.SYSTEM.SOLV>
0

>  <SCORE.SYSTEM.norm>
0

>  <SCORE.heavy>
14

>  <SCORE.norm>
-0.204432

>  <RMSD>
1.899

$$$$
ligand
 OpenBabel11021811393D
libRbt.so/2013.1/901 2013/11/27
 14 13  0  0  0  0  0  0  0  0999 V2000
    4.9575   -6.7721    8.6647 N   0  0  0  0  0  0  0  0  0  0  0  0
    4.9165   -5.8771    9.9038 C   0  0  0  0  0  0  0  0  0  0  0  0
    3.6037   -5.1842    9.8497 C   0  0  0  0  0  0  0  0  0  0  0  0
    3.3810   -4.1660   10.9562 C   0  0  0  0  0  0  0  0  0  0  0  0
    1.9900   -3.6452   10.8791 N   0  0  0  0  0  0  0  0  0  0  0  0
    2.0243   -2.1514   10.5085 C   0  0  0  0  0  0  0  0  0  0  0  0
    0.4837   -1.7332   10.6626 C   0  0  0  0  0  0  0  0  0  0  0  0
    0.3465   -0.4655   10.3580 C   0  0  0  0  0  0  0  0  0  0  0  0
   -1.2623   -0.3711   10.6487 C   0  0  0  0  0  0  0  0  0  0  0  0
   -1.4774    1.1163   10.2098 N   0  0  0  0  0  0  0  0  0  0  0  0
   -1.9938    1.2673    8.7233 C   0  0  0  0  0  0  0  0  0  0  0  0
   -3.3449    2.1813    8.8077 C   0  0  0  0  0  0  0  0  0  0  0  0
   -3.7484    2.3486    7.3717 C   0  0  0  0  0  0  0  0  0  0  0  0
   -4.9892    3.2095    7.4042 N   0  0  0  0  0  0  0  0  0  0  0  0
  1  2  1  0  0  0  0
  2  3  1  0  0  0  0
  3  4  1  0  0  0  0
  4  5  1  0  0  0  0
  5  6  1  0  0  0  0
  6  7  1  0  0  0  0
  7  8  1  0  0  0  0
  8  9  1  0  0  0  0
  9 10  1  0  0  0  0
 10 11  1  0  0  0  0
 11 12  1  0  0  0  0
 12 13  1  0  0  0  0
 13 14  1  0  0  0  0
M  END
>  <CHROM.1>
-176.44186892,-174.23553066,-113.93260861,-172.88643140,-179.21239937,-178.61023363
-176.75837403,96.55697388,126.22418447,177.23450356,-179.19272884,0.34917541
-1.44587022,9.63929238,0.06992878,0.79622550,-1.87176722

>  <Name>
ligand

>  <RI>
0

>  <Rbt.Current_Directory>
/home/itssahil/PROJECTS/Mol_Feturizer/New_Systems/rnas/1FUF

>  <Rbt.Executable>
rbdock ($Id: //depot/dev/client3/rdock/2013.1/src/exe/rbdock.cxx#4 $)

>  <Rbt.Library>
libRbt.so (2013.1, Build901 2013/11/27)

>  <Rbt.Parameter_File>
/export/apps/rDock/src/rDock_2013.1_src/data/scripts/dock_solv.prm

>  <Rbt.Receptor>
prm/pocket_docking_5.prm

>  <SCORE>
-4.94142

>  <SCORE.INTER>
-1.42983

>  <SCORE.INTER.CONST>
1

>  <SCORE.INTER.POLAR>
0

>  <SCORE.INTER.ROT>
11

>  <SCORE.INTER.SOLV>
16.4592

>  <SCORE.INTER.VDW>
-17.373

>  <SCORE.INTER.norm>
-0.102131

>  <SCORE.INTRA>
-3.51159

>  <SCORE.INTRA.DIHEDRAL>
-7.14098

>  <SCORE.INTRA.DIHEDRAL.0>
10.5765

>  <SCORE.INTRA.POLAR>
0

>  <SCORE.INTRA.POLAR.0>
0

>  <SCORE.INTRA.REPUL>
0

>  <SCORE.INTRA.REPUL.0>
0

>  <SCORE.INTRA.SOLV>
-0.147173

>  <SCORE.INTRA.SOLV.lig_0>
-50.1861

>  <SCORE.INTRA.VDW>
0.132489

>  <SCORE.INTRA.VDW.0>
-1.36671

>  <SCORE.INTRA.norm>
-0.250828

>  <SCORE.RESTR>
0

>  <SCORE.RESTR.CAVITY>
0

>  <SCORE.RESTR.norm>
0

>  <SCORE.SYSTEM>
0

>  <SCORE.SYSTEM.CONST>
0

>  <SCORE.SYSTEM.DIHEDRAL>
0

>  <SCORE.SYSTEM.SOLV>
0

>  <SCORE.SYSTEM.norm>
0

>  <SCORE.heavy>
14

>  <SCORE.norm>
-0.352959

>  <RMSD>
1.899

$$$$
ligand
 OpenBabel11021811393D
libRbt.so/2013.1/901 2013/11/27
 14 13  0  0  0  0  0  0  0  0999 V2000
   -4.9130    1.2068    9.1966 N   0  0  0  0  0  0  0  0  0  0  0  0
   -3.8543    2.1910    8.6982 C   0  0  0  0  0  0  0  0  0  0  0  0
   -2.5482    1.5990    9.0859 C   0  0  0  0  0  0  0  0  0  0  0  0
   -2.3240    1.4913   10.5855 C   0  0  0  0  0  0  0  0  0  0  0  0
   -0.9407    1.0117   10.8476 N   0  0  0  0  0  0  0  0  0  0  0  0
   -0.9281   -0.5276   10.8595 C   0  0  0  0  0  0  0  0  0  0  0  0
    0.6352   -0.8504   10.7047 C   0  0  0  0  0  0  0  0  0  0  0  0
    0.8104   -2.1496   10.6956 C   0  0  0  0  0  0  0  0  0  0  0  0
    2.4433   -2.1224   10.5742 C   0  0  0  0  0  0  0  0  0  0  0  0
    2.6859   -3.6687   10.5365 N   0  0  0  0  0  0  0  0  0  0  0  0
    3.4709   -4.1533    9.2527 C   0  0  0  0  0  0  0  0  0  0  0  0
    3.7383   -5.7504    9.4658 C   0  0  0  0  0  0  0  0  0  0  0  0
    4.4464   -6.1610    8.2076 C   0  0  0  0  0  0  0  0  0  0  0  0
    4.8239   -7.6085    8.4170 N   0  0  0  0  0  0  0  0  0  0  0  0
  1  2  1  0  0  0  0
  2  3  1  0  0  0  0
  3  4  1  0  0  0  0
  4  5  1  0  0  0  0
  5  6  1  0  0  0  0
  6  7  1  0  0  0  0
  7  8  1  0  0  0  0
  8  9  1  0  0  0  0
  9 10  1  0  0  0  0
 10 11  1  0  0  0  0
 11 12  1  0  0  0  0
 12 13  1  0  0  0  0
 13 14  1  0  0  0  0
M  END
>  <CHROM.1>
-64.59547130,-174.52814113,-88.00353028,163.63417012,-179.87926534,-178.50148939
-179.10364464,122.99256209,175.02132080,178.43278112,175.04127125,0.53905664
-1.82068271,9.79482691,2.57221410,-0.58994129,0.80033040

>  <Name>
ligand

>  <RI>
0

>  <Rbt.Current_Directory>
/home/itssahil/PROJECTS/Mol_Feturizer/New_Systems/rnas/1FUF

>  <Rbt.Executable>
rbdock ($Id: //depot/dev/client3/rdock/2013.1/src/exe/rbdock.cxx#4 $)

>  <Rbt.Library>
libRbt.so (2013.1, Build901 2013/11/27)

>  <Rbt.Parameter_File>
/export/apps/rDock/src/rDock_2013.1_src/data/scripts/dock_solv.prm

>  <Rbt.Receptor>
prm/blind_docking_40.prm

>  <SCORE>
-4.98885

>  <SCORE.INTER>
-1.63172

>  <SCORE.INTER.CONST>
1

>  <SCORE.INTER.POLAR>
0

>  <SCORE.INTER.ROT>
11

>  <SCORE.INTER.SOLV>
16.7381

>  <SCORE.INTER.VDW>
-17.6005

>  <SCORE.INTER.norm>
-0.116552

>  <SCORE.INTRA>
-3.35712

>  <SCORE.INTRA.DIHEDRAL>
-8.3127

>  <SCORE.INTRA.DIHEDRAL.0>
10.5765

>  <SCORE.INTRA.POLAR>
0

>  <SCORE.INTRA.POLAR.0>
0

>  <SCORE.INTRA.REPUL>
0

>  <SCORE.INTRA.REPUL.0>
0

>  <SCORE.INTRA.SOLV>
0.740244

>  <SCORE.INTRA.SOLV.lig_0>
-50.1861

>  <SCORE.INTRA.VDW>
0.429102

>  <SCORE.INTRA.VDW.0>
-1.36671

>  <SCORE.INTRA.norm>
-0.239795

>  <SCORE.RESTR>
0

>  <SCORE.RESTR.CAVITY>
0

>  <SCORE.RESTR.norm>
0

>  <SCORE.SYSTEM>
0

>  <SCORE.SYSTEM.CONST>
0

>  <SCORE.SYSTEM.DIHEDRAL>
0

>  <SCORE.SYSTEM.SOLV>
0

>  <SCORE.SYSTEM.norm>
0

>  <SCORE.heavy>
14

>  <SCORE.norm>
-0.356346

>  <RMSD>
1.900

$$$$
ligand
 OpenBabel11021811393D
libRbt.so/2013.1/901 2013/11/27
 14 13  0  0  0  0  0  0  0  0999 V2000
    5.6325   -7.2157    8.4726 N   0  0  0  0  0  0  0  0  0  0  0  0
    4.1564   -6.9140    8.2113 C   0  0  0  0  0  0  0  0  0  0  0  0
    3.9981   -5.4587    8.4634 C   0  0  0  0  0  0  0  0  0  0  0  0
    4.2851   -5.0306    9.8934 C   0  0  0  0  0  0  0  0  0  0  0  0
    3.9308   -3.5961   10.0629 N   0  0  0  0  0  0  0  0  0  0  0  0
    2.5849   -3.4867   10.8021 C   0  0  0  0  0  0  0  0  0  0  0  0
    2.0979   -2.0142   10.3941 C   0  0  0  0  0  0  0  0  0  0  0  0
    0.9008   -1.8024   10.8845 C   0  0  0  0  0  0  0  0  0  0  0  0
    0.6729   -0.3296   10.2059 C   0  0  0  0  0  0  0  0  0  0  0  0
   -0.8211   -0.1234   10.6266 N   0  0  0  0  0  0  0  0  0  0  0  0
   -1.6657    0.6988    9.5732 C   0  0  0  0  0  0  0  0  0  0  0  0
   -3.2044    0.6838   10.1210 C   0  0  0  0  0  0  0  0  0  0  0  0
   -3.9590    1.4524    9.0755 C   0  0  0  0  0  0  0  0  0  0  0  0
   -5.3975    1.4454    9.5366 N   0  0  0  0  0  0  0  0  0  0  0  0
  1  2  1  0  0  0  0
  2  3  1  0  0  0  0
  3  4  1  0  0  0  0
  4  5  1  0  0  0  0
  5  6  1  0  0  0  0
  6  7  1  0  0  0  0
  7  8  1  0  0  0  0
  8  9  1  0  0  0  0
  9 10  1  0  0  0  0
 10 11  1  0  0  0  0
 11 12  1  0  0  0  0
 12 13  1  0  0  0  0
 13 14  1  0  0  0  0
M  END
>  <CHROM.1>
-62.96505476,-172.96391199,102.73245215,-158.72234204,175.81452475,-175.74378220
173.36811445,-147.11838984,174.88040913,-179.01512529,179.22673471,0.94373621
-2.26360830,9.73739322,0.58500435,0.44641595,-2.46182136

>  <Name>
ligand

>  <RI>
0

>  <Rbt.Current_Directory>
/home/itssahil/PROJECTS/Mol_Feturizer/New_Systems/rnas/1FUF

>  <Rbt.Executable>
rbdock ($Id: //depot/dev/client3/rdock/2013.1/src/exe/rbdock.cxx#4 $)

>  <Rbt.Library>
libRbt.so (2013.1, Build901 2013/11/27)

>  <Rbt.Parameter_File>
/export/apps/rDock/src/rDock_2013.1_src/data/scripts/dock_solv.prm

>  <Rbt.Receptor>
prm/blind_docking_100.prm

>  <SCORE>
-6.45046

>  <SCORE.INTER>
-3.08181

>  <SCORE.INTER.CONST>
1

>  <SCORE.INTER.POLAR>
0

>  <SCORE.INTER.ROT>
11

>  <SCORE.INTER.SOLV>
14.9085

>  <SCORE.INTER.VDW>
-17.9574

>  <SCORE.INTER.norm>
-0.220129

>  <SCORE.INTRA>
-3.36866

>  <SCORE.INTRA.DIHEDRAL>
-8.02769

>  <SCORE.INTRA.DIHEDRAL.0>
10.5765

>  <SCORE.INTRA.POLAR>
0

>  <SCORE.INTRA.POLAR.0>
0

>  <SCORE.INTRA.REPUL>
0

>  <SCORE.INTRA.REPUL.0>
0

>  <SCORE.INTRA.SOLV>
0.723739

>  <SCORE.INTRA.SOLV.lig_0>
-50.1861

>  <SCORE.INTRA.VDW>
0.28332

>  <SCORE.INTRA.VDW.0>
-1.36671

>  <SCORE.INTRA.norm>
-0.240618

>  <SCORE.RESTR>
0

>  <SCORE.RESTR.CAVITY>
0

>  <SCORE.RESTR.norm>
0

>  <SCORE.SYSTEM>
0

>  <SCORE.SYSTEM.CONST>
0

>  <SCORE.SYSTEM.DIHEDRAL>
0

>  <SCORE.SYSTEM.SOLV>
0

>  <SCORE.SYSTEM.norm>
0

>  <SCORE.heavy>
14

>  <SCORE.norm>
-0.460747

>  <RMSD>
1.915

$$$$
ligand
 OpenBabel11021811393D
libRbt.so/2013.1/901 2013/11/27
 14 13  0  0  0  0  0  0  0  0999 V2000
    5.5591   -7.0158    8.4992 N   0  0  0  0  0  0  0  0  0  0  0  0
    4.1585   -6.6319    8.0207 C   0  0  0  0  0  0  0  0  0  0  0  0
    3.9527   -5.2333    8.4771 C   0  0  0  0  0  0  0  0  0  0  0  0
    3.9957   -5.0484    9.9853 C   0  0  0  0  0  0  0  0  0  0  0  0
    3.5423   -3.6745   10.3302 N   0  0  0  0  0  0  0  0  0  0  0  0
    2.0160   -3.6761   10.5308 C   0  0  0  0  0  0  0  0  0  0  0  0
    1.6886   -2.1086   10.6192 C   0  0  0  0  0  0  0  0  0  0  0  0
    0.3903   -1.9404   10.6872 C   0  0  0  0  0  0  0  0  0  0  0  0
    0.4075   -0.3030   10.6695 C   0  0  0  0  0  0  0  0  0  0  0  0
   -1.1396   -0.0682   10.6155 N   0  0  0  0  0  0  0  0  0  0  0  0
   -1.5516    1.4534   10.7336 C   0  0  0  0  0  0  0  0  0  0  0  0
   -3.1683    1.5001   10.5057 C   0  0  0  0  0  0  0  0  0  0  0  0
   -3.3326    1.1215    9.0625 C   0  0  0  0  0  0  0  0  0  0  0  0
   -4.8031    1.3024    8.7681 N   0  0  0  0  0  0  0  0  0  0  0  0
  1  2  1  0  0  0  0
  2  3  1  0  0  0  0
  3  4  1  0  0  0  0
  4  5  1  0  0  0  0
  5  6  1  0  0  0  0
  6  7  1  0  0  0  0
  7  8  1  0  0  0  0
  8  9  1  0  0  0  0
  9 10  1  0  0  0  0
 10 11  1  0  0  0  0
 11 12  1  0  0  0  0
 12 13  1  0  0  0  0
 13 14  1  0  0  0  0
M  END
>  <CHROM.1>
-61.60771747,-170.03280278,89.38458713,-170.01478104,175.05795119,-176.71092399
175.02565045,174.11405294,174.42270918,-67.95052361,-173.85142318,0.83684283
-2.16582972,9.82186664,0.54569618,0.56209046,-2.29357425

>  <Name>
ligand

>  <RI>
0

>  <Rbt.Current_Directory>
/home/itssahil/PROJECTS/Mol_Feturizer/New_Systems/rnas/1FUF

>  <Rbt.Executable>
rbdock ($Id: //depot/dev/client3/rdock/2013.1/src/exe/rbdock.cxx#4 $)

>  <Rbt.Library>
libRbt.so (2013.1, Build901 2013/11/27)

>  <Rbt.Parameter_File>
/export/apps/rDock/src/rDock_2013.1_src/data/scripts/dock_solv.prm

>  <Rbt.Receptor>
prm/pocket_docking_3.prm

>  <SCORE>
-5.53831

>  <SCORE.INTER>
-2.33704

>  <SCORE.INTER.CONST>
1

>  <SCORE.INTER.POLAR>
0

>  <SCORE.INTER.ROT>
11

>  <SCORE.INTER.SOLV>
15.0595

>  <SCORE.INTER.VDW>
-17.5112

>  <SCORE.INTER.norm>
-0.166931

>  <SCORE.INTRA>
-3.20128

>  <SCORE.INTRA.DIHEDRAL>
-8.87704

>  <SCORE.INTRA.DIHEDRAL.0>
10.5765

>  <SCORE.INTRA.POLAR>
0

>  <SCORE.INTRA.POLAR.0>
0

>  <SCORE.INTRA.REPUL>
0

>  <SCORE.INTRA.REPUL.0>
0

>  <SCORE.INTRA.SOLV>
1.19659

>  <SCORE.INTRA.SOLV.lig_0>
-50.1861

>  <SCORE.INTRA.VDW>
0.63895

>  <SCORE.INTRA.VDW.0>
-1.36671

>  <SCORE.INTRA.norm>
-0.228663

>  <SCORE.RESTR>
0

>  <SCORE.RESTR.CAVITY>
0

>  <SCORE.RESTR.norm>
0

>  <SCORE.SYSTEM>
0

>  <SCORE.SYSTEM.CONST>
0

>  <SCORE.SYSTEM.DIHEDRAL>
0

>  <SCORE.SYSTEM.SOLV>
0

>  <SCORE.SYSTEM.norm>
0

>  <SCORE.heavy>
14

>  <SCORE.norm>
-0.395594

>  <RMSD>
1.916

$$$$
ligand
 OpenBabel11021811393D
libRbt.so/2013.1/901 2013/11/27
 14 13  0  0  0  0  0  0  0  0999 V2000
   -7.1025    1.4749    9.2449 N   0  0  0  0  0  0  0  0  0  0  0  0
   -6.0820    2.3545    9.9680 C   0  0  0  0  0  0  0  0  0  0  0  0
   -4.9964    2.5947    8.9829 C   0  0  0  0  0  0  0  0  0  0  0  0
   -4.1796    1.3622    8.6302 C   0  0  0  0  0  0  0  0  0  0  0  0
   -3.4101    0.9184    9.8232 N   0  0  0  0  0  0  0  0  0  0  0  0
   -2.1898    1.8373   10.0141 C   0  0  0  0  0  0  0  0  0  0  0  0
   -1.2230    0.9268   10.9132 C   0  0  0  0  0  0  0  0  0  0  0  0
   -0.7169   -0.0295   10.1731 C   0  0  0  0  0  0  0  0  0  0  0  0
    0.2294   -0.6908   11.3345 C   0  0  0  0  0  0  0  0  0  0  0  0
    0.9296   -1.7791   10.4532 N   0  0  0  0  0  0  0  0  0  0  0  0
    2.2086   -2.4139   11.1318 C   0  0  0  0  0  0  0  0  0  0  0  0
    2.8266   -3.4573   10.0377 C   0  0  0  0  0  0  0  0  0  0  0  0
    3.9534   -4.1182   10.7772 C   0  0  0  0  0  0  0  0  0  0  0  0
    4.5460   -5.1061    9.8002 N   0  0  0  0  0  0  0  0  0  0  0  0
  1  2  1  0  0  0  0
  2  3  1  0  0  0  0
  3  4  1  0  0  0  0
  4  5  1  0  0  0  0
  5  6  1  0  0  0  0
  6  7  1  0  0  0  0
  7  8  1  0  0  0  0
  8  9  1  0  0  0  0
  9 10  1  0  0  0  0
 10 11  1  0  0  0  0
 11 12  1  0  0  0  0
 12 13  1  0  0  0  0
 13 14  1  0  0  0  0
M  END
>  <CHROM.1>
-67.98836891,-66.58442309,-77.17026506,-159.06315001,73.10155784,177.53915469
-176.16450879,165.33164729,-177.31651508,-174.95607208,179.43844960,-1.08611746
-0.43730917,10.09181871,2.70064513,-0.40353081,0.51478925

>  <Name>
ligand

>  <RI>
0

>  <Rbt.Current_Directory>
/home/itssahil/PROJECTS/Mol_Feturizer/New_Systems/rnas/1FUF

>  <Rbt.Executable>
rbdock ($Id: //depot/dev/client3/rdock/2013.1/src/exe/rbdock.cxx#4 $)

>  <Rbt.Library>
libRbt.so (2013.1, Build901 2013/11/27)

>  <Rbt.Parameter_File>
/export/apps/rDock/src/rDock_2013.1_src/data/scripts/dock_solv.prm

>  <Rbt.Receptor>
prm/pocket_docking_6.prm

>  <SCORE>
-3.13396

>  <SCORE.INTER>
-0.819869

>  <SCORE.INTER.CONST>
1

>  <SCORE.INTER.POLAR>
0

>  <SCORE.INTER.ROT>
11

>  <SCORE.INTER.SOLV>
15.0291

>  <SCORE.INTER.VDW>
-16.4896

>  <SCORE.INTER.norm>
-0.0585621

>  <SCORE.INTRA>
-2.31409

>  <SCORE.INTRA.DIHEDRAL>
-8.6473

>  <SCORE.INTRA.DIHEDRAL.0>
10.5765

>  <SCORE.INTRA.POLAR>
0

>  <SCORE.INTRA.POLAR.0>
0

>  <SCORE.INTRA.REPUL>
0

>  <SCORE.INTRA.REPUL.0>
0

>  <SCORE.INTRA.SOLV>
1.91229

>  <SCORE.INTRA.SOLV.lig_0>
-50.1861

>  <SCORE.INTRA.VDW>
1.05341

>  <SCORE.INTRA.VDW.0>
-1.36671

>  <SCORE.INTRA.norm>
-0.165292

>  <SCORE.RESTR>
0

>  <SCORE.RESTR.CAVITY>
0

>  <SCORE.RESTR.norm>
0

>  <SCORE.SYSTEM>
0

>  <SCORE.SYSTEM.CONST>
0

>  <SCORE.SYSTEM.DIHEDRAL>
0

>  <SCORE.SYSTEM.SOLV>
0

>  <SCORE.SYSTEM.norm>
0

>  <SCORE.heavy>
14

>  <SCORE.norm>
-0.223854

>  <RMSD>
1.916

$$$$
ligand
 OpenBabel11021811393D
libRbt.so/2013.1/901 2013/11/27
 14 13  0  0  0  0  0  0  0  0999 V2000
    5.2326   -6.5292    8.4994 N   0  0  0  0  0  0  0  0  0  0  0  0
    3.7896   -6.1849    8.8701 C   0  0  0  0  0  0  0  0  0  0  0  0
    3.7658   -6.1196   10.3539 C   0  0  0  0  0  0  0  0  0  0  0  0
    4.5701   -4.9751   10.9487 C   0  0  0  0  0  0  0  0  0  0  0  0
    4.0011   -3.6788   10.4926 N   0  0  0  0  0  0  0  0  0  0  0  0
    2.7446   -3.3536   11.3204 C   0  0  0  0  0  0  0  0  0  0  0  0
    2.1241   -2.1142   10.5137 C   0  0  0  0  0  0  0  0  0  0  0  0
    0.9767   -1.7781   11.0513 C   0  0  0  0  0  0  0  0  0  0  0  0
    0.6815   -0.4897   10.0846 C   0  0  0  0  0  0  0  0  0  0  0  0
   -0.7738   -0.1792   10.5717 N   0  0  0  0  0  0  0  0  0  0  0  0
   -1.6035    0.7053    9.5576 C   0  0  0  0  0  0  0  0  0  0  0  0
   -3.1561    0.6260   10.0585 C   0  0  0  0  0  0  0  0  0  0  0  0
   -3.8871    1.5020    9.0830 C   0  0  0  0  0  0  0  0  0  0  0  0
   -5.3264    1.4939    9.5412 N   0  0  0  0  0  0  0  0  0  0  0  0
  1  2  1  0  0  0  0
  2  3  1  0  0  0  0
  3  4  1  0  0  0  0
  4  5  1  0  0  0  0
  5  6  1  0  0  0  0
  6  7  1  0  0  0  0
  7  8  1  0  0  0  0
  8  9  1  0  0  0  0
  9 10  1  0  0  0  0
 10 11  1  0  0  0  0
 11 12  1  0  0  0  0
 12 13  1  0  0  0  0
 13 14  1  0  0  0  0
M  END
>  <CHROM.1>
66.75375034,62.15209347,78.77359681,-169.31080620,175.46559604,176.93501224
172.77927964,-160.85638447,167.17181174,178.82402074,-178.10862653,0.93856133
-2.21965098,10.06774059,0.50800039,0.51509406,-2.44706341

>  <Name>
ligand

>  <RI>
0

>  <Rbt.Current_Directory>
/home/itssahil/PROJECTS/Mol_Feturizer/New_Systems/rnas/1FUF

>  <Rbt.Executable>
rbdock ($Id: //depot/dev/client3/rdock/2013.1/src/exe/rbdock.cxx#4 $)

>  <Rbt.Library>
libRbt.so (2013.1, Build901 2013/11/27)

>  <Rbt.Parameter_File>
/export/apps/rDock/src/rDock_2013.1_src/data/scripts/dock_solv.prm

>  <Rbt.Receptor>
prm/blind_docking_20.prm

>  <SCORE>
-6.70211

>  <SCORE.INTER>
-3.57043

>  <SCORE.INTER.CONST>
1

>  <SCORE.INTER.POLAR>
0

>  <SCORE.INTER.ROT>
11

>  <SCORE.INTER.SOLV>
14.6809

>  <SCORE.INTER.VDW>
-18.2073

>  <SCORE.INTER.norm>
-0.25503

>  <SCORE.INTRA>
-3.13168

>  <SCORE.INTRA.DIHEDRAL>
-9.2916

>  <SCORE.INTRA.DIHEDRAL.0>
10.5765

>  <SCORE.INTRA.POLAR>
0

>  <SCORE.INTRA.POLAR.0>
0

>  <SCORE.INTRA.REPUL>
0

>  <SCORE.INTRA.REPUL.0>
0

>  <SCORE.INTRA.SOLV>
1.64471

>  <SCORE.INTRA.SOLV.lig_0>
-50.1861

>  <SCORE.INTRA.VDW>
0.691767

>  <SCORE.INTRA.VDW.0>
-1.36671

>  <SCORE.INTRA.norm>
-0.223691

>  <SCORE.RESTR>
0

>  <SCORE.RESTR.CAVITY>
0

>  <SCORE.RESTR.norm>
0

>  <SCORE.SYSTEM>
0

>  <SCORE.SYSTEM.CONST>
0

>  <SCORE.SYSTEM.DIHEDRAL>
0

>  <SCORE.SYSTEM.SOLV>
0

>  <SCORE.SYSTEM.norm>
0

>  <SCORE.heavy>
14

>  <SCORE.norm>
-0.478722

>  <RMSD>
1.923

$$$$
ligand
 OpenBabel11021811393D
libRbt.so/2013.1/901 2013/11/27
 14 13  0  0  0  0  0  0  0  0999 V2000
    4.6100   -7.5943    8.6334 N   0  0  0  0  0  0  0  0  0  0  0  0
    5.2776   -6.2848    9.0550 C   0  0  0  0  0  0  0  0  0  0  0  0
    4.1816   -5.2844    9.1224 C   0  0  0  0  0  0  0  0  0  0  0  0
    3.1939   -5.5053   10.2565 C   0  0  0  0  0  0  0  0  0  0  0  0
    2.2493   -4.3583   10.3228 N   0  0  0  0  0  0  0  0  0  0  0  0
    2.8346   -3.2674   11.2377 C   0  0  0  0  0  0  0  0  0  0  0  0
    2.2064   -1.9320   10.6100 C   0  0  0  0  0  0  0  0  0  0  0  0
    0.9265   -1.8824   10.8896 C   0  0  0  0  0  0  0  0  0  0  0  0
    0.6232   -0.4538   10.1488 C   0  0  0  0  0  0  0  0  0  0  0  0
   -0.9224   -0.4038   10.3939 N   0  0  0  0  0  0  0  0  0  0  0  0
   -1.6645    0.6872    9.5232 C   0  0  0  0  0  0  0  0  0  0  0  0
   -3.2491    0.5598    9.8984 C   0  0  0  0  0  0  0  0  0  0  0  0
   -3.9024    1.5935    9.0279 C   0  0  0  0  0  0  0  0  0  0  0  0
   -5.3811    1.4785    9.3142 N   0  0  0  0  0  0  0  0  0  0  0  0
  1  2  1  0  0  0  0
  2  3  1  0  0  0  0
  3  4  1  0  0  0  0
  4  5  1  0  0  0  0
  5  6  1  0  0  0  0
  6  7  1  0  0  0  0
  7  8  1  0  0  0  0
  8  9  1  0  0  0  0
  9 10  1  0  0  0  0
 10 11  1  0  0  0  0
 11 12  1  0  0  0  0
 12 13  1  0  0  0  0
 13 14  1  0  0  0  0
M  END
>  <CHROM.1>
69.05034925,173.12350737,-88.88902679,150.65928494,71.91383422,179.41861721
176.91750325,-166.38030910,178.89442150,-178.92365373,178.28924833,0.78481357
-2.33180272,9.88822017,0.59759806,0.46280311,-2.55150592

>  <Name>
ligand

>  <RI>
0

>  <Rbt.Current_Directory>
/home/itssahil/PROJECTS/Mol_Feturizer/New_Systems/rnas/1FUF

>  <Rbt.Executable>
rbdock ($Id: //depot/dev/client3/rdock/2013.1/src/exe/rbdock.cxx#4 $)

>  <Rbt.Library>
libRbt.so (2013.1, Build901 2013/11/27)

>  <Rbt.Parameter_File>
/export/apps/rDock/src/rDock_2013.1_src/data/scripts/dock_solv.prm

>  <Rbt.Receptor>
prm/blind_docking_80.prm

>  <SCORE>
-4.61249

>  <SCORE.INTER>
-1.70821

>  <SCORE.INTER.CONST>
1

>  <SCORE.INTER.POLAR>
0

>  <SCORE.INTER.ROT>
11

>  <SCORE.INTER.SOLV>
16.6738

>  <SCORE.INTER.VDW>
-17.6301

>  <SCORE.INTER.norm>
-0.122015

>  <SCORE.INTRA>
-2.90428

>  <SCORE.INTRA.DIHEDRAL>
-8.23119

>  <SCORE.INTRA.DIHEDRAL.0>
10.5765

>  <SCORE.INTRA.POLAR>
0

>  <SCORE.INTRA.POLAR.0>
0

>  <SCORE.INTRA.REPUL>
0

>  <SCORE.INTRA.REPUL.0>
0

>  <SCORE.INTRA.SOLV>
1.04309

>  <SCORE.INTRA.SOLV.lig_0>
-50.1861

>  <SCORE.INTRA.VDW>
0.689766

>  <SCORE.INTRA.VDW.0>
-1.36671

>  <SCORE.INTRA.norm>
-0.207449

>  <SCORE.RESTR>
0

>  <SCORE.RESTR.CAVITY>
0

>  <SCORE.RESTR.norm>
0

>  <SCORE.SYSTEM>
0

>  <SCORE.SYSTEM.CONST>
0

>  <SCORE.SYSTEM.DIHEDRAL>
0

>  <SCORE.SYSTEM.SOLV>
0

>  <SCORE.SYSTEM.norm>
0

>  <SCORE.heavy>
14

>  <SCORE.norm>
-0.329464

>  <RMSD>
1.924

$$$$
ligand
 OpenBabel11021811393D
libRbt.so/2013.1/901 2013/11/27
 14 13  0  0  0  0  0  0  0  0999 V2000
   -6.3579    3.5371    7.4334 N   0  0  0  0  0  0  0  0  0  0  0  0
   -5.8808    3.0868    8.8145 C   0  0  0  0  0  0  0  0  0  0  0  0
   -4.5176    2.5356    8.6032 C   0  0  0  0  0  0  0  0  0  0  0  0
   -3.8729    1.9507    9.8494 C   0  0  0  0  0  0  0  0  0  0  0  0
   -2.5119    1.4515    9.5166 N   0  0  0  0  0  0  0  0  0  0  0  0
   -2.1371    0.3109   10.4802 C   0  0  0  0  0  0  0  0  0  0  0  0
   -0.6182    0.0076   10.0645 C   0  0  0  0  0  0  0  0  0  0  0  0
   -0.1633   -0.9899   10.7833 C   0  0  0  0  0  0  0  0  0  0  0  0
    1.3655   -0.9681   10.1967 C   0  0  0  0  0  0  0  0  0  0  0  0
    1.9312   -2.1776   11.0142 N   0  0  0  0  0  0  0  0  0  0  0  0
    2.5086   -3.3371   10.1079 C   0  0  0  0  0  0  0  0  0  0  0  0
    2.6223   -4.6487   11.0747 C   0  0  0  0  0  0  0  0  0  0  0  0
    3.2120   -5.6982   10.1781 C   0  0  0  0  0  0  0  0  0  0  0  0
    4.6285   -5.2454    9.9127 N   0  0  0  0  0  0  0  0  0  0  0  0
  1  2  1  0  0  0  0
  2  3  1  0  0  0  0
  3  4  1  0  0  0  0
  4  5  1  0  0  0  0
  5  6  1  0  0  0  0
  6  7  1  0  0  0  0
  7  8  1  0  0  0  0
  8  9  1  0  0  0  0
  9 10  1  0  0  0  0
 10 11  1  0  0  0  0
 11 12  1  0  0  0  0
 12 13  1  0  0  0  0
 13 14  1  0  0  0  0
M  END
>  <CHROM.1>
-176.76524123,-179.20944450,-152.77671185,-174.85139362,-178.02343584,-176.67190002
-178.69676999,121.97434516,-163.40029855,-178.30407946,68.63310551,-0.69944965
-0.72753661,9.85938973,2.77945483,-0.64764937,0.77536008

>  <Name>
ligand

>  <RI>
0

>  <Rbt.Current_Directory>
/home/itssahil/PROJECTS/Mol_Feturizer/New_Systems/rnas/1FUF

>  <Rbt.Executable>
rbdock ($Id: //depot/dev/client3/rdock/2013.1/src/exe/rbdock.cxx#4 $)

>  <Rbt.Library>
libRbt.so (2013.1, Build901 2013/11/27)

>  <Rbt.Parameter_File>
/export/apps/rDock/src/rDock_2013.1_src/data/scripts/dock_solv.prm

>  <Rbt.Receptor>
prm/pocket_docking_3.prm

>  <SCORE>
-4.82048

>  <SCORE.INTER>
-1.52381

>  <SCORE.INTER.CONST>
1

>  <SCORE.INTER.POLAR>
0

>  <SCORE.INTER.ROT>
11

>  <SCORE.INTER.SOLV>
15.4988

>  <SCORE.INTER.VDW>
-17.1155

>  <SCORE.INTER.norm>
-0.108844

>  <SCORE.INTRA>
-3.29753

>  <SCORE.INTRA.DIHEDRAL>
-8.23474

>  <SCORE.INTRA.DIHEDRAL.0>
10.5765

>  <SCORE.INTRA.POLAR>
0

>  <SCORE.INTRA.POLAR.0>
0

>  <SCORE.INTRA.REPUL>
0

>  <SCORE.INTRA.REPUL.0>
0

>  <SCORE.INTRA.SOLV>
0.849134

>  <SCORE.INTRA.SOLV.lig_0>
-50.1861

>  <SCORE.INTRA.VDW>
0.395268

>  <SCORE.INTRA.VDW.0>
-1.36671

>  <SCORE.INTRA.norm>
-0.235538

>  <SCORE.RESTR>
0.000867077

>  <SCORE.RESTR.CAVITY>
0.000867077

>  <SCORE.RESTR.norm>
6.1934e-05

>  <SCORE.SYSTEM>
0

>  <SCORE.SYSTEM.CONST>
0

>  <SCORE.SYSTEM.DIHEDRAL>
0

>  <SCORE.SYSTEM.SOLV>
0

>  <SCORE.SYSTEM.norm>
0

>  <SCORE.heavy>
14

>  <SCORE.norm>
-0.34432

>  <RMSD>
1.925

$$$$
ligand
 OpenBabel11021811393D
libRbt.so/2013.1/901 2013/11/27
 14 13  0  0  0  0  0  0  0  0999 V2000
    5.4136   -6.8678    7.9997 N   0  0  0  0  0  0  0  0  0  0  0  0
    4.2075   -6.2015    8.6626 C   0  0  0  0  0  0  0  0  0  0  0  0
    4.5741   -6.0514   10.0943 C   0  0  0  0  0  0  0  0  0  0  0  0
    3.4682   -5.4913   10.9739 C   0  0  0  0  0  0  0  0  0  0  0  0
    3.1377   -4.1088   10.5360 N   0  0  0  0  0  0  0  0  0  0  0  0
    1.6196   -3.8844   10.6569 C   0  0  0  0  0  0  0  0  0  0  0  0
    1.5037   -2.2920   10.5060 C   0  0  0  0  0  0  0  0  0  0  0  0
    0.2391   -1.9469   10.5153 C   0  0  0  0  0  0  0  0  0  0  0  0
    0.4724   -0.3541   10.2147 C   0  0  0  0  0  0  0  0  0  0  0  0
   -1.0158    0.0337    9.9208 N   0  0  0  0  0  0  0  0  0  0  0  0
   -1.5210    1.2768   10.7567 C   0  0  0  0  0  0  0  0  0  0  0  0
   -3.1383    1.3385   10.5371 C   0  0  0  0  0  0  0  0  0  0  0  0
   -3.2855    1.5893    9.0645 C   0  0  0  0  0  0  0  0  0  0  0  0
   -4.7725    1.7099    8.8275 N   0  0  0  0  0  0  0  0  0  0  0  0
  1  2  1  0  0  0  0
  2  3  1  0  0  0  0
  3  4  1  0  0  0  0
  4  5  1  0  0  0  0
  5  6  1  0  0  0  0
  6  7  1  0  0  0  0
  7  8  1  0  0  0  0
  8  9  1  0  0  0  0
  9 10  1  0  0  0  0
 10 11  1  0  0  0  0
 11 12  1  0  0  0  0
 12 13  1  0  0  0  0
 13 14  1  0  0  0  0
M  END
>  <CHROM.1>
-175.91282767,-63.44416420,142.54532737,166.59049275,176.54498669,-175.16598638
168.73850219,128.60077427,-169.22923144,-63.24455212,-177.75293776,0.77881370
-2.23211520,9.94782124,0.31309684,0.73218661,-1.98943925

>  <Name>
ligand

>  <RI>
0

>  <Rbt.Current_Directory>
/home/itssahil/PROJECTS/Mol_Feturizer/New_Systems/rnas/1FUF

>  <Rbt.Executable>
rbdock ($Id: //depot/dev/client3/rdock/2013.1/src/exe/rbdock.cxx#4 $)

>  <Rbt.Library>
libRbt.so (2013.1, Build901 2013/11/27)

>  <Rbt.Parameter_File>
/export/apps/rDock/src/rDock_2013.1_src/data/scripts/dock_solv.prm

>  <Rbt.Receptor>
prm/blind_docking_60.prm

>  <SCORE>
-5.41246

>  <SCORE.INTER>
-2.29529

>  <SCORE.INTER.CONST>
1

>  <SCORE.INTER.POLAR>
0

>  <SCORE.INTER.ROT>
11

>  <SCORE.INTER.SOLV>
14.3766

>  <SCORE.INTER.VDW>
-17.2557

>  <SCORE.INTER.norm>
-0.163949

>  <SCORE.INTRA>
-3.11717

>  <SCORE.INTRA.DIHEDRAL>
-7.59804

>  <SCORE.INTRA.DIHEDRAL.0>
10.5765

>  <SCORE.INTRA.POLAR>
0

>  <SCORE.INTRA.POLAR.0>
0

>  <SCORE.INTRA.REPUL>
0

>  <SCORE.INTRA.REPUL.0>
0

>  <SCORE.INTRA.SOLV>
0.753552

>  <SCORE.INTRA.SOLV.lig_0>
-50.1861

>  <SCORE.INTRA.VDW>
0.305072

>  <SCORE.INTRA.VDW.0>
-1.36671

>  <SCORE.INTRA.norm>
-0.222655

>  <SCORE.RESTR>
0

>  <SCORE.RESTR.CAVITY>
0

>  <SCORE.RESTR.norm>
0

>  <SCORE.SYSTEM>
0

>  <SCORE.SYSTEM.CONST>
0

>  <SCORE.SYSTEM.DIHEDRAL>
0

>  <SCORE.SYSTEM.SOLV>
0

>  <SCORE.SYSTEM.norm>
0

>  <SCORE.heavy>
14

>  <SCORE.norm>
-0.386604

>  <RMSD>
1.927

$$$$
ligand
 OpenBabel11021811393D
libRbt.so/2013.1/901 2013/11/27
 14 13  0  0  0  0  0  0  0  0999 V2000
   -4.2030    1.9223    7.9994 N   0  0  0  0  0  0  0  0  0  0  0  0
   -2.8475    2.0532    8.6948 C   0  0  0  0  0  0  0  0  0  0  0  0
   -3.0004    1.3545    9.9968 C   0  0  0  0  0  0  0  0  0  0  0  0
   -1.7843    1.4383   10.9050 C   0  0  0  0  0  0  0  0  0  0  0  0
   -0.6365    0.7432   10.2633 N   0  0  0  0  0  0  0  0  0  0  0  0
   -0.5181   -0.6811   10.8354 C   0  0  0  0  0  0  0  0  0  0  0  0
    0.9768   -1.0855   10.4188 C   0  0  0  0  0  0  0  0  0  0  0  0
    1.1959   -2.3349   10.7501 C   0  0  0  0  0  0  0  0  0  0  0  0
    2.7590   -2.3911   10.2652 C   0  0  0  0  0  0  0  0  0  0  0  0
    3.0136   -3.9143   10.5225 N   0  0  0  0  0  0  0  0  0  0  0  0
    4.5396   -4.3206   10.4483 C   0  0  0  0  0  0  0  0  0  0  0  0
    4.9337   -4.2991    8.8634 C   0  0  0  0  0  0  0  0  0  0  0  0
    4.1796   -5.4663    8.2961 C   0  0  0  0  0  0  0  0  0  0  0  0
    4.9331   -6.6908    8.7595 N   0  0  0  0  0  0  0  0  0  0  0  0
  1  2  1  0  0  0  0
  2  3  1  0  0  0  0
  3  4  1  0  0  0  0
  4  5  1  0  0  0  0
  5  6  1  0  0  0  0
  6  7  1  0  0  0  0
  7  8  1  0  0  0  0
  8  9  1  0  0  0  0
  9 10  1  0  0  0  0
 10 11  1  0  0  0  0
 11 12  1  0  0  0  0
 12 13  1  0  0  0  0
 13 14  1  0  0  0  0
M  END
>  <CHROM.1>
-176.19672058,-63.96403704,-97.87865641,-162.52174425,-175.00753659,-177.73680847
-174.92424228,-168.07823163,-74.00915243,-69.17974044,-74.52996968,0.96732199
-1.69075667,9.78720514,2.83798680,-0.69139559,1.13841454

>  <Name>
ligand

>  <RI>
0

>  <Rbt.Current_Directory>
/home/itssahil/PROJECTS/Mol_Feturizer/New_Systems/rnas/1FUF

>  <Rbt.Executable>
rbdock ($Id: //depot/dev/client3/rdock/2013.1/src/exe/rbdock.cxx#4 $)

>  <Rbt.Library>
libRbt.so (2013.1, Build901 2013/11/27)

>  <Rbt.Parameter_File>
/export/apps/rDock/src/rDock_2013.1_src/data/scripts/dock_solv.prm

>  <Rbt.Receptor>
prm/blind_docking_20.prm

>  <SCORE>
-3.94369

>  <SCORE.INTER>
-1.75836

>  <SCORE.INTER.CONST>
1

>  <SCORE.INTER.POLAR>
0

>  <SCORE.INTER.ROT>
11

>  <SCORE.INTER.SOLV>
14.8414

>  <SCORE.INTER.VDW>
-17.0527

>  <SCORE.INTER.norm>
-0.125597

>  <SCORE.INTRA>
-2.18532

>  <SCORE.INTRA.DIHEDRAL>
-7.83468

>  <SCORE.INTRA.DIHEDRAL.0>
10.5765

>  <SCORE.INTRA.POLAR>
0

>  <SCORE.INTRA.POLAR.0>
0

>  <SCORE.INTRA.REPUL>
0

>  <SCORE.INTRA.REPUL.0>
0

>  <SCORE.INTRA.SOLV>
1.93732

>  <SCORE.INTRA.SOLV.lig_0>
-50.1861

>  <SCORE.INTRA.VDW>
0.763355

>  <SCORE.INTRA.VDW.0>
-1.36671

>  <SCORE.INTRA.norm>
-0.156095

>  <SCORE.RESTR>
0

>  <SCORE.RESTR.CAVITY>
0

>  <SCORE.RESTR.norm>
0

>  <SCORE.SYSTEM>
0

>  <SCORE.SYSTEM.CONST>
0

>  <SCORE.SYSTEM.DIHEDRAL>
0

>  <SCORE.SYSTEM.SOLV>
0

>  <SCORE.SYSTEM.norm>
0

>  <SCORE.heavy>
14

>  <SCORE.norm>
-0.281692

>  <RMSD>
1.928

$$$$
ligand
 OpenBabel11021811393D
libRbt.so/2013.1/901 2013/11/27
 14 13  0  0  0  0  0  0  0  0999 V2000
    4.5388   -7.1000    8.7812 N   0  0  0  0  0  0  0  0  0  0  0  0
    4.1424   -5.7353    8.2167 C   0  0  0  0  0  0  0  0  0  0  0  0
    4.9067   -4.7399    9.0114 C   0  0  0  0  0  0  0  0  0  0  0  0
    4.5066   -4.6594   10.4757 C   0  0  0  0  0  0  0  0  0  0  0  0
    3.0985   -4.1920   10.5807 N   0  0  0  0  0  0  0  0  0  0  0  0
    3.0658   -2.6540   10.5237 C   0  0  0  0  0  0  0  0  0  0  0  0
    1.4945   -2.3490   10.6234 C   0  0  0  0  0  0  0  0  0  0  0  0
    1.2932   -1.0614   10.4815 C   0  0  0  0  0  0  0  0  0  0  0  0
   -0.3383   -1.1061   10.6146 C   0  0  0  0  0  0  0  0  0  0  0  0
   -0.6208    0.4121   10.3565 N   0  0  0  0  0  0  0  0  0  0  0  0
   -1.8500    0.6712    9.3969 C   0  0  0  0  0  0  0  0  0  0  0  0
   -3.1866    0.3976   10.2949 C   0  0  0  0  0  0  0  0  0  0  0  0
   -4.3024    0.4485    9.2921 C   0  0  0  0  0  0  0  0  0  0  0  0
   -4.4274    1.9043    8.9088 N   0  0  0  0  0  0  0  0  0  0  0  0
  1  2  1  0  0  0  0
  2  3  1  0  0  0  0
  3  4  1  0  0  0  0
  4  5  1  0  0  0  0
  5  6  1  0  0  0  0
  6  7  1  0  0  0  0
  7  8  1  0  0  0  0
  8  9  1  0  0  0  0
  9 10  1  0  0  0  0
 10 11  1  0  0  0  0
 11 12  1  0  0  0  0
 12 13  1  0  0  0  0
 13 14  1  0  0  0  0
M  END
>  <CHROM.1>
-66.38843945,-63.88371514,-84.33405993,179.05530889,-175.07683303,179.47274730
-176.55105335,137.10101207,75.86662036,-171.59182929,-71.64125254,0.88015284
-2.12590584,9.82563963,0.52939910,0.46141862,-2.45528350

>  <Name>
ligand

>  <RI>
0

>  <Rbt.Current_Directory>
/home/itssahil/PROJECTS/Mol_Feturizer/New_Systems/rnas/1FUF

>  <Rbt.Executable>
rbdock ($Id: //depot/dev/client3/rdock/2013.1/src/exe/rbdock.cxx#4 $)

>  <Rbt.Library>
libRbt.so (2013.1, Build901 2013/11/27)

>  <Rbt.Parameter_File>
/export/apps/rDock/src/rDock_2013.1_src/data/scripts/dock_solv.prm

>  <Rbt.Receptor>
prm/pocket_docking_5.prm

>  <SCORE>
-4.43051

>  <SCORE.INTER>
-2.79013

>  <SCORE.INTER.CONST>
1

>  <SCORE.INTER.POLAR>
0

>  <SCORE.INTER.ROT>
11

>  <SCORE.INTER.SOLV>
15.5066

>  <SCORE.INTER.VDW>
-17.9623

>  <SCORE.INTER.norm>
-0.199295

>  <SCORE.INTRA>
-1.64037

>  <SCORE.INTRA.DIHEDRAL>
-7.8733

>  <SCORE.INTRA.DIHEDRAL.0>
10.5765

>  <SCORE.INTRA.POLAR>
0

>  <SCORE.INTRA.POLAR.0>
0

>  <SCORE.INTRA.REPUL>
0

>  <SCORE.INTRA.REPUL.0>
0

>  <SCORE.INTRA.SOLV>
2.49057

>  <SCORE.INTRA.SOLV.lig_0>
-50.1861

>  <SCORE.INTRA.VDW>
1.05099

>  <SCORE.INTRA.VDW.0>
-1.36671

>  <SCORE.INTRA.norm>
-0.11717

>  <SCORE.RESTR>
0

>  <SCORE.RESTR.CAVITY>
0

>  <SCORE.RESTR.norm>
0

>  <SCORE.SYSTEM>
0

>  <SCORE.SYSTEM.CONST>
0

>  <SCORE.SYSTEM.DIHEDRAL>
0

>  <SCORE.SYSTEM.SOLV>
0

>  <SCORE.SYSTEM.norm>
0

>  <SCORE.heavy>
14

>  <SCORE.norm>
-0.316465

>  <RMSD>
1.928

$$$$
ligand
 OpenBabel11021811393D
libRbt.so/2013.1/901 2013/11/27
 14 13  0  0  0  0  0  0  0  0999 V2000
   -4.3880    2.3922    7.5605 N   0  0  0  0  0  0  0  0  0  0  0  0
   -3.0540    2.1743    8.2753 C   0  0  0  0  0  0  0  0  0  0  0  0
   -3.4072    1.7607    9.6576 C   0  0  0  0  0  0  0  0  0  0  0  0
   -2.2179    1.5878   10.5883 C   0  0  0  0  0  0  0  0  0  0  0  0
   -1.3809    0.4516   10.1186 N   0  0  0  0  0  0  0  0  0  0  0  0
   -0.2531    0.1946   11.1345 C   0  0  0  0  0  0  0  0  0  0  0  0
    0.4647   -1.0997   10.5168 C   0  0  0  0  0  0  0  0  0  0  0  0
    1.4294   -1.4835   11.3173 C   0  0  0  0  0  0  0  0  0  0  0  0
    1.9898   -2.6991   10.3740 C   0  0  0  0  0  0  0  0  0  0  0  0
    3.1718   -3.1609   11.2910 N   0  0  0  0  0  0  0  0  0  0  0  0
    4.1229   -4.2229   10.6078 C   0  0  0  0  0  0  0  0  0  0  0  0
    3.3431   -5.6545   10.7078 C   0  0  0  0  0  0  0  0  0  0  0  0
    4.3277   -6.6336   10.1377 C   0  0  0  0  0  0  0  0  0  0  0  0
    4.3945   -6.3180    8.6619 N   0  0  0  0  0  0  0  0  0  0  0  0
  1  2  1  0  0  0  0
  2  3  1  0  0  0  0
  3  4  1  0  0  0  0
  4  5  1  0  0  0  0
  5  6  1  0  0  0  0
  6  7  1  0  0  0  0
  7  8  1  0  0  0  0
  8  9  1  0  0  0  0
  9 10  1  0  0  0  0
 10 11  1  0  0  0  0
 11 12  1  0  0  0  0
 12 13  1  0  0  0  0
 13 14  1  0  0  0  0
M  END
>  <CHROM.1>
-175.65287337,-65.64127376,-174.71202133,176.40496005,-177.19115826,-176.29323647
178.74385145,-171.40770432,-78.49024747,-176.07823672,-69.64819276,0.61025823
-1.62222184,10.06806997,2.81807382,-0.75368855,0.97092600

>  <Name>
ligand

>  <RI>
0

>  <Rbt.Current_Directory>
/home/itssahil/PROJECTS/Mol_Feturizer/New_Systems/rnas/1FUF

>  <Rbt.Executable>
rbdock ($Id: //depot/dev/client3/rdock/2013.1/src/exe/rbdock.cxx#4 $)

>  <Rbt.Library>
libRbt.so (2013.1, Build901 2013/11/27)

>  <Rbt.Parameter_File>
/export/apps/rDock/src/rDock_2013.1_src/data/scripts/dock_solv.prm

>  <Rbt.Receptor>
prm/blind_docking_20.prm

>  <SCORE>
-5.67261

>  <SCORE.INTER>
-2.02769

>  <SCORE.INTER.CONST>
1

>  <SCORE.INTER.POLAR>
0

>  <SCORE.INTER.ROT>
11

>  <SCORE.INTER.SOLV>
16.7146

>  <SCORE.INTER.VDW>
-17.8567

>  <SCORE.INTER.norm>
-0.144835

>  <SCORE.INTRA>
-3.64492

>  <SCORE.INTRA.DIHEDRAL>
-9.53674

>  <SCORE.INTRA.DIHEDRAL.0>
10.5765

>  <SCORE.INTRA.POLAR>
0

>  <SCORE.INTRA.POLAR.0>
0

>  <SCORE.INTRA.REPUL>
0

>  <SCORE.INTRA.REPUL.0>
0

>  <SCORE.INTRA.SOLV>
1.12542

>  <SCORE.INTRA.SOLV.lig_0>
-50.1861

>  <SCORE.INTRA.VDW>
0.560741

>  <SCORE.INTRA.VDW.0>
-1.36671

>  <SCORE.INTRA.norm>
-0.260351

>  <SCORE.RESTR>
0

>  <SCORE.RESTR.CAVITY>
0

>  <SCORE.RESTR.norm>
0

>  <SCORE.SYSTEM>
0

>  <SCORE.SYSTEM.CONST>
0

>  <SCORE.SYSTEM.DIHEDRAL>
0

>  <SCORE.SYSTEM.SOLV>
0

>  <SCORE.SYSTEM.norm>
0

>  <SCORE.heavy>
14

>  <SCORE.norm>
-0.405187

>  <RMSD>
1.929

$$$$
ligand
 OpenBabel11021811393D
libRbt.so/2013.1/901 2013/11/27
 14 13  0  0  0  0  0  0  0  0999 V2000
    4.8496   -7.4972    8.7840 N   0  0  0  0  0  0  0  0  0  0  0  0
    5.0346   -6.2906    9.7048 C   0  0  0  0  0  0  0  0  0  0  0  0
    3.7069   -5.6267    9.7607 C   0  0  0  0  0  0  0  0  0  0  0  0
    3.6745   -4.3479   10.5818 C   0  0  0  0  0  0  0  0  0  0  0  0
    2.3063   -3.7659   10.5406 N   0  0  0  0  0  0  0  0  0  0  0  0
    2.3689   -2.2852   10.9570 C   0  0  0  0  0  0  0  0  0  0  0  0
    0.8465   -1.8191   10.7649 C   0  0  0  0  0  0  0  0  0  0  0  0
    0.7532   -0.5339   11.0061 C   0  0  0  0  0  0  0  0  0  0  0  0
   -0.8457   -0.3931   10.6814 C   0  0  0  0  0  0  0  0  0  0  0  0
   -0.9772    1.1524   10.8947 N   0  0  0  0  0  0  0  0  0  0  0  0
   -2.4524    1.6912   10.7142 C   0  0  0  0  0  0  0  0  0  0  0  0
   -2.7107    1.7625    9.1029 C   0  0  0  0  0  0  0  0  0  0  0  0
   -4.1292    2.2409    8.9934 C   0  0  0  0  0  0  0  0  0  0  0  0
   -4.3830    2.3997    7.5128 N   0  0  0  0  0  0  0  0  0  0  0  0
  1  2  1  0  0  0  0
  2  3  1  0  0  0  0
  3  4  1  0  0  0  0
  4  5  1  0  0  0  0
  5  6  1  0  0  0  0
  6  7  1  0  0  0  0
  7  8  1  0  0  0  0
  8  9  1  0  0  0  0
  9 10  1  0  0  0  0
 10 11  1  0  0  0  0
 11 12  1  0  0  0  0
 12 13  1  0  0  0  0
 13 14  1  0  0  0  0
M  END
>  <CHROM.1>
-177.29400104,178.91661594,-161.58593181,176.64036230,-176.08128343,178.20705740
-177.43702140,-177.89834941,-77.69632489,178.50084720,176.72966237,0.57449156
-1.66509191,10.00017921,0.41656332,0.71712376,-2.22608231

>  <Name>
ligand

>  <RI>
0

>  <Rbt.Current_Directory>
/home/itssahil/PROJECTS/Mol_Feturizer/New_Systems/rnas/1FUF

>  <Rbt.Executable>
rbdock ($Id: //depot/dev/client3/rdock/2013.1/src/exe/rbdock.cxx#4 $)

>  <Rbt.Library>
libRbt.so (2013.1, Build901 2013/11/27)

>  <Rbt.Parameter_File>
/export/apps/rDock/src/rDock_2013.1_src/data/scripts/dock_solv.prm

>  <Rbt.Receptor>
prm/pocket_docking_8.prm

>  <SCORE>
-5.85856

>  <SCORE.INTER>
-1.02981

>  <SCORE.INTER.CONST>
1

>  <SCORE.INTER.POLAR>
0

>  <SCORE.INTER.ROT>
11

>  <SCORE.INTER.SOLV>
17.3066

>  <SCORE.INTER.VDW>
-17.3887

>  <SCORE.INTER.norm>
-0.0735579

>  <SCORE.INTRA>
-4.82875

>  <SCORE.INTRA.DIHEDRAL>
-9.88885

>  <SCORE.INTRA.DIHEDRAL.0>
10.5765

>  <SCORE.INTRA.POLAR>
0

>  <SCORE.INTRA.POLAR.0>
0

>  <SCORE.INTRA.REPUL>
0

>  <SCORE.INTRA.REPUL.0>
0

>  <SCORE.INTRA.SOLV>
-0.148137

>  <SCORE.INTRA.SOLV.lig_0>
-50.1861

>  <SCORE.INTRA.VDW>
0.189747

>  <SCORE.INTRA.VDW.0>
-1.36671

>  <SCORE.INTRA.norm>
-0.34491

>  <SCORE.RESTR>
0

>  <SCORE.RESTR.CAVITY>
0

>  <SCORE.RESTR.norm>
0

>  <SCORE.SYSTEM>
0

>  <SCORE.SYSTEM.CONST>
0

>  <SCORE.SYSTEM.DIHEDRAL>
0

>  <SCORE.SYSTEM.SOLV>
0

>  <SCORE.SYSTEM.norm>
0

>  <SCORE.heavy>
14

>  <SCORE.norm>
-0.418468

>  <RMSD>
1.933

$$$$
ligand
 OpenBabel11021811393D
libRbt.so/2013.1/901 2013/11/27
 14 13  0  0  0  0  0  0  0  0999 V2000
   -4.5789    2.5010    8.3009 N   0  0  0  0  0  0  0  0  0  0  0  0
   -3.4936    1.4461    8.5186 C   0  0  0  0  0  0  0  0  0  0  0  0
   -3.2829    1.3908    9.9880 C   0  0  0  0  0  0  0  0  0  0  0  0
   -2.3346    0.2960   10.4491 C   0  0  0  0  0  0  0  0  0  0  0  0
   -0.9552    0.6069    9.9877 N   0  0  0  0  0  0  0  0  0  0  0  0
    0.0597    0.0555   11.0053 C   0  0  0  0  0  0  0  0  0  0  0  0
    0.3718   -1.4009   10.4109 C   0  0  0  0  0  0  0  0  0  0  0  0
    1.2497   -2.0023   11.1765 C   0  0  0  0  0  0  0  0  0  0  0  0
    1.3087   -3.4061   10.3352 C   0  0  0  0  0  0  0  0  0  0  0  0
    2.2498   -4.2011   11.3014 N   0  0  0  0  0  0  0  0  0  0  0  0
    2.6367   -5.6372   10.7656 C   0  0  0  0  0  0  0  0  0  0  0  0
    3.8380   -5.4046    9.6838 C   0  0  0  0  0  0  0  0  0  0  0  0
    4.0913   -6.7791    9.1362 C   0  0  0  0  0  0  0  0  0  0  0  0
    5.2332   -6.6153    8.1610 N   0  0  0  0  0  0  0  0  0  0  0  0
  1  2  1  0  0  0  0
  2  3  1  0  0  0  0
  3  4  1  0  0  0  0
  4  5  1  0  0  0  0
  5  6  1  0  0  0  0
  6  7  1  0  0  0  0
  7  8  1  0  0  0  0
  8  9  1  0  0  0  0
  9 10  1  0  0  0  0
 10 11  1  0  0  0  0
 11 12  1  0  0  0  0
 12 13  1  0  0  0  0
 13 14  1  0  0  0  0
M  END
>  <CHROM.1>
174.07994853,67.95690351,148.61150990,92.26566271,179.32608412,178.87743898
-174.93258227,-176.14801519,80.28119997,-175.89268869,-178.13886074,0.45668428
-2.08223029,9.94449864,2.93149308,-0.79278964,1.25181470

>  <Name>
ligand

>  <RI>
0

>  <Rbt.Current_Directory>
/home/itssahil/PROJECTS/Mol_Feturizer/New_Systems/rnas/1FUF

>  <Rbt.Executable>
rbdock ($Id: //depot/dev/client3/rdock/2013.1/src/exe/rbdock.cxx#4 $)

>  <Rbt.Library>
libRbt.so (2013.1, Build901 2013/11/27)

>  <Rbt.Parameter_File>
/export/apps/rDock/src/rDock_2013.1_src/data/scripts/dock_solv.prm

>  <Rbt.Receptor>
prm/blind_docking_100.prm

>  <SCORE>
-5.41095

>  <SCORE.INTER>
-1.75047

>  <SCORE.INTER.CONST>
1

>  <SCORE.INTER.POLAR>
0

>  <SCORE.INTER.ROT>
11

>  <SCORE.INTER.SOLV>
15.7658

>  <SCORE.INTER.VDW>
-17.3556

>  <SCORE.INTER.norm>
-0.125033

>  <SCORE.INTRA>
-3.66048

>  <SCORE.INTRA.DIHEDRAL>
-8.39415

>  <SCORE.INTRA.DIHEDRAL.0>
10.5765

>  <SCORE.INTRA.POLAR>
0

>  <SCORE.INTRA.POLAR.0>
0

>  <SCORE.INTRA.REPUL>
0

>  <SCORE.INTRA.REPUL.0>
0

>  <SCORE.INTRA.SOLV>
0.159148

>  <SCORE.INTRA.SOLV.lig_0>
-50.1861

>  <SCORE.INTRA.VDW>
0.457022

>  <SCORE.INTRA.VDW.0>
-1.36671

>  <SCORE.INTRA.norm>
-0.261463

>  <SCORE.RESTR>
0

>  <SCORE.RESTR.CAVITY>
0

>  <SCORE.RESTR.norm>
0

>  <SCORE.SYSTEM>
0

>  <SCORE.SYSTEM.CONST>
0

>  <SCORE.SYSTEM.DIHEDRAL>
0

>  <SCORE.SYSTEM.SOLV>
0

>  <SCORE.SYSTEM.norm>
0

>  <SCORE.heavy>
14

>  <SCORE.norm>
-0.386496

>  <RMSD>
1.935

$$$$
ligand
 OpenBabel11021811393D
libRbt.so/2013.1/901 2013/11/27
 14 13  0  0  0  0  0  0  0  0999 V2000
    4.8425   -4.6120    9.3624 N   0  0  0  0  0  0  0  0  0  0  0  0
    4.3098   -3.2809    9.8939 C   0  0  0  0  0  0  0  0  0  0  0  0
    3.3265   -3.6395   10.9481 C   0  0  0  0  0  0  0  0  0  0  0  0
    2.6201   -2.4525   11.5826 C   0  0  0  0  0  0  0  0  0  0  0  0
    1.7580   -1.7878   10.5691 N   0  0  0  0  0  0  0  0  0  0  0  0
    0.7050   -0.9217   11.2839 C   0  0  0  0  0  0  0  0  0  0  0  0
   -0.1462   -0.3461   10.0526 C   0  0  0  0  0  0  0  0  0  0  0  0
   -1.1150    0.4087   10.5111 C   0  0  0  0  0  0  0  0  0  0  0  0
   -1.7773    0.7746    9.0588 C   0  0  0  0  0  0  0  0  0  0  0  0
   -2.9527    1.6716    9.5737 N   0  0  0  0  0  0  0  0  0  0  0  0
   -3.8437    2.2716    8.4138 C   0  0  0  0  0  0  0  0  0  0  0  0
   -5.2059    2.8180    9.1306 C   0  0  0  0  0  0  0  0  0  0  0  0
   -6.0359    3.3117    7.9814 C   0  0  0  0  0  0  0  0  0  0  0  0
   -7.3003    3.8524    8.6066 N   0  0  0  0  0  0  0  0  0  0  0  0
  1  2  1  0  0  0  0
  2  3  1  0  0  0  0
  3  4  1  0  0  0  0
  4  5  1  0  0  0  0
  5  6  1  0  0  0  0
  6  7  1  0  0  0  0
  7  8  1  0  0  0  0
  8  9  1  0  0  0  0
  9 10  1  0  0  0  0
 10 11  1  0  0  0  0
 11 12  1  0  0  0  0
 12 13  1  0  0  0  0
 13 14  1  0  0  0  0
M  END
>  <CHROM.1>
-177.57921210,66.16346271,160.90092513,-177.88380318,178.96556758,-178.44188149
179.54357635,178.59075108,165.21215983,-177.35057212,-178.95258221,-0.77244786
-0.13795864,9.78356002,-0.08810356,0.62096403,-1.69589697

>  <Name>
ligand

>  <RI>
0

>  <Rbt.Current_Directory>
/home/itssahil/PROJECTS/Mol_Feturizer/New_Systems/rnas/1FUF

>  <Rbt.Executable>
rbdock ($Id: //depot/dev/client3/rdock/2013.1/src/exe/rbdock.cxx#4 $)

>  <Rbt.Library>
libRbt.so (2013.1, Build901 2013/11/27)

>  <Rbt.Parameter_File>
/export/apps/rDock/src/rDock_2013.1_src/data/scripts/dock_solv.prm

>  <Rbt.Receptor>
prm/blind_docking_40.prm

>  <SCORE>
-6.75636

>  <SCORE.INTER>
-1.97021

>  <SCORE.INTER.CONST>
1

>  <SCORE.INTER.POLAR>
0

>  <SCORE.INTER.ROT>
11

>  <SCORE.INTER.SOLV>
16.6358

>  <SCORE.INTER.VDW>
-17.7921

>  <SCORE.INTER.norm>
-0.140729

>  <SCORE.INTRA>
-4.78616

>  <SCORE.INTRA.DIHEDRAL>
-9.91398

>  <SCORE.INTRA.DIHEDRAL.0>
10.5765

>  <SCORE.INTRA.POLAR>
0

>  <SCORE.INTRA.POLAR.0>
0

>  <SCORE.INTRA.REPUL>
0

>  <SCORE.INTRA.REPUL.0>
0

>  <SCORE.INTRA.SOLV>
0.204283

>  <SCORE.INTRA.SOLV.lig_0>
-50.1861

>  <SCORE.INTRA.VDW>
0.0686904

>  <SCORE.INTRA.VDW.0>
-1.36671

>  <SCORE.INTRA.norm>
-0.341868

>  <SCORE.RESTR>
0

>  <SCORE.RESTR.CAVITY>
0

>  <SCORE.RESTR.norm>
0

>  <SCORE.SYSTEM>
0

>  <SCORE.SYSTEM.CONST>
0

>  <SCORE.SYSTEM.DIHEDRAL>
0

>  <SCORE.SYSTEM.SOLV>
0

>  <SCORE.SYSTEM.norm>
0

>  <SCORE.heavy>
14

>  <SCORE.norm>
-0.482597

>  <RMSD>
1.936

$$$$
ligand
 OpenBabel11021811393D
libRbt.so/2013.1/901 2013/11/27
 14 13  0  0  0  0  0  0  0  0999 V2000
    3.4182   -5.5228   10.3450 N   0  0  0  0  0  0  0  0  0  0  0  0
    4.2108   -4.3771   10.9753 C   0  0  0  0  0  0  0  0  0  0  0  0
    3.5886   -3.1318   10.4569 C   0  0  0  0  0  0  0  0  0  0  0  0
    2.1890   -2.8588   10.9832 C   0  0  0  0  0  0  0  0  0  0  0  0
    1.6457   -1.6342   10.3371 N   0  0  0  0  0  0  0  0  0  0  0  0
    0.3297   -1.2337   11.0281 C   0  0  0  0  0  0  0  0  0  0  0  0
   -0.3441   -0.2742    9.9339 C   0  0  0  0  0  0  0  0  0  0  0  0
   -1.4068    0.2932   10.4509 C   0  0  0  0  0  0  0  0  0  0  0  0
   -1.9118    1.0381    9.0828 C   0  0  0  0  0  0  0  0  0  0  0  0
   -3.0278    1.9328    9.7196 N   0  0  0  0  0  0  0  0  0  0  0  0
   -4.4682    1.2843    9.6584 C   0  0  0  0  0  0  0  0  0  0  0  0
   -5.5215    2.5321    9.6233 C   0  0  0  0  0  0  0  0  0  0  0  0
   -6.8635    1.8605    9.5856 C   0  0  0  0  0  0  0  0  0  0  0  0
   -7.8686    2.9839    9.4888 N   0  0  0  0  0  0  0  0  0  0  0  0
  1  2  1  0  0  0  0
  2  3  1  0  0  0  0
  3  4  1  0  0  0  0
  4  5  1  0  0  0  0
  5  6  1  0  0  0  0
  6  7  1  0  0  0  0
  7  8  1  0  0  0  0
  8  9  1  0  0  0  0
  9 10  1  0  0  0  0
 10 11  1  0  0  0  0
 11 12  1  0  0  0  0
 12 13  1  0  0  0  0
 13 14  1  0  0  0  0
M  END
>  <CHROM.1>
69.22094233,-176.81413861,-171.10960444,-161.16804707,-171.83595109,-174.48182309
-170.24530782,-94.47794379,-151.91344623,-179.22501880,-177.50020716,-1.14490330
-0.50767199,10.11927691,0.58745076,0.05295567,3.03835175

>  <Name>
ligand

>  <RI>
0

>  <Rbt.Current_Directory>
/home/itssahil/PROJECTS/Mol_Feturizer/New_Systems/rnas/1FUF

>  <Rbt.Executable>
rbdock ($Id: //depot/dev/client3/rdock/2013.1/src/exe/rbdock.cxx#4 $)

>  <Rbt.Library>
libRbt.so (2013.1, Build901 2013/11/27)

>  <Rbt.Parameter_File>
/export/apps/rDock/src/rDock_2013.1_src/data/scripts/dock_solv.prm

>  <Rbt.Receptor>
prm/blind_docking_100.prm

>  <SCORE>
-4.53724

>  <SCORE.INTER>
-1.21836

>  <SCORE.INTER.CONST>
1

>  <SCORE.INTER.POLAR>
0

>  <SCORE.INTER.ROT>
11

>  <SCORE.INTER.SOLV>
15.8614

>  <SCORE.INTER.VDW>
-17.0327

>  <SCORE.INTER.norm>
-0.0870255

>  <SCORE.INTRA>
-3.31888

>  <SCORE.INTRA.DIHEDRAL>
-7.85734

>  <SCORE.INTRA.DIHEDRAL.0>
10.5765

>  <SCORE.INTRA.POLAR>
0

>  <SCORE.INTRA.POLAR.0>
0

>  <SCORE.INTRA.REPUL>
0

>  <SCORE.INTRA.REPUL.0>
0

>  <SCORE.INTRA.SOLV>
0.691917

>  <SCORE.INTRA.SOLV.lig_0>
-50.1861

>  <SCORE.INTRA.VDW>
0.263831

>  <SCORE.INTRA.VDW.0>
-1.36671

>  <SCORE.INTRA.norm>
-0.237063

>  <SCORE.RESTR>
0

>  <SCORE.RESTR.CAVITY>
0

>  <SCORE.RESTR.norm>
0

>  <SCORE.SYSTEM>
0

>  <SCORE.SYSTEM.CONST>
0

>  <SCORE.SYSTEM.DIHEDRAL>
0

>  <SCORE.SYSTEM.SOLV>
0

>  <SCORE.SYSTEM.norm>
0

>  <SCORE.heavy>
14

>  <SCORE.norm>
-0.324088

>  <RMSD>
1.937

$$$$
ligand
 OpenBabel11021811393D
libRbt.so/2013.1/901 2013/11/27
 14 13  0  0  0  0  0  0  0  0999 V2000
    4.1993   -7.1363    8.1521 N   0  0  0  0  0  0  0  0  0  0  0  0
    4.5122   -5.7509    8.7185 C   0  0  0  0  0  0  0  0  0  0  0  0
    4.1197   -5.8094   10.1500 C   0  0  0  0  0  0  0  0  0  0  0  0
    4.4515   -4.5585   10.9473 C   0  0  0  0  0  0  0  0  0  0  0  0
    3.6964   -3.4025   10.3945 N   0  0  0  0  0  0  0  0  0  0  0  0
    2.2749   -3.3919   10.9853 C   0  0  0  0  0  0  0  0  0  0  0  0
    1.7182   -1.9711   10.4920 C   0  0  0  0  0  0  0  0  0  0  0  0
    0.4565   -1.8592   10.8297 C   0  0  0  0  0  0  0  0  0  0  0  0
    0.2402   -0.3379   10.2637 C   0  0  0  0  0  0  0  0  0  0  0  0
   -1.2977   -0.2206   10.5327 N   0  0  0  0  0  0  0  0  0  0  0  0
   -1.8485    1.2564   10.4137 C   0  0  0  0  0  0  0  0  0  0  0  0
   -3.4697    1.1460   10.5786 C   0  0  0  0  0  0  0  0  0  0  0  0
   -3.9139    0.5185    9.2894 C   0  0  0  0  0  0  0  0  0  0  0  0
   -3.7169    1.5854    8.2383 N   0  0  0  0  0  0  0  0  0  0  0  0
  1  2  1  0  0  0  0
  2  3  1  0  0  0  0
  3  4  1  0  0  0  0
  4  5  1  0  0  0  0
  5  6  1  0  0  0  0
  6  7  1  0  0  0  0
  7  8  1  0  0  0  0
  8  9  1  0  0  0  0
  9 10  1  0  0  0  0
 10 11  1  0  0  0  0
 11 12  1  0  0  0  0
 12 13  1  0  0  0  0
 13 14  1  0  0  0  0
M  END
>  <CHROM.1>
175.27483563,62.69427375,83.20526663,170.48007373,174.80443888,177.55449772
175.04950348,166.89398254,174.53419260,-72.07699467,-70.72149696,0.81590212
-2.13793190,9.99925703,0.46931893,0.58928021,-2.29455898

>  <Name>
ligand

>  <RI>
0

>  <Rbt.Current_Directory>
/home/itssahil/PROJECTS/Mol_Feturizer/New_Systems/rnas/1FUF

>  <Rbt.Executable>
rbdock ($Id: //depot/dev/client3/rdock/2013.1/src/exe/rbdock.cxx#4 $)

>  <Rbt.Library>
libRbt.so (2013.1, Build901 2013/11/27)

>  <Rbt.Parameter_File>
/export/apps/rDock/src/rDock_2013.1_src/data/scripts/dock_solv.prm

>  <Rbt.Receptor>
prm/pocket_docking_4.prm

>  <SCORE>
-4.16593

>  <SCORE.INTER>
-1.65113

>  <SCORE.INTER.CONST>
1

>  <SCORE.INTER.POLAR>
0

>  <SCORE.INTER.ROT>
11

>  <SCORE.INTER.SOLV>
18.7935

>  <SCORE.INTER.VDW>
-18.2986

>  <SCORE.INTER.norm>
-0.117938

>  <SCORE.INTRA>
-2.51481

>  <SCORE.INTRA.DIHEDRAL>
-8.66475

>  <SCORE.INTRA.DIHEDRAL.0>
10.5765

>  <SCORE.INTRA.POLAR>
0

>  <SCORE.INTRA.POLAR.0>
0

>  <SCORE.INTRA.REPUL>
0

>  <SCORE.INTRA.REPUL.0>
0

>  <SCORE.INTRA.SOLV>
1.9865

>  <SCORE.INTRA.SOLV.lig_0>
-50.1861

>  <SCORE.INTRA.VDW>
0.824318

>  <SCORE.INTRA.VDW.0>
-1.36671

>  <SCORE.INTRA.norm>
-0.179629

>  <SCORE.RESTR>
0

>  <SCORE.RESTR.CAVITY>
0

>  <SCORE.RESTR.norm>
0

>  <SCORE.SYSTEM>
0

>  <SCORE.SYSTEM.CONST>
0

>  <SCORE.SYSTEM.DIHEDRAL>
0

>  <SCORE.SYSTEM.SOLV>
0

>  <SCORE.SYSTEM.norm>
0

>  <SCORE.heavy>
14

>  <SCORE.norm>
-0.297567

>  <RMSD>
1.937

$$$$
ligand
 OpenBabel11021811393D
libRbt.so/2013.1/901 2013/11/27
 14 13  0  0  0  0  0  0  0  0999 V2000
    4.9152   -6.5374    9.2450 N   0  0  0  0  0  0  0  0  0  0  0  0
    3.8909   -5.4407    9.5382 C   0  0  0  0  0  0  0  0  0  0  0  0
    3.0963   -5.9375   10.6907 C   0  0  0  0  0  0  0  0  0  0  0  0
    1.9518   -5.0281   11.1076 C   0  0  0  0  0  0  0  0  0  0  0  0
    2.4980   -3.7293   11.5841 N   0  0  0  0  0  0  0  0  0  0  0  0
    2.2885   -2.6585   10.4982 C   0  0  0  0  0  0  0  0  0  0  0  0
    1.0306   -1.8442   11.0697 C   0  0  0  0  0  0  0  0  0  0  0  0
    0.7006   -0.9034   10.2185 C   0  0  0  0  0  0  0  0  0  0  0  0
   -0.6305   -0.3807   11.0164 C   0  0  0  0  0  0  0  0  0  0  0  0
   -1.1172    0.6719    9.9645 N   0  0  0  0  0  0  0  0  0  0  0  0
   -2.2916    1.5914   10.4884 C   0  0  0  0  0  0  0  0  0  0  0  0
   -3.6430    0.6766   10.4204 C   0  0  0  0  0  0  0  0  0  0  0  0
   -3.8625    0.4797    8.9486 C   0  0  0  0  0  0  0  0  0  0  0  0
   -4.2802    1.8331    8.4235 N   0  0  0  0  0  0  0  0  0  0  0  0
  1  2  1  0  0  0  0
  2  3  1  0  0  0  0
  3  4  1  0  0  0  0
  4  5  1  0  0  0  0
  5  6  1  0  0  0  0
  6  7  1  0  0  0  0
  7  8  1  0  0  0  0
  8  9  1  0  0  0  0
  9 10  1  0  0  0  0
 10 11  1  0  0  0  0
 11 12  1  0  0  0  0
 12 13  1  0  0  0  0
 13 14  1  0  0  0  0
M  END
>  <CHROM.1>
-176.66260021,-63.79593491,103.95838451,102.54294288,-178.13515762,175.55056407
-175.69344663,-170.39998664,-76.80987284,-67.51283049,-70.00552383,0.32471138
-1.94337158,10.22972881,0.46487122,0.64420041,-2.36096254

>  <Name>
ligand

>  <RI>
0

>  <Rbt.Current_Directory>
/home/itssahil/PROJECTS/Mol_Feturizer/New_Systems/rnas/1FUF

>  <Rbt.Executable>
rbdock ($Id: //depot/dev/client3/rdock/2013.1/src/exe/rbdock.cxx#4 $)

>  <Rbt.Library>
libRbt.so (2013.1, Build901 2013/11/27)

>  <Rbt.Parameter_File>
/export/apps/rDock/src/rDock_2013.1_src/data/scripts/dock_solv.prm

>  <Rbt.Receptor>
prm/blind_docking_100.prm

>  <SCORE>
-4.76481

>  <SCORE.INTER>
-3.06175

>  <SCORE.INTER.CONST>
1

>  <SCORE.INTER.POLAR>
0

>  <SCORE.INTER.ROT>
11

>  <SCORE.INTER.SOLV>
15.8858

>  <SCORE.INTER.VDW>
-18.2698

>  <SCORE.INTER.norm>
-0.218697

>  <SCORE.INTRA>
-1.70306

>  <SCORE.INTRA.DIHEDRAL>
-7.47461

>  <SCORE.INTRA.DIHEDRAL.0>
10.5765

>  <SCORE.INTRA.POLAR>
0

>  <SCORE.INTRA.POLAR.0>
0

>  <SCORE.INTRA.REPUL>
0

>  <SCORE.INTRA.REPUL.0>
0

>  <SCORE.INTRA.SOLV>
2.12648

>  <SCORE.INTRA.SOLV.lig_0>
-50.1861

>  <SCORE.INTRA.VDW>
0.971013

>  <SCORE.INTRA.VDW.0>
-1.36671

>  <SCORE.INTRA.norm>
-0.121647

>  <SCORE.RESTR>
0

>  <SCORE.RESTR.CAVITY>
0

>  <SCORE.RESTR.norm>
0

>  <SCORE.SYSTEM>
0

>  <SCORE.SYSTEM.CONST>
0

>  <SCORE.SYSTEM.DIHEDRAL>
0

>  <SCORE.SYSTEM.SOLV>
0

>  <SCORE.SYSTEM.norm>
0

>  <SCORE.heavy>
14

>  <SCORE.norm>
-0.340344

>  <RMSD>
1.938

$$$$
ligand
 OpenBabel11021811393D
libRbt.so/2013.1/901 2013/11/27
 14 13  0  0  0  0  0  0  0  0999 V2000
   -7.6054    1.4509    9.3617 N   0  0  0  0  0  0  0  0  0  0  0  0
   -6.8066    2.6305    8.8062 C   0  0  0  0  0  0  0  0  0  0  0  0
   -5.4974    2.5884    9.5068 C   0  0  0  0  0  0  0  0  0  0  0  0
   -4.5792    1.4616    9.0622 C   0  0  0  0  0  0  0  0  0  0  0  0
   -3.2611    1.5994    9.7373 N   0  0  0  0  0  0  0  0  0  0  0  0
   -2.8678    0.2516   10.3687 C   0  0  0  0  0  0  0  0  0  0  0  0
   -1.2668    0.3438   10.3836 C   0  0  0  0  0  0  0  0  0  0  0  0
   -0.7711   -0.7965   10.7992 C   0  0  0  0  0  0  0  0  0  0  0  0
    0.7624   -0.5377   10.2861 C   0  0  0  0  0  0  0  0  0  0  0  0
    1.3007   -1.9977   10.4596 N   0  0  0  0  0  0  0  0  0  0  0  0
    2.4174   -2.1307   11.5707 C   0  0  0  0  0  0  0  0  0  0  0  0
    3.0872   -3.6054   11.3601 C   0  0  0  0  0  0  0  0  0  0  0  0
    3.7875   -3.4896   10.0375 C   0  0  0  0  0  0  0  0  0  0  0  0
    4.4504   -4.8293    9.8190 N   0  0  0  0  0  0  0  0  0  0  0  0
  1  2  1  0  0  0  0
  2  3  1  0  0  0  0
  3  4  1  0  0  0  0
  4  5  1  0  0  0  0
  5  6  1  0  0  0  0
  6  7  1  0  0  0  0
  7  8  1  0  0  0  0
  8  9  1  0  0  0  0
  9 10  1  0  0  0  0
 10 11  1  0  0  0  0
 11 12  1  0  0  0  0
 12 13  1  0  0  0  0
 13 14  1  0  0  0  0
M  END
>  <CHROM.1>
72.67622687,174.73553362,130.09067083,153.41054458,-174.75807077,164.27023905
-167.43857662,-114.19513751,-166.97732652,67.27583199,178.72568692,-1.20353263
-0.50417255,10.11145034,2.72108547,-0.35030446,0.42205267

>  <Name>
ligand

>  <RI>
0

>  <Rbt.Current_Directory>
/home/itssahil/PROJECTS/Mol_Feturizer/New_Systems/rnas/1FUF

>  <Rbt.Executable>
rbdock ($Id: //depot/dev/client3/rdock/2013.1/src/exe/rbdock.cxx#4 $)

>  <Rbt.Library>
libRbt.so (2013.1, Build901 2013/11/27)

>  <Rbt.Parameter_File>
/export/apps/rDock/src/rDock_2013.1_src/data/scripts/dock_solv.prm

>  <Rbt.Receptor>
prm/pocket_docking_2.prm

>  <SCORE>
-2.1459

>  <SCORE.INTER>
-0.394803

>  <SCORE.INTER.CONST>
1

>  <SCORE.INTER.POLAR>
0

>  <SCORE.INTER.ROT>
11

>  <SCORE.INTER.SOLV>
15.5062

>  <SCORE.INTER.VDW>
-16.3653

>  <SCORE.INTER.norm>
-0.0282002

>  <SCORE.INTRA>
-1.7511

>  <SCORE.INTRA.DIHEDRAL>
-5.1045

>  <SCORE.INTRA.DIHEDRAL.0>
10.5765

>  <SCORE.INTRA.POLAR>
0

>  <SCORE.INTRA.POLAR.0>
0

>  <SCORE.INTRA.REPUL>
0

>  <SCORE.INTRA.REPUL.0>
0

>  <SCORE.INTRA.SOLV>
1.0893

>  <SCORE.INTRA.SOLV.lig_0>
-50.1861

>  <SCORE.INTRA.VDW>
0.256504

>  <SCORE.INTRA.VDW.0>
-1.36671

>  <SCORE.INTRA.norm>
-0.125078

>  <SCORE.RESTR>
0

>  <SCORE.RESTR.CAVITY>
0

>  <SCORE.RESTR.norm>
0

>  <SCORE.SYSTEM>
0

>  <SCORE.SYSTEM.CONST>
0

>  <SCORE.SYSTEM.DIHEDRAL>
0

>  <SCORE.SYSTEM.SOLV>
0

>  <SCORE.SYSTEM.norm>
0

>  <SCORE.heavy>
14

>  <SCORE.norm>
-0.153279

>  <RMSD>
1.941

$$$$
ligand
 OpenBabel11021811393D
libRbt.so/2013.1/901 2013/11/27
 14 13  0  0  0  0  0  0  0  0999 V2000
    5.0833   -7.5547    8.8733 N   0  0  0  0  0  0  0  0  0  0  0  0
    4.0950   -6.8664    7.9312 C   0  0  0  0  0  0  0  0  0  0  0  0
    3.9781   -5.4716    8.4286 C   0  0  0  0  0  0  0  0  0  0  0  0
    3.3725   -5.3450    9.8170 C   0  0  0  0  0  0  0  0  0  0  0  0
    3.2034   -3.9066   10.1557 N   0  0  0  0  0  0  0  0  0  0  0  0
    1.7573   -3.6586   10.6217 C   0  0  0  0  0  0  0  0  0  0  0  0
    1.6231   -2.0683   10.4635 C   0  0  0  0  0  0  0  0  0  0  0  0
    0.3935   -1.7077   10.7404 C   0  0  0  0  0  0  0  0  0  0  0  0
    0.5917   -0.1087   10.4480 C   0  0  0  0  0  0  0  0  0  0  0  0
   -0.8584    0.3609   10.8060 N   0  0  0  0  0  0  0  0  0  0  0  0
   -1.7799    0.5840    9.5411 C   0  0  0  0  0  0  0  0  0  0  0  0
   -3.2028    1.1441   10.1150 C   0  0  0  0  0  0  0  0  0  0  0  0
   -4.0435    1.3024    8.8816 C   0  0  0  0  0  0  0  0  0  0  0  0
   -5.3939    1.7645    9.3763 N   0  0  0  0  0  0  0  0  0  0  0  0
  1  2  1  0  0  0  0
  2  3  1  0  0  0  0
  3  4  1  0  0  0  0
  4  5  1  0  0  0  0
  5  6  1  0  0  0  0
  6  7  1  0  0  0  0
  7  8  1  0  0  0  0
  8  9  1  0  0  0  0
  9 10  1  0  0  0  0
 10 11  1  0  0  0  0
 11 12  1  0  0  0  0
 12 13  1  0  0  0  0
 13 14  1  0  0  0  0
M  END
>  <CHROM.1>
-64.40471830,-175.30902761,128.49161912,-161.86379376,175.64785126,-178.42290376
-178.65373269,-99.78675515,-176.93168939,-178.58065574,177.63560667,0.63000832
-2.25224487,9.72850344,0.60322082,0.52436204,-2.41806908

>  <Name>
ligand

>  <RI>
0

>  <Rbt.Current_Directory>
/home/itssahil/PROJECTS/Mol_Feturizer/New_Systems/rnas/1FUF

>  <Rbt.Executable>
rbdock ($Id: //depot/dev/client3/rdock/2013.1/src/exe/rbdock.cxx#4 $)

>  <Rbt.Library>
libRbt.so (2013.1, Build901 2013/11/27)

>  <Rbt.Parameter_File>
/export/apps/rDock/src/rDock_2013.1_src/data/scripts/dock_solv.prm

>  <Rbt.Receptor>
prm/blind_docking_100.prm

>  <SCORE>
-6.1914

>  <SCORE.INTER>
-2.77228

>  <SCORE.INTER.CONST>
1

>  <SCORE.INTER.POLAR>
0

>  <SCORE.INTER.ROT>
11

>  <SCORE.INTER.SOLV>
16.0379

>  <SCORE.INTER.VDW>
-18.1275

>  <SCORE.INTER.norm>
-0.19802

>  <SCORE.INTRA>
-3.41913

>  <SCORE.INTRA.DIHEDRAL>
-8.00881

>  <SCORE.INTRA.DIHEDRAL.0>
10.5765

>  <SCORE.INTRA.POLAR>
0

>  <SCORE.INTRA.POLAR.0>
0

>  <SCORE.INTRA.REPUL>
0

>  <SCORE.INTRA.REPUL.0>
0

>  <SCORE.INTRA.SOLV>
0.709825

>  <SCORE.INTRA.SOLV.lig_0>
-50.1861

>  <SCORE.INTRA.VDW>
0.230366

>  <SCORE.INTRA.VDW.0>
-1.36671

>  <SCORE.INTRA.norm>
-0.244223

>  <SCORE.RESTR>
0

>  <SCORE.RESTR.CAVITY>
0

>  <SCORE.RESTR.norm>
0

>  <SCORE.SYSTEM>
0

>  <SCORE.SYSTEM.CONST>
0

>  <SCORE.SYSTEM.DIHEDRAL>
0

>  <SCORE.SYSTEM.SOLV>
0

>  <SCORE.SYSTEM.norm>
0

>  <SCORE.heavy>
14

>  <SCORE.norm>
-0.442243

>  <RMSD>
1.949

$$$$
ligand
 OpenBabel11021811393D
libRbt.so/2013.1/901 2013/11/27
 14 13  0  0  0  0  0  0  0  0999 V2000
   -5.0887    1.1799    9.0824 N   0  0  0  0  0  0  0  0  0  0  0  0
   -3.8294    1.6948    9.7803 C   0  0  0  0  0  0  0  0  0  0  0  0
   -2.9060    0.5328    9.8411 C   0  0  0  0  0  0  0  0  0  0  0  0
   -1.5192    0.8555   10.3734 C   0  0  0  0  0  0  0  0  0  0  0  0
   -0.7161   -0.3937   10.4563 N   0  0  0  0  0  0  0  0  0  0  0  0
    0.6185   -0.0963   11.1635 C   0  0  0  0  0  0  0  0  0  0  0  0
    1.1703   -1.5706   11.4700 C   0  0  0  0  0  0  0  0  0  0  0  0
    1.7951   -2.0278   10.4120 C   0  0  0  0  0  0  0  0  0  0  0  0
    2.5353   -3.2857   11.1547 C   0  0  0  0  0  0  0  0  0  0  0  0
    3.4597   -3.7262    9.9703 N   0  0  0  0  0  0  0  0  0  0  0  0
    4.6162   -4.7123   10.4053 C   0  0  0  0  0  0  0  0  0  0  0  0
    3.9685   -6.2111   10.3621 C   0  0  0  0  0  0  0  0  0  0  0  0
    3.7916   -6.4773    8.8955 C   0  0  0  0  0  0  0  0  0  0  0  0
    5.1832   -6.7324    8.3662 N   0  0  0  0  0  0  0  0  0  0  0  0
  1  2  1  0  0  0  0
  2  3  1  0  0  0  0
  3  4  1  0  0  0  0
  4  5  1  0  0  0  0
  5  6  1  0  0  0  0
  6  7  1  0  0  0  0
  7  8  1  0  0  0  0
  8  9  1  0  0  0  0
  9 10  1  0  0  0  0
 10 11  1  0  0  0  0
 11 12  1  0  0  0  0
 12 13  1  0  0  0  0
 13 14  1  0  0  0  0
M  END
>  <CHROM.1>
173.94739142,176.92652644,-172.72021729,167.08551014,84.16000812,166.01929517
-171.91242206,165.46227496,85.71751485,70.68124204,73.69571609,0.93430361
-2.21207874,10.12405661,2.57184668,-0.49136955,0.67410407

>  <Name>
ligand

>  <RI>
0

>  <Rbt.Current_Directory>
/home/itssahil/PROJECTS/Mol_Feturizer/New_Systems/rnas/1FUF

>  <Rbt.Executable>
rbdock ($Id: //depot/dev/client3/rdock/2013.1/src/exe/rbdock.cxx#4 $)

>  <Rbt.Library>
libRbt.so (2013.1, Build901 2013/11/27)

>  <Rbt.Parameter_File>
/export/apps/rDock/src/rDock_2013.1_src/data/scripts/dock_solv.prm

>  <Rbt.Receptor>
prm/pocket_docking_4.prm

>  <SCORE>
-4.00107

>  <SCORE.INTER>
-2.71232

>  <SCORE.INTER.CONST>
1

>  <SCORE.INTER.POLAR>
0

>  <SCORE.INTER.ROT>
11

>  <SCORE.INTER.SOLV>
14.9428

>  <SCORE.INTER.VDW>
-17.7225

>  <SCORE.INTER.norm>
-0.193737

>  <SCORE.INTRA>
-1.28875

>  <SCORE.INTRA.DIHEDRAL>
-5.539

>  <SCORE.INTRA.DIHEDRAL.0>
10.5765

>  <SCORE.INTRA.POLAR>
0

>  <SCORE.INTRA.POLAR.0>
0

>  <SCORE.INTRA.REPUL>
0

>  <SCORE.INTRA.REPUL.0>
0

>  <SCORE.INTRA.SOLV>
1.90185

>  <SCORE.INTRA.SOLV.lig_0>
-50.1861

>  <SCORE.INTRA.VDW>
0.529831

>  <SCORE.INTRA.VDW.0>
-1.36671

>  <SCORE.INTRA.norm>
-0.0920533

>  <SCORE.RESTR>
0

>  <SCORE.RESTR.CAVITY>
0

>  <SCORE.RESTR.norm>
0

>  <SCORE.SYSTEM>
0

>  <SCORE.SYSTEM.CONST>
0

>  <SCORE.SYSTEM.DIHEDRAL>
0

>  <SCORE.SYSTEM.SOLV>
0

>  <SCORE.SYSTEM.norm>
0

>  <SCORE.heavy>
14

>  <SCORE.norm>
-0.285791

>  <RMSD>
1.952

$$$$
ligand
 OpenBabel11021811393D
libRbt.so/2013.1/901 2013/11/27
 14 13  0  0  0  0  0  0  0  0999 V2000
    4.0996   -7.0966    8.3028 N   0  0  0  0  0  0  0  0  0  0  0  0
    4.0221   -5.6596    8.8193 C   0  0  0  0  0  0  0  0  0  0  0  0
    4.4593   -5.7234   10.2375 C   0  0  0  0  0  0  0  0  0  0  0  0
    4.4660   -4.3845   10.9571 C   0  0  0  0  0  0  0  0  0  0  0  0
    3.0691   -3.8983   11.1143 N   0  0  0  0  0  0  0  0  0  0  0  0
    2.9355   -2.5103   10.4622 C   0  0  0  0  0  0  0  0  0  0  0  0
    1.4539   -2.0775   10.8975 C   0  0  0  0  0  0  0  0  0  0  0  0
    1.1221   -0.9759   10.2690 C   0  0  0  0  0  0  0  0  0  0  0  0
   -0.3720   -0.8247   10.9220 C   0  0  0  0  0  0  0  0  0  0  0  0
   -0.9173    0.2889    9.9659 N   0  0  0  0  0  0  0  0  0  0  0  0
   -1.9777    1.2426   10.6479 C   0  0  0  0  0  0  0  0  0  0  0  0
   -2.7733    1.9771    9.4250 C   0  0  0  0  0  0  0  0  0  0  0  0
   -3.6754    0.9013    8.8940 C   0  0  0  0  0  0  0  0  0  0  0  0
   -4.8306    0.8349    9.8649 N   0  0  0  0  0  0  0  0  0  0  0  0
  1  2  1  0  0  0  0
  2  3  1  0  0  0  0
  3  4  1  0  0  0  0
  4  5  1  0  0  0  0
  5  6  1  0  0  0  0
  6  7  1  0  0  0  0
  7  8  1  0  0  0  0
  8  9  1  0  0  0  0
  9 10  1  0  0  0  0
 10 11  1  0  0  0  0
 11 12  1  0  0  0  0
 12 13  1  0  0  0  0
 13 14  1  0  0  0  0
M  END
>  <CHROM.1>
179.72328637,67.49259209,-122.86669220,-172.77708148,-171.88505530,-179.79072456
-168.07941641,-149.71267852,-161.68331026,74.70420966,78.26933154,0.79169172
-1.99310209,10.05577909,0.56471442,0.50363160,-2.48907908

>  <Name>
ligand

>  <RI>
0

>  <Rbt.Current_Directory>
/home/itssahil/PROJECTS/Mol_Feturizer/New_Systems/rnas/1FUF

>  <Rbt.Executable>
rbdock ($Id: //depot/dev/client3/rdock/2013.1/src/exe/rbdock.cxx#4 $)

>  <Rbt.Library>
libRbt.so (2013.1, Build901 2013/11/27)

>  <Rbt.Parameter_File>
/export/apps/rDock/src/rDock_2013.1_src/data/scripts/dock_solv.prm

>  <Rbt.Receptor>
prm/blind_docking_80.prm

>  <SCORE>
-3.19535

>  <SCORE.INTER>
-1.43039

>  <SCORE.INTER.CONST>
1

>  <SCORE.INTER.POLAR>
0

>  <SCORE.INTER.ROT>
11

>  <SCORE.INTER.SOLV>
19.5394

>  <SCORE.INTER.VDW>
-18.4001

>  <SCORE.INTER.norm>
-0.102171

>  <SCORE.INTRA>
-1.76496

>  <SCORE.INTRA.DIHEDRAL>
-5.55265

>  <SCORE.INTRA.DIHEDRAL.0>
10.5765

>  <SCORE.INTRA.POLAR>
0

>  <SCORE.INTRA.POLAR.0>
0

>  <SCORE.INTRA.REPUL>
0

>  <SCORE.INTRA.REPUL.0>
0

>  <SCORE.INTRA.SOLV>
1.7154

>  <SCORE.INTRA.SOLV.lig_0>
-50.1861

>  <SCORE.INTRA.VDW>
0.153659

>  <SCORE.INTRA.VDW.0>
-1.36671

>  <SCORE.INTRA.norm>
-0.126069

>  <SCORE.RESTR>
0

>  <SCORE.RESTR.CAVITY>
0

>  <SCORE.RESTR.norm>
0

>  <SCORE.SYSTEM>
0

>  <SCORE.SYSTEM.CONST>
0

>  <SCORE.SYSTEM.DIHEDRAL>
0

>  <SCORE.SYSTEM.SOLV>
0

>  <SCORE.SYSTEM.norm>
0

>  <SCORE.heavy>
14

>  <SCORE.norm>
-0.22824

>  <RMSD>
1.955

$$$$
ligand
 OpenBabel11021811393D
libRbt.so/2013.1/901 2013/11/27
 14 13  0  0  0  0  0  0  0  0999 V2000
   -4.6744    1.9988    9.6394 N   0  0  0  0  0  0  0  0  0  0  0  0
   -3.9023    1.8539    8.3277 C   0  0  0  0  0  0  0  0  0  0  0  0
   -2.4736    1.7411    8.7184 C   0  0  0  0  0  0  0  0  0  0  0  0
   -2.1541    0.5498    9.6069 C   0  0  0  0  0  0  0  0  0  0  0  0
   -0.6850    0.4738    9.8264 N   0  0  0  0  0  0  0  0  0  0  0  0
   -0.3770   -0.6482   10.8343 C   0  0  0  0  0  0  0  0  0  0  0  0
    1.0964   -1.1006   10.3912 C   0  0  0  0  0  0  0  0  0  0  0  0
    1.5072   -2.0671   11.1760 C   0  0  0  0  0  0  0  0  0  0  0  0
    2.8979   -2.3884   10.3733 C   0  0  0  0  0  0  0  0  0  0  0  0
    3.3656   -3.6144   11.2275 N   0  0  0  0  0  0  0  0  0  0  0  0
    4.3584   -4.5762   10.4605 C   0  0  0  0  0  0  0  0  0  0  0  0
    3.4695   -5.8683   10.0042 C   0  0  0  0  0  0  0  0  0  0  0  0
    4.4769   -6.7847    9.3728 C   0  0  0  0  0  0  0  0  0  0  0  0
    4.8979   -6.0952    8.0964 N   0  0  0  0  0  0  0  0  0  0  0  0
  1  2  1  0  0  0  0
  2  3  1  0  0  0  0
  3  4  1  0  0  0  0
  4  5  1  0  0  0  0
  5  6  1  0  0  0  0
  6  7  1  0  0  0  0
  7  8  1  0  0  0  0
  8  9  1  0  0  0  0
  9 10  1  0  0  0  0
 10 11  1  0  0  0  0
 11 12  1  0  0  0  0
 12 13  1  0  0  0  0
 13 14  1  0  0  0  0
M  END
>  <CHROM.1>
60.46828599,174.86052201,174.55455450,151.63975338,179.75794593,174.04741976
-176.07863355,156.84995649,-102.75232103,-176.09547196,-68.81864166,0.84313999
-1.89473576,9.86114915,2.76779817,-0.67839683,0.94360489

>  <Name>
ligand

>  <RI>
0

>  <Rbt.Current_Directory>
/home/itssahil/PROJECTS/Mol_Feturizer/New_Systems/rnas/1FUF

>  <Rbt.Executable>
rbdock ($Id: //depot/dev/client3/rdock/2013.1/src/exe/rbdock.cxx#4 $)

>  <Rbt.Library>
libRbt.so (2013.1, Build901 2013/11/27)

>  <Rbt.Parameter_File>
/export/apps/rDock/src/rDock_2013.1_src/data/scripts/dock_solv.prm

>  <Rbt.Receptor>
prm/blind_docking_80.prm

>  <SCORE>
-4.62787

>  <SCORE.INTER>
-2.10806

>  <SCORE.INTER.CONST>
1

>  <SCORE.INTER.POLAR>
0

>  <SCORE.INTER.ROT>
11

>  <SCORE.INTER.SOLV>
16.259

>  <SCORE.INTER.VDW>
-17.7584

>  <SCORE.INTER.norm>
-0.150575

>  <SCORE.INTRA>
-2.51982

>  <SCORE.INTRA.DIHEDRAL>
-7.9905

>  <SCORE.INTRA.DIHEDRAL.0>
10.5765

>  <SCORE.INTRA.POLAR>
0

>  <SCORE.INTRA.POLAR.0>
0

>  <SCORE.INTRA.REPUL>
0

>  <SCORE.INTRA.REPUL.0>
0

>  <SCORE.INTRA.SOLV>
1.727

>  <SCORE.INTRA.SOLV.lig_0>
-50.1861

>  <SCORE.INTRA.VDW>
0.611934

>  <SCORE.INTRA.VDW.0>
-1.36671

>  <SCORE.INTRA.norm>
-0.179987

>  <SCORE.RESTR>
0

>  <SCORE.RESTR.CAVITY>
0

>  <SCORE.RESTR.norm>
0

>  <SCORE.SYSTEM>
0

>  <SCORE.SYSTEM.CONST>
0

>  <SCORE.SYSTEM.DIHEDRAL>
0

>  <SCORE.SYSTEM.SOLV>
0

>  <SCORE.SYSTEM.norm>
0

>  <SCORE.heavy>
14

>  <SCORE.norm>
-0.330562

>  <RMSD>
1.957

$$$$
ligand
 OpenBabel11021811393D
libRbt.so/2013.1/901 2013/11/27
 14 13  0  0  0  0  0  0  0  0999 V2000
    5.4741   -6.9486    7.9819 N   0  0  0  0  0  0  0  0  0  0  0  0
    4.2844   -6.2599    8.6514 C   0  0  0  0  0  0  0  0  0  0  0  0
    4.6437   -6.1554   10.0889 C   0  0  0  0  0  0  0  0  0  0  0  0
    3.5828   -5.5009   10.9590 C   0  0  0  0  0  0  0  0  0  0  0  0
    3.4117   -4.0812   10.5499 N   0  0  0  0  0  0  0  0  0  0  0  0
    2.4359   -3.3857   11.5163 C   0  0  0  0  0  0  0  0  0  0  0  0
    1.8777   -2.1802   10.6180 C   0  0  0  0  0  0  0  0  0  0  0  0
    0.9210   -1.5628   11.2676 C   0  0  0  0  0  0  0  0  0  0  0  0
    0.4887   -0.5496   10.0559 C   0  0  0  0  0  0  0  0  0  0  0  0
   -0.7687    0.0854   10.7394 N   0  0  0  0  0  0  0  0  0  0  0  0
   -1.8308    0.6454    9.7110 C   0  0  0  0  0  0  0  0  0  0  0  0
   -2.8812    1.5354   10.5899 C   0  0  0  0  0  0  0  0  0  0  0  0
   -3.8114    2.1043    9.5584 C   0  0  0  0  0  0  0  0  0  0  0  0
   -4.7160    0.9606    9.1636 N   0  0  0  0  0  0  0  0  0  0  0  0
  1  2  1  0  0  0  0
  2  3  1  0  0  0  0
  3  4  1  0  0  0  0
  4  5  1  0  0  0  0
  5  6  1  0  0  0  0
  6  7  1  0  0  0  0
  7  8  1  0  0  0  0
  8  9  1  0  0  0  0
  9 10  1  0  0  0  0
 10 11  1  0  0  0  0
 11 12  1  0  0  0  0
 12 13  1  0  0  0  0
 13 14  1  0  0  0  0
M  END
>  <CHROM.1>
-179.56919992,-64.77300809,-174.69606892,-155.93080724,173.73689470,-174.30739334
173.50495730,-154.88762027,-168.09741107,176.76287008,75.79326728,0.93661654
-2.23513667,10.10386700,0.39341100,0.67192885,-2.11604746

>  <Name>
ligand

>  <RI>
0

>  <Rbt.Current_Directory>
/home/itssahil/PROJECTS/Mol_Feturizer/New_Systems/rnas/1FUF

>  <Rbt.Executable>
rbdock ($Id: //depot/dev/client3/rdock/2013.1/src/exe/rbdock.cxx#4 $)

>  <Rbt.Library>
libRbt.so (2013.1, Build901 2013/11/27)

>  <Rbt.Parameter_File>
/export/apps/rDock/src/rDock_2013.1_src/data/scripts/dock_solv.prm

>  <Rbt.Receptor>
prm/pocket_docking_4.prm

>  <SCORE>
-5.75861

>  <SCORE.INTER>
-2.46516

>  <SCORE.INTER.CONST>
1

>  <SCORE.INTER.POLAR>
0

>  <SCORE.INTER.ROT>
11

>  <SCORE.INTER.SOLV>
15.285

>  <SCORE.INTER.VDW>
-17.6718

>  <SCORE.INTER.norm>
-0.176083

>  <SCORE.INTRA>
-3.29345

>  <SCORE.INTRA.DIHEDRAL>
-8.11872

>  <SCORE.INTRA.DIHEDRAL.0>
10.5765

>  <SCORE.INTRA.POLAR>
0

>  <SCORE.INTRA.POLAR.0>
0

>  <SCORE.INTRA.REPUL>
0

>  <SCORE.INTRA.REPUL.0>
0

>  <SCORE.INTRA.SOLV>
1.01021

>  <SCORE.INTRA.SOLV.lig_0>
-50.1861

>  <SCORE.INTRA.VDW>
0.260805

>  <SCORE.INTRA.VDW.0>
-1.36671

>  <SCORE.INTRA.norm>
-0.235246

>  <SCORE.RESTR>
0

>  <SCORE.RESTR.CAVITY>
0

>  <SCORE.RESTR.norm>
0

>  <SCORE.SYSTEM>
0

>  <SCORE.SYSTEM.CONST>
0

>  <SCORE.SYSTEM.DIHEDRAL>
0

>  <SCORE.SYSTEM.SOLV>
0

>  <SCORE.SYSTEM.norm>
0

>  <SCORE.heavy>
14

>  <SCORE.norm>
-0.411329

>  <RMSD>
1.960

$$$$
ligand
 OpenBabel11021811393D
libRbt.so/2013.1/901 2013/11/27
 14 13  0  0  0  0  0  0  0  0999 V2000
    4.7452   -6.6361    9.0908 N   0  0  0  0  0  0  0  0  0  0  0  0
    4.0869   -5.7815   10.1745 C   0  0  0  0  0  0  0  0  0  0  0  0
    2.7438   -6.3787   10.3896 C   0  0  0  0  0  0  0  0  0  0  0  0
    1.8630   -5.6166   11.3662 C   0  0  0  0  0  0  0  0  0  0  0  0
    1.4863   -4.3045   10.7755 N   0  0  0  0  0  0  0  0  0  0  0  0
    2.3070   -3.1883   11.4467 C   0  0  0  0  0  0  0  0  0  0  0  0
    1.7220   -1.8725   10.7407 C   0  0  0  0  0  0  0  0  0  0  0  0
    0.4672   -1.7167   11.0869 C   0  0  0  0  0  0  0  0  0  0  0  0
    0.2001   -0.3470   10.2299 C   0  0  0  0  0  0  0  0  0  0  0  0
   -1.3125   -0.1569   10.5865 N   0  0  0  0  0  0  0  0  0  0  0  0
   -2.0268    0.9640    9.7305 C   0  0  0  0  0  0  0  0  0  0  0  0
   -3.6297    0.7544    9.9640 C   0  0  0  0  0  0  0  0  0  0  0  0
   -4.2541    1.7986    9.0847 C   0  0  0  0  0  0  0  0  0  0  0  0
   -5.7424    1.6699    9.3086 N   0  0  0  0  0  0  0  0  0  0  0  0
  1  2  1  0  0  0  0
  2  3  1  0  0  0  0
  3  4  1  0  0  0  0
  4  5  1  0  0  0  0
  5  6  1  0  0  0  0
  6  7  1  0  0  0  0
  7  8  1  0  0  0  0
  8  9  1  0  0  0  0
  9 10  1  0  0  0  0
 10 11  1  0  0  0  0
 11 12  1  0  0  0  0
 12 13  1  0  0  0  0
 13 14  1  0  0  0  0
M  END
>  <CHROM.1>
-175.67146565,67.95522454,-104.59632533,-177.47669640,65.84198034,179.94880563
178.27701383,-170.05887063,166.00213815,-177.52988877,-178.09730391,0.18986353
-2.20078885,10.28407050,0.73404852,0.27609701,-2.95111984

>  <Name>
ligand

>  <RI>
0

>  <Rbt.Current_Directory>
/home/itssahil/PROJECTS/Mol_Feturizer/New_Systems/rnas/1FUF

>  <Rbt.Executable>
rbdock ($Id: //depot/dev/client3/rdock/2013.1/src/exe/rbdock.cxx#4 $)

>  <Rbt.Library>
libRbt.so (2013.1, Build901 2013/11/27)

>  <Rbt.Parameter_File>
/export/apps/rDock/src/rDock_2013.1_src/data/scripts/dock_solv.prm

>  <Rbt.Receptor>
prm/pocket_docking_8.prm

>  <SCORE>
-6.87157

>  <SCORE.INTER>
-3.42359

>  <SCORE.INTER.CONST>
1

>  <SCORE.INTER.POLAR>
0

>  <SCORE.INTER.ROT>
11

>  <SCORE.INTER.SOLV>
16.2018

>  <SCORE.INTER.VDW>
-18.6163

>  <SCORE.INTER.norm>
-0.244542

>  <SCORE.INTRA>
-3.44797

>  <SCORE.INTRA.DIHEDRAL>
-8.83985

>  <SCORE.INTRA.DIHEDRAL.0>
10.5765

>  <SCORE.INTRA.POLAR>
0

>  <SCORE.INTRA.POLAR.0>
0

>  <SCORE.INTRA.REPUL>
0

>  <SCORE.INTRA.REPUL.0>
0

>  <SCORE.INTRA.SOLV>
0.672206

>  <SCORE.INTRA.SOLV.lig_0>
-50.1861

>  <SCORE.INTRA.VDW>
0.635845

>  <SCORE.INTRA.VDW.0>
-1.36671

>  <SCORE.INTRA.norm>
-0.246284

>  <SCORE.RESTR>
0

>  <SCORE.RESTR.CAVITY>
0

>  <SCORE.RESTR.norm>
0

>  <SCORE.SYSTEM>
0

>  <SCORE.SYSTEM.CONST>
0

>  <SCORE.SYSTEM.DIHEDRAL>
0

>  <SCORE.SYSTEM.SOLV>
0

>  <SCORE.SYSTEM.norm>
0

>  <SCORE.heavy>
14

>  <SCORE.norm>
-0.490826

>  <RMSD>
1.961

$$$$
ligand
 OpenBabel11021811393D
libRbt.so/2013.1/901 2013/11/27
 14 13  0  0  0  0  0  0  0  0999 V2000
    4.7861   -3.6410    9.7777 N   0  0  0  0  0  0  0  0  0  0  0  0
    3.3543   -3.8857    9.2999 C   0  0  0  0  0  0  0  0  0  0  0  0
    2.5206   -3.8880   10.5294 C   0  0  0  0  0  0  0  0  0  0  0  0
    2.4265   -2.5429   11.2310 C   0  0  0  0  0  0  0  0  0  0  0  0
    1.6572   -1.5933   10.3832 N   0  0  0  0  0  0  0  0  0  0  0  0
    0.5377   -0.9514   11.2226 C   0  0  0  0  0  0  0  0  0  0  0  0
   -0.3668   -0.2544   10.0966 C   0  0  0  0  0  0  0  0  0  0  0  0
   -1.4338    0.2620   10.6565 C   0  0  0  0  0  0  0  0  0  0  0  0
   -2.1311    0.8042    9.2776 C   0  0  0  0  0  0  0  0  0  0  0  0
   -3.4387    1.3898    9.9088 N   0  0  0  0  0  0  0  0  0  0  0  0
   -4.3680    2.1280    8.8645 C   0  0  0  0  0  0  0  0  0  0  0  0
   -5.5673    2.8134    9.7362 C   0  0  0  0  0  0  0  0  0  0  0  0
   -6.3844    3.5364    8.7052 C   0  0  0  0  0  0  0  0  0  0  0  0
   -7.1821    2.4622    8.0041 N   0  0  0  0  0  0  0  0  0  0  0  0
  1  2  1  0  0  0  0
  2  3  1  0  0  0  0
  3  4  1  0  0  0  0
  4  5  1  0  0  0  0
  5  6  1  0  0  0  0
  6  7  1  0  0  0  0
  7  8  1  0  0  0  0
  8  9  1  0  0  0  0
  9 10  1  0  0  0  0
 10 11  1  0  0  0  0
 11 12  1  0  0  0  0
 12 13  1  0  0  0  0
 13 14  1  0  0  0  0
M  END
>  <CHROM.1>
67.25652266,68.00358665,128.61767679,-167.34002365,175.38376977,-177.63933887
178.26356898,175.73654918,-173.34862821,178.03187348,76.40551440,-1.11359595
-0.24000487,9.83537184,0.13895695,0.58068991,-2.04713023

>  <Name>
ligand

>  <RI>
0

>  <Rbt.Current_Directory>
/home/itssahil/PROJECTS/Mol_Feturizer/New_Systems/rnas/1FUF

>  <Rbt.Executable>
rbdock ($Id: //depot/dev/client3/rdock/2013.1/src/exe/rbdock.cxx#4 $)

>  <Rbt.Library>
libRbt.so (2013.1, Build901 2013/11/27)

>  <Rbt.Parameter_File>
/export/apps/rDock/src/rDock_2013.1_src/data/scripts/dock_solv.prm

>  <Rbt.Receptor>
prm/blind_docking_60.prm

>  <SCORE>
-3.16096

>  <SCORE.INTER>
-0.834207

>  <SCORE.INTER.CONST>
1

>  <SCORE.INTER.POLAR>
0

>  <SCORE.INTER.ROT>
11

>  <SCORE.INTER.SOLV>
16.2224

>  <SCORE.INTER.VDW>
-16.8969

>  <SCORE.INTER.norm>
-0.0595862

>  <SCORE.INTRA>
-2.32676

>  <SCORE.INTRA.DIHEDRAL>
-7.73611

>  <SCORE.INTRA.DIHEDRAL.0>
10.5765

>  <SCORE.INTRA.POLAR>
0

>  <SCORE.INTRA.POLAR.0>
0

>  <SCORE.INTRA.REPUL>
0

>  <SCORE.INTRA.REPUL.0>
0

>  <SCORE.INTRA.SOLV>
2.31066

>  <SCORE.INTRA.SOLV.lig_0>
-50.1861

>  <SCORE.INTRA.VDW>
0.385966

>  <SCORE.INTRA.VDW.0>
-1.36671

>  <SCORE.INTRA.norm>
-0.166197

>  <SCORE.RESTR>
0

>  <SCORE.RESTR.CAVITY>
0

>  <SCORE.RESTR.norm>
0

>  <SCORE.SYSTEM>
0

>  <SCORE.SYSTEM.CONST>
0

>  <SCORE.SYSTEM.DIHEDRAL>
0

>  <SCORE.SYSTEM.SOLV>
0

>  <SCORE.SYSTEM.norm>
0

>  <SCORE.heavy>
14

>  <SCORE.norm>
-0.225783

>  <RMSD>
1.962

$$$$
ligand
 OpenBabel11021811393D
libRbt.so/2013.1/901 2013/11/27
 14 13  0  0  0  0  0  0  0  0999 V2000
   -4.8349    1.1079   10.2565 N   0  0  0  0  0  0  0  0  0  0  0  0
   -3.9566    0.3737    9.2427 C   0  0  0  0  0  0  0  0  0  0  0  0
   -2.6935    1.1525    9.1743 C   0  0  0  0  0  0  0  0  0  0  0  0
   -1.8403    1.0835   10.4304 C   0  0  0  0  0  0  0  0  0  0  0  0
   -1.3675   -0.3120   10.6335 N   0  0  0  0  0  0  0  0  0  0  0  0
    0.1691   -0.3218   10.7254 C   0  0  0  0  0  0  0  0  0  0  0  0
    0.4986   -1.8895   10.6505 C   0  0  0  0  0  0  0  0  0  0  0  0
    1.7976   -2.0616   10.6905 C   0  0  0  0  0  0  0  0  0  0  0  0
    1.7805   -3.6916   10.5340 C   0  0  0  0  0  0  0  0  0  0  0  0
    3.3264   -3.9333   10.5906 N   0  0  0  0  0  0  0  0  0  0  0  0
    3.7468   -5.4157   10.2370 C   0  0  0  0  0  0  0  0  0  0  0  0
    3.8948   -5.4651    8.6111 C   0  0  0  0  0  0  0  0  0  0  0  0
    4.1499   -6.9161    8.3237 C   0  0  0  0  0  0  0  0  0  0  0  0
    5.5471   -7.1833    8.8321 N   0  0  0  0  0  0  0  0  0  0  0  0
  1  2  1  0  0  0  0
  2  3  1  0  0  0  0
  3  4  1  0  0  0  0
  4  5  1  0  0  0  0
  5  6  1  0  0  0  0
  6  7  1  0  0  0  0
  7  8  1  0  0  0  0
  8  9  1  0  0  0  0
  9 10  1  0  0  0  0
 10 11  1  0  0  0  0
 11 12  1  0  0  0  0
 12 13  1  0  0  0  0
 13 14  1  0  0  0  0
M  END
>  <CHROM.1>
68.96227425,64.69028439,124.15129792,-169.40496714,178.72105580,-177.72017667
-179.54546610,-170.77819569,86.64473858,-174.25548610,-70.82823764,0.72987579
-2.39080339,9.92366955,2.55352486,-0.49625271,0.73072897

>  <Name>
ligand

>  <RI>
0

>  <Rbt.Current_Directory>
/home/itssahil/PROJECTS/Mol_Feturizer/New_Systems/rnas/1FUF

>  <Rbt.Executable>
rbdock ($Id: //depot/dev/client3/rdock/2013.1/src/exe/rbdock.cxx#4 $)

>  <Rbt.Library>
libRbt.so (2013.1, Build901 2013/11/27)

>  <Rbt.Parameter_File>
/export/apps/rDock/src/rDock_2013.1_src/data/scripts/dock_solv.prm

>  <Rbt.Receptor>
prm/blind_docking_100.prm

>  <SCORE>
-4.93919

>  <SCORE.INTER>
-2.84277

>  <SCORE.INTER.CONST>
1

>  <SCORE.INTER.POLAR>
0

>  <SCORE.INTER.ROT>
11

>  <SCORE.INTER.SOLV>
16.9515

>  <SCORE.INTER.VDW>
-18.479

>  <SCORE.INTER.norm>
-0.203055

>  <SCORE.INTRA>
-2.09641

>  <SCORE.INTRA.DIHEDRAL>
-7.77122

>  <SCORE.INTRA.DIHEDRAL.0>
10.5765

>  <SCORE.INTRA.POLAR>
0

>  <SCORE.INTRA.POLAR.0>
0

>  <SCORE.INTRA.REPUL>
0

>  <SCORE.INTRA.REPUL.0>
0

>  <SCORE.INTRA.SOLV>
2.42769

>  <SCORE.INTRA.SOLV.lig_0>
-50.1861

>  <SCORE.INTRA.VDW>
0.575351

>  <SCORE.INTRA.VDW.0>
-1.36671

>  <SCORE.INTRA.norm>
-0.149744

>  <SCORE.RESTR>
0

>  <SCORE.RESTR.CAVITY>
0

>  <SCORE.RESTR.norm>
0

>  <SCORE.SYSTEM>
0

>  <SCORE.SYSTEM.CONST>
0

>  <SCORE.SYSTEM.DIHEDRAL>
0

>  <SCORE.SYSTEM.SOLV>
0

>  <SCORE.SYSTEM.norm>
0

>  <SCORE.heavy>
14

>  <SCORE.norm>
-0.352799

>  <RMSD>
1.963

$$$$
ligand
 OpenBabel11021811393D
libRbt.so/2013.1/901 2013/11/27
 14 13  0  0  0  0  0  0  0  0999 V2000
    3.6123   -5.3003   10.1386 N   0  0  0  0  0  0  0  0  0  0  0  0
    4.4264   -4.1213   10.6727 C   0  0  0  0  0  0  0  0  0  0  0  0
    3.7254   -2.9038   10.1900 C   0  0  0  0  0  0  0  0  0  0  0  0
    2.3355   -2.7029   10.7717 C   0  0  0  0  0  0  0  0  0  0  0  0
    1.7438   -1.4531   10.2238 N   0  0  0  0  0  0  0  0  0  0  0  0
    0.4711   -1.1016   11.0152 C   0  0  0  0  0  0  0  0  0  0  0  0
   -0.3299   -0.1855    9.9706 C   0  0  0  0  0  0  0  0  0  0  0  0
   -1.4606    0.2000   10.5105 C   0  0  0  0  0  0  0  0  0  0  0  0
   -2.0523    0.9671    9.1902 C   0  0  0  0  0  0  0  0  0  0  0  0
   -3.4257    1.4149    9.7942 N   0  0  0  0  0  0  0  0  0  0  0  0
   -4.2900    2.2993    8.8094 C   0  0  0  0  0  0  0  0  0  0  0  0
   -5.7428    2.4870    9.5318 C   0  0  0  0  0  0  0  0  0  0  0  0
   -6.5284    3.2952    8.5404 C   0  0  0  0  0  0  0  0  0  0  0  0
   -7.9049    3.4394    9.1455 N   0  0  0  0  0  0  0  0  0  0  0  0
  1  2  1  0  0  0  0
  2  3  1  0  0  0  0
  3  4  1  0  0  0  0
  4  5  1  0  0  0  0
  5  6  1  0  0  0  0
  6  7  1  0  0  0  0
  7  8  1  0  0  0  0
  8  9  1  0  0  0  0
  9 10  1  0  0  0  0
 10 11  1  0  0  0  0
 11 12  1  0  0  0  0
 12 13  1  0  0  0  0
 13 14  1  0  0  0  0
M  END
>  <CHROM.1>
65.59340849,179.56417643,-168.75144971,-157.01626509,179.98694079,-175.49930894
178.78626579,176.38602050,172.46729241,-178.42933990,177.54260605,-1.10127586
-0.26174771,9.89323129,0.57058857,0.21855214,-3.02888004

>  <Name>
ligand

>  <RI>
0

>  <Rbt.Current_Directory>
/home/itssahil/PROJECTS/Mol_Feturizer/New_Systems/rnas/1FUF

>  <Rbt.Executable>
rbdock ($Id: //depot/dev/client3/rdock/2013.1/src/exe/rbdock.cxx#4 $)

>  <Rbt.Library>
libRbt.so (2013.1, Build901 2013/11/27)

>  <Rbt.Parameter_File>
/export/apps/rDock/src/rDock_2013.1_src/data/scripts/dock_solv.prm

>  <Rbt.Receptor>
prm/blind_docking_60.prm

>  <SCORE>
-6.09407

>  <SCORE.INTER>
-1.76054

>  <SCORE.INTER.CONST>
1

>  <SCORE.INTER.POLAR>
0

>  <SCORE.INTER.ROT>
11

>  <SCORE.INTER.SOLV>
15.2666

>  <SCORE.INTER.VDW>
-17.1959

>  <SCORE.INTER.norm>
-0.125753

>  <SCORE.INTRA>
-4.33353

>  <SCORE.INTRA.DIHEDRAL>
-9.79357

>  <SCORE.INTRA.DIHEDRAL.0>
10.5765

>  <SCORE.INTRA.POLAR>
0

>  <SCORE.INTRA.POLAR.0>
0

>  <SCORE.INTRA.REPUL>
0

>  <SCORE.INTRA.REPUL.0>
0

>  <SCORE.INTRA.SOLV>
0.716875

>  <SCORE.INTRA.SOLV.lig_0>
-50.1861

>  <SCORE.INTRA.VDW>
0.204813

>  <SCORE.INTRA.VDW.0>
-1.36671

>  <SCORE.INTRA.norm>
-0.309538

>  <SCORE.RESTR>
0

>  <SCORE.RESTR.CAVITY>
0

>  <SCORE.RESTR.norm>
0

>  <SCORE.SYSTEM>
0

>  <SCORE.SYSTEM.CONST>
0

>  <SCORE.SYSTEM.DIHEDRAL>
0

>  <SCORE.SYSTEM.SOLV>
0

>  <SCORE.SYSTEM.norm>
0

>  <SCORE.heavy>
14

>  <SCORE.norm>
-0.435291

>  <RMSD>
1.963

$$$$
ligand
 OpenBabel11021811393D
libRbt.so/2013.1/901 2013/11/27
 14 13  0  0  0  0  0  0  0  0999 V2000
   -5.2104    1.8170    9.4116 N   0  0  0  0  0  0  0  0  0  0  0  0
   -3.8962    1.3068    8.8194 C   0  0  0  0  0  0  0  0  0  0  0  0
   -3.0062    1.0595    9.9828 C   0  0  0  0  0  0  0  0  0  0  0  0
   -1.6132    0.5715    9.6196 C   0  0  0  0  0  0  0  0  0  0  0  0
   -0.8285    0.3403   10.8618 N   0  0  0  0  0  0  0  0  0  0  0  0
   -0.5986   -1.1706   11.0464 C   0  0  0  0  0  0  0  0  0  0  0  0
    0.9584   -1.3178   10.6912 C   0  0  0  0  0  0  0  0  0  0  0  0
    1.3038   -2.5798   10.7721 C   0  0  0  0  0  0  0  0  0  0  0  0
    2.8863   -2.3697   10.4075 C   0  0  0  0  0  0  0  0  0  0  0  0
    3.3595   -3.8460   10.6263 N   0  0  0  0  0  0  0  0  0  0  0  0
    3.6802   -4.6120    9.2811 C   0  0  0  0  0  0  0  0  0  0  0  0
    3.6661   -6.2019    9.6551 C   0  0  0  0  0  0  0  0  0  0  0  0
    3.9614   -6.8751    8.3464 C   0  0  0  0  0  0  0  0  0  0  0  0
    5.4309   -6.6315    8.0956 N   0  0  0  0  0  0  0  0  0  0  0  0
  1  2  1  0  0  0  0
  2  3  1  0  0  0  0
  3  4  1  0  0  0  0
  4  5  1  0  0  0  0
  5  6  1  0  0  0  0
  6  7  1  0  0  0  0
  7  8  1  0  0  0  0
  8  9  1  0  0  0  0
  9 10  1  0  0  0  0
 10 11  1  0  0  0  0
 11 12  1  0  0  0  0
 12 13  1  0  0  0  0
 13 14  1  0  0  0  0
M  END
>  <CHROM.1>
-178.59365956,-179.10303939,110.58719808,107.16711972,-178.40425891,-178.53517722
175.00898272,107.14026865,-161.80987164,179.47147541,73.54780218,0.72095845
-2.17927830,9.82980371,2.60170266,-0.54388535,0.80173725

>  <Name>
ligand

>  <RI>
0

>  <Rbt.Current_Directory>
/home/itssahil/PROJECTS/Mol_Feturizer/New_Systems/rnas/1FUF

>  <Rbt.Executable>
rbdock ($Id: //depot/dev/client3/rdock/2013.1/src/exe/rbdock.cxx#4 $)

>  <Rbt.Library>
libRbt.so (2013.1, Build901 2013/11/27)

>  <Rbt.Parameter_File>
/export/apps/rDock/src/rDock_2013.1_src/data/scripts/dock_solv.prm

>  <Rbt.Receptor>
prm/pocket_docking_3.prm

>  <SCORE>
-5.2138

>  <SCORE.INTER>
-2.78923

>  <SCORE.INTER.CONST>
1

>  <SCORE.INTER.POLAR>
0

>  <SCORE.INTER.ROT>
11

>  <SCORE.INTER.SOLV>
14.6795

>  <SCORE.INTER.VDW>
-17.686

>  <SCORE.INTER.norm>
-0.199231

>  <SCORE.INTRA>
-2.42457

>  <SCORE.INTRA.DIHEDRAL>
-6.26739

>  <SCORE.INTRA.DIHEDRAL.0>
10.5765

>  <SCORE.INTRA.POLAR>
0

>  <SCORE.INTRA.POLAR.0>
0

>  <SCORE.INTRA.REPUL>
0

>  <SCORE.INTRA.REPUL.0>
0

>  <SCORE.INTRA.SOLV>
0.729667

>  <SCORE.INTRA.SOLV.lig_0>
-50.1861

>  <SCORE.INTRA.VDW>
0.344294

>  <SCORE.INTRA.VDW.0>
-1.36671

>  <SCORE.INTRA.norm>
-0.173183

>  <SCORE.RESTR>
0

>  <SCORE.RESTR.CAVITY>
0

>  <SCORE.RESTR.norm>
0

>  <SCORE.SYSTEM>
0

>  <SCORE.SYSTEM.CONST>
0

>  <SCORE.SYSTEM.DIHEDRAL>
0

>  <SCORE.SYSTEM.SOLV>
0

>  <SCORE.SYSTEM.norm>
0

>  <SCORE.heavy>
14

>  <SCORE.norm>
-0.372414

>  <RMSD>
1.963

$$$$
ligand
 OpenBabel11021811393D
libRbt.so/2013.1/901 2013/11/27
 14 13  0  0  0  0  0  0  0  0999 V2000
    4.7883   -7.5350    8.4319 N   0  0  0  0  0  0  0  0  0  0  0  0
    4.3808   -6.1242    8.8580 C   0  0  0  0  0  0  0  0  0  0  0  0
    4.5713   -6.0838   10.3307 C   0  0  0  0  0  0  0  0  0  0  0  0
    4.3504   -4.7173   10.9586 C   0  0  0  0  0  0  0  0  0  0  0  0
    2.9501   -4.2791   10.7145 N   0  0  0  0  0  0  0  0  0  0  0  0
    2.8671   -2.7465   10.8327 C   0  0  0  0  0  0  0  0  0  0  0  0
    1.2829   -2.4974   10.8458 C   0  0  0  0  0  0  0  0  0  0  0  0
    1.0474   -1.2093   10.9080 C   0  0  0  0  0  0  0  0  0  0  0  0
   -0.5828   -1.3171   11.0205 C   0  0  0  0  0  0  0  0  0  0  0  0
   -0.9062    0.2145   10.9912 N   0  0  0  0  0  0  0  0  0  0  0  0
   -1.6633    0.6748    9.6820 C   0  0  0  0  0  0  0  0  0  0  0  0
   -3.1529    1.1398   10.1645 C   0  0  0  0  0  0  0  0  0  0  0  0
   -3.8588    1.4542    8.8776 C   0  0  0  0  0  0  0  0  0  0  0  0
   -5.2294    1.9421    9.2839 N   0  0  0  0  0  0  0  0  0  0  0  0
  1  2  1  0  0  0  0
  2  3  1  0  0  0  0
  3  4  1  0  0  0  0
  4  5  1  0  0  0  0
  5  6  1  0  0  0  0
  6  7  1  0  0  0  0
  7  8  1  0  0  0  0
  8  9  1  0  0  0  0
  9 10  1  0  0  0  0
 10 11  1  0  0  0  0
 11 12  1  0  0  0  0
 12 13  1  0  0  0  0
 13 14  1  0  0  0  0
M  END
>  <CHROM.1>
174.37268072,61.12428923,-157.89145524,-168.83318746,-178.31160518,-175.89470084
-176.08010985,112.32308438,113.50651469,-175.44301239,-177.85141028,0.77478891
-2.22023079,10.13582410,0.46407865,0.60464321,-2.29849261

>  <Name>
ligand

>  <RI>
0

>  <Rbt.Current_Directory>
/home/itssahil/PROJECTS/Mol_Feturizer/New_Systems/rnas/1FUF

>  <Rbt.Executable>
rbdock ($Id: //depot/dev/client3/rdock/2013.1/src/exe/rbdock.cxx#4 $)

>  <Rbt.Library>
libRbt.so (2013.1, Build901 2013/11/27)

>  <Rbt.Parameter_File>
/export/apps/rDock/src/rDock_2013.1_src/data/scripts/dock_solv.prm

>  <Rbt.Receptor>
prm/blind_docking_60.prm

>  <SCORE>
-5.85927

>  <SCORE.INTER>
-2.34205

>  <SCORE.INTER.CONST>
1

>  <SCORE.INTER.POLAR>
0

>  <SCORE.INTER.ROT>
11

>  <SCORE.INTER.SOLV>
16.7125

>  <SCORE.INTER.VDW>
-18.0655

>  <SCORE.INTER.norm>
-0.167289

>  <SCORE.INTRA>
-3.51722

>  <SCORE.INTRA.DIHEDRAL>
-7.4414

>  <SCORE.INTRA.DIHEDRAL.0>
10.5765

>  <SCORE.INTRA.POLAR>
0

>  <SCORE.INTRA.POLAR.0>
0

>  <SCORE.INTRA.REPUL>
0

>  <SCORE.INTRA.REPUL.0>
0

>  <SCORE.INTRA.SOLV>
0.210691

>  <SCORE.INTRA.SOLV.lig_0>
-50.1861

>  <SCORE.INTRA.VDW>
0.0981366

>  <SCORE.INTRA.VDW.0>
-1.36671

>  <SCORE.INTRA.norm>
-0.25123

>  <SCORE.RESTR>
0

>  <SCORE.RESTR.CAVITY>
0

>  <SCORE.RESTR.norm>
0

>  <SCORE.SYSTEM>
0

>  <SCORE.SYSTEM.CONST>
0

>  <SCORE.SYSTEM.DIHEDRAL>
0

>  <SCORE.SYSTEM.SOLV>
0

>  <SCORE.SYSTEM.norm>
0

>  <SCORE.heavy>
14

>  <SCORE.norm>
-0.418519

>  <RMSD>
1.965

$$$$
ligand
 OpenBabel11021811393D
libRbt.so/2013.1/901 2013/11/27
 14 13  0  0  0  0  0  0  0  0999 V2000
    5.4573   -6.8262    8.1464 N   0  0  0  0  0  0  0  0  0  0  0  0
    4.5025   -7.0268    9.3237 C   0  0  0  0  0  0  0  0  0  0  0  0
    3.7222   -5.7665    9.4211 C   0  0  0  0  0  0  0  0  0  0  0  0
    2.7118   -5.7355   10.5563 C   0  0  0  0  0  0  0  0  0  0  0  0
    1.9420   -4.4640   10.5013 N   0  0  0  0  0  0  0  0  0  0  0  0
    2.7453   -3.3507   11.1978 C   0  0  0  0  0  0  0  0  0  0  0  0
    2.1415   -2.0286   10.5200 C   0  0  0  0  0  0  0  0  0  0  0  0
    0.9098   -1.8537   10.9334 C   0  0  0  0  0  0  0  0  0  0  0  0
    0.6175   -0.4803   10.0909 C   0  0  0  0  0  0  0  0  0  0  0  0
   -0.8988   -0.3227   10.4480 N   0  0  0  0  0  0  0  0  0  0  0  0
   -1.6651    0.6954    9.5124 C   0  0  0  0  0  0  0  0  0  0  0  0
   -3.2239    0.6672    9.9993 C   0  0  0  0  0  0  0  0  0  0  0  0
   -3.9088    1.6021    9.0454 C   0  0  0  0  0  0  0  0  0  0  0  0
   -5.3615    1.6003    9.4597 N   0  0  0  0  0  0  0  0  0  0  0  0
  1  2  1  0  0  0  0
  2  3  1  0  0  0  0
  3  4  1  0  0  0  0
  4  5  1  0  0  0  0
  5  6  1  0  0  0  0
  6  7  1  0  0  0  0
  7  8  1  0  0  0  0
  8  9  1  0  0  0  0
  9 10  1  0  0  0  0
 10 11  1  0  0  0  0
 11 12  1  0  0  0  0
 12 13  1  0  0  0  0
 13 14  1  0  0  0  0
M  END
>  <CHROM.1>
-179.04796666,-176.68366661,-83.22630075,156.48601325,69.71391325,179.79058391
174.51489948,-164.62568951,177.56570932,-177.72286141,179.77597554,0.69245402
-2.37779214,9.93982023,0.59273681,0.51169235,-2.49909139

>  <Name>
ligand

>  <RI>
0

>  <Rbt.Current_Directory>
/home/itssahil/PROJECTS/Mol_Feturizer/New_Systems/rnas/1FUF

>  <Rbt.Executable>
rbdock ($Id: //depot/dev/client3/rdock/2013.1/src/exe/rbdock.cxx#4 $)

>  <Rbt.Library>
libRbt.so (2013.1, Build901 2013/11/27)

>  <Rbt.Parameter_File>
/export/apps/rDock/src/rDock_2013.1_src/data/scripts/dock_solv.prm

>  <Rbt.Receptor>
prm/pocket_docking_5.prm

>  <SCORE>
-6.43168

>  <SCORE.INTER>
-2.81516

>  <SCORE.INTER.CONST>
1

>  <SCORE.INTER.POLAR>
0

>  <SCORE.INTER.ROT>
11

>  <SCORE.INTER.SOLV>
15.1813

>  <SCORE.INTER.VDW>
-17.8705

>  <SCORE.INTER.norm>
-0.201083

>  <SCORE.INTRA>
-3.61653

>  <SCORE.INTRA.DIHEDRAL>
-9.06839

>  <SCORE.INTRA.DIHEDRAL.0>
10.5765

>  <SCORE.INTRA.POLAR>
0

>  <SCORE.INTRA.POLAR.0>
0

>  <SCORE.INTRA.REPUL>
0

>  <SCORE.INTRA.REPUL.0>
0

>  <SCORE.INTRA.SOLV>
0.291034

>  <SCORE.INTRA.SOLV.lig_0>
-50.1861

>  <SCORE.INTRA.VDW>
0.772154

>  <SCORE.INTRA.VDW.0>
-1.36671

>  <SCORE.INTRA.norm>
-0.258323

>  <SCORE.RESTR>
0

>  <SCORE.RESTR.CAVITY>
0

>  <SCORE.RESTR.norm>
0

>  <SCORE.SYSTEM>
0

>  <SCORE.SYSTEM.CONST>
0

>  <SCORE.SYSTEM.DIHEDRAL>
0

>  <SCORE.SYSTEM.SOLV>
0

>  <SCORE.SYSTEM.norm>
0

>  <SCORE.heavy>
14

>  <SCORE.norm>
-0.459406

>  <RMSD>
1.965

$$$$
ligand
 OpenBabel11021811393D
libRbt.so/2013.1/901 2013/11/27
 14 13  0  0  0  0  0  0  0  0999 V2000
    5.8884   -5.7969    8.0466 N   0  0  0  0  0  0  0  0  0  0  0  0
    4.5838   -5.4074    8.7424 C   0  0  0  0  0  0  0  0  0  0  0  0
    4.9252   -5.2780   10.1823 C   0  0  0  0  0  0  0  0  0  0  0  0
    3.7352   -5.0226   11.0930 C   0  0  0  0  0  0  0  0  0  0  0  0
    3.2621   -3.6242   10.9115 N   0  0  0  0  0  0  0  0  0  0  0  0
    2.0676   -3.6116    9.9406 C   0  0  0  0  0  0  0  0  0  0  0  0
    1.0423   -2.6282   10.6846 C   0  0  0  0  0  0  0  0  0  0  0  0
    1.4629   -1.3924   10.5645 C   0  0  0  0  0  0  0  0  0  0  0  0
    0.3013   -0.7032   11.4904 C   0  0  0  0  0  0  0  0  0  0  0  0
   -0.6192   -0.1829   10.3357 N   0  0  0  0  0  0  0  0  0  0  0  0
   -1.4564    1.1002   10.7254 C   0  0  0  0  0  0  0  0  0  0  0  0
   -2.3543    1.4670    9.4112 C   0  0  0  0  0  0  0  0  0  0  0  0
   -3.4327    0.4230    9.4176 C   0  0  0  0  0  0  0  0  0  0  0  0
   -4.3503    0.8050   10.5551 N   0  0  0  0  0  0  0  0  0  0  0  0
  1  2  1  0  0  0  0
  2  3  1  0  0  0  0
  3  4  1  0  0  0  0
  4  5  1  0  0  0  0
  5  6  1  0  0  0  0
  6  7  1  0  0  0  0
  7  8  1  0  0  0  0
  8  9  1  0  0  0  0
  9 10  1  0  0  0  0
 10 11  1  0  0  0  0
 11 12  1  0  0  0  0
 12 13  1  0  0  0  0
 13 14  1  0  0  0  0
M  END
>  <CHROM.1>
-174.40628954,-73.17919209,97.77791806,135.15001492,74.12997680,-176.08869957
-100.29329260,-151.89687941,-179.25596438,74.62943834,72.79953529,1.07543243
-2.13227395,10.15013720,0.20828999,0.66150905,-1.79938439

>  <Name>
ligand

>  <RI>
0

>  <Rbt.Current_Directory>
/home/itssahil/PROJECTS/Mol_Feturizer/New_Systems/rnas/1FUF

>  <Rbt.Executable>
rbdock ($Id: //depot/dev/client3/rdock/2013.1/src/exe/rbdock.cxx#4 $)

>  <Rbt.Library>
libRbt.so (2013.1, Build901 2013/11/27)

>  <Rbt.Parameter_File>
/export/apps/rDock/src/rDock_2013.1_src/data/scripts/dock_solv.prm

>  <Rbt.Receptor>
prm/pocket_docking_2.prm

>  <SCORE>
1.76976

>  <SCORE.INTER>
0.123776

>  <SCORE.INTER.CONST>
1

>  <SCORE.INTER.POLAR>
0

>  <SCORE.INTER.ROT>
11

>  <SCORE.INTER.SOLV>
17.7778

>  <SCORE.INTER.VDW>
-16.7767

>  <SCORE.INTER.norm>
0.00884113

>  <SCORE.INTRA>
1.64599

>  <SCORE.INTRA.DIHEDRAL>
-1.09806

>  <SCORE.INTRA.DIHEDRAL.0>
10.5765

>  <SCORE.INTRA.POLAR>
0

>  <SCORE.INTRA.POLAR.0>
0

>  <SCORE.INTRA.REPUL>
0

>  <SCORE.INTRA.REPUL.0>
0

>  <SCORE.INTRA.SOLV>
2.54895

>  <SCORE.INTRA.SOLV.lig_0>
-50.1861

>  <SCORE.INTRA.VDW>
0.920545

>  <SCORE.INTRA.VDW.0>
-1.36671

>  <SCORE.INTRA.norm>
0.117571

>  <SCORE.RESTR>
0

>  <SCORE.RESTR.CAVITY>
0

>  <SCORE.RESTR.norm>
0

>  <SCORE.SYSTEM>
0

>  <SCORE.SYSTEM.CONST>
0

>  <SCORE.SYSTEM.DIHEDRAL>
0

>  <SCORE.SYSTEM.SOLV>
0

>  <SCORE.SYSTEM.norm>
0

>  <SCORE.heavy>
14

>  <SCORE.norm>
0.126412

>  <RMSD>
1.966

$$$$
ligand
 OpenBabel11021811393D
libRbt.so/2013.1/901 2013/11/27
 14 13  0  0  0  0  0  0  0  0999 V2000
    4.7391   -5.1090    9.8495 N   0  0  0  0  0  0  0  0  0  0  0  0
    4.0306   -4.2670   10.9112 C   0  0  0  0  0  0  0  0  0  0  0  0
    3.2316   -3.2674   10.1569 C   0  0  0  0  0  0  0  0  0  0  0  0
    2.4260   -2.3164   11.0271 C   0  0  0  0  0  0  0  0  0  0  0  0
    1.6409   -1.3960   10.1617 N   0  0  0  0  0  0  0  0  0  0  0  0
    0.5914   -0.6629   11.0166 C   0  0  0  0  0  0  0  0  0  0  0  0
   -0.4501   -0.1574    9.9068 C   0  0  0  0  0  0  0  0  0  0  0  0
   -1.4310    0.4845   10.4937 C   0  0  0  0  0  0  0  0  0  0  0  0
   -2.3113    0.7674    9.1421 C   0  0  0  0  0  0  0  0  0  0  0  0
   -3.4969    1.5410    9.8108 N   0  0  0  0  0  0  0  0  0  0  0  0
   -4.5378    2.1211    8.7720 C   0  0  0  0  0  0  0  0  0  0  0  0
   -5.6458    2.9357    9.6534 C   0  0  0  0  0  0  0  0  0  0  0  0
   -6.5328    3.5600    8.6158 C   0  0  0  0  0  0  0  0  0  0  0  0
   -7.3476    2.4205    8.0504 N   0  0  0  0  0  0  0  0  0  0  0  0
  1  2  1  0  0  0  0
  2  3  1  0  0  0  0
  3  4  1  0  0  0  0
  4  5  1  0  0  0  0
  5  6  1  0  0  0  0
  6  7  1  0  0  0  0
  7  8  1  0  0  0  0
  8  9  1  0  0  0  0
  9 10  1  0  0  0  0
 10 11  1  0  0  0  0
 11 12  1  0  0  0  0
 12 13  1  0  0  0  0
 13 14  1  0  0  0  0
M  END
>  <CHROM.1>
179.61111865,-178.28213727,166.98847615,-160.78839848,179.24178188,-176.91148572
-179.87029240,174.62621871,-177.64225485,175.24803829,72.98474956,-1.07811237
-0.23883758,9.82644091,0.30487998,0.53031919,-2.37903241

>  <Name>
ligand

>  <RI>
0

>  <Rbt.Current_Directory>
/home/itssahil/PROJECTS/Mol_Feturizer/New_Systems/rnas/1FUF

>  <Rbt.Executable>
rbdock ($Id: //depot/dev/client3/rdock/2013.1/src/exe/rbdock.cxx#4 $)

>  <Rbt.Library>
libRbt.so (2013.1, Build901 2013/11/27)

>  <Rbt.Parameter_File>
/export/apps/rDock/src/rDock_2013.1_src/data/scripts/dock_solv.prm

>  <Rbt.Receptor>
prm/pocket_docking_5.prm

>  <SCORE>
-5.84699

>  <SCORE.INTER>
-1.78983

>  <SCORE.INTER.CONST>
1

>  <SCORE.INTER.POLAR>
0

>  <SCORE.INTER.ROT>
11

>  <SCORE.INTER.SOLV>
14.3388

>  <SCORE.INTER.VDW>
-16.9061

>  <SCORE.INTER.norm>
-0.127845

>  <SCORE.INTRA>
-4.05716

>  <SCORE.INTRA.DIHEDRAL>
-9.38298

>  <SCORE.INTRA.DIHEDRAL.0>
10.5765

>  <SCORE.INTRA.POLAR>
0

>  <SCORE.INTRA.POLAR.0>
0

>  <SCORE.INTRA.REPUL>
0

>  <SCORE.INTRA.REPUL.0>
0

>  <SCORE.INTRA.SOLV>
0.69974

>  <SCORE.INTRA.SOLV.lig_0>
-50.1861

>  <SCORE.INTRA.VDW>
0.284465

>  <SCORE.INTRA.VDW.0>
-1.36671

>  <SCORE.INTRA.norm>
-0.289797

>  <SCORE.RESTR>
0

>  <SCORE.RESTR.CAVITY>
0

>  <SCORE.RESTR.norm>
0

>  <SCORE.SYSTEM>
0

>  <SCORE.SYSTEM.CONST>
0

>  <SCORE.SYSTEM.DIHEDRAL>
0

>  <SCORE.SYSTEM.SOLV>
0

>  <SCORE.SYSTEM.norm>
0

>  <SCORE.heavy>
14

>  <SCORE.norm>
-0.417642

>  <RMSD>
1.971

$$$$
ligand
 OpenBabel11021811393D
libRbt.so/2013.1/901 2013/11/27
 14 13  0  0  0  0  0  0  0  0999 V2000
    5.3678   -6.8103    8.2156 N   0  0  0  0  0  0  0  0  0  0  0  0
    4.4175   -6.9702    9.4029 C   0  0  0  0  0  0  0  0  0  0  0  0
    3.6308   -5.7112    9.4539 C   0  0  0  0  0  0  0  0  0  0  0  0
    2.6284   -5.6387   10.5943 C   0  0  0  0  0  0  0  0  0  0  0  0
    1.8640   -4.3661   10.5034 N   0  0  0  0  0  0  0  0  0  0  0  0
    2.6609   -3.2420   11.1899 C   0  0  0  0  0  0  0  0  0  0  0  0
    1.9811   -1.9263   10.5746 C   0  0  0  0  0  0  0  0  0  0  0  0
    0.7340   -1.8565   10.9726 C   0  0  0  0  0  0  0  0  0  0  0  0
    0.3589   -0.4695   10.1871 C   0  0  0  0  0  0  0  0  0  0  0  0
   -1.1614   -0.4124   10.5570 N   0  0  0  0  0  0  0  0  0  0  0  0
   -1.9383    0.7707    9.8529 C   0  0  0  0  0  0  0  0  0  0  0  0
   -3.4930    0.6373   10.3356 C   0  0  0  0  0  0  0  0  0  0  0  0
   -4.1508    1.8517    9.7476 C   0  0  0  0  0  0  0  0  0  0  0  0
   -4.2527    1.5719    8.2666 N   0  0  0  0  0  0  0  0  0  0  0  0
  1  2  1  0  0  0  0
  2  3  1  0  0  0  0
  3  4  1  0  0  0  0
  4  5  1  0  0  0  0
  5  6  1  0  0  0  0
  6  7  1  0  0  0  0
  7  8  1  0  0  0  0
  8  9  1  0  0  0  0
  9 10  1  0  0  0  0
 10 11  1  0  0  0  0
 11 12  1  0  0  0  0
 12 13  1  0  0  0  0
 13 14  1  0  0  0  0
M  END
>  <CHROM.1>
-178.76069515,-177.45952556,-84.66830866,161.33291886,65.20127905,-179.56257293
176.04883276,-174.91696756,178.75597562,174.79902761,73.10994112,0.61772976
-2.32646811,9.98981390,0.42350939,0.67515899,-2.18320715

>  <Name>
ligand

>  <RI>
0

>  <Rbt.Current_Directory>
/home/itssahil/PROJECTS/Mol_Feturizer/New_Systems/rnas/1FUF

>  <Rbt.Executable>
rbdock ($Id: //depot/dev/client3/rdock/2013.1/src/exe/rbdock.cxx#4 $)

>  <Rbt.Library>
libRbt.so (2013.1, Build901 2013/11/27)

>  <Rbt.Parameter_File>
/export/apps/rDock/src/rDock_2013.1_src/data/scripts/dock_solv.prm

>  <Rbt.Receptor>
prm/pocket_docking_6.prm

>  <SCORE>
-5.37601

>  <SCORE.INTER>
-2.67208

>  <SCORE.INTER.CONST>
1

>  <SCORE.INTER.POLAR>
0

>  <SCORE.INTER.ROT>
11

>  <SCORE.INTER.SOLV>
15.9787

>  <SCORE.INTER.VDW>
-18.0409

>  <SCORE.INTER.norm>
-0.190863

>  <SCORE.INTRA>
-2.70393

>  <SCORE.INTRA.DIHEDRAL>
-8.93652

>  <SCORE.INTRA.DIHEDRAL.0>
10.5765

>  <SCORE.INTRA.POLAR>
0

>  <SCORE.INTRA.POLAR.0>
0

>  <SCORE.INTRA.REPUL>
0

>  <SCORE.INTRA.REPUL.0>
0

>  <SCORE.INTRA.SOLV>
1.17166

>  <SCORE.INTRA.SOLV.lig_0>
-50.1861

>  <SCORE.INTRA.VDW>
1.1785

>  <SCORE.INTRA.VDW.0>
-1.36671

>  <SCORE.INTRA.norm>
-0.193138

>  <SCORE.RESTR>
0

>  <SCORE.RESTR.CAVITY>
0

>  <SCORE.RESTR.norm>
0

>  <SCORE.SYSTEM>
0

>  <SCORE.SYSTEM.CONST>
0

>  <SCORE.SYSTEM.DIHEDRAL>
0

>  <SCORE.SYSTEM.SOLV>
0

>  <SCORE.SYSTEM.norm>
0

>  <SCORE.heavy>
14

>  <SCORE.norm>
-0.384

>  <RMSD>
1.971

$$$$
ligand
 OpenBabel11021811393D
libRbt.so/2013.1/901 2013/11/27
 14 13  0  0  0  0  0  0  0  0999 V2000
    4.5730   -6.7555    8.3938 N   0  0  0  0  0  0  0  0  0  0  0  0
    3.9227   -6.1142    9.6201 C   0  0  0  0  0  0  0  0  0  0  0  0
    4.5812   -4.7914    9.7724 C   0  0  0  0  0  0  0  0  0  0  0  0
    4.1856   -4.0299   11.0271 C   0  0  0  0  0  0  0  0  0  0  0  0
    2.7315   -3.7204   10.9822 N   0  0  0  0  0  0  0  0  0  0  0  0
    2.5277   -2.3099   10.4002 C   0  0  0  0  0  0  0  0  0  0  0  0
    1.0387   -1.9609   10.8828 C   0  0  0  0  0  0  0  0  0  0  0  0
    0.6599   -0.8309   10.3366 C   0  0  0  0  0  0  0  0  0  0  0  0
   -0.8725   -0.8426   10.9139 C   0  0  0  0  0  0  0  0  0  0  0  0
   -1.4305    0.3582   10.0784 N   0  0  0  0  0  0  0  0  0  0  0  0
   -2.9536    0.6716   10.3632 C   0  0  0  0  0  0  0  0  0  0  0  0
   -3.6223    1.0075    8.9114 C   0  0  0  0  0  0  0  0  0  0  0  0
   -2.8886    2.2370    8.4606 C   0  0  0  0  0  0  0  0  0  0  0  0
   -3.5220    2.6185    7.1434 N   0  0  0  0  0  0  0  0  0  0  0  0
  1  2  1  0  0  0  0
  2  3  1  0  0  0  0
  3  4  1  0  0  0  0
  4  5  1  0  0  0  0
  5  6  1  0  0  0  0
  6  7  1  0  0  0  0
  7  8  1  0  0  0  0
  8  9  1  0  0  0  0
  9 10  1  0  0  0  0
 10 11  1  0  0  0  0
 11 12  1  0  0  0  0
 12 13  1  0  0  0  0
 13 14  1  0  0  0  0
M  END
>  <CHROM.1>
-174.01491217,-62.95272879,-94.56401001,-161.45575269,-173.22023630,175.65656636
-170.54106774,179.79754932,-139.28820414,-62.78189605,-177.54605113,0.63794068
-1.74728165,9.80642608,0.08415022,0.75924248,-1.83425898

>  <Name>
ligand

>  <RI>
0

>  <Rbt.Current_Directory>
/home/itssahil/PROJECTS/Mol_Feturizer/New_Systems/rnas/1FUF

>  <Rbt.Executable>
rbdock ($Id: //depot/dev/client3/rdock/2013.1/src/exe/rbdock.cxx#4 $)

>  <Rbt.Library>
libRbt.so (2013.1, Build901 2013/11/27)

>  <Rbt.Parameter_File>
/export/apps/rDock/src/rDock_2013.1_src/data/scripts/dock_solv.prm

>  <Rbt.Receptor>
prm/blind_docking_20.prm

>  <SCORE>
-4.97285

>  <SCORE.INTER>
-1.94261

>  <SCORE.INTER.CONST>
1

>  <SCORE.INTER.POLAR>
0

>  <SCORE.INTER.ROT>
11

>  <SCORE.INTER.SOLV>
16.6731

>  <SCORE.INTER.VDW>
-17.7861

>  <SCORE.INTER.norm>
-0.138758

>  <SCORE.INTRA>
-3.03024

>  <SCORE.INTRA.DIHEDRAL>
-7.85213

>  <SCORE.INTRA.DIHEDRAL.0>
10.5765

>  <SCORE.INTRA.POLAR>
0

>  <SCORE.INTRA.POLAR.0>
0

>  <SCORE.INTRA.REPUL>
0

>  <SCORE.INTRA.REPUL.0>
0

>  <SCORE.INTRA.SOLV>
0.750621

>  <SCORE.INTRA.SOLV.lig_0>
-50.1861

>  <SCORE.INTRA.VDW>
0.520513

>  <SCORE.INTRA.VDW.0>
-1.36671

>  <SCORE.INTRA.norm>
-0.216446

>  <SCORE.RESTR>
0

>  <SCORE.RESTR.CAVITY>
0

>  <SCORE.RESTR.norm>
0

>  <SCORE.SYSTEM>
0

>  <SCORE.SYSTEM.CONST>
0

>  <SCORE.SYSTEM.DIHEDRAL>
0

>  <SCORE.SYSTEM.SOLV>
0

>  <SCORE.SYSTEM.norm>
0

>  <SCORE.heavy>
14

>  <SCORE.norm>
-0.355203

>  <RMSD>
1.974

$$$$
ligand
 OpenBabel11021811393D
libRbt.so/2013.1/901 2013/11/27
 14 13  0  0  0  0  0  0  0  0999 V2000
   -4.8381    0.9123    9.2231 N   0  0  0  0  0  0  0  0  0  0  0  0
   -3.9432    2.0942    9.5977 C   0  0  0  0  0  0  0  0  0  0  0  0
   -2.5510    1.6187    9.3924 C   0  0  0  0  0  0  0  0  0  0  0  0
   -2.1110    0.5217   10.3483 C   0  0  0  0  0  0  0  0  0  0  0  0
   -0.6785    0.2002   10.1097 N   0  0  0  0  0  0  0  0  0  0  0  0
   -0.2663   -0.9853   11.0010 C   0  0  0  0  0  0  0  0  0  0  0  0
    1.1803   -1.3560   10.4164 C   0  0  0  0  0  0  0  0  0  0  0  0
    1.6294   -2.4295   11.0201 C   0  0  0  0  0  0  0  0  0  0  0  0
    3.0029   -2.5835   10.1418 C   0  0  0  0  0  0  0  0  0  0  0  0
    3.5077   -3.9311   10.7589 N   0  0  0  0  0  0  0  0  0  0  0  0
    4.5880   -4.6670    9.8699 C   0  0  0  0  0  0  0  0  0  0  0  0
    3.7807   -5.2566    8.5782 C   0  0  0  0  0  0  0  0  0  0  0  0
    4.8485   -5.9445    7.7783 C   0  0  0  0  0  0  0  0  0  0  0  0
    5.2117   -7.1758    8.5744 N   0  0  0  0  0  0  0  0  0  0  0  0
  1  2  1  0  0  0  0
  2  3  1  0  0  0  0
  3  4  1  0  0  0  0
  4  5  1  0  0  0  0
  5  6  1  0  0  0  0
  6  7  1  0  0  0  0
  7  8  1  0  0  0  0
  8  9  1  0  0  0  0
  9 10  1  0  0  0  0
 10 11  1  0  0  0  0
 11 12  1  0  0  0  0
 12 13  1  0  0  0  0
 13 14  1  0  0  0  0
M  END
>  <CHROM.1>
-66.79732445,-175.97073064,-175.57516022,169.78016374,-175.38923284,176.02743391
-175.51067456,161.86685886,-72.15291123,-179.78408087,71.11650664,0.95442754
-2.06998368,9.77219646,2.66048922,-0.56157141,0.90311370

>  <Name>
ligand

>  <RI>
0

>  <Rbt.Current_Directory>
/home/itssahil/PROJECTS/Mol_Feturizer/New_Systems/rnas/1FUF

>  <Rbt.Executable>
rbdock ($Id: //depot/dev/client3/rdock/2013.1/src/exe/rbdock.cxx#4 $)

>  <Rbt.Library>
libRbt.so (2013.1, Build901 2013/11/27)

>  <Rbt.Parameter_File>
/export/apps/rDock/src/rDock_2013.1_src/data/scripts/dock_solv.prm

>  <Rbt.Receptor>
prm/pocket_docking_5.prm

>  <SCORE>
-4.77364

>  <SCORE.INTER>
-1.73164

>  <SCORE.INTER.CONST>
1

>  <SCORE.INTER.POLAR>
0

>  <SCORE.INTER.ROT>
11

>  <SCORE.INTER.SOLV>
15.9994

>  <SCORE.INTER.VDW>
-17.4209

>  <SCORE.INTER.norm>
-0.123689

>  <SCORE.INTRA>
-3.04199

>  <SCORE.INTRA.DIHEDRAL>
-9.1977

>  <SCORE.INTRA.DIHEDRAL.0>
10.5765

>  <SCORE.INTRA.POLAR>
0

>  <SCORE.INTRA.POLAR.0>
0

>  <SCORE.INTRA.REPUL>
0

>  <SCORE.INTRA.REPUL.0>
0

>  <SCORE.INTRA.SOLV>
1.61703

>  <SCORE.INTRA.SOLV.lig_0>
-50.1861

>  <SCORE.INTRA.VDW>
0.748341

>  <SCORE.INTRA.VDW.0>
-1.36671

>  <SCORE.INTRA.norm>
-0.217285

>  <SCORE.RESTR>
0

>  <SCORE.RESTR.CAVITY>
0

>  <SCORE.RESTR.norm>
0

>  <SCORE.SYSTEM>
0

>  <SCORE.SYSTEM.CONST>
0

>  <SCORE.SYSTEM.DIHEDRAL>
0

>  <SCORE.SYSTEM.SOLV>
0

>  <SCORE.SYSTEM.norm>
0

>  <SCORE.heavy>
14

>  <SCORE.norm>
-0.340974

>  <RMSD>
1.974

$$$$
ligand
 OpenBabel11021811393D
libRbt.so/2013.1/901 2013/11/27
 14 13  0  0  0  0  0  0  0  0999 V2000
   -4.7375    0.5340   10.0925 N   0  0  0  0  0  0  0  0  0  0  0  0
   -3.6972    0.7925    9.0021 C   0  0  0  0  0  0  0  0  0  0  0  0
   -2.7260    1.7456    9.5979 C   0  0  0  0  0  0  0  0  0  0  0  0
   -1.8193    1.1428   10.6586 C   0  0  0  0  0  0  0  0  0  0  0  0
   -0.8695    0.1937   10.0188 N   0  0  0  0  0  0  0  0  0  0  0  0
   -0.3355   -0.7863   11.0791 C   0  0  0  0  0  0  0  0  0  0  0  0
    1.0564   -1.2522   10.4331 C   0  0  0  0  0  0  0  0  0  0  0  0
    1.5885   -2.1893   11.1797 C   0  0  0  0  0  0  0  0  0  0  0  0
    2.9025   -2.4602   10.2408 C   0  0  0  0  0  0  0  0  0  0  0  0
    3.4604   -3.7106   11.0002 N   0  0  0  0  0  0  0  0  0  0  0  0
    4.9359   -4.0957   10.5835 C   0  0  0  0  0  0  0  0  0  0  0  0
    4.8741   -5.6551   10.1015 C   0  0  0  0  0  0  0  0  0  0  0  0
    4.0908   -5.5985    8.8223 C   0  0  0  0  0  0  0  0  0  0  0  0
    4.0273   -7.0254    8.3306 N   0  0  0  0  0  0  0  0  0  0  0  0
  1  2  1  0  0  0  0
  2  3  1  0  0  0  0
  3  4  1  0  0  0  0
  4  5  1  0  0  0  0
  5  6  1  0  0  0  0
  6  7  1  0  0  0  0
  7  8  1  0  0  0  0
  8  9  1  0  0  0  0
  9 10  1  0  0  0  0
 10 11  1  0  0  0  0
 11 12  1  0  0  0  0
 12 13  1  0  0  0  0
 13 14  1  0  0  0  0
M  END
>  <CHROM.1>
72.07119204,69.29723714,-158.83460484,-156.12964576,-174.74133133,177.97441103
-172.66323793,-166.99179012,-124.24127277,68.90564392,179.20975982,0.91096154
-2.02585543,10.08157437,2.56978944,-0.43415417,0.61733150

>  <Name>
ligand

>  <RI>
0

>  <Rbt.Current_Directory>
/home/itssahil/PROJECTS/Mol_Feturizer/New_Systems/rnas/1FUF

>  <Rbt.Executable>
rbdock ($Id: //depot/dev/client3/rdock/2013.1/src/exe/rbdock.cxx#4 $)

>  <Rbt.Library>
libRbt.so (2013.1, Build901 2013/11/27)

>  <Rbt.Parameter_File>
/export/apps/rDock/src/rDock_2013.1_src/data/scripts/dock_solv.prm

>  <Rbt.Receptor>
prm/blind_docking_20.prm

>  <SCORE>
-3.56726

>  <SCORE.INTER>
-1.10619

>  <SCORE.INTER.CONST>
1

>  <SCORE.INTER.POLAR>
0

>  <SCORE.INTER.ROT>
11

>  <SCORE.INTER.SOLV>
20.7048

>  <SCORE.INTER.VDW>
-18.5724

>  <SCORE.INTER.norm>
-0.0790133

>  <SCORE.INTRA>
-2.46107

>  <SCORE.INTRA.DIHEDRAL>
-7.04123

>  <SCORE.INTRA.DIHEDRAL.0>
10.5765

>  <SCORE.INTRA.POLAR>
0

>  <SCORE.INTRA.POLAR.0>
0

>  <SCORE.INTRA.REPUL>
0

>  <SCORE.INTRA.REPUL.0>
0

>  <SCORE.INTRA.SOLV>
1.86438

>  <SCORE.INTRA.SOLV.lig_0>
-50.1861

>  <SCORE.INTRA.VDW>
0.127353

>  <SCORE.INTRA.VDW.0>
-1.36671

>  <SCORE.INTRA.norm>
-0.175791

>  <SCORE.RESTR>
0

>  <SCORE.RESTR.CAVITY>
0

>  <SCORE.RESTR.norm>
0

>  <SCORE.SYSTEM>
0

>  <SCORE.SYSTEM.CONST>
0

>  <SCORE.SYSTEM.DIHEDRAL>
0

>  <SCORE.SYSTEM.SOLV>
0

>  <SCORE.SYSTEM.norm>
0

>  <SCORE.heavy>
14

>  <SCORE.norm>
-0.254804

>  <RMSD>
1.975

$$$$
ligand
 OpenBabel11021811393D
libRbt.so/2013.1/901 2013/11/27
 14 13  0  0  0  0  0  0  0  0999 V2000
    5.4588   -6.7143    8.3550 N   0  0  0  0  0  0  0  0  0  0  0  0
    3.9360   -6.8517    8.3465 C   0  0  0  0  0  0  0  0  0  0  0  0
    3.4732   -6.2172    9.6074 C   0  0  0  0  0  0  0  0  0  0  0  0
    3.7281   -4.7210    9.6919 C   0  0  0  0  0  0  0  0  0  0  0  0
    3.1048   -4.1803   10.9294 N   0  0  0  0  0  0  0  0  0  0  0  0
    1.6165   -3.8883   10.6654 C   0  0  0  0  0  0  0  0  0  0  0  0
    1.5633   -2.2898   10.7832 C   0  0  0  0  0  0  0  0  0  0  0  0
    0.3599   -1.8724   10.4730 C   0  0  0  0  0  0  0  0  0  0  0  0
    0.6917   -0.2698   10.5301 C   0  0  0  0  0  0  0  0  0  0  0  0
   -0.4957    0.2315    9.6411 N   0  0  0  0  0  0  0  0  0  0  0  0
   -1.8233    0.5024   10.4555 C   0  0  0  0  0  0  0  0  0  0  0  0
   -2.9578    0.8942    9.3478 C   0  0  0  0  0  0  0  0  0  0  0  0
   -4.1853    1.1473   10.1738 C   0  0  0  0  0  0  0  0  0  0  0  0
   -5.2805    1.4486    9.1780 N   0  0  0  0  0  0  0  0  0  0  0  0
  1  2  1  0  0  0  0
  2  3  1  0  0  0  0
  3  4  1  0  0  0  0
  4  5  1  0  0  0  0
  5  6  1  0  0  0  0
  6  7  1  0  0  0  0
  7  8  1  0  0  0  0
  8  9  1  0  0  0  0
  9 10  1  0  0  0  0
 10 11  1  0  0  0  0
 11 12  1  0  0  0  0
 12 13  1  0  0  0  0
 13 14  1  0  0  0  0
M  END
>  <CHROM.1>
65.26783293,174.41217947,-83.82709290,-113.52229329,174.94671707,-174.20292129
158.68065287,87.44770400,-175.55756862,-179.65181457,-177.31441443,0.65640001
-2.34150461,9.87000515,0.61224956,0.47262492,-2.49291747

>  <Name>
ligand

>  <RI>
0

>  <Rbt.Current_Directory>
/home/itssahil/PROJECTS/Mol_Feturizer/New_Systems/rnas/1FUF

>  <Rbt.Executable>
rbdock ($Id: //depot/dev/client3/rdock/2013.1/src/exe/rbdock.cxx#4 $)

>  <Rbt.Library>
libRbt.so (2013.1, Build901 2013/11/27)

>  <Rbt.Parameter_File>
/export/apps/rDock/src/rDock_2013.1_src/data/scripts/dock_solv.prm

>  <Rbt.Receptor>
prm/blind_docking_60.prm

>  <SCORE>
-4.59964

>  <SCORE.INTER>
-2.52946

>  <SCORE.INTER.CONST>
1

>  <SCORE.INTER.POLAR>
0

>  <SCORE.INTER.ROT>
11

>  <SCORE.INTER.SOLV>
15.3073

>  <SCORE.INTER.VDW>
-17.7221

>  <SCORE.INTER.norm>
-0.180676

>  <SCORE.INTRA>
-2.07018

>  <SCORE.INTRA.DIHEDRAL>
-6.43148

>  <SCORE.INTRA.DIHEDRAL.0>
10.5765

>  <SCORE.INTRA.POLAR>
0

>  <SCORE.INTRA.POLAR.0>
0

>  <SCORE.INTRA.REPUL>
0

>  <SCORE.INTRA.REPUL.0>
0

>  <SCORE.INTRA.SOLV>
0.716557

>  <SCORE.INTRA.SOLV.lig_0>
-50.1861

>  <SCORE.INTRA.VDW>
0.787281

>  <SCORE.INTRA.VDW.0>
-1.36671

>  <SCORE.INTRA.norm>
-0.14787

>  <SCORE.RESTR>
0

>  <SCORE.RESTR.CAVITY>
0

>  <SCORE.RESTR.norm>
0

>  <SCORE.SYSTEM>
0

>  <SCORE.SYSTEM.CONST>
0

>  <SCORE.SYSTEM.DIHEDRAL>
0

>  <SCORE.SYSTEM.SOLV>
0

>  <SCORE.SYSTEM.norm>
0

>  <SCORE.heavy>
14

>  <SCORE.norm>
-0.328546

>  <RMSD>
1.975

$$$$
ligand
 OpenBabel11021811393D
libRbt.so/2013.1/901 2013/11/27
 14 13  0  0  0  0  0  0  0  0999 V2000
    4.8059   -7.6577    8.6351 N   0  0  0  0  0  0  0  0  0  0  0  0
    4.5431   -6.2249    8.1702 C   0  0  0  0  0  0  0  0  0  0  0  0
    3.7150   -5.6069    9.2374 C   0  0  0  0  0  0  0  0  0  0  0  0
    3.4729   -4.1162    9.0651 C   0  0  0  0  0  0  0  0  0  0  0  0
    2.5926   -3.6264   10.1594 N   0  0  0  0  0  0  0  0  0  0  0  0
    2.7105   -2.0949   10.2623 C   0  0  0  0  0  0  0  0  0  0  0  0
    1.6979   -1.7614   11.4604 C   0  0  0  0  0  0  0  0  0  0  0  0
    0.4650   -1.8634   11.0267 C   0  0  0  0  0  0  0  0  0  0  0  0
    0.3004   -0.3062   10.5476 C   0  0  0  0  0  0  0  0  0  0  0  0
   -1.2343   -0.3331   10.2387 N   0  0  0  0  0  0  0  0  0  0  0  0
   -1.7307    0.9098    9.3974 C   0  0  0  0  0  0  0  0  0  0  0  0
   -2.7591    1.7274   10.3679 C   0  0  0  0  0  0  0  0  0  0  0  0
   -4.0142    0.9051   10.3251 C   0  0  0  0  0  0  0  0  0  0  0  0
   -4.6122    1.1615    8.9618 N   0  0  0  0  0  0  0  0  0  0  0  0
  1  2  1  0  0  0  0
  2  3  1  0  0  0  0
  3  4  1  0  0  0  0
  4  5  1  0  0  0  0
  5  6  1  0  0  0  0
  6  7  1  0  0  0  0
  7  8  1  0  0  0  0
  8  9  1  0  0  0  0
  9 10  1  0  0  0  0
 10 11  1  0  0  0  0
 11 12  1  0  0  0  0
 12 13  1  0  0  0  0
 13 14  1  0  0  0  0
M  END
>  <CHROM.1>
172.86740849,177.79700983,161.87108365,179.41552536,-74.89983621,-90.23794900
-171.31315667,-165.54843671,-115.64441521,-76.52653717,-73.64350273,0.71104184
-2.06314508,9.84692823,0.62890372,0.46743126,-2.44930471

>  <Name>
ligand

>  <RI>
0

>  <Rbt.Current_Directory>
/home/itssahil/PROJECTS/Mol_Feturizer/New_Systems/rnas/1FUF

>  <Rbt.Executable>
rbdock ($Id: //depot/dev/client3/rdock/2013.1/src/exe/rbdock.cxx#4 $)

>  <Rbt.Library>
libRbt.so (2013.1, Build901 2013/11/27)

>  <Rbt.Parameter_File>
/export/apps/rDock/src/rDock_2013.1_src/data/scripts/dock_solv.prm

>  <Rbt.Receptor>
prm/blind_docking_40.prm

>  <SCORE>
-0.376588

>  <SCORE.INTER>
-1.37753

>  <SCORE.INTER.CONST>
1

>  <SCORE.INTER.POLAR>
0

>  <SCORE.INTER.ROT>
11

>  <SCORE.INTER.SOLV>
17.5485

>  <SCORE.INTER.VDW>
-17.7012

>  <SCORE.INTER.norm>
-0.0983953

>  <SCORE.INTRA>
1.00095

>  <SCORE.INTRA.DIHEDRAL>
-2.94664

>  <SCORE.INTRA.DIHEDRAL.0>
10.5765

>  <SCORE.INTRA.POLAR>
0

>  <SCORE.INTRA.POLAR.0>
0

>  <SCORE.INTRA.REPUL>
0

>  <SCORE.INTRA.REPUL.0>
0

>  <SCORE.INTRA.SOLV>
2.08363

>  <SCORE.INTRA.SOLV.lig_0>
-50.1861

>  <SCORE.INTRA.VDW>
1.43245

>  <SCORE.INTRA.VDW.0>
-1.36671

>  <SCORE.INTRA.norm>
0.0714961

>  <SCORE.RESTR>
0

>  <SCORE.RESTR.CAVITY>
0

>  <SCORE.RESTR.norm>
0

>  <SCORE.SYSTEM>
0

>  <SCORE.SYSTEM.CONST>
0

>  <SCORE.SYSTEM.DIHEDRAL>
0

>  <SCORE.SYSTEM.SOLV>
0

>  <SCORE.SYSTEM.norm>
0

>  <SCORE.heavy>
14

>  <SCORE.norm>
-0.0268992

>  <RMSD>
1.978

$$$$
ligand
 OpenBabel11021811393D
libRbt.so/2013.1/901 2013/11/27
 14 13  0  0  0  0  0  0  0  0999 V2000
    4.8568   -4.9752    8.6433 N   0  0  0  0  0  0  0  0  0  0  0  0
    3.9820   -6.2115    8.8537 C   0  0  0  0  0  0  0  0  0  0  0  0
    3.7283   -6.2741   10.3160 C   0  0  0  0  0  0  0  0  0  0  0  0
    2.7211   -5.2564   10.8262 C   0  0  0  0  0  0  0  0  0  0  0  0
    3.2600   -3.8838   10.6315 N   0  0  0  0  0  0  0  0  0  0  0  0
    2.5720   -2.9211   11.6162 C   0  0  0  0  0  0  0  0  0  0  0  0
    1.6894   -2.0118   10.6333 C   0  0  0  0  0  0  0  0  0  0  0  0
    0.8805   -1.2642   11.3443 C   0  0  0  0  0  0  0  0  0  0  0  0
    0.0608   -0.6153   10.0839 C   0  0  0  0  0  0  0  0  0  0  0  0
   -0.9396    0.2667   10.9040 N   0  0  0  0  0  0  0  0  0  0  0  0
   -2.3730    0.3734   10.2458 C   0  0  0  0  0  0  0  0  0  0  0  0
   -2.2624    1.5484    9.1166 C   0  0  0  0  0  0  0  0  0  0  0  0
   -3.6271    1.5675    8.4919 C   0  0  0  0  0  0  0  0  0  0  0  0
   -4.5609    2.0231    9.5884 N   0  0  0  0  0  0  0  0  0  0  0  0
  1  2  1  0  0  0  0
  2  3  1  0  0  0  0
  3  4  1  0  0  0  0
  4  5  1  0  0  0  0
  5  6  1  0  0  0  0
  6  7  1  0  0  0  0
  7  8  1  0  0  0  0
  8  9  1  0  0  0  0
  9 10  1  0  0  0  0
 10 11  1  0  0  0  0
 11 12  1  0  0  0  0
 12 13  1  0  0  0  0
 13 14  1  0  0  0  0
M  END
>  <CHROM.1>
74.98369449,-64.56096146,-157.04361645,-111.28580921,170.48694273,-174.58325965
178.90663805,-145.17715606,-82.83169491,177.84720824,65.50140823,0.71344170
-1.97402026,10.09256651,0.24761366,0.74069541,-1.98610972

>  <Name>
ligand

>  <RI>
0

>  <Rbt.Current_Directory>
/home/itssahil/PROJECTS/Mol_Feturizer/New_Systems/rnas/1FUF

>  <Rbt.Executable>
rbdock ($Id: //depot/dev/client3/rdock/2013.1/src/exe/rbdock.cxx#4 $)

>  <Rbt.Library>
libRbt.so (2013.1, Build901 2013/11/27)

>  <Rbt.Parameter_File>
/export/apps/rDock/src/rDock_2013.1_src/data/scripts/dock_solv.prm

>  <Rbt.Receptor>
prm/blind_docking_80.prm

>  <SCORE>
-3.3169

>  <SCORE.INTER>
-2.7731

>  <SCORE.INTER.CONST>
1

>  <SCORE.INTER.POLAR>
0

>  <SCORE.INTER.ROT>
11

>  <SCORE.INTER.SOLV>
15.3712

>  <SCORE.INTER.VDW>
-17.9058

>  <SCORE.INTER.norm>
-0.198079

>  <SCORE.INTRA>
-0.543797

>  <SCORE.INTRA.DIHEDRAL>
-6.44577

>  <SCORE.INTRA.DIHEDRAL.0>
10.5765

>  <SCORE.INTRA.POLAR>
0

>  <SCORE.INTRA.POLAR.0>
0

>  <SCORE.INTRA.REPUL>
0

>  <SCORE.INTRA.REPUL.0>
0

>  <SCORE.INTRA.SOLV>
3.84821

>  <SCORE.INTRA.SOLV.lig_0>
-50.1861

>  <SCORE.INTRA.VDW>
0.754982

>  <SCORE.INTRA.VDW.0>
-1.36671

>  <SCORE.INTRA.norm>
-0.0388426

>  <SCORE.RESTR>
0

>  <SCORE.RESTR.CAVITY>
0

>  <SCORE.RESTR.norm>
0

>  <SCORE.SYSTEM>
0

>  <SCORE.SYSTEM.CONST>
0

>  <SCORE.SYSTEM.DIHEDRAL>
0

>  <SCORE.SYSTEM.SOLV>
0

>  <SCORE.SYSTEM.norm>
0

>  <SCORE.heavy>
14

>  <SCORE.norm>
-0.236921

>  <RMSD>
1.982

$$$$
ligand
 OpenBabel11021811393D
libRbt.so/2013.1/901 2013/11/27
 14 13  0  0  0  0  0  0  0  0999 V2000
   -6.6485    3.0262    9.6096 N   0  0  0  0  0  0  0  0  0  0  0  0
   -6.7360    1.5185    9.3707 C   0  0  0  0  0  0  0  0  0  0  0  0
   -5.4193    0.9732    9.7896 C   0  0  0  0  0  0  0  0  0  0  0  0
   -4.2370    1.4917    8.9872 C   0  0  0  0  0  0  0  0  0  0  0  0
   -3.0100    0.7437    9.3711 N   0  0  0  0  0  0  0  0  0  0  0  0
   -2.4580    1.3121   10.6910 C   0  0  0  0  0  0  0  0  0  0  0  0
   -0.9107    0.8976   10.6124 C   0  0  0  0  0  0  0  0  0  0  0  0
   -0.8068   -0.4064   10.6975 C   0  0  0  0  0  0  0  0  0  0  0  0
    0.8231   -0.4789   10.5560 C   0  0  0  0  0  0  0  0  0  0  0  0
    0.9755   -2.0370   10.5744 N   0  0  0  0  0  0  0  0  0  0  0  0
    2.4795   -2.5241   10.5778 C   0  0  0  0  0  0  0  0  0  0  0  0
    2.4250   -4.1513   10.4469 C   0  0  0  0  0  0  0  0  0  0  0  0
    3.8695   -4.5575   10.4891 C   0  0  0  0  0  0  0  0  0  0  0  0
    3.8699   -6.0515   10.2655 N   0  0  0  0  0  0  0  0  0  0  0  0
  1  2  1  0  0  0  0
  2  3  1  0  0  0  0
  3  4  1  0  0  0  0
  4  5  1  0  0  0  0
  5  6  1  0  0  0  0
  6  7  1  0  0  0  0
  7  8  1  0  0  0  0
  8  9  1  0  0  0  0
  9 10  1  0  0  0  0
 10 11  1  0  0  0  0
 11 12  1  0  0  0  0
 12 13  1  0  0  0  0
 13 14  1  0  0  0  0
M  END
>  <CHROM.1>
-62.15758766,-172.40492389,-79.74463082,-156.16981809,-67.57874028,178.84480207
-177.03115008,-175.05478742,-174.50326844,-178.67006242,-175.84505607,-1.12738447
-0.73155463,10.14569786,2.56820742,-0.25276206,0.22259709

>  <Name>
ligand

>  <RI>
0

>  <Rbt.Current_Directory>
/home/itssahil/PROJECTS/Mol_Feturizer/New_Systems/rnas/1FUF

>  <Rbt.Executable>
rbdock ($Id: //depot/dev/client3/rdock/2013.1/src/exe/rbdock.cxx#4 $)

>  <Rbt.Library>
libRbt.so (2013.1, Build901 2013/11/27)

>  <Rbt.Parameter_File>
/export/apps/rDock/src/rDock_2013.1_src/data/scripts/dock_solv.prm

>  <Rbt.Receptor>
prm/blind_docking_60.prm

>  <SCORE>
-2.40827

>  <SCORE.INTER>
0.403623

>  <SCORE.INTER.CONST>
1

>  <SCORE.INTER.POLAR>
0

>  <SCORE.INTER.ROT>
11

>  <SCORE.INTER.SOLV>
17.8538

>  <SCORE.INTER.VDW>
-16.6155

>  <SCORE.INTER.norm>
0.0288302

>  <SCORE.INTRA>
-2.81189

>  <SCORE.INTRA.DIHEDRAL>
-9.27112

>  <SCORE.INTRA.DIHEDRAL.0>
10.5765

>  <SCORE.INTRA.POLAR>
0

>  <SCORE.INTRA.POLAR.0>
0

>  <SCORE.INTRA.REPUL>
0

>  <SCORE.INTRA.REPUL.0>
0

>  <SCORE.INTRA.SOLV>
1.22739

>  <SCORE.INTRA.SOLV.lig_0>
-50.1861

>  <SCORE.INTRA.VDW>
1.20997

>  <SCORE.INTRA.VDW.0>
-1.36671

>  <SCORE.INTRA.norm>
-0.200849

>  <SCORE.RESTR>
0

>  <SCORE.RESTR.CAVITY>
0

>  <SCORE.RESTR.norm>
0

>  <SCORE.SYSTEM>
0

>  <SCORE.SYSTEM.CONST>
0

>  <SCORE.SYSTEM.DIHEDRAL>
0

>  <SCORE.SYSTEM.SOLV>
0

>  <SCORE.SYSTEM.norm>
0

>  <SCORE.heavy>
14

>  <SCORE.norm>
-0.172019

>  <RMSD>
1.983

$$$$
ligand
 OpenBabel11021811393D
libRbt.so/2013.1/901 2013/11/27
 14 13  0  0  0  0  0  0  0  0999 V2000
   -5.4081    1.2857    9.9786 N   0  0  0  0  0  0  0  0  0  0  0  0
   -3.9810    1.6042    9.5313 C   0  0  0  0  0  0  0  0  0  0  0  0
   -3.1101    0.6661   10.2852 C   0  0  0  0  0  0  0  0  0  0  0  0
   -1.6211    0.8561   10.0456 C   0  0  0  0  0  0  0  0  0  0  0  0
   -0.8572   -0.1163   10.8722 N   0  0  0  0  0  0  0  0  0  0  0  0
    0.4816   -0.4323   10.1813 C   0  0  0  0  0  0  0  0  0  0  0  0
    1.0266   -1.6621   11.0546 C   0  0  0  0  0  0  0  0  0  0  0  0
    2.1149   -2.1385   10.5002 C   0  0  0  0  0  0  0  0  0  0  0  0
    2.3950   -3.3137   11.6056 C   0  0  0  0  0  0  0  0  0  0  0  0
    3.6486   -3.9598   10.9255 N   0  0  0  0  0  0  0  0  0  0  0  0
    3.2925   -5.1454    9.9423 C   0  0  0  0  0  0  0  0  0  0  0  0
    4.6674   -6.0087    9.7630 C   0  0  0  0  0  0  0  0  0  0  0  0
    4.3208   -7.0074    8.6973 C   0  0  0  0  0  0  0  0  0  0  0  0
    5.5647   -7.8453    8.5169 N   0  0  0  0  0  0  0  0  0  0  0  0
  1  2  1  0  0  0  0
  2  3  1  0  0  0  0
  3  4  1  0  0  0  0
  4  5  1  0  0  0  0
  5  6  1  0  0  0  0
  6  7  1  0  0  0  0
  7  8  1  0  0  0  0
  8  9  1  0  0  0  0
  9 10  1  0  0  0  0
 10 11  1  0  0  0  0
 11 12  1  0  0  0  0
 12 13  1  0  0  0  0
 13 14  1  0  0  0  0
M  END
>  <CHROM.1>
-177.00046928,178.82233657,152.15739420,-170.22203627,173.68423473,179.50244750
176.88187473,-91.51397887,-160.30978933,-173.16958402,-179.06838901,0.89539025
-2.37255548,10.13570170,2.52853999,-0.46568767,0.64981470

>  <Name>
ligand

>  <RI>
0

>  <Rbt.Current_Directory>
/home/itssahil/PROJECTS/Mol_Feturizer/New_Systems/rnas/1FUF

>  <Rbt.Executable>
rbdock ($Id: //depot/dev/client3/rdock/2013.1/src/exe/rbdock.cxx#4 $)

>  <Rbt.Library>
libRbt.so (2013.1, Build901 2013/11/27)

>  <Rbt.Parameter_File>
/export/apps/rDock/src/rDock_2013.1_src/data/scripts/dock_solv.prm

>  <Rbt.Receptor>
prm/pocket_docking_4.prm

>  <SCORE>
-6.21258

>  <SCORE.INTER>
-1.97458

>  <SCORE.INTER.CONST>
1

>  <SCORE.INTER.POLAR>
0

>  <SCORE.INTER.ROT>
11

>  <SCORE.INTER.SOLV>
17.2854

>  <SCORE.INTER.VDW>
-18.0115

>  <SCORE.INTER.norm>
-0.141041

>  <SCORE.INTRA>
-4.23801

>  <SCORE.INTRA.DIHEDRAL>
-8.62363

>  <SCORE.INTRA.DIHEDRAL.0>
10.5765

>  <SCORE.INTRA.POLAR>
0

>  <SCORE.INTRA.POLAR.0>
0

>  <SCORE.INTRA.REPUL>
0

>  <SCORE.INTRA.REPUL.0>
0

>  <SCORE.INTRA.SOLV>
-0.151274

>  <SCORE.INTRA.SOLV.lig_0>
-50.1861

>  <SCORE.INTRA.VDW>
0.149442

>  <SCORE.INTRA.VDW.0>
-1.36671

>  <SCORE.INTRA.norm>
-0.302715

>  <SCORE.RESTR>
0

>  <SCORE.RESTR.CAVITY>
0

>  <SCORE.RESTR.norm>
0

>  <SCORE.SYSTEM>
0

>  <SCORE.SYSTEM.CONST>
0

>  <SCORE.SYSTEM.DIHEDRAL>
0

>  <SCORE.SYSTEM.SOLV>
0

>  <SCORE.SYSTEM.norm>
0

>  <SCORE.heavy>
14

>  <SCORE.norm>
-0.443756

>  <RMSD>
1.986

$$$$
ligand
 OpenBabel11021811393D
libRbt.so/2013.1/901 2013/11/27
 14 13  0  0  0  0  0  0  0  0999 V2000
    5.5034   -6.9772    8.1113 N   0  0  0  0  0  0  0  0  0  0  0  0
    4.0122   -6.6475    8.0354 C   0  0  0  0  0  0  0  0  0  0  0  0
    3.8869   -5.2568    8.5425 C   0  0  0  0  0  0  0  0  0  0  0  0
    4.2386   -5.0862   10.0114 C   0  0  0  0  0  0  0  0  0  0  0  0
    4.0713   -3.6602   10.3997 N   0  0  0  0  0  0  0  0  0  0  0  0
    2.7117   -3.4778   11.0983 C   0  0  0  0  0  0  0  0  0  0  0  0
    2.1954   -2.0958   10.4697 C   0  0  0  0  0  0  0  0  0  0  0  0
    0.9675   -1.8699   10.8695 C   0  0  0  0  0  0  0  0  0  0  0  0
    0.7523   -0.4698   10.0479 C   0  0  0  0  0  0  0  0  0  0  0  0
   -0.7575   -0.2424   10.3942 N   0  0  0  0  0  0  0  0  0  0  0  0
   -1.5403    0.5808    9.2948 C   0  0  0  0  0  0  0  0  0  0  0  0
   -3.0436    0.8102    9.8908 C   0  0  0  0  0  0  0  0  0  0  0  0
   -3.7438    1.5684    8.8008 C   0  0  0  0  0  0  0  0  0  0  0  0
   -5.1384    1.8208    9.3235 N   0  0  0  0  0  0  0  0  0  0  0  0
  1  2  1  0  0  0  0
  2  3  1  0  0  0  0
  3  4  1  0  0  0  0
  4  5  1  0  0  0  0
  5  6  1  0  0  0  0
  6  7  1  0  0  0  0
  7  8  1  0  0  0  0
  8  9  1  0  0  0  0
  9 10  1  0  0  0  0
 10 11  1  0  0  0  0
 11 12  1  0  0  0  0
 12 13  1  0  0  0  0
 13 14  1  0  0  0  0
M  END
>  <CHROM.1>
-65.72120550,-179.82407671,98.85294905,-138.49377533,173.49667133,-178.61226106
174.83248738,-152.24256762,-175.60304917,-178.94545719,-179.14553767,1.00831113
-2.21452133,9.66358491,0.48462066,0.56679737,-2.28260472

>  <Name>
ligand

>  <RI>
0

>  <Rbt.Current_Directory>
/home/itssahil/PROJECTS/Mol_Feturizer/New_Systems/rnas/1FUF

>  <Rbt.Executable>
rbdock ($Id: //depot/dev/client3/rdock/2013.1/src/exe/rbdock.cxx#4 $)

>  <Rbt.Library>
libRbt.so (2013.1, Build901 2013/11/27)

>  <Rbt.Parameter_File>
/export/apps/rDock/src/rDock_2013.1_src/data/scripts/dock_solv.prm

>  <Rbt.Receptor>
prm/pocket_docking_8.prm

>  <SCORE>
-6.39408

>  <SCORE.INTER>
-3.06538

>  <SCORE.INTER.CONST>
1

>  <SCORE.INTER.POLAR>
0

>  <SCORE.INTER.ROT>
11

>  <SCORE.INTER.SOLV>
14.7194

>  <SCORE.INTER.VDW>
-17.8834

>  <SCORE.INTER.norm>
-0.218956

>  <SCORE.INTRA>
-3.3287

>  <SCORE.INTRA.DIHEDRAL>
-7.8257

>  <SCORE.INTRA.DIHEDRAL.0>
10.5765

>  <SCORE.INTRA.POLAR>
0

>  <SCORE.INTRA.POLAR.0>
0

>  <SCORE.INTRA.REPUL>
0

>  <SCORE.INTRA.REPUL.0>
0

>  <SCORE.INTRA.SOLV>
0.721759

>  <SCORE.INTRA.SOLV.lig_0>
-50.1861

>  <SCORE.INTRA.VDW>
0.22327

>  <SCORE.INTRA.VDW.0>
-1.36671

>  <SCORE.INTRA.norm>
-0.237764

>  <SCORE.RESTR>
0

>  <SCORE.RESTR.CAVITY>
0

>  <SCORE.RESTR.norm>
0

>  <SCORE.SYSTEM>
0

>  <SCORE.SYSTEM.CONST>
0

>  <SCORE.SYSTEM.DIHEDRAL>
0

>  <SCORE.SYSTEM.SOLV>
0

>  <SCORE.SYSTEM.norm>
0

>  <SCORE.heavy>
14

>  <SCORE.norm>
-0.45672

>  <RMSD>
1.987

$$$$
ligand
 OpenBabel11021811393D
libRbt.so/2013.1/901 2013/11/27
 14 13  0  0  0  0  0  0  0  0999 V2000
    5.2958   -7.0549    8.0957 N   0  0  0  0  0  0  0  0  0  0  0  0
    4.1397   -6.2046    8.6233 C   0  0  0  0  0  0  0  0  0  0  0  0
    4.2242   -6.2946   10.1037 C   0  0  0  0  0  0  0  0  0  0  0  0
    3.1910   -5.4634   10.8468 C   0  0  0  0  0  0  0  0  0  0  0  0
    3.4088   -4.0218   10.5529 N   0  0  0  0  0  0  0  0  0  0  0  0
    2.5921   -3.1704   11.5418 C   0  0  0  0  0  0  0  0  0  0  0  0
    1.8792   -2.1161   10.5659 C   0  0  0  0  0  0  0  0  0  0  0  0
    1.0000   -1.4217   11.2466 C   0  0  0  0  0  0  0  0  0  0  0  0
    0.4856   -0.4901   10.0019 C   0  0  0  0  0  0  0  0  0  0  0  0
   -0.7390    0.1739   10.7166 N   0  0  0  0  0  0  0  0  0  0  0  0
   -1.8738    0.6416    9.7203 C   0  0  0  0  0  0  0  0  0  0  0  0
   -2.8551    1.6203   10.5847 C   0  0  0  0  0  0  0  0  0  0  0  0
   -3.8766    2.0714    9.5815 C   0  0  0  0  0  0  0  0  0  0  0  0
   -4.7809    0.8800    9.3704 N   0  0  0  0  0  0  0  0  0  0  0  0
  1  2  1  0  0  0  0
  2  3  1  0  0  0  0
  3  4  1  0  0  0  0
  4  5  1  0  0  0  0
  5  6  1  0  0  0  0
  6  7  1  0  0  0  0
  7  8  1  0  0  0  0
  8  9  1  0  0  0  0
  9 10  1  0  0  0  0
 10 11  1  0  0  0  0
 11 12  1  0  0  0  0
 12 13  1  0  0  0  0
 13 14  1  0  0  0  0
M  END
>  <CHROM.1>
177.46789367,-63.24780969,-166.96259840,-132.48264243,171.70337760,-179.93281611
170.49433919,-154.14060443,-166.12816635,177.96889000,74.60104421,0.86368932
-2.20346950,10.11103506,0.50414816,0.61867534,-2.28129956

>  <Name>
ligand

>  <RI>
0

>  <Rbt.Current_Directory>
/home/itssahil/PROJECTS/Mol_Feturizer/New_Systems/rnas/1FUF

>  <Rbt.Executable>
rbdock ($Id: //depot/dev/client3/rdock/2013.1/src/exe/rbdock.cxx#4 $)

>  <Rbt.Library>
libRbt.so (2013.1, Build901 2013/11/27)

>  <Rbt.Parameter_File>
/export/apps/rDock/src/rDock_2013.1_src/data/scripts/dock_solv.prm

>  <Rbt.Receptor>
prm/pocket_docking_3.prm

>  <SCORE>
-5.5086

>  <SCORE.INTER>
-2.70343

>  <SCORE.INTER.CONST>
1

>  <SCORE.INTER.POLAR>
0

>  <SCORE.INTER.ROT>
11

>  <SCORE.INTER.SOLV>
15.736

>  <SCORE.INTER.VDW>
-17.981

>  <SCORE.INTER.norm>
-0.193102

>  <SCORE.INTRA>
-2.80517

>  <SCORE.INTRA.DIHEDRAL>
-7.30441

>  <SCORE.INTRA.DIHEDRAL.0>
10.5765

>  <SCORE.INTRA.POLAR>
0

>  <SCORE.INTRA.POLAR.0>
0

>  <SCORE.INTRA.REPUL>
0

>  <SCORE.INTRA.REPUL.0>
0

>  <SCORE.INTRA.SOLV>
1.08624

>  <SCORE.INTRA.SOLV.lig_0>
-50.1861

>  <SCORE.INTRA.VDW>
0.303912

>  <SCORE.INTRA.VDW.0>
-1.36671

>  <SCORE.INTRA.norm>
-0.200369

>  <SCORE.RESTR>
0

>  <SCORE.RESTR.CAVITY>
0

>  <SCORE.RESTR.norm>
0

>  <SCORE.SYSTEM>
0

>  <SCORE.SYSTEM.CONST>
0

>  <SCORE.SYSTEM.DIHEDRAL>
0

>  <SCORE.SYSTEM.SOLV>
0

>  <SCORE.SYSTEM.norm>
0

>  <SCORE.heavy>
14

>  <SCORE.norm>
-0.393471

>  <RMSD>
1.988

$$$$
ligand
 OpenBabel11021811393D
libRbt.so/2013.1/901 2013/11/27
 14 13  0  0  0  0  0  0  0  0999 V2000
    5.3807   -6.6439    8.1334 N   0  0  0  0  0  0  0  0  0  0  0  0
    3.9834   -6.8359    8.7238 C   0  0  0  0  0  0  0  0  0  0  0  0
    3.8328   -5.7659    9.7432 C   0  0  0  0  0  0  0  0  0  0  0  0
    2.4792   -5.7383   10.4344 C   0  0  0  0  0  0  0  0  0  0  0  0
    2.3270   -4.4587   11.1772 N   0  0  0  0  0  0  0  0  0  0  0  0
    2.1108   -3.3099   10.1756 C   0  0  0  0  0  0  0  0  0  0  0  0
    2.0823   -2.0277   11.1384 C   0  0  0  0  0  0  0  0  0  0  0  0
    0.8421   -1.7629   11.4707 C   0  0  0  0  0  0  0  0  0  0  0  0
    0.5192   -0.7553   10.2208 C   0  0  0  0  0  0  0  0  0  0  0  0
   -0.9563   -0.3975   10.6034 N   0  0  0  0  0  0  0  0  0  0  0  0
   -1.6475    0.5987    9.5890 C   0  0  0  0  0  0  0  0  0  0  0  0
   -3.2061    0.7137   10.0638 C   0  0  0  0  0  0  0  0  0  0  0  0
   -3.8213    1.6217    9.0391 C   0  0  0  0  0  0  0  0  0  0  0  0
   -5.2804    1.7191    9.4178 N   0  0  0  0  0  0  0  0  0  0  0  0
  1  2  1  0  0  0  0
  2  3  1  0  0  0  0
  3  4  1  0  0  0  0
  4  5  1  0  0  0  0
  5  6  1  0  0  0  0
  6  7  1  0  0  0  0
  7  8  1  0  0  0  0
  8  9  1  0  0  0  0
  9 10  1  0  0  0  0
 10 11  1  0  0  0  0
 11 12  1  0  0  0  0
 12 13  1  0  0  0  0
 13 14  1  0  0  0  0
M  END
>  <CHROM.1>
178.03847012,-166.58753823,72.47012408,-175.89513475,-93.09099425,-89.90448057
-179.02763136,-179.90421056,173.93403705,-177.80410779,178.22093782,0.61766137
-2.36016633,9.99512902,0.44269547,0.65292905,-2.20131298

>  <Name>
ligand

>  <RI>
0

>  <Rbt.Current_Directory>
/home/itssahil/PROJECTS/Mol_Feturizer/New_Systems/rnas/1FUF

>  <Rbt.Executable>
rbdock ($Id: //depot/dev/client3/rdock/2013.1/src/exe/rbdock.cxx#4 $)

>  <Rbt.Library>
libRbt.so (2013.1, Build901 2013/11/27)

>  <Rbt.Parameter_File>
/export/apps/rDock/src/rDock_2013.1_src/data/scripts/dock_solv.prm

>  <Rbt.Receptor>
prm/pocket_docking_4.prm

>  <SCORE>
-2.33505

>  <SCORE.INTER>
-2.55072

>  <SCORE.INTER.CONST>
1

>  <SCORE.INTER.POLAR>
0

>  <SCORE.INTER.ROT>
11

>  <SCORE.INTER.SOLV>
15.0101

>  <SCORE.INTER.VDW>
-17.6372

>  <SCORE.INTER.norm>
-0.182195

>  <SCORE.INTRA>
0.21567

>  <SCORE.INTRA.DIHEDRAL>
-3.4584

>  <SCORE.INTRA.DIHEDRAL.0>
10.5765

>  <SCORE.INTRA.POLAR>
0

>  <SCORE.INTRA.POLAR.0>
0

>  <SCORE.INTRA.REPUL>
0

>  <SCORE.INTRA.REPUL.0>
0

>  <SCORE.INTRA.SOLV>
0.377709

>  <SCORE.INTRA.SOLV.lig_0>
-50.1861

>  <SCORE.INTRA.VDW>
1.75601

>  <SCORE.INTRA.VDW.0>
-1.36671

>  <SCORE.INTRA.norm>
0.015405

>  <SCORE.RESTR>
0

>  <SCORE.RESTR.CAVITY>
0

>  <SCORE.RESTR.norm>
0

>  <SCORE.SYSTEM>
0

>  <SCORE.SYSTEM.CONST>
0

>  <SCORE.SYSTEM.DIHEDRAL>
0

>  <SCORE.SYSTEM.SOLV>
0

>  <SCORE.SYSTEM.norm>
0

>  <SCORE.heavy>
14

>  <SCORE.norm>
-0.166789

>  <RMSD>
1.988

$$$$
ligand
 OpenBabel11021811393D
libRbt.so/2013.1/901 2013/11/27
 14 13  0  0  0  0  0  0  0  0999 V2000
    4.3229   -4.5051    9.4395 N   0  0  0  0  0  0  0  0  0  0  0  0
    4.0885   -4.0712   10.8869 C   0  0  0  0  0  0  0  0  0  0  0  0
    2.7257   -4.5525   11.2299 C   0  0  0  0  0  0  0  0  0  0  0  0
    1.6002   -3.8278   10.5096 C   0  0  0  0  0  0  0  0  0  0  0  0
    1.5300   -2.4209   10.9870 N   0  0  0  0  0  0  0  0  0  0  0  0
    0.1342   -1.8477   10.6820 C   0  0  0  0  0  0  0  0  0  0  0  0
    0.4869   -0.3819   10.1352 C   0  0  0  0  0  0  0  0  0  0  0  0
   -0.5899    0.1582    9.6181 C   0  0  0  0  0  0  0  0  0  0  0  0
   -1.0617    0.9692   10.9603 C   0  0  0  0  0  0  0  0  0  0  0  0
   -2.1741    1.8531   10.3025 N   0  0  0  0  0  0  0  0  0  0  0  0
   -3.5748    1.1283   10.1949 C   0  0  0  0  0  0  0  0  0  0  0  0
   -4.5403    2.1395    9.3504 C   0  0  0  0  0  0  0  0  0  0  0  0
   -3.9489    2.1224    7.9709 C   0  0  0  0  0  0  0  0  0  0  0  0
   -4.8103    3.0587    7.1565 N   0  0  0  0  0  0  0  0  0  0  0  0
  1  2  1  0  0  0  0
  2  3  1  0  0  0  0
  3  4  1  0  0  0  0
  4  5  1  0  0  0  0
  5  6  1  0  0  0  0
  6  7  1  0  0  0  0
  7  8  1  0  0  0  0
  8  9  1  0  0  0  0
  9 10  1  0  0  0  0
 10 11  1  0  0  0  0
 11 12  1  0  0  0  0
 12 13  1  0  0  0  0
 13 14  1  0  0  0  0
M  END
>  <CHROM.1>
-69.23873414,-67.53088293,-159.32695612,-137.07035442,169.42529484,94.34935812
169.06479962,84.72726919,-174.14152198,68.26324470,-179.55465227,-0.41517152
-0.72708400,9.95902823,-0.13311448,0.73420769,-1.65046989

>  <Name>
ligand

>  <RI>
0

>  <Rbt.Current_Directory>
/home/itssahil/PROJECTS/Mol_Feturizer/New_Systems/rnas/1FUF

>  <Rbt.Executable>
rbdock ($Id: //depot/dev/client3/rdock/2013.1/src/exe/rbdock.cxx#4 $)

>  <Rbt.Library>
libRbt.so (2013.1, Build901 2013/11/27)

>  <Rbt.Parameter_File>
/export/apps/rDock/src/rDock_2013.1_src/data/scripts/dock_solv.prm

>  <Rbt.Receptor>
prm/blind_docking_40.prm

>  <SCORE>
-0.32595

>  <SCORE.INTER>
-0.841299

>  <SCORE.INTER.CONST>
1

>  <SCORE.INTER.POLAR>
0

>  <SCORE.INTER.ROT>
11

>  <SCORE.INTER.SOLV>
16.7836

>  <SCORE.INTER.VDW>
-17.0887

>  <SCORE.INTER.norm>
-0.0600928

>  <SCORE.INTRA>
0.515349

>  <SCORE.INTRA.DIHEDRAL>
-3.43068

>  <SCORE.INTRA.DIHEDRAL.0>
10.5765

>  <SCORE.INTRA.POLAR>
0

>  <SCORE.INTRA.POLAR.0>
0

>  <SCORE.INTRA.REPUL>
0

>  <SCORE.INTRA.REPUL.0>
0

>  <SCORE.INTRA.SOLV>
2.22997

>  <SCORE.INTRA.SOLV.lig_0>
-50.1861

>  <SCORE.INTRA.VDW>
1.11571

>  <SCORE.INTRA.VDW.0>
-1.36671

>  <SCORE.INTRA.norm>
0.0368106

>  <SCORE.RESTR>
0

>  <SCORE.RESTR.CAVITY>
0

>  <SCORE.RESTR.norm>
0

>  <SCORE.SYSTEM>
0

>  <SCORE.SYSTEM.CONST>
0

>  <SCORE.SYSTEM.DIHEDRAL>
0

>  <SCORE.SYSTEM.SOLV>
0

>  <SCORE.SYSTEM.norm>
0

>  <SCORE.heavy>
14

>  <SCORE.norm>
-0.0232821

>  <RMSD>
1.991

$$$$
ligand
 OpenBabel11021811393D
libRbt.so/2013.1/901 2013/11/27
 14 13  0  0  0  0  0  0  0  0999 V2000
    4.3526   -5.2959   10.0221 N   0  0  0  0  0  0  0  0  0  0  0  0
    3.0311   -4.6043   10.3585 C   0  0  0  0  0  0  0  0  0  0  0  0
    3.4080   -3.3126   10.9879 C   0  0  0  0  0  0  0  0  0  0  0  0
    2.2320   -2.4740   11.4615 C   0  0  0  0  0  0  0  0  0  0  0  0
    1.4201   -2.0507   10.2894 N   0  0  0  0  0  0  0  0  0  0  0  0
    0.0693   -1.4969   10.7776 C   0  0  0  0  0  0  0  0  0  0  0  0
    0.1939    0.0595   10.4116 C   0  0  0  0  0  0  0  0  0  0  0  0
   -0.8887    0.6851   10.8052 C   0  0  0  0  0  0  0  0  0  0  0  0
   -1.6607    0.6606    9.3612 C   0  0  0  0  0  0  0  0  0  0  0  0
   -2.9350    1.4679    9.7802 N   0  0  0  0  0  0  0  0  0  0  0  0
   -3.7575    2.0307    8.5530 C   0  0  0  0  0  0  0  0  0  0  0  0
   -5.1299    2.6556    9.1805 C   0  0  0  0  0  0  0  0  0  0  0  0
   -5.8576    3.1863    7.9798 C   0  0  0  0  0  0  0  0  0  0  0  0
   -7.1627    3.7292    8.5126 N   0  0  0  0  0  0  0  0  0  0  0  0
  1  2  1  0  0  0  0
  2  3  1  0  0  0  0
  3  4  1  0  0  0  0
  4  5  1  0  0  0  0
  5  6  1  0  0  0  0
  6  7  1  0  0  0  0
  7  8  1  0  0  0  0
  8  9  1  0  0  0  0
  9 10  1  0  0  0  0
 10 11  1  0  0  0  0
 11 12  1  0  0  0  0
 12 13  1  0  0  0  0
 13 14  1  0  0  0  0
M  END
>  <CHROM.1>
-177.56024097,-64.90086246,166.70600179,111.92081334,-178.39151419,-96.81778289
-177.31082938,163.08738854,172.62327780,179.32605482,177.92502114,-0.90599653
-0.33988472,9.89158312,0.33225114,0.61175761,-2.39356053

>  <Name>
ligand

>  <RI>
0

>  <Rbt.Current_Directory>
/home/itssahil/PROJECTS/Mol_Feturizer/New_Systems/rnas/1FUF

>  <Rbt.Executable>
rbdock ($Id: //depot/dev/client3/rdock/2013.1/src/exe/rbdock.cxx#4 $)

>  <Rbt.Library>
libRbt.so (2013.1, Build901 2013/11/27)

>  <Rbt.Parameter_File>
/export/apps/rDock/src/rDock_2013.1_src/data/scripts/dock_solv.prm

>  <Rbt.Receptor>
prm/blind_docking_80.prm

>  <SCORE>
-3.0873

>  <SCORE.INTER>
-1.59352

>  <SCORE.INTER.CONST>
1

>  <SCORE.INTER.POLAR>
0

>  <SCORE.INTER.ROT>
11

>  <SCORE.INTER.SOLV>
16.1899

>  <SCORE.INTER.VDW>
-17.3923

>  <SCORE.INTER.norm>
-0.113823

>  <SCORE.INTRA>
-1.49377

>  <SCORE.INTRA.DIHEDRAL>
-4.72805

>  <SCORE.INTRA.DIHEDRAL.0>
10.5765

>  <SCORE.INTRA.POLAR>
0

>  <SCORE.INTRA.POLAR.0>
0

>  <SCORE.INTRA.REPUL>
0

>  <SCORE.INTRA.REPUL.0>
0

>  <SCORE.INTRA.SOLV>
0.472122

>  <SCORE.INTRA.SOLV.lig_0>
-50.1861

>  <SCORE.INTRA.VDW>
0.634188

>  <SCORE.INTRA.VDW.0>
-1.36671

>  <SCORE.INTRA.norm>
-0.106698

>  <SCORE.RESTR>
0

>  <SCORE.RESTR.CAVITY>
0

>  <SCORE.RESTR.norm>
0

>  <SCORE.SYSTEM>
0

>  <SCORE.SYSTEM.CONST>
0

>  <SCORE.SYSTEM.DIHEDRAL>
0

>  <SCORE.SYSTEM.SOLV>
0

>  <SCORE.SYSTEM.norm>
0

>  <SCORE.heavy>
14

>  <SCORE.norm>
-0.220521

>  <RMSD>
1.996

$$$$
ligand
 OpenBabel11021811393D
libRbt.so/2013.1/901 2013/11/27
 14 13  0  0  0  0  0  0  0  0999 V2000
   -4.1754    2.3825    7.5284 N   0  0  0  0  0  0  0  0  0  0  0  0
   -2.8907    2.1026    8.3090 C   0  0  0  0  0  0  0  0  0  0  0  0
   -3.3313    1.5227    9.6037 C   0  0  0  0  0  0  0  0  0  0  0  0
   -2.2089    1.2715   10.5976 C   0  0  0  0  0  0  0  0  0  0  0  0
   -1.2857    0.2399   10.0538 N   0  0  0  0  0  0  0  0  0  0  0  0
   -0.5014   -0.4040   11.2114 C   0  0  0  0  0  0  0  0  0  0  0  0
    0.7195   -1.1020   10.4406 C   0  0  0  0  0  0  0  0  0  0  0  0
    1.4960   -1.7004   11.3111 C   0  0  0  0  0  0  0  0  0  0  0  0
    2.5760   -2.2911   10.2311 C   0  0  0  0  0  0  0  0  0  0  0  0
    3.5174   -3.0269   11.2428 N   0  0  0  0  0  0  0  0  0  0  0  0
    4.3191   -4.2282   10.5998 C   0  0  0  0  0  0  0  0  0  0  0  0
    3.2764   -5.4841   10.5417 C   0  0  0  0  0  0  0  0  0  0  0  0
    4.1256   -6.6263   10.0646 C   0  0  0  0  0  0  0  0  0  0  0  0
    4.4838   -6.2873    8.6369 N   0  0  0  0  0  0  0  0  0  0  0  0
  1  2  1  0  0  0  0
  2  3  1  0  0  0  0
  3  4  1  0  0  0  0
  4  5  1  0  0  0  0
  5  6  1  0  0  0  0
  6  7  1  0  0  0  0
  7  8  1  0  0  0  0
  8  9  1  0  0  0  0
  9 10  1  0  0  0  0
 10 11  1  0  0  0  0
 11 12  1  0  0  0  0
 12 13  1  0  0  0  0
 13 14  1  0  0  0  0
M  END
>  <CHROM.1>
-175.11738555,-64.38862071,-158.30176323,-162.70041690,179.74924016,179.45276144
-179.53948262,154.72333131,-79.85385489,-174.17613169,-67.92382729,0.72292189
-1.68795054,10.02688061,2.84951451,-0.74301402,1.00641812

>  <Name>
ligand

>  <RI>
0

>  <Rbt.Current_Directory>
/home/itssahil/PROJECTS/Mol_Feturizer/New_Systems/rnas/1FUF

>  <Rbt.Executable>
rbdock ($Id: //depot/dev/client3/rdock/2013.1/src/exe/rbdock.cxx#4 $)

>  <Rbt.Library>
libRbt.so (2013.1, Build901 2013/11/27)

>  <Rbt.Parameter_File>
/export/apps/rDock/src/rDock_2013.1_src/data/scripts/dock_solv.prm

>  <Rbt.Receptor>
prm/pocket_docking_4.prm

>  <SCORE>
-5.40339

>  <SCORE.INTER>
-2.186

>  <SCORE.INTER.CONST>
1

>  <SCORE.INTER.POLAR>
0

>  <SCORE.INTER.ROT>
11

>  <SCORE.INTER.SOLV>
17.0094

>  <SCORE.INTER.VDW>
-18.0605

>  <SCORE.INTER.norm>
-0.156143

>  <SCORE.INTRA>
-3.21739

>  <SCORE.INTRA.DIHEDRAL>
-8.72418

>  <SCORE.INTRA.DIHEDRAL.0>
10.5765

>  <SCORE.INTRA.POLAR>
0

>  <SCORE.INTRA.POLAR.0>
0

>  <SCORE.INTRA.REPUL>
0

>  <SCORE.INTRA.REPUL.0>
0

>  <SCORE.INTRA.SOLV>
1.13201

>  <SCORE.INTRA.SOLV.lig_0>
-50.1861

>  <SCORE.INTRA.VDW>
0.5787

>  <SCORE.INTRA.VDW.0>
-1.36671

>  <SCORE.INTRA.norm>
-0.229813

>  <SCORE.RESTR>
0

>  <SCORE.RESTR.CAVITY>
0

>  <SCORE.RESTR.norm>
0

>  <SCORE.SYSTEM>
0

>  <SCORE.SYSTEM.CONST>
0

>  <SCORE.SYSTEM.DIHEDRAL>
0

>  <SCORE.SYSTEM.SOLV>
0

>  <SCORE.SYSTEM.norm>
0

>  <SCORE.heavy>
14

>  <SCORE.norm>
-0.385956

>  <RMSD>
1.997

$$$$
ligand
 OpenBabel11021811393D
libRbt.so/2013.1/901 2013/11/27
 14 13  0  0  0  0  0  0  0  0999 V2000
   -5.0038    1.2641   10.3430 N   0  0  0  0  0  0  0  0  0  0  0  0
   -3.9905    1.9120    9.3987 C   0  0  0  0  0  0  0  0  0  0  0  0
   -2.6650    1.7053   10.0366 C   0  0  0  0  0  0  0  0  0  0  0  0
   -2.2525    0.2492   10.1781 C   0  0  0  0  0  0  0  0  0  0  0  0
   -0.8512    0.1757   10.6714 N   0  0  0  0  0  0  0  0  0  0  0  0
   -0.5017   -1.2872   10.9993 C   0  0  0  0  0  0  0  0  0  0  0  0
    1.0524   -1.3552   10.6094 C   0  0  0  0  0  0  0  0  0  0  0  0
    1.4796   -2.5871   10.7452 C   0  0  0  0  0  0  0  0  0  0  0  0
    3.0513   -2.2848   10.3987 C   0  0  0  0  0  0  0  0  0  0  0  0
    3.6079   -3.7303   10.6266 N   0  0  0  0  0  0  0  0  0  0  0  0
    3.7713   -4.5615    9.2919 C   0  0  0  0  0  0  0  0  0  0  0  0
    3.7366   -6.1334    9.7344 C   0  0  0  0  0  0  0  0  0  0  0  0
    3.9490   -6.8686    8.4431 C   0  0  0  0  0  0  0  0  0  0  0  0
    5.4075   -6.6674    8.1053 N   0  0  0  0  0  0  0  0  0  0  0  0
  1  2  1  0  0  0  0
  2  3  1  0  0  0  0
  3  4  1  0  0  0  0
  4  5  1  0  0  0  0
  5  6  1  0  0  0  0
  6  7  1  0  0  0  0
  7  8  1  0  0  0  0
  8  9  1  0  0  0  0
  9 10  1  0  0  0  0
 10 11  1  0  0  0  0
 11 12  1  0  0  0  0
 12 13  1  0  0  0  0
 13 14  1  0  0  0  0
M  END
>  <CHROM.1>
63.24907434,173.12434952,172.21944399,146.03749885,-175.45347325,-175.91109821
177.17206291,97.90856169,-156.86786759,-177.85183614,73.17755252,0.77078257
-2.15490883,9.97013952,2.49028076,-0.39907006,0.61502548

>  <Name>
ligand

>  <RI>
0

>  <Rbt.Current_Directory>
/home/itssahil/PROJECTS/Mol_Feturizer/New_Systems/rnas/1FUF

>  <Rbt.Executable>
rbdock ($Id: //depot/dev/client3/rdock/2013.1/src/exe/rbdock.cxx#4 $)

>  <Rbt.Library>
libRbt.so (2013.1, Build901 2013/11/27)

>  <Rbt.Parameter_File>
/export/apps/rDock/src/rDock_2013.1_src/data/scripts/dock_solv.prm

>  <Rbt.Receptor>
prm/pocket_docking_5.prm

>  <SCORE>
-4.8144

>  <SCORE.INTER>
-2.362

>  <SCORE.INTER.CONST>
1

>  <SCORE.INTER.POLAR>
0

>  <SCORE.INTER.ROT>
11

>  <SCORE.INTER.SOLV>
15.8771

>  <SCORE.INTER.VDW>
-17.8004

>  <SCORE.INTER.norm>
-0.168714

>  <SCORE.INTRA>
-2.4524

>  <SCORE.INTRA.DIHEDRAL>
-7.53006

>  <SCORE.INTRA.DIHEDRAL.0>
10.5765

>  <SCORE.INTRA.POLAR>
0

>  <SCORE.INTRA.POLAR.0>
0

>  <SCORE.INTRA.REPUL>
0

>  <SCORE.INTRA.REPUL.0>
0

>  <SCORE.INTRA.SOLV>
1.62371

>  <SCORE.INTRA.SOLV.lig_0>
-50.1861

>  <SCORE.INTRA.VDW>
0.50078

>  <SCORE.INTRA.VDW.0>
-1.36671

>  <SCORE.INTRA.norm>
-0.175171

>  <SCORE.RESTR>
0

>  <SCORE.RESTR.CAVITY>
0

>  <SCORE.RESTR.norm>
0

>  <SCORE.SYSTEM>
0

>  <SCORE.SYSTEM.CONST>
0

>  <SCORE.SYSTEM.DIHEDRAL>
0

>  <SCORE.SYSTEM.SOLV>
0

>  <SCORE.SYSTEM.norm>
0

>  <SCORE.heavy>
14

>  <SCORE.norm>
-0.343885

>  <RMSD>
1.997

$$$$
ligand
 OpenBabel11021811393D
libRbt.so/2013.1/901 2013/11/27
 14 13  0  0  0  0  0  0  0  0999 V2000
    2.2249   -6.6059   11.4172 N   0  0  0  0  0  0  0  0  0  0  0  0
    3.5008   -6.2438   10.6563 C   0  0  0  0  0  0  0  0  0  0  0  0
    3.2734   -4.8737   10.1293 C   0  0  0  0  0  0  0  0  0  0  0  0
    3.2062   -3.7908   11.1939 C   0  0  0  0  0  0  0  0  0  0  0  0
    2.8181   -2.4999   10.5653 N   0  0  0  0  0  0  0  0  0  0  0  0
    1.2829   -2.4029   10.5051 C   0  0  0  0  0  0  0  0  0  0  0  0
    0.9895   -1.1470   11.4582 C   0  0  0  0  0  0  0  0  0  0  0  0
   -0.3057   -0.9679   11.5524 C   0  0  0  0  0  0  0  0  0  0  0  0
   -0.4512    0.0552   10.2819 C   0  0  0  0  0  0  0  0  0  0  0  0
   -1.9959    0.2950   10.3695 N   0  0  0  0  0  0  0  0  0  0  0  0
   -2.5515    1.2496    9.2384 C   0  0  0  0  0  0  0  0  0  0  0  0
   -4.1231    1.5079    9.6006 C   0  0  0  0  0  0  0  0  0  0  0  0
   -4.6035    2.3861    8.4820 C   0  0  0  0  0  0  0  0  0  0  0  0
   -6.0822    2.5721    8.7284 N   0  0  0  0  0  0  0  0  0  0  0  0
  1  2  1  0  0  0  0
  2  3  1  0  0  0  0
  3  4  1  0  0  0  0
  4  5  1  0  0  0  0
  5  6  1  0  0  0  0
  6  7  1  0  0  0  0
  7  8  1  0  0  0  0
  8  9  1  0  0  0  0
  9 10  1  0  0  0  0
 10 11  1  0  0  0  0
 11 12  1  0  0  0  0
 12 13  1  0  0  0  0
 13 14  1  0  0  0  0
M  END
>  <CHROM.1>
68.04811651,-173.36980968,86.83477676,116.18205596,-177.48109117,-90.34373194
-179.80061664,-178.72778744,-173.68844006,-178.64047256,176.22164622,-0.20100927
-1.46180991,10.29846992,0.70746422,0.33855534,-3.01614964

>  <Name>
ligand

>  <RI>
0

>  <Rbt.Current_Directory>
/home/itssahil/PROJECTS/Mol_Feturizer/New_Systems/rnas/1FUF

>  <Rbt.Executable>
rbdock ($Id: //depot/dev/client3/rdock/2013.1/src/exe/rbdock.cxx#4 $)

>  <Rbt.Library>
libRbt.so (2013.1, Build901 2013/11/27)

>  <Rbt.Parameter_File>
/export/apps/rDock/src/rDock_2013.1_src/data/scripts/dock_solv.prm

>  <Rbt.Receptor>
prm/pocket_docking_4.prm

>  <SCORE>
-2.53182

>  <SCORE.INTER>
-1.8921

>  <SCORE.INTER.CONST>
1

>  <SCORE.INTER.POLAR>
0

>  <SCORE.INTER.ROT>
11

>  <SCORE.INTER.SOLV>
18.287

>  <SCORE.INTER.VDW>
-18.2904

>  <SCORE.INTER.norm>
-0.13515

>  <SCORE.INTRA>
-0.639719

>  <SCORE.INTRA.DIHEDRAL>
-5.24749

>  <SCORE.INTRA.DIHEDRAL.0>
10.5765

>  <SCORE.INTRA.POLAR>
0

>  <SCORE.INTRA.POLAR.0>
0

>  <SCORE.INTRA.REPUL>
0

>  <SCORE.INTRA.REPUL.0>
0

>  <SCORE.INTRA.SOLV>
1.32124

>  <SCORE.INTRA.SOLV.lig_0>
-50.1861

>  <SCORE.INTRA.VDW>
1.3234

>  <SCORE.INTRA.VDW.0>
-1.36671

>  <SCORE.INTRA.norm>
-0.0456942

>  <SCORE.RESTR>
0

>  <SCORE.RESTR.CAVITY>
0

>  <SCORE.RESTR.norm>
0

>  <SCORE.SYSTEM>
0

>  <SCORE.SYSTEM.CONST>
0

>  <SCORE.SYSTEM.DIHEDRAL>
0

>  <SCORE.SYSTEM.SOLV>
0

>  <SCORE.SYSTEM.norm>
0

>  <SCORE.heavy>
14

>  <SCORE.norm>
-0.180844

>  <RMSD>
2.002

$$$$
ligand
 OpenBabel11021811393D
libRbt.so/2013.1/901 2013/11/27
 14 13  0  0  0  0  0  0  0  0999 V2000
   -6.8583    3.0022    8.7565 N   0  0  0  0  0  0  0  0  0  0  0  0
   -5.5578    2.3037    9.1551 C   0  0  0  0  0  0  0  0  0  0  0  0
   -4.5492    2.7430    8.1570 C   0  0  0  0  0  0  0  0  0  0  0  0
   -3.2282    1.9938    8.2223 C   0  0  0  0  0  0  0  0  0  0  0  0
   -2.6207    2.1749    9.5678 N   0  0  0  0  0  0  0  0  0  0  0  0
   -2.6070    0.8248   10.3073 C   0  0  0  0  0  0  0  0  0  0  0  0
   -1.0587    0.4148   10.2263 C   0  0  0  0  0  0  0  0  0  0  0  0
   -0.8812   -0.7305   10.8390 C   0  0  0  0  0  0  0  0  0  0  0  0
    0.7187   -0.8731   10.5201 C   0  0  0  0  0  0  0  0  0  0  0  0
    0.9773   -2.2113   11.2908 N   0  0  0  0  0  0  0  0  0  0  0  0
    2.5104   -2.5633   11.4475 C   0  0  0  0  0  0  0  0  0  0  0  0
    2.8192   -3.7273   10.3440 C   0  0  0  0  0  0  0  0  0  0  0  0
    4.2456   -4.1052   10.6191 C   0  0  0  0  0  0  0  0  0  0  0  0
    4.5706   -5.1893    9.6186 N   0  0  0  0  0  0  0  0  0  0  0  0
  1  2  1  0  0  0  0
  2  3  1  0  0  0  0
  3  4  1  0  0  0  0
  4  5  1  0  0  0  0
  5  6  1  0  0  0  0
  6  7  1  0  0  0  0
  7  8  1  0  0  0  0
  8  9  1  0  0  0  0
  9 10  1  0  0  0  0
 10 11  1  0  0  0  0
 11 12  1  0  0  0  0
 12 13  1  0  0  0  0
 13 14  1  0  0  0  0
M  END
>  <CHROM.1>
-170.47523579,-59.65802572,113.17583163,105.61811808,179.27332760,177.70436902
177.88085657,-169.20232023,-102.97288495,-175.17888892,179.75758456,-0.82272846
-0.42443437,9.93374076,-3.03243280,-0.65747170,1.48848232

>  <Name>
ligand

>  <RI>
0

>  <Rbt.Current_Directory>
/home/itssahil/PROJECTS/Mol_Feturizer/New_Systems/rnas/1FUF

>  <Rbt.Executable>
rbdock ($Id: //depot/dev/client3/rdock/2013.1/src/exe/rbdock.cxx#4 $)

>  <Rbt.Library>
libRbt.so (2013.1, Build901 2013/11/27)

>  <Rbt.Parameter_File>
/export/apps/rDock/src/rDock_2013.1_src/data/scripts/dock_solv.prm

>  <Rbt.Receptor>
prm/pocket_docking_5.prm

>  <SCORE>
-4.57357

>  <SCORE.INTER>
-1.4943

>  <SCORE.INTER.CONST>
1

>  <SCORE.INTER.POLAR>
0

>  <SCORE.INTER.ROT>
11

>  <SCORE.INTER.SOLV>
15.1706

>  <SCORE.INTER.VDW>
-16.9864

>  <SCORE.INTER.norm>
-0.106736

>  <SCORE.INTRA>
-3.07927

>  <SCORE.INTRA.DIHEDRAL>
-6.84094

>  <SCORE.INTRA.DIHEDRAL.0>
10.5765

>  <SCORE.INTRA.POLAR>
0

>  <SCORE.INTRA.POLAR.0>
0

>  <SCORE.INTRA.REPUL>
0

>  <SCORE.INTRA.REPUL.0>
0

>  <SCORE.INTRA.SOLV>
0.217731

>  <SCORE.INTRA.SOLV.lig_0>
-50.1861

>  <SCORE.INTRA.VDW>
0.232337

>  <SCORE.INTRA.VDW.0>
-1.36671

>  <SCORE.INTRA.norm>
-0.219948

>  <SCORE.RESTR>
0

>  <SCORE.RESTR.CAVITY>
0

>  <SCORE.RESTR.norm>
0

>  <SCORE.SYSTEM>
0

>  <SCORE.SYSTEM.CONST>
0

>  <SCORE.SYSTEM.DIHEDRAL>
0

>  <SCORE.SYSTEM.SOLV>
0

>  <SCORE.SYSTEM.norm>
0

>  <SCORE.heavy>
14

>  <SCORE.norm>
-0.326683

>  <RMSD>
2.003

$$$$
ligand
 OpenBabel11021811393D
libRbt.so/2013.1/901 2013/11/27
 14 13  0  0  0  0  0  0  0  0999 V2000
    4.7418   -7.0851    8.7429 N   0  0  0  0  0  0  0  0  0  0  0  0
    4.1816   -5.7897    8.1544 C   0  0  0  0  0  0  0  0  0  0  0  0
    4.9285   -4.6940    8.8240 C   0  0  0  0  0  0  0  0  0  0  0  0
    4.6333   -4.5432   10.3074 C   0  0  0  0  0  0  0  0  0  0  0  0
    3.2266   -4.0961   10.4908 N   0  0  0  0  0  0  0  0  0  0  0  0
    3.1493   -2.5690   10.3130 C   0  0  0  0  0  0  0  0  0  0  0  0
    1.6010   -2.2756   10.6108 C   0  0  0  0  0  0  0  0  0  0  0  0
    1.3180   -1.0447   10.2594 C   0  0  0  0  0  0  0  0  0  0  0  0
   -0.2674   -1.0882   10.6671 C   0  0  0  0  0  0  0  0  0  0  0  0
   -0.7269    0.1954    9.8974 N   0  0  0  0  0  0  0  0  0  0  0  0
   -1.8490    1.0154   10.6508 C   0  0  0  0  0  0  0  0  0  0  0  0
   -2.4448    2.0717    9.5566 C   0  0  0  0  0  0  0  0  0  0  0  0
   -3.3563    1.2291    8.7125 C   0  0  0  0  0  0  0  0  0  0  0  0
   -4.5850    0.9991    9.5605 N   0  0  0  0  0  0  0  0  0  0  0  0
  1  2  1  0  0  0  0
  2  3  1  0  0  0  0
  3  4  1  0  0  0  0
  4  5  1  0  0  0  0
  5  6  1  0  0  0  0
  6  7  1  0  0  0  0
  7  8  1  0  0  0  0
  8  9  1  0  0  0  0
  9 10  1  0  0  0  0
 10 11  1  0  0  0  0
 11 12  1  0  0  0  0
 12 13  1  0  0  0  0
 13 14  1  0  0  0  0
M  END
>  <CHROM.1>
-67.78579613,-66.86366956,-82.55662267,-177.45631202,-168.42761395,179.48845649
-164.70748980,-144.18834526,-166.39852892,78.08842600,75.17520592,1.03948491
-1.97656620,9.76773201,0.56116206,0.49219396,-2.43191714

>  <Name>
ligand

>  <RI>
0

>  <Rbt.Current_Directory>
/home/itssahil/PROJECTS/Mol_Feturizer/New_Systems/rnas/1FUF

>  <Rbt.Executable>
rbdock ($Id: //depot/dev/client3/rdock/2013.1/src/exe/rbdock.cxx#4 $)

>  <Rbt.Library>
libRbt.so (2013.1, Build901 2013/11/27)

>  <Rbt.Parameter_File>
/export/apps/rDock/src/rDock_2013.1_src/data/scripts/dock_solv.prm

>  <Rbt.Receptor>
prm/pocket_docking_5.prm

>  <SCORE>
-2.08252

>  <SCORE.INTER>
-1.58623

>  <SCORE.INTER.CONST>
1

>  <SCORE.INTER.POLAR>
0

>  <SCORE.INTER.ROT>
11

>  <SCORE.INTER.SOLV>
15.6491

>  <SCORE.INTER.VDW>
-17.2072

>  <SCORE.INTER.norm>
-0.113302

>  <SCORE.INTRA>
-0.496287

>  <SCORE.INTRA.DIHEDRAL>
-5.56562

>  <SCORE.INTRA.DIHEDRAL.0>
10.5765

>  <SCORE.INTRA.POLAR>
0

>  <SCORE.INTRA.POLAR.0>
0

>  <SCORE.INTRA.REPUL>
0

>  <SCORE.INTRA.REPUL.0>
0

>  <SCORE.INTRA.SOLV>
3.07399

>  <SCORE.INTRA.SOLV.lig_0>
-50.1861

>  <SCORE.INTRA.VDW>
0.749527

>  <SCORE.INTRA.VDW.0>
-1.36671

>  <SCORE.INTRA.norm>
-0.0354491

>  <SCORE.RESTR>
0

>  <SCORE.RESTR.CAVITY>
0

>  <SCORE.RESTR.norm>
0

>  <SCORE.SYSTEM>
0

>  <SCORE.SYSTEM.CONST>
0

>  <SCORE.SYSTEM.DIHEDRAL>
0

>  <SCORE.SYSTEM.SOLV>
0

>  <SCORE.SYSTEM.norm>
0

>  <SCORE.heavy>
14

>  <SCORE.norm>
-0.148751

>  <RMSD>
2.008

$$$$
ligand
 OpenBabel11021811393D
libRbt.so/2013.1/901 2013/11/27
 14 13  0  0  0  0  0  0  0  0999 V2000
   -5.4471    1.4458    9.3086 N   0  0  0  0  0  0  0  0  0  0  0  0
   -3.9497    1.7536    9.2770 C   0  0  0  0  0  0  0  0  0  0  0  0
   -3.2938    0.6033    9.9503 C   0  0  0  0  0  0  0  0  0  0  0  0
   -1.7755    0.6704    9.9789 C   0  0  0  0  0  0  0  0  0  0  0  0
   -1.2367   -0.5511   10.6346 N   0  0  0  0  0  0  0  0  0  0  0  0
    0.2964   -0.5703   10.4966 C   0  0  0  0  0  0  0  0  0  0  0  0
    0.6292   -2.1283   10.6806 C   0  0  0  0  0  0  0  0  0  0  0  0
    1.9219   -2.3120   10.5629 C   0  0  0  0  0  0  0  0  0  0  0  0
    1.8939   -3.9461   10.6657 C   0  0  0  0  0  0  0  0  0  0  0  0
    3.4276   -4.2033   10.4835 N   0  0  0  0  0  0  0  0  0  0  0  0
    3.7761   -5.6975   10.1028 C   0  0  0  0  0  0  0  0  0  0  0  0
    3.8622   -5.7373    8.4722 C   0  0  0  0  0  0  0  0  0  0  0  0
    4.0726   -7.1914    8.1650 C   0  0  0  0  0  0  0  0  0  0  0  0
    5.4907   -7.4879    8.5928 N   0  0  0  0  0  0  0  0  0  0  0  0
  1  2  1  0  0  0  0
  2  3  1  0  0  0  0
  3  4  1  0  0  0  0
  4  5  1  0  0  0  0
  5  6  1  0  0  0  0
  6  7  1  0  0  0  0
  7  8  1  0  0  0  0
  8  9  1  0  0  0  0
  9 10  1  0  0  0  0
 10 11  1  0  0  0  0
 11 12  1  0  0  0  0
 12 13  1  0  0  0  0
 13 14  1  0  0  0  0
M  END
>  <CHROM.1>
177.43682523,-178.13280268,172.55720586,-157.82213761,178.88914451,-175.41040340
178.35119001,-163.06545837,94.02934152,-175.17361625,-71.94959255,0.69061354
-2.52508338,9.81228583,2.58316366,-0.54439223,0.78056114

>  <Name>
ligand

>  <RI>
0

>  <Rbt.Current_Directory>
/home/itssahil/PROJECTS/Mol_Feturizer/New_Systems/rnas/1FUF

>  <Rbt.Executable>
rbdock ($Id: //depot/dev/client3/rdock/2013.1/src/exe/rbdock.cxx#4 $)

>  <Rbt.Library>
libRbt.so (2013.1, Build901 2013/11/27)

>  <Rbt.Parameter_File>
/export/apps/rDock/src/rDock_2013.1_src/data/scripts/dock_solv.prm

>  <Rbt.Receptor>
prm/pocket_docking_5.prm

>  <SCORE>
-6.83874

>  <SCORE.INTER>
-3.26098

>  <SCORE.INTER.CONST>
1

>  <SCORE.INTER.POLAR>
0

>  <SCORE.INTER.ROT>
11

>  <SCORE.INTER.SOLV>
15.4308

>  <SCORE.INTER.VDW>
-18.2509

>  <SCORE.INTER.norm>
-0.232927

>  <SCORE.INTRA>
-3.57776

>  <SCORE.INTRA.DIHEDRAL>
-8.47257

>  <SCORE.INTRA.DIHEDRAL.0>
10.5765

>  <SCORE.INTRA.POLAR>
0

>  <SCORE.INTRA.POLAR.0>
0

>  <SCORE.INTRA.REPUL>
0

>  <SCORE.INTRA.REPUL.0>
0

>  <SCORE.INTRA.SOLV>
0.726936

>  <SCORE.INTRA.SOLV.lig_0>
-50.1861

>  <SCORE.INTRA.VDW>
0.295061

>  <SCORE.INTRA.VDW.0>
-1.36671

>  <SCORE.INTRA.norm>
-0.255554

>  <SCORE.RESTR>
0

>  <SCORE.RESTR.CAVITY>
0

>  <SCORE.RESTR.norm>
0

>  <SCORE.SYSTEM>
0

>  <SCORE.SYSTEM.CONST>
0

>  <SCORE.SYSTEM.DIHEDRAL>
0

>  <SCORE.SYSTEM.SOLV>
0

>  <SCORE.SYSTEM.norm>
0

>  <SCORE.heavy>
14

>  <SCORE.norm>
-0.488481

>  <RMSD>
2.011

$$$$
ligand
 OpenBabel11021811393D
libRbt.so/2013.1/901 2013/11/27
 14 13  0  0  0  0  0  0  0  0999 V2000
   -5.2251    1.6400    9.3974 N   0  0  0  0  0  0  0  0  0  0  0  0
   -3.8172    1.5552    8.8069 C   0  0  0  0  0  0  0  0  0  0  0  0
   -3.0192    0.7820    9.7928 C   0  0  0  0  0  0  0  0  0  0  0  0
   -1.5585    0.5955    9.4155 C   0  0  0  0  0  0  0  0  0  0  0  0
   -0.8666   -0.1818   10.4783 N   0  0  0  0  0  0  0  0  0  0  0  0
    0.5859   -0.4545   10.0473 C   0  0  0  0  0  0  0  0  0  0  0  0
    0.9581   -1.7449   10.9237 C   0  0  0  0  0  0  0  0  0  0  0  0
    2.0925   -2.2452   10.4979 C   0  0  0  0  0  0  0  0  0  0  0  0
    2.1129   -3.5474   11.4907 C   0  0  0  0  0  0  0  0  0  0  0  0
    3.2571   -4.3463   10.7807 N   0  0  0  0  0  0  0  0  0  0  0  0
    3.0925   -5.9148   10.8883 C   0  0  0  0  0  0  0  0  0  0  0  0
    4.3913   -6.5558   10.1333 C   0  0  0  0  0  0  0  0  0  0  0  0
    4.1754   -6.1957    8.6922 C   0  0  0  0  0  0  0  0  0  0  0  0
    5.3464   -6.7973    7.9514 N   0  0  0  0  0  0  0  0  0  0  0  0
  1  2  1  0  0  0  0
  2  3  1  0  0  0  0
  3  4  1  0  0  0  0
  4  5  1  0  0  0  0
  5  6  1  0  0  0  0
  6  7  1  0  0  0  0
  7  8  1  0  0  0  0
  8  9  1  0  0  0  0
  9 10  1  0  0  0  0
 10 11  1  0  0  0  0
 11 12  1  0  0  0  0
 12 13  1  0  0  0  0
 13 14  1  0  0  0  0
M  END
>  <CHROM.1>
-178.91687979,179.64528449,176.02792837,-157.06882650,169.00285076,-176.22512300
166.96546674,-148.38752100,-178.39652566,-67.79978918,-178.87798968,0.82333165
-2.38648490,9.94986473,2.86879375,-0.72172909,1.15087383

>  <Name>
ligand

>  <RI>
0

>  <Rbt.Current_Directory>
/home/itssahil/PROJECTS/Mol_Feturizer/New_Systems/rnas/1FUF

>  <Rbt.Executable>
rbdock ($Id: //depot/dev/client3/rdock/2013.1/src/exe/rbdock.cxx#4 $)

>  <Rbt.Library>
libRbt.so (2013.1, Build901 2013/11/27)

>  <Rbt.Parameter_File>
/export/apps/rDock/src/rDock_2013.1_src/data/scripts/dock_solv.prm

>  <Rbt.Receptor>
prm/pocket_docking_8.prm

>  <SCORE>
-6.33554

>  <SCORE.INTER>
-2.57492

>  <SCORE.INTER.CONST>
1

>  <SCORE.INTER.POLAR>
0

>  <SCORE.INTER.ROT>
11

>  <SCORE.INTER.SOLV>
14.6857

>  <SCORE.INTER.VDW>
-17.5452

>  <SCORE.INTER.norm>
-0.183923

>  <SCORE.INTRA>
-3.76062

>  <SCORE.INTRA.DIHEDRAL>
-8.16836

>  <SCORE.INTRA.DIHEDRAL.0>
10.5765

>  <SCORE.INTRA.POLAR>
0

>  <SCORE.INTRA.POLAR.0>
0

>  <SCORE.INTRA.REPUL>
0

>  <SCORE.INTRA.REPUL.0>
0

>  <SCORE.INTRA.SOLV>
0.3581

>  <SCORE.INTRA.SOLV.lig_0>
-50.1861

>  <SCORE.INTRA.VDW>
0.144514

>  <SCORE.INTRA.VDW.0>
-1.36671

>  <SCORE.INTRA.norm>
-0.268616

>  <SCORE.RESTR>
0

>  <SCORE.RESTR.CAVITY>
0

>  <SCORE.RESTR.norm>
0

>  <SCORE.SYSTEM>
0

>  <SCORE.SYSTEM.CONST>
0

>  <SCORE.SYSTEM.DIHEDRAL>
0

>  <SCORE.SYSTEM.SOLV>
0

>  <SCORE.SYSTEM.norm>
0

>  <SCORE.heavy>
14

>  <SCORE.norm>
-0.452539

>  <RMSD>
2.012

$$$$
ligand
 OpenBabel11021811393D
libRbt.so/2013.1/901 2013/11/27
 14 13  0  0  0  0  0  0  0  0999 V2000
    6.2077   -7.5209    8.4276 N   0  0  0  0  0  0  0  0  0  0  0  0
    4.7555   -7.3899    8.8879 C   0  0  0  0  0  0  0  0  0  0  0  0
    4.6414   -6.0226    9.4573 C   0  0  0  0  0  0  0  0  0  0  0  0
    3.2753   -5.6915   10.0357 C   0  0  0  0  0  0  0  0  0  0  0  0
    3.2291   -4.2521   10.4077 N   0  0  0  0  0  0  0  0  0  0  0  0
    1.8198   -3.9020   10.9186 C   0  0  0  0  0  0  0  0  0  0  0  0
    1.6746   -2.3679   10.4745 C   0  0  0  0  0  0  0  0  0  0  0  0
    0.5056   -1.9148   10.8573 C   0  0  0  0  0  0  0  0  0  0  0  0
    0.6279   -0.4438   10.1483 C   0  0  0  0  0  0  0  0  0  0  0  0
   -0.7756    0.1151   10.5596 N   0  0  0  0  0  0  0  0  0  0  0  0
   -1.6315    0.6344    9.3361 C   0  0  0  0  0  0  0  0  0  0  0  0
   -3.0878    1.0473    9.9497 C   0  0  0  0  0  0  0  0  0  0  0  0
   -3.8681    1.4837    8.7440 C   0  0  0  0  0  0  0  0  0  0  0  0
   -5.2176    1.9071    9.2745 N   0  0  0  0  0  0  0  0  0  0  0  0
  1  2  1  0  0  0  0
  2  3  1  0  0  0  0
  3  4  1  0  0  0  0
  4  5  1  0  0  0  0
  5  6  1  0  0  0  0
  6  7  1  0  0  0  0
  7  8  1  0  0  0  0
  8  9  1  0  0  0  0
  9 10  1  0  0  0  0
 10 11  1  0  0  0  0
 11 12  1  0  0  0  0
 12 13  1  0  0  0  0
 13 14  1  0  0  0  0
M  END
>  <CHROM.1>
-177.62122002,-172.58427174,176.81951892,-148.90956859,-179.47228444,-174.96772913
178.71758100,-126.01909173,175.18798630,-178.07487914,-178.69399730,0.86831064
-2.45128825,9.81997041,0.47999995,0.62748833,-2.27299544

>  <Name>
ligand

>  <RI>
0

>  <Rbt.Current_Directory>
/home/itssahil/PROJECTS/Mol_Feturizer/New_Systems/rnas/1FUF

>  <Rbt.Executable>
rbdock ($Id: //depot/dev/client3/rdock/2013.1/src/exe/rbdock.cxx#4 $)

>  <Rbt.Library>
libRbt.so (2013.1, Build901 2013/11/27)

>  <Rbt.Parameter_File>
/export/apps/rDock/src/rDock_2013.1_src/data/scripts/dock_solv.prm

>  <Rbt.Receptor>
prm/blind_docking_40.prm

>  <SCORE>
-5.79794

>  <SCORE.INTER>
-1.53383

>  <SCORE.INTER.CONST>
1

>  <SCORE.INTER.POLAR>
0

>  <SCORE.INTER.ROT>
11

>  <SCORE.INTER.SOLV>
14.2216

>  <SCORE.INTER.VDW>
-16.6964

>  <SCORE.INTER.norm>
-0.109559

>  <SCORE.INTRA>
-4.26411

>  <SCORE.INTRA.DIHEDRAL>
-8.38436

>  <SCORE.INTRA.DIHEDRAL.0>
10.5765

>  <SCORE.INTRA.POLAR>
0

>  <SCORE.INTRA.POLAR.0>
0

>  <SCORE.INTRA.REPUL>
0

>  <SCORE.INTRA.REPUL.0>
0

>  <SCORE.INTRA.SOLV>
-0.155628

>  <SCORE.INTRA.SOLV.lig_0>
-50.1861

>  <SCORE.INTRA.VDW>
0.00588669

>  <SCORE.INTRA.VDW.0>
-1.36671

>  <SCORE.INTRA.norm>
-0.304579

>  <SCORE.RESTR>
0

>  <SCORE.RESTR.CAVITY>
0

>  <SCORE.RESTR.norm>
0

>  <SCORE.SYSTEM>
0

>  <SCORE.SYSTEM.CONST>
0

>  <SCORE.SYSTEM.DIHEDRAL>
0

>  <SCORE.SYSTEM.SOLV>
0

>  <SCORE.SYSTEM.norm>
0

>  <SCORE.heavy>
14

>  <SCORE.norm>
-0.414138

>  <RMSD>
2.013

$$$$
ligand
 OpenBabel11021811393D
libRbt.so/2013.1/901 2013/11/27
 14 13  0  0  0  0  0  0  0  0999 V2000
   -5.5169    1.6034    9.0456 N   0  0  0  0  0  0  0  0  0  0  0  0
   -4.1002    1.9286    9.5202 C   0  0  0  0  0  0  0  0  0  0  0  0
   -3.4913    0.6215    9.8771 C   0  0  0  0  0  0  0  0  0  0  0  0
   -2.0688    0.7107   10.4053 C   0  0  0  0  0  0  0  0  0  0  0  0
   -1.5619   -0.6563   10.6998 N   0  0  0  0  0  0  0  0  0  0  0  0
   -0.1118   -0.5641   11.2084 C   0  0  0  0  0  0  0  0  0  0  0  0
    0.5204   -1.9348   10.6667 C   0  0  0  0  0  0  0  0  0  0  0  0
    1.8159   -1.9233   10.8669 C   0  0  0  0  0  0  0  0  0  0  0  0
    2.1340   -3.3607   10.1497 C   0  0  0  0  0  0  0  0  0  0  0  0
    1.9391   -4.2788   11.4030 N   0  0  0  0  0  0  0  0  0  0  0  0
    1.7625   -5.8081   11.0437 C   0  0  0  0  0  0  0  0  0  0  0  0
    3.2722   -6.4035   10.8590 C   0  0  0  0  0  0  0  0  0  0  0  0
    3.6325   -6.0223    9.4526 C   0  0  0  0  0  0  0  0  0  0  0  0
    4.9942   -6.6301    9.2114 N   0  0  0  0  0  0  0  0  0  0  0  0
  1  2  1  0  0  0  0
  2  3  1  0  0  0  0
  3  4  1  0  0  0  0
  4  5  1  0  0  0  0
  5  6  1  0  0  0  0
  6  7  1  0  0  0  0
  7  8  1  0  0  0  0
  8  9  1  0  0  0  0
  9 10  1  0  0  0  0
 10 11  1  0  0  0  0
 11 12  1  0  0  0  0
 12 13  1  0  0  0  0
 13 14  1  0  0  0  0
M  END
>  <CHROM.1>
-178.97001010,-178.87147555,178.90515582,-148.15547275,171.50266497,-176.91994108
-88.70305316,163.64884747,83.37764189,-82.35670714,-176.62342254,0.23008714
-2.33692101,10.31504013,2.49602484,-0.46125804,0.47442658

>  <Name>
ligand

>  <RI>
0

>  <Rbt.Current_Directory>
/home/itssahil/PROJECTS/Mol_Feturizer/New_Systems/rnas/1FUF

>  <Rbt.Executable>
rbdock ($Id: //depot/dev/client3/rdock/2013.1/src/exe/rbdock.cxx#4 $)

>  <Rbt.Library>
libRbt.so (2013.1, Build901 2013/11/27)

>  <Rbt.Parameter_File>
/export/apps/rDock/src/rDock_2013.1_src/data/scripts/dock_solv.prm

>  <Rbt.Receptor>
prm/blind_docking_80.prm

>  <SCORE>
-4.55506

>  <SCORE.INTER>
-3.49563

>  <SCORE.INTER.CONST>
1

>  <SCORE.INTER.POLAR>
0

>  <SCORE.INTER.ROT>
11

>  <SCORE.INTER.SOLV>
16.2036

>  <SCORE.INTER.VDW>
-18.665

>  <SCORE.INTER.norm>
-0.249688

>  <SCORE.INTRA>
-1.05943

>  <SCORE.INTRA.DIHEDRAL>
-4.69707

>  <SCORE.INTRA.DIHEDRAL.0>
10.5765

>  <SCORE.INTRA.POLAR>
0

>  <SCORE.INTRA.POLAR.0>
0

>  <SCORE.INTRA.REPUL>
0

>  <SCORE.INTRA.REPUL.0>
0

>  <SCORE.INTRA.SOLV>
0.798441

>  <SCORE.INTRA.SOLV.lig_0>
-50.1861

>  <SCORE.INTRA.VDW>
0.889885

>  <SCORE.INTRA.VDW.0>
-1.36671

>  <SCORE.INTRA.norm>
-0.0756737

>  <SCORE.RESTR>
0

>  <SCORE.RESTR.CAVITY>
0

>  <SCORE.RESTR.norm>
0

>  <SCORE.SYSTEM>
0

>  <SCORE.SYSTEM.CONST>
0

>  <SCORE.SYSTEM.DIHEDRAL>
0

>  <SCORE.SYSTEM.SOLV>
0

>  <SCORE.SYSTEM.norm>
0

>  <SCORE.heavy>
14

>  <SCORE.norm>
-0.325362

>  <RMSD>
2.013

$$$$
ligand
 OpenBabel11021811393D
libRbt.so/2013.1/901 2013/11/27
 14 13  0  0  0  0  0  0  0  0999 V2000
    2.3077   -6.6280   11.2364 N   0  0  0  0  0  0  0  0  0  0  0  0
    3.2127   -6.3356   10.0392 C   0  0  0  0  0  0  0  0  0  0  0  0
    3.1593   -4.8630    9.8515 C   0  0  0  0  0  0  0  0  0  0  0  0
    3.8036   -4.0602   10.9700 C   0  0  0  0  0  0  0  0  0  0  0  0
    3.5268   -2.6132   10.7656 N   0  0  0  0  0  0  0  0  0  0  0  0
    2.3553   -2.1853   11.6680 C   0  0  0  0  0  0  0  0  0  0  0  0
    1.4125   -1.3945   10.6397 C   0  0  0  0  0  0  0  0  0  0  0  0
    0.3274   -1.0012   11.2614 C   0  0  0  0  0  0  0  0  0  0  0  0
   -0.3842   -0.2854    9.9718 C   0  0  0  0  0  0  0  0  0  0  0  0
   -1.7251    0.1310   10.6647 N   0  0  0  0  0  0  0  0  0  0  0  0
   -2.8961    0.4293    9.6455 C   0  0  0  0  0  0  0  0  0  0  0  0
   -4.2169    0.7365   10.5560 C   0  0  0  0  0  0  0  0  0  0  0  0
   -5.3262    0.8292    9.5491 C   0  0  0  0  0  0  0  0  0  0  0  0
   -5.0476    2.0895    8.7642 N   0  0  0  0  0  0  0  0  0  0  0  0
  1  2  1  0  0  0  0
  2  3  1  0  0  0  0
  3  4  1  0  0  0  0
  4  5  1  0  0  0  0
  5  6  1  0  0  0  0
  6  7  1  0  0  0  0
  7  8  1  0  0  0  0
  8  9  1  0  0  0  0
  9 10  1  0  0  0  0
 10 11  1  0  0  0  0
 11 12  1  0  0  0  0
 12 13  1  0  0  0  0
 13 14  1  0  0  0  0
M  END
>  <CHROM.1>
67.51413204,-172.34671361,99.37915492,-131.23314320,177.73127096,-179.14982955
177.12784203,-160.58759346,176.07311329,-172.71060714,-68.48170400,0.03647780
-1.79651350,10.39879009,0.64726157,0.24014279,-3.00386980

>  <Name>
ligand

>  <RI>
0

>  <Rbt.Current_Directory>
/home/itssahil/PROJECTS/Mol_Feturizer/New_Systems/rnas/1FUF

>  <Rbt.Executable>
rbdock ($Id: //depot/dev/client3/rdock/2013.1/src/exe/rbdock.cxx#4 $)

>  <Rbt.Library>
libRbt.so (2013.1, Build901 2013/11/27)

>  <Rbt.Parameter_File>
/export/apps/rDock/src/rDock_2013.1_src/data/scripts/dock_solv.prm

>  <Rbt.Receptor>
prm/pocket_docking_7.prm

>  <SCORE>
-3.72801

>  <SCORE.INTER>
-1.53442

>  <SCORE.INTER.CONST>
1

>  <SCORE.INTER.POLAR>
0

>  <SCORE.INTER.ROT>
11

>  <SCORE.INTER.SOLV>
19.0043

>  <SCORE.INTER.VDW>
-18.291

>  <SCORE.INTER.norm>
-0.109602

>  <SCORE.INTRA>
-2.19359

>  <SCORE.INTRA.DIHEDRAL>
-7.34806

>  <SCORE.INTRA.DIHEDRAL.0>
10.5765

>  <SCORE.INTRA.POLAR>
0

>  <SCORE.INTRA.POLAR.0>
0

>  <SCORE.INTRA.REPUL>
0

>  <SCORE.INTRA.REPUL.0>
0

>  <SCORE.INTRA.SOLV>
1.8774

>  <SCORE.INTRA.SOLV.lig_0>
-50.1861

>  <SCORE.INTRA.VDW>
0.541742

>  <SCORE.INTRA.VDW.0>
-1.36671

>  <SCORE.INTRA.norm>
-0.156685

>  <SCORE.RESTR>
0

>  <SCORE.RESTR.CAVITY>
0

>  <SCORE.RESTR.norm>
0

>  <SCORE.SYSTEM>
0

>  <SCORE.SYSTEM.CONST>
0

>  <SCORE.SYSTEM.DIHEDRAL>
0

>  <SCORE.SYSTEM.SOLV>
0

>  <SCORE.SYSTEM.norm>
0

>  <SCORE.heavy>
14

>  <SCORE.norm>
-0.266286

>  <RMSD>
2.017

$$$$
ligand
 OpenBabel11021811393D
libRbt.so/2013.1/901 2013/11/27
 14 13  0  0  0  0  0  0  0  0999 V2000
   -4.6630    1.3368    8.9343 N   0  0  0  0  0  0  0  0  0  0  0  0
   -3.5318    1.6054    9.9274 C   0  0  0  0  0  0  0  0  0  0  0  0
   -2.4653    0.6288    9.5878 C   0  0  0  0  0  0  0  0  0  0  0  0
   -1.2225    0.7230   10.4579 C   0  0  0  0  0  0  0  0  0  0  0  0
   -0.2871   -0.3795   10.1088 N   0  0  0  0  0  0  0  0  0  0  0  0
    0.2500   -1.0213   11.4009 C   0  0  0  0  0  0  0  0  0  0  0  0
    0.8717   -2.3963   10.8578 C   0  0  0  0  0  0  0  0  0  0  0  0
    2.1046   -2.1884   10.4637 C   0  0  0  0  0  0  0  0  0  0  0  0
    2.4789   -3.7552   10.1693 C   0  0  0  0  0  0  0  0  0  0  0  0
    4.0187   -3.5752    9.9504 N   0  0  0  0  0  0  0  0  0  0  0  0
    4.8986   -4.5746   10.8026 C   0  0  0  0  0  0  0  0  0  0  0  0
    4.6714   -6.0502   10.1402 C   0  0  0  0  0  0  0  0  0  0  0  0
    5.6316   -6.0711    8.9866 C   0  0  0  0  0  0  0  0  0  0  0  0
    4.9997   -5.2003    7.9264 N   0  0  0  0  0  0  0  0  0  0  0  0
  1  2  1  0  0  0  0
  2  3  1  0  0  0  0
  3  4  1  0  0  0  0
  4  5  1  0  0  0  0
  5  6  1  0  0  0  0
  6  7  1  0  0  0  0
  7  8  1  0  0  0  0
  8  9  1  0  0  0  0
  9 10  1  0  0  0  0
 10 11  1  0  0  0  0
 11 12  1  0  0  0  0
 12 13  1  0  0  0  0
 13 14  1  0  0  0  0
M  END
>  <CHROM.1>
179.67145306,174.72691668,-135.02966658,164.61270927,86.32226788,173.36075395
-170.13445285,129.65285197,70.52894907,82.98339615,-75.16960318,1.26834943
-2.20853020,9.97988925,2.89126397,-0.63423998,1.20337072

>  <Name>
ligand

>  <RI>
0

>  <Rbt.Current_Directory>
/home/itssahil/PROJECTS/Mol_Feturizer/New_Systems/rnas/1FUF

>  <Rbt.Executable>
rbdock ($Id: //depot/dev/client3/rdock/2013.1/src/exe/rbdock.cxx#4 $)

>  <Rbt.Library>
libRbt.so (2013.1, Build901 2013/11/27)

>  <Rbt.Parameter_File>
/export/apps/rDock/src/rDock_2013.1_src/data/scripts/dock_solv.prm

>  <Rbt.Receptor>
prm/pocket_docking_2.prm

>  <SCORE>
-0.20236

>  <SCORE.INTER>
-1.20097

>  <SCORE.INTER.CONST>
1

>  <SCORE.INTER.POLAR>
0

>  <SCORE.INTER.ROT>
11

>  <SCORE.INTER.SOLV>
15.9037

>  <SCORE.INTER.VDW>
-17.0352

>  <SCORE.INTER.norm>
-0.0857839

>  <SCORE.INTRA>
0.998615

>  <SCORE.INTRA.DIHEDRAL>
-2.68022

>  <SCORE.INTRA.DIHEDRAL.0>
10.5765

>  <SCORE.INTRA.POLAR>
0

>  <SCORE.INTRA.POLAR.0>
0

>  <SCORE.INTRA.REPUL>
0

>  <SCORE.INTRA.REPUL.0>
0

>  <SCORE.INTRA.SOLV>
3.647

>  <SCORE.INTRA.SOLV.lig_0>
-50.1861

>  <SCORE.INTRA.VDW>
0.51522

>  <SCORE.INTRA.VDW.0>
-1.36671

>  <SCORE.INTRA.norm>
0.0713296

>  <SCORE.RESTR>
0

>  <SCORE.RESTR.CAVITY>
0

>  <SCORE.RESTR.norm>
0

>  <SCORE.SYSTEM>
0

>  <SCORE.SYSTEM.CONST>
0

>  <SCORE.SYSTEM.DIHEDRAL>
0

>  <SCORE.SYSTEM.SOLV>
0

>  <SCORE.SYSTEM.norm>
0

>  <SCORE.heavy>
14

>  <SCORE.norm>
-0.0144543

>  <RMSD>
2.018

$$$$
ligand
 OpenBabel11021811393D
libRbt.so/2013.1/901 2013/11/27
 14 13  0  0  0  0  0  0  0  0999 V2000
    2.3331   -6.2328   10.6379 N   0  0  0  0  0  0  0  0  0  0  0  0
    3.7996   -6.4328   10.2539 C   0  0  0  0  0  0  0  0  0  0  0  0
    4.5533   -5.4046   11.0163 C   0  0  0  0  0  0  0  0  0  0  0  0
    4.3271   -3.9772   10.5452 C   0  0  0  0  0  0  0  0  0  0  0  0
    2.9542   -3.5430   10.9180 N   0  0  0  0  0  0  0  0  0  0  0  0
    2.6538   -2.1828   10.2627 C   0  0  0  0  0  0  0  0  0  0  0  0
    1.1533   -1.8995   10.7530 C   0  0  0  0  0  0  0  0  0  0  0  0
    0.7404   -0.7620   10.2490 C   0  0  0  0  0  0  0  0  0  0  0  0
   -0.7695   -0.8085   10.8813 C   0  0  0  0  0  0  0  0  0  0  0  0
   -1.3449    0.4611   10.1682 N   0  0  0  0  0  0  0  0  0  0  0  0
   -2.9034    0.6420   10.3620 C   0  0  0  0  0  0  0  0  0  0  0  0
   -3.4064    1.5696    9.1153 C   0  0  0  0  0  0  0  0  0  0  0  0
   -4.8696    1.7643    9.3879 C   0  0  0  0  0  0  0  0  0  0  0  0
   -5.3799    2.6059    8.2420 N   0  0  0  0  0  0  0  0  0  0  0  0
  1  2  1  0  0  0  0
  2  3  1  0  0  0  0
  3  4  1  0  0  0  0
  4  5  1  0  0  0  0
  5  6  1  0  0  0  0
  6  7  1  0  0  0  0
  7  8  1  0  0  0  0
  8  9  1  0  0  0  0
  9 10  1  0  0  0  0
 10 11  1  0  0  0  0
 11 12  1  0  0  0  0
 12 13  1  0  0  0  0
 13 14  1  0  0  0  0
M  END
>  <CHROM.1>
-70.07750837,71.20007626,-171.70631210,179.16255133,-179.00437933,178.27982330
-174.07321220,171.21389924,-157.02029580,-177.25613878,-179.25462280,0.27462448
-1.72861564,10.19957964,0.69910133,0.22659451,-3.08037835

>  <Name>
ligand

>  <RI>
0

>  <Rbt.Current_Directory>
/home/itssahil/PROJECTS/Mol_Feturizer/New_Systems/rnas/1FUF

>  <Rbt.Executable>
rbdock ($Id: //depot/dev/client3/rdock/2013.1/src/exe/rbdock.cxx#4 $)

>  <Rbt.Library>
libRbt.so (2013.1, Build901 2013/11/27)

>  <Rbt.Parameter_File>
/export/apps/rDock/src/rDock_2013.1_src/data/scripts/dock_solv.prm

>  <Rbt.Receptor>
prm/blind_docking_80.prm

>  <SCORE>
-5.72685

>  <SCORE.INTER>
-2.80974

>  <SCORE.INTER.CONST>
1

>  <SCORE.INTER.POLAR>
0

>  <SCORE.INTER.ROT>
11

>  <SCORE.INTER.SOLV>
16.3838

>  <SCORE.INTER.VDW>
-18.2678

>  <SCORE.INTER.norm>
-0.200696

>  <SCORE.INTRA>
-2.91711

>  <SCORE.INTRA.DIHEDRAL>
-9.05838

>  <SCORE.INTRA.DIHEDRAL.0>
10.5765

>  <SCORE.INTRA.POLAR>
0

>  <SCORE.INTRA.POLAR.0>
0

>  <SCORE.INTRA.REPUL>
0

>  <SCORE.INTRA.REPUL.0>
0

>  <SCORE.INTRA.SOLV>
3.09498

>  <SCORE.INTRA.SOLV.lig_0>
-50.1861

>  <SCORE.INTRA.VDW>
0.0645872

>  <SCORE.INTRA.VDW.0>
-1.36671

>  <SCORE.INTRA.norm>
-0.208365

>  <SCORE.RESTR>
0

>  <SCORE.RESTR.CAVITY>
0

>  <SCORE.RESTR.norm>
0

>  <SCORE.SYSTEM>
0

>  <SCORE.SYSTEM.CONST>
0

>  <SCORE.SYSTEM.DIHEDRAL>
0

>  <SCORE.SYSTEM.SOLV>
0

>  <SCORE.SYSTEM.norm>
0

>  <SCORE.heavy>
14

>  <SCORE.norm>
-0.409061

>  <RMSD>
2.019

$$$$
ligand
 OpenBabel11021811393D
libRbt.so/2013.1/901 2013/11/27
 14 13  0  0  0  0  0  0  0  0999 V2000
    5.1146   -6.7058    8.7327 N   0  0  0  0  0  0  0  0  0  0  0  0
    4.4125   -6.2334   10.0063 C   0  0  0  0  0  0  0  0  0  0  0  0
    4.1340   -4.7898    9.7938 C   0  0  0  0  0  0  0  0  0  0  0  0
    3.3471   -4.1271   10.9128 C   0  0  0  0  0  0  0  0  0  0  0  0
    3.0918   -2.7037   10.5649 N   0  0  0  0  0  0  0  0  0  0  0  0
    2.0041   -2.1381   11.4959 C   0  0  0  0  0  0  0  0  0  0  0  0
    1.1402   -1.2350   10.4909 C   0  0  0  0  0  0  0  0  0  0  0  0
    0.0921   -0.7651   11.1228 C   0  0  0  0  0  0  0  0  0  0  0  0
   -0.6020   -0.0383    9.8298 C   0  0  0  0  0  0  0  0  0  0  0  0
   -1.8789    0.5138   10.5481 N   0  0  0  0  0  0  0  0  0  0  0  0
   -3.0641    0.8509    9.5578 C   0  0  0  0  0  0  0  0  0  0  0  0
   -2.5388    2.0916    8.6344 C   0  0  0  0  0  0  0  0  0  0  0  0
   -3.6937    2.3604    7.7140 C   0  0  0  0  0  0  0  0  0  0  0  0
   -3.2263    3.4702    6.8019 N   0  0  0  0  0  0  0  0  0  0  0  0
  1  2  1  0  0  0  0
  2  3  1  0  0  0  0
  3  4  1  0  0  0  0
  4  5  1  0  0  0  0
  5  6  1  0  0  0  0
  6  7  1  0  0  0  0
  7  8  1  0  0  0  0
  8  9  1  0  0  0  0
  9 10  1  0  0  0  0
 10 11  1  0  0  0  0
 11 12  1  0  0  0  0
 12 13  1  0  0  0  0
 13 14  1  0  0  0  0
M  END
>  <CHROM.1>
176.11862323,-178.05623562,165.37590078,-140.18840947,174.74585050,-175.37294235
178.97704365,-159.64916022,-65.63299717,179.63796234,-177.80356878,0.59510922
-1.38926866,9.72924882,-0.07502642,0.80509039,-1.67546695

>  <Name>
ligand

>  <RI>
0

>  <Rbt.Current_Directory>
/home/itssahil/PROJECTS/Mol_Feturizer/New_Systems/rnas/1FUF

>  <Rbt.Executable>
rbdock ($Id: //depot/dev/client3/rdock/2013.1/src/exe/rbdock.cxx#4 $)

>  <Rbt.Library>
libRbt.so (2013.1, Build901 2013/11/27)

>  <Rbt.Parameter_File>
/export/apps/rDock/src/rDock_2013.1_src/data/scripts/dock_solv.prm

>  <Rbt.Receptor>
prm/pocket_docking_8.prm

>  <SCORE>
-6.36335

>  <SCORE.INTER>
-2.33043

>  <SCORE.INTER.CONST>
1

>  <SCORE.INTER.POLAR>
0

>  <SCORE.INTER.ROT>
11

>  <SCORE.INTER.SOLV>
17.4404

>  <SCORE.INTER.VDW>
-18.3004

>  <SCORE.INTER.norm>
-0.166459

>  <SCORE.INTRA>
-4.03292

>  <SCORE.INTRA.DIHEDRAL>
-8.89172

>  <SCORE.INTRA.DIHEDRAL.0>
10.5765

>  <SCORE.INTRA.POLAR>
0

>  <SCORE.INTRA.POLAR.0>
0

>  <SCORE.INTRA.REPUL>
0

>  <SCORE.INTRA.REPUL.0>
0

>  <SCORE.INTRA.SOLV>
-0.144114

>  <SCORE.INTRA.SOLV.lig_0>
-50.1861

>  <SCORE.INTRA.VDW>
0.484994

>  <SCORE.INTRA.VDW.0>
-1.36671

>  <SCORE.INTRA.norm>
-0.288066

>  <SCORE.RESTR>
0

>  <SCORE.RESTR.CAVITY>
0

>  <SCORE.RESTR.norm>
0

>  <SCORE.SYSTEM>
0

>  <SCORE.SYSTEM.CONST>
0

>  <SCORE.SYSTEM.DIHEDRAL>
0

>  <SCORE.SYSTEM.SOLV>
0

>  <SCORE.SYSTEM.norm>
0

>  <SCORE.heavy>
14

>  <SCORE.norm>
-0.454525

>  <RMSD>
2.021

$$$$
ligand
 OpenBabel11021811393D
libRbt.so/2013.1/901 2013/11/27
 14 13  0  0  0  0  0  0  0  0999 V2000
    4.8407   -6.7562    8.3792 N   0  0  0  0  0  0  0  0  0  0  0  0
    4.1522   -5.3955    8.2676 C   0  0  0  0  0  0  0  0  0  0  0  0
    4.5056   -4.6684    9.5139 C   0  0  0  0  0  0  0  0  0  0  0  0
    3.9853   -3.2418    9.5818 C   0  0  0  0  0  0  0  0  0  0  0  0
    2.4981   -3.2542    9.5619 N   0  0  0  0  0  0  0  0  0  0  0  0
    1.9684   -3.2406   11.0072 C   0  0  0  0  0  0  0  0  0  0  0  0
    1.4602   -1.7276   11.1630 C   0  0  0  0  0  0  0  0  0  0  0  0
    0.3608   -1.5660   10.4675 C   0  0  0  0  0  0  0  0  0  0  0  0
    0.0765   -0.0165   10.9145 C   0  0  0  0  0  0  0  0  0  0  0  0
   -1.2596    0.1971   10.1267 N   0  0  0  0  0  0  0  0  0  0  0  0
   -2.0725    1.4692   10.5960 C   0  0  0  0  0  0  0  0  0  0  0  0
   -3.2120    1.7209    9.4531 C   0  0  0  0  0  0  0  0  0  0  0  0
   -2.4273    2.2253    8.2771 C   0  0  0  0  0  0  0  0  0  0  0  0
   -3.4602    2.6059    7.2427 N   0  0  0  0  0  0  0  0  0  0  0  0
  1  2  1  0  0  0  0
  2  3  1  0  0  0  0
  3  4  1  0  0  0  0
  4  5  1  0  0  0  0
  5  6  1  0  0  0  0
  6  7  1  0  0  0  0
  7  8  1  0  0  0  0
  8  9  1  0  0  0  0
  9 10  1  0  0  0  0
 10 11  1  0  0  0  0
 11 12  1  0  0  0  0
 12 13  1  0  0  0  0
 13 14  1  0  0  0  0
M  END
>  <CHROM.1>
176.65368284,62.80532106,93.69673320,104.98237243,72.51449638,176.43918221
-178.55708482,164.74459038,166.91699630,-71.55402682,-174.34631747,0.81551237
-1.54620120,9.61120438,0.09627213,0.78747374,-1.71855948

>  <Name>
ligand

>  <RI>
0

>  <Rbt.Current_Directory>
/home/itssahil/PROJECTS/Mol_Feturizer/New_Systems/rnas/1FUF

>  <Rbt.Executable>
rbdock ($Id: //depot/dev/client3/rdock/2013.1/src/exe/rbdock.cxx#4 $)

>  <Rbt.Library>
libRbt.so (2013.1, Build901 2013/11/27)

>  <Rbt.Parameter_File>
/export/apps/rDock/src/rDock_2013.1_src/data/scripts/dock_solv.prm

>  <Rbt.Receptor>
prm/blind_docking_100.prm

>  <SCORE>
-4.08658

>  <SCORE.INTER>
-1.77523

>  <SCORE.INTER.CONST>
1

>  <SCORE.INTER.POLAR>
0

>  <SCORE.INTER.ROT>
11

>  <SCORE.INTER.SOLV>
17.6751

>  <SCORE.INTER.VDW>
-18.0085

>  <SCORE.INTER.norm>
-0.126802

>  <SCORE.INTRA>
-2.31136

>  <SCORE.INTRA.DIHEDRAL>
-7.20598

>  <SCORE.INTRA.DIHEDRAL.0>
10.5765

>  <SCORE.INTRA.POLAR>
0

>  <SCORE.INTRA.POLAR.0>
0

>  <SCORE.INTRA.REPUL>
0

>  <SCORE.INTRA.REPUL.0>
0

>  <SCORE.INTRA.SOLV>
1.013

>  <SCORE.INTRA.SOLV.lig_0>
-50.1861

>  <SCORE.INTRA.VDW>
0.785132

>  <SCORE.INTRA.VDW.0>
-1.36671

>  <SCORE.INTRA.norm>
-0.165097

>  <SCORE.RESTR>
0

>  <SCORE.RESTR.CAVITY>
0

>  <SCORE.RESTR.norm>
0

>  <SCORE.SYSTEM>
0

>  <SCORE.SYSTEM.CONST>
0

>  <SCORE.SYSTEM.DIHEDRAL>
0

>  <SCORE.SYSTEM.SOLV>
0

>  <SCORE.SYSTEM.norm>
0

>  <SCORE.heavy>
14

>  <SCORE.norm>
-0.291899

>  <RMSD>
2.025

$$$$
ligand
 OpenBabel11021811393D
libRbt.so/2013.1/901 2013/11/27
 14 13  0  0  0  0  0  0  0  0999 V2000
    6.0435   -7.4036    8.4366 N   0  0  0  0  0  0  0  0  0  0  0  0
    4.8740   -7.2171    9.4038 C   0  0  0  0  0  0  0  0  0  0  0  0
    4.8373   -5.7633    9.7065 C   0  0  0  0  0  0  0  0  0  0  0  0
    3.7374   -5.3464   10.6693 C   0  0  0  0  0  0  0  0  0  0  0  0
    3.6832   -3.8621   10.7486 N   0  0  0  0  0  0  0  0  0  0  0  0
    2.4179   -3.4380   11.5160 C   0  0  0  0  0  0  0  0  0  0  0  0
    1.9234   -2.1685   10.6700 C   0  0  0  0  0  0  0  0  0  0  0  0
    0.7931   -1.7294   11.1683 C   0  0  0  0  0  0  0  0  0  0  0  0
    0.5093   -0.5904   10.0265 C   0  0  0  0  0  0  0  0  0  0  0  0
   -0.9517   -0.2171   10.4477 N   0  0  0  0  0  0  0  0  0  0  0  0
   -1.6480    0.8101    9.4684 C   0  0  0  0  0  0  0  0  0  0  0  0
   -2.6768    1.6823   10.3896 C   0  0  0  0  0  0  0  0  0  0  0  0
   -3.8911    0.8056   10.4897 C   0  0  0  0  0  0  0  0  0  0  0  0
   -4.5901    0.9393    9.1573 N   0  0  0  0  0  0  0  0  0  0  0  0
  1  2  1  0  0  0  0
  2  3  1  0  0  0  0
  3  4  1  0  0  0  0
  4  5  1  0  0  0  0
  5  6  1  0  0  0  0
  6  7  1  0  0  0  0
  7  8  1  0  0  0  0
  8  9  1  0  0  0  0
  9 10  1  0  0  0  0
 10 11  1  0  0  0  0
 11 12  1  0  0  0  0
 12 13  1  0  0  0  0
 13 14  1  0  0  0  0
M  END
>  <CHROM.1>
-179.75025373,-172.31185090,169.84309745,-139.72174846,176.66061559,-174.56666197
170.64290909,-174.99936596,-149.18260952,-82.05265237,-76.37441004,1.07582515
-2.39266138,10.16434049,0.50067507,0.57198028,-2.31751331

>  <Name>
ligand

>  <RI>
0

>  <Rbt.Current_Directory>
/home/itssahil/PROJECTS/Mol_Feturizer/New_Systems/rnas/1FUF

>  <Rbt.Executable>
rbdock ($Id: //depot/dev/client3/rdock/2013.1/src/exe/rbdock.cxx#4 $)

>  <Rbt.Library>
libRbt.so (2013.1, Build901 2013/11/27)

>  <Rbt.Parameter_File>
/export/apps/rDock/src/rDock_2013.1_src/data/scripts/dock_solv.prm

>  <Rbt.Receptor>
prm/pocket_docking_7.prm

>  <SCORE>
-3.2301

>  <SCORE.INTER>
-1.23877

>  <SCORE.INTER.CONST>
1

>  <SCORE.INTER.POLAR>
0

>  <SCORE.INTER.ROT>
11

>  <SCORE.INTER.SOLV>
16.3619

>  <SCORE.INTER.VDW>
-17.2132

>  <SCORE.INTER.norm>
-0.0884837

>  <SCORE.INTRA>
-1.99133

>  <SCORE.INTRA.DIHEDRAL>
-5.63121

>  <SCORE.INTRA.DIHEDRAL.0>
10.5765

>  <SCORE.INTRA.POLAR>
0

>  <SCORE.INTRA.POLAR.0>
0

>  <SCORE.INTRA.REPUL>
0

>  <SCORE.INTRA.REPUL.0>
0

>  <SCORE.INTRA.SOLV>
1.27164

>  <SCORE.INTRA.SOLV.lig_0>
-50.1861

>  <SCORE.INTRA.VDW>
0.188452

>  <SCORE.INTRA.VDW.0>
-1.36671

>  <SCORE.INTRA.norm>
-0.142238

>  <SCORE.RESTR>
0

>  <SCORE.RESTR.CAVITY>
0

>  <SCORE.RESTR.norm>
0

>  <SCORE.SYSTEM>
0

>  <SCORE.SYSTEM.CONST>
0

>  <SCORE.SYSTEM.DIHEDRAL>
0

>  <SCORE.SYSTEM.SOLV>
0

>  <SCORE.SYSTEM.norm>
0

>  <SCORE.heavy>
14

>  <SCORE.norm>
-0.230722

>  <RMSD>
2.028

$$$$
ligand
 OpenBabel11021811393D
libRbt.so/2013.1/901 2013/11/27
 14 13  0  0  0  0  0  0  0  0999 V2000
   -4.5503    1.2498    9.3187 N   0  0  0  0  0  0  0  0  0  0  0  0
   -3.2971    1.9592    8.8045 C   0  0  0  0  0  0  0  0  0  0  0  0
   -2.2088    0.9515    8.8865 C   0  0  0  0  0  0  0  0  0  0  0  0
   -1.8325    0.5420   10.3012 C   0  0  0  0  0  0  0  0  0  0  0  0
   -0.7197   -0.4437   10.2534 N   0  0  0  0  0  0  0  0  0  0  0  0
    0.4102    0.0165   11.1922 C   0  0  0  0  0  0  0  0  0  0  0  0
    1.1460   -1.3671   11.5332 C   0  0  0  0  0  0  0  0  0  0  0  0
    1.8382   -1.7579   10.4908 C   0  0  0  0  0  0  0  0  0  0  0  0
    2.5259   -3.0661   11.1962 C   0  0  0  0  0  0  0  0  0  0  0  0
    3.4362   -3.5064   10.0009 N   0  0  0  0  0  0  0  0  0  0  0  0
    4.3806   -4.7271   10.3431 C   0  0  0  0  0  0  0  0  0  0  0  0
    5.2122   -5.0491    8.9747 C   0  0  0  0  0  0  0  0  0  0  0  0
    4.1774   -5.6432    8.0640 C   0  0  0  0  0  0  0  0  0  0  0  0
    3.9083   -7.0241    8.6139 N   0  0  0  0  0  0  0  0  0  0  0  0
  1  2  1  0  0  0  0
  2  3  1  0  0  0  0
  3  4  1  0  0  0  0
  4  5  1  0  0  0  0
  5  6  1  0  0  0  0
  6  7  1  0  0  0  0
  7  8  1  0  0  0  0
  8  9  1  0  0  0  0
  9 10  1  0  0  0  0
 10 11  1  0  0  0  0
 11 12  1  0  0  0  0
 12 13  1  0  0  0  0
 13 14  1  0  0  0  0
M  END
>  <CHROM.1>
-66.74933730,-178.83337751,128.87017999,155.41490604,73.93577261,175.66397702
-176.51920071,175.53491327,178.76857274,-71.12904174,-72.77916894,1.03068605
-1.99023382,9.85535107,2.68038499,-0.60089489,0.89561794

>  <Name>
ligand

>  <RI>
0

>  <Rbt.Current_Directory>
/home/itssahil/PROJECTS/Mol_Feturizer/New_Systems/rnas/1FUF

>  <Rbt.Executable>
rbdock ($Id: //depot/dev/client3/rdock/2013.1/src/exe/rbdock.cxx#4 $)

>  <Rbt.Library>
libRbt.so (2013.1, Build901 2013/11/27)

>  <Rbt.Parameter_File>
/export/apps/rDock/src/rDock_2013.1_src/data/scripts/dock_solv.prm

>  <Rbt.Receptor>
prm/pocket_docking_7.prm

>  <SCORE>
-2.62891

>  <SCORE.INTER>
-1.39711

>  <SCORE.INTER.CONST>
1

>  <SCORE.INTER.POLAR>
0

>  <SCORE.INTER.ROT>
11

>  <SCORE.INTER.SOLV>
17.5536

>  <SCORE.INTER.VDW>
-17.7159

>  <SCORE.INTER.norm>
-0.0997934

>  <SCORE.INTRA>
-1.2318

>  <SCORE.INTRA.DIHEDRAL>
-6.93702

>  <SCORE.INTRA.DIHEDRAL.0>
10.5765

>  <SCORE.INTRA.POLAR>
0

>  <SCORE.INTRA.POLAR.0>
0

>  <SCORE.INTRA.REPUL>
0

>  <SCORE.INTRA.REPUL.0>
0

>  <SCORE.INTRA.SOLV>
2.84745

>  <SCORE.INTRA.SOLV.lig_0>
-50.1861

>  <SCORE.INTRA.VDW>
0.812983

>  <SCORE.INTRA.VDW.0>
-1.36671

>  <SCORE.INTRA.norm>
-0.087986

>  <SCORE.RESTR>
0

>  <SCORE.RESTR.CAVITY>
0

>  <SCORE.RESTR.norm>
0

>  <SCORE.SYSTEM>
0

>  <SCORE.SYSTEM.CONST>
0

>  <SCORE.SYSTEM.DIHEDRAL>
0

>  <SCORE.SYSTEM.SOLV>
0

>  <SCORE.SYSTEM.norm>
0

>  <SCORE.heavy>
14

>  <SCORE.norm>
-0.187779

>  <RMSD>
2.029

$$$$
ligand
 OpenBabel11021811393D
libRbt.so/2013.1/901 2013/11/27
 14 13  0  0  0  0  0  0  0  0999 V2000
    3.9278   -5.9112   10.4745 N   0  0  0  0  0  0  0  0  0  0  0  0
    3.8243   -5.1854    9.1326 C   0  0  0  0  0  0  0  0  0  0  0  0
    4.4638   -3.8619    9.3468 C   0  0  0  0  0  0  0  0  0  0  0  0
    3.7336   -2.9593   10.3281 C   0  0  0  0  0  0  0  0  0  0  0  0
    2.4006   -2.5999    9.7748 N   0  0  0  0  0  0  0  0  0  0  0  0
    1.3868   -2.4755   10.9265 C   0  0  0  0  0  0  0  0  0  0  0  0
    0.7042   -1.0571   10.6195 C   0  0  0  0  0  0  0  0  0  0  0  0
   -0.1903   -0.7980   11.5421 C   0  0  0  0  0  0  0  0  0  0  0  0
   -0.5636    0.7117   11.0293 C   0  0  0  0  0  0  0  0  0  0  0  0
   -1.7268    0.3301   10.0532 N   0  0  0  0  0  0  0  0  0  0  0  0
   -3.0528    1.1553   10.2983 C   0  0  0  0  0  0  0  0  0  0  0  0
   -3.6571    1.4849    8.8171 C   0  0  0  0  0  0  0  0  0  0  0  0
   -2.6116    2.3657    8.1971 C   0  0  0  0  0  0  0  0  0  0  0  0
   -3.2166    2.8503    6.9006 N   0  0  0  0  0  0  0  0  0  0  0  0
  1  2  1  0  0  0  0
  2  3  1  0  0  0  0
  3  4  1  0  0  0  0
  4  5  1  0  0  0  0
  5  6  1  0  0  0  0
  6  7  1  0  0  0  0
  7  8  1  0  0  0  0
  8  9  1  0  0  0  0
  9 10  1  0  0  0  0
 10 11  1  0  0  0  0
 11 12  1  0  0  0  0
 12 13  1  0  0  0  0
 13 14  1  0  0  0  0
M  END
>  <CHROM.1>
-65.52686442,-64.96457216,145.92180339,130.33664669,-179.28539943,174.89227403
90.20734316,128.73448822,140.60863806,-64.20425536,-172.37383420,0.38731999
-1.13921568,9.81739049,0.22805784,-0.73272130,1.72667954

>  <Name>
ligand

>  <RI>
0

>  <Rbt.Current_Directory>
/home/itssahil/PROJECTS/Mol_Feturizer/New_Systems/rnas/1FUF

>  <Rbt.Executable>
rbdock ($Id: //depot/dev/client3/rdock/2013.1/src/exe/rbdock.cxx#4 $)

>  <Rbt.Library>
libRbt.so (2013.1, Build901 2013/11/27)

>  <Rbt.Parameter_File>
/export/apps/rDock/src/rDock_2013.1_src/data/scripts/dock_solv.prm

>  <Rbt.Receptor>
prm/blind_docking_40.prm

>  <SCORE>
-0.677573

>  <SCORE.INTER>
-1.15083

>  <SCORE.INTER.CONST>
1

>  <SCORE.INTER.POLAR>
0

>  <SCORE.INTER.ROT>
11

>  <SCORE.INTER.SOLV>
19.3868

>  <SCORE.INTER.VDW>
-18.1628

>  <SCORE.INTER.norm>
-0.0822018

>  <SCORE.INTRA>
0.473252

>  <SCORE.INTRA.DIHEDRAL>
-3.32155

>  <SCORE.INTRA.DIHEDRAL.0>
10.5765

>  <SCORE.INTRA.POLAR>
0

>  <SCORE.INTRA.POLAR.0>
0

>  <SCORE.INTRA.REPUL>
0

>  <SCORE.INTRA.REPUL.0>
0

>  <SCORE.INTRA.SOLV>
2.83041

>  <SCORE.INTRA.SOLV.lig_0>
-50.1861

>  <SCORE.INTRA.VDW>
0.718822

>  <SCORE.INTRA.VDW.0>
-1.36671

>  <SCORE.INTRA.norm>
0.0338037

>  <SCORE.RESTR>
0

>  <SCORE.RESTR.CAVITY>
0

>  <SCORE.RESTR.norm>
0

>  <SCORE.SYSTEM>
0

>  <SCORE.SYSTEM.CONST>
0

>  <SCORE.SYSTEM.DIHEDRAL>
0

>  <SCORE.SYSTEM.SOLV>
0

>  <SCORE.SYSTEM.norm>
0

>  <SCORE.heavy>
14

>  <SCORE.norm>
-0.0483981

>  <RMSD>
2.030

$$$$
ligand
 OpenBabel11021811393D
libRbt.so/2013.1/901 2013/11/27
 14 13  0  0  0  0  0  0  0  0999 V2000
    5.3375   -6.6468    8.0653 N   0  0  0  0  0  0  0  0  0  0  0  0
    4.0706   -6.9321    8.8726 C   0  0  0  0  0  0  0  0  0  0  0  0
    3.8295   -5.7078    9.6786 C   0  0  0  0  0  0  0  0  0  0  0  0
    2.5916   -5.7649   10.5588 C   0  0  0  0  0  0  0  0  0  0  0  0
    2.4078   -4.4570   11.2427 N   0  0  0  0  0  0  0  0  0  0  0  0
    1.6525   -3.4944   10.3084 C   0  0  0  0  0  0  0  0  0  0  0  0
    1.8668   -2.0827   11.0385 C   0  0  0  0  0  0  0  0  0  0  0  0
    1.3646   -1.1287   10.2927 C   0  0  0  0  0  0  0  0  0  0  0  0
   -0.1221   -1.1108   10.9789 C   0  0  0  0  0  0  0  0  0  0  0  0
   -0.7544    0.0220   10.1023 N   0  0  0  0  0  0  0  0  0  0  0  0
   -2.2854    0.2741   10.4050 C   0  0  0  0  0  0  0  0  0  0  0  0
   -2.8383    1.2034    9.1808 C   0  0  0  0  0  0  0  0  0  0  0  0
   -4.2693    1.4626    9.5527 C   0  0  0  0  0  0  0  0  0  0  0  0
   -4.8425    2.2561    8.4022 N   0  0  0  0  0  0  0  0  0  0  0  0
  1  2  1  0  0  0  0
  2  3  1  0  0  0  0
  3  4  1  0  0  0  0
  4  5  1  0  0  0  0
  5  6  1  0  0  0  0
  6  7  1  0  0  0  0
  7  8  1  0  0  0  0
  8  9  1  0  0  0  0
  9 10  1  0  0  0  0
 10 11  1  0  0  0  0
 11 12  1  0  0  0  0
 12 13  1  0  0  0  0
 13 14  1  0  0  0  0
M  END
>  <CHROM.1>
179.33375808,-176.25413768,84.44861212,-166.64531597,174.83624329,92.45766714
-179.80350770,175.79727091,-166.78219631,-177.43354919,-176.83182468,0.57208353
-2.29339429,9.90586566,0.32885546,0.72884961,-2.05167926

>  <Name>
ligand

>  <RI>
0

>  <Rbt.Current_Directory>
/home/itssahil/PROJECTS/Mol_Feturizer/New_Systems/rnas/1FUF

>  <Rbt.Executable>
rbdock ($Id: //depot/dev/client3/rdock/2013.1/src/exe/rbdock.cxx#4 $)

>  <Rbt.Library>
libRbt.so (2013.1, Build901 2013/11/27)

>  <Rbt.Parameter_File>
/export/apps/rDock/src/rDock_2013.1_src/data/scripts/dock_solv.prm

>  <Rbt.Receptor>
prm/pocket_docking_7.prm

>  <SCORE>
-4.56108

>  <SCORE.INTER>
-2.63615

>  <SCORE.INTER.CONST>
1

>  <SCORE.INTER.POLAR>
0

>  <SCORE.INTER.ROT>
11

>  <SCORE.INTER.SOLV>
14.8615

>  <SCORE.INTER.VDW>
-17.6446

>  <SCORE.INTER.norm>
-0.188296

>  <SCORE.INTRA>
-1.92493

>  <SCORE.INTRA.DIHEDRAL>
-6.18464

>  <SCORE.INTRA.DIHEDRAL.0>
10.5765

>  <SCORE.INTRA.POLAR>
0

>  <SCORE.INTRA.POLAR.0>
0

>  <SCORE.INTRA.REPUL>
0

>  <SCORE.INTRA.REPUL.0>
0

>  <SCORE.INTRA.SOLV>
0.174386

>  <SCORE.INTRA.SOLV.lig_0>
-50.1861

>  <SCORE.INTRA.VDW>
1.08019

>  <SCORE.INTRA.VDW.0>
-1.36671

>  <SCORE.INTRA.norm>
-0.137495

>  <SCORE.RESTR>
0

>  <SCORE.RESTR.CAVITY>
0

>  <SCORE.RESTR.norm>
0

>  <SCORE.SYSTEM>
0

>  <SCORE.SYSTEM.CONST>
0

>  <SCORE.SYSTEM.DIHEDRAL>
0

>  <SCORE.SYSTEM.SOLV>
0

>  <SCORE.SYSTEM.norm>
0

>  <SCORE.heavy>
14

>  <SCORE.norm>
-0.325791

>  <RMSD>
2.031

$$$$
ligand
 OpenBabel11021811393D
libRbt.so/2013.1/901 2013/11/27
 14 13  0  0  0  0  0  0  0  0999 V2000
   -5.4473    1.4879    9.4426 N   0  0  0  0  0  0  0  0  0  0  0  0
   -3.9504    1.6859    9.2019 C   0  0  0  0  0  0  0  0  0  0  0  0
   -3.2770    0.6279    9.9981 C   0  0  0  0  0  0  0  0  0  0  0  0
   -1.7598    0.6373    9.9055 C   0  0  0  0  0  0  0  0  0  0  0  0
   -1.2063   -0.4852   10.7092 N   0  0  0  0  0  0  0  0  0  0  0  0
    0.3186   -0.5524   10.5095 C   0  0  0  0  0  0  0  0  0  0  0  0
    0.6124   -2.1173   10.7013 C   0  0  0  0  0  0  0  0  0  0  0  0
    1.8981   -2.3361   10.5689 C   0  0  0  0  0  0  0  0  0  0  0  0
    1.8319   -3.9657   10.7163 C   0  0  0  0  0  0  0  0  0  0  0  0
    3.3543   -4.2665   10.5081 N   0  0  0  0  0  0  0  0  0  0  0  0
    3.6497   -5.7587   10.0780 C   0  0  0  0  0  0  0  0  0  0  0  0
    3.8795   -5.7232    8.4613 C   0  0  0  0  0  0  0  0  0  0  0  0
    4.0456   -7.1697    8.0963 C   0  0  0  0  0  0  0  0  0  0  0  0
    5.4011   -7.5632    8.6343 N   0  0  0  0  0  0  0  0  0  0  0  0
  1  2  1  0  0  0  0
  2  3  1  0  0  0  0
  3  4  1  0  0  0  0
  4  5  1  0  0  0  0
  5  6  1  0  0  0  0
  6  7  1  0  0  0  0
  7  8  1  0  0  0  0
  8  9  1  0  0  0  0
  9 10  1  0  0  0  0
 10 11  1  0  0  0  0
 11 12  1  0  0  0  0
 12 13  1  0  0  0  0
 13 14  1  0  0  0  0
M  END
>  <CHROM.1>
-179.98255148,-178.39658242,174.81789327,-150.11915595,-179.45865822,-176.54260471
177.98788362,-159.69994891,100.08417649,-175.66643152,-71.71870808,0.66793483
-2.53557024,9.82367224,2.58703568,-0.55936161,0.80113938

>  <Name>
ligand

>  <RI>
0

>  <Rbt.Current_Directory>
/home/itssahil/PROJECTS/Mol_Feturizer/New_Systems/rnas/1FUF

>  <Rbt.Executable>
rbdock ($Id: //depot/dev/client3/rdock/2013.1/src/exe/rbdock.cxx#4 $)

>  <Rbt.Library>
libRbt.so (2013.1, Build901 2013/11/27)

>  <Rbt.Parameter_File>
/export/apps/rDock/src/rDock_2013.1_src/data/scripts/dock_solv.prm

>  <Rbt.Receptor>
prm/blind_docking_60.prm

>  <SCORE>
-6.69383

>  <SCORE.INTER>
-3.28604

>  <SCORE.INTER.CONST>
1

>  <SCORE.INTER.POLAR>
0

>  <SCORE.INTER.ROT>
11

>  <SCORE.INTER.SOLV>
15.8048

>  <SCORE.INTER.VDW>
-18.3923

>  <SCORE.INTER.norm>
-0.234717

>  <SCORE.INTRA>
-3.40779

>  <SCORE.INTRA.DIHEDRAL>
-8.09743

>  <SCORE.INTRA.DIHEDRAL.0>
10.5765

>  <SCORE.INTRA.POLAR>
0

>  <SCORE.INTRA.POLAR.0>
0

>  <SCORE.INTRA.REPUL>
0

>  <SCORE.INTRA.REPUL.0>
0

>  <SCORE.INTRA.SOLV>
0.733464

>  <SCORE.INTRA.SOLV.lig_0>
-50.1861

>  <SCORE.INTRA.VDW>
0.274193

>  <SCORE.INTRA.VDW.0>
-1.36671

>  <SCORE.INTRA.norm>
-0.243413

>  <SCORE.RESTR>
0

>  <SCORE.RESTR.CAVITY>
0

>  <SCORE.RESTR.norm>
0

>  <SCORE.SYSTEM>
0

>  <SCORE.SYSTEM.CONST>
0

>  <SCORE.SYSTEM.DIHEDRAL>
0

>  <SCORE.SYSTEM.SOLV>
0

>  <SCORE.SYSTEM.norm>
0

>  <SCORE.heavy>
14

>  <SCORE.norm>
-0.478131

>  <RMSD>
2.036

$$$$
ligand
 OpenBabel11021811393D
libRbt.so/2013.1/901 2013/11/27
 14 13  0  0  0  0  0  0  0  0999 V2000
   -4.6975    1.9933    9.9105 N   0  0  0  0  0  0  0  0  0  0  0  0
   -4.0701    0.8270    9.1461 C   0  0  0  0  0  0  0  0  0  0  0  0
   -3.1396    0.1785   10.1054 C   0  0  0  0  0  0  0  0  0  0  0  0
   -1.9919    1.0619   10.5671 C   0  0  0  0  0  0  0  0  0  0  0  0
   -0.8527    0.2095   11.0008 N   0  0  0  0  0  0  0  0  0  0  0  0
   -0.1377   -0.3563    9.7604 C   0  0  0  0  0  0  0  0  0  0  0  0
    1.2062   -0.9590   10.3951 C   0  0  0  0  0  0  0  0  0  0  0  0
    0.9242   -2.0696   11.0321 C   0  0  0  0  0  0  0  0  0  0  0  0
    2.4591   -2.6325   11.1257 C   0  0  0  0  0  0  0  0  0  0  0  0
    2.1616   -3.9494   11.9184 N   0  0  0  0  0  0  0  0  0  0  0  0
    1.6640   -5.1384   11.0030 C   0  0  0  0  0  0  0  0  0  0  0  0
    2.9840   -6.0486   10.6918 C   0  0  0  0  0  0  0  0  0  0  0  0
    3.6655   -5.3123    9.5753 C   0  0  0  0  0  0  0  0  0  0  0  0
    4.8443   -6.1749    9.1902 N   0  0  0  0  0  0  0  0  0  0  0  0
  1  2  1  0  0  0  0
  2  3  1  0  0  0  0
  3  4  1  0  0  0  0
  4  5  1  0  0  0  0
  5  6  1  0  0  0  0
  6  7  1  0  0  0  0
  7  8  1  0  0  0  0
  8  9  1  0  0  0  0
  9 10  1  0  0  0  0
 10 11  1  0  0  0  0
 11 12  1  0  0  0  0
 12 13  1  0  0  0  0
 13 14  1  0  0  0  0
M  END
>  <CHROM.1>
-63.12464962,-155.38895819,75.79339026,168.25809337,74.35210964,163.44696215
178.63550288,82.05596596,97.09403866,-81.02273548,-176.14321746,0.35852339
-2.02650243,10.38724449,2.45931417,-0.38305562,0.37816371

>  <Name>
ligand

>  <RI>
0

>  <Rbt.Current_Directory>
/home/itssahil/PROJECTS/Mol_Feturizer/New_Systems/rnas/1FUF

>  <Rbt.Executable>
rbdock ($Id: //depot/dev/client3/rdock/2013.1/src/exe/rbdock.cxx#4 $)

>  <Rbt.Library>
libRbt.so (2013.1, Build901 2013/11/27)

>  <Rbt.Parameter_File>
/export/apps/rDock/src/rDock_2013.1_src/data/scripts/dock_solv.prm

>  <Rbt.Receptor>
prm/blind_docking_100.prm

>  <SCORE>
-1.16804

>  <SCORE.INTER>
-1.54462

>  <SCORE.INTER.CONST>
1

>  <SCORE.INTER.POLAR>
0

>  <SCORE.INTER.ROT>
11

>  <SCORE.INTER.SOLV>
17.2704

>  <SCORE.INTER.VDW>
-17.7199

>  <SCORE.INTER.norm>
-0.11033

>  <SCORE.INTRA>
0.37658

>  <SCORE.INTRA.DIHEDRAL>
-3.67365

>  <SCORE.INTRA.DIHEDRAL.0>
10.5765

>  <SCORE.INTRA.POLAR>
0

>  <SCORE.INTRA.POLAR.0>
0

>  <SCORE.INTRA.REPUL>
0

>  <SCORE.INTRA.REPUL.0>
0

>  <SCORE.INTRA.SOLV>
1.38285

>  <SCORE.INTRA.SOLV.lig_0>
-50.1861

>  <SCORE.INTRA.VDW>
1.52198

>  <SCORE.INTRA.VDW.0>
-1.36671

>  <SCORE.INTRA.norm>
0.0268986

>  <SCORE.RESTR>
0

>  <SCORE.RESTR.CAVITY>
0

>  <SCORE.RESTR.norm>
0

>  <SCORE.SYSTEM>
0

>  <SCORE.SYSTEM.CONST>
0

>  <SCORE.SYSTEM.DIHEDRAL>
0

>  <SCORE.SYSTEM.SOLV>
0

>  <SCORE.SYSTEM.norm>
0

>  <SCORE.heavy>
14

>  <SCORE.norm>
-0.0834312

>  <RMSD>
2.042

$$$$
ligand
 OpenBabel11021811393D
libRbt.so/2013.1/901 2013/11/27
 14 13  0  0  0  0  0  0  0  0999 V2000
    5.4459   -6.7453    8.0490 N   0  0  0  0  0  0  0  0  0  0  0  0
    4.1790   -6.1342    8.6486 C   0  0  0  0  0  0  0  0  0  0  0  0
    4.3552   -6.2205   10.1210 C   0  0  0  0  0  0  0  0  0  0  0  0
    3.1617   -5.7377   10.9292 C   0  0  0  0  0  0  0  0  0  0  0  0
    2.9661   -4.2806   10.7036 N   0  0  0  0  0  0  0  0  0  0  0  0
    1.4603   -3.9607   10.7113 C   0  0  0  0  0  0  0  0  0  0  0  0
    1.4579   -2.3602   10.6095 C   0  0  0  0  0  0  0  0  0  0  0  0
    0.2223   -1.9345   10.5066 C   0  0  0  0  0  0  0  0  0  0  0  0
    0.5825   -0.3553   10.2657 C   0  0  0  0  0  0  0  0  0  0  0  0
   -0.8379    0.1275    9.8176 N   0  0  0  0  0  0  0  0  0  0  0  0
   -1.5015    1.1533   10.8209 C   0  0  0  0  0  0  0  0  0  0  0  0
   -3.0832    1.2160   10.4185 C   0  0  0  0  0  0  0  0  0  0  0  0
   -3.0727    1.7958    9.0340 C   0  0  0  0  0  0  0  0  0  0  0  0
   -4.5245    1.8763    8.6247 N   0  0  0  0  0  0  0  0  0  0  0  0
  1  2  1  0  0  0  0
  2  3  1  0  0  0  0
  3  4  1  0  0  0  0
  4  5  1  0  0  0  0
  5  6  1  0  0  0  0
  6  7  1  0  0  0  0
  7  8  1  0  0  0  0
  8  9  1  0  0  0  0
  9 10  1  0  0  0  0
 10 11  1  0  0  0  0
 11 12  1  0  0  0  0
 12 13  1  0  0  0  0
 13 14  1  0  0  0  0
M  END
>  <CHROM.1>
-176.54372022,-65.06128073,144.71847694,174.43241567,175.43159446,-174.27878261
167.83792108,115.03495710,-164.91178631,-64.49236477,-179.77731471,0.77221472
-2.25429119,9.94742116,0.13369502,0.80296958,-1.74105835

>  <Name>
ligand

>  <RI>
0

>  <Rbt.Current_Directory>
/home/itssahil/PROJECTS/Mol_Feturizer/New_Systems/rnas/1FUF

>  <Rbt.Executable>
rbdock ($Id: //depot/dev/client3/rdock/2013.1/src/exe/rbdock.cxx#4 $)

>  <Rbt.Library>
libRbt.so (2013.1, Build901 2013/11/27)

>  <Rbt.Parameter_File>
/export/apps/rDock/src/rDock_2013.1_src/data/scripts/dock_solv.prm

>  <Rbt.Receptor>
prm/blind_docking_40.prm

>  <SCORE>
-5.72867

>  <SCORE.INTER>
-2.63261

>  <SCORE.INTER.CONST>
1

>  <SCORE.INTER.POLAR>
0

>  <SCORE.INTER.ROT>
11

>  <SCORE.INTER.SOLV>
14.6562

>  <SCORE.INTER.VDW>
-17.5738

>  <SCORE.INTER.norm>
-0.188044

>  <SCORE.INTRA>
-3.09606

>  <SCORE.INTRA.DIHEDRAL>
-7.45637

>  <SCORE.INTRA.DIHEDRAL.0>
10.5765

>  <SCORE.INTRA.POLAR>
0

>  <SCORE.INTRA.POLAR.0>
0

>  <SCORE.INTRA.REPUL>
0

>  <SCORE.INTRA.REPUL.0>
0

>  <SCORE.INTRA.SOLV>
0.740164

>  <SCORE.INTRA.SOLV.lig_0>
-50.1861

>  <SCORE.INTRA.VDW>
0.262043

>  <SCORE.INTRA.VDW.0>
-1.36671

>  <SCORE.INTRA.norm>
-0.221147

>  <SCORE.RESTR>
0

>  <SCORE.RESTR.CAVITY>
0

>  <SCORE.RESTR.norm>
0

>  <SCORE.SYSTEM>
0

>  <SCORE.SYSTEM.CONST>
0

>  <SCORE.SYSTEM.DIHEDRAL>
0

>  <SCORE.SYSTEM.SOLV>
0

>  <SCORE.SYSTEM.norm>
0

>  <SCORE.heavy>
14

>  <SCORE.norm>
-0.409191

>  <RMSD>
2.042

$$$$
ligand
 OpenBabel11021811393D
libRbt.so/2013.1/901 2013/11/27
 14 13  0  0  0  0  0  0  0  0999 V2000
    5.2939   -6.6317    8.4988 N   0  0  0  0  0  0  0  0  0  0  0  0
    3.8520   -6.4183    8.9606 C   0  0  0  0  0  0  0  0  0  0  0  0
    3.9356   -6.1765   10.4239 C   0  0  0  0  0  0  0  0  0  0  0  0
    4.6274   -4.8795   10.8111 C   0  0  0  0  0  0  0  0  0  0  0  0
    3.8632   -3.7267   10.2641 N   0  0  0  0  0  0  0  0  0  0  0  0
    2.7363   -3.3508   11.2431 C   0  0  0  0  0  0  0  0  0  0  0  0
    2.0128   -2.1444   10.4730 C   0  0  0  0  0  0  0  0  0  0  0  0
    0.9553   -1.7697   11.1513 C   0  0  0  0  0  0  0  0  0  0  0  0
    0.4895   -0.5729   10.1353 C   0  0  0  0  0  0  0  0  0  0  0  0
   -0.8968   -0.2565   10.7906 N   0  0  0  0  0  0  0  0  0  0  0  0
   -1.6915    0.8984   10.0599 C   0  0  0  0  0  0  0  0  0  0  0  0
   -3.2718    0.6170   10.3617 C   0  0  0  0  0  0  0  0  0  0  0  0
   -3.9617    1.8157    9.7785 C   0  0  0  0  0  0  0  0  0  0  0  0
   -3.8303    1.6619    8.2815 N   0  0  0  0  0  0  0  0  0  0  0  0
  1  2  1  0  0  0  0
  2  3  1  0  0  0  0
  3  4  1  0  0  0  0
  4  5  1  0  0  0  0
  5  6  1  0  0  0  0
  6  7  1  0  0  0  0
  7  8  1  0  0  0  0
  8  9  1  0  0  0  0
  9 10  1  0  0  0  0
 10 11  1  0  0  0  0
 11 12  1  0  0  0  0
 12 13  1  0  0  0  0
 13 14  1  0  0  0  0
M  END
>  <CHROM.1>
66.88231747,61.91430115,85.25996321,-178.33583158,175.64575746,179.54572107
171.32935692,-179.93579544,153.57947671,174.00513965,70.57427891,1.00808765
-2.20955505,10.08834973,0.40875597,0.64454860,-2.20897934

>  <Name>
ligand

>  <RI>
0

>  <Rbt.Current_Directory>
/home/itssahil/PROJECTS/Mol_Feturizer/New_Systems/rnas/1FUF

>  <Rbt.Executable>
rbdock ($Id: //depot/dev/client3/rdock/2013.1/src/exe/rbdock.cxx#4 $)

>  <Rbt.Library>
libRbt.so (2013.1, Build901 2013/11/27)

>  <Rbt.Parameter_File>
/export/apps/rDock/src/rDock_2013.1_src/data/scripts/dock_solv.prm

>  <Rbt.Receptor>
prm/pocket_docking_3.prm

>  <SCORE>
-5.65549

>  <SCORE.INTER>
-3.52546

>  <SCORE.INTER.CONST>
1

>  <SCORE.INTER.POLAR>
0

>  <SCORE.INTER.ROT>
11

>  <SCORE.INTER.SOLV>
14.8364

>  <SCORE.INTER.VDW>
-18.2291

>  <SCORE.INTER.norm>
-0.251818

>  <SCORE.INTRA>
-2.13003

>  <SCORE.INTRA.DIHEDRAL>
-8.54319

>  <SCORE.INTRA.DIHEDRAL.0>
10.5765

>  <SCORE.INTRA.POLAR>
0

>  <SCORE.INTRA.POLAR.0>
0

>  <SCORE.INTRA.REPUL>
0

>  <SCORE.INTRA.REPUL.0>
0

>  <SCORE.INTRA.SOLV>
2.54685

>  <SCORE.INTRA.SOLV.lig_0>
-50.1861

>  <SCORE.INTRA.VDW>
0.868139

>  <SCORE.INTRA.VDW.0>
-1.36671

>  <SCORE.INTRA.norm>
-0.152145

>  <SCORE.RESTR>
0

>  <SCORE.RESTR.CAVITY>
0

>  <SCORE.RESTR.norm>
0

>  <SCORE.SYSTEM>
0

>  <SCORE.SYSTEM.CONST>
0

>  <SCORE.SYSTEM.DIHEDRAL>
0

>  <SCORE.SYSTEM.SOLV>
0

>  <SCORE.SYSTEM.norm>
0

>  <SCORE.heavy>
14

>  <SCORE.norm>
-0.403963

>  <RMSD>
2.044

$$$$
ligand
 OpenBabel11021811393D
libRbt.so/2013.1/901 2013/11/27
 14 13  0  0  0  0  0  0  0  0999 V2000
    4.9036   -4.8626    8.6644 N   0  0  0  0  0  0  0  0  0  0  0  0
    4.7099   -6.3378    9.0168 C   0  0  0  0  0  0  0  0  0  0  0  0
    4.2446   -6.3511   10.4275 C   0  0  0  0  0  0  0  0  0  0  0  0
    2.8127   -5.8805   10.6245 C   0  0  0  0  0  0  0  0  0  0  0  0
    2.7206   -4.4282   10.3169 N   0  0  0  0  0  0  0  0  0  0  0  0
    1.3032   -3.9258   10.6462 C   0  0  0  0  0  0  0  0  0  0  0  0
    1.4601   -2.3400   10.4655 C   0  0  0  0  0  0  0  0  0  0  0  0
    0.3040   -1.7625   10.6852 C   0  0  0  0  0  0  0  0  0  0  0  0
    0.7483   -0.2580   10.2153 C   0  0  0  0  0  0  0  0  0  0  0  0
   -0.5739    0.4896   10.5952 N   0  0  0  0  0  0  0  0  0  0  0  0
   -1.6439    0.5103    9.4317 C   0  0  0  0  0  0  0  0  0  0  0  0
   -3.0991    0.6417   10.1619 C   0  0  0  0  0  0  0  0  0  0  0  0
   -4.0733    0.5782    9.0217 C   0  0  0  0  0  0  0  0  0  0  0  0
   -3.9774    1.9229    8.3402 N   0  0  0  0  0  0  0  0  0  0  0  0
  1  2  1  0  0  0  0
  2  3  1  0  0  0  0
  3  4  1  0  0  0  0
  4  5  1  0  0  0  0
  5  6  1  0  0  0  0
  6  7  1  0  0  0  0
  7  8  1  0  0  0  0
  8  9  1  0  0  0  0
  9 10  1  0  0  0  0
 10 11  1  0  0  0  0
 11 12  1  0  0  0  0
 12 13  1  0  0  0  0
 13 14  1  0  0  0  0
M  END
>  <CHROM.1>
72.71256572,-67.76738066,-174.62101651,171.93773069,178.47452412,-172.15295310
-174.86885223,-88.97057201,153.57883464,-176.91659752,-74.61659294,0.70278848
-2.28621656,9.90110095,-0.75628188,0.15020608,-0.22037893

>  <Name>
ligand

>  <RI>
0

>  <Rbt.Current_Directory>
/home/itssahil/PROJECTS/Mol_Feturizer/New_Systems/rnas/1FUF

>  <Rbt.Executable>
rbdock ($Id: //depot/dev/client3/rdock/2013.1/src/exe/rbdock.cxx#4 $)

>  <Rbt.Library>
libRbt.so (2013.1, Build901 2013/11/27)

>  <Rbt.Parameter_File>
/export/apps/rDock/src/rDock_2013.1_src/data/scripts/dock_solv.prm

>  <Rbt.Receptor>
prm/blind_docking_20.prm

>  <SCORE>
-3.80291

>  <SCORE.INTER>
-2.35811

>  <SCORE.INTER.CONST>
1

>  <SCORE.INTER.POLAR>
0

>  <SCORE.INTER.ROT>
11

>  <SCORE.INTER.SOLV>
15.276

>  <SCORE.INTER.VDW>
-17.5974

>  <SCORE.INTER.norm>
-0.168437

>  <SCORE.INTRA>
-1.4448

>  <SCORE.INTRA.DIHEDRAL>
-7.46197

>  <SCORE.INTRA.DIHEDRAL.0>
10.5765

>  <SCORE.INTRA.POLAR>
0

>  <SCORE.INTRA.POLAR.0>
0

>  <SCORE.INTRA.REPUL>
0

>  <SCORE.INTRA.REPUL.0>
0

>  <SCORE.INTRA.SOLV>
3.72694

>  <SCORE.INTRA.SOLV.lig_0>
-50.1861

>  <SCORE.INTRA.VDW>
0.422718

>  <SCORE.INTRA.VDW.0>
-1.36671

>  <SCORE.INTRA.norm>
-0.1032

>  <SCORE.RESTR>
0

>  <SCORE.RESTR.CAVITY>
0

>  <SCORE.RESTR.norm>
0

>  <SCORE.SYSTEM>
0

>  <SCORE.SYSTEM.CONST>
0

>  <SCORE.SYSTEM.DIHEDRAL>
0

>  <SCORE.SYSTEM.SOLV>
0

>  <SCORE.SYSTEM.norm>
0

>  <SCORE.heavy>
14

>  <SCORE.norm>
-0.271636

>  <RMSD>
2.045

$$$$
ligand
 OpenBabel11021811393D
libRbt.so/2013.1/901 2013/11/27
 14 13  0  0  0  0  0  0  0  0999 V2000
    5.2659   -7.0307    8.0379 N   0  0  0  0  0  0  0  0  0  0  0  0
    4.0920   -6.2869    8.6758 C   0  0  0  0  0  0  0  0  0  0  0  0
    4.4090   -6.2139   10.1252 C   0  0  0  0  0  0  0  0  0  0  0  0
    3.3643   -5.4965   10.9646 C   0  0  0  0  0  0  0  0  0  0  0  0
    3.2990   -4.0666   10.5605 N   0  0  0  0  0  0  0  0  0  0  0  0
    2.3510   -3.3110   11.5094 C   0  0  0  0  0  0  0  0  0  0  0  0
    1.9143   -2.0539   10.6145 C   0  0  0  0  0  0  0  0  0  0  0  0
    0.9538   -1.4016   11.2232 C   0  0  0  0  0  0  0  0  0  0  0  0
    0.7093   -0.2829   10.0526 C   0  0  0  0  0  0  0  0  0  0  0  0
   -0.6220    0.3268   10.6069 N   0  0  0  0  0  0  0  0  0  0  0  0
   -1.7206    0.5604    9.4943 C   0  0  0  0  0  0  0  0  0  0  0  0
   -3.1599    0.4965   10.2638 C   0  0  0  0  0  0  0  0  0  0  0  0
   -4.1593    0.4943    9.1438 C   0  0  0  0  0  0  0  0  0  0  0  0
   -4.0914    1.8801    8.5465 N   0  0  0  0  0  0  0  0  0  0  0  0
  1  2  1  0  0  0  0
  2  3  1  0  0  0  0
  3  4  1  0  0  0  0
  4  5  1  0  0  0  0
  5  6  1  0  0  0  0
  6  7  1  0  0  0  0
  7  8  1  0  0  0  0
  8  9  1  0  0  0  0
  9 10  1  0  0  0  0
 10 11  1  0  0  0  0
 11 12  1  0  0  0  0
 12 13  1  0  0  0  0
 13 14  1  0  0  0  0
M  END
>  <CHROM.1>
179.65707118,-64.74446654,-174.05365801,-156.79140467,171.39299769,-177.31756259
168.84502938,-135.89622287,153.81639576,-170.96034459,-69.79712808,0.90036120
-2.31332165,9.98729460,0.42716435,0.65030811,-2.22924049

>  <Name>
ligand

>  <RI>
0

>  <Rbt.Current_Directory>
/home/itssahil/PROJECTS/Mol_Feturizer/New_Systems/rnas/1FUF

>  <Rbt.Executable>
rbdock ($Id: //depot/dev/client3/rdock/2013.1/src/exe/rbdock.cxx#4 $)

>  <Rbt.Library>
libRbt.so (2013.1, Build901 2013/11/27)

>  <Rbt.Parameter_File>
/export/apps/rDock/src/rDock_2013.1_src/data/scripts/dock_solv.prm

>  <Rbt.Receptor>
prm/pocket_docking_4.prm

>  <SCORE>
-5.77047

>  <SCORE.INTER>
-3.1162

>  <SCORE.INTER.CONST>
1

>  <SCORE.INTER.POLAR>
0

>  <SCORE.INTER.ROT>
11

>  <SCORE.INTER.SOLV>
15.3744

>  <SCORE.INTER.VDW>
-18.1356

>  <SCORE.INTER.norm>
-0.222586

>  <SCORE.INTRA>
-2.65427

>  <SCORE.INTRA.DIHEDRAL>
-7.16463

>  <SCORE.INTRA.DIHEDRAL.0>
10.5765

>  <SCORE.INTRA.POLAR>
0

>  <SCORE.INTRA.POLAR.0>
0

>  <SCORE.INTRA.REPUL>
0

>  <SCORE.INTRA.REPUL.0>
0

>  <SCORE.INTRA.SOLV>
1.10833

>  <SCORE.INTRA.SOLV.lig_0>
-50.1861

>  <SCORE.INTRA.VDW>
0.373882

>  <SCORE.INTRA.VDW.0>
-1.36671

>  <SCORE.INTRA.norm>
-0.189591

>  <SCORE.RESTR>
0

>  <SCORE.RESTR.CAVITY>
0

>  <SCORE.RESTR.norm>
0

>  <SCORE.SYSTEM>
0

>  <SCORE.SYSTEM.CONST>
0

>  <SCORE.SYSTEM.DIHEDRAL>
0

>  <SCORE.SYSTEM.SOLV>
0

>  <SCORE.SYSTEM.norm>
0

>  <SCORE.heavy>
14

>  <SCORE.norm>
-0.412176

>  <RMSD>
2.051

$$$$
ligand
 OpenBabel11021811393D
libRbt.so/2013.1/901 2013/11/27
 14 13  0  0  0  0  0  0  0  0999 V2000
    4.6153   -6.1929    8.5483 N   0  0  0  0  0  0  0  0  0  0  0  0
    4.5896   -6.5757   10.0285 C   0  0  0  0  0  0  0  0  0  0  0  0
    3.5507   -5.7106   10.6442 C   0  0  0  0  0  0  0  0  0  0  0  0
    3.8894   -4.2289   10.6573 C   0  0  0  0  0  0  0  0  0  0  0  0
    2.7739   -3.4701   11.2834 N   0  0  0  0  0  0  0  0  0  0  0  0
    2.4457   -2.2392   10.4190 C   0  0  0  0  0  0  0  0  0  0  0  0
    1.0057   -1.8108   10.9802 C   0  0  0  0  0  0  0  0  0  0  0  0
    0.5791   -0.7606   10.3217 C   0  0  0  0  0  0  0  0  0  0  0  0
   -0.9061   -0.6935   11.0083 C   0  0  0  0  0  0  0  0  0  0  0  0
   -1.4739    0.5111   10.1849 N   0  0  0  0  0  0  0  0  0  0  0  0
   -3.0425    0.6706   10.2998 C   0  0  0  0  0  0  0  0  0  0  0  0
   -3.4049    2.0853    9.5683 C   0  0  0  0  0  0  0  0  0  0  0  0
   -3.1083    1.8206    8.1208 C   0  0  0  0  0  0  0  0  0  0  0  0
   -3.4332    3.1106    7.4051 N   0  0  0  0  0  0  0  0  0  0  0  0
  1  2  1  0  0  0  0
  2  3  1  0  0  0  0
  3  4  1  0  0  0  0
  4  5  1  0  0  0  0
  5  6  1  0  0  0  0
  6  7  1  0  0  0  0
  7  8  1  0  0  0  0
  8  9  1  0  0  0  0
  9 10  1  0  0  0  0
 10 11  1  0  0  0  0
 11 12  1  0  0  0  0
 12 13  1  0  0  0  0
 13 14  1  0  0  0  0
M  END
>  <CHROM.1>
-66.43926710,179.47371994,-133.87628642,164.20614551,-179.49002260,174.63596215
-177.14960775,165.43038816,171.84149653,68.09207339,179.94793602,0.57717058
-1.67748759,9.96238146,-0.09706251,0.79935464,-1.58813602

>  <Name>
ligand

>  <RI>
0

>  <Rbt.Current_Directory>
/home/itssahil/PROJECTS/Mol_Feturizer/New_Systems/rnas/1FUF

>  <Rbt.Executable>
rbdock ($Id: //depot/dev/client3/rdock/2013.1/src/exe/rbdock.cxx#4 $)

>  <Rbt.Library>
libRbt.so (2013.1, Build901 2013/11/27)

>  <Rbt.Parameter_File>
/export/apps/rDock/src/rDock_2013.1_src/data/scripts/dock_solv.prm

>  <Rbt.Receptor>
prm/pocket_docking_5.prm

>  <SCORE>
-5.2928

>  <SCORE.INTER>
-1.91818

>  <SCORE.INTER.CONST>
1

>  <SCORE.INTER.POLAR>
0

>  <SCORE.INTER.ROT>
11

>  <SCORE.INTER.SOLV>
16.9976

>  <SCORE.INTER.VDW>
-17.878

>  <SCORE.INTER.norm>
-0.137013

>  <SCORE.INTRA>
-3.37462

>  <SCORE.INTRA.DIHEDRAL>
-8.56199

>  <SCORE.INTRA.DIHEDRAL.0>
10.5765

>  <SCORE.INTRA.POLAR>
0

>  <SCORE.INTRA.POLAR.0>
0

>  <SCORE.INTRA.REPUL>
0

>  <SCORE.INTRA.REPUL.0>
0

>  <SCORE.INTRA.SOLV>
1.21692

>  <SCORE.INTRA.SOLV.lig_0>
-50.1861

>  <SCORE.INTRA.VDW>
0.297917

>  <SCORE.INTRA.VDW.0>
-1.36671

>  <SCORE.INTRA.norm>
-0.241044

>  <SCORE.RESTR>
0

>  <SCORE.RESTR.CAVITY>
0

>  <SCORE.RESTR.norm>
0

>  <SCORE.SYSTEM>
0

>  <SCORE.SYSTEM.CONST>
0

>  <SCORE.SYSTEM.DIHEDRAL>
0

>  <SCORE.SYSTEM.SOLV>
0

>  <SCORE.SYSTEM.norm>
0

>  <SCORE.heavy>
14

>  <SCORE.norm>
-0.378057

>  <RMSD>
2.053

$$$$
ligand
 OpenBabel11021811393D
libRbt.so/2013.1/901 2013/11/27
 14 13  0  0  0  0  0  0  0  0999 V2000
    7.0927   -5.3547    8.2866 N   0  0  0  0  0  0  0  0  0  0  0  0
    5.6154   -5.5709    7.9566 C   0  0  0  0  0  0  0  0  0  0  0  0
    4.8920   -4.4614    8.6291 C   0  0  0  0  0  0  0  0  0  0  0  0
    4.9528   -4.4967   10.1475 C   0  0  0  0  0  0  0  0  0  0  0  0
    4.1376   -3.3836   10.7031 N   0  0  0  0  0  0  0  0  0  0  0  0
    2.8651   -3.9576   11.3520 C   0  0  0  0  0  0  0  0  0  0  0  0
    2.0469   -2.6276   11.7175 C   0  0  0  0  0  0  0  0  0  0  0  0
    1.4962   -2.1452   10.6301 C   0  0  0  0  0  0  0  0  0  0  0  0
    0.6046   -0.9846   11.3648 C   0  0  0  0  0  0  0  0  0  0  0  0
   -0.2026   -0.5029   10.1127 N   0  0  0  0  0  0  0  0  0  0  0  0
   -1.1198    0.7527   10.3978 C   0  0  0  0  0  0  0  0  0  0  0  0
   -2.6288    0.3181    9.9485 C   0  0  0  0  0  0  0  0  0  0  0  0
   -3.4271    1.5765   10.1284 C   0  0  0  0  0  0  0  0  0  0  0  0
   -4.8129    1.2442    9.6276 N   0  0  0  0  0  0  0  0  0  0  0  0
  1  2  1  0  0  0  0
  2  3  1  0  0  0  0
  3  4  1  0  0  0  0
  4  5  1  0  0  0  0
  5  6  1  0  0  0  0
  6  7  1  0  0  0  0
  7  8  1  0  0  0  0
  8  9  1  0  0  0  0
  9 10  1  0  0  0  0
 10 11  1  0  0  0  0
 11 12  1  0  0  0  0
 12 13  1  0  0  0  0
 13 14  1  0  0  0  0
M  END
>  <CHROM.1>
-65.61125816,-177.05852740,108.75694412,-173.22286797,76.94511473,172.36371134
-173.37961866,-174.63084627,-124.91705681,-175.31373979,176.03349586,1.53656577
-2.11387372,10.07175059,0.13490712,0.59160438,-1.64339397

>  <Name>
ligand

>  <RI>
0

>  <Rbt.Current_Directory>
/home/itssahil/PROJECTS/Mol_Feturizer/New_Systems/rnas/1FUF

>  <Rbt.Executable>
rbdock ($Id: //depot/dev/client3/rdock/2013.1/src/exe/rbdock.cxx#4 $)

>  <Rbt.Library>
libRbt.so (2013.1, Build901 2013/11/27)

>  <Rbt.Parameter_File>
/export/apps/rDock/src/rDock_2013.1_src/data/scripts/dock_solv.prm

>  <Rbt.Receptor>
prm/pocket_docking_2.prm

>  <SCORE>
-1.45149

>  <SCORE.INTER>
0.855469

>  <SCORE.INTER.CONST>
1

>  <SCORE.INTER.POLAR>
0

>  <SCORE.INTER.ROT>
11

>  <SCORE.INTER.SOLV>
16.7927

>  <SCORE.INTER.VDW>
-15.9606

>  <SCORE.INTER.norm>
0.0611049

>  <SCORE.INTRA>
-2.30696

>  <SCORE.INTRA.DIHEDRAL>
-6.52094

>  <SCORE.INTRA.DIHEDRAL.0>
10.5765

>  <SCORE.INTRA.POLAR>
0

>  <SCORE.INTRA.POLAR.0>
0

>  <SCORE.INTRA.REPUL>
0

>  <SCORE.INTRA.REPUL.0>
0

>  <SCORE.INTRA.SOLV>
1.07639

>  <SCORE.INTRA.SOLV.lig_0>
-50.1861

>  <SCORE.INTRA.VDW>
0.415315

>  <SCORE.INTRA.VDW.0>
-1.36671

>  <SCORE.INTRA.norm>
-0.164783

>  <SCORE.RESTR>
0

>  <SCORE.RESTR.CAVITY>
0

>  <SCORE.RESTR.norm>
0

>  <SCORE.SYSTEM>
0

>  <SCORE.SYSTEM.CONST>
0

>  <SCORE.SYSTEM.DIHEDRAL>
0

>  <SCORE.SYSTEM.SOLV>
0

>  <SCORE.SYSTEM.norm>
0

>  <SCORE.heavy>
14

>  <SCORE.norm>
-0.103678

>  <RMSD>
2.055

$$$$
ligand
 OpenBabel11021811393D
libRbt.so/2013.1/901 2013/11/27
 14 13  0  0  0  0  0  0  0  0999 V2000
   -4.8267    1.2106    9.3264 N   0  0  0  0  0  0  0  0  0  0  0  0
   -3.5553    1.5148   10.1195 C   0  0  0  0  0  0  0  0  0  0  0  0
   -2.6575    0.3537    9.8906 C   0  0  0  0  0  0  0  0  0  0  0  0
   -1.2861    0.4794   10.5342 C   0  0  0  0  0  0  0  0  0  0  0  0
   -0.4858   -0.7392   10.2398 N   0  0  0  0  0  0  0  0  0  0  0  0
    1.0124   -0.4087   10.3663 C   0  0  0  0  0  0  0  0  0  0  0  0
    1.5656   -1.6719   11.1849 C   0  0  0  0  0  0  0  0  0  0  0  0
    1.8207   -2.6506   10.3509 C   0  0  0  0  0  0  0  0  0  0  0  0
    2.4091   -3.7008   11.4611 C   0  0  0  0  0  0  0  0  0  0  0  0
    2.9088   -4.8074   10.4727 N   0  0  0  0  0  0  0  0  0  0  0  0
    4.4145   -5.2288   10.7060 C   0  0  0  0  0  0  0  0  0  0  0  0
    4.7832   -6.2654    9.4988 C   0  0  0  0  0  0  0  0  0  0  0  0
    4.8065   -5.3921    8.2781 C   0  0  0  0  0  0  0  0  0  0  0  0
    6.0963   -4.6113    8.3715 N   0  0  0  0  0  0  0  0  0  0  0  0
  1  2  1  0  0  0  0
  2  3  1  0  0  0  0
  3  4  1  0  0  0  0
  4  5  1  0  0  0  0
  5  6  1  0  0  0  0
  6  7  1  0  0  0  0
  7  8  1  0  0  0  0
  8  9  1  0  0  0  0
  9 10  1  0  0  0  0
 10 11  1  0  0  0  0
 11 12  1  0  0  0  0
 12 13  1  0  0  0  0
 13 14  1  0  0  0  0
M  END
>  <CHROM.1>
176.82261479,179.81011439,157.20737909,135.73721938,84.27158455,177.44069952
-172.54627636,127.87486834,-174.49059633,69.64723350,74.97317287,1.21480472
-2.27985821,10.05737773,3.07741597,-0.66912114,1.54414268

>  <Name>
ligand

>  <RI>
0

>  <Rbt.Current_Directory>
/home/itssahil/PROJECTS/Mol_Feturizer/New_Systems/rnas/1FUF

>  <Rbt.Executable>
rbdock ($Id: //depot/dev/client3/rdock/2013.1/src/exe/rbdock.cxx#4 $)

>  <Rbt.Library>
libRbt.so (2013.1, Build901 2013/11/27)

>  <Rbt.Parameter_File>
/export/apps/rDock/src/rDock_2013.1_src/data/scripts/dock_solv.prm

>  <Rbt.Receptor>
prm/pocket_docking_2.prm

>  <SCORE>
-1.60121

>  <SCORE.INTER>
-0.610389

>  <SCORE.INTER.CONST>
1

>  <SCORE.INTER.POLAR>
0

>  <SCORE.INTER.ROT>
11

>  <SCORE.INTER.SOLV>
16.3437

>  <SCORE.INTER.VDW>
-16.7882

>  <SCORE.INTER.norm>
-0.0435992

>  <SCORE.INTRA>
-1.00632

>  <SCORE.INTRA.DIHEDRAL>
-4.6474

>  <SCORE.INTRA.DIHEDRAL.0>
10.5765

>  <SCORE.INTRA.POLAR>
0

>  <SCORE.INTRA.POLAR.0>
0

>  <SCORE.INTRA.REPUL>
0

>  <SCORE.INTRA.REPUL.0>
0

>  <SCORE.INTRA.SOLV>
1.91506

>  <SCORE.INTRA.SOLV.lig_0>
-50.1861

>  <SCORE.INTRA.VDW>
0.359855

>  <SCORE.INTRA.VDW.0>
-1.36671

>  <SCORE.INTRA.norm>
-0.0718797

>  <SCORE.RESTR>
0.0154905

>  <SCORE.RESTR.CAVITY>
0.0154905

>  <SCORE.RESTR.norm>
0.00110646

>  <SCORE.SYSTEM>
0

>  <SCORE.SYSTEM.CONST>
0

>  <SCORE.SYSTEM.DIHEDRAL>
0

>  <SCORE.SYSTEM.SOLV>
0

>  <SCORE.SYSTEM.norm>
0

>  <SCORE.heavy>
14

>  <SCORE.norm>
-0.114372

>  <RMSD>
2.055

$$$$
ligand
 OpenBabel11021811393D
libRbt.so/2013.1/901 2013/11/27
 14 13  0  0  0  0  0  0  0  0999 V2000
   -4.7960    2.4454    8.1189 N   0  0  0  0  0  0  0  0  0  0  0  0
   -3.3843    2.0620    8.5641 C   0  0  0  0  0  0  0  0  0  0  0  0
   -3.4872    1.7925   10.0213 C   0  0  0  0  0  0  0  0  0  0  0  0
   -2.1554    1.5579   10.7156 C   0  0  0  0  0  0  0  0  0  0  0  0
   -1.5328    0.3143   10.1884 N   0  0  0  0  0  0  0  0  0  0  0  0
   -0.2724   -0.0130   11.0094 C   0  0  0  0  0  0  0  0  0  0  0  0
    0.1484   -1.4439   10.4200 C   0  0  0  0  0  0  0  0  0  0  0  0
    1.1590   -1.9159   11.1088 C   0  0  0  0  0  0  0  0  0  0  0  0
    1.2484   -3.3647   10.3506 C   0  0  0  0  0  0  0  0  0  0  0  0
    2.2052   -4.0821   11.3611 N   0  0  0  0  0  0  0  0  0  0  0  0
    1.9753   -5.6437   11.4481 C   0  0  0  0  0  0  0  0  0  0  0  0
    2.7400   -6.2833   10.1543 C   0  0  0  0  0  0  0  0  0  0  0  0
    4.1848   -5.9609   10.4031 C   0  0  0  0  0  0  0  0  0  0  0  0
    4.9097   -6.3860    9.1479 N   0  0  0  0  0  0  0  0  0  0  0  0
  1  2  1  0  0  0  0
  2  3  1  0  0  0  0
  3  4  1  0  0  0  0
  4  5  1  0  0  0  0
  5  6  1  0  0  0  0
  6  7  1  0  0  0  0
  7  8  1  0  0  0  0
  8  9  1  0  0  0  0
  9 10  1  0  0  0  0
 10 11  1  0  0  0  0
 11 12  1  0  0  0  0
 12 13  1  0  0  0  0
 13 14  1  0  0  0  0
M  END
>  <CHROM.1>
-172.73612564,-64.90522828,-173.18911151,173.62287533,-174.64935969,176.01794066
-167.17455531,149.80370754,79.83776805,64.12979017,-173.27149825,0.21019886
-1.92295266,10.21531207,2.90433640,-0.82709044,1.12751350

>  <Name>
ligand

>  <RI>
0

>  <Rbt.Current_Directory>
/home/itssahil/PROJECTS/Mol_Feturizer/New_Systems/rnas/1FUF

>  <Rbt.Executable>
rbdock ($Id: //depot/dev/client3/rdock/2013.1/src/exe/rbdock.cxx#4 $)

>  <Rbt.Library>
libRbt.so (2013.1, Build901 2013/11/27)

>  <Rbt.Parameter_File>
/export/apps/rDock/src/rDock_2013.1_src/data/scripts/dock_solv.prm

>  <Rbt.Receptor>
prm/pocket_docking_7.prm

>  <SCORE>
-6.7071

>  <SCORE.INTER>
-3.3774

>  <SCORE.INTER.CONST>
1

>  <SCORE.INTER.POLAR>
0

>  <SCORE.INTER.ROT>
11

>  <SCORE.INTER.SOLV>
15.486

>  <SCORE.INTER.VDW>
-18.3469

>  <SCORE.INTER.norm>
-0.241243

>  <SCORE.INTRA>
-3.3297

>  <SCORE.INTRA.DIHEDRAL>
-8.30909

>  <SCORE.INTRA.DIHEDRAL.0>
10.5765

>  <SCORE.INTRA.POLAR>
0

>  <SCORE.INTRA.POLAR.0>
0

>  <SCORE.INTRA.REPUL>
0

>  <SCORE.INTRA.REPUL.0>
0

>  <SCORE.INTRA.SOLV>
0.81164

>  <SCORE.INTRA.SOLV.lig_0>
-50.1861

>  <SCORE.INTRA.VDW>
0.419024

>  <SCORE.INTRA.VDW.0>
-1.36671

>  <SCORE.INTRA.norm>
-0.237836

>  <SCORE.RESTR>
0

>  <SCORE.RESTR.CAVITY>
0

>  <SCORE.RESTR.norm>
0

>  <SCORE.SYSTEM>
0

>  <SCORE.SYSTEM.CONST>
0

>  <SCORE.SYSTEM.DIHEDRAL>
0

>  <SCORE.SYSTEM.SOLV>
0

>  <SCORE.SYSTEM.norm>
0

>  <SCORE.heavy>
14

>  <SCORE.norm>
-0.479079

>  <RMSD>
2.056

$$$$
ligand
 OpenBabel11021811393D
libRbt.so/2013.1/901 2013/11/27
 14 13  0  0  0  0  0  0  0  0999 V2000
    4.2415   -5.2657    9.6399 N   0  0  0  0  0  0  0  0  0  0  0  0
    3.0434   -4.5251   10.2349 C   0  0  0  0  0  0  0  0  0  0  0  0
    3.6107   -3.3279   10.9068 C   0  0  0  0  0  0  0  0  0  0  0  0
    2.5828   -2.4412   11.5908 C   0  0  0  0  0  0  0  0  0  0  0  0
    1.6761   -1.8529   10.5690 N   0  0  0  0  0  0  0  0  0  0  0  0
    0.6544   -0.9334   11.2622 C   0  0  0  0  0  0  0  0  0  0  0  0
   -0.1661   -0.3457   10.0159 C   0  0  0  0  0  0  0  0  0  0  0  0
   -1.1523    0.3964   10.4578 C   0  0  0  0  0  0  0  0  0  0  0  0
   -1.7856    0.7663    8.9936 C   0  0  0  0  0  0  0  0  0  0  0  0
   -2.9669    1.6675    9.4871 N   0  0  0  0  0  0  0  0  0  0  0  0
   -3.8508    2.2487    8.3123 C   0  0  0  0  0  0  0  0  0  0  0  0
   -5.1952    2.8515    9.0174 C   0  0  0  0  0  0  0  0  0  0  0  0
   -6.0190    3.3286    7.8569 C   0  0  0  0  0  0  0  0  0  0  0  0
   -7.2925    3.8657    8.4664 N   0  0  0  0  0  0  0  0  0  0  0  0
  1  2  1  0  0  0  0
  2  3  1  0  0  0  0
  3  4  1  0  0  0  0
  4  5  1  0  0  0  0
  5  6  1  0  0  0  0
  6  7  1  0  0  0  0
  7  8  1  0  0  0  0
  8  9  1  0  0  0  0
  9 10  1  0  0  0  0
 10 11  1  0  0  0  0
 11 12  1  0  0  0  0
 12 13  1  0  0  0  0
 13 14  1  0  0  0  0
M  END
>  <CHROM.1>
-179.34459369,-64.91833210,-178.86568540,177.16861677,175.52802556,-177.89661280
-179.56748891,179.74648364,167.23832838,-177.49333411,178.66159846,-0.90130881
-0.25474127,9.77231328,0.20738120,0.65179209,-2.20169414

>  <Name>
ligand

>  <RI>
0

>  <Rbt.Current_Directory>
/home/itssahil/PROJECTS/Mol_Feturizer/New_Systems/rnas/1FUF

>  <Rbt.Executable>
rbdock ($Id: //depot/dev/client3/rdock/2013.1/src/exe/rbdock.cxx#4 $)

>  <Rbt.Library>
libRbt.so (2013.1, Build901 2013/11/27)

>  <Rbt.Parameter_File>
/export/apps/rDock/src/rDock_2013.1_src/data/scripts/dock_solv.prm

>  <Rbt.Receptor>
prm/blind_docking_20.prm

>  <SCORE>
-6.97811

>  <SCORE.INTER>
-2.03993

>  <SCORE.INTER.CONST>
1

>  <SCORE.INTER.POLAR>
0

>  <SCORE.INTER.ROT>
11

>  <SCORE.INTER.SOLV>
15.866

>  <SCORE.INTER.VDW>
-17.5819

>  <SCORE.INTER.norm>
-0.14571

>  <SCORE.INTRA>
-4.93818

>  <SCORE.INTRA.DIHEDRAL>
-10.222

>  <SCORE.INTRA.DIHEDRAL.0>
10.5765

>  <SCORE.INTRA.POLAR>
0

>  <SCORE.INTRA.POLAR.0>
0

>  <SCORE.INTRA.REPUL>
0

>  <SCORE.INTRA.REPUL.0>
0

>  <SCORE.INTRA.SOLV>
0.194194

>  <SCORE.INTRA.SOLV.lig_0>
-50.1861

>  <SCORE.INTRA.VDW>
0.0757388

>  <SCORE.INTRA.VDW.0>
-1.36671

>  <SCORE.INTRA.norm>
-0.352727

>  <SCORE.RESTR>
0

>  <SCORE.RESTR.CAVITY>
0

>  <SCORE.RESTR.norm>
0

>  <SCORE.SYSTEM>
0

>  <SCORE.SYSTEM.CONST>
0

>  <SCORE.SYSTEM.DIHEDRAL>
0

>  <SCORE.SYSTEM.SOLV>
0

>  <SCORE.SYSTEM.norm>
0

>  <SCORE.heavy>
14

>  <SCORE.norm>
-0.498436

>  <RMSD>
2.057

$$$$
ligand
 OpenBabel11021811393D
libRbt.so/2013.1/901 2013/11/27
 14 13  0  0  0  0  0  0  0  0999 V2000
    4.0810   -5.5562    8.1429 N   0  0  0  0  0  0  0  0  0  0  0  0
    4.7294   -6.5892    9.0652 C   0  0  0  0  0  0  0  0  0  0  0  0
    4.2635   -6.2473   10.4336 C   0  0  0  0  0  0  0  0  0  0  0  0
    4.7500   -4.9025   10.9488 C   0  0  0  0  0  0  0  0  0  0  0  0
    3.9562   -3.8131   10.3199 N   0  0  0  0  0  0  0  0  0  0  0  0
    2.7776   -3.4447   11.2391 C   0  0  0  0  0  0  0  0  0  0  0  0
    2.1248   -2.2018   10.4639 C   0  0  0  0  0  0  0  0  0  0  0  0
    1.0221   -1.8413   11.0744 C   0  0  0  0  0  0  0  0  0  0  0  0
    0.6351   -0.6131   10.0627 C   0  0  0  0  0  0  0  0  0  0  0  0
   -0.7654   -0.2629   10.6689 N   0  0  0  0  0  0  0  0  0  0  0  0
   -1.6592    0.6298    9.7185 C   0  0  0  0  0  0  0  0  0  0  0  0
   -2.8853    1.1837   10.6446 C   0  0  0  0  0  0  0  0  0  0  0  0
   -3.6765    2.0458    9.7044 C   0  0  0  0  0  0  0  0  0  0  0  0
   -4.3943    1.0822    8.7889 N   0  0  0  0  0  0  0  0  0  0  0  0
  1  2  1  0  0  0  0
  2  3  1  0  0  0  0
  3  4  1  0  0  0  0
  4  5  1  0  0  0  0
  5  6  1  0  0  0  0
  6  7  1  0  0  0  0
  7  8  1  0  0  0  0
  8  9  1  0  0  0  0
  9 10  1  0  0  0  0
 10 11  1  0  0  0  0
 11 12  1  0  0  0  0
 12 13  1  0  0  0  0
 13 14  1  0  0  0  0
M  END
>  <CHROM.1>
-65.14233553,77.04694332,93.76196078,175.69129934,174.59422012,-179.80569024
173.90466350,-164.00693378,-166.46897100,178.67252068,73.55939775,1.06864325
-2.18079260,10.09137561,0.40520170,0.63015776,-2.21252001

>  <Name>
ligand

>  <RI>
0

>  <Rbt.Current_Directory>
/home/itssahil/PROJECTS/Mol_Feturizer/New_Systems/rnas/1FUF

>  <Rbt.Executable>
rbdock ($Id: //depot/dev/client3/rdock/2013.1/src/exe/rbdock.cxx#4 $)

>  <Rbt.Library>
libRbt.so (2013.1, Build901 2013/11/27)

>  <Rbt.Parameter_File>
/export/apps/rDock/src/rDock_2013.1_src/data/scripts/dock_solv.prm

>  <Rbt.Receptor>
prm/blind_docking_40.prm

>  <SCORE>
-3.45632

>  <SCORE.INTER>
-2.259

>  <SCORE.INTER.CONST>
1

>  <SCORE.INTER.POLAR>
0

>  <SCORE.INTER.ROT>
11

>  <SCORE.INTER.SOLV>
17.0445

>  <SCORE.INTER.VDW>
-18.1208

>  <SCORE.INTER.norm>
-0.161357

>  <SCORE.INTRA>
-1.19732

>  <SCORE.INTRA.DIHEDRAL>
-7.45041

>  <SCORE.INTRA.DIHEDRAL.0>
10.5765

>  <SCORE.INTRA.POLAR>
0

>  <SCORE.INTRA.POLAR.0>
0

>  <SCORE.INTRA.REPUL>
0

>  <SCORE.INTRA.REPUL.0>
0

>  <SCORE.INTRA.SOLV>
4.03463

>  <SCORE.INTRA.SOLV.lig_0>
-50.1861

>  <SCORE.INTRA.VDW>
0.51057

>  <SCORE.INTRA.VDW.0>
-1.36671

>  <SCORE.INTRA.norm>
-0.0855229

>  <SCORE.RESTR>
0

>  <SCORE.RESTR.CAVITY>
0

>  <SCORE.RESTR.norm>
0

>  <SCORE.SYSTEM>
0

>  <SCORE.SYSTEM.CONST>
0

>  <SCORE.SYSTEM.DIHEDRAL>
0

>  <SCORE.SYSTEM.SOLV>
0

>  <SCORE.SYSTEM.norm>
0

>  <SCORE.heavy>
14

>  <SCORE.norm>
-0.24688

>  <RMSD>
2.057

$$$$
ligand
 OpenBabel11021811393D
libRbt.so/2013.1/901 2013/11/27
 14 13  0  0  0  0  0  0  0  0999 V2000
    4.2772   -7.1611    8.8426 N   0  0  0  0  0  0  0  0  0  0  0  0
    4.2295   -5.8147    8.1194 C   0  0  0  0  0  0  0  0  0  0  0  0
    4.2993   -4.7868    9.1895 C   0  0  0  0  0  0  0  0  0  0  0  0
    3.0720   -4.7221   10.0839 C   0  0  0  0  0  0  0  0  0  0  0  0
    3.2183   -3.5983   11.0473 N   0  0  0  0  0  0  0  0  0  0  0  0
    2.8730   -2.2739   10.3427 C   0  0  0  0  0  0  0  0  0  0  0  0
    1.3742   -2.0076   10.8473 C   0  0  0  0  0  0  0  0  0  0  0  0
    0.9014   -0.9378   10.2552 C   0  0  0  0  0  0  0  0  0  0  0  0
   -0.6050   -1.0151   10.8928 C   0  0  0  0  0  0  0  0  0  0  0  0
   -1.2820    0.0681    9.9874 N   0  0  0  0  0  0  0  0  0  0  0  0
   -2.7613    0.4183   10.4210 C   0  0  0  0  0  0  0  0  0  0  0  0
   -3.5601    0.7788    9.0427 C   0  0  0  0  0  0  0  0  0  0  0  0
   -2.9161    2.0551    8.5848 C   0  0  0  0  0  0  0  0  0  0  0  0
   -3.6507    2.4416    7.3228 N   0  0  0  0  0  0  0  0  0  0  0  0
  1  2  1  0  0  0  0
  2  3  1  0  0  0  0
  3  4  1  0  0  0  0
  4  5  1  0  0  0  0
  5  6  1  0  0  0  0
  6  7  1  0  0  0  0
  7  8  1  0  0  0  0
  8  9  1  0  0  0  0
  9 10  1  0  0  0  0
 10 11  1  0  0  0  0
 11 12  1  0  0  0  0
 12 13  1  0  0  0  0
 13 14  1  0  0  0  0
M  END
>  <CHROM.1>
-68.12313032,-175.98208162,79.49164361,100.50375033,-175.98229105,176.52123666
-169.00467857,-173.11766983,-147.36927040,-67.24177042,-178.74882962,0.67642913
-1.89676353,9.64153996,0.21377907,0.74306333,-1.94248105

>  <Name>
ligand

>  <RI>
0

>  <Rbt.Current_Directory>
/home/itssahil/PROJECTS/Mol_Feturizer/New_Systems/rnas/1FUF

>  <Rbt.Executable>
rbdock ($Id: //depot/dev/client3/rdock/2013.1/src/exe/rbdock.cxx#4 $)

>  <Rbt.Library>
libRbt.so (2013.1, Build901 2013/11/27)

>  <Rbt.Parameter_File>
/export/apps/rDock/src/rDock_2013.1_src/data/scripts/dock_solv.prm

>  <Rbt.Receptor>
prm/blind_docking_20.prm

>  <SCORE>
-4.26493

>  <SCORE.INTER>
-1.99028

>  <SCORE.INTER.CONST>
1

>  <SCORE.INTER.POLAR>
0

>  <SCORE.INTER.ROT>
11

>  <SCORE.INTER.SOLV>
17.9037

>  <SCORE.INTER.VDW>
-18.2281

>  <SCORE.INTER.norm>
-0.142163

>  <SCORE.INTRA>
-2.27465

>  <SCORE.INTRA.DIHEDRAL>
-7.59058

>  <SCORE.INTRA.DIHEDRAL.0>
10.5765

>  <SCORE.INTRA.POLAR>
0

>  <SCORE.INTRA.POLAR.0>
0

>  <SCORE.INTRA.REPUL>
0

>  <SCORE.INTRA.REPUL.0>
0

>  <SCORE.INTRA.SOLV>
1.16955

>  <SCORE.INTRA.SOLV.lig_0>
-50.1861

>  <SCORE.INTRA.VDW>
0.935867

>  <SCORE.INTRA.VDW.0>
-1.36671

>  <SCORE.INTRA.norm>
-0.162475

>  <SCORE.RESTR>
0

>  <SCORE.RESTR.CAVITY>
0

>  <SCORE.RESTR.norm>
0

>  <SCORE.SYSTEM>
0

>  <SCORE.SYSTEM.CONST>
0

>  <SCORE.SYSTEM.DIHEDRAL>
0

>  <SCORE.SYSTEM.SOLV>
0

>  <SCORE.SYSTEM.norm>
0

>  <SCORE.heavy>
14

>  <SCORE.norm>
-0.304638

>  <RMSD>
2.062

$$$$
ligand
 OpenBabel11021811393D
libRbt.so/2013.1/901 2013/11/27
 14 13  0  0  0  0  0  0  0  0999 V2000
    4.9963   -7.7402    8.6260 N   0  0  0  0  0  0  0  0  0  0  0  0
    3.9729   -6.6126    8.4875 C   0  0  0  0  0  0  0  0  0  0  0  0
    4.6293   -5.4085    9.0585 C   0  0  0  0  0  0  0  0  0  0  0  0
    3.7718   -4.1536    9.0406 C   0  0  0  0  0  0  0  0  0  0  0  0
    2.6217   -4.3248    9.9681 N   0  0  0  0  0  0  0  0  0  0  0  0
    2.9009   -3.5590   11.2740 C   0  0  0  0  0  0  0  0  0  0  0  0
    2.2753   -2.1169   10.9563 C   0  0  0  0  0  0  0  0  0  0  0  0
    0.9707   -2.2185   10.8777 C   0  0  0  0  0  0  0  0  0  0  0  0
    0.6726   -0.6368   10.5759 C   0  0  0  0  0  0  0  0  0  0  0  0
   -0.8915   -0.7063   10.5680 N   0  0  0  0  0  0  0  0  0  0  0  0
   -1.5848    0.7008   10.3714 C   0  0  0  0  0  0  0  0  0  0  0  0
   -3.1497    0.3861   10.0248 C   0  0  0  0  0  0  0  0  0  0  0  0
   -3.7351    1.7447    9.7705 C   0  0  0  0  0  0  0  0  0  0  0  0
   -5.1854    1.4960    9.4290 N   0  0  0  0  0  0  0  0  0  0  0  0
  1  2  1  0  0  0  0
  2  3  1  0  0  0  0
  3  4  1  0  0  0  0
  4  5  1  0  0  0  0
  5  6  1  0  0  0  0
  6  7  1  0  0  0  0
  7  8  1  0  0  0  0
  8  9  1  0  0  0  0
  9 10  1  0  0  0  0
 10 11  1  0  0  0  0
 11 12  1  0  0  0  0
 12 13  1  0  0  0  0
 13 14  1  0  0  0  0
M  END
>  <CHROM.1>
-179.23381602,67.07368014,102.18683925,90.34288785,68.46552336,179.39524137
-176.52840069,176.98142363,166.43653105,-176.79938757,179.36566103,0.87626864
-2.36763907,9.93070973,0.60397396,0.46643265,-2.44726621

>  <Name>
ligand

>  <RI>
0

>  <Rbt.Current_Directory>
/home/itssahil/PROJECTS/Mol_Feturizer/New_Systems/rnas/1FUF

>  <Rbt.Executable>
rbdock ($Id: //depot/dev/client3/rdock/2013.1/src/exe/rbdock.cxx#4 $)

>  <Rbt.Library>
libRbt.so (2013.1, Build901 2013/11/27)

>  <Rbt.Parameter_File>
/export/apps/rDock/src/rDock_2013.1_src/data/scripts/dock_solv.prm

>  <Rbt.Receptor>
prm/blind_docking_20.prm

>  <SCORE>
-4.80149

>  <SCORE.INTER>
-1.8903

>  <SCORE.INTER.CONST>
1

>  <SCORE.INTER.POLAR>
0

>  <SCORE.INTER.ROT>
11

>  <SCORE.INTER.SOLV>
17.1563

>  <SCORE.INTER.VDW>
-17.9123

>  <SCORE.INTER.norm>
-0.135022

>  <SCORE.INTRA>
-2.91118

>  <SCORE.INTRA.DIHEDRAL>
-8.31247

>  <SCORE.INTRA.DIHEDRAL.0>
10.5765

>  <SCORE.INTRA.POLAR>
0

>  <SCORE.INTRA.POLAR.0>
0

>  <SCORE.INTRA.REPUL>
0

>  <SCORE.INTRA.REPUL.0>
0

>  <SCORE.INTRA.SOLV>
0.619601

>  <SCORE.INTRA.SOLV.lig_0>
-50.1861

>  <SCORE.INTRA.VDW>
0.935253

>  <SCORE.INTRA.VDW.0>
-1.36671

>  <SCORE.INTRA.norm>
-0.207942

>  <SCORE.RESTR>
0

>  <SCORE.RESTR.CAVITY>
0

>  <SCORE.RESTR.norm>
0

>  <SCORE.SYSTEM>
0

>  <SCORE.SYSTEM.CONST>
0

>  <SCORE.SYSTEM.DIHEDRAL>
0

>  <SCORE.SYSTEM.SOLV>
0

>  <SCORE.SYSTEM.norm>
0

>  <SCORE.heavy>
14

>  <SCORE.norm>
-0.342963

>  <RMSD>
2.064

$$$$
ligand
 OpenBabel11021811393D
libRbt.so/2013.1/901 2013/11/27
 14 13  0  0  0  0  0  0  0  0999 V2000
    4.9287   -5.0789    8.2236 N   0  0  0  0  0  0  0  0  0  0  0  0
    5.3579   -6.3185    9.0091 C   0  0  0  0  0  0  0  0  0  0  0  0
    4.1742   -6.7046    9.8192 C   0  0  0  0  0  0  0  0  0  0  0  0
    3.7942   -5.7041   10.8986 C   0  0  0  0  0  0  0  0  0  0  0  0
    3.2331   -4.4804   10.2661 N   0  0  0  0  0  0  0  0  0  0  0  0
    2.7653   -3.5075   11.3636 C   0  0  0  0  0  0  0  0  0  0  0  0
    1.7331   -2.5747   10.5658 C   0  0  0  0  0  0  0  0  0  0  0  0
    1.1762   -1.7317   11.4011 C   0  0  0  0  0  0  0  0  0  0  0  0
    0.1283   -1.0666   10.3328 C   0  0  0  0  0  0  0  0  0  0  0  0
   -0.6247   -0.1188   11.3257 N   0  0  0  0  0  0  0  0  0  0  0  0
   -1.3704    1.0787   10.6123 C   0  0  0  0  0  0  0  0  0  0  0  0
   -2.8598    0.5219   10.2388 C   0  0  0  0  0  0  0  0  0  0  0  0
   -3.5345    1.7089    9.6152 C   0  0  0  0  0  0  0  0  0  0  0  0
   -4.9264    1.2377    9.2652 N   0  0  0  0  0  0  0  0  0  0  0  0
  1  2  1  0  0  0  0
  2  3  1  0  0  0  0
  3  4  1  0  0  0  0
  4  5  1  0  0  0  0
  5  6  1  0  0  0  0
  6  7  1  0  0  0  0
  7  8  1  0  0  0  0
  8  9  1  0  0  0  0
  9 10  1  0  0  0  0
 10 11  1  0  0  0  0
 11 12  1  0  0  0  0
 12 13  1  0  0  0  0
 13 14  1  0  0  0  0
M  END
>  <CHROM.1>
-66.47010163,70.66890840,176.35929208,-159.39850427,176.02256464,-175.06294127
176.31723187,159.09107937,88.52517348,177.95474366,-179.48191439,0.99837507
-2.33857412,10.20998018,0.32867412,0.67056389,-2.02276208

>  <Name>
ligand

>  <RI>
0

>  <Rbt.Current_Directory>
/home/itssahil/PROJECTS/Mol_Feturizer/New_Systems/rnas/1FUF

>  <Rbt.Executable>
rbdock ($Id: //depot/dev/client3/rdock/2013.1/src/exe/rbdock.cxx#4 $)

>  <Rbt.Library>
libRbt.so (2013.1, Build901 2013/11/27)

>  <Rbt.Parameter_File>
/export/apps/rDock/src/rDock_2013.1_src/data/scripts/dock_solv.prm

>  <Rbt.Receptor>
prm/pocket_docking_3.prm

>  <SCORE>
-4.27221

>  <SCORE.INTER>
-1.74249

>  <SCORE.INTER.CONST>
1

>  <SCORE.INTER.POLAR>
0

>  <SCORE.INTER.ROT>
11

>  <SCORE.INTER.SOLV>
15.3345

>  <SCORE.INTER.VDW>
-17.2065

>  <SCORE.INTER.norm>
-0.124463

>  <SCORE.INTRA>
-2.52972

>  <SCORE.INTRA.DIHEDRAL>
-8.5646

>  <SCORE.INTRA.DIHEDRAL.0>
10.5765

>  <SCORE.INTRA.POLAR>
0

>  <SCORE.INTRA.POLAR.0>
0

>  <SCORE.INTRA.REPUL>
0

>  <SCORE.INTRA.REPUL.0>
0

>  <SCORE.INTRA.SOLV>
3.02549

>  <SCORE.INTRA.SOLV.lig_0>
-50.1861

>  <SCORE.INTRA.VDW>
0.239833

>  <SCORE.INTRA.VDW.0>
-1.36671

>  <SCORE.INTRA.norm>
-0.180694

>  <SCORE.RESTR>
0

>  <SCORE.RESTR.CAVITY>
0

>  <SCORE.RESTR.norm>
0

>  <SCORE.SYSTEM>
0

>  <SCORE.SYSTEM.CONST>
0

>  <SCORE.SYSTEM.DIHEDRAL>
0

>  <SCORE.SYSTEM.SOLV>
0

>  <SCORE.SYSTEM.norm>
0

>  <SCORE.heavy>
14

>  <SCORE.norm>
-0.305158

>  <RMSD>
2.068

$$$$
ligand
 OpenBabel11021811393D
libRbt.so/2013.1/901 2013/11/27
 14 13  0  0  0  0  0  0  0  0999 V2000
    4.7035   -4.9536   10.0039 N   0  0  0  0  0  0  0  0  0  0  0  0
    3.7716   -4.0043   10.7578 C   0  0  0  0  0  0  0  0  0  0  0  0
    2.5228   -3.9532    9.9549 C   0  0  0  0  0  0  0  0  0  0  0  0
    1.4231   -3.0902   10.5520 C   0  0  0  0  0  0  0  0  0  0  0  0
    1.8401   -1.6628   10.5209 N   0  0  0  0  0  0  0  0  0  0  0  0
    0.7793   -0.8057   11.2348 C   0  0  0  0  0  0  0  0  0  0  0  0
   -0.1087   -0.2811   10.0067 C   0  0  0  0  0  0  0  0  0  0  0  0
   -1.0837    0.4658   10.4649 C   0  0  0  0  0  0  0  0  0  0  0  0
   -1.7645    0.8042    9.0146 C   0  0  0  0  0  0  0  0  0  0  0  0
   -2.9819    1.6407    9.5338 N   0  0  0  0  0  0  0  0  0  0  0  0
   -3.8485    2.2795    8.3762 C   0  0  0  0  0  0  0  0  0  0  0  0
   -5.2602    2.7261    9.0659 C   0  0  0  0  0  0  0  0  0  0  0  0
   -6.0293    3.3384    7.9316 C   0  0  0  0  0  0  0  0  0  0  0  0
   -7.3696    3.7161    8.5170 N   0  0  0  0  0  0  0  0  0  0  0  0
  1  2  1  0  0  0  0
  2  3  1  0  0  0  0
  3  4  1  0  0  0  0
  4  5  1  0  0  0  0
  5  6  1  0  0  0  0
  6  7  1  0  0  0  0
  7  8  1  0  0  0  0
  8  9  1  0  0  0  0
  9 10  1  0  0  0  0
 10 11  1  0  0  0  0
 11 12  1  0  0  0  0
 12 13  1  0  0  0  0
 13 14  1  0  0  0  0
M  END
>  <CHROM.1>
178.07561962,67.36267442,-175.16600796,-96.57018245,179.25515436,-179.55357592
177.28856372,174.81854554,164.23415546,179.27013597,177.76944125,-0.95757635
-0.26999657,9.70967435,0.29510277,0.61369929,-2.32543276

>  <Name>
ligand

>  <RI>
0

>  <Rbt.Current_Directory>
/home/itssahil/PROJECTS/Mol_Feturizer/New_Systems/rnas/1FUF

>  <Rbt.Executable>
rbdock ($Id: //depot/dev/client3/rdock/2013.1/src/exe/rbdock.cxx#4 $)

>  <Rbt.Library>
libRbt.so (2013.1, Build901 2013/11/27)

>  <Rbt.Parameter_File>
/export/apps/rDock/src/rDock_2013.1_src/data/scripts/dock_solv.prm

>  <Rbt.Receptor>
prm/blind_docking_40.prm

>  <SCORE>
-5.70598

>  <SCORE.INTER>
-1.39173

>  <SCORE.INTER.CONST>
1

>  <SCORE.INTER.POLAR>
0

>  <SCORE.INTER.ROT>
11

>  <SCORE.INTER.SOLV>
15.9161

>  <SCORE.INTER.VDW>
-17.1665

>  <SCORE.INTER.norm>
-0.0994093

>  <SCORE.INTRA>
-4.31425

>  <SCORE.INTRA.DIHEDRAL>
-9.27188

>  <SCORE.INTRA.DIHEDRAL.0>
10.5765

>  <SCORE.INTRA.POLAR>
0

>  <SCORE.INTRA.POLAR.0>
0

>  <SCORE.INTRA.REPUL>
0

>  <SCORE.INTRA.REPUL.0>
0

>  <SCORE.INTRA.SOLV>
0.160284

>  <SCORE.INTRA.SOLV.lig_0>
-50.1861

>  <SCORE.INTRA.VDW>
0.241543

>  <SCORE.INTRA.VDW.0>
-1.36671

>  <SCORE.INTRA.norm>
-0.308161

>  <SCORE.RESTR>
0

>  <SCORE.RESTR.CAVITY>
0

>  <SCORE.RESTR.norm>
0

>  <SCORE.SYSTEM>
0

>  <SCORE.SYSTEM.CONST>
0

>  <SCORE.SYSTEM.DIHEDRAL>
0

>  <SCORE.SYSTEM.SOLV>
0

>  <SCORE.SYSTEM.norm>
0

>  <SCORE.heavy>
14

>  <SCORE.norm>
-0.40757

>  <RMSD>
2.070

$$$$
ligand
 OpenBabel11021811393D
libRbt.so/2013.1/901 2013/11/27
 14 13  0  0  0  0  0  0  0  0999 V2000
    4.1558   -6.5464    9.3300 N   0  0  0  0  0  0  0  0  0  0  0  0
    4.2361   -5.4149    8.3047 C   0  0  0  0  0  0  0  0  0  0  0  0
    4.3334   -4.1643    9.1004 C   0  0  0  0  0  0  0  0  0  0  0  0
    3.0797   -3.8169    9.8866 C   0  0  0  0  0  0  0  0  0  0  0  0
    3.2858   -2.5326   10.6079 N   0  0  0  0  0  0  0  0  0  0  0  0
    2.0423   -2.2207   11.4600 C   0  0  0  0  0  0  0  0  0  0  0  0
    1.2116   -1.2455   10.4951 C   0  0  0  0  0  0  0  0  0  0  0  0
    0.0738   -0.9356   11.0678 C   0  0  0  0  0  0  0  0  0  0  0  0
   -0.5395   -0.0697    9.8206 C   0  0  0  0  0  0  0  0  0  0  0  0
   -1.9063    0.3215   10.4766 N   0  0  0  0  0  0  0  0  0  0  0  0
   -3.0309    0.6813    9.4255 C   0  0  0  0  0  0  0  0  0  0  0  0
   -2.5407    2.0584    8.6967 C   0  0  0  0  0  0  0  0  0  0  0  0
   -3.6460    2.3570    7.7260 C   0  0  0  0  0  0  0  0  0  0  0  0
   -3.1781    3.5648    6.9487 N   0  0  0  0  0  0  0  0  0  0  0  0
  1  2  1  0  0  0  0
  2  3  1  0  0  0  0
  3  4  1  0  0  0  0
  4  5  1  0  0  0  0
  5  6  1  0  0  0  0
  6  7  1  0  0  0  0
  7  8  1  0  0  0  0
  8  9  1  0  0  0  0
  9 10  1  0  0  0  0
 10 11  1  0  0  0  0
 11 12  1  0  0  0  0
 12 13  1  0  0  0  0
 13 14  1  0  0  0  0
M  END
>  <CHROM.1>
-67.74520782,-178.43548783,-177.09851161,-95.74666596,177.10968770,-175.98004248
-179.85778920,-157.27851589,-66.73769711,-179.45748205,-175.49002972,0.54118911
-1.28311461,9.52482544,-0.06511597,0.78718252,-1.63669557

>  <Name>
ligand

>  <RI>
0

>  <Rbt.Current_Directory>
/home/itssahil/PROJECTS/Mol_Feturizer/New_Systems/rnas/1FUF

>  <Rbt.Executable>
rbdock ($Id: //depot/dev/client3/rdock/2013.1/src/exe/rbdock.cxx#4 $)

>  <Rbt.Library>
libRbt.so (2013.1, Build901 2013/11/27)

>  <Rbt.Parameter_File>
/export/apps/rDock/src/rDock_2013.1_src/data/scripts/dock_solv.prm

>  <Rbt.Receptor>
prm/blind_docking_100.prm

>  <SCORE>
-5.44205

>  <SCORE.INTER>
-2.0672

>  <SCORE.INTER.CONST>
1

>  <SCORE.INTER.POLAR>
0

>  <SCORE.INTER.ROT>
11

>  <SCORE.INTER.SOLV>
18.8892

>  <SCORE.INTER.VDW>
-18.6079

>  <SCORE.INTER.norm>
-0.147657

>  <SCORE.INTRA>
-3.37485

>  <SCORE.INTRA.DIHEDRAL>
-8.96796

>  <SCORE.INTRA.DIHEDRAL.0>
10.5765

>  <SCORE.INTRA.POLAR>
0

>  <SCORE.INTRA.POLAR.0>
0

>  <SCORE.INTRA.REPUL>
0

>  <SCORE.INTRA.REPUL.0>
0

>  <SCORE.INTRA.SOLV>
0.683122

>  <SCORE.INTRA.SOLV.lig_0>
-50.1861

>  <SCORE.INTRA.VDW>
0.767567

>  <SCORE.INTRA.VDW.0>
-1.36671

>  <SCORE.INTRA.norm>
-0.241061

>  <SCORE.RESTR>
0

>  <SCORE.RESTR.CAVITY>
0

>  <SCORE.RESTR.norm>
0

>  <SCORE.SYSTEM>
0

>  <SCORE.SYSTEM.CONST>
0

>  <SCORE.SYSTEM.DIHEDRAL>
0

>  <SCORE.SYSTEM.SOLV>
0

>  <SCORE.SYSTEM.norm>
0

>  <SCORE.heavy>
14

>  <SCORE.norm>
-0.388718

>  <RMSD>
2.071

$$$$
ligand
 OpenBabel11021811393D
libRbt.so/2013.1/901 2013/11/27
 14 13  0  0  0  0  0  0  0  0999 V2000
    5.5080   -6.7277    8.2151 N   0  0  0  0  0  0  0  0  0  0  0  0
    4.0095   -6.9807    8.3836 C   0  0  0  0  0  0  0  0  0  0  0  0
    3.6055   -6.1926    9.5761 C   0  0  0  0  0  0  0  0  0  0  0  0
    3.6657   -4.6855    9.3870 C   0  0  0  0  0  0  0  0  0  0  0  0
    3.2032   -4.0104   10.6290 N   0  0  0  0  0  0  0  0  0  0  0  0
    2.9504   -2.5204   10.3359 C   0  0  0  0  0  0  0  0  0  0  0  0
    1.4259   -2.3420   10.8009 C   0  0  0  0  0  0  0  0  0  0  0  0
    1.0648   -1.0932   10.6319 C   0  0  0  0  0  0  0  0  0  0  0  0
   -0.4549   -1.2512   11.2212 C   0  0  0  0  0  0  0  0  0  0  0  0
   -0.9249    0.2279   11.0144 N   0  0  0  0  0  0  0  0  0  0  0  0
   -2.0185    0.3904    9.8844 C   0  0  0  0  0  0  0  0  0  0  0  0
   -2.5194    1.9430    9.9639 C   0  0  0  0  0  0  0  0  0  0  0  0
   -3.5354    2.0432    8.8635 C   0  0  0  0  0  0  0  0  0  0  0  0
   -4.7354    1.2702    9.3577 N   0  0  0  0  0  0  0  0  0  0  0  0
  1  2  1  0  0  0  0
  2  3  1  0  0  0  0
  3  4  1  0  0  0  0
  4  5  1  0  0  0  0
  5  6  1  0  0  0  0
  6  7  1  0  0  0  0
  7  8  1  0  0  0  0
  8  9  1  0  0  0  0
  9 10  1  0  0  0  0
 10 11  1  0  0  0  0
 11 12  1  0  0  0  0
 12 13  1  0  0  0  0
 13 14  1  0  0  0  0
M  END
>  <CHROM.1>
68.05236987,178.36861839,-166.87917763,124.22936318,178.86181656,-178.42351886
-179.25101460,110.56553606,172.43051317,179.23098340,72.05102318,0.80319038
-2.13771065,9.87607123,0.56579195,0.57814487,-2.33885188

>  <Name>
ligand

>  <RI>
0

>  <Rbt.Current_Directory>
/home/itssahil/PROJECTS/Mol_Feturizer/New_Systems/rnas/1FUF

>  <Rbt.Executable>
rbdock ($Id: //depot/dev/client3/rdock/2013.1/src/exe/rbdock.cxx#4 $)

>  <Rbt.Library>
libRbt.so (2013.1, Build901 2013/11/27)

>  <Rbt.Parameter_File>
/export/apps/rDock/src/rDock_2013.1_src/data/scripts/dock_solv.prm

>  <Rbt.Receptor>
prm/blind_docking_60.prm

>  <SCORE>
-5.19949

>  <SCORE.INTER>
-2.79932

>  <SCORE.INTER.CONST>
1

>  <SCORE.INTER.POLAR>
0

>  <SCORE.INTER.ROT>
11

>  <SCORE.INTER.SOLV>
14.5859

>  <SCORE.INTER.VDW>
-17.6615

>  <SCORE.INTER.norm>
-0.199951

>  <SCORE.INTRA>
-2.40017

>  <SCORE.INTRA.DIHEDRAL>
-7.27733

>  <SCORE.INTRA.DIHEDRAL.0>
10.5765

>  <SCORE.INTRA.POLAR>
0

>  <SCORE.INTRA.POLAR.0>
0

>  <SCORE.INTRA.REPUL>
0

>  <SCORE.INTRA.REPUL.0>
0

>  <SCORE.INTRA.SOLV>
1.5755

>  <SCORE.INTRA.SOLV.lig_0>
-50.1861

>  <SCORE.INTRA.VDW>
0.450746

>  <SCORE.INTRA.VDW.0>
-1.36671

>  <SCORE.INTRA.norm>
-0.171441

>  <SCORE.RESTR>
0

>  <SCORE.RESTR.CAVITY>
0

>  <SCORE.RESTR.norm>
0

>  <SCORE.SYSTEM>
0

>  <SCORE.SYSTEM.CONST>
0

>  <SCORE.SYSTEM.DIHEDRAL>
0

>  <SCORE.SYSTEM.SOLV>
0

>  <SCORE.SYSTEM.norm>
0

>  <SCORE.heavy>
14

>  <SCORE.norm>
-0.371392

>  <RMSD>
2.071

$$$$
ligand
 OpenBabel11021811393D
libRbt.so/2013.1/901 2013/11/27
 14 13  0  0  0  0  0  0  0  0999 V2000
    4.1391   -5.4295    9.7460 N   0  0  0  0  0  0  0  0  0  0  0  0
    2.9810   -4.5674   10.2497 C   0  0  0  0  0  0  0  0  0  0  0  0
    3.6141   -3.3755   10.8702 C   0  0  0  0  0  0  0  0  0  0  0  0
    2.6409   -2.4236   11.5463 C   0  0  0  0  0  0  0  0  0  0  0  0
    1.7199   -1.8497   10.5291 N   0  0  0  0  0  0  0  0  0  0  0  0
    0.6905   -0.9424   11.2268 C   0  0  0  0  0  0  0  0  0  0  0  0
   -0.1472   -0.3703    9.9847 C   0  0  0  0  0  0  0  0  0  0  0  0
   -1.1166    0.3917   10.4301 C   0  0  0  0  0  0  0  0  0  0  0  0
   -1.7434    0.7797    8.9679 C   0  0  0  0  0  0  0  0  0  0  0  0
   -2.9147    1.6912    9.4665 N   0  0  0  0  0  0  0  0  0  0  0  0
   -3.8204    2.2507    8.2978 C   0  0  0  0  0  0  0  0  0  0  0  0
   -5.1644    2.8409    9.0143 C   0  0  0  0  0  0  0  0  0  0  0  0
   -5.9749    3.3670    7.8656 C   0  0  0  0  0  0  0  0  0  0  0  0
   -7.2465    3.8972    8.4851 N   0  0  0  0  0  0  0  0  0  0  0  0
  1  2  1  0  0  0  0
  2  3  1  0  0  0  0
  3  4  1  0  0  0  0
  4  5  1  0  0  0  0
  5  6  1  0  0  0  0
  6  7  1  0  0  0  0
  7  8  1  0  0  0  0
  8  9  1  0  0  0  0
  9 10  1  0  0  0  0
 10 11  1  0  0  0  0
 11 12  1  0  0  0  0
 12 13  1  0  0  0  0
 13 14  1  0  0  0  0
M  END
>  <CHROM.1>
-175.24028181,-63.79075766,177.12781551,177.25401439,177.39486557,-179.66875591
179.79799756,-178.24512824,166.13207218,179.46243056,178.79143329,-0.88154952
-0.26708800,9.76295150,0.26604701,0.64275523,-2.29229940

>  <Name>
ligand

>  <RI>
0

>  <Rbt.Current_Directory>
/home/itssahil/PROJECTS/Mol_Feturizer/New_Systems/rnas/1FUF

>  <Rbt.Executable>
rbdock ($Id: //depot/dev/client3/rdock/2013.1/src/exe/rbdock.cxx#4 $)

>  <Rbt.Library>
libRbt.so (2013.1, Build901 2013/11/27)

>  <Rbt.Parameter_File>
/export/apps/rDock/src/rDock_2013.1_src/data/scripts/dock_solv.prm

>  <Rbt.Receptor>
prm/pocket_docking_5.prm

>  <SCORE>
-6.94095

>  <SCORE.INTER>
-1.9958

>  <SCORE.INTER.CONST>
1

>  <SCORE.INTER.POLAR>
0

>  <SCORE.INTER.ROT>
11

>  <SCORE.INTER.SOLV>
16.1825

>  <SCORE.INTER.VDW>
-17.658

>  <SCORE.INTER.norm>
-0.142557

>  <SCORE.INTRA>
-4.94516

>  <SCORE.INTRA.DIHEDRAL>
-10.2373

>  <SCORE.INTRA.DIHEDRAL.0>
10.5765

>  <SCORE.INTRA.POLAR>
0

>  <SCORE.INTRA.POLAR.0>
0

>  <SCORE.INTRA.REPUL>
0

>  <SCORE.INTRA.REPUL.0>
0

>  <SCORE.INTRA.SOLV>
0.176659

>  <SCORE.INTRA.SOLV.lig_0>
-50.1861

>  <SCORE.INTRA.VDW>
0.0851659

>  <SCORE.INTRA.VDW.0>
-1.36671

>  <SCORE.INTRA.norm>
-0.353225

>  <SCORE.RESTR>
0

>  <SCORE.RESTR.CAVITY>
0

>  <SCORE.RESTR.norm>
0

>  <SCORE.SYSTEM>
0

>  <SCORE.SYSTEM.CONST>
0

>  <SCORE.SYSTEM.DIHEDRAL>
0

>  <SCORE.SYSTEM.SOLV>
0

>  <SCORE.SYSTEM.norm>
0

>  <SCORE.heavy>
14

>  <SCORE.norm>
-0.495782

>  <RMSD>
2.072

$$$$
ligand
 OpenBabel11021811393D
libRbt.so/2013.1/901 2013/11/27
 14 13  0  0  0  0  0  0  0  0999 V2000
    6.0585   -7.3744    8.2449 N   0  0  0  0  0  0  0  0  0  0  0  0
    4.6262   -7.3024    8.7753 C   0  0  0  0  0  0  0  0  0  0  0  0
    4.4585   -5.9148    9.2784 C   0  0  0  0  0  0  0  0  0  0  0  0
    3.1135   -5.6376    9.9300 C   0  0  0  0  0  0  0  0  0  0  0  0
    3.0241   -4.1975   10.2912 N   0  0  0  0  0  0  0  0  0  0  0  0
    1.5789   -3.8636   10.7032 C   0  0  0  0  0  0  0  0  0  0  0  0
    1.5378   -2.2711   10.5180 C   0  0  0  0  0  0  0  0  0  0  0  0
    0.3309   -1.8348   10.7857 C   0  0  0  0  0  0  0  0  0  0  0  0
    0.6253   -0.2537   10.4771 C   0  0  0  0  0  0  0  0  0  0  0  0
   -0.7733    0.3146   10.8924 N   0  0  0  0  0  0  0  0  0  0  0  0
   -1.7735    0.4784    9.6792 C   0  0  0  0  0  0  0  0  0  0  0  0
   -3.2574    0.6488   10.3402 C   0  0  0  0  0  0  0  0  0  0  0  0
   -4.1788    0.6036    9.1560 C   0  0  0  0  0  0  0  0  0  0  0  0
   -3.9445    1.9013    8.4192 N   0  0  0  0  0  0  0  0  0  0  0  0
  1  2  1  0  0  0  0
  2  3  1  0  0  0  0
  3  4  1  0  0  0  0
  4  5  1  0  0  0  0
  5  6  1  0  0  0  0
  6  7  1  0  0  0  0
  7  8  1  0  0  0  0
  8  9  1  0  0  0  0
  9 10  1  0  0  0  0
 10 11  1  0  0  0  0
 11 12  1  0  0  0  0
 12 13  1  0  0  0  0
 13 14  1  0  0  0  0
M  END
>  <CHROM.1>
-176.76228388,-175.45874486,169.45705998,-159.76500887,177.50691623,-178.80216303
-175.97013127,-94.74211287,163.89486528,-172.26614813,-70.64543215,0.81604786
-2.47884560,9.82091447,0.51515478,0.60860919,-2.28763453

>  <Name>
ligand

>  <RI>
0

>  <Rbt.Current_Directory>
/home/itssahil/PROJECTS/Mol_Feturizer/New_Systems/rnas/1FUF

>  <Rbt.Executable>
rbdock ($Id: //depot/dev/client3/rdock/2013.1/src/exe/rbdock.cxx#4 $)

>  <Rbt.Library>
libRbt.so (2013.1, Build901 2013/11/27)

>  <Rbt.Parameter_File>
/export/apps/rDock/src/rDock_2013.1_src/data/scripts/dock_solv.prm

>  <Rbt.Receptor>
prm/blind_docking_40.prm

>  <SCORE>
-5.17123

>  <SCORE.INTER>
-1.73769

>  <SCORE.INTER.CONST>
1

>  <SCORE.INTER.POLAR>
0

>  <SCORE.INTER.ROT>
11

>  <SCORE.INTER.SOLV>
15.0788

>  <SCORE.INTER.VDW>
-17.1181

>  <SCORE.INTER.norm>
-0.124121

>  <SCORE.INTRA>
-3.43354

>  <SCORE.INTRA.DIHEDRAL>
-8.38359

>  <SCORE.INTRA.DIHEDRAL.0>
10.5765

>  <SCORE.INTRA.POLAR>
0

>  <SCORE.INTRA.POLAR.0>
0

>  <SCORE.INTRA.REPUL>
0

>  <SCORE.INTRA.REPUL.0>
0

>  <SCORE.INTRA.SOLV>
0.731176

>  <SCORE.INTRA.SOLV.lig_0>
-50.1861

>  <SCORE.INTRA.VDW>
0.392663

>  <SCORE.INTRA.VDW.0>
-1.36671

>  <SCORE.INTRA.norm>
-0.245253

>  <SCORE.RESTR>
0

>  <SCORE.RESTR.CAVITY>
0

>  <SCORE.RESTR.norm>
0

>  <SCORE.SYSTEM>
0

>  <SCORE.SYSTEM.CONST>
0

>  <SCORE.SYSTEM.DIHEDRAL>
0

>  <SCORE.SYSTEM.SOLV>
0

>  <SCORE.SYSTEM.norm>
0

>  <SCORE.heavy>
14

>  <SCORE.norm>
-0.369374

>  <RMSD>
2.074

$$$$
ligand
 OpenBabel11021811393D
libRbt.so/2013.1/901 2013/11/27
 14 13  0  0  0  0  0  0  0  0999 V2000
   -4.9115    1.4246    9.2929 N   0  0  0  0  0  0  0  0  0  0  0  0
   -3.8128    0.5868    9.9479 C   0  0  0  0  0  0  0  0  0  0  0  0
   -2.6914    1.5285   10.1980 C   0  0  0  0  0  0  0  0  0  0  0  0
   -1.4417    0.8832   10.7745 C   0  0  0  0  0  0  0  0  0  0  0  0
   -0.8659   -0.0604    9.7793 N   0  0  0  0  0  0  0  0  0  0  0  0
    0.5949   -0.3691   10.1546 C   0  0  0  0  0  0  0  0  0  0  0  0
    0.5375   -1.9434   10.4547 C   0  0  0  0  0  0  0  0  0  0  0  0
    1.7509   -2.3861   10.6792 C   0  0  0  0  0  0  0  0  0  0  0  0
    1.3788   -3.9808   10.6679 C   0  0  0  0  0  0  0  0  0  0  0  0
    2.8142   -4.5426   10.9425 N   0  0  0  0  0  0  0  0  0  0  0  0
    2.8980   -6.1198   10.8763 C   0  0  0  0  0  0  0  0  0  0  0  0
    4.2832   -6.4632   10.0818 C   0  0  0  0  0  0  0  0  0  0  0  0
    4.0173   -5.9830    8.6847 C   0  0  0  0  0  0  0  0  0  0  0  0
    5.3084   -6.2082    7.9335 N   0  0  0  0  0  0  0  0  0  0  0  0
  1  2  1  0  0  0  0
  2  3  1  0  0  0  0
  3  4  1  0  0  0  0
  4  5  1  0  0  0  0
  5  6  1  0  0  0  0
  6  7  1  0  0  0  0
  7  8  1  0  0  0  0
  8  9  1  0  0  0  0
  9 10  1  0  0  0  0
 10 11  1  0  0  0  0
 11 12  1  0  0  0  0
 12 13  1  0  0  0  0
 13 14  1  0  0  0  0
M  END
>  <CHROM.1>
-176.37763158,65.08762881,162.25868378,116.70219984,174.47211939,-170.34568524
-179.71593503,-174.72826861,138.26278682,-67.71896227,176.74195583,0.70432864
-2.40240773,10.03363960,3.06659207,-0.77903559,1.51930625

>  <Name>
ligand

>  <RI>
0

>  <Rbt.Current_Directory>
/home/itssahil/PROJECTS/Mol_Feturizer/New_Systems/rnas/1FUF

>  <Rbt.Executable>
rbdock ($Id: //depot/dev/client3/rdock/2013.1/src/exe/rbdock.cxx#4 $)

>  <Rbt.Library>
libRbt.so (2013.1, Build901 2013/11/27)

>  <Rbt.Parameter_File>
/export/apps/rDock/src/rDock_2013.1_src/data/scripts/dock_solv.prm

>  <Rbt.Receptor>
prm/pocket_docking_3.prm

>  <SCORE>
-5.98898

>  <SCORE.INTER>
-2.90143

>  <SCORE.INTER.CONST>
1

>  <SCORE.INTER.POLAR>
0

>  <SCORE.INTER.ROT>
11

>  <SCORE.INTER.SOLV>
15.6725

>  <SCORE.INTER.VDW>
-18.0918

>  <SCORE.INTER.norm>
-0.207245

>  <SCORE.INTRA>
-3.08756

>  <SCORE.INTRA.DIHEDRAL>
-7.26884

>  <SCORE.INTRA.DIHEDRAL.0>
10.5765

>  <SCORE.INTRA.POLAR>
0

>  <SCORE.INTRA.POLAR.0>
0

>  <SCORE.INTRA.REPUL>
0

>  <SCORE.INTRA.REPUL.0>
0

>  <SCORE.INTRA.SOLV>
0.786278

>  <SCORE.INTRA.SOLV.lig_0>
-50.1861

>  <SCORE.INTRA.VDW>
0.153723

>  <SCORE.INTRA.VDW.0>
-1.36671

>  <SCORE.INTRA.norm>
-0.22054

>  <SCORE.RESTR>
0

>  <SCORE.RESTR.CAVITY>
0

>  <SCORE.RESTR.norm>
0

>  <SCORE.SYSTEM>
0

>  <SCORE.SYSTEM.CONST>
0

>  <SCORE.SYSTEM.DIHEDRAL>
0

>  <SCORE.SYSTEM.SOLV>
0

>  <SCORE.SYSTEM.norm>
0

>  <SCORE.heavy>
14

>  <SCORE.norm>
-0.427785

>  <RMSD>
2.075

$$$$
ligand
 OpenBabel11021811393D
libRbt.so/2013.1/901 2013/11/27
 14 13  0  0  0  0  0  0  0  0999 V2000
   -4.6678    0.7661    9.6813 N   0  0  0  0  0  0  0  0  0  0  0  0
   -3.4853    1.1555    8.7935 C   0  0  0  0  0  0  0  0  0  0  0  0
   -2.6007    1.9846    9.6518 C   0  0  0  0  0  0  0  0  0  0  0  0
   -1.8526    1.2084   10.7235 C   0  0  0  0  0  0  0  0  0  0  0  0
   -0.7525    0.4291   10.0952 N   0  0  0  0  0  0  0  0  0  0  0  0
   -0.3312   -0.7114   11.0395 C   0  0  0  0  0  0  0  0  0  0  0  0
    1.1097   -1.1108   10.4597 C   0  0  0  0  0  0  0  0  0  0  0  0
    1.5161   -2.2172   11.0334 C   0  0  0  0  0  0  0  0  0  0  0  0
    2.9259   -2.3533   10.2115 C   0  0  0  0  0  0  0  0  0  0  0  0
    3.2933   -3.8117   10.6468 N   0  0  0  0  0  0  0  0  0  0  0  0
    3.9659   -4.6631    9.4970 C   0  0  0  0  0  0  0  0  0  0  0  0
    3.4856   -6.2052    9.7402 C   0  0  0  0  0  0  0  0  0  0  0  0
    3.9609   -6.9213    8.5096 C   0  0  0  0  0  0  0  0  0  0  0  0
    5.4623   -7.0054    8.6525 N   0  0  0  0  0  0  0  0  0  0  0  0
  1  2  1  0  0  0  0
  2  3  1  0  0  0  0
  3  4  1  0  0  0  0
  4  5  1  0  0  0  0
  5  6  1  0  0  0  0
  6  7  1  0  0  0  0
  7  8  1  0  0  0  0
  8  9  1  0  0  0  0
  9 10  1  0  0  0  0
 10 11  1  0  0  0  0
 11 12  1  0  0  0  0
 12 13  1  0  0  0  0
 13 14  1  0  0  0  0
M  END
>  <CHROM.1>
72.07976405,74.11480575,-159.82662969,-162.21525754,-170.22197276,178.33068576
-168.67539892,142.50077663,-147.32260084,171.10424641,72.12939938,0.85925808
-2.10386052,9.90974232,2.46653690,-0.43759976,0.56366281

>  <Name>
ligand

>  <RI>
0

>  <Rbt.Current_Directory>
/home/itssahil/PROJECTS/Mol_Feturizer/New_Systems/rnas/1FUF

>  <Rbt.Executable>
rbdock ($Id: //depot/dev/client3/rdock/2013.1/src/exe/rbdock.cxx#4 $)

>  <Rbt.Library>
libRbt.so (2013.1, Build901 2013/11/27)

>  <Rbt.Parameter_File>
/export/apps/rDock/src/rDock_2013.1_src/data/scripts/dock_solv.prm

>  <Rbt.Receptor>
prm/blind_docking_60.prm

>  <SCORE>
-3.59961

>  <SCORE.INTER>
-2.16009

>  <SCORE.INTER.CONST>
1

>  <SCORE.INTER.POLAR>
0

>  <SCORE.INTER.ROT>
11

>  <SCORE.INTER.SOLV>
16.4355

>  <SCORE.INTER.VDW>
-17.8519

>  <SCORE.INTER.norm>
-0.154292

>  <SCORE.INTRA>
-1.43951

>  <SCORE.INTRA.DIHEDRAL>
-5.59357

>  <SCORE.INTRA.DIHEDRAL.0>
10.5765

>  <SCORE.INTRA.POLAR>
0

>  <SCORE.INTRA.POLAR.0>
0

>  <SCORE.INTRA.REPUL>
0

>  <SCORE.INTRA.REPUL.0>
0

>  <SCORE.INTRA.SOLV>
2.12571

>  <SCORE.INTRA.SOLV.lig_0>
-50.1861

>  <SCORE.INTRA.VDW>
0.294417

>  <SCORE.INTRA.VDW.0>
-1.36671

>  <SCORE.INTRA.norm>
-0.102822

>  <SCORE.RESTR>
0

>  <SCORE.RESTR.CAVITY>
0

>  <SCORE.RESTR.norm>
0

>  <SCORE.SYSTEM>
0

>  <SCORE.SYSTEM.CONST>
0

>  <SCORE.SYSTEM.DIHEDRAL>
0

>  <SCORE.SYSTEM.SOLV>
0

>  <SCORE.SYSTEM.norm>
0

>  <SCORE.heavy>
14

>  <SCORE.norm>
-0.257115

>  <RMSD>
2.076

$$$$
ligand
 OpenBabel11021811393D
libRbt.so/2013.1/901 2013/11/27
 14 13  0  0  0  0  0  0  0  0999 V2000
   -4.5627    1.7379    8.5279 N   0  0  0  0  0  0  0  0  0  0  0  0
   -3.0903    1.8401    8.9274 C   0  0  0  0  0  0  0  0  0  0  0  0
   -3.0068    1.2525   10.2892 C   0  0  0  0  0  0  0  0  0  0  0  0
   -1.6250    1.3135   10.9196 C   0  0  0  0  0  0  0  0  0  0  0  0
   -0.6660    0.5363   10.0899 N   0  0  0  0  0  0  0  0  0  0  0  0
   -0.4954   -0.8709   10.6905 C   0  0  0  0  0  0  0  0  0  0  0  0
    1.0468   -1.1823   10.3799 C   0  0  0  0  0  0  0  0  0  0  0  0
    1.3033   -2.4343   10.6720 C   0  0  0  0  0  0  0  0  0  0  0  0
    2.9088   -2.3808   10.3542 C   0  0  0  0  0  0  0  0  0  0  0  0
    3.2291   -3.8954   10.5887 N   0  0  0  0  0  0  0  0  0  0  0  0
    3.7126   -4.6475    9.2850 C   0  0  0  0  0  0  0  0  0  0  0  0
    3.5408   -6.2417    9.5963 C   0  0  0  0  0  0  0  0  0  0  0  0
    3.9795   -6.8999    8.3206 C   0  0  0  0  0  0  0  0  0  0  0  0
    5.4753   -6.6978    8.2619 N   0  0  0  0  0  0  0  0  0  0  0  0
  1  2  1  0  0  0  0
  2  3  1  0  0  0  0
  3  4  1  0  0  0  0
  4  5  1  0  0  0  0
  5  6  1  0  0  0  0
  6  7  1  0  0  0  0
  7  8  1  0  0  0  0
  8  9  1  0  0  0  0
  9 10  1  0  0  0  0
 10 11  1  0  0  0  0
 11 12  1  0  0  0  0
 12 13  1  0  0  0  0
 13 14  1  0  0  0  0
M  END
>  <CHROM.1>
-177.07826067,-61.65119804,-97.44406263,-145.50172777,-171.38402240,-176.26354935
-175.89648965,115.33804819,-162.64126277,178.65170681,71.06345619,0.83927394
-2.04071407,9.77895859,2.56322081,-0.59195809,0.78978714

>  <Name>
ligand

>  <RI>
0

>  <Rbt.Current_Directory>
/home/itssahil/PROJECTS/Mol_Feturizer/New_Systems/rnas/1FUF

>  <Rbt.Executable>
rbdock ($Id: //depot/dev/client3/rdock/2013.1/src/exe/rbdock.cxx#4 $)

>  <Rbt.Library>
libRbt.so (2013.1, Build901 2013/11/27)

>  <Rbt.Parameter_File>
/export/apps/rDock/src/rDock_2013.1_src/data/scripts/dock_solv.prm

>  <Rbt.Receptor>
prm/blind_docking_80.prm

>  <SCORE>
-4.86288

>  <SCORE.INTER>
-2.60811

>  <SCORE.INTER.CONST>
1

>  <SCORE.INTER.POLAR>
0

>  <SCORE.INTER.ROT>
11

>  <SCORE.INTER.SOLV>
14.4161

>  <SCORE.INTER.VDW>
-17.4774

>  <SCORE.INTER.norm>
-0.186293

>  <SCORE.INTRA>
-2.25478

>  <SCORE.INTRA.DIHEDRAL>
-6.69737

>  <SCORE.INTRA.DIHEDRAL.0>
10.5765

>  <SCORE.INTRA.POLAR>
0

>  <SCORE.INTRA.POLAR.0>
0

>  <SCORE.INTRA.REPUL>
0

>  <SCORE.INTRA.REPUL.0>
0

>  <SCORE.INTRA.SOLV>
1.14331

>  <SCORE.INTRA.SOLV.lig_0>
-50.1861

>  <SCORE.INTRA.VDW>
0.522255

>  <SCORE.INTRA.VDW.0>
-1.36671

>  <SCORE.INTRA.norm>
-0.161055

>  <SCORE.RESTR>
0

>  <SCORE.RESTR.CAVITY>
0

>  <SCORE.RESTR.norm>
0

>  <SCORE.SYSTEM>
0

>  <SCORE.SYSTEM.CONST>
0

>  <SCORE.SYSTEM.DIHEDRAL>
0

>  <SCORE.SYSTEM.SOLV>
0

>  <SCORE.SYSTEM.norm>
0

>  <SCORE.heavy>
14

>  <SCORE.norm>
-0.347349

>  <RMSD>
2.076

$$$$
ligand
 OpenBabel11021811393D
libRbt.so/2013.1/901 2013/11/27
 14 13  0  0  0  0  0  0  0  0999 V2000
   -3.9043    1.9623    8.5114 N   0  0  0  0  0  0  0  0  0  0  0  0
   -4.1451    0.6054    9.1737 C   0  0  0  0  0  0  0  0  0  0  0  0
   -3.1030    0.4867   10.2257 C   0  0  0  0  0  0  0  0  0  0  0  0
   -1.6769    0.4503    9.7006 C   0  0  0  0  0  0  0  0  0  0  0  0
   -0.7589    0.0138   10.7864 N   0  0  0  0  0  0  0  0  0  0  0  0
    0.6170   -0.3260   10.1854 C   0  0  0  0  0  0  0  0  0  0  0  0
    0.9697   -1.7083   10.9180 C   0  0  0  0  0  0  0  0  0  0  0  0
    2.0980   -2.1756   10.4413 C   0  0  0  0  0  0  0  0  0  0  0  0
    2.1142   -3.5630   11.3111 C   0  0  0  0  0  0  0  0  0  0  0  0
    3.2996   -4.2707   10.5726 N   0  0  0  0  0  0  0  0  0  0  0  0
    3.4731   -5.7910   10.9698 C   0  0  0  0  0  0  0  0  0  0  0  0
    3.8578   -6.5750    9.5895 C   0  0  0  0  0  0  0  0  0  0  0  0
    5.2368   -6.0745    9.2717 C   0  0  0  0  0  0  0  0  0  0  0  0
    5.6428   -6.7993    8.0101 N   0  0  0  0  0  0  0  0  0  0  0  0
  1  2  1  0  0  0  0
  2  3  1  0  0  0  0
  3  4  1  0  0  0  0
  4  5  1  0  0  0  0
  5  6  1  0  0  0  0
  6  7  1  0  0  0  0
  7  8  1  0  0  0  0
  8  9  1  0  0  0  0
  9 10  1  0  0  0  0
 10 11  1  0  0  0  0
 11 12  1  0  0  0  0
 12 13  1  0  0  0  0
 13 14  1  0  0  0  0
M  END
>  <CHROM.1>
-63.79088794,-166.77568469,167.41985379,-135.05250433,176.13547564,-177.32382736
169.80945209,-169.79237738,140.89723131,68.81222187,178.91226529,0.98001785
-2.41183618,9.97644043,2.83062918,-0.69415199,1.10039365

>  <Name>
ligand

>  <RI>
0

>  <Rbt.Current_Directory>
/home/itssahil/PROJECTS/Mol_Feturizer/New_Systems/rnas/1FUF

>  <Rbt.Executable>
rbdock ($Id: //depot/dev/client3/rdock/2013.1/src/exe/rbdock.cxx#4 $)

>  <Rbt.Library>
libRbt.so (2013.1, Build901 2013/11/27)

>  <Rbt.Parameter_File>
/export/apps/rDock/src/rDock_2013.1_src/data/scripts/dock_solv.prm

>  <Rbt.Receptor>
prm/pocket_docking_5.prm

>  <SCORE>
-4.86095

>  <SCORE.INTER>
-2.28354

>  <SCORE.INTER.CONST>
1

>  <SCORE.INTER.POLAR>
0

>  <SCORE.INTER.ROT>
11

>  <SCORE.INTER.SOLV>
14.85

>  <SCORE.INTER.VDW>
-17.4057

>  <SCORE.INTER.norm>
-0.16311

>  <SCORE.INTRA>
-2.57742

>  <SCORE.INTRA.DIHEDRAL>
-7.01603

>  <SCORE.INTRA.DIHEDRAL.0>
10.5765

>  <SCORE.INTRA.POLAR>
0

>  <SCORE.INTRA.POLAR.0>
0

>  <SCORE.INTRA.REPUL>
0

>  <SCORE.INTRA.REPUL.0>
0

>  <SCORE.INTRA.SOLV>
1.15928

>  <SCORE.INTRA.SOLV.lig_0>
-50.1861

>  <SCORE.INTRA.VDW>
0.350958

>  <SCORE.INTRA.VDW.0>
-1.36671

>  <SCORE.INTRA.norm>
-0.184101

>  <SCORE.RESTR>
0

>  <SCORE.RESTR.CAVITY>
0

>  <SCORE.RESTR.norm>
0

>  <SCORE.SYSTEM>
0

>  <SCORE.SYSTEM.CONST>
0

>  <SCORE.SYSTEM.DIHEDRAL>
0

>  <SCORE.SYSTEM.SOLV>
0

>  <SCORE.SYSTEM.norm>
0

>  <SCORE.heavy>
14

>  <SCORE.norm>
-0.347211

>  <RMSD>
2.080

$$$$
ligand
 OpenBabel11021811393D
libRbt.so/2013.1/901 2013/11/27
 14 13  0  0  0  0  0  0  0  0999 V2000
   -3.7061    1.9078    8.5175 N   0  0  0  0  0  0  0  0  0  0  0  0
   -3.9419    1.5501    9.9853 C   0  0  0  0  0  0  0  0  0  0  0  0
   -2.5940    1.5243   10.6091 C   0  0  0  0  0  0  0  0  0  0  0  0
   -1.6808    0.4237   10.0940 C   0  0  0  0  0  0  0  0  0  0  0  0
   -0.3574    0.5216   10.7657 N   0  0  0  0  0  0  0  0  0  0  0  0
    0.6286   -0.4517   10.0947 C   0  0  0  0  0  0  0  0  0  0  0  0
    0.5033   -1.7505   11.0272 C   0  0  0  0  0  0  0  0  0  0  0  0
    1.0564   -2.7733   10.4219 C   0  0  0  0  0  0  0  0  0  0  0  0
    2.5470   -2.6019   11.0779 C   0  0  0  0  0  0  0  0  0  0  0  0
    3.2701   -3.7373   10.2784 N   0  0  0  0  0  0  0  0  0  0  0  0
    4.3871   -4.4833   11.1120 C   0  0  0  0  0  0  0  0  0  0  0  0
    5.2057   -5.4061   10.0414 C   0  0  0  0  0  0  0  0  0  0  0  0
    4.2070   -6.4527    9.6410 C   0  0  0  0  0  0  0  0  0  0  0  0
    4.9096   -7.2981    8.6049 N   0  0  0  0  0  0  0  0  0  0  0  0
  1  2  1  0  0  0  0
  2  3  1  0  0  0  0
  3  4  1  0  0  0  0
  4  5  1  0  0  0  0
  5  6  1  0  0  0  0
  6  7  1  0  0  0  0
  7  8  1  0  0  0  0
  8  9  1  0  0  0  0
  9 10  1  0  0  0  0
 10 11  1  0  0  0  0
 11 12  1  0  0  0  0
 12 13  1  0  0  0  0
 13 14  1  0  0  0  0
M  END
>  <CHROM.1>
-65.78300560,178.62764875,-171.52637386,-94.39385444,166.06233606,92.33753590
-175.33885878,-145.60654253,-169.27531486,-68.23711193,177.79172906,1.03103533
-2.07335426,10.16247716,2.61182966,-0.59088052,0.76448923

>  <Name>
ligand

>  <RI>
0

>  <Rbt.Current_Directory>
/home/itssahil/PROJECTS/Mol_Feturizer/New_Systems/rnas/1FUF

>  <Rbt.Executable>
rbdock ($Id: //depot/dev/client3/rdock/2013.1/src/exe/rbdock.cxx#4 $)

>  <Rbt.Library>
libRbt.so (2013.1, Build901 2013/11/27)

>  <Rbt.Parameter_File>
/export/apps/rDock/src/rDock_2013.1_src/data/scripts/dock_solv.prm

>  <Rbt.Receptor>
prm/blind_docking_60.prm

>  <SCORE>
-1.69153

>  <SCORE.INTER>
-1.58729

>  <SCORE.INTER.CONST>
1

>  <SCORE.INTER.POLAR>
0

>  <SCORE.INTER.ROT>
11

>  <SCORE.INTER.SOLV>
16.7427

>  <SCORE.INTER.VDW>
-17.5724

>  <SCORE.INTER.norm>
-0.113378

>  <SCORE.INTRA>
-0.104244

>  <SCORE.INTRA.DIHEDRAL>
-4.33046

>  <SCORE.INTRA.DIHEDRAL.0>
10.5765

>  <SCORE.INTRA.POLAR>
0

>  <SCORE.INTRA.POLAR.0>
0

>  <SCORE.INTRA.REPUL>
0

>  <SCORE.INTRA.REPUL.0>
0

>  <SCORE.INTRA.SOLV>
1.56485

>  <SCORE.INTRA.SOLV.lig_0>
-50.1861

>  <SCORE.INTRA.VDW>
1.27856

>  <SCORE.INTRA.VDW.0>
-1.36671

>  <SCORE.INTRA.norm>
-0.00744603

>  <SCORE.RESTR>
0

>  <SCORE.RESTR.CAVITY>
0

>  <SCORE.RESTR.norm>
0

>  <SCORE.SYSTEM>
0

>  <SCORE.SYSTEM.CONST>
0

>  <SCORE.SYSTEM.DIHEDRAL>
0

>  <SCORE.SYSTEM.SOLV>
0

>  <SCORE.SYSTEM.norm>
0

>  <SCORE.heavy>
14

>  <SCORE.norm>
-0.120824

>  <RMSD>
2.081

$$$$
ligand
 OpenBabel11021811393D
libRbt.so/2013.1/901 2013/11/27
 14 13  0  0  0  0  0  0  0  0999 V2000
    5.8179   -7.8871    8.5086 N   0  0  0  0  0  0  0  0  0  0  0  0
    4.4479   -7.2236    8.6534 C   0  0  0  0  0  0  0  0  0  0  0  0
    4.7151   -5.8850    9.2394 C   0  0  0  0  0  0  0  0  0  0  0  0
    3.4685   -5.0897    9.5916 C   0  0  0  0  0  0  0  0  0  0  0  0
    3.8623   -3.7471   10.0963 N   0  0  0  0  0  0  0  0  0  0  0  0
    2.8847   -3.3111   11.2027 C   0  0  0  0  0  0  0  0  0  0  0  0
    1.9895   -2.2168   10.4458 C   0  0  0  0  0  0  0  0  0  0  0  0
    1.0858   -1.7495   11.2726 C   0  0  0  0  0  0  0  0  0  0  0  0
    0.3761   -0.7170   10.2180 C   0  0  0  0  0  0  0  0  0  0  0  0
   -0.6884   -0.1074   11.1909 N   0  0  0  0  0  0  0  0  0  0  0  0
   -1.4820    1.1126   10.5738 C   0  0  0  0  0  0  0  0  0  0  0  0
   -2.9701    0.5442   10.2128 C   0  0  0  0  0  0  0  0  0  0  0  0
   -3.6846    1.7463    9.6672 C   0  0  0  0  0  0  0  0  0  0  0  0
   -5.0666    1.2571    9.3031 N   0  0  0  0  0  0  0  0  0  0  0  0
  1  2  1  0  0  0  0
  2  3  1  0  0  0  0
  3  4  1  0  0  0  0
  4  5  1  0  0  0  0
  5  6  1  0  0  0  0
  6  7  1  0  0  0  0
  7  8  1  0  0  0  0
  8  9  1  0  0  0  0
  9 10  1  0  0  0  0
 10 11  1  0  0  0  0
 11 12  1  0  0  0  0
 12 13  1  0  0  0  0
 13 14  1  0  0  0  0
M  END
>  <CHROM.1>
-174.65194666,-176.90587454,-144.58751425,-105.00460883,179.57591931,-179.56636305
-178.43155228,172.29617105,105.58259073,178.60600402,179.30562965,1.05403625
-2.37663362,10.01266924,0.62414310,0.46840042,-2.46453971

>  <Name>
ligand

>  <RI>
0

>  <Rbt.Current_Directory>
/home/itssahil/PROJECTS/Mol_Feturizer/New_Systems/rnas/1FUF

>  <Rbt.Executable>
rbdock ($Id: //depot/dev/client3/rdock/2013.1/src/exe/rbdock.cxx#4 $)

>  <Rbt.Library>
libRbt.so (2013.1, Build901 2013/11/27)

>  <Rbt.Parameter_File>
/export/apps/rDock/src/rDock_2013.1_src/data/scripts/dock_solv.prm

>  <Rbt.Receptor>
prm/blind_docking_60.prm

>  <SCORE>
-5.81597

>  <SCORE.INTER>
-2.06139

>  <SCORE.INTER.CONST>
1

>  <SCORE.INTER.POLAR>
0

>  <SCORE.INTER.ROT>
11

>  <SCORE.INTER.SOLV>
15.2821

>  <SCORE.INTER.VDW>
-17.4016

>  <SCORE.INTER.norm>
-0.147242

>  <SCORE.INTRA>
-3.75458

>  <SCORE.INTRA.DIHEDRAL>
-7.53558

>  <SCORE.INTRA.DIHEDRAL.0>
10.5765

>  <SCORE.INTRA.POLAR>
0

>  <SCORE.INTRA.POLAR.0>
0

>  <SCORE.INTRA.REPUL>
0

>  <SCORE.INTRA.REPUL.0>
0

>  <SCORE.INTRA.SOLV>
-0.148822

>  <SCORE.INTRA.SOLV.lig_0>
-50.1861

>  <SCORE.INTRA.VDW>
0.0876179

>  <SCORE.INTRA.VDW.0>
-1.36671

>  <SCORE.INTRA.norm>
-0.268185

>  <SCORE.RESTR>
0

>  <SCORE.RESTR.CAVITY>
0

>  <SCORE.RESTR.norm>
0

>  <SCORE.SYSTEM>
0

>  <SCORE.SYSTEM.CONST>
0

>  <SCORE.SYSTEM.DIHEDRAL>
0

>  <SCORE.SYSTEM.SOLV>
0

>  <SCORE.SYSTEM.norm>
0

>  <SCORE.heavy>
14

>  <SCORE.norm>
-0.415427

>  <RMSD>
2.081

$$$$
ligand
 OpenBabel11021811393D
libRbt.so/2013.1/901 2013/11/27
 14 13  0  0  0  0  0  0  0  0999 V2000
    6.1283   -6.2006    8.2209 N   0  0  0  0  0  0  0  0  0  0  0  0
    4.6874   -6.7047    8.3085 C   0  0  0  0  0  0  0  0  0  0  0  0
    3.8451   -5.4846    8.4018 C   0  0  0  0  0  0  0  0  0  0  0  0
    3.9742   -4.7270    9.7133 C   0  0  0  0  0  0  0  0  0  0  0  0
    3.0141   -3.5911    9.7271 N   0  0  0  0  0  0  0  0  0  0  0  0
    3.0701   -2.8924   11.0976 C   0  0  0  0  0  0  0  0  0  0  0  0
    1.5845   -2.3036   11.2338 C   0  0  0  0  0  0  0  0  0  0  0  0
    1.4465   -1.2841   10.4212 C   0  0  0  0  0  0  0  0  0  0  0  0
   -0.1266   -0.9801   10.7599 C   0  0  0  0  0  0  0  0  0  0  0  0
   -0.2962    0.3034    9.8794 N   0  0  0  0  0  0  0  0  0  0  0  0
   -1.7778    0.5340    9.3786 C   0  0  0  0  0  0  0  0  0  0  0  0
   -2.4706    1.5325   10.4699 C   0  0  0  0  0  0  0  0  0  0  0  0
   -3.9026    1.6025   10.0253 C   0  0  0  0  0  0  0  0  0  0  0  0
   -3.8744    2.3359    8.7050 N   0  0  0  0  0  0  0  0  0  0  0  0
  1  2  1  0  0  0  0
  2  3  1  0  0  0  0
  3  4  1  0  0  0  0
  4  5  1  0  0  0  0
  5  6  1  0  0  0  0
  6  7  1  0  0  0  0
  7  8  1  0  0  0  0
  8  9  1  0  0  0  0
  9 10  1  0  0  0  0
 10 11  1  0  0  0  0
 11 12  1  0  0  0  0
 12 13  1  0  0  0  0
 13 14  1  0  0  0  0
M  END
>  <CHROM.1>
-69.57713803,-175.79925581,175.66254279,-151.37789984,-72.88966297,177.99854756
176.09882602,152.60260887,93.99944073,-174.41943387,-67.60924093,1.09295107
-1.99006621,9.73896456,0.38866425,0.66907049,-2.03337296

>  <Name>
ligand

>  <RI>
0

>  <Rbt.Current_Directory>
/home/itssahil/PROJECTS/Mol_Feturizer/New_Systems/rnas/1FUF

>  <Rbt.Executable>
rbdock ($Id: //depot/dev/client3/rdock/2013.1/src/exe/rbdock.cxx#4 $)

>  <Rbt.Library>
libRbt.so (2013.1, Build901 2013/11/27)

>  <Rbt.Parameter_File>
/export/apps/rDock/src/rDock_2013.1_src/data/scripts/dock_solv.prm

>  <Rbt.Receptor>
prm/pocket_docking_6.prm

>  <SCORE>
-3.40507

>  <SCORE.INTER>
-1.63016

>  <SCORE.INTER.CONST>
1

>  <SCORE.INTER.POLAR>
0

>  <SCORE.INTER.ROT>
11

>  <SCORE.INTER.SOLV>
16.2107

>  <SCORE.INTER.VDW>
-17.4237

>  <SCORE.INTER.norm>
-0.11644

>  <SCORE.INTRA>
-1.77491

>  <SCORE.INTRA.DIHEDRAL>
-7.34239

>  <SCORE.INTRA.DIHEDRAL.0>
10.5765

>  <SCORE.INTRA.POLAR>
0

>  <SCORE.INTRA.POLAR.0>
0

>  <SCORE.INTRA.REPUL>
0

>  <SCORE.INTRA.REPUL.0>
0

>  <SCORE.INTRA.SOLV>
2.02504

>  <SCORE.INTRA.SOLV.lig_0>
-50.1861

>  <SCORE.INTRA.VDW>
0.883766

>  <SCORE.INTRA.VDW.0>
-1.36671

>  <SCORE.INTRA.norm>
-0.126779

>  <SCORE.RESTR>
0

>  <SCORE.RESTR.CAVITY>
0

>  <SCORE.RESTR.norm>
0

>  <SCORE.SYSTEM>
0

>  <SCORE.SYSTEM.CONST>
0

>  <SCORE.SYSTEM.DIHEDRAL>
0

>  <SCORE.SYSTEM.SOLV>
0

>  <SCORE.SYSTEM.norm>
0

>  <SCORE.heavy>
14

>  <SCORE.norm>
-0.243219

>  <RMSD>
2.083

$$$$
ligand
 OpenBabel11021811393D
libRbt.so/2013.1/901 2013/11/27
 14 13  0  0  0  0  0  0  0  0999 V2000
    2.2214   -6.2198   11.0453 N   0  0  0  0  0  0  0  0  0  0  0  0
    3.7098   -6.4784   10.8094 C   0  0  0  0  0  0  0  0  0  0  0  0
    4.1619   -5.3940    9.9004 C   0  0  0  0  0  0  0  0  0  0  0  0
    4.2538   -4.0228   10.5501 C   0  0  0  0  0  0  0  0  0  0  0  0
    2.8892   -3.5488   10.9044 N   0  0  0  0  0  0  0  0  0  0  0  0
    2.6389   -2.1785   10.2491 C   0  0  0  0  0  0  0  0  0  0  0  0
    1.2040   -1.7802   10.8444 C   0  0  0  0  0  0  0  0  0  0  0  0
    0.7785   -0.6889   10.2557 C   0  0  0  0  0  0  0  0  0  0  0  0
   -0.7089   -0.6687   10.9404 C   0  0  0  0  0  0  0  0  0  0  0  0
   -1.3271    0.4895   10.0873 N   0  0  0  0  0  0  0  0  0  0  0  0
   -2.8736    0.7016   10.3373 C   0  0  0  0  0  0  0  0  0  0  0  0
   -3.4133    1.5955    9.0814 C   0  0  0  0  0  0  0  0  0  0  0  0
   -4.8588    1.8307    9.4107 C   0  0  0  0  0  0  0  0  0  0  0  0
   -5.4053    2.6342    8.2542 N   0  0  0  0  0  0  0  0  0  0  0  0
  1  2  1  0  0  0  0
  2  3  1  0  0  0  0
  3  4  1  0  0  0  0
  4  5  1  0  0  0  0
  5  6  1  0  0  0  0
  6  7  1  0  0  0  0
  7  8  1  0  0  0  0
  8  9  1  0  0  0  0
  9 10  1  0  0  0  0
 10 11  1  0  0  0  0
 11 12  1  0  0  0  0
 12 13  1  0  0  0  0
 13 14  1  0  0  0  0
M  END
>  <CHROM.1>
72.01515584,-67.29352716,-124.25516612,-175.06291306,-172.91510618,174.01255292
-171.38503947,172.71514671,-163.34546036,-176.86647250,-178.87381711,0.23385775
-1.69491588,10.19077358,0.73318109,0.13503510,3.09608282

>  <Name>
ligand

>  <RI>
0

>  <Rbt.Current_Directory>
/home/itssahil/PROJECTS/Mol_Feturizer/New_Systems/rnas/1FUF

>  <Rbt.Executable>
rbdock ($Id: //depot/dev/client3/rdock/2013.1/src/exe/rbdock.cxx#4 $)

>  <Rbt.Library>
libRbt.so (2013.1, Build901 2013/11/27)

>  <Rbt.Parameter_File>
/export/apps/rDock/src/rDock_2013.1_src/data/scripts/dock_solv.prm

>  <Rbt.Receptor>
prm/blind_docking_80.prm

>  <SCORE>
-4.94233

>  <SCORE.INTER>
-2.70797

>  <SCORE.INTER.CONST>
1

>  <SCORE.INTER.POLAR>
0

>  <SCORE.INTER.ROT>
11

>  <SCORE.INTER.SOLV>
16.4075

>  <SCORE.INTER.VDW>
-18.2078

>  <SCORE.INTER.norm>
-0.193426

>  <SCORE.INTRA>
-2.23436

>  <SCORE.INTRA.DIHEDRAL>
-7.73217

>  <SCORE.INTRA.DIHEDRAL.0>
10.5765

>  <SCORE.INTRA.POLAR>
0

>  <SCORE.INTRA.POLAR.0>
0

>  <SCORE.INTRA.REPUL>
0

>  <SCORE.INTRA.REPUL.0>
0

>  <SCORE.INTRA.SOLV>
3.0266

>  <SCORE.INTRA.SOLV.lig_0>
-50.1861

>  <SCORE.INTRA.VDW>
0.118425

>  <SCORE.INTRA.VDW.0>
-1.36671

>  <SCORE.INTRA.norm>
-0.159597

>  <SCORE.RESTR>
0

>  <SCORE.RESTR.CAVITY>
0

>  <SCORE.RESTR.norm>
0

>  <SCORE.SYSTEM>
0

>  <SCORE.SYSTEM.CONST>
0

>  <SCORE.SYSTEM.DIHEDRAL>
0

>  <SCORE.SYSTEM.SOLV>
0

>  <SCORE.SYSTEM.norm>
0

>  <SCORE.heavy>
14

>  <SCORE.norm>
-0.353023

>  <RMSD>
2.084

$$$$
ligand
 OpenBabel11021811393D
libRbt.so/2013.1/901 2013/11/27
 14 13  0  0  0  0  0  0  0  0999 V2000
    2.1225   -6.4418   11.4208 N   0  0  0  0  0  0  0  0  0  0  0  0
    3.3118   -5.7602   10.7433 C   0  0  0  0  0  0  0  0  0  0  0  0
    3.1252   -4.3061   10.9830 C   0  0  0  0  0  0  0  0  0  0  0  0
    1.9049   -3.7056   10.3040 C   0  0  0  0  0  0  0  0  0  0  0  0
    1.8685   -2.2399   10.5540 N   0  0  0  0  0  0  0  0  0  0  0  0
    0.4060   -1.7849   10.7089 C   0  0  0  0  0  0  0  0  0  0  0  0
    0.5495   -0.1877   10.6951 C   0  0  0  0  0  0  0  0  0  0  0  0
   -0.5893    0.3527   11.0553 C   0  0  0  0  0  0  0  0  0  0  0  0
   -1.2623    0.3955    9.5631 C   0  0  0  0  0  0  0  0  0  0  0  0
   -2.6894    0.8862    9.9804 N   0  0  0  0  0  0  0  0  0  0  0  0
   -3.8530    0.2438    9.1245 C   0  0  0  0  0  0  0  0  0  0  0  0
   -5.2446    0.8318    9.7454 C   0  0  0  0  0  0  0  0  0  0  0  0
   -5.2558    2.2632    9.2938 C   0  0  0  0  0  0  0  0  0  0  0  0
   -6.6070    2.7998    9.7038 N   0  0  0  0  0  0  0  0  0  0  0  0
  1  2  1  0  0  0  0
  2  3  1  0  0  0  0
  3  4  1  0  0  0  0
  4  5  1  0  0  0  0
  5  6  1  0  0  0  0
  6  7  1  0  0  0  0
  7  8  1  0  0  0  0
  8  9  1  0  0  0  0
  9 10  1  0  0  0  0
 10 11  1  0  0  0  0
 11 12  1  0  0  0  0
 12 13  1  0  0  0  0
 13 14  1  0  0  0  0
M  END
>  <CHROM.1>
-65.65502993,-176.86336197,-144.47478362,-170.00431761,-168.89938725,-87.45354418
173.89752188,-143.45634357,177.88803295,72.31369710,173.30621972,-0.87216658
-1.18948988,10.27674727,0.70214691,0.16083485,3.12876578

>  <Name>
ligand

>  <RI>
0

>  <Rbt.Current_Directory>
/home/itssahil/PROJECTS/Mol_Feturizer/New_Systems/rnas/1FUF

>  <Rbt.Executable>
rbdock ($Id: //depot/dev/client3/rdock/2013.1/src/exe/rbdock.cxx#4 $)

>  <Rbt.Library>
libRbt.so (2013.1, Build901 2013/11/27)

>  <Rbt.Parameter_File>
/export/apps/rDock/src/rDock_2013.1_src/data/scripts/dock_solv.prm

>  <Rbt.Receptor>
prm/blind_docking_60.prm

>  <SCORE>
-2.01036

>  <SCORE.INTER>
-1.66302

>  <SCORE.INTER.CONST>
1

>  <SCORE.INTER.POLAR>
0

>  <SCORE.INTER.ROT>
11

>  <SCORE.INTER.SOLV>
19.2813

>  <SCORE.INTER.VDW>
-18.4691

>  <SCORE.INTER.norm>
-0.118787

>  <SCORE.INTRA>
-0.347337

>  <SCORE.INTRA.DIHEDRAL>
-4.79452

>  <SCORE.INTRA.DIHEDRAL.0>
10.5765

>  <SCORE.INTRA.POLAR>
0

>  <SCORE.INTRA.POLAR.0>
0

>  <SCORE.INTRA.REPUL>
0

>  <SCORE.INTRA.REPUL.0>
0

>  <SCORE.INTRA.SOLV>
1.44962

>  <SCORE.INTRA.SOLV.lig_0>
-50.1861

>  <SCORE.INTRA.VDW>
1.32511

>  <SCORE.INTRA.VDW.0>
-1.36671

>  <SCORE.INTRA.norm>
-0.0248098

>  <SCORE.RESTR>
0

>  <SCORE.RESTR.CAVITY>
0

>  <SCORE.RESTR.norm>
0

>  <SCORE.SYSTEM>
0

>  <SCORE.SYSTEM.CONST>
0

>  <SCORE.SYSTEM.DIHEDRAL>
0

>  <SCORE.SYSTEM.SOLV>
0

>  <SCORE.SYSTEM.norm>
0

>  <SCORE.heavy>
14

>  <SCORE.norm>
-0.143597

>  <RMSD>
2.085

$$$$
ligand
 OpenBabel11021811393D
libRbt.so/2013.1/901 2013/11/27
 14 13  0  0  0  0  0  0  0  0999 V2000
   -4.8659    0.9312    9.1899 N   0  0  0  0  0  0  0  0  0  0  0  0
   -3.9345    2.0753    9.5916 C   0  0  0  0  0  0  0  0  0  0  0  0
   -2.5577    1.5589    9.3808 C   0  0  0  0  0  0  0  0  0  0  0  0
   -2.1469    0.4485   10.3341 C   0  0  0  0  0  0  0  0  0  0  0  0
   -0.7110    0.1213   10.1260 N   0  0  0  0  0  0  0  0  0  0  0  0
   -0.3705   -1.1802   10.8743 C   0  0  0  0  0  0  0  0  0  0  0  0
    1.1755   -1.3860   10.5010 C   0  0  0  0  0  0  0  0  0  0  0  0
    1.5642   -2.5716   10.9033 C   0  0  0  0  0  0  0  0  0  0  0  0
    3.0974   -2.4738   10.3364 C   0  0  0  0  0  0  0  0  0  0  0  0
    3.5559   -3.9278   10.6926 N   0  0  0  0  0  0  0  0  0  0  0  0
    4.0786   -4.7480    9.4463 C   0  0  0  0  0  0  0  0  0  0  0  0
    3.5230   -6.2709    9.6457 C   0  0  0  0  0  0  0  0  0  0  0  0
    3.9743   -6.9773    8.4005 C   0  0  0  0  0  0  0  0  0  0  0  0
    5.4696   -7.1308    8.5492 N   0  0  0  0  0  0  0  0  0  0  0  0
  1  2  1  0  0  0  0
  2  3  1  0  0  0  0
  3  4  1  0  0  0  0
  4  5  1  0  0  0  0
  5  6  1  0  0  0  0
  6  7  1  0  0  0  0
  7  8  1  0  0  0  0
  8  9  1  0  0  0  0
  9 10  1  0  0  0  0
 10 11  1  0  0  0  0
 11 12  1  0  0  0  0
 12 13  1  0  0  0  0
 13 14  1  0  0  0  0
M  END
>  <CHROM.1>
-68.00810497,-173.79337174,-168.53240600,178.40199180,-170.51453057,177.98804060
-175.38311516,123.08820394,-140.92243515,176.63106529,71.84949594,0.84657627
-2.25212218,9.85520936,2.49833471,-0.44453842,0.58603869

>  <Name>
ligand

>  <RI>
0

>  <Rbt.Current_Directory>
/home/itssahil/PROJECTS/Mol_Feturizer/New_Systems/rnas/1FUF

>  <Rbt.Executable>
rbdock ($Id: //depot/dev/client3/rdock/2013.1/src/exe/rbdock.cxx#4 $)

>  <Rbt.Library>
libRbt.so (2013.1, Build901 2013/11/27)

>  <Rbt.Parameter_File>
/export/apps/rDock/src/rDock_2013.1_src/data/scripts/dock_solv.prm

>  <Rbt.Receptor>
prm/blind_docking_100.prm

>  <SCORE>
-5.30855

>  <SCORE.INTER>
-2.92737

>  <SCORE.INTER.CONST>
1

>  <SCORE.INTER.POLAR>
0

>  <SCORE.INTER.ROT>
11

>  <SCORE.INTER.SOLV>
15.6279

>  <SCORE.INTER.VDW>
-18.0942

>  <SCORE.INTER.norm>
-0.209098

>  <SCORE.INTRA>
-2.38119

>  <SCORE.INTRA.DIHEDRAL>
-7.03122

>  <SCORE.INTRA.DIHEDRAL.0>
10.5765

>  <SCORE.INTRA.POLAR>
0

>  <SCORE.INTRA.POLAR.0>
0

>  <SCORE.INTRA.REPUL>
0

>  <SCORE.INTRA.REPUL.0>
0

>  <SCORE.INTRA.SOLV>
1.5299

>  <SCORE.INTRA.SOLV.lig_0>
-50.1861

>  <SCORE.INTRA.VDW>
0.369476

>  <SCORE.INTRA.VDW.0>
-1.36671

>  <SCORE.INTRA.norm>
-0.170085

>  <SCORE.RESTR>
0

>  <SCORE.RESTR.CAVITY>
0

>  <SCORE.RESTR.norm>
0

>  <SCORE.SYSTEM>
0

>  <SCORE.SYSTEM.CONST>
0

>  <SCORE.SYSTEM.DIHEDRAL>
0

>  <SCORE.SYSTEM.SOLV>
0

>  <SCORE.SYSTEM.norm>
0

>  <SCORE.heavy>
14

>  <SCORE.norm>
-0.379182

>  <RMSD>
2.091

$$$$
ligand
 OpenBabel11021811393D
libRbt.so/2013.1/901 2013/11/27
 14 13  0  0  0  0  0  0  0  0999 V2000
    5.6483   -7.2595    8.5321 N   0  0  0  0  0  0  0  0  0  0  0  0
    4.1529   -7.0210    8.3202 C   0  0  0  0  0  0  0  0  0  0  0  0
    3.9376   -5.5781    8.5999 C   0  0  0  0  0  0  0  0  0  0  0  0
    4.2250   -5.1631   10.0337 C   0  0  0  0  0  0  0  0  0  0  0  0
    3.8595   -3.7333   10.2196 N   0  0  0  0  0  0  0  0  0  0  0  0
    2.4595   -3.6428   10.8533 C   0  0  0  0  0  0  0  0  0  0  0  0
    2.0033   -2.1602   10.4461 C   0  0  0  0  0  0  0  0  0  0  0  0
    0.7570   -1.9756   10.8084 C   0  0  0  0  0  0  0  0  0  0  0  0
    0.5892   -0.4795   10.1641 C   0  0  0  0  0  0  0  0  0  0  0  0
   -0.9425   -0.2962   10.4318 N   0  0  0  0  0  0  0  0  0  0  0  0
   -1.6050    0.8398    9.5545 C   0  0  0  0  0  0  0  0  0  0  0  0
   -2.6809    1.5895   10.5282 C   0  0  0  0  0  0  0  0  0  0  0  0
   -3.8928    0.7063   10.4616 C   0  0  0  0  0  0  0  0  0  0  0  0
   -4.5238    0.9962    9.1201 N   0  0  0  0  0  0  0  0  0  0  0  0
  1  2  1  0  0  0  0
  2  3  1  0  0  0  0
  3  4  1  0  0  0  0
  4  5  1  0  0  0  0
  5  6  1  0  0  0  0
  6  7  1  0  0  0  0
  7  8  1  0  0  0  0
  8  9  1  0  0  0  0
  9 10  1  0  0  0  0
 10 11  1  0  0  0  0
 11 12  1  0  0  0  0
 12 13  1  0  0  0  0
 13 14  1  0  0  0  0
M  END
>  <CHROM.1>
-64.01321337,-174.99716992,97.86471084,-158.35709591,173.82898455,-175.87146246
173.68682151,-161.70566948,-141.53890045,-82.34419032,-75.90784117,0.99909189
-2.36974499,9.86251893,0.63013823,0.44503056,-2.47604096

>  <Name>
ligand

>  <RI>
0

>  <Rbt.Current_Directory>
/home/itssahil/PROJECTS/Mol_Feturizer/New_Systems/rnas/1FUF

>  <Rbt.Executable>
rbdock ($Id: //depot/dev/client3/rdock/2013.1/src/exe/rbdock.cxx#4 $)

>  <Rbt.Library>
libRbt.so (2013.1, Build901 2013/11/27)

>  <Rbt.Parameter_File>
/export/apps/rDock/src/rDock_2013.1_src/data/scripts/dock_solv.prm

>  <Rbt.Receptor>
prm/pocket_docking_5.prm

>  <SCORE>
-3.812

>  <SCORE.INTER>
-2.79399

>  <SCORE.INTER.CONST>
1

>  <SCORE.INTER.POLAR>
0

>  <SCORE.INTER.ROT>
11

>  <SCORE.INTER.SOLV>
15.4778

>  <SCORE.INTER.VDW>
-17.9552

>  <SCORE.INTER.norm>
-0.199571

>  <SCORE.INTRA>
-1.01801

>  <SCORE.INTRA.DIHEDRAL>
-5.17383

>  <SCORE.INTRA.DIHEDRAL.0>
10.5765

>  <SCORE.INTRA.POLAR>
0

>  <SCORE.INTRA.POLAR.0>
0

>  <SCORE.INTRA.REPUL>
0

>  <SCORE.INTRA.REPUL.0>
0

>  <SCORE.INTRA.SOLV>
2.15039

>  <SCORE.INTRA.SOLV.lig_0>
-50.1861

>  <SCORE.INTRA.VDW>
0.493706

>  <SCORE.INTRA.VDW.0>
-1.36671

>  <SCORE.INTRA.norm>
-0.0727153

>  <SCORE.RESTR>
0

>  <SCORE.RESTR.CAVITY>
0

>  <SCORE.RESTR.norm>
0

>  <SCORE.SYSTEM>
0

>  <SCORE.SYSTEM.CONST>
0

>  <SCORE.SYSTEM.DIHEDRAL>
0

>  <SCORE.SYSTEM.SOLV>
0

>  <SCORE.SYSTEM.norm>
0

>  <SCORE.heavy>
14

>  <SCORE.norm>
-0.272286

>  <RMSD>
2.092

$$$$
ligand
 OpenBabel11021811393D
libRbt.so/2013.1/901 2013/11/27
 14 13  0  0  0  0  0  0  0  0999 V2000
    5.3536   -6.8173    8.1534 N   0  0  0  0  0  0  0  0  0  0  0  0
    4.4652   -6.9817    9.3870 C   0  0  0  0  0  0  0  0  0  0  0  0
    3.6312   -5.7536    9.4419 C   0  0  0  0  0  0  0  0  0  0  0  0
    2.6705   -5.6949   10.6184 C   0  0  0  0  0  0  0  0  0  0  0  0
    1.8848   -4.4336   10.5554 N   0  0  0  0  0  0  0  0  0  0  0  0
    2.6564   -3.3150   11.2787 C   0  0  0  0  0  0  0  0  0  0  0  0
    2.0674   -1.9969   10.5803 C   0  0  0  0  0  0  0  0  0  0  0  0
    0.8121   -1.8471   10.9271 C   0  0  0  0  0  0  0  0  0  0  0  0
    0.5598   -0.4381   10.1317 C   0  0  0  0  0  0  0  0  0  0  0  0
   -0.9618   -0.2703   10.4603 N   0  0  0  0  0  0  0  0  0  0  0  0
   -1.3742    1.2179   10.7982 C   0  0  0  0  0  0  0  0  0  0  0  0
   -2.9935    1.2920   10.5973 C   0  0  0  0  0  0  0  0  0  0  0  0
   -3.1739    1.1222    9.1168 C   0  0  0  0  0  0  0  0  0  0  0  0
   -4.6478    1.3396    8.8675 N   0  0  0  0  0  0  0  0  0  0  0  0
  1  2  1  0  0  0  0
  2  3  1  0  0  0  0
  3  4  1  0  0  0  0
  4  5  1  0  0  0  0
  5  6  1  0  0  0  0
  6  7  1  0  0  0  0
  7  8  1  0  0  0  0
  8  9  1  0  0  0  0
  9 10  1  0  0  0  0
 10 11  1  0  0  0  0
 11 12  1  0  0  0  0
 12 13  1  0  0  0  0
 13 14  1  0  0  0  0
M  END
>  <CHROM.1>
-179.27289544,-179.34397746,-87.69971639,155.60354352,68.28313921,177.59684251
176.98460209,139.51994514,160.84902379,-67.95943843,-173.82693832,0.78228487
-2.32682399,10.06550710,0.56887099,0.60856624,-2.36623286

>  <Name>
ligand

>  <RI>
0

>  <Rbt.Current_Directory>
/home/itssahil/PROJECTS/Mol_Feturizer/New_Systems/rnas/1FUF

>  <Rbt.Executable>
rbdock ($Id: //depot/dev/client3/rdock/2013.1/src/exe/rbdock.cxx#4 $)

>  <Rbt.Library>
libRbt.so (2013.1, Build901 2013/11/27)

>  <Rbt.Parameter_File>
/export/apps/rDock/src/rDock_2013.1_src/data/scripts/dock_solv.prm

>  <Rbt.Receptor>
prm/pocket_docking_7.prm

>  <SCORE>
-5.10104

>  <SCORE.INTER>
-2.44971

>  <SCORE.INTER.CONST>
1

>  <SCORE.INTER.POLAR>
0

>  <SCORE.INTER.ROT>
11

>  <SCORE.INTER.SOLV>
15.5292

>  <SCORE.INTER.VDW>
-17.7429

>  <SCORE.INTER.norm>
-0.174979

>  <SCORE.INTRA>
-2.65133

>  <SCORE.INTRA.DIHEDRAL>
-7.73508

>  <SCORE.INTRA.DIHEDRAL.0>
10.5765

>  <SCORE.INTRA.POLAR>
0

>  <SCORE.INTRA.POLAR.0>
0

>  <SCORE.INTRA.REPUL>
0

>  <SCORE.INTRA.REPUL.0>
0

>  <SCORE.INTRA.SOLV>
0.757191

>  <SCORE.INTRA.SOLV.lig_0>
-50.1861

>  <SCORE.INTRA.VDW>
0.837609

>  <SCORE.INTRA.VDW.0>
-1.36671

>  <SCORE.INTRA.norm>
-0.189381

>  <SCORE.RESTR>
0

>  <SCORE.RESTR.CAVITY>
0

>  <SCORE.RESTR.norm>
0

>  <SCORE.SYSTEM>
0

>  <SCORE.SYSTEM.CONST>
0

>  <SCORE.SYSTEM.DIHEDRAL>
0

>  <SCORE.SYSTEM.SOLV>
0

>  <SCORE.SYSTEM.norm>
0

>  <SCORE.heavy>
14

>  <SCORE.norm>
-0.36436

>  <RMSD>
2.099

$$$$
ligand
 OpenBabel11021811393D
libRbt.so/2013.1/901 2013/11/27
 14 13  0  0  0  0  0  0  0  0999 V2000
    5.3598   -6.6815    8.1373 N   0  0  0  0  0  0  0  0  0  0  0  0
    4.0043   -6.9447    8.7940 C   0  0  0  0  0  0  0  0  0  0  0  0
    3.7529   -5.7715    9.6697 C   0  0  0  0  0  0  0  0  0  0  0  0
    2.4544   -5.8379   10.4570 C   0  0  0  0  0  0  0  0  0  0  0  0
    2.2643   -4.5689   11.2092 N   0  0  0  0  0  0  0  0  0  0  0  0
    1.7515   -3.4792   10.2503 C   0  0  0  0  0  0  0  0  0  0  0  0
    1.8220   -2.1659   11.1680 C   0  0  0  0  0  0  0  0  0  0  0  0
    1.4353   -1.1271   10.4681 C   0  0  0  0  0  0  0  0  0  0  0  0
   -0.1599   -1.2411   10.8204 C   0  0  0  0  0  0  0  0  0  0  0  0
   -0.6703   -0.0790    9.9037 N   0  0  0  0  0  0  0  0  0  0  0  0
   -2.0920    0.4741   10.3183 C   0  0  0  0  0  0  0  0  0  0  0  0
   -2.5753    1.4366    9.0904 C   0  0  0  0  0  0  0  0  0  0  0  0
   -3.8268    2.0777    9.6156 C   0  0  0  0  0  0  0  0  0  0  0  0
   -4.8777    0.9934    9.5737 N   0  0  0  0  0  0  0  0  0  0  0  0
  1  2  1  0  0  0  0
  2  3  1  0  0  0  0
  3  4  1  0  0  0  0
  4  5  1  0  0  0  0
  5  6  1  0  0  0  0
  6  7  1  0  0  0  0
  7  8  1  0  0  0  0
  8  9  1  0  0  0  0
  9 10  1  0  0  0  0
 10 11  1  0  0  0  0
 11 12  1  0  0  0  0
 12 13  1  0  0  0  0
 13 14  1  0  0  0  0
M  END
>  <CHROM.1>
-178.62997876,-175.61602175,78.34783356,-171.81562119,178.65601128,89.05372832
-175.66361833,-159.85032822,-168.63830517,-172.43857056,-74.00935598,0.61736273
-2.35097436,9.96266550,0.51573733,0.64584197,-2.28668624

>  <Name>
ligand

>  <RI>
0

>  <Rbt.Current_Directory>
/home/itssahil/PROJECTS/Mol_Feturizer/New_Systems/rnas/1FUF

>  <Rbt.Executable>
rbdock ($Id: //depot/dev/client3/rdock/2013.1/src/exe/rbdock.cxx#4 $)

>  <Rbt.Library>
libRbt.so (2013.1, Build901 2013/11/27)

>  <Rbt.Parameter_File>
/export/apps/rDock/src/rDock_2013.1_src/data/scripts/dock_solv.prm

>  <Rbt.Receptor>
prm/pocket_docking_4.prm

>  <SCORE>
-3.38117

>  <SCORE.INTER>
-2.71269

>  <SCORE.INTER.CONST>
1

>  <SCORE.INTER.POLAR>
0

>  <SCORE.INTER.ROT>
11

>  <SCORE.INTER.SOLV>
15.7577

>  <SCORE.INTER.VDW>
-17.9944

>  <SCORE.INTER.norm>
-0.193764

>  <SCORE.INTRA>
-0.668476

>  <SCORE.INTRA.DIHEDRAL>
-5.86989

>  <SCORE.INTRA.DIHEDRAL.0>
10.5765

>  <SCORE.INTRA.POLAR>
0

>  <SCORE.INTRA.POLAR.0>
0

>  <SCORE.INTRA.REPUL>
0

>  <SCORE.INTRA.REPUL.0>
0

>  <SCORE.INTRA.SOLV>
1.04463

>  <SCORE.INTRA.SOLV.lig_0>
-50.1861

>  <SCORE.INTRA.VDW>
1.74415

>  <SCORE.INTRA.VDW.0>
-1.36671

>  <SCORE.INTRA.norm>
-0.0477483

>  <SCORE.RESTR>
0

>  <SCORE.RESTR.CAVITY>
0

>  <SCORE.RESTR.norm>
0

>  <SCORE.SYSTEM>
0

>  <SCORE.SYSTEM.CONST>
0

>  <SCORE.SYSTEM.DIHEDRAL>
0

>  <SCORE.SYSTEM.SOLV>
0

>  <SCORE.SYSTEM.norm>
0

>  <SCORE.heavy>
14

>  <SCORE.norm>
-0.241512

>  <RMSD>
2.102

$$$$
ligand
 OpenBabel11021811393D
libRbt.so/2013.1/901 2013/11/27
 14 13  0  0  0  0  0  0  0  0999 V2000
    5.2954   -6.4763    8.4885 N   0  0  0  0  0  0  0  0  0  0  0  0
    3.8349   -6.1817    8.8323 C   0  0  0  0  0  0  0  0  0  0  0  0
    3.7973   -6.0322   10.3098 C   0  0  0  0  0  0  0  0  0  0  0  0
    4.4873   -4.7841   10.8359 C   0  0  0  0  0  0  0  0  0  0  0  0
    3.7682   -3.5766   10.3491 N   0  0  0  0  0  0  0  0  0  0  0  0
    2.5858   -3.2741   11.2873 C   0  0  0  0  0  0  0  0  0  0  0  0
    1.9271   -1.9882   10.5912 C   0  0  0  0  0  0  0  0  0  0  0  0
    0.7876   -1.7137   11.1785 C   0  0  0  0  0  0  0  0  0  0  0  0
    0.3994   -0.4216   10.2503 C   0  0  0  0  0  0  0  0  0  0  0  0
   -1.0591   -0.2042   10.7765 N   0  0  0  0  0  0  0  0  0  0  0  0
   -1.5701    1.2839   10.6232 C   0  0  0  0  0  0  0  0  0  0  0  0
   -3.2007    1.1972   10.5835 C   0  0  0  0  0  0  0  0  0  0  0  0
   -3.4907    0.6203    9.2284 C   0  0  0  0  0  0  0  0  0  0  0  0
   -3.1964    1.7331    8.2502 N   0  0  0  0  0  0  0  0  0  0  0  0
  1  2  1  0  0  0  0
  2  3  1  0  0  0  0
  3  4  1  0  0  0  0
  4  5  1  0  0  0  0
  5  6  1  0  0  0  0
  6  7  1  0  0  0  0
  7  8  1  0  0  0  0
  8  9  1  0  0  0  0
  9 10  1  0  0  0  0
 10 11  1  0  0  0  0
 11 12  1  0  0  0  0
 12 13  1  0  0  0  0
 13 14  1  0  0  0  0
M  END
>  <CHROM.1>
69.39074936,64.41564136,84.38482344,-178.67956689,171.47234561,-179.38288178
171.64485770,154.36203249,155.88970536,-72.78594045,-72.62755861,1.02606647
-2.12985975,10.11345872,0.39016299,0.67096210,-2.14960323

>  <Name>
ligand

>  <RI>
0

>  <Rbt.Current_Directory>
/home/itssahil/PROJECTS/Mol_Feturizer/New_Systems/rnas/1FUF

>  <Rbt.Executable>
rbdock ($Id: //depot/dev/client3/rdock/2013.1/src/exe/rbdock.cxx#4 $)

>  <Rbt.Library>
libRbt.so (2013.1, Build901 2013/11/27)

>  <Rbt.Parameter_File>
/export/apps/rDock/src/rDock_2013.1_src/data/scripts/dock_solv.prm

>  <Rbt.Receptor>
prm/pocket_docking_4.prm

>  <SCORE>
-4.09947

>  <SCORE.INTER>
-2.96275

>  <SCORE.INTER.CONST>
1

>  <SCORE.INTER.POLAR>
0

>  <SCORE.INTER.ROT>
11

>  <SCORE.INTER.SOLV>
15.5817

>  <SCORE.INTER.VDW>
-18.1024

>  <SCORE.INTER.norm>
-0.211625

>  <SCORE.INTRA>
-1.13672

>  <SCORE.INTRA.DIHEDRAL>
-7.15699

>  <SCORE.INTRA.DIHEDRAL.0>
10.5765

>  <SCORE.INTRA.POLAR>
0

>  <SCORE.INTRA.POLAR.0>
0

>  <SCORE.INTRA.REPUL>
0

>  <SCORE.INTRA.REPUL.0>
0

>  <SCORE.INTRA.SOLV>
3.29668

>  <SCORE.INTRA.SOLV.lig_0>
-50.1861

>  <SCORE.INTRA.VDW>
0.79344

>  <SCORE.INTRA.VDW.0>
-1.36671

>  <SCORE.INTRA.norm>
-0.081194

>  <SCORE.RESTR>
0

>  <SCORE.RESTR.CAVITY>
0

>  <SCORE.RESTR.norm>
0

>  <SCORE.SYSTEM>
0

>  <SCORE.SYSTEM.CONST>
0

>  <SCORE.SYSTEM.DIHEDRAL>
0

>  <SCORE.SYSTEM.SOLV>
0

>  <SCORE.SYSTEM.norm>
0

>  <SCORE.heavy>
14

>  <SCORE.norm>
-0.292819

>  <RMSD>
2.102

$$$$
ligand
 OpenBabel11021811393D
libRbt.so/2013.1/901 2013/11/27
 14 13  0  0  0  0  0  0  0  0999 V2000
    5.5577   -6.9098    8.4247 N   0  0  0  0  0  0  0  0  0  0  0  0
    4.0371   -7.0637    8.3780 C   0  0  0  0  0  0  0  0  0  0  0  0
    3.5260   -6.3137    9.5540 C   0  0  0  0  0  0  0  0  0  0  0  0
    3.7510   -4.8117    9.4915 C   0  0  0  0  0  0  0  0  0  0  0  0
    3.1001   -4.1630   10.6610 N   0  0  0  0  0  0  0  0  0  0  0  0
    2.9492   -2.6552   10.3897 C   0  0  0  0  0  0  0  0  0  0  0  0
    1.4280   -2.3883   10.8216 C   0  0  0  0  0  0  0  0  0  0  0  0
    1.1232   -1.1359   10.5825 C   0  0  0  0  0  0  0  0  0  0  0  0
   -0.4546   -1.2373   11.0093 C   0  0  0  0  0  0  0  0  0  0  0  0
   -0.8747    0.2262   10.6446 N   0  0  0  0  0  0  0  0  0  0  0  0
   -2.3668    0.3466   10.1366 C   0  0  0  0  0  0  0  0  0  0  0  0
   -2.4176    1.6877    9.2056 C   0  0  0  0  0  0  0  0  0  0  0  0
   -3.7884    1.6423    8.5955 C   0  0  0  0  0  0  0  0  0  0  0  0
   -4.7373    1.9756    9.7226 N   0  0  0  0  0  0  0  0  0  0  0  0
  1  2  1  0  0  0  0
  2  3  1  0  0  0  0
  3  4  1  0  0  0  0
  4  5  1  0  0  0  0
  5  6  1  0  0  0  0
  6  7  1  0  0  0  0
  7  8  1  0  0  0  0
  8  9  1  0  0  0  0
  9 10  1  0  0  0  0
 10 11  1  0  0  0  0
 11 12  1  0  0  0  0
 12 13  1  0  0  0  0
 13 14  1  0  0  0  0
M  END
>  <CHROM.1>
66.00653518,175.30146271,-162.87236758,133.09032573,-176.91413396,175.98207275
-176.46823641,147.43091222,-154.98347706,172.08841589,72.19876887,0.77378794
-2.20000536,9.82979067,0.53152644,0.60930829,-2.30919593

>  <Name>
ligand

>  <RI>
0

>  <Rbt.Current_Directory>
/home/itssahil/PROJECTS/Mol_Feturizer/New_Systems/rnas/1FUF

>  <Rbt.Executable>
rbdock ($Id: //depot/dev/client3/rdock/2013.1/src/exe/rbdock.cxx#4 $)

>  <Rbt.Library>
libRbt.so (2013.1, Build901 2013/11/27)

>  <Rbt.Parameter_File>
/export/apps/rDock/src/rDock_2013.1_src/data/scripts/dock_solv.prm

>  <Rbt.Receptor>
prm/pocket_docking_5.prm

>  <SCORE>
-5.04641

>  <SCORE.INTER>
-2.75467

>  <SCORE.INTER.CONST>
1

>  <SCORE.INTER.POLAR>
0

>  <SCORE.INTER.ROT>
11

>  <SCORE.INTER.SOLV>
15.2745

>  <SCORE.INTER.VDW>
-17.8613

>  <SCORE.INTER.norm>
-0.196762

>  <SCORE.INTRA>
-2.29173

>  <SCORE.INTRA.DIHEDRAL>
-7.01425

>  <SCORE.INTRA.DIHEDRAL.0>
10.5765

>  <SCORE.INTRA.POLAR>
0

>  <SCORE.INTRA.POLAR.0>
0

>  <SCORE.INTRA.REPUL>
0

>  <SCORE.INTRA.REPUL.0>
0

>  <SCORE.INTRA.SOLV>
1.53088

>  <SCORE.INTRA.SOLV.lig_0>
-50.1861

>  <SCORE.INTRA.VDW>
0.449952

>  <SCORE.INTRA.VDW.0>
-1.36671

>  <SCORE.INTRA.norm>
-0.163695

>  <SCORE.RESTR>
0

>  <SCORE.RESTR.CAVITY>
0

>  <SCORE.RESTR.norm>
0

>  <SCORE.SYSTEM>
0

>  <SCORE.SYSTEM.CONST>
0

>  <SCORE.SYSTEM.DIHEDRAL>
0

>  <SCORE.SYSTEM.SOLV>
0

>  <SCORE.SYSTEM.norm>
0

>  <SCORE.heavy>
14

>  <SCORE.norm>
-0.360458

>  <RMSD>
2.105

$$$$
ligand
 OpenBabel11021811393D
libRbt.so/2013.1/901 2013/11/27
 14 13  0  0  0  0  0  0  0  0999 V2000
   -4.5224    2.1401    8.3467 N   0  0  0  0  0  0  0  0  0  0  0  0
   -3.0573    1.8390    8.6641 C   0  0  0  0  0  0  0  0  0  0  0  0
   -2.9929    1.6931   10.1410 C   0  0  0  0  0  0  0  0  0  0  0  0
   -1.6088    1.3780   10.6846 C   0  0  0  0  0  0  0  0  0  0  0  0
   -1.1638    0.0543   10.1727 N   0  0  0  0  0  0  0  0  0  0  0  0
    0.2335   -0.2663   10.7338 C   0  0  0  0  0  0  0  0  0  0  0  0
    0.3300   -1.8507   10.5057 C   0  0  0  0  0  0  0  0  0  0  0  0
    1.4750   -2.2866   10.9721 C   0  0  0  0  0  0  0  0  0  0  0  0
    1.2741   -3.8536   10.5411 C   0  0  0  0  0  0  0  0  0  0  0  0
    2.6349   -4.4062   11.0836 N   0  0  0  0  0  0  0  0  0  0  0  0
    2.6999   -5.9849   11.1342 C   0  0  0  0  0  0  0  0  0  0  0  0
    4.1061   -6.4001   10.4144 C   0  0  0  0  0  0  0  0  0  0  0  0
    3.8946   -6.0165    8.9787 C   0  0  0  0  0  0  0  0  0  0  0  0
    5.1546   -6.4426    8.2627 N   0  0  0  0  0  0  0  0  0  0  0  0
  1  2  1  0  0  0  0
  2  3  1  0  0  0  0
  3  4  1  0  0  0  0
  4  5  1  0  0  0  0
  5  6  1  0  0  0  0
  6  7  1  0  0  0  0
  7  8  1  0  0  0  0
  8  9  1  0  0  0  0
  9 10  1  0  0  0  0
 10 11  1  0  0  0  0
 11 12  1  0  0  0  0
 12 13  1  0  0  0  0
 13 14  1  0  0  0  0
M  END
>  <CHROM.1>
179.65175535,-63.66235121,-179.57282611,161.91432397,-178.48442882,-177.94920592
179.85386184,167.49389787,130.75707502,-67.58231156,-177.53224957,0.60413760
-2.17163859,10.04562389,3.03883496,-0.84098569,1.38515595

>  <Name>
ligand

>  <RI>
0

>  <Rbt.Current_Directory>
/home/itssahil/PROJECTS/Mol_Feturizer/New_Systems/rnas/1FUF

>  <Rbt.Executable>
rbdock ($Id: //depot/dev/client3/rdock/2013.1/src/exe/rbdock.cxx#4 $)

>  <Rbt.Library>
libRbt.so (2013.1, Build901 2013/11/27)

>  <Rbt.Parameter_File>
/export/apps/rDock/src/rDock_2013.1_src/data/scripts/dock_solv.prm

>  <Rbt.Receptor>
prm/pocket_docking_4.prm

>  <SCORE>
-6.51892

>  <SCORE.INTER>
-2.65814

>  <SCORE.INTER.CONST>
1

>  <SCORE.INTER.POLAR>
0

>  <SCORE.INTER.ROT>
11

>  <SCORE.INTER.SOLV>
15.1935

>  <SCORE.INTER.VDW>
-17.7699

>  <SCORE.INTER.norm>
-0.189867

>  <SCORE.INTRA>
-3.86078

>  <SCORE.INTRA.DIHEDRAL>
-8.78027

>  <SCORE.INTRA.DIHEDRAL.0>
10.5765

>  <SCORE.INTRA.POLAR>
0

>  <SCORE.INTRA.POLAR.0>
0

>  <SCORE.INTRA.REPUL>
0

>  <SCORE.INTRA.REPUL.0>
0

>  <SCORE.INTRA.SOLV>
0.718131

>  <SCORE.INTRA.SOLV.lig_0>
-50.1861

>  <SCORE.INTRA.VDW>
0.170293

>  <SCORE.INTRA.VDW.0>
-1.36671

>  <SCORE.INTRA.norm>
-0.27577

>  <SCORE.RESTR>
0

>  <SCORE.RESTR.CAVITY>
0

>  <SCORE.RESTR.norm>
0

>  <SCORE.SYSTEM>
0

>  <SCORE.SYSTEM.CONST>
0

>  <SCORE.SYSTEM.DIHEDRAL>
0

>  <SCORE.SYSTEM.SOLV>
0

>  <SCORE.SYSTEM.norm>
0

>  <SCORE.heavy>
14

>  <SCORE.norm>
-0.465637

>  <RMSD>
2.106

$$$$
ligand
 OpenBabel11021811393D
libRbt.so/2013.1/901 2013/11/27
 14 13  0  0  0  0  0  0  0  0999 V2000
    4.9905   -5.3297    8.1481 N   0  0  0  0  0  0  0  0  0  0  0  0
    4.7107   -4.7715    9.5439 C   0  0  0  0  0  0  0  0  0  0  0  0
    3.6194   -3.7799    9.3634 C   0  0  0  0  0  0  0  0  0  0  0  0
    3.1788   -3.0862   10.6422 C   0  0  0  0  0  0  0  0  0  0  0  0
    2.0470   -2.1682   10.3444 N   0  0  0  0  0  0  0  0  0  0  0  0
    1.4231   -1.6822   11.6651 C   0  0  0  0  0  0  0  0  0  0  0  0
   -0.0612   -1.2837   11.2071 C   0  0  0  0  0  0  0  0  0  0  0  0
   -0.0240   -0.1433   10.5617 C   0  0  0  0  0  0  0  0  0  0  0  0
   -1.6438    0.0476   10.4150 C   0  0  0  0  0  0  0  0  0  0  0  0
   -1.6362    1.4360    9.6913 N   0  0  0  0  0  0  0  0  0  0  0  0
   -2.7766    1.5889    8.6073 C   0  0  0  0  0  0  0  0  0  0  0  0
   -2.2495    2.7241    7.5578 C   0  0  0  0  0  0  0  0  0  0  0  0
   -3.3806    2.8528    6.5794 C   0  0  0  0  0  0  0  0  0  0  0  0
   -4.5265    3.4392    7.3700 N   0  0  0  0  0  0  0  0  0  0  0  0
  1  2  1  0  0  0  0
  2  3  1  0  0  0  0
  3  4  1  0  0  0  0
  4  5  1  0  0  0  0
  5  6  1  0  0  0  0
  6  7  1  0  0  0  0
  7  8  1  0  0  0  0
  8  9  1  0  0  0  0
  9 10  1  0  0  0  0
 10 11  1  0  0  0  0
 11 12  1  0  0  0  0
 12 13  1  0  0  0  0
 13 14  1  0  0  0  0
M  END
>  <CHROM.1>
-179.75116467,-177.46736713,168.88366196,-156.42028067,-75.68959813,-173.50158876
177.97811040,143.56713485,-155.96233176,-178.53918767,66.53466315,0.26225133
-0.72544766,9.40712416,-0.25067204,0.73294467,-1.46330193

>  <Name>
ligand

>  <RI>
0

>  <Rbt.Current_Directory>
/home/itssahil/PROJECTS/Mol_Feturizer/New_Systems/rnas/1FUF

>  <Rbt.Executable>
rbdock ($Id: //depot/dev/client3/rdock/2013.1/src/exe/rbdock.cxx#4 $)

>  <Rbt.Library>
libRbt.so (2013.1, Build901 2013/11/27)

>  <Rbt.Parameter_File>
/export/apps/rDock/src/rDock_2013.1_src/data/scripts/dock_solv.prm

>  <Rbt.Receptor>
prm/blind_docking_100.prm

>  <SCORE>
-3.95559

>  <SCORE.INTER>
-1.5226

>  <SCORE.INTER.CONST>
1

>  <SCORE.INTER.POLAR>
0

>  <SCORE.INTER.ROT>
11

>  <SCORE.INTER.SOLV>
18.9311

>  <SCORE.INTER.VDW>
-18.2588

>  <SCORE.INTER.norm>
-0.108757

>  <SCORE.INTRA>
-2.43299

>  <SCORE.INTRA.DIHEDRAL>
-7.59807

>  <SCORE.INTRA.DIHEDRAL.0>
10.5765

>  <SCORE.INTRA.POLAR>
0

>  <SCORE.INTRA.POLAR.0>
0

>  <SCORE.INTRA.REPUL>
0

>  <SCORE.INTRA.REPUL.0>
0

>  <SCORE.INTRA.SOLV>
1.27656

>  <SCORE.INTRA.SOLV.lig_0>
-50.1861

>  <SCORE.INTRA.VDW>
0.727764

>  <SCORE.INTRA.VDW.0>
-1.36671

>  <SCORE.INTRA.norm>
-0.173785

>  <SCORE.RESTR>
0

>  <SCORE.RESTR.CAVITY>
0

>  <SCORE.RESTR.norm>
0

>  <SCORE.SYSTEM>
0

>  <SCORE.SYSTEM.CONST>
0

>  <SCORE.SYSTEM.DIHEDRAL>
0

>  <SCORE.SYSTEM.SOLV>
0

>  <SCORE.SYSTEM.norm>
0

>  <SCORE.heavy>
14

>  <SCORE.norm>
-0.282542

>  <RMSD>
2.107

$$$$
ligand
 OpenBabel11021811393D
libRbt.so/2013.1/901 2013/11/27
 14 13  0  0  0  0  0  0  0  0999 V2000
   -4.6439    0.8279    9.4847 N   0  0  0  0  0  0  0  0  0  0  0  0
   -3.6664    1.9768    9.7347 C   0  0  0  0  0  0  0  0  0  0  0  0
   -2.6073    1.4133   10.6108 C   0  0  0  0  0  0  0  0  0  0  0  0
   -1.6960    0.4045    9.9309 C   0  0  0  0  0  0  0  0  0  0  0  0
   -0.7412   -0.1520   10.9263 N   0  0  0  0  0  0  0  0  0  0  0  0
    0.4222   -0.8392   10.1886 C   0  0  0  0  0  0  0  0  0  0  0  0
    1.2079   -1.5504   11.3922 C   0  0  0  0  0  0  0  0  0  0  0  0
    2.2773   -2.1440   10.9206 C   0  0  0  0  0  0  0  0  0  0  0  0
    1.6123   -3.6307   10.7499 C   0  0  0  0  0  0  0  0  0  0  0  0
    2.9030   -4.3987   10.3077 N   0  0  0  0  0  0  0  0  0  0  0  0
    2.7267   -5.9695   10.2860 C   0  0  0  0  0  0  0  0  0  0  0  0
    3.6359   -6.5066    9.0399 C   0  0  0  0  0  0  0  0  0  0  0  0
    5.0436   -6.2522    9.4946 C   0  0  0  0  0  0  0  0  0  0  0  0
    5.9161   -6.6324    8.3215 N   0  0  0  0  0  0  0  0  0  0  0  0
  1  2  1  0  0  0  0
  2  3  1  0  0  0  0
  3  4  1  0  0  0  0
  4  5  1  0  0  0  0
  5  6  1  0  0  0  0
  6  7  1  0  0  0  0
  7  8  1  0  0  0  0
  8  9  1  0  0  0  0
  9 10  1  0  0  0  0
 10 11  1  0  0  0  0
 11 12  1  0  0  0  0
 12 13  1  0  0  0  0
 13 14  1  0  0  0  0
M  END
>  <CHROM.1>
70.01665539,-176.26422674,-163.57076888,-171.94042861,-177.41593244,-95.29934867
-175.17863713,169.62521039,145.43026844,68.53786468,-175.53229913,0.88501397
-2.38943043,10.09930633,2.48675747,-0.45558955,0.61376543

>  <Name>
ligand

>  <RI>
0

>  <Rbt.Current_Directory>
/home/itssahil/PROJECTS/Mol_Feturizer/New_Systems/rnas/1FUF

>  <Rbt.Executable>
rbdock ($Id: //depot/dev/client3/rdock/2013.1/src/exe/rbdock.cxx#4 $)

>  <Rbt.Library>
libRbt.so (2013.1, Build901 2013/11/27)

>  <Rbt.Parameter_File>
/export/apps/rDock/src/rDock_2013.1_src/data/scripts/dock_solv.prm

>  <Rbt.Receptor>
prm/blind_docking_80.prm

>  <SCORE>
-2.67631

>  <SCORE.INTER>
-1.92631

>  <SCORE.INTER.CONST>
1

>  <SCORE.INTER.POLAR>
0

>  <SCORE.INTER.ROT>
11

>  <SCORE.INTER.SOLV>
15.4837

>  <SCORE.INTER.VDW>
-17.3788

>  <SCORE.INTER.norm>
-0.137594

>  <SCORE.INTRA>
-0.749998

>  <SCORE.INTRA.DIHEDRAL>
-4.7057

>  <SCORE.INTRA.DIHEDRAL.0>
10.5765

>  <SCORE.INTRA.POLAR>
0

>  <SCORE.INTRA.POLAR.0>
0

>  <SCORE.INTRA.REPUL>
0

>  <SCORE.INTRA.REPUL.0>
0

>  <SCORE.INTRA.SOLV>
1.50669

>  <SCORE.INTRA.SOLV.lig_0>
-50.1861

>  <SCORE.INTRA.VDW>
0.849503

>  <SCORE.INTRA.VDW.0>
-1.36671

>  <SCORE.INTRA.norm>
-0.0535713

>  <SCORE.RESTR>
0

>  <SCORE.RESTR.CAVITY>
0

>  <SCORE.RESTR.norm>
0

>  <SCORE.SYSTEM>
0

>  <SCORE.SYSTEM.CONST>
0

>  <SCORE.SYSTEM.DIHEDRAL>
0

>  <SCORE.SYSTEM.SOLV>
0

>  <SCORE.SYSTEM.norm>
0

>  <SCORE.heavy>
14

>  <SCORE.norm>
-0.191165

>  <RMSD>
2.107

$$$$
ligand
 OpenBabel11021811393D
libRbt.so/2013.1/901 2013/11/27
 14 13  0  0  0  0  0  0  0  0999 V2000
    4.6817   -5.9326    9.4328 N   0  0  0  0  0  0  0  0  0  0  0  0
    4.1224   -6.1883   10.8327 C   0  0  0  0  0  0  0  0  0  0  0  0
    2.8163   -5.4819   10.8736 C   0  0  0  0  0  0  0  0  0  0  0  0
    2.9139   -3.9681   10.7762 C   0  0  0  0  0  0  0  0  0  0  0  0
    1.5519   -3.3764   10.8590 N   0  0  0  0  0  0  0  0  0  0  0  0
    1.6376   -1.8607   10.6036 C   0  0  0  0  0  0  0  0  0  0  0  0
    0.0945   -1.4261   10.6488 C   0  0  0  0  0  0  0  0  0  0  0  0
   -0.0061   -0.1537   10.3499 C   0  0  0  0  0  0  0  0  0  0  0  0
   -1.6363   -0.0562   10.4707 C   0  0  0  0  0  0  0  0  0  0  0  0
   -1.7980    1.4429   10.0487 N   0  0  0  0  0  0  0  0  0  0  0  0
   -2.1611    1.6331    8.5219 C   0  0  0  0  0  0  0  0  0  0  0  0
   -3.6526    2.2983    8.4943 C   0  0  0  0  0  0  0  0  0  0  0  0
   -3.8874    2.5786    7.0385 C   0  0  0  0  0  0  0  0  0  0  0  0
   -5.2559    3.2147    6.9709 N   0  0  0  0  0  0  0  0  0  0  0  0
  1  2  1  0  0  0  0
  2  3  1  0  0  0  0
  3  4  1  0  0  0  0
  4  5  1  0  0  0  0
  5  6  1  0  0  0  0
  6  7  1  0  0  0  0
  7  8  1  0  0  0  0
  8  9  1  0  0  0  0
  9 10  1  0  0  0  0
 10 11  1  0  0  0  0
 11 12  1  0  0  0  0
 12 13  1  0  0  0  0
 13 14  1  0  0  0  0
M  END
>  <CHROM.1>
-65.76932260,-178.71939590,-173.75730029,176.89896108,-175.54826442,179.50427929
-177.36016632,96.87607807,115.46577341,174.66161375,-179.26811371,-0.04128561
-1.23405047,9.70883137,0.00088051,0.83777920,-1.88953880

>  <Name>
ligand

>  <RI>
0

>  <Rbt.Current_Directory>
/home/itssahil/PROJECTS/Mol_Feturizer/New_Systems/rnas/1FUF

>  <Rbt.Executable>
rbdock ($Id: //depot/dev/client3/rdock/2013.1/src/exe/rbdock.cxx#4 $)

>  <Rbt.Library>
libRbt.so (2013.1, Build901 2013/11/27)

>  <Rbt.Parameter_File>
/export/apps/rDock/src/rDock_2013.1_src/data/scripts/dock_solv.prm

>  <Rbt.Receptor>
prm/blind_docking_100.prm

>  <SCORE>
-5.95308

>  <SCORE.INTER>
-2.48521

>  <SCORE.INTER.CONST>
1

>  <SCORE.INTER.POLAR>
0

>  <SCORE.INTER.ROT>
11

>  <SCORE.INTER.SOLV>
16.487

>  <SCORE.INTER.VDW>
-18.0858

>  <SCORE.INTER.norm>
-0.177515

>  <SCORE.INTRA>
-3.46787

>  <SCORE.INTRA.DIHEDRAL>
-8.19994

>  <SCORE.INTRA.DIHEDRAL.0>
10.5765

>  <SCORE.INTRA.POLAR>
0

>  <SCORE.INTRA.POLAR.0>
0

>  <SCORE.INTRA.REPUL>
0

>  <SCORE.INTRA.REPUL.0>
0

>  <SCORE.INTRA.SOLV>
0.713976

>  <SCORE.INTRA.SOLV.lig_0>
-50.1861

>  <SCORE.INTRA.VDW>
0.275114

>  <SCORE.INTRA.VDW.0>
-1.36671

>  <SCORE.INTRA.norm>
-0.247705

>  <SCORE.RESTR>
0

>  <SCORE.RESTR.CAVITY>
0

>  <SCORE.RESTR.norm>
0

>  <SCORE.SYSTEM>
0

>  <SCORE.SYSTEM.CONST>
0

>  <SCORE.SYSTEM.DIHEDRAL>
0

>  <SCORE.SYSTEM.SOLV>
0

>  <SCORE.SYSTEM.norm>
0

>  <SCORE.heavy>
14

>  <SCORE.norm>
-0.42522

>  <RMSD>
2.112

$$$$
ligand
 OpenBabel11021811393D
libRbt.so/2013.1/901 2013/11/27
 14 13  0  0  0  0  0  0  0  0999 V2000
   -3.7611    2.0873    8.4864 N   0  0  0  0  0  0  0  0  0  0  0  0
   -4.1224    0.8652    9.3313 C   0  0  0  0  0  0  0  0  0  0  0  0
   -3.0269    0.7321   10.3257 C   0  0  0  0  0  0  0  0  0  0  0  0
   -1.6643    0.4238    9.7265 C   0  0  0  0  0  0  0  0  0  0  0  0
   -0.6911    0.1544   10.8185 N   0  0  0  0  0  0  0  0  0  0  0  0
    0.6637   -0.2462   10.2072 C   0  0  0  0  0  0  0  0  0  0  0  0
    0.9078   -1.6932   10.8542 C   0  0  0  0  0  0  0  0  0  0  0  0
    2.0276   -2.1921   10.3898 C   0  0  0  0  0  0  0  0  0  0  0  0
    1.9674   -3.6033   11.2183 C   0  0  0  0  0  0  0  0  0  0  0  0
    3.1866   -4.3101   10.5361 N   0  0  0  0  0  0  0  0  0  0  0  0
    3.2905   -5.8517   10.8703 C   0  0  0  0  0  0  0  0  0  0  0  0
    4.6184   -6.3925   10.0879 C   0  0  0  0  0  0  0  0  0  0  0  0
    4.2244   -6.3327    8.6407 C   0  0  0  0  0  0  0  0  0  0  0  0
    5.4429   -6.7947    7.8767 N   0  0  0  0  0  0  0  0  0  0  0  0
  1  2  1  0  0  0  0
  2  3  1  0  0  0  0
  3  4  1  0  0  0  0
  4  5  1  0  0  0  0
  5  6  1  0  0  0  0
  6  7  1  0  0  0  0
  7  8  1  0  0  0  0
  8  9  1  0  0  0  0
  9 10  1  0  0  0  0
 10 11  1  0  0  0  0
 11 12  1  0  0  0  0
 12 13  1  0  0  0  0
 13 14  1  0  0  0  0
M  END
>  <CHROM.1>
-64.41748016,-173.28468352,176.37147990,-122.08218893,178.15808812,-179.98703231
172.49578801,-168.33759525,-179.37988803,-69.67081502,178.63938965,0.93305655
-2.36818063,9.95519236,2.87011263,-0.74154571,1.19505873

>  <Name>
ligand

>  <RI>
0

>  <Rbt.Current_Directory>
/home/itssahil/PROJECTS/Mol_Feturizer/New_Systems/rnas/1FUF

>  <Rbt.Executable>
rbdock ($Id: //depot/dev/client3/rdock/2013.1/src/exe/rbdock.cxx#4 $)

>  <Rbt.Library>
libRbt.so (2013.1, Build901 2013/11/27)

>  <Rbt.Parameter_File>
/export/apps/rDock/src/rDock_2013.1_src/data/scripts/dock_solv.prm

>  <Rbt.Receptor>
prm/pocket_docking_8.prm

>  <SCORE>
-5.9898

>  <SCORE.INTER>
-2.68817

>  <SCORE.INTER.CONST>
1

>  <SCORE.INTER.POLAR>
0

>  <SCORE.INTER.ROT>
11

>  <SCORE.INTER.SOLV>
15.0392

>  <SCORE.INTER.VDW>
-17.7385

>  <SCORE.INTER.norm>
-0.192012

>  <SCORE.INTRA>
-3.30162

>  <SCORE.INTRA.DIHEDRAL>
-8.44163

>  <SCORE.INTRA.DIHEDRAL.0>
10.5765

>  <SCORE.INTRA.POLAR>
0

>  <SCORE.INTRA.POLAR.0>
0

>  <SCORE.INTRA.REPUL>
0

>  <SCORE.INTRA.REPUL.0>
0

>  <SCORE.INTRA.SOLV>
1.19059

>  <SCORE.INTRA.SOLV.lig_0>
-50.1861

>  <SCORE.INTRA.VDW>
0.323898

>  <SCORE.INTRA.VDW.0>
-1.36671

>  <SCORE.INTRA.norm>
-0.23583

>  <SCORE.RESTR>
0

>  <SCORE.RESTR.CAVITY>
0

>  <SCORE.RESTR.norm>
0

>  <SCORE.SYSTEM>
0

>  <SCORE.SYSTEM.CONST>
0

>  <SCORE.SYSTEM.DIHEDRAL>
0

>  <SCORE.SYSTEM.SOLV>
0

>  <SCORE.SYSTEM.norm>
0

>  <SCORE.heavy>
14

>  <SCORE.norm>
-0.427843

>  <RMSD>
2.113

$$$$
ligand
 OpenBabel11021811393D
libRbt.so/2013.1/901 2013/11/27
 14 13  0  0  0  0  0  0  0  0999 V2000
    4.6829   -4.8745    9.4936 N   0  0  0  0  0  0  0  0  0  0  0  0
    4.3668   -3.4323    9.8914 C   0  0  0  0  0  0  0  0  0  0  0  0
    2.9367   -3.4357   10.2933 C   0  0  0  0  0  0  0  0  0  0  0  0
    2.3856   -2.0723   10.6777 C   0  0  0  0  0  0  0  0  0  0  0  0
    0.9685   -2.2126   11.1070 N   0  0  0  0  0  0  0  0  0  0  0  0
    0.4208   -0.8337   11.5178 C   0  0  0  0  0  0  0  0  0  0  0  0
   -0.4660   -0.4329   10.2431 C   0  0  0  0  0  0  0  0  0  0  0  0
   -1.1727    0.6346   10.5254 C   0  0  0  0  0  0  0  0  0  0  0  0
   -1.9227    0.7577    9.0749 C   0  0  0  0  0  0  0  0  0  0  0  0
   -2.7756    2.0354    9.3770 N   0  0  0  0  0  0  0  0  0  0  0  0
   -3.7412    2.4440    8.1939 C   0  0  0  0  0  0  0  0  0  0  0  0
   -5.1548    2.8679    8.8938 C   0  0  0  0  0  0  0  0  0  0  0  0
   -5.9825    3.3658    7.7447 C   0  0  0  0  0  0  0  0  0  0  0  0
   -7.3167    3.7388    8.3469 N   0  0  0  0  0  0  0  0  0  0  0  0
  1  2  1  0  0  0  0
  2  3  1  0  0  0  0
  3  4  1  0  0  0  0
  4  5  1  0  0  0  0
  5  6  1  0  0  0  0
  6  7  1  0  0  0  0
  7  8  1  0  0  0  0
  8  9  1  0  0  0  0
  9 10  1  0  0  0  0
 10 11  1  0  0  0  0
 11 12  1  0  0  0  0
 12 13  1  0  0  0  0
 13 14  1  0  0  0  0
M  END
>  <CHROM.1>
-177.54765662,-177.89854396,179.06753283,102.82063511,170.21526966,-179.97547502
-179.74804938,-176.60306787,138.10323955,174.86915324,178.67410128,-0.91212242
-0.10346758,9.67007990,-0.08133400,0.64601909,-1.71198551

>  <Name>
ligand

>  <RI>
0

>  <Rbt.Current_Directory>
/home/itssahil/PROJECTS/Mol_Feturizer/New_Systems/rnas/1FUF

>  <Rbt.Executable>
rbdock ($Id: //depot/dev/client3/rdock/2013.1/src/exe/rbdock.cxx#4 $)

>  <Rbt.Library>
libRbt.so (2013.1, Build901 2013/11/27)

>  <Rbt.Parameter_File>
/export/apps/rDock/src/rDock_2013.1_src/data/scripts/dock_solv.prm

>  <Rbt.Receptor>
prm/pocket_docking_7.prm

>  <SCORE>
-5.31388

>  <SCORE.INTER>
-1.2654

>  <SCORE.INTER.CONST>
1

>  <SCORE.INTER.POLAR>
0

>  <SCORE.INTER.ROT>
11

>  <SCORE.INTER.SOLV>
16.2424

>  <SCORE.INTER.VDW>
-17.1911

>  <SCORE.INTER.norm>
-0.0903855

>  <SCORE.INTRA>
-4.04848

>  <SCORE.INTRA.DIHEDRAL>
-8.14338

>  <SCORE.INTRA.DIHEDRAL.0>
10.5765

>  <SCORE.INTRA.POLAR>
0

>  <SCORE.INTRA.POLAR.0>
0

>  <SCORE.INTRA.REPUL>
0

>  <SCORE.INTRA.REPUL.0>
0

>  <SCORE.INTRA.SOLV>
-0.152842

>  <SCORE.INTRA.SOLV.lig_0>
-50.1861

>  <SCORE.INTRA.VDW>
0.0996264

>  <SCORE.INTRA.VDW.0>
-1.36671

>  <SCORE.INTRA.norm>
-0.289177

>  <SCORE.RESTR>
0

>  <SCORE.RESTR.CAVITY>
0

>  <SCORE.RESTR.norm>
0

>  <SCORE.SYSTEM>
0

>  <SCORE.SYSTEM.CONST>
0

>  <SCORE.SYSTEM.DIHEDRAL>
0

>  <SCORE.SYSTEM.SOLV>
0

>  <SCORE.SYSTEM.norm>
0

>  <SCORE.heavy>
14

>  <SCORE.norm>
-0.379563

>  <RMSD>
2.118

$$$$
ligand
 OpenBabel11021811393D
libRbt.so/2013.1/901 2013/11/27
 14 13  0  0  0  0  0  0  0  0999 V2000
   -5.0185    1.1683    9.2221 N   0  0  0  0  0  0  0  0  0  0  0  0
   -3.6582    1.7123    9.6602 C   0  0  0  0  0  0  0  0  0  0  0  0
   -2.8123    0.5159    9.9046 C   0  0  0  0  0  0  0  0  0  0  0  0
   -1.4060    0.8256   10.3914 C   0  0  0  0  0  0  0  0  0  0  0  0
   -0.6550   -0.4442   10.5801 N   0  0  0  0  0  0  0  0  0  0  0  0
    0.6273   -0.1639   11.3846 C   0  0  0  0  0  0  0  0  0  0  0  0
    1.2474   -1.6338   11.5483 C   0  0  0  0  0  0  0  0  0  0  0  0
    1.7990   -1.9997   10.4168 C   0  0  0  0  0  0  0  0  0  0  0  0
    2.4068   -3.4235   10.9508 C   0  0  0  0  0  0  0  0  0  0  0  0
    3.0731   -3.8925    9.6139 N   0  0  0  0  0  0  0  0  0  0  0  0
    3.5977   -5.3831    9.6592 C   0  0  0  0  0  0  0  0  0  0  0  0
    4.0069   -5.7622    8.1240 C   0  0  0  0  0  0  0  0  0  0  0  0
    4.3447   -7.2228    8.1990 C   0  0  0  0  0  0  0  0  0  0  0  0
    5.6727   -7.2883    8.9160 N   0  0  0  0  0  0  0  0  0  0  0  0
  1  2  1  0  0  0  0
  2  3  1  0  0  0  0
  3  4  1  0  0  0  0
  4  5  1  0  0  0  0
  5  6  1  0  0  0  0
  6  7  1  0  0  0  0
  7  8  1  0  0  0  0
  8  9  1  0  0  0  0
  9 10  1  0  0  0  0
 10 11  1  0  0  0  0
 11 12  1  0  0  0  0
 12 13  1  0  0  0  0
 13 14  1  0  0  0  0
M  END
>  <CHROM.1>
-178.47949479,-179.19075238,-166.39415597,177.17411433,76.19212565,175.88668506
179.82913485,-170.90757510,170.30404212,-173.75877321,-72.75770293,0.94475643
-2.35646244,9.89806031,2.53727212,-0.52403003,0.77261520

>  <Name>
ligand

>  <RI>
0

>  <Rbt.Current_Directory>
/home/itssahil/PROJECTS/Mol_Feturizer/New_Systems/rnas/1FUF

>  <Rbt.Executable>
rbdock ($Id: //depot/dev/client3/rdock/2013.1/src/exe/rbdock.cxx#4 $)

>  <Rbt.Library>
libRbt.so (2013.1, Build901 2013/11/27)

>  <Rbt.Parameter_File>
/export/apps/rDock/src/rDock_2013.1_src/data/scripts/dock_solv.prm

>  <Rbt.Receptor>
prm/pocket_docking_6.prm

>  <SCORE>
-5.14069

>  <SCORE.INTER>
-1.94617

>  <SCORE.INTER.CONST>
1

>  <SCORE.INTER.POLAR>
0

>  <SCORE.INTER.ROT>
11

>  <SCORE.INTER.SOLV>
16.6143

>  <SCORE.INTER.VDW>
-17.7689

>  <SCORE.INTER.norm>
-0.139012

>  <SCORE.INTRA>
-3.19452

>  <SCORE.INTRA.DIHEDRAL>
-8.52636

>  <SCORE.INTRA.DIHEDRAL.0>
10.5765

>  <SCORE.INTRA.POLAR>
0

>  <SCORE.INTRA.POLAR.0>
0

>  <SCORE.INTRA.REPUL>
0

>  <SCORE.INTRA.REPUL.0>
0

>  <SCORE.INTRA.SOLV>
1.08443

>  <SCORE.INTRA.SOLV.lig_0>
-50.1861

>  <SCORE.INTRA.VDW>
0.526448

>  <SCORE.INTRA.VDW.0>
-1.36671

>  <SCORE.INTRA.norm>
-0.22818

>  <SCORE.RESTR>
0

>  <SCORE.RESTR.CAVITY>
0

>  <SCORE.RESTR.norm>
0

>  <SCORE.SYSTEM>
0

>  <SCORE.SYSTEM.CONST>
0

>  <SCORE.SYSTEM.DIHEDRAL>
0

>  <SCORE.SYSTEM.SOLV>
0

>  <SCORE.SYSTEM.norm>
0

>  <SCORE.heavy>
14

>  <SCORE.norm>
-0.367192

>  <RMSD>
2.119

$$$$
ligand
 OpenBabel11021811393D
libRbt.so/2013.1/901 2013/11/27
 14 13  0  0  0  0  0  0  0  0999 V2000
    4.6300   -4.3287    9.6274 N   0  0  0  0  0  0  0  0  0  0  0  0
    3.8501   -3.9920   10.8988 C   0  0  0  0  0  0  0  0  0  0  0  0
    3.0985   -2.7495   10.5860 C   0  0  0  0  0  0  0  0  0  0  0  0
    2.1970   -2.2578   11.7068 C   0  0  0  0  0  0  0  0  0  0  0  0
    1.3994   -1.0968   11.2293 N   0  0  0  0  0  0  0  0  0  0  0  0
    0.2068   -1.6041   10.3984 C   0  0  0  0  0  0  0  0  0  0  0  0
   -0.4177   -0.2365    9.8402 C   0  0  0  0  0  0  0  0  0  0  0  0
   -1.0538    0.3764   10.8088 C   0  0  0  0  0  0  0  0  0  0  0  0
   -2.4697    0.5782   10.0112 C   0  0  0  0  0  0  0  0  0  0  0  0
   -2.1319    1.9339    9.3046 N   0  0  0  0  0  0  0  0  0  0  0  0
   -3.0788    2.2616    8.0819 C   0  0  0  0  0  0  0  0  0  0  0  0
   -4.5296    2.6444    8.7271 C   0  0  0  0  0  0  0  0  0  0  0  0
   -5.3300    3.1095    7.5455 C   0  0  0  0  0  0  0  0  0  0  0  0
   -6.7026    3.4233    8.0927 N   0  0  0  0  0  0  0  0  0  0  0  0
  1  2  1  0  0  0  0
  2  3  1  0  0  0  0
  3  4  1  0  0  0  0
  4  5  1  0  0  0  0
  5  6  1  0  0  0  0
  6  7  1  0  0  0  0
  7  8  1  0  0  0  0
  8  9  1  0  0  0  0
  9 10  1  0  0  0  0
 10 11  1  0  0  0  0
 11 12  1  0  0  0  0
 12 13  1  0  0  0  0
 13 14  1  0  0  0  0
M  END
>  <CHROM.1>
177.60059321,-174.29245392,79.91029602,-173.68269914,-74.55289081,-127.65187425
-87.09879216,162.18728105,71.69233424,173.14651138,177.83363672,-0.73803297
-0.13848552,9.77570576,-0.17952531,0.64962752,-1.65433983

>  <Name>
ligand

>  <RI>
0

>  <Rbt.Current_Directory>
/home/itssahil/PROJECTS/Mol_Feturizer/New_Systems/rnas/1FUF

>  <Rbt.Executable>
rbdock ($Id: //depot/dev/client3/rdock/2013.1/src/exe/rbdock.cxx#4 $)

>  <Rbt.Library>
libRbt.so (2013.1, Build901 2013/11/27)

>  <Rbt.Parameter_File>
/export/apps/rDock/src/rDock_2013.1_src/data/scripts/dock_solv.prm

>  <Rbt.Receptor>
prm/blind_docking_80.prm

>  <SCORE>
0.263143

>  <SCORE.INTER>
-1.38717

>  <SCORE.INTER.CONST>
1

>  <SCORE.INTER.POLAR>
0

>  <SCORE.INTER.ROT>
11

>  <SCORE.INTER.SOLV>
16.3616

>  <SCORE.INTER.VDW>
-17.312

>  <SCORE.INTER.norm>
-0.0990838

>  <SCORE.INTRA>
1.65032

>  <SCORE.INTRA.DIHEDRAL>
-0.573943

>  <SCORE.INTRA.DIHEDRAL.0>
10.5765

>  <SCORE.INTRA.POLAR>
0

>  <SCORE.INTRA.POLAR.0>
0

>  <SCORE.INTRA.REPUL>
0

>  <SCORE.INTRA.REPUL.0>
0

>  <SCORE.INTRA.SOLV>
0.624574

>  <SCORE.INTRA.SOLV.lig_0>
-50.1861

>  <SCORE.INTRA.VDW>
1.625

>  <SCORE.INTRA.VDW.0>
-1.36671

>  <SCORE.INTRA.norm>
0.11788

>  <SCORE.RESTR>
0

>  <SCORE.RESTR.CAVITY>
0

>  <SCORE.RESTR.norm>
0

>  <SCORE.SYSTEM>
0

>  <SCORE.SYSTEM.CONST>
0

>  <SCORE.SYSTEM.DIHEDRAL>
0

>  <SCORE.SYSTEM.SOLV>
0

>  <SCORE.SYSTEM.norm>
0

>  <SCORE.heavy>
14

>  <SCORE.norm>
0.0187959

>  <RMSD>
2.127

$$$$
ligand
 OpenBabel11021811393D
libRbt.so/2013.1/901 2013/11/27
 14 13  0  0  0  0  0  0  0  0999 V2000
   -3.8573    2.1453    8.9687 N   0  0  0  0  0  0  0  0  0  0  0  0
   -4.0985    0.6647    9.2647 C   0  0  0  0  0  0  0  0  0  0  0  0
   -3.0593    0.2835   10.2552 C   0  0  0  0  0  0  0  0  0  0  0  0
   -1.6300    0.4275    9.7581 C   0  0  0  0  0  0  0  0  0  0  0  0
   -0.7033   -0.2402   10.7107 N   0  0  0  0  0  0  0  0  0  0  0  0
    0.6721   -0.4205   10.0430 C   0  0  0  0  0  0  0  0  0  0  0  0
    1.2447   -1.7128   10.8005 C   0  0  0  0  0  0  0  0  0  0  0  0
    2.4123   -2.0292   10.2951 C   0  0  0  0  0  0  0  0  0  0  0  0
    2.6662   -3.3593   11.2160 C   0  0  0  0  0  0  0  0  0  0  0  0
    4.0071   -3.8287   10.5579 N   0  0  0  0  0  0  0  0  0  0  0  0
    4.3422   -5.3504   10.8245 C   0  0  0  0  0  0  0  0  0  0  0  0
    3.4132   -6.2036    9.7867 C   0  0  0  0  0  0  0  0  0  0  0  0
    3.9786   -5.8573    8.4401 C   0  0  0  0  0  0  0  0  0  0  0  0
    5.2932   -6.5969    8.3577 N   0  0  0  0  0  0  0  0  0  0  0  0
  1  2  1  0  0  0  0
  2  3  1  0  0  0  0
  3  4  1  0  0  0  0
  4  5  1  0  0  0  0
  5  6  1  0  0  0  0
  6  7  1  0  0  0  0
  7  8  1  0  0  0  0
  8  9  1  0  0  0  0
  9 10  1  0  0  0  0
 10 11  1  0  0  0  0
 11 12  1  0  0  0  0
 12 13  1  0  0  0  0
 13 14  1  0  0  0  0
M  END
>  <CHROM.1>
-61.78874038,-168.27214256,165.27194688,-152.39424311,177.50955705,-178.01164012
175.80131555,-160.11782493,78.66190309,67.45872150,73.47381218,1.04860476
-2.29134923,9.94860518,2.63106508,-0.55035628,0.75943016

>  <Name>
ligand

>  <RI>
0

>  <Rbt.Current_Directory>
/home/itssahil/PROJECTS/Mol_Feturizer/New_Systems/rnas/1FUF

>  <Rbt.Executable>
rbdock ($Id: //depot/dev/client3/rdock/2013.1/src/exe/rbdock.cxx#4 $)

>  <Rbt.Library>
libRbt.so (2013.1, Build901 2013/11/27)

>  <Rbt.Parameter_File>
/export/apps/rDock/src/rDock_2013.1_src/data/scripts/dock_solv.prm

>  <Rbt.Receptor>
prm/blind_docking_100.prm

>  <SCORE>
-5.46737

>  <SCORE.INTER>
-3.5375

>  <SCORE.INTER.CONST>
1

>  <SCORE.INTER.POLAR>
0

>  <SCORE.INTER.ROT>
11

>  <SCORE.INTER.SOLV>
14.8471

>  <SCORE.INTER.VDW>
-18.2407

>  <SCORE.INTER.norm>
-0.252679

>  <SCORE.INTRA>
-1.92987

>  <SCORE.INTRA.DIHEDRAL>
-7.8312

>  <SCORE.INTRA.DIHEDRAL.0>
10.5765

>  <SCORE.INTRA.POLAR>
0

>  <SCORE.INTRA.POLAR.0>
0

>  <SCORE.INTRA.REPUL>
0

>  <SCORE.INTRA.REPUL.0>
0

>  <SCORE.INTRA.SOLV>
2.53107

>  <SCORE.INTRA.SOLV.lig_0>
-50.1861

>  <SCORE.INTRA.VDW>
0.720193

>  <SCORE.INTRA.VDW.0>
-1.36671

>  <SCORE.INTRA.norm>
-0.137848

>  <SCORE.RESTR>
0

>  <SCORE.RESTR.CAVITY>
0

>  <SCORE.RESTR.norm>
0

>  <SCORE.SYSTEM>
0

>  <SCORE.SYSTEM.CONST>
0

>  <SCORE.SYSTEM.DIHEDRAL>
0

>  <SCORE.SYSTEM.SOLV>
0

>  <SCORE.SYSTEM.norm>
0

>  <SCORE.heavy>
14

>  <SCORE.norm>
-0.390527

>  <RMSD>
2.131

$$$$
ligand
 OpenBabel11021811393D
libRbt.so/2013.1/901 2013/11/27
 14 13  0  0  0  0  0  0  0  0999 V2000
   -4.9671    1.2120    9.3342 N   0  0  0  0  0  0  0  0  0  0  0  0
   -3.5917    1.6881    9.8028 C   0  0  0  0  0  0  0  0  0  0  0  0
   -2.7854    0.4539    9.9852 C   0  0  0  0  0  0  0  0  0  0  0  0
   -1.3530    0.6958   10.4326 C   0  0  0  0  0  0  0  0  0  0  0  0
   -0.6408   -0.6053   10.5428 N   0  0  0  0  0  0  0  0  0  0  0  0
    0.8778   -0.3547   10.5737 C   0  0  0  0  0  0  0  0  0  0  0  0
    1.4224   -1.6873   11.2806 C   0  0  0  0  0  0  0  0  0  0  0  0
    1.3894   -2.6775   10.4221 C   0  0  0  0  0  0  0  0  0  0  0  0
    2.2448   -3.7430   11.3248 C   0  0  0  0  0  0  0  0  0  0  0  0
    2.3330   -4.8997   10.2733 N   0  0  0  0  0  0  0  0  0  0  0  0
    3.3156   -6.0636   10.6964 C   0  0  0  0  0  0  0  0  0  0  0  0
    3.9412   -6.6508    9.3065 C   0  0  0  0  0  0  0  0  0  0  0  0
    4.7960   -5.5253    8.8008 C   0  0  0  0  0  0  0  0  0  0  0  0
    5.4466   -6.0529    7.5437 N   0  0  0  0  0  0  0  0  0  0  0  0
  1  2  1  0  0  0  0
  2  3  1  0  0  0  0
  3  4  1  0  0  0  0
  4  5  1  0  0  0  0
  5  6  1  0  0  0  0
  6  7  1  0  0  0  0
  7  8  1  0  0  0  0
  8  9  1  0  0  0  0
  9 10  1  0  0  0  0
 10 11  1  0  0  0  0
 11 12  1  0  0  0  0
 12 13  1  0  0  0  0
 13 14  1  0  0  0  0
M  END
>  <CHROM.1>
179.01332527,-178.43134834,163.05473280,157.57984076,75.58565348,169.68865248
-175.27529998,170.48386135,-148.15895287,67.80471330,177.44604917,0.88791798
-2.44352825,10.02307934,2.77144625,-0.68079910,1.11650731

>  <Name>
ligand

>  <RI>
0

>  <Rbt.Current_Directory>
/home/itssahil/PROJECTS/Mol_Feturizer/New_Systems/rnas/1FUF

>  <Rbt.Executable>
rbdock ($Id: //depot/dev/client3/rdock/2013.1/src/exe/rbdock.cxx#4 $)

>  <Rbt.Library>
libRbt.so (2013.1, Build901 2013/11/27)

>  <Rbt.Parameter_File>
/export/apps/rDock/src/rDock_2013.1_src/data/scripts/dock_solv.prm

>  <Rbt.Receptor>
prm/blind_docking_60.prm

>  <SCORE>
-4.71131

>  <SCORE.INTER>
-1.62652

>  <SCORE.INTER.CONST>
1

>  <SCORE.INTER.POLAR>
0

>  <SCORE.INTER.ROT>
11

>  <SCORE.INTER.SOLV>
16.1497

>  <SCORE.INTER.VDW>
-17.4009

>  <SCORE.INTER.norm>
-0.11618

>  <SCORE.INTRA>
-3.08479

>  <SCORE.INTRA.DIHEDRAL>
-7.60331

>  <SCORE.INTRA.DIHEDRAL.0>
10.5765

>  <SCORE.INTRA.POLAR>
0

>  <SCORE.INTRA.POLAR.0>
0

>  <SCORE.INTRA.REPUL>
0

>  <SCORE.INTRA.REPUL.0>
0

>  <SCORE.INTRA.SOLV>
0.716788

>  <SCORE.INTRA.SOLV.lig_0>
-50.1861

>  <SCORE.INTRA.VDW>
0.358472

>  <SCORE.INTRA.VDW.0>
-1.36671

>  <SCORE.INTRA.norm>
-0.220342

>  <SCORE.RESTR>
0

>  <SCORE.RESTR.CAVITY>
0

>  <SCORE.RESTR.norm>
0

>  <SCORE.SYSTEM>
0

>  <SCORE.SYSTEM.CONST>
0

>  <SCORE.SYSTEM.DIHEDRAL>
0

>  <SCORE.SYSTEM.SOLV>
0

>  <SCORE.SYSTEM.norm>
0

>  <SCORE.heavy>
14

>  <SCORE.norm>
-0.336522

>  <RMSD>
2.131

$$$$
ligand
 OpenBabel11021811393D
libRbt.so/2013.1/901 2013/11/27
 14 13  0  0  0  0  0  0  0  0999 V2000
   -4.5592    2.0120    9.6679 N   0  0  0  0  0  0  0  0  0  0  0  0
   -3.7567    1.7326    8.3967 C   0  0  0  0  0  0  0  0  0  0  0  0
   -2.3456    1.5960    8.8401 C   0  0  0  0  0  0  0  0  0  0  0  0
   -2.0932    0.4424    9.7971 C   0  0  0  0  0  0  0  0  0  0  0  0
   -0.6319    0.3107   10.0416 N   0  0  0  0  0  0  0  0  0  0  0  0
   -0.3508   -1.0308   10.7425 C   0  0  0  0  0  0  0  0  0  0  0  0
    1.2081   -1.2485   10.4350 C   0  0  0  0  0  0  0  0  0  0  0  0
    1.5599   -2.4537   10.8124 C   0  0  0  0  0  0  0  0  0  0  0  0
    3.1286   -2.3481   10.3546 C   0  0  0  0  0  0  0  0  0  0  0  0
    3.5405   -3.8313   10.6404 N   0  0  0  0  0  0  0  0  0  0  0  0
    3.8842   -4.6538    9.3348 C   0  0  0  0  0  0  0  0  0  0  0  0
    3.6272   -6.2223    9.7112 C   0  0  0  0  0  0  0  0  0  0  0  0
    3.9539   -6.9488    8.4390 C   0  0  0  0  0  0  0  0  0  0  0  0
    5.4501   -6.8178    8.2783 N   0  0  0  0  0  0  0  0  0  0  0  0
  1  2  1  0  0  0  0
  2  3  1  0  0  0  0
  3  4  1  0  0  0  0
  4  5  1  0  0  0  0
  5  6  1  0  0  0  0
  6  7  1  0  0  0  0
  7  8  1  0  0  0  0
  8  9  1  0  0  0  0
  9 10  1  0  0  0  0
 10 11  1  0  0  0  0
 11 12  1  0  0  0  0
 12 13  1  0  0  0  0
 13 14  1  0  0  0  0
M  END
>  <CHROM.1>
62.21666950,173.42001120,-167.33387804,159.85614901,-171.21867777,179.26976157
-173.83282320,112.66041142,-155.25841618,179.44759579,69.66688259,0.90106550
-2.10439608,9.67798144,2.59788557,-0.59354908,0.76911199

>  <Name>
ligand

>  <RI>
0

>  <Rbt.Current_Directory>
/home/itssahil/PROJECTS/Mol_Feturizer/New_Systems/rnas/1FUF

>  <Rbt.Executable>
rbdock ($Id: //depot/dev/client3/rdock/2013.1/src/exe/rbdock.cxx#4 $)

>  <Rbt.Library>
libRbt.so (2013.1, Build901 2013/11/27)

>  <Rbt.Parameter_File>
/export/apps/rDock/src/rDock_2013.1_src/data/scripts/dock_solv.prm

>  <Rbt.Receptor>
prm/blind_docking_60.prm

>  <SCORE>
-5.05729

>  <SCORE.INTER>
-2.66913

>  <SCORE.INTER.CONST>
1

>  <SCORE.INTER.POLAR>
0

>  <SCORE.INTER.ROT>
11

>  <SCORE.INTER.SOLV>
15.3431

>  <SCORE.INTER.VDW>
-17.8271

>  <SCORE.INTER.norm>
-0.190652

>  <SCORE.INTRA>
-2.38816

>  <SCORE.INTRA.DIHEDRAL>
-7.59274

>  <SCORE.INTRA.DIHEDRAL.0>
10.5765

>  <SCORE.INTRA.POLAR>
0

>  <SCORE.INTRA.POLAR.0>
0

>  <SCORE.INTRA.REPUL>
0

>  <SCORE.INTRA.REPUL.0>
0

>  <SCORE.INTRA.SOLV>
1.69865

>  <SCORE.INTRA.SOLV.lig_0>
-50.1861

>  <SCORE.INTRA.VDW>
0.558885

>  <SCORE.INTRA.VDW.0>
-1.36671

>  <SCORE.INTRA.norm>
-0.170583

>  <SCORE.RESTR>
0

>  <SCORE.RESTR.CAVITY>
0

>  <SCORE.RESTR.norm>
0

>  <SCORE.SYSTEM>
0

>  <SCORE.SYSTEM.CONST>
0

>  <SCORE.SYSTEM.DIHEDRAL>
0

>  <SCORE.SYSTEM.SOLV>
0

>  <SCORE.SYSTEM.norm>
0

>  <SCORE.heavy>
14

>  <SCORE.norm>
-0.361235

>  <RMSD>
2.132

$$$$
ligand
 OpenBabel11021811393D
libRbt.so/2013.1/901 2013/11/27
 14 13  0  0  0  0  0  0  0  0999 V2000
   -4.2741    1.4863    8.4080 N   0  0  0  0  0  0  0  0  0  0  0  0
   -2.8263    1.9764    8.4498 C   0  0  0  0  0  0  0  0  0  0  0  0
   -2.4361    1.9399    9.8827 C   0  0  0  0  0  0  0  0  0  0  0  0
   -2.2112    0.5439   10.4405 C   0  0  0  0  0  0  0  0  0  0  0  0
   -0.9476   -0.0137    9.8887 N   0  0  0  0  0  0  0  0  0  0  0  0
    0.1731    0.1301   10.9342 C   0  0  0  0  0  0  0  0  0  0  0  0
    1.2208   -0.9865   10.4572 C   0  0  0  0  0  0  0  0  0  0  0  0
    0.7436   -2.1754   10.7355 C   0  0  0  0  0  0  0  0  0  0  0  0
    2.0668   -3.0253   10.2789 C   0  0  0  0  0  0  0  0  0  0  0  0
    1.5267   -4.4598   10.5981 N   0  0  0  0  0  0  0  0  0  0  0  0
    2.6680   -5.5115   10.8988 C   0  0  0  0  0  0  0  0  0  0  0  0
    3.4849   -5.7011    9.4972 C   0  0  0  0  0  0  0  0  0  0  0  0
    4.5145   -6.7425    9.8266 C   0  0  0  0  0  0  0  0  0  0  0  0
    5.2916   -6.9528    8.5485 N   0  0  0  0  0  0  0  0  0  0  0  0
  1  2  1  0  0  0  0
  2  3  1  0  0  0  0
  3  4  1  0  0  0  0
  4  5  1  0  0  0  0
  5  6  1  0  0  0  0
  6  7  1  0  0  0  0
  7  8  1  0  0  0  0
  8  9  1  0  0  0  0
  9 10  1  0  0  0  0
 10 11  1  0  0  0  0
 11 12  1  0  0  0  0
 12 13  1  0  0  0  0
 13 14  1  0  0  0  0
M  END
>  <CHROM.1>
73.07149961,72.05251595,100.39840262,158.29123243,-72.70595129,-174.75221751
-179.91106008,-154.54781167,-66.53984104,-177.88637741,179.75163514,0.64256322
-2.10643139,9.91770711,2.73385188,-0.77048530,0.97411694

>  <Name>
ligand

>  <RI>
0

>  <Rbt.Current_Directory>
/home/itssahil/PROJECTS/Mol_Feturizer/New_Systems/rnas/1FUF

>  <Rbt.Executable>
rbdock ($Id: //depot/dev/client3/rdock/2013.1/src/exe/rbdock.cxx#4 $)

>  <Rbt.Library>
libRbt.so (2013.1, Build901 2013/11/27)

>  <Rbt.Parameter_File>
/export/apps/rDock/src/rDock_2013.1_src/data/scripts/dock_solv.prm

>  <Rbt.Receptor>
prm/pocket_docking_4.prm

>  <SCORE>
-3.10827

>  <SCORE.INTER>
-1.42165

>  <SCORE.INTER.CONST>
1

>  <SCORE.INTER.POLAR>
0

>  <SCORE.INTER.ROT>
11

>  <SCORE.INTER.SOLV>
16.9241

>  <SCORE.INTER.VDW>
-17.5225

>  <SCORE.INTER.norm>
-0.101547

>  <SCORE.INTRA>
-1.68661

>  <SCORE.INTRA.DIHEDRAL>
-6.95106

>  <SCORE.INTRA.DIHEDRAL.0>
10.5765

>  <SCORE.INTRA.POLAR>
0

>  <SCORE.INTRA.POLAR.0>
0

>  <SCORE.INTRA.REPUL>
0

>  <SCORE.INTRA.REPUL.0>
0

>  <SCORE.INTRA.SOLV>
1.67814

>  <SCORE.INTRA.SOLV.lig_0>
-50.1861

>  <SCORE.INTRA.VDW>
0.949845

>  <SCORE.INTRA.VDW.0>
-1.36671

>  <SCORE.INTRA.norm>
-0.120472

>  <SCORE.RESTR>
0

>  <SCORE.RESTR.CAVITY>
0

>  <SCORE.RESTR.norm>
0

>  <SCORE.SYSTEM>
0

>  <SCORE.SYSTEM.CONST>
0

>  <SCORE.SYSTEM.DIHEDRAL>
0

>  <SCORE.SYSTEM.SOLV>
0

>  <SCORE.SYSTEM.norm>
0

>  <SCORE.heavy>
14

>  <SCORE.norm>
-0.222019

>  <RMSD>
2.145

$$$$
ligand
 OpenBabel11021811393D
libRbt.so/2013.1/901 2013/11/27
 14 13  0  0  0  0  0  0  0  0999 V2000
    5.1122   -4.4680   10.5862 N   0  0  0  0  0  0  0  0  0  0  0  0
    3.9394   -5.4490   10.6022 C   0  0  0  0  0  0  0  0  0  0  0  0
    2.7474   -4.6368   10.9577 C   0  0  0  0  0  0  0  0  0  0  0  0
    2.4403   -3.5079    9.9873 C   0  0  0  0  0  0  0  0  0  0  0  0
    1.1234   -2.9056   10.3271 N   0  0  0  0  0  0  0  0  0  0  0  0
    1.3412   -1.6813   11.2345 C   0  0  0  0  0  0  0  0  0  0  0  0
   -0.0827   -0.9477   11.1538 C   0  0  0  0  0  0  0  0  0  0  0  0
   -0.1836   -0.3227   10.0058 C   0  0  0  0  0  0  0  0  0  0  0  0
   -1.6939    0.2654   10.2394 C   0  0  0  0  0  0  0  0  0  0  0  0
   -1.8067    1.1079    8.9245 N   0  0  0  0  0  0  0  0  0  0  0  0
   -3.2923    1.4976    8.5501 C   0  0  0  0  0  0  0  0  0  0  0  0
   -3.1786    2.6074    7.3570 C   0  0  0  0  0  0  0  0  0  0  0  0
   -4.5991    2.7891    6.9072 C   0  0  0  0  0  0  0  0  0  0  0  0
   -5.3028    3.4521    8.0678 N   0  0  0  0  0  0  0  0  0  0  0  0
  1  2  1  0  0  0  0
  2  3  1  0  0  0  0
  3  4  1  0  0  0  0
  4  5  1  0  0  0  0
  5  6  1  0  0  0  0
  6  7  1  0  0  0  0
  7  8  1  0  0  0  0
  8  9  1  0  0  0  0
  9 10  1  0  0  0  0
 10 11  1  0  0  0  0
 11 12  1  0  0  0  0
 12 13  1  0  0  0  0
 13 14  1  0  0  0  0
M  END
>  <CHROM.1>
59.93412553,171.38135535,94.84835411,164.85070450,-76.41731530,179.13943875
176.10151437,162.46526977,168.62616728,172.03322153,67.58584531,-0.24542563
-0.87145815,9.63581060,-0.27652017,0.74454802,-1.55879982

>  <Name>
ligand

>  <RI>
0

>  <Rbt.Current_Directory>
/home/itssahil/PROJECTS/Mol_Feturizer/New_Systems/rnas/1FUF

>  <Rbt.Executable>
rbdock ($Id: //depot/dev/client3/rdock/2013.1/src/exe/rbdock.cxx#4 $)

>  <Rbt.Library>
libRbt.so (2013.1, Build901 2013/11/27)

>  <Rbt.Parameter_File>
/export/apps/rDock/src/rDock_2013.1_src/data/scripts/dock_solv.prm

>  <Rbt.Receptor>
prm/pocket_docking_7.prm

>  <SCORE>
-2.67862

>  <SCORE.INTER>
-1.0556

>  <SCORE.INTER.CONST>
1

>  <SCORE.INTER.POLAR>
0

>  <SCORE.INTER.ROT>
11

>  <SCORE.INTER.SOLV>
21.6159

>  <SCORE.INTER.VDW>
-18.8424

>  <SCORE.INTER.norm>
-0.0753998

>  <SCORE.INTRA>
-1.62302

>  <SCORE.INTRA.DIHEDRAL>
-7.56112

>  <SCORE.INTRA.DIHEDRAL.0>
10.5765

>  <SCORE.INTRA.POLAR>
0

>  <SCORE.INTRA.POLAR.0>
0

>  <SCORE.INTRA.REPUL>
0

>  <SCORE.INTRA.REPUL.0>
0

>  <SCORE.INTRA.SOLV>
2.12318

>  <SCORE.INTRA.SOLV.lig_0>
-50.1861

>  <SCORE.INTRA.VDW>
1.09594

>  <SCORE.INTRA.VDW.0>
-1.36671

>  <SCORE.INTRA.norm>
-0.11593

>  <SCORE.RESTR>
0

>  <SCORE.RESTR.CAVITY>
0

>  <SCORE.RESTR.norm>
0

>  <SCORE.SYSTEM>
0

>  <SCORE.SYSTEM.CONST>
0

>  <SCORE.SYSTEM.DIHEDRAL>
0

>  <SCORE.SYSTEM.SOLV>
0

>  <SCORE.SYSTEM.norm>
0

>  <SCORE.heavy>
14

>  <SCORE.norm>
-0.19133

>  <RMSD>
2.149

$$$$
ligand
 OpenBabel11021811393D
libRbt.so/2013.1/901 2013/11/27
 14 13  0  0  0  0  0  0  0  0999 V2000
   -4.1773    2.0975    7.8872 N   0  0  0  0  0  0  0  0  0  0  0  0
   -3.6596    1.7761    9.2896 C   0  0  0  0  0  0  0  0  0  0  0  0
   -2.4066    1.0053    9.0832 C   0  0  0  0  0  0  0  0  0  0  0  0
   -1.7166    0.5669   10.3646 C   0  0  0  0  0  0  0  0  0  0  0  0
   -0.4877   -0.2010   10.0292 N   0  0  0  0  0  0  0  0  0  0  0  0
    0.5263   -0.0693   11.1800 C   0  0  0  0  0  0  0  0  0  0  0  0
    1.0177   -1.5843   11.3677 C   0  0  0  0  0  0  0  0  0  0  0  0
    1.9349   -1.8564   10.4715 C   0  0  0  0  0  0  0  0  0  0  0  0
    2.2770   -3.3683   10.9995 C   0  0  0  0  0  0  0  0  0  0  0  0
    3.5709   -3.6090   10.1515 N   0  0  0  0  0  0  0  0  0  0  0  0
    4.5640   -4.6551   10.7984 C   0  0  0  0  0  0  0  0  0  0  0  0
    4.1082   -6.1175   10.2313 C   0  0  0  0  0  0  0  0  0  0  0  0
    4.4599   -6.0561    8.7733 C   0  0  0  0  0  0  0  0  0  0  0  0
    4.0888   -7.4105    8.2166 N   0  0  0  0  0  0  0  0  0  0  0  0
  1  2  1  0  0  0  0
  2  3  1  0  0  0  0
  3  4  1  0  0  0  0
  4  5  1  0  0  0  0
  5  6  1  0  0  0  0
  6  7  1  0  0  0  0
  7  8  1  0  0  0  0
  8  9  1  0  0  0  0
  9 10  1  0  0  0  0
 10 11  1  0  0  0  0
 11 12  1  0  0  0  0
 12 13  1  0  0  0  0
 13 14  1  0  0  0  0
M  END
>  <CHROM.1>
-179.60116199,179.54242655,153.21208701,134.37505934,81.47130404,176.11097799
-168.62390709,154.33477084,89.04205850,68.52627385,178.42848345,1.00725472
-2.10577624,9.91775536,2.67955747,-0.67268986,0.84451008

>  <Name>
ligand

>  <RI>
0

>  <Rbt.Current_Directory>
/home/itssahil/PROJECTS/Mol_Feturizer/New_Systems/rnas/1FUF

>  <Rbt.Executable>
rbdock ($Id: //depot/dev/client3/rdock/2013.1/src/exe/rbdock.cxx#4 $)

>  <Rbt.Library>
libRbt.so (2013.1, Build901 2013/11/27)

>  <Rbt.Parameter_File>
/export/apps/rDock/src/rDock_2013.1_src/data/scripts/dock_solv.prm

>  <Rbt.Receptor>
prm/blind_docking_40.prm

>  <SCORE>
-3.55235

>  <SCORE.INTER>
-1.43414

>  <SCORE.INTER.CONST>
1

>  <SCORE.INTER.POLAR>
0

>  <SCORE.INTER.ROT>
11

>  <SCORE.INTER.SOLV>
19.1106

>  <SCORE.INTER.VDW>
-18.2596

>  <SCORE.INTER.norm>
-0.102439

>  <SCORE.INTRA>
-2.11821

>  <SCORE.INTRA.DIHEDRAL>
-5.61626

>  <SCORE.INTRA.DIHEDRAL.0>
10.5765

>  <SCORE.INTRA.POLAR>
0

>  <SCORE.INTRA.POLAR.0>
0

>  <SCORE.INTRA.REPUL>
0

>  <SCORE.INTRA.REPUL.0>
0

>  <SCORE.INTRA.SOLV>
0.698553

>  <SCORE.INTRA.SOLV.lig_0>
-50.1861

>  <SCORE.INTRA.VDW>
0.340645

>  <SCORE.INTRA.VDW.0>
-1.36671

>  <SCORE.INTRA.norm>
-0.151301

>  <SCORE.RESTR>
0

>  <SCORE.RESTR.CAVITY>
0

>  <SCORE.RESTR.norm>
0

>  <SCORE.SYSTEM>
0

>  <SCORE.SYSTEM.CONST>
0

>  <SCORE.SYSTEM.DIHEDRAL>
0

>  <SCORE.SYSTEM.SOLV>
0

>  <SCORE.SYSTEM.norm>
0

>  <SCORE.heavy>
14

>  <SCORE.norm>
-0.25374

>  <RMSD>
2.166

$$$$
ligand
 OpenBabel11021811393D
libRbt.so/2013.1/901 2013/11/27
 14 13  0  0  0  0  0  0  0  0999 V2000
   -4.7798    1.4146    8.8210 N   0  0  0  0  0  0  0  0  0  0  0  0
   -3.7846    1.5083    9.9780 C   0  0  0  0  0  0  0  0  0  0  0  0
   -2.6092    0.7037    9.5566 C   0  0  0  0  0  0  0  0  0  0  0  0
   -1.4846    0.6461   10.5777 C   0  0  0  0  0  0  0  0  0  0  0  0
   -0.4187   -0.2701   10.0912 N   0  0  0  0  0  0  0  0  0  0  0  0
    0.3194   -0.8799   11.2968 C   0  0  0  0  0  0  0  0  0  0  0  0
    1.5802   -1.5816   10.5970 C   0  0  0  0  0  0  0  0  0  0  0  0
    2.2709   -2.2326   11.5014 C   0  0  0  0  0  0  0  0  0  0  0  0
    3.4087   -2.8259   10.4840 C   0  0  0  0  0  0  0  0  0  0  0  0
    2.5805   -4.0202    9.9016 N   0  0  0  0  0  0  0  0  0  0  0  0
    2.6990   -5.3458   10.7547 C   0  0  0  0  0  0  0  0  0  0  0  0
    3.4005   -6.4490    9.7755 C   0  0  0  0  0  0  0  0  0  0  0  0
    4.8091   -5.9500    9.6334 C   0  0  0  0  0  0  0  0  0  0  0  0
    5.4861   -6.9278    8.7020 N   0  0  0  0  0  0  0  0  0  0  0  0
  1  2  1  0  0  0  0
  2  3  1  0  0  0  0
  3  4  1  0  0  0  0
  4  5  1  0  0  0  0
  5  6  1  0  0  0  0
  6  7  1  0  0  0  0
  7  8  1  0  0  0  0
  8  9  1  0  0  0  0
  9 10  1  0  0  0  0
 10 11  1  0  0  0  0
 11 12  1  0  0  0  0
 12 13  1  0  0  0  0
 13 14  1  0  0  0  0
M  END
>  <CHROM.1>
-179.43266202,175.52130936,-151.97498983,-169.25978858,-175.78006105,178.85025486
-79.87190618,-87.77602067,-117.07427523,69.70220940,-178.59176925,0.96278629
-2.30066256,10.11964447,2.54448427,-0.49238031,0.61294784

>  <Name>
ligand

>  <RI>
0

>  <Rbt.Current_Directory>
/home/itssahil/PROJECTS/Mol_Feturizer/New_Systems/rnas/1FUF

>  <Rbt.Executable>
rbdock ($Id: //depot/dev/client3/rdock/2013.1/src/exe/rbdock.cxx#4 $)

>  <Rbt.Library>
libRbt.so (2013.1, Build901 2013/11/27)

>  <Rbt.Parameter_File>
/export/apps/rDock/src/rDock_2013.1_src/data/scripts/dock_solv.prm

>  <Rbt.Receptor>
prm/pocket_docking_4.prm

>  <SCORE>
-4.16136

>  <SCORE.INTER>
-2.59072

>  <SCORE.INTER.CONST>
1

>  <SCORE.INTER.POLAR>
0

>  <SCORE.INTER.ROT>
11

>  <SCORE.INTER.SOLV>
15.2025

>  <SCORE.INTER.VDW>
-17.728

>  <SCORE.INTER.norm>
-0.185052

>  <SCORE.INTRA>
-1.57064

>  <SCORE.INTRA.DIHEDRAL>
-6.3533

>  <SCORE.INTRA.DIHEDRAL.0>
10.5765

>  <SCORE.INTRA.POLAR>
0

>  <SCORE.INTRA.POLAR.0>
0

>  <SCORE.INTRA.REPUL>
0

>  <SCORE.INTRA.REPUL.0>
0

>  <SCORE.INTRA.SOLV>
0.862901

>  <SCORE.INTRA.SOLV.lig_0>
-50.1861

>  <SCORE.INTRA.VDW>
1.17456

>  <SCORE.INTRA.VDW.0>
-1.36671

>  <SCORE.INTRA.norm>
-0.112188

>  <SCORE.RESTR>
0

>  <SCORE.RESTR.CAVITY>
0

>  <SCORE.RESTR.norm>
0

>  <SCORE.SYSTEM>
0

>  <SCORE.SYSTEM.CONST>
0

>  <SCORE.SYSTEM.DIHEDRAL>
0

>  <SCORE.SYSTEM.SOLV>
0

>  <SCORE.SYSTEM.norm>
0

>  <SCORE.heavy>
14

>  <SCORE.norm>
-0.29724

>  <RMSD>
2.168

$$$$
ligand
 OpenBabel11021811393D
libRbt.so/2013.1/901 2013/11/27
 14 13  0  0  0  0  0  0  0  0999 V2000
   -3.8584    1.7165    7.9539 N   0  0  0  0  0  0  0  0  0  0  0  0
   -2.5372    2.2440    8.5144 C   0  0  0  0  0  0  0  0  0  0  0  0
   -2.5802    1.9550    9.9708 C   0  0  0  0  0  0  0  0  0  0  0  0
   -2.3311    0.5000   10.3335 C   0  0  0  0  0  0  0  0  0  0  0  0
   -0.8871    0.1862   10.1639 N   0  0  0  0  0  0  0  0  0  0  0  0
   -0.5720   -1.1541   10.8524 C   0  0  0  0  0  0  0  0  0  0  0  0
    0.9779   -1.3577   10.4942 C   0  0  0  0  0  0  0  0  0  0  0  0
    1.3485   -2.5654   10.8446 C   0  0  0  0  0  0  0  0  0  0  0  0
    2.9068   -2.4371   10.3580 C   0  0  0  0  0  0  0  0  0  0  0  0
    3.3382   -3.9208   10.6109 N   0  0  0  0  0  0  0  0  0  0  0  0
    4.8880   -4.1685   10.4214 C   0  0  0  0  0  0  0  0  0  0  0  0
    5.0631   -5.7787   10.2105 C   0  0  0  0  0  0  0  0  0  0  0  0
    4.4173   -6.0327    8.8795 C   0  0  0  0  0  0  0  0  0  0  0  0
    4.6145   -7.5070    8.6159 N   0  0  0  0  0  0  0  0  0  0  0  0
  1  2  1  0  0  0  0
  2  3  1  0  0  0  0
  3  4  1  0  0  0  0
  4  5  1  0  0  0  0
  5  6  1  0  0  0  0
  6  7  1  0  0  0  0
  7  8  1  0  0  0  0
  8  9  1  0  0  0  0
  9 10  1  0  0  0  0
 10 11  1  0  0  0  0
 11 12  1  0  0  0  0
 12 13  1  0  0  0  0
 13 14  1  0  0  0  0
M  END
>  <CHROM.1>
75.99165480,73.91674455,166.01979239,176.88633686,-170.56307354,179.96552611
-173.82643784,-172.65982234,-160.91561581,67.76115178,177.46873492,1.05640252
-2.02274084,9.87334946,2.72916054,-0.68370068,0.91569399

>  <Name>
ligand

>  <RI>
0

>  <Rbt.Current_Directory>
/home/itssahil/PROJECTS/Mol_Feturizer/New_Systems/rnas/1FUF

>  <Rbt.Executable>
rbdock ($Id: //depot/dev/client3/rdock/2013.1/src/exe/rbdock.cxx#4 $)

>  <Rbt.Library>
libRbt.so (2013.1, Build901 2013/11/27)

>  <Rbt.Parameter_File>
/export/apps/rDock/src/rDock_2013.1_src/data/scripts/dock_solv.prm

>  <Rbt.Receptor>
prm/pocket_docking_6.prm

>  <SCORE>
-4.16321

>  <SCORE.INTER>
-1.32176

>  <SCORE.INTER.CONST>
1

>  <SCORE.INTER.POLAR>
0

>  <SCORE.INTER.ROT>
11

>  <SCORE.INTER.SOLV>
17.2719

>  <SCORE.INTER.VDW>
-17.5718

>  <SCORE.INTER.norm>
-0.0944115

>  <SCORE.INTRA>
-2.84145

>  <SCORE.INTRA.DIHEDRAL>
-7.76036

>  <SCORE.INTRA.DIHEDRAL.0>
10.5765

>  <SCORE.INTRA.POLAR>
0

>  <SCORE.INTRA.POLAR.0>
0

>  <SCORE.INTRA.REPUL>
0

>  <SCORE.INTRA.REPUL.0>
0

>  <SCORE.INTRA.SOLV>
1.66859

>  <SCORE.INTRA.SOLV.lig_0>
-50.1861

>  <SCORE.INTRA.VDW>
0.204435

>  <SCORE.INTRA.VDW.0>
-1.36671

>  <SCORE.INTRA.norm>
-0.20296

>  <SCORE.RESTR>
0

>  <SCORE.RESTR.CAVITY>
0

>  <SCORE.RESTR.norm>
0

>  <SCORE.SYSTEM>
0

>  <SCORE.SYSTEM.CONST>
0

>  <SCORE.SYSTEM.DIHEDRAL>
0

>  <SCORE.SYSTEM.SOLV>
0

>  <SCORE.SYSTEM.norm>
0

>  <SCORE.heavy>
14

>  <SCORE.norm>
-0.297372

>  <RMSD>
2.192

$$$$
ligand
 OpenBabel11021811393D
libRbt.so/2013.1/901 2013/11/27
 14 13  0  0  0  0  0  0  0  0999 V2000
   -4.8538    1.2026    9.3174 N   0  0  0  0  0  0  0  0  0  0  0  0
   -3.4137    1.6612    9.5493 C   0  0  0  0  0  0  0  0  0  0  0  0
   -2.7164    0.4931   10.1459 C   0  0  0  0  0  0  0  0  0  0  0  0
   -1.2487    0.7287   10.4640 C   0  0  0  0  0  0  0  0  0  0  0  0
   -0.6548   -0.5168   11.0191 N   0  0  0  0  0  0  0  0  0  0  0  0
    0.7082   -0.7738   10.3513 C   0  0  0  0  0  0  0  0  0  0  0  0
    1.0461   -2.2625   10.8427 C   0  0  0  0  0  0  0  0  0  0  0  0
    2.2053   -2.6282   10.3516 C   0  0  0  0  0  0  0  0  0  0  0  0
    2.1927   -4.1543   10.9455 C   0  0  0  0  0  0  0  0  0  0  0  0
    3.4098   -4.7146   10.1355 N   0  0  0  0  0  0  0  0  0  0  0  0
    3.2998   -6.2595    9.8188 C   0  0  0  0  0  0  0  0  0  0  0  0
    4.1438   -6.4969    8.4407 C   0  0  0  0  0  0  0  0  0  0  0  0
    5.5590   -6.1899    8.8361 C   0  0  0  0  0  0  0  0  0  0  0  0
    6.3687   -6.3446    7.5703 N   0  0  0  0  0  0  0  0  0  0  0  0
  1  2  1  0  0  0  0
  2  3  1  0  0  0  0
  3  4  1  0  0  0  0
  4  5  1  0  0  0  0
  5  6  1  0  0  0  0
  6  7  1  0  0  0  0
  7  8  1  0  0  0  0
  8  9  1  0  0  0  0
  9 10  1  0  0  0  0
 10 11  1  0  0  0  0
 11 12  1  0  0  0  0
 12 13  1  0  0  0  0
 13 14  1  0  0  0  0
M  END
>  <CHROM.1>
-179.95850401,-178.49074270,134.88239822,-169.31626461,-179.66641445,-176.75746454
168.79057569,-149.56580022,152.29310581,65.80651734,-177.80133644,1.14617632
-2.58965962,9.84215090,2.75820110,-0.65324038,1.13904423

>  <Name>
ligand

>  <RI>
0

>  <Rbt.Current_Directory>
/home/itssahil/PROJECTS/Mol_Feturizer/New_Systems/rnas/1FUF

>  <Rbt.Executable>
rbdock ($Id: //depot/dev/client3/rdock/2013.1/src/exe/rbdock.cxx#4 $)

>  <Rbt.Library>
libRbt.so (2013.1, Build901 2013/11/27)

>  <Rbt.Parameter_File>
/export/apps/rDock/src/rDock_2013.1_src/data/scripts/dock_solv.prm

>  <Rbt.Receptor>
prm/blind_docking_40.prm

>  <SCORE>
-5.92616

>  <SCORE.INTER>
-2.49545

>  <SCORE.INTER.CONST>
1

>  <SCORE.INTER.POLAR>
0

>  <SCORE.INTER.ROT>
11

>  <SCORE.INTER.SOLV>
14.0835

>  <SCORE.INTER.VDW>
-17.2915

>  <SCORE.INTER.norm>
-0.178247

>  <SCORE.INTRA>
-3.43071

>  <SCORE.INTRA.DIHEDRAL>
-7.6566

>  <SCORE.INTRA.DIHEDRAL.0>
10.5765

>  <SCORE.INTRA.POLAR>
0

>  <SCORE.INTRA.POLAR.0>
0

>  <SCORE.INTRA.REPUL>
0

>  <SCORE.INTRA.REPUL.0>
0

>  <SCORE.INTRA.SOLV>
0.404821

>  <SCORE.INTRA.SOLV.lig_0>
-50.1861

>  <SCORE.INTRA.VDW>
0.195177

>  <SCORE.INTRA.VDW.0>
-1.36671

>  <SCORE.INTRA.norm>
-0.245051

>  <SCORE.RESTR>
0

>  <SCORE.RESTR.CAVITY>
0

>  <SCORE.RESTR.norm>
0

>  <SCORE.SYSTEM>
0

>  <SCORE.SYSTEM.CONST>
0

>  <SCORE.SYSTEM.DIHEDRAL>
0

>  <SCORE.SYSTEM.SOLV>
0

>  <SCORE.SYSTEM.norm>
0

>  <SCORE.heavy>
14

>  <SCORE.norm>
-0.423297

>  <RMSD>
2.219

$$$$
ligand
 OpenBabel11021811393D
libRbt.so/2013.1/901 2013/11/27
 14 13  0  0  0  0  0  0  0  0999 V2000
   -3.5105    2.4869    7.2708 N   0  0  0  0  0  0  0  0  0  0  0  0
   -2.3218    2.1546    8.1734 C   0  0  0  0  0  0  0  0  0  0  0  0
   -2.8440    1.1957    9.1805 C   0  0  0  0  0  0  0  0  0  0  0  0
   -1.8514    0.8198   10.2686 C   0  0  0  0  0  0  0  0  0  0  0  0
   -0.7088    0.0828    9.6654 N   0  0  0  0  0  0  0  0  0  0  0  0
    0.4867    0.1130   10.6348 C   0  0  0  0  0  0  0  0  0  0  0  0
    0.3461   -1.2984   11.3832 C   0  0  0  0  0  0  0  0  0  0  0  0
    0.7215   -2.2578   10.5725 C   0  0  0  0  0  0  0  0  0  0  0  0
    2.2765   -2.3401   11.0792 C   0  0  0  0  0  0  0  0  0  0  0  0
    2.7454   -3.5155   10.1573 N   0  0  0  0  0  0  0  0  0  0  0  0
    2.4841   -4.9463   10.7766 C   0  0  0  0  0  0  0  0  0  0  0  0
    3.8271   -5.8225   10.4659 C   0  0  0  0  0  0  0  0  0  0  0  0
    3.8392   -5.9313    8.9688 C   0  0  0  0  0  0  0  0  0  0  0  0
    5.0711   -6.7406    8.6381 N   0  0  0  0  0  0  0  0  0  0  0  0
  1  2  1  0  0  0  0
  2  3  1  0  0  0  0
  3  4  1  0  0  0  0
  4  5  1  0  0  0  0
  5  6  1  0  0  0  0
  6  7  1  0  0  0  0
  7  8  1  0  0  0  0
  8  9  1  0  0  0  0
  9 10  1  0  0  0  0
 10 11  1  0  0  0  0
 11 12  1  0  0  0  0
 12 13  1  0  0  0  0
 13 14  1  0  0  0  0
M  END
>  <CHROM.1>
-174.78584933,-64.89282906,161.29778799,96.86923479,74.26908570,94.07565743
178.28454353,-87.08699293,-137.62138095,-65.25334631,-179.91856690,0.75431979
-1.85709228,9.80285916,3.05672156,-0.85854368,1.32810928

>  <Name>
ligand

>  <RI>
0

>  <Rbt.Current_Directory>
/home/itssahil/PROJECTS/Mol_Feturizer/New_Systems/rnas/1FUF

>  <Rbt.Executable>
rbdock ($Id: //depot/dev/client3/rdock/2013.1/src/exe/rbdock.cxx#4 $)

>  <Rbt.Library>
libRbt.so (2013.1, Build901 2013/11/27)

>  <Rbt.Parameter_File>
/export/apps/rDock/src/rDock_2013.1_src/data/scripts/dock_solv.prm

>  <Rbt.Receptor>
prm/pocket_docking_7.prm

>  <SCORE>
-1.60405

>  <SCORE.INTER>
-2.29641

>  <SCORE.INTER.CONST>
1

>  <SCORE.INTER.POLAR>
0

>  <SCORE.INTER.ROT>
11

>  <SCORE.INTER.SOLV>
16.8678

>  <SCORE.INTER.VDW>
-18.0869

>  <SCORE.INTER.norm>
-0.164029

>  <SCORE.INTRA>
0.692361

>  <SCORE.INTRA.DIHEDRAL>
-3.2784

>  <SCORE.INTRA.DIHEDRAL.0>
10.5765

>  <SCORE.INTRA.POLAR>
0

>  <SCORE.INTRA.POLAR.0>
0

>  <SCORE.INTRA.REPUL>
0

>  <SCORE.INTRA.REPUL.0>
0

>  <SCORE.INTRA.SOLV>
1.31443

>  <SCORE.INTRA.SOLV.lig_0>
-50.1861

>  <SCORE.INTRA.VDW>
1.67435

>  <SCORE.INTRA.VDW.0>
-1.36671

>  <SCORE.INTRA.norm>
0.0494543

>  <SCORE.RESTR>
0

>  <SCORE.RESTR.CAVITY>
0

>  <SCORE.RESTR.norm>
0

>  <SCORE.SYSTEM>
0

>  <SCORE.SYSTEM.CONST>
0

>  <SCORE.SYSTEM.DIHEDRAL>
0

>  <SCORE.SYSTEM.SOLV>
0

>  <SCORE.SYSTEM.norm>
0

>  <SCORE.heavy>
14

>  <SCORE.norm>
-0.114575

>  <RMSD>
2.221

$$$$
ligand
 OpenBabel11021811393D
libRbt.so/2013.1/901 2013/11/27
 14 13  0  0  0  0  0  0  0  0999 V2000
   -5.1206    1.1275    9.3480 N   0  0  0  0  0  0  0  0  0  0  0  0
   -3.6540    1.5325    9.1959 C   0  0  0  0  0  0  0  0  0  0  0  0
   -2.8725    0.4366    9.8243 C   0  0  0  0  0  0  0  0  0  0  0  0
   -1.3645    0.5939    9.7156 C   0  0  0  0  0  0  0  0  0  0  0  0
   -0.6960   -0.5511   10.3896 N   0  0  0  0  0  0  0  0  0  0  0  0
    0.8308   -0.3831   10.2869 C   0  0  0  0  0  0  0  0  0  0  0  0
    1.3630   -1.6456   11.1202 C   0  0  0  0  0  0  0  0  0  0  0  0
    1.2122   -2.7327   10.4032 C   0  0  0  0  0  0  0  0  0  0  0  0
    2.1040   -3.7188   11.3593 C   0  0  0  0  0  0  0  0  0  0  0  0
    1.9211   -5.0412   10.5412 N   0  0  0  0  0  0  0  0  0  0  0  0
    2.6990   -6.2742   11.1525 C   0  0  0  0  0  0  0  0  0  0  0  0
    4.1572   -6.2950   10.4169 C   0  0  0  0  0  0  0  0  0  0  0  0
    3.8275   -6.6173    8.9884 C   0  0  0  0  0  0  0  0  0  0  0  0
    5.1603   -6.7122    8.2836 N   0  0  0  0  0  0  0  0  0  0  0  0
  1  2  1  0  0  0  0
  2  3  1  0  0  0  0
  3  4  1  0  0  0  0
  4  5  1  0  0  0  0
  5  6  1  0  0  0  0
  6  7  1  0  0  0  0
  7  8  1  0  0  0  0
  8  9  1  0  0  0  0
  9 10  1  0  0  0  0
 10 11  1  0  0  0  0
 11 12  1  0  0  0  0
 12 13  1  0  0  0  0
 13 14  1  0  0  0  0
M  END
>  <CHROM.1>
176.63321156,179.44679439,-179.57590015,177.17625649,75.11891527,168.78632655
178.96967327,178.50700711,-92.07688735,-66.45682660,-177.34260337,0.68353307
-2.59139346,10.07341673,2.54607484,-0.56916250,0.64307907

>  <Name>
ligand

>  <RI>
0

>  <Rbt.Current_Directory>
/home/itssahil/PROJECTS/Mol_Feturizer/New_Systems/rnas/1FUF

>  <Rbt.Executable>
rbdock ($Id: //depot/dev/client3/rdock/2013.1/src/exe/rbdock.cxx#4 $)

>  <Rbt.Library>
libRbt.so (2013.1, Build901 2013/11/27)

>  <Rbt.Parameter_File>
/export/apps/rDock/src/rDock_2013.1_src/data/scripts/dock_solv.prm

>  <Rbt.Receptor>
prm/pocket_docking_4.prm

>  <SCORE>
-6.48059

>  <SCORE.INTER>
-3.14692

>  <SCORE.INTER.CONST>
1

>  <SCORE.INTER.POLAR>
0

>  <SCORE.INTER.ROT>
11

>  <SCORE.INTER.SOLV>
16.1796

>  <SCORE.INTER.VDW>
-18.4245

>  <SCORE.INTER.norm>
-0.22478

>  <SCORE.INTRA>
-3.33368

>  <SCORE.INTRA.DIHEDRAL>
-8.33892

>  <SCORE.INTRA.DIHEDRAL.0>
10.5765

>  <SCORE.INTRA.POLAR>
0

>  <SCORE.INTRA.POLAR.0>
0

>  <SCORE.INTRA.REPUL>
0

>  <SCORE.INTRA.REPUL.0>
0

>  <SCORE.INTRA.SOLV>
0.732649

>  <SCORE.INTRA.SOLV.lig_0>
-50.1861

>  <SCORE.INTRA.VDW>
0.46946

>  <SCORE.INTRA.VDW.0>
-1.36671

>  <SCORE.INTRA.norm>
-0.23812

>  <SCORE.RESTR>
0

>  <SCORE.RESTR.CAVITY>
0

>  <SCORE.RESTR.norm>
0

>  <SCORE.SYSTEM>
0

>  <SCORE.SYSTEM.CONST>
0

>  <SCORE.SYSTEM.DIHEDRAL>
0

>  <SCORE.SYSTEM.SOLV>
0

>  <SCORE.SYSTEM.norm>
0

>  <SCORE.heavy>
14

>  <SCORE.norm>
-0.462899

>  <RMSD>
2.222

$$$$
ligand
 OpenBabel11021811393D
libRbt.so/2013.1/901 2013/11/27
 14 13  0  0  0  0  0  0  0  0999 V2000
   -4.8555    1.0926    9.4550 N   0  0  0  0  0  0  0  0  0  0  0  0
   -3.6998    0.5664   10.3067 C   0  0  0  0  0  0  0  0  0  0  0  0
   -2.4704    1.1509    9.7121 C   0  0  0  0  0  0  0  0  0  0  0  0
   -1.1957    0.8653   10.4894 C   0  0  0  0  0  0  0  0  0  0  0  0
   -0.8840   -0.5872   10.4155 N   0  0  0  0  0  0  0  0  0  0  0  0
    0.6280   -0.7955   10.6165 C   0  0  0  0  0  0  0  0  0  0  0  0
    0.7510   -2.3943   10.5956 C   0  0  0  0  0  0  0  0  0  0  0  0
    2.0080   -2.7341   10.7474 C   0  0  0  0  0  0  0  0  0  0  0  0
    1.7809   -4.3536   10.6625 C   0  0  0  0  0  0  0  0  0  0  0  0
    3.2639   -4.7956   10.9009 N   0  0  0  0  0  0  0  0  0  0  0  0
    3.5025   -6.3442   10.6908 C   0  0  0  0  0  0  0  0  0  0  0  0
    3.7703   -6.5447    9.0921 C   0  0  0  0  0  0  0  0  0  0  0  0
    5.1300   -5.9440    8.8836 C   0  0  0  0  0  0  0  0  0  0  0  0
    4.9143   -4.4492    8.9150 N   0  0  0  0  0  0  0  0  0  0  0  0
  1  2  1  0  0  0  0
  2  3  1  0  0  0  0
  3  4  1  0  0  0  0
  4  5  1  0  0  0  0
  5  6  1  0  0  0  0
  6  7  1  0  0  0  0
  7  8  1  0  0  0  0
  8  9  1  0  0  0  0
  9 10  1  0  0  0  0
 10 11  1  0  0  0  0
 11 12  1  0  0  0  0
 12 13  1  0  0  0  0
 13 14  1  0  0  0  0
M  END
>  <CHROM.1>
174.37216000,67.39142306,154.86737193,176.67463619,179.48286312,-179.33232774
-177.78040988,-171.94672754,85.51498819,71.17662638,-75.97247580,0.90323622
-2.51921584,10.10601121,2.40429805,0.04904767,-0.00334978

>  <Name>
ligand

>  <RI>
0

>  <Rbt.Current_Directory>
/home/itssahil/PROJECTS/Mol_Feturizer/New_Systems/rnas/1FUF

>  <Rbt.Executable>
rbdock ($Id: //depot/dev/client3/rdock/2013.1/src/exe/rbdock.cxx#4 $)

>  <Rbt.Library>
libRbt.so (2013.1, Build901 2013/11/27)

>  <Rbt.Parameter_File>
/export/apps/rDock/src/rDock_2013.1_src/data/scripts/dock_solv.prm

>  <Rbt.Receptor>
prm/pocket_docking_7.prm

>  <SCORE>
-3.50337

>  <SCORE.INTER>
-2.25718

>  <SCORE.INTER.CONST>
1

>  <SCORE.INTER.POLAR>
0

>  <SCORE.INTER.ROT>
11

>  <SCORE.INTER.SOLV>
15.8187

>  <SCORE.INTER.VDW>
-17.711

>  <SCORE.INTER.norm>
-0.161227

>  <SCORE.INTRA>
-1.24619

>  <SCORE.INTRA.DIHEDRAL>
-7.89161

>  <SCORE.INTRA.DIHEDRAL.0>
10.5765

>  <SCORE.INTRA.POLAR>
0

>  <SCORE.INTRA.POLAR.0>
0

>  <SCORE.INTRA.REPUL>
0

>  <SCORE.INTRA.REPUL.0>
0

>  <SCORE.INTRA.SOLV>
4.47141

>  <SCORE.INTRA.SOLV.lig_0>
-50.1861

>  <SCORE.INTRA.VDW>
0.463915

>  <SCORE.INTRA.VDW.0>
-1.36671

>  <SCORE.INTRA.norm>
-0.0890133

>  <SCORE.RESTR>
0

>  <SCORE.RESTR.CAVITY>
0

>  <SCORE.RESTR.norm>
0

>  <SCORE.SYSTEM>
0

>  <SCORE.SYSTEM.CONST>
0

>  <SCORE.SYSTEM.DIHEDRAL>
0

>  <SCORE.SYSTEM.SOLV>
0

>  <SCORE.SYSTEM.norm>
0

>  <SCORE.heavy>
14

>  <SCORE.norm>
-0.250241

>  <RMSD>
2.231

$$$$
ligand
 OpenBabel11021811393D
libRbt.so/2013.1/901 2013/11/27
 14 13  0  0  0  0  0  0  0  0999 V2000
    5.1846   -6.7583    8.3612 N   0  0  0  0  0  0  0  0  0  0  0  0
    3.8148   -6.2889    8.8521 C   0  0  0  0  0  0  0  0  0  0  0  0
    3.9974   -5.9679   10.2910 C   0  0  0  0  0  0  0  0  0  0  0  0
    2.7471   -5.4555   10.9873 C   0  0  0  0  0  0  0  0  0  0  0  0
    2.2698   -4.2222   10.3066 N   0  0  0  0  0  0  0  0  0  0  0  0
    3.1201   -3.0241   10.7663 C   0  0  0  0  0  0  0  0  0  0  0  0
    2.1352   -1.7891   10.4892 C   0  0  0  0  0  0  0  0  0  0  0  0
    1.1713   -1.7960   11.3778 C   0  0  0  0  0  0  0  0  0  0  0  0
    0.5788   -0.3095   11.0299 C   0  0  0  0  0  0  0  0  0  0  0  0
   -0.4378   -0.7338    9.9173 N   0  0  0  0  0  0  0  0  0  0  0  0
   -1.3047    0.4666    9.3635 C   0  0  0  0  0  0  0  0  0  0  0  0
   -2.5987    0.5807   10.3538 C   0  0  0  0  0  0  0  0  0  0  0  0
   -3.2863    1.8331    9.8935 C   0  0  0  0  0  0  0  0  0  0  0  0
   -3.8865    1.4877    8.5510 N   0  0  0  0  0  0  0  0  0  0  0  0
  1  2  1  0  0  0  0
  2  3  1  0  0  0  0
  3  4  1  0  0  0  0
  4  5  1  0  0  0  0
  5  6  1  0  0  0  0
  6  7  1  0  0  0  0
  7  8  1  0  0  0  0
  8  9  1  0  0  0  0
  9 10  1  0  0  0  0
 10 11  1  0  0  0  0
 11 12  1  0  0  0  0
 12 13  1  0  0  0  0
 13 14  1  0  0  0  0
M  END
>  <CHROM.1>
179.19370658,-58.95089229,-79.25219388,-156.40094934,72.55552228,168.70119799
88.87936863,176.59360619,-87.05923609,172.98443701,71.20152457,0.96472979
-2.28397664,10.03892309,0.47402111,0.68323134,-2.25261463

>  <Name>
ligand

>  <RI>
0

>  <Rbt.Current_Directory>
/home/itssahil/PROJECTS/Mol_Feturizer/New_Systems/rnas/1FUF

>  <Rbt.Executable>
rbdock ($Id: //depot/dev/client3/rdock/2013.1/src/exe/rbdock.cxx#4 $)

>  <Rbt.Library>
libRbt.so (2013.1, Build901 2013/11/27)

>  <Rbt.Parameter_File>
/export/apps/rDock/src/rDock_2013.1_src/data/scripts/dock_solv.prm

>  <Rbt.Receptor>
prm/blind_docking_60.prm

>  <SCORE>
-1.97534

>  <SCORE.INTER>
-2.15075

>  <SCORE.INTER.CONST>
1

>  <SCORE.INTER.POLAR>
0

>  <SCORE.INTER.ROT>
11

>  <SCORE.INTER.SOLV>
15.7038

>  <SCORE.INTER.VDW>
-17.6018

>  <SCORE.INTER.norm>
-0.153625

>  <SCORE.INTRA>
0.175406

>  <SCORE.INTRA.DIHEDRAL>
-5.03099

>  <SCORE.INTRA.DIHEDRAL.0>
10.5765

>  <SCORE.INTRA.POLAR>
0

>  <SCORE.INTRA.POLAR.0>
0

>  <SCORE.INTRA.REPUL>
0.00240064

>  <SCORE.INTRA.REPUL.0>
0

>  <SCORE.INTRA.SOLV>
1.9435

>  <SCORE.INTRA.SOLV.lig_0>
-50.1861

>  <SCORE.INTRA.VDW>
1.70714

>  <SCORE.INTRA.VDW.0>
-1.36671

>  <SCORE.INTRA.norm>
0.012529

>  <SCORE.RESTR>
0

>  <SCORE.RESTR.CAVITY>
0

>  <SCORE.RESTR.norm>
0

>  <SCORE.SYSTEM>
0

>  <SCORE.SYSTEM.CONST>
0

>  <SCORE.SYSTEM.DIHEDRAL>
0

>  <SCORE.SYSTEM.SOLV>
0

>  <SCORE.SYSTEM.norm>
0

>  <SCORE.heavy>
14

>  <SCORE.norm>
-0.141096

>  <RMSD>
2.236

$$$$
ligand
 OpenBabel11021811393D
libRbt.so/2013.1/901 2013/11/27
 14 13  0  0  0  0  0  0  0  0999 V2000
   -4.7856    1.2275    9.5175 N   0  0  0  0  0  0  0  0  0  0  0  0
   -3.3651    1.6128    9.9316 C   0  0  0  0  0  0  0  0  0  0  0  0
   -2.6120    0.3344   10.0036 C   0  0  0  0  0  0  0  0  0  0  0  0
   -1.1820    0.4710   10.5007 C   0  0  0  0  0  0  0  0  0  0  0  0
   -0.5557   -0.8752   10.5872 N   0  0  0  0  0  0  0  0  0  0  0  0
    0.9555   -0.7531   10.3200 C   0  0  0  0  0  0  0  0  0  0  0  0
    1.5391   -2.0172   11.1158 C   0  0  0  0  0  0  0  0  0  0  0  0
    1.3497   -3.1020   10.4046 C   0  0  0  0  0  0  0  0  0  0  0  0
    2.1010   -4.1364   11.4279 C   0  0  0  0  0  0  0  0  0  0  0  0
    2.2104   -5.3618   10.4595 N   0  0  0  0  0  0  0  0  0  0  0  0
    3.4451   -6.3002   10.7661 C   0  0  0  0  0  0  0  0  0  0  0  0
    4.7766   -5.3973   10.4838 C   0  0  0  0  0  0  0  0  0  0  0  0
    4.7122   -5.1246    9.0091 C   0  0  0  0  0  0  0  0  0  0  0  0
    5.1321   -6.4155    8.3464 N   0  0  0  0  0  0  0  0  0  0  0  0
  1  2  1  0  0  0  0
  2  3  1  0  0  0  0
  3  4  1  0  0  0  0
  4  5  1  0  0  0  0
  5  6  1  0  0  0  0
  6  7  1  0  0  0  0
  7  8  1  0  0  0  0
  8  9  1  0  0  0  0
  9 10  1  0  0  0  0
 10 11  1  0  0  0  0
 11 12  1  0  0  0  0
 12 13  1  0  0  0  0
 13 14  1  0  0  0  0
M  END
>  <CHROM.1>
-175.79926657,177.44887262,149.10634609,153.59289350,78.61422478,177.19777351
-166.64051949,151.60573730,-64.56618346,-64.88431121,-75.67224314,0.98028277
-2.55969480,10.20546885,-3.04981693,-0.74227747,1.73129303

>  <Name>
ligand

>  <RI>
0

>  <Rbt.Current_Directory>
/home/itssahil/PROJECTS/Mol_Feturizer/New_Systems/rnas/1FUF

>  <Rbt.Executable>
rbdock ($Id: //depot/dev/client3/rdock/2013.1/src/exe/rbdock.cxx#4 $)

>  <Rbt.Library>
libRbt.so (2013.1, Build901 2013/11/27)

>  <Rbt.Parameter_File>
/export/apps/rDock/src/rDock_2013.1_src/data/scripts/dock_solv.prm

>  <Rbt.Receptor>
prm/pocket_docking_8.prm

>  <SCORE>
-3.28401

>  <SCORE.INTER>
-2.29469

>  <SCORE.INTER.CONST>
1

>  <SCORE.INTER.POLAR>
0

>  <SCORE.INTER.ROT>
11

>  <SCORE.INTER.SOLV>
15.3696

>  <SCORE.INTER.VDW>
-17.5863

>  <SCORE.INTER.norm>
-0.163906

>  <SCORE.INTRA>
-0.989322

>  <SCORE.INTRA.DIHEDRAL>
-5.94344

>  <SCORE.INTRA.DIHEDRAL.0>
10.5765

>  <SCORE.INTRA.POLAR>
0

>  <SCORE.INTRA.POLAR.0>
0

>  <SCORE.INTRA.REPUL>
0

>  <SCORE.INTRA.REPUL.0>
0

>  <SCORE.INTRA.SOLV>
2.04507

>  <SCORE.INTRA.SOLV.lig_0>
-50.1861

>  <SCORE.INTRA.VDW>
0.959863

>  <SCORE.INTRA.VDW.0>
-1.36671

>  <SCORE.INTRA.norm>
-0.0706659

>  <SCORE.RESTR>
0

>  <SCORE.RESTR.CAVITY>
0

>  <SCORE.RESTR.norm>
0

>  <SCORE.SYSTEM>
0

>  <SCORE.SYSTEM.CONST>
0

>  <SCORE.SYSTEM.DIHEDRAL>
0

>  <SCORE.SYSTEM.SOLV>
0

>  <SCORE.SYSTEM.norm>
0

>  <SCORE.heavy>
14

>  <SCORE.norm>
-0.234572

>  <RMSD>
2.244

$$$$
ligand
 OpenBabel11021811393D
libRbt.so/2013.1/901 2013/11/27
 14 13  0  0  0  0  0  0  0  0999 V2000
    4.4079   -4.7189    9.7463 N   0  0  0  0  0  0  0  0  0  0  0  0
    2.9272   -4.4946   10.0548 C   0  0  0  0  0  0  0  0  0  0  0  0
    2.7975   -3.0435   10.3445 C   0  0  0  0  0  0  0  0  0  0  0  0
    1.3964   -2.5998   10.7324 C   0  0  0  0  0  0  0  0  0  0  0  0
    1.4151   -1.1577   11.0962 N   0  0  0  0  0  0  0  0  0  0  0  0
    0.0021   -0.7207   11.5230 C   0  0  0  0  0  0  0  0  0  0  0  0
   -0.5508   -0.0261   10.1874 C   0  0  0  0  0  0  0  0  0  0  0  0
   -1.7390    0.4765   10.4205 C   0  0  0  0  0  0  0  0  0  0  0  0
   -1.9876    1.0857    8.9209 C   0  0  0  0  0  0  0  0  0  0  0  0
   -3.3798    1.7522    9.1832 N   0  0  0  0  0  0  0  0  0  0  0  0
   -4.0768    2.2950    7.8722 C   0  0  0  0  0  0  0  0  0  0  0  0
   -5.3263    3.2179    8.3768 C   0  0  0  0  0  0  0  0  0  0  0  0
   -6.2389    2.2371    9.0539 C   0  0  0  0  0  0  0  0  0  0  0  0
   -7.4565    3.0366    9.4541 N   0  0  0  0  0  0  0  0  0  0  0  0
  1  2  1  0  0  0  0
  2  3  1  0  0  0  0
  3  4  1  0  0  0  0
  4  5  1  0  0  0  0
  5  6  1  0  0  0  0
  6  7  1  0  0  0  0
  7  8  1  0  0  0  0
  8  9  1  0  0  0  0
  9 10  1  0  0  0  0
 10 11  1  0  0  0  0
 11 12  1  0  0  0  0
 12 13  1  0  0  0  0
 13 14  1  0  0  0  0
M  END
>  <CHROM.1>
-177.85022119,175.74067650,-178.56392426,-98.90705431,-176.27749419,179.69775092
-177.63791721,-171.65449727,-168.17071125,-64.98945636,-176.23813912,-1.27210603
-0.18998542,9.78325780,-0.05772760,0.63774056,-1.71512499

>  <Name>
ligand

>  <RI>
0

>  <Rbt.Current_Directory>
/home/itssahil/PROJECTS/Mol_Feturizer/New_Systems/rnas/1FUF

>  <Rbt.Executable>
rbdock ($Id: //depot/dev/client3/rdock/2013.1/src/exe/rbdock.cxx#4 $)

>  <Rbt.Library>
libRbt.so (2013.1, Build901 2013/11/27)

>  <Rbt.Parameter_File>
/export/apps/rDock/src/rDock_2013.1_src/data/scripts/dock_solv.prm

>  <Rbt.Receptor>
prm/pocket_docking_6.prm

>  <SCORE>
-4.78067

>  <SCORE.INTER>
-0.720736

>  <SCORE.INTER.CONST>
1

>  <SCORE.INTER.POLAR>
0

>  <SCORE.INTER.ROT>
11

>  <SCORE.INTER.SOLV>
14.3809

>  <SCORE.INTER.VDW>
-16.2075

>  <SCORE.INTER.norm>
-0.0514811

>  <SCORE.INTRA>
-4.05993

>  <SCORE.INTRA.DIHEDRAL>
-9.23059

>  <SCORE.INTRA.DIHEDRAL.0>
10.5765

>  <SCORE.INTRA.POLAR>
0

>  <SCORE.INTRA.POLAR.0>
0

>  <SCORE.INTRA.REPUL>
0

>  <SCORE.INTRA.REPUL.0>
0

>  <SCORE.INTRA.SOLV>
0.364103

>  <SCORE.INTRA.SOLV.lig_0>
-50.1861

>  <SCORE.INTRA.VDW>
0.373312

>  <SCORE.INTRA.VDW.0>
-1.36671

>  <SCORE.INTRA.norm>
-0.289995

>  <SCORE.RESTR>
0

>  <SCORE.RESTR.CAVITY>
0

>  <SCORE.RESTR.norm>
0

>  <SCORE.SYSTEM>
0

>  <SCORE.SYSTEM.CONST>
0

>  <SCORE.SYSTEM.DIHEDRAL>
0

>  <SCORE.SYSTEM.SOLV>
0

>  <SCORE.SYSTEM.norm>
0

>  <SCORE.heavy>
14

>  <SCORE.norm>
-0.341476

>  <RMSD>
2.250

$$$$
ligand
 OpenBabel11021811393D
libRbt.so/2013.1/901 2013/11/27
 14 13  0  0  0  0  0  0  0  0999 V2000
   -4.4082    1.0972    9.2732 N   0  0  0  0  0  0  0  0  0  0  0  0
   -3.1716    1.9303    8.9343 C   0  0  0  0  0  0  0  0  0  0  0  0
   -2.0361    0.9726    8.9322 C   0  0  0  0  0  0  0  0  0  0  0  0
   -1.7041    0.3838   10.2937 C   0  0  0  0  0  0  0  0  0  0  0  0
   -0.4733   -0.4447   10.1896 N   0  0  0  0  0  0  0  0  0  0  0  0
   -0.0748   -0.9446   11.5900 C   0  0  0  0  0  0  0  0  0  0  0  0
    1.3826   -1.5588   11.3237 C   0  0  0  0  0  0  0  0  0  0  0  0
    1.2644   -2.6806   10.6558 C   0  0  0  0  0  0  0  0  0  0  0  0
    2.8435   -3.1095   10.7198 C   0  0  0  0  0  0  0  0  0  0  0  0
    2.7350   -4.4618    9.9382 N   0  0  0  0  0  0  0  0  0  0  0  0
    4.0815   -5.2899    9.9196 C   0  0  0  0  0  0  0  0  0  0  0  0
    3.8208   -6.5490    8.9124 C   0  0  0  0  0  0  0  0  0  0  0  0
    5.1508   -7.2431    8.8630 C   0  0  0  0  0  0  0  0  0  0  0  0
    6.0600   -6.3082    8.1006 N   0  0  0  0  0  0  0  0  0  0  0  0
  1  2  1  0  0  0  0
  2  3  1  0  0  0  0
  3  4  1  0  0  0  0
  4  5  1  0  0  0  0
  5  6  1  0  0  0  0
  6  7  1  0  0  0  0
  7  8  1  0  0  0  0
  8  9  1  0  0  0  0
  9 10  1  0  0  0  0
 10 11  1  0  0  0  0
 11 12  1  0  0  0  0
 12 13  1  0  0  0  0
 13 14  1  0  0  0  0
M  END
>  <CHROM.1>
-66.89898898,-174.24843540,175.39366952,-169.68723741,-72.48269107,-173.52071224
179.46767626,-173.63315997,-172.99111809,176.38931931,-69.78716402,1.10509753
-2.44326785,9.83203854,2.78888816,-0.70270340,1.12652927

>  <Name>
ligand

>  <RI>
0

>  <Rbt.Current_Directory>
/home/itssahil/PROJECTS/Mol_Feturizer/New_Systems/rnas/1FUF

>  <Rbt.Executable>
rbdock ($Id: //depot/dev/client3/rdock/2013.1/src/exe/rbdock.cxx#4 $)

>  <Rbt.Library>
libRbt.so (2013.1, Build901 2013/11/27)

>  <Rbt.Parameter_File>
/export/apps/rDock/src/rDock_2013.1_src/data/scripts/dock_solv.prm

>  <Rbt.Receptor>
prm/blind_docking_20.prm

>  <SCORE>
-4.58729

>  <SCORE.INTER>
-2.0069

>  <SCORE.INTER.CONST>
1

>  <SCORE.INTER.POLAR>
0

>  <SCORE.INTER.ROT>
11

>  <SCORE.INTER.SOLV>
15.0317

>  <SCORE.INTER.VDW>
-17.2818

>  <SCORE.INTER.norm>
-0.14335

>  <SCORE.INTRA>
-2.58039

>  <SCORE.INTRA.DIHEDRAL>
-8.95039

>  <SCORE.INTRA.DIHEDRAL.0>
10.5765

>  <SCORE.INTRA.POLAR>
0

>  <SCORE.INTRA.POLAR.0>
0

>  <SCORE.INTRA.REPUL>
0

>  <SCORE.INTRA.REPUL.0>
0

>  <SCORE.INTRA.SOLV>
2.06098

>  <SCORE.INTRA.SOLV.lig_0>
-50.1861

>  <SCORE.INTRA.VDW>
0.864317

>  <SCORE.INTRA.VDW.0>
-1.36671

>  <SCORE.INTRA.norm>
-0.184313

>  <SCORE.RESTR>
0

>  <SCORE.RESTR.CAVITY>
0

>  <SCORE.RESTR.norm>
0

>  <SCORE.SYSTEM>
0

>  <SCORE.SYSTEM.CONST>
0

>  <SCORE.SYSTEM.DIHEDRAL>
0

>  <SCORE.SYSTEM.SOLV>
0

>  <SCORE.SYSTEM.norm>
0

>  <SCORE.heavy>
14

>  <SCORE.norm>
-0.327664

>  <RMSD>
2.256

$$$$
ligand
 OpenBabel11021811393D
libRbt.so/2013.1/901 2013/11/27
 14 13  0  0  0  0  0  0  0  0999 V2000
    4.8291   -5.5576    9.2437 N   0  0  0  0  0  0  0  0  0  0  0  0
    4.6866   -5.7447   10.7546 C   0  0  0  0  0  0  0  0  0  0  0  0
    3.3042   -6.2467   10.9637 C   0  0  0  0  0  0  0  0  0  0  0  0
    2.2116   -5.2387   10.6464 C   0  0  0  0  0  0  0  0  0  0  0  0
    2.1751   -4.1959   11.7064 N   0  0  0  0  0  0  0  0  0  0  0  0
    3.0165   -2.9861   11.2611 C   0  0  0  0  0  0  0  0  0  0  0  0
    1.9438   -2.1135   10.4488 C   0  0  0  0  0  0  0  0  0  0  0  0
    1.0338   -1.6637   11.2784 C   0  0  0  0  0  0  0  0  0  0  0  0
    0.1780   -0.8047   10.1778 C   0  0  0  0  0  0  0  0  0  0  0  0
   -0.9228   -0.2481   11.1421 N   0  0  0  0  0  0  0  0  0  0  0  0
   -1.5488    1.1217   10.6616 C   0  0  0  0  0  0  0  0  0  0  0  0
   -2.6000    0.7420    9.4705 C   0  0  0  0  0  0  0  0  0  0  0  0
   -3.0291    2.0786    8.9389 C   0  0  0  0  0  0  0  0  0  0  0  0
   -4.0695    1.7736    7.8871 N   0  0  0  0  0  0  0  0  0  0  0  0
  1  2  1  0  0  0  0
  2  3  1  0  0  0  0
  3  4  1  0  0  0  0
  4  5  1  0  0  0  0
  5  6  1  0  0  0  0
  6  7  1  0  0  0  0
  7  8  1  0  0  0  0
  8  9  1  0  0  0  0
  9 10  1  0  0  0  0
 10 11  1  0  0  0  0
 11 12  1  0  0  0  0
 12 13  1  0  0  0  0
 13 14  1  0  0  0  0
M  END
>  <CHROM.1>
-67.78856052,-72.87664370,95.03272944,88.00298665,66.92798459,177.79002598
-179.89940280,153.14158699,77.61375743,-173.10072119,-176.65721159,0.80072883
-2.07740806,10.32736359,0.18983481,0.79387861,-2.03329448

>  <Name>
ligand

>  <RI>
0

>  <Rbt.Current_Directory>
/home/itssahil/PROJECTS/Mol_Feturizer/New_Systems/rnas/1FUF

>  <Rbt.Executable>
rbdock ($Id: //depot/dev/client3/rdock/2013.1/src/exe/rbdock.cxx#4 $)

>  <Rbt.Library>
libRbt.so (2013.1, Build901 2013/11/27)

>  <Rbt.Parameter_File>
/export/apps/rDock/src/rDock_2013.1_src/data/scripts/dock_solv.prm

>  <Rbt.Receptor>
prm/blind_docking_100.prm

>  <SCORE>
-3.43799

>  <SCORE.INTER>
-2.54857

>  <SCORE.INTER.CONST>
1

>  <SCORE.INTER.POLAR>
0

>  <SCORE.INTER.ROT>
11

>  <SCORE.INTER.SOLV>
16.602

>  <SCORE.INTER.VDW>
-18.1664

>  <SCORE.INTER.norm>
-0.18204

>  <SCORE.INTRA>
-0.889425

>  <SCORE.INTRA.DIHEDRAL>
-7.29282

>  <SCORE.INTRA.DIHEDRAL.0>
10.5765

>  <SCORE.INTRA.POLAR>
0

>  <SCORE.INTRA.POLAR.0>
0

>  <SCORE.INTRA.REPUL>
0

>  <SCORE.INTRA.REPUL.0>
0

>  <SCORE.INTRA.SOLV>
2.62582

>  <SCORE.INTRA.SOLV.lig_0>
-50.1861

>  <SCORE.INTRA.VDW>
1.44407

>  <SCORE.INTRA.VDW.0>
-1.36671

>  <SCORE.INTRA.norm>
-0.0635304

>  <SCORE.RESTR>
0

>  <SCORE.RESTR.CAVITY>
0

>  <SCORE.RESTR.norm>
0

>  <SCORE.SYSTEM>
0

>  <SCORE.SYSTEM.CONST>
0

>  <SCORE.SYSTEM.DIHEDRAL>
0

>  <SCORE.SYSTEM.SOLV>
0

>  <SCORE.SYSTEM.norm>
0

>  <SCORE.heavy>
14

>  <SCORE.norm>
-0.245571

>  <RMSD>
2.257

$$$$
ligand
 OpenBabel11021811393D
libRbt.so/2013.1/901 2013/11/27
 14 13  0  0  0  0  0  0  0  0999 V2000
   -3.3252    3.4871    6.6755 N   0  0  0  0  0  0  0  0  0  0  0  0
   -3.6637    2.4279    7.7251 C   0  0  0  0  0  0  0  0  0  0  0  0
   -2.3837    2.1332    8.4188 C   0  0  0  0  0  0  0  0  0  0  0  0
   -2.4694    1.0290    9.4599 C   0  0  0  0  0  0  0  0  0  0  0  0
   -1.1449    0.8606   10.1153 N   0  0  0  0  0  0  0  0  0  0  0  0
   -1.0468   -0.5554   10.7112 C   0  0  0  0  0  0  0  0  0  0  0  0
    0.4796   -0.9415   10.4064 C   0  0  0  0  0  0  0  0  0  0  0  0
    0.6838   -2.1938   10.7362 C   0  0  0  0  0  0  0  0  0  0  0  0
    2.2765   -2.2349   10.3578 C   0  0  0  0  0  0  0  0  0  0  0  0
    2.5436   -3.7398   10.6972 N   0  0  0  0  0  0  0  0  0  0  0  0
    4.0750   -4.1311   10.6687 C   0  0  0  0  0  0  0  0  0  0  0  0
    4.1298   -5.7481   10.8931 C   0  0  0  0  0  0  0  0  0  0  0  0
    3.5864   -6.3016    9.6080 C   0  0  0  0  0  0  0  0  0  0  0  0
    4.6989   -6.1335    8.5999 N   0  0  0  0  0  0  0  0  0  0  0  0
  1  2  1  0  0  0  0
  2  3  1  0  0  0  0
  3  4  1  0  0  0  0
  4  5  1  0  0  0  0
  5  6  1  0  0  0  0
  6  7  1  0  0  0  0
  7  8  1  0  0  0  0
  8  9  1  0  0  0  0
  9 10  1  0  0  0  0
 10 11  1  0  0  0  0
 11 12  1  0  0  0  0
 12 13  1  0  0  0  0
 13 14  1  0  0  0  0
M  END
>  <CHROM.1>
-176.38126241,-178.00446099,-157.07169837,141.48431134,-173.44534559,-178.33258447
-178.22283665,-171.01558315,-174.37208216,70.71118988,75.22129887,0.60281477
-1.57450139,9.64833966,-2.98477016,-0.84357359,1.54550956

>  <Name>
ligand

>  <RI>
0

>  <Rbt.Current_Directory>
/home/itssahil/PROJECTS/Mol_Feturizer/New_Systems/rnas/1FUF

>  <Rbt.Executable>
rbdock ($Id: //depot/dev/client3/rdock/2013.1/src/exe/rbdock.cxx#4 $)

>  <Rbt.Library>
libRbt.so (2013.1, Build901 2013/11/27)

>  <Rbt.Parameter_File>
/export/apps/rDock/src/rDock_2013.1_src/data/scripts/dock_solv.prm

>  <Rbt.Receptor>
prm/blind_docking_40.prm

>  <SCORE>
-5.63361

>  <SCORE.INTER>
-2.82199

>  <SCORE.INTER.CONST>
1

>  <SCORE.INTER.POLAR>
0

>  <SCORE.INTER.ROT>
11

>  <SCORE.INTER.SOLV>
16.5909

>  <SCORE.INTER.VDW>
-18.345

>  <SCORE.INTER.norm>
-0.201571

>  <SCORE.INTRA>
-2.81162

>  <SCORE.INTRA.DIHEDRAL>
-7.74087

>  <SCORE.INTRA.DIHEDRAL.0>
10.5765

>  <SCORE.INTRA.POLAR>
0

>  <SCORE.INTRA.POLAR.0>
0

>  <SCORE.INTRA.REPUL>
0

>  <SCORE.INTRA.REPUL.0>
0

>  <SCORE.INTRA.SOLV>
1.5356

>  <SCORE.INTRA.SOLV.lig_0>
-50.1861

>  <SCORE.INTRA.VDW>
0.291014

>  <SCORE.INTRA.VDW.0>
-1.36671

>  <SCORE.INTRA.norm>
-0.20083

>  <SCORE.RESTR>
0

>  <SCORE.RESTR.CAVITY>
0

>  <SCORE.RESTR.norm>
0

>  <SCORE.SYSTEM>
0

>  <SCORE.SYSTEM.CONST>
0

>  <SCORE.SYSTEM.DIHEDRAL>
0

>  <SCORE.SYSTEM.SOLV>
0

>  <SCORE.SYSTEM.norm>
0

>  <SCORE.heavy>
14

>  <SCORE.norm>
-0.402401

>  <RMSD>
2.264

$$$$
ligand
 OpenBabel11021811393D
libRbt.so/2013.1/901 2013/11/27
 14 13  0  0  0  0  0  0  0  0999 V2000
    4.1433   -5.2642    9.9734 N   0  0  0  0  0  0  0  0  0  0  0  0
    2.9434   -4.5219   10.5629 C   0  0  0  0  0  0  0  0  0  0  0  0
    3.4316   -3.1506   10.8593 C   0  0  0  0  0  0  0  0  0  0  0  0
    2.3930   -2.2312   11.4809 C   0  0  0  0  0  0  0  0  0  0  0  0
    1.2788   -2.0185   10.5188 N   0  0  0  0  0  0  0  0  0  0  0  0
    0.8739   -0.5333   10.5272 C   0  0  0  0  0  0  0  0  0  0  0  0
   -0.7273   -0.6233   10.5281 C   0  0  0  0  0  0  0  0  0  0  0  0
   -1.2284    0.5697   10.3170 C   0  0  0  0  0  0  0  0  0  0  0  0
   -2.8019    0.1166   10.2978 C   0  0  0  0  0  0  0  0  0  0  0  0
   -3.4232    1.4991    9.9056 N   0  0  0  0  0  0  0  0  0  0  0  0
   -5.0039    1.5096    9.9269 C   0  0  0  0  0  0  0  0  0  0  0  0
   -5.4524    2.9406    9.2797 C   0  0  0  0  0  0  0  0  0  0  0  0
   -5.0437    2.8209    7.8403 C   0  0  0  0  0  0  0  0  0  0  0  0
   -5.6852    3.9983    7.1446 N   0  0  0  0  0  0  0  0  0  0  0  0
  1  2  1  0  0  0  0
  2  3  1  0  0  0  0
  3  4  1  0  0  0  0
  4  5  1  0  0  0  0
  5  6  1  0  0  0  0
  6  7  1  0  0  0  0
  7  8  1  0  0  0  0
  8  9  1  0  0  0  0
  9 10  1  0  0  0  0
 10 11  1  0  0  0  0
 11 12  1  0  0  0  0
 12 13  1  0  0  0  0
 13 14  1  0  0  0  0
M  END
>  <CHROM.1>
-179.14280347,-63.55220153,-137.42477710,-136.59839868,-169.85172821,177.11310630
-174.68976664,-174.04731491,-171.62546406,67.97386278,168.89127888,-1.02161837
-0.34911447,9.94040908,-0.16747681,0.66968599,-1.60506905

>  <Name>
ligand

>  <RI>
0

>  <Rbt.Current_Directory>
/home/itssahil/PROJECTS/Mol_Feturizer/New_Systems/rnas/1FUF

>  <Rbt.Executable>
rbdock ($Id: //depot/dev/client3/rdock/2013.1/src/exe/rbdock.cxx#4 $)

>  <Rbt.Library>
libRbt.so (2013.1, Build901 2013/11/27)

>  <Rbt.Parameter_File>
/export/apps/rDock/src/rDock_2013.1_src/data/scripts/dock_solv.prm

>  <Rbt.Receptor>
prm/blind_docking_40.prm

>  <SCORE>
-3.94093

>  <SCORE.INTER>
-0.872572

>  <SCORE.INTER.CONST>
1

>  <SCORE.INTER.POLAR>
0

>  <SCORE.INTER.ROT>
11

>  <SCORE.INTER.SOLV>
18.3996

>  <SCORE.INTER.VDW>
-17.6482

>  <SCORE.INTER.norm>
-0.0623266

>  <SCORE.INTRA>
-3.06836

>  <SCORE.INTRA.DIHEDRAL>
-7.27358

>  <SCORE.INTRA.DIHEDRAL.0>
10.5765

>  <SCORE.INTRA.POLAR>
0

>  <SCORE.INTRA.POLAR.0>
0

>  <SCORE.INTRA.REPUL>
0

>  <SCORE.INTRA.REPUL.0>
0

>  <SCORE.INTRA.SOLV>
0.648726

>  <SCORE.INTRA.SOLV.lig_0>
-50.1861

>  <SCORE.INTRA.VDW>
0.244072

>  <SCORE.INTRA.VDW.0>
-1.36671

>  <SCORE.INTRA.norm>
-0.219168

>  <SCORE.RESTR>
0

>  <SCORE.RESTR.CAVITY>
0

>  <SCORE.RESTR.norm>
0

>  <SCORE.SYSTEM>
0

>  <SCORE.SYSTEM.CONST>
0

>  <SCORE.SYSTEM.DIHEDRAL>
0

>  <SCORE.SYSTEM.SOLV>
0

>  <SCORE.SYSTEM.norm>
0

>  <SCORE.heavy>
14

>  <SCORE.norm>
-0.281495

>  <RMSD>
2.265

$$$$
ligand
 OpenBabel11021811393D
libRbt.so/2013.1/901 2013/11/27
 14 13  0  0  0  0  0  0  0  0999 V2000
    3.9958   -4.2711    9.6243 N   0  0  0  0  0  0  0  0  0  0  0  0
    3.6132   -3.9688   11.0735 C   0  0  0  0  0  0  0  0  0  0  0  0
    2.1407   -4.1521   11.1418 C   0  0  0  0  0  0  0  0  0  0  0  0
    1.3392   -3.1182   10.3677 C   0  0  0  0  0  0  0  0  0  0  0  0
    1.3217   -1.8366   11.1223 N   0  0  0  0  0  0  0  0  0  0  0  0
    0.9177   -0.6923   10.1753 C   0  0  0  0  0  0  0  0  0  0  0  0
   -0.5991   -0.4137   10.6153 C   0  0  0  0  0  0  0  0  0  0  0  0
   -1.0836    0.5722    9.8999 C   0  0  0  0  0  0  0  0  0  0  0  0
   -2.5919    0.5492   10.5374 C   0  0  0  0  0  0  0  0  0  0  0  0
   -3.1456    1.8352    9.8367 N   0  0  0  0  0  0  0  0  0  0  0  0
   -3.8568    1.5445    8.4551 C   0  0  0  0  0  0  0  0  0  0  0  0
   -4.7854    2.8518    8.1440 C   0  0  0  0  0  0  0  0  0  0  0  0
   -5.8508    2.7874    9.1994 C   0  0  0  0  0  0  0  0  0  0  0  0
   -6.8367    3.8730    8.8371 N   0  0  0  0  0  0  0  0  0  0  0  0
  1  2  1  0  0  0  0
  2  3  1  0  0  0  0
  3  4  1  0  0  0  0
  4  5  1  0  0  0  0
  5  6  1  0  0  0  0
  6  7  1  0  0  0  0
  7  8  1  0  0  0  0
  8  9  1  0  0  0  0
  9 10  1  0  0  0  0
 10 11  1  0  0  0  0
 11 12  1  0  0  0  0
 12 13  1  0  0  0  0
 13 14  1  0  0  0  0
M  END
>  <CHROM.1>
-68.07495150,-75.82315886,162.17662558,104.49123053,178.87758455,177.91307489
173.11896871,91.31698602,161.07631356,-67.87523339,-172.66758839,-1.10153393
-0.31719495,9.93073765,-0.22039979,0.65700796,-1.47932921

>  <Name>
ligand

>  <RI>
0

>  <Rbt.Current_Directory>
/home/itssahil/PROJECTS/Mol_Feturizer/New_Systems/rnas/1FUF

>  <Rbt.Executable>
rbdock ($Id: //depot/dev/client3/rdock/2013.1/src/exe/rbdock.cxx#4 $)

>  <Rbt.Library>
libRbt.so (2013.1, Build901 2013/11/27)

>  <Rbt.Parameter_File>
/export/apps/rDock/src/rDock_2013.1_src/data/scripts/dock_solv.prm

>  <Rbt.Receptor>
prm/pocket_docking_4.prm

>  <SCORE>
-2.03609

>  <SCORE.INTER>
-0.113927

>  <SCORE.INTER.CONST>
1

>  <SCORE.INTER.POLAR>
0

>  <SCORE.INTER.ROT>
11

>  <SCORE.INTER.SOLV>
18.3895

>  <SCORE.INTER.VDW>
-17.1391

>  <SCORE.INTER.norm>
-0.00813767

>  <SCORE.INTRA>
-1.92216

>  <SCORE.INTRA.DIHEDRAL>
-6.63845

>  <SCORE.INTRA.DIHEDRAL.0>
10.5765

>  <SCORE.INTRA.POLAR>
0

>  <SCORE.INTRA.POLAR.0>
0

>  <SCORE.INTRA.REPUL>
0

>  <SCORE.INTRA.REPUL.0>
0

>  <SCORE.INTRA.SOLV>
1.80324

>  <SCORE.INTRA.SOLV.lig_0>
-50.1861

>  <SCORE.INTRA.VDW>
0.495441

>  <SCORE.INTRA.VDW.0>
-1.36671

>  <SCORE.INTRA.norm>
-0.137297

>  <SCORE.RESTR>
0

>  <SCORE.RESTR.CAVITY>
0

>  <SCORE.RESTR.norm>
0

>  <SCORE.SYSTEM>
0

>  <SCORE.SYSTEM.CONST>
0

>  <SCORE.SYSTEM.DIHEDRAL>
0

>  <SCORE.SYSTEM.SOLV>
0

>  <SCORE.SYSTEM.norm>
0

>  <SCORE.heavy>
14

>  <SCORE.norm>
-0.145435

>  <RMSD>
2.265

$$$$
ligand
 OpenBabel11021811393D
libRbt.so/2013.1/901 2013/11/27
 14 13  0  0  0  0  0  0  0  0999 V2000
    5.0085   -7.6406    8.6482 N   0  0  0  0  0  0  0  0  0  0  0  0
    5.2814   -6.1869    9.0356 C   0  0  0  0  0  0  0  0  0  0  0  0
    4.0015   -5.6771    9.5911 C   0  0  0  0  0  0  0  0  0  0  0  0
    4.0364   -4.2201   10.0231 C   0  0  0  0  0  0  0  0  0  0  0  0
    2.6952   -3.8189   10.5256 N   0  0  0  0  0  0  0  0  0  0  0  0
    2.5121   -2.3022   10.3362 C   0  0  0  0  0  0  0  0  0  0  0  0
    0.9900   -2.0894   10.7943 C   0  0  0  0  0  0  0  0  0  0  0  0
    0.6307   -0.8539   10.5431 C   0  0  0  0  0  0  0  0  0  0  0  0
   -0.9373   -1.0157   10.9869 C   0  0  0  0  0  0  0  0  0  0  0  0
   -1.4277    0.4157   10.5843 N   0  0  0  0  0  0  0  0  0  0  0  0
   -2.9676    0.4795   10.2324 C   0  0  0  0  0  0  0  0  0  0  0  0
   -3.1964    1.9083    9.4748 C   0  0  0  0  0  0  0  0  0  0  0  0
   -2.4061    1.7661    8.2066 C   0  0  0  0  0  0  0  0  0  0  0  0
   -2.6484    3.0453    7.4406 N   0  0  0  0  0  0  0  0  0  0  0  0
  1  2  1  0  0  0  0
  2  3  1  0  0  0  0
  3  4  1  0  0  0  0
  4  5  1  0  0  0  0
  5  6  1  0  0  0  0
  6  7  1  0  0  0  0
  7  8  1  0  0  0  0
  8  9  1  0  0  0  0
  9 10  1  0  0  0  0
 10 11  1  0  0  0  0
 11 12  1  0  0  0  0
 12 13  1  0  0  0  0
 13 14  1  0  0  0  0
M  END
>  <CHROM.1>
-178.89807514,178.53470133,-153.51584081,174.85666057,-172.79736933,175.39176771
-175.48784624,153.50748409,-165.40688402,65.10647934,177.22737980,0.82656756
-1.87065008,9.74465490,-0.19261671,0.79681980,-1.34020851

>  <Name>
ligand

>  <RI>
0

>  <Rbt.Current_Directory>
/home/itssahil/PROJECTS/Mol_Feturizer/New_Systems/rnas/1FUF

>  <Rbt.Executable>
rbdock ($Id: //depot/dev/client3/rdock/2013.1/src/exe/rbdock.cxx#4 $)

>  <Rbt.Library>
libRbt.so (2013.1, Build901 2013/11/27)

>  <Rbt.Parameter_File>
/export/apps/rDock/src/rDock_2013.1_src/data/scripts/dock_solv.prm

>  <Rbt.Receptor>
prm/blind_docking_100.prm

>  <SCORE>
-4.59617

>  <SCORE.INTER>
-0.518281

>  <SCORE.INTER.CONST>
1

>  <SCORE.INTER.POLAR>
0

>  <SCORE.INTER.ROT>
11

>  <SCORE.INTER.SOLV>
18.1247

>  <SCORE.INTER.VDW>
-17.3204

>  <SCORE.INTER.norm>
-0.03702

>  <SCORE.INTRA>
-4.07789

>  <SCORE.INTRA.DIHEDRAL>
-8.90837

>  <SCORE.INTRA.DIHEDRAL.0>
10.5765

>  <SCORE.INTRA.POLAR>
0

>  <SCORE.INTRA.POLAR.0>
0

>  <SCORE.INTRA.REPUL>
0

>  <SCORE.INTRA.REPUL.0>
0

>  <SCORE.INTRA.SOLV>
0.378553

>  <SCORE.INTRA.SOLV.lig_0>
-50.1861

>  <SCORE.INTRA.VDW>
0.18702

>  <SCORE.INTRA.VDW.0>
-1.36671

>  <SCORE.INTRA.norm>
-0.291278

>  <SCORE.RESTR>
0

>  <SCORE.RESTR.CAVITY>
0

>  <SCORE.RESTR.norm>
0

>  <SCORE.SYSTEM>
0

>  <SCORE.SYSTEM.CONST>
0

>  <SCORE.SYSTEM.DIHEDRAL>
0

>  <SCORE.SYSTEM.SOLV>
0

>  <SCORE.SYSTEM.norm>
0

>  <SCORE.heavy>
14

>  <SCORE.norm>
-0.328298

>  <RMSD>
2.269

$$$$
ligand
 OpenBabel11021811393D
libRbt.so/2013.1/901 2013/11/27
 14 13  0  0  0  0  0  0  0  0999 V2000
    4.0896   -7.1094    8.7200 N   0  0  0  0  0  0  0  0  0  0  0  0
    4.6861   -6.0700    9.6697 C   0  0  0  0  0  0  0  0  0  0  0  0
    3.5481   -5.2080   10.0801 C   0  0  0  0  0  0  0  0  0  0  0  0
    3.9408   -3.9968   10.9104 C   0  0  0  0  0  0  0  0  0  0  0  0
    2.7148   -3.2896   11.3676 N   0  0  0  0  0  0  0  0  0  0  0  0
    2.4819   -2.0499   10.4852 C   0  0  0  0  0  0  0  0  0  0  0  0
    0.9762   -1.6479   10.8639 C   0  0  0  0  0  0  0  0  0  0  0  0
    0.6276   -0.5834   10.1828 C   0  0  0  0  0  0  0  0  0  0  0  0
   -0.9086   -0.4917   10.7425 C   0  0  0  0  0  0  0  0  0  0  0  0
   -1.3959    0.6993    9.8507 N   0  0  0  0  0  0  0  0  0  0  0  0
   -2.9636    0.7374    9.6502 C   0  0  0  0  0  0  0  0  0  0  0  0
   -3.3021    2.2123    9.0355 C   0  0  0  0  0  0  0  0  0  0  0  0
   -2.6204    2.2026    7.6983 C   0  0  0  0  0  0  0  0  0  0  0  0
   -3.0023    3.5109    7.0468 N   0  0  0  0  0  0  0  0  0  0  0  0
  1  2  1  0  0  0  0
  2  3  1  0  0  0  0
  3  4  1  0  0  0  0
  4  5  1  0  0  0  0
  5  6  1  0  0  0  0
  6  7  1  0  0  0  0
  7  8  1  0  0  0  0
  8  9  1  0  0  0  0
  9 10  1  0  0  0  0
 10 11  1  0  0  0  0
 11 12  1  0  0  0  0
 12 13  1  0  0  0  0
 13 14  1  0  0  0  0
M  END
>  <CHROM.1>
-173.34981401,-174.60642670,-101.60235940,166.30502603,179.74506652,177.95669059
-175.27588000,156.47950582,166.18101958,64.50182736,175.57617916,0.63374976
-1.50599817,9.73617968,0.06859774,0.84453762,-1.85464667

>  <Name>
ligand

>  <RI>
0

>  <Rbt.Current_Directory>
/home/itssahil/PROJECTS/Mol_Feturizer/New_Systems/rnas/1FUF

>  <Rbt.Executable>
rbdock ($Id: //depot/dev/client3/rdock/2013.1/src/exe/rbdock.cxx#4 $)

>  <Rbt.Library>
libRbt.so (2013.1, Build901 2013/11/27)

>  <Rbt.Parameter_File>
/export/apps/rDock/src/rDock_2013.1_src/data/scripts/dock_solv.prm

>  <Rbt.Receptor>
prm/blind_docking_80.prm

>  <SCORE>
-4.91612

>  <SCORE.INTER>
-1.2094

>  <SCORE.INTER.CONST>
1

>  <SCORE.INTER.POLAR>
0

>  <SCORE.INTER.ROT>
11

>  <SCORE.INTER.SOLV>
19.8648

>  <SCORE.INTER.VDW>
-18.3612

>  <SCORE.INTER.norm>
-0.086386

>  <SCORE.INTRA>
-3.70672

>  <SCORE.INTRA.DIHEDRAL>
-8.40883

>  <SCORE.INTRA.DIHEDRAL.0>
10.5765

>  <SCORE.INTRA.POLAR>
0

>  <SCORE.INTRA.POLAR.0>
0

>  <SCORE.INTRA.REPUL>
0

>  <SCORE.INTRA.REPUL.0>
0

>  <SCORE.INTRA.SOLV>
0.373544

>  <SCORE.INTRA.SOLV.lig_0>
-50.1861

>  <SCORE.INTRA.VDW>
0.310927

>  <SCORE.INTRA.VDW.0>
-1.36671

>  <SCORE.INTRA.norm>
-0.264765

>  <SCORE.RESTR>
0

>  <SCORE.RESTR.CAVITY>
0

>  <SCORE.RESTR.norm>
0

>  <SCORE.SYSTEM>
0

>  <SCORE.SYSTEM.CONST>
0

>  <SCORE.SYSTEM.DIHEDRAL>
0

>  <SCORE.SYSTEM.SOLV>
0

>  <SCORE.SYSTEM.norm>
0

>  <SCORE.heavy>
14

>  <SCORE.norm>
-0.351151

>  <RMSD>
2.270

$$$$
ligand
 OpenBabel11021811393D
libRbt.so/2013.1/901 2013/11/27
 14 13  0  0  0  0  0  0  0  0999 V2000
   -7.5735    1.9607    9.4565 N   0  0  0  0  0  0  0  0  0  0  0  0
   -6.9471    3.2285    8.8748 C   0  0  0  0  0  0  0  0  0  0  0  0
   -5.5174    3.1847    9.2757 C   0  0  0  0  0  0  0  0  0  0  0  0
   -4.7151    2.0654    8.6322 C   0  0  0  0  0  0  0  0  0  0  0  0
   -3.2858    2.1899    9.0245 N   0  0  0  0  0  0  0  0  0  0  0  0
   -2.9883    1.2204   10.1827 C   0  0  0  0  0  0  0  0  0  0  0  0
   -1.5119    0.7096    9.8202 C   0  0  0  0  0  0  0  0  0  0  0  0
   -1.1066   -0.1318   10.7403 C   0  0  0  0  0  0  0  0  0  0  0  0
    0.3511   -0.4611   10.0708 C   0  0  0  0  0  0  0  0  0  0  0  0
    0.8938   -1.4162   11.1864 N   0  0  0  0  0  0  0  0  0  0  0  0
    1.3032   -2.8455   10.6493 C   0  0  0  0  0  0  0  0  0  0  0  0
    2.9113   -2.7773   10.3712 C   0  0  0  0  0  0  0  0  0  0  0  0
    3.2441   -4.1573    9.8831 C   0  0  0  0  0  0  0  0  0  0  0  0
    4.7389   -4.1531    9.6652 N   0  0  0  0  0  0  0  0  0  0  0  0
  1  2  1  0  0  0  0
  2  3  1  0  0  0  0
  3  4  1  0  0  0  0
  4  5  1  0  0  0  0
  5  6  1  0  0  0  0
  6  7  1  0  0  0  0
  7  8  1  0  0  0  0
  8  9  1  0  0  0  0
  9 10  1  0  0  0  0
 10 11  1  0  0  0  0
 11 12  1  0  0  0  0
 12 13  1  0  0  0  0
 13 14  1  0  0  0  0
M  END
>  <CHROM.1>
66.87502698,175.57469401,98.83487809,142.21342241,179.42609690,178.95331181
177.41261720,123.07155024,95.50830900,179.30891387,-177.81876456,-1.44315133
-0.09869065,9.84520488,2.55427743,-0.01942382,-0.14837062

>  <Name>
ligand

>  <RI>
0

>  <Rbt.Current_Directory>
/home/itssahil/PROJECTS/Mol_Feturizer/New_Systems/rnas/1FUF

>  <Rbt.Executable>
rbdock ($Id: //depot/dev/client3/rdock/2013.1/src/exe/rbdock.cxx#4 $)

>  <Rbt.Library>
libRbt.so (2013.1, Build901 2013/11/27)

>  <Rbt.Parameter_File>
/export/apps/rDock/src/rDock_2013.1_src/data/scripts/dock_solv.prm

>  <Rbt.Receptor>
prm/pocket_docking_4.prm

>  <SCORE>
-2.9938

>  <SCORE.INTER>
-0.326382

>  <SCORE.INTER.CONST>
1

>  <SCORE.INTER.POLAR>
0

>  <SCORE.INTER.ROT>
11

>  <SCORE.INTER.SOLV>
15.801

>  <SCORE.INTER.VDW>
-16.4179

>  <SCORE.INTER.norm>
-0.023313

>  <SCORE.INTRA>
-2.66742

>  <SCORE.INTRA.DIHEDRAL>
-6.60631

>  <SCORE.INTRA.DIHEDRAL.0>
10.5765

>  <SCORE.INTRA.POLAR>
0

>  <SCORE.INTRA.POLAR.0>
0

>  <SCORE.INTRA.REPUL>
0

>  <SCORE.INTRA.REPUL.0>
0

>  <SCORE.INTRA.SOLV>
0.680358

>  <SCORE.INTRA.SOLV.lig_0>
-50.1861

>  <SCORE.INTRA.VDW>
0.295557

>  <SCORE.INTRA.VDW.0>
-1.36671

>  <SCORE.INTRA.norm>
-0.19053

>  <SCORE.RESTR>
0

>  <SCORE.RESTR.CAVITY>
0

>  <SCORE.RESTR.norm>
0

>  <SCORE.SYSTEM>
0

>  <SCORE.SYSTEM.CONST>
0

>  <SCORE.SYSTEM.DIHEDRAL>
0

>  <SCORE.SYSTEM.SOLV>
0

>  <SCORE.SYSTEM.norm>
0

>  <SCORE.heavy>
14

>  <SCORE.norm>
-0.213843

>  <RMSD>
2.271

$$$$
ligand
 OpenBabel11021811393D
libRbt.so/2013.1/901 2013/11/27
 14 13  0  0  0  0  0  0  0  0999 V2000
    5.6516   -5.9667    8.2101 N   0  0  0  0  0  0  0  0  0  0  0  0
    4.1606   -5.9048    7.8767 C   0  0  0  0  0  0  0  0  0  0  0  0
    3.4681   -6.5171    9.0396 C   0  0  0  0  0  0  0  0  0  0  0  0
    3.4972   -5.6768   10.3059 C   0  0  0  0  0  0  0  0  0  0  0  0
    2.7207   -4.4267   10.0903 N   0  0  0  0  0  0  0  0  0  0  0  0
    3.2154   -3.3439   11.0663 C   0  0  0  0  0  0  0  0  0  0  0  0
    2.5252   -2.0218   10.4769 C   0  0  0  0  0  0  0  0  0  0  0  0
    1.2511   -2.0239   10.7854 C   0  0  0  0  0  0  0  0  0  0  0  0
    0.8953   -0.5601   10.1433 C   0  0  0  0  0  0  0  0  0  0  0  0
   -0.5997   -0.4775   10.6011 N   0  0  0  0  0  0  0  0  0  0  0  0
   -1.5065    0.3917    9.6413 C   0  0  0  0  0  0  0  0  0  0  0  0
   -3.0248    0.2779   10.2328 C   0  0  0  0  0  0  0  0  0  0  0  0
   -3.8832    0.7498    9.0954 C   0  0  0  0  0  0  0  0  0  0  0  0
   -3.6049    2.2295    8.9735 N   0  0  0  0  0  0  0  0  0  0  0  0
  1  2  1  0  0  0  0
  2  3  1  0  0  0  0
  3  4  1  0  0  0  0
  4  5  1  0  0  0  0
  5  6  1  0  0  0  0
  6  7  1  0  0  0  0
  7  8  1  0  0  0  0
  8  9  1  0  0  0  0
  9 10  1  0  0  0  0
 10 11  1  0  0  0  0
 11 12  1  0  0  0  0
 12 13  1  0  0  0  0
 13 14  1  0  0  0  0
M  END
>  <CHROM.1>
70.75736028,65.52600804,-156.00919590,167.76925173,75.36707336,176.73677808
-175.52960710,-151.56743662,176.61253208,-163.55593797,-69.34203433,1.05473209
-2.37655464,9.75287270,0.51820644,0.58048301,-2.30707807

>  <Name>
ligand

>  <RI>
0

>  <Rbt.Current_Directory>
/home/itssahil/PROJECTS/Mol_Feturizer/New_Systems/rnas/1FUF

>  <Rbt.Executable>
rbdock ($Id: //depot/dev/client3/rdock/2013.1/src/exe/rbdock.cxx#4 $)

>  <Rbt.Library>
libRbt.so (2013.1, Build901 2013/11/27)

>  <Rbt.Parameter_File>
/export/apps/rDock/src/rDock_2013.1_src/data/scripts/dock_solv.prm

>  <Rbt.Receptor>
prm/pocket_docking_3.prm

>  <SCORE>
-4.23338

>  <SCORE.INTER>
-2.99893

>  <SCORE.INTER.CONST>
1

>  <SCORE.INTER.POLAR>
0

>  <SCORE.INTER.ROT>
11

>  <SCORE.INTER.SOLV>
15.448

>  <SCORE.INTER.VDW>
-18.0819

>  <SCORE.INTER.norm>
-0.21421

>  <SCORE.INTRA>
-1.23444

>  <SCORE.INTRA.DIHEDRAL>
-6.69084

>  <SCORE.INTRA.DIHEDRAL.0>
10.5765

>  <SCORE.INTRA.POLAR>
0

>  <SCORE.INTRA.POLAR.0>
0

>  <SCORE.INTRA.REPUL>
0

>  <SCORE.INTRA.REPUL.0>
0

>  <SCORE.INTRA.SOLV>
2.80126

>  <SCORE.INTRA.SOLV.lig_0>
-50.1861

>  <SCORE.INTRA.VDW>
0.710347

>  <SCORE.INTRA.VDW.0>
-1.36671

>  <SCORE.INTRA.norm>
-0.0881746

>  <SCORE.RESTR>
0

>  <SCORE.RESTR.CAVITY>
0

>  <SCORE.RESTR.norm>
0

>  <SCORE.SYSTEM>
0

>  <SCORE.SYSTEM.CONST>
0

>  <SCORE.SYSTEM.DIHEDRAL>
0

>  <SCORE.SYSTEM.SOLV>
0

>  <SCORE.SYSTEM.norm>
0

>  <SCORE.heavy>
14

>  <SCORE.norm>
-0.302384

>  <RMSD>
2.272

$$$$
ligand
 OpenBabel11021811393D
libRbt.so/2013.1/901 2013/11/27
 14 13  0  0  0  0  0  0  0  0999 V2000
   -3.1285    2.4108    8.1896 N   0  0  0  0  0  0  0  0  0  0  0  0
   -3.8585    1.5477    9.2193 C   0  0  0  0  0  0  0  0  0  0  0  0
   -2.8437    1.2198   10.2533 C   0  0  0  0  0  0  0  0  0  0  0  0
   -1.6514    0.4293    9.7396 C   0  0  0  0  0  0  0  0  0  0  0  0
   -0.7774    0.0504   10.8819 N   0  0  0  0  0  0  0  0  0  0  0  0
    0.6440   -0.2347   10.3642 C   0  0  0  0  0  0  0  0  0  0  0  0
    0.8637   -1.7588   10.8121 C   0  0  0  0  0  0  0  0  0  0  0  0
    2.0697   -2.1416   10.4691 C   0  0  0  0  0  0  0  0  0  0  0  0
    1.9017   -3.7131   10.8979 C   0  0  0  0  0  0  0  0  0  0  0  0
    3.3215   -4.2113   10.4650 N   0  0  0  0  0  0  0  0  0  0  0  0
    3.3493   -5.7274   10.0181 C   0  0  0  0  0  0  0  0  0  0  0  0
    4.8629   -6.0071    9.4717 C   0  0  0  0  0  0  0  0  0  0  0  0
    4.7877   -7.4017    8.9215 C   0  0  0  0  0  0  0  0  0  0  0  0
    6.1815   -7.7110    8.4280 N   0  0  0  0  0  0  0  0  0  0  0  0
  1  2  1  0  0  0  0
  2  3  1  0  0  0  0
  3  4  1  0  0  0  0
  4  5  1  0  0  0  0
  5  6  1  0  0  0  0
  6  7  1  0  0  0  0
  7  8  1  0  0  0  0
  8  9  1  0  0  0  0
  9 10  1  0  0  0  0
 10 11  1  0  0  0  0
 11 12  1  0  0  0  0
 12 13  1  0  0  0  0
 13 14  1  0  0  0  0
M  END
>  <CHROM.1>
-61.40449969,-174.56199341,-157.83447453,-120.47820491,-178.14597552,-174.09830482
178.63022855,-150.31082103,174.56218419,-173.83240538,-178.91561609,1.12292554
-2.37489912,9.86667406,2.81091679,-0.76453286,1.13923542

>  <Name>
ligand

>  <RI>
0

>  <Rbt.Current_Directory>
/home/itssahil/PROJECTS/Mol_Feturizer/New_Systems/rnas/1FUF

>  <Rbt.Executable>
rbdock ($Id: //depot/dev/client3/rdock/2013.1/src/exe/rbdock.cxx#4 $)

>  <Rbt.Library>
libRbt.so (2013.1, Build901 2013/11/27)

>  <Rbt.Parameter_File>
/export/apps/rDock/src/rDock_2013.1_src/data/scripts/dock_solv.prm

>  <Rbt.Receptor>
prm/blind_docking_60.prm

>  <SCORE>
-5.27871

>  <SCORE.INTER>
-1.93134

>  <SCORE.INTER.CONST>
1

>  <SCORE.INTER.POLAR>
0

>  <SCORE.INTER.ROT>
11

>  <SCORE.INTER.SOLV>
15.3785

>  <SCORE.INTER.VDW>
-17.3471

>  <SCORE.INTER.norm>
-0.137953

>  <SCORE.INTRA>
-3.34737

>  <SCORE.INTRA.DIHEDRAL>
-7.97082

>  <SCORE.INTRA.DIHEDRAL.0>
10.5765

>  <SCORE.INTRA.POLAR>
0

>  <SCORE.INTRA.POLAR.0>
0

>  <SCORE.INTRA.REPUL>
0

>  <SCORE.INTRA.REPUL.0>
0

>  <SCORE.INTRA.SOLV>
0.754664

>  <SCORE.INTRA.SOLV.lig_0>
-50.1861

>  <SCORE.INTRA.VDW>
0.260709

>  <SCORE.INTRA.VDW.0>
-1.36671

>  <SCORE.INTRA.norm>
-0.239098

>  <SCORE.RESTR>
0

>  <SCORE.RESTR.CAVITY>
0

>  <SCORE.RESTR.norm>
0

>  <SCORE.SYSTEM>
0

>  <SCORE.SYSTEM.CONST>
0

>  <SCORE.SYSTEM.DIHEDRAL>
0

>  <SCORE.SYSTEM.SOLV>
0

>  <SCORE.SYSTEM.norm>
0

>  <SCORE.heavy>
14

>  <SCORE.norm>
-0.377051

>  <RMSD>
2.277

$$$$
ligand
 OpenBabel11021811393D
libRbt.so/2013.1/901 2013/11/27
 14 13  0  0  0  0  0  0  0  0999 V2000
   -8.3063    3.1504    9.1110 N   0  0  0  0  0  0  0  0  0  0  0  0
   -6.9224    3.3391    8.4887 C   0  0  0  0  0  0  0  0  0  0  0  0
   -5.9710    2.7043    9.4366 C   0  0  0  0  0  0  0  0  0  0  0  0
   -4.5441    2.5991    8.9234 C   0  0  0  0  0  0  0  0  0  0  0  0
   -3.7100    1.8759    9.9202 N   0  0  0  0  0  0  0  0  0  0  0  0
   -2.3481    1.5304    9.2913 C   0  0  0  0  0  0  0  0  0  0  0  0
   -1.7155    0.5429   10.3851 C   0  0  0  0  0  0  0  0  0  0  0  0
   -0.5983    0.0392    9.9194 C   0  0  0  0  0  0  0  0  0  0  0  0
   -0.3048   -0.9706   11.1747 C   0  0  0  0  0  0  0  0  0  0  0  0
    0.5247   -2.0486   10.3993 N   0  0  0  0  0  0  0  0  0  0  0  0
    1.9131   -2.3843   11.0768 C   0  0  0  0  0  0  0  0  0  0  0  0
    2.6121   -3.5178   10.1310 C   0  0  0  0  0  0  0  0  0  0  0  0
    3.8902   -3.8383   10.8499 C   0  0  0  0  0  0  0  0  0  0  0  0
    4.5427   -4.9301   10.0350 N   0  0  0  0  0  0  0  0  0  0  0  0
  1  2  1  0  0  0  0
  2  3  1  0  0  0  0
  3  4  1  0  0  0  0
  4  5  1  0  0  0  0
  5  6  1  0  0  0  0
  6  7  1  0  0  0  0
  7  8  1  0  0  0  0
  8  9  1  0  0  0  0
  9 10  1  0  0  0  0
 10 11  1  0  0  0  0
 11 12  1  0  0  0  0
 12 13  1  0  0  0  0
 13 14  1  0  0  0  0
M  END
>  <CHROM.1>
171.74488319,-176.55357330,169.10774522,-169.95403939,173.09380262,-175.55994614
152.91824634,128.16463370,179.79799129,-177.65848156,177.67373715,-1.49545123
-0.13617197,9.93877591,2.68418485,-0.42939915,0.48444764

>  <Name>
ligand

>  <RI>
0

>  <Rbt.Current_Directory>
/home/itssahil/PROJECTS/Mol_Feturizer/New_Systems/rnas/1FUF

>  <Rbt.Executable>
rbdock ($Id: //depot/dev/client3/rdock/2013.1/src/exe/rbdock.cxx#4 $)

>  <Rbt.Library>
libRbt.so (2013.1, Build901 2013/11/27)

>  <Rbt.Parameter_File>
/export/apps/rDock/src/rDock_2013.1_src/data/scripts/dock_solv.prm

>  <Rbt.Receptor>
prm/pocket_docking_6.prm

>  <SCORE>
-4.55462

>  <SCORE.INTER>
-1.34838

>  <SCORE.INTER.CONST>
1

>  <SCORE.INTER.POLAR>
0

>  <SCORE.INTER.ROT>
11

>  <SCORE.INTER.SOLV>
14.5058

>  <SCORE.INTER.VDW>
-16.6675

>  <SCORE.INTER.norm>
-0.0963128

>  <SCORE.INTRA>
-3.20624

>  <SCORE.INTRA.DIHEDRAL>
-6.31382

>  <SCORE.INTRA.DIHEDRAL.0>
10.5765

>  <SCORE.INTRA.POLAR>
0

>  <SCORE.INTRA.POLAR.0>
0

>  <SCORE.INTRA.REPUL>
0

>  <SCORE.INTRA.REPUL.0>
0

>  <SCORE.INTRA.SOLV>
-0.122506

>  <SCORE.INTRA.SOLV.lig_0>
-50.1861

>  <SCORE.INTRA.VDW>
0.0119231

>  <SCORE.INTRA.VDW.0>
-1.36671

>  <SCORE.INTRA.norm>
-0.229017

>  <SCORE.RESTR>
0

>  <SCORE.RESTR.CAVITY>
0

>  <SCORE.RESTR.norm>
0

>  <SCORE.SYSTEM>
0

>  <SCORE.SYSTEM.CONST>
0

>  <SCORE.SYSTEM.DIHEDRAL>
0

>  <SCORE.SYSTEM.SOLV>
0

>  <SCORE.SYSTEM.norm>
0

>  <SCORE.heavy>
14

>  <SCORE.norm>
-0.32533

>  <RMSD>
2.280

$$$$
ligand
 OpenBabel11021811393D
libRbt.so/2013.1/901 2013/11/27
 14 13  0  0  0  0  0  0  0  0999 V2000
    5.3159   -6.5106    8.0823 N   0  0  0  0  0  0  0  0  0  0  0  0
    4.9482   -6.0095    9.4794 C   0  0  0  0  0  0  0  0  0  0  0  0
    3.5395   -6.4294    9.6936 C   0  0  0  0  0  0  0  0  0  0  0  0
    2.9598   -6.0308   11.0411 C   0  0  0  0  0  0  0  0  0  0  0  0
    2.8460   -4.5496   11.1141 N   0  0  0  0  0  0  0  0  0  0  0  0
    1.4317   -4.1245   10.6794 C   0  0  0  0  0  0  0  0  0  0  0  0
    1.5354   -2.5247   10.7224 C   0  0  0  0  0  0  0  0  0  0  0  0
    0.3805   -2.0064   10.3815 C   0  0  0  0  0  0  0  0  0  0  0  0
    0.8682   -0.4432   10.3669 C   0  0  0  0  0  0  0  0  0  0  0  0
   -0.3969    0.1745    9.6817 N   0  0  0  0  0  0  0  0  0  0  0  0
   -1.6158    0.3727   10.6686 C   0  0  0  0  0  0  0  0  0  0  0  0
   -2.1918    1.8728   10.3755 C   0  0  0  0  0  0  0  0  0  0  0  0
   -2.8416    1.7446    9.0285 C   0  0  0  0  0  0  0  0  0  0  0  0
   -4.1499    1.0336    9.2833 N   0  0  0  0  0  0  0  0  0  0  0  0
  1  2  1  0  0  0  0
  2  3  1  0  0  0  0
  3  4  1  0  0  0  0
  4  5  1  0  0  0  0
  5  6  1  0  0  0  0
  6  7  1  0  0  0  0
  7  8  1  0  0  0  0
  8  9  1  0  0  0  0
  9 10  1  0  0  0  0
 10 11  1  0  0  0  0
 11 12  1  0  0  0  0
 12 13  1  0  0  0  0
 13 14  1  0  0  0  0
M  END
>  <CHROM.1>
179.92822013,66.59950234,93.98682947,-176.16883653,-179.42754394,-174.18538273
168.96525081,79.11856317,134.33170624,71.15443872,76.48234659,0.90209981
-2.38786606,10.04294321,-0.31917748,0.78851593,-1.12567588

>  <Name>
ligand

>  <RI>
0

>  <Rbt.Current_Directory>
/home/itssahil/PROJECTS/Mol_Feturizer/New_Systems/rnas/1FUF

>  <Rbt.Executable>
rbdock ($Id: //depot/dev/client3/rdock/2013.1/src/exe/rbdock.cxx#4 $)

>  <Rbt.Library>
libRbt.so (2013.1, Build901 2013/11/27)

>  <Rbt.Parameter_File>
/export/apps/rDock/src/rDock_2013.1_src/data/scripts/dock_solv.prm

>  <Rbt.Receptor>
prm/blind_docking_100.prm

>  <SCORE>
-2.45947

>  <SCORE.INTER>
-1.161

>  <SCORE.INTER.CONST>
1

>  <SCORE.INTER.POLAR>
0

>  <SCORE.INTER.ROT>
11

>  <SCORE.INTER.SOLV>
15.7411

>  <SCORE.INTER.VDW>
-16.9544

>  <SCORE.INTER.norm>
-0.0829286

>  <SCORE.INTRA>
-1.29847

>  <SCORE.INTRA.DIHEDRAL>
-6.34868

>  <SCORE.INTRA.DIHEDRAL.0>
10.5765

>  <SCORE.INTRA.POLAR>
0

>  <SCORE.INTRA.POLAR.0>
0

>  <SCORE.INTRA.REPUL>
0

>  <SCORE.INTRA.REPUL.0>
0

>  <SCORE.INTRA.SOLV>
1.83537

>  <SCORE.INTRA.SOLV.lig_0>
-50.1861

>  <SCORE.INTRA.VDW>
0.958183

>  <SCORE.INTRA.VDW.0>
-1.36671

>  <SCORE.INTRA.norm>
-0.092748

>  <SCORE.RESTR>
0

>  <SCORE.RESTR.CAVITY>
0

>  <SCORE.RESTR.norm>
0

>  <SCORE.SYSTEM>
0

>  <SCORE.SYSTEM.CONST>
0

>  <SCORE.SYSTEM.DIHEDRAL>
0

>  <SCORE.SYSTEM.SOLV>
0

>  <SCORE.SYSTEM.norm>
0

>  <SCORE.heavy>
14

>  <SCORE.norm>
-0.175677

>  <RMSD>
2.290

$$$$
ligand
 OpenBabel11021811393D
libRbt.so/2013.1/901 2013/11/27
 14 13  0  0  0  0  0  0  0  0999 V2000
    5.3524   -6.6056    8.3082 N   0  0  0  0  0  0  0  0  0  0  0  0
    4.0015   -6.6602    9.0223 C   0  0  0  0  0  0  0  0  0  0  0  0
    4.2239   -6.0158   10.3422 C   0  0  0  0  0  0  0  0  0  0  0  0
    2.9638   -5.8193   11.1692 C   0  0  0  0  0  0  0  0  0  0  0  0
    1.9621   -5.0589   10.3750 N   0  0  0  0  0  0  0  0  0  0  0  0
    2.3785   -3.5783   10.3117 C   0  0  0  0  0  0  0  0  0  0  0  0
    1.0079   -2.8296   10.6761 C   0  0  0  0  0  0  0  0  0  0  0  0
    1.1298   -1.5509   10.4140 C   0  0  0  0  0  0  0  0  0  0  0  0
   -0.3811   -1.1159   10.8719 C   0  0  0  0  0  0  0  0  0  0  0  0
   -0.4284    0.2831   10.1706 N   0  0  0  0  0  0  0  0  0  0  0  0
   -1.4805    1.2745   10.8102 C   0  0  0  0  0  0  0  0  0  0  0  0
   -2.3514    1.8709    9.5637 C   0  0  0  0  0  0  0  0  0  0  0  0
   -3.2729    0.7417    9.2045 C   0  0  0  0  0  0  0  0  0  0  0  0
   -4.2955    0.6934   10.3153 N   0  0  0  0  0  0  0  0  0  0  0  0
  1  2  1  0  0  0  0
  2  3  1  0  0  0  0
  3  4  1  0  0  0  0
  4  5  1  0  0  0  0
  5  6  1  0  0  0  0
  6  7  1  0  0  0  0
  7  8  1  0  0  0  0
  8  9  1  0  0  0  0
  9 10  1  0  0  0  0
 10 11  1  0  0  0  0
 11 12  1  0  0  0  0
 12 13  1  0  0  0  0
 13 14  1  0  0  0  0
M  END
>  <CHROM.1>
173.50171275,-54.96756738,-74.82279711,-132.53124441,-167.91734807,179.66015623
-163.30799491,-157.36854289,-130.66430003,76.08493530,73.00986155,0.77219965
-2.45498226,10.11119057,-0.63208299,0.57315710,-0.58660644

>  <Name>
ligand

>  <RI>
0

>  <Rbt.Current_Directory>
/home/itssahil/PROJECTS/Mol_Feturizer/New_Systems/rnas/1FUF

>  <Rbt.Executable>
rbdock ($Id: //depot/dev/client3/rdock/2013.1/src/exe/rbdock.cxx#4 $)

>  <Rbt.Library>
libRbt.so (2013.1, Build901 2013/11/27)

>  <Rbt.Parameter_File>
/export/apps/rDock/src/rDock_2013.1_src/data/scripts/dock_solv.prm

>  <Rbt.Receptor>
prm/blind_docking_20.prm

>  <SCORE>
-1.47323

>  <SCORE.INTER>
-1.42335

>  <SCORE.INTER.CONST>
1

>  <SCORE.INTER.POLAR>
0

>  <SCORE.INTER.ROT>
11

>  <SCORE.INTER.SOLV>
17.0787

>  <SCORE.INTER.VDW>
-17.5751

>  <SCORE.INTER.norm>
-0.101668

>  <SCORE.INTRA>
-0.0498742

>  <SCORE.INTRA.DIHEDRAL>
-4.531

>  <SCORE.INTRA.DIHEDRAL.0>
10.5765

>  <SCORE.INTRA.POLAR>
0

>  <SCORE.INTRA.POLAR.0>
0

>  <SCORE.INTRA.REPUL>
0

>  <SCORE.INTRA.REPUL.0>
0

>  <SCORE.INTRA.SOLV>
2.29438

>  <SCORE.INTRA.SOLV.lig_0>
-50.1861

>  <SCORE.INTRA.VDW>
1.06844

>  <SCORE.INTRA.VDW.0>
-1.36671

>  <SCORE.INTRA.norm>
-0.00356244

>  <SCORE.RESTR>
0

>  <SCORE.RESTR.CAVITY>
0

>  <SCORE.RESTR.norm>
0

>  <SCORE.SYSTEM>
0

>  <SCORE.SYSTEM.CONST>
0

>  <SCORE.SYSTEM.DIHEDRAL>
0

>  <SCORE.SYSTEM.SOLV>
0

>  <SCORE.SYSTEM.norm>
0

>  <SCORE.heavy>
14

>  <SCORE.norm>
-0.10523

>  <RMSD>
2.296

$$$$
ligand
 OpenBabel11021811393D
libRbt.so/2013.1/901 2013/11/27
 14 13  0  0  0  0  0  0  0  0999 V2000
   -3.9548    1.9467    7.9646 N   0  0  0  0  0  0  0  0  0  0  0  0
   -3.2672    1.8915    9.3292 C   0  0  0  0  0  0  0  0  0  0  0  0
   -2.1841    0.8848    9.1874 C   0  0  0  0  0  0  0  0  0  0  0  0
   -1.3509    0.6729   10.4410 C   0  0  0  0  0  0  0  0  0  0  0  0
   -0.2901   -0.3333   10.1680 N   0  0  0  0  0  0  0  0  0  0  0  0
    0.6374   -0.4418   11.3918 C   0  0  0  0  0  0  0  0  0  0  0  0
    1.2335   -1.9217   11.2295 C   0  0  0  0  0  0  0  0  0  0  0  0
    2.2077   -1.9026   10.3524 C   0  0  0  0  0  0  0  0  0  0  0  0
    2.6204   -3.4814   10.4890 C   0  0  0  0  0  0  0  0  0  0  0  0
    3.8659   -3.4652    9.5405 N   0  0  0  0  0  0  0  0  0  0  0  0
    4.6195   -4.8528    9.4644 C   0  0  0  0  0  0  0  0  0  0  0  0
    3.9390   -5.6661    8.2222 C   0  0  0  0  0  0  0  0  0  0  0  0
    4.5123   -7.0476    8.3483 C   0  0  0  0  0  0  0  0  0  0  0  0
    5.9807   -6.9007    8.0258 N   0  0  0  0  0  0  0  0  0  0  0  0
  1  2  1  0  0  0  0
  2  3  1  0  0  0  0
  3  4  1  0  0  0  0
  4  5  1  0  0  0  0
  5  6  1  0  0  0  0
  6  7  1  0  0  0  0
  7  8  1  0  0  0  0
  8  9  1  0  0  0  0
  9 10  1  0  0  0  0
 10 11  1  0  0  0  0
 11 12  1  0  0  0  0
 12 13  1  0  0  0  0
 13 14  1  0  0  0  0
M  END
>  <CHROM.1>
179.53621401,-178.96978312,174.37032709,155.38245562,80.39072329,177.16361096
-175.43182673,176.92411479,90.93007052,-170.32641054,-67.87331704,1.32635749
-2.18695239,9.58271068,2.70248112,-0.67006157,1.01943006

>  <Name>
ligand

>  <RI>
0

>  <Rbt.Current_Directory>
/home/itssahil/PROJECTS/Mol_Feturizer/New_Systems/rnas/1FUF

>  <Rbt.Executable>
rbdock ($Id: //depot/dev/client3/rdock/2013.1/src/exe/rbdock.cxx#4 $)

>  <Rbt.Library>
libRbt.so (2013.1, Build901 2013/11/27)

>  <Rbt.Parameter_File>
/export/apps/rDock/src/rDock_2013.1_src/data/scripts/dock_solv.prm

>  <Rbt.Receptor>
prm/blind_docking_60.prm

>  <SCORE>
-4.12618

>  <SCORE.INTER>
-1.65654

>  <SCORE.INTER.CONST>
1

>  <SCORE.INTER.POLAR>
0

>  <SCORE.INTER.ROT>
11

>  <SCORE.INTER.SOLV>
16.3251

>  <SCORE.INTER.VDW>
-17.4794

>  <SCORE.INTER.norm>
-0.118324

>  <SCORE.INTRA>
-2.46965

>  <SCORE.INTRA.DIHEDRAL>
-7.35645

>  <SCORE.INTRA.DIHEDRAL.0>
10.5765

>  <SCORE.INTRA.POLAR>
0

>  <SCORE.INTRA.POLAR.0>
0

>  <SCORE.INTRA.REPUL>
0

>  <SCORE.INTRA.REPUL.0>
0

>  <SCORE.INTRA.SOLV>
1.15497

>  <SCORE.INTRA.SOLV.lig_0>
-50.1861

>  <SCORE.INTRA.VDW>
0.631095

>  <SCORE.INTRA.VDW.0>
-1.36671

>  <SCORE.INTRA.norm>
-0.176403

>  <SCORE.RESTR>
0

>  <SCORE.RESTR.CAVITY>
0

>  <SCORE.RESTR.norm>
0

>  <SCORE.SYSTEM>
0

>  <SCORE.SYSTEM.CONST>
0

>  <SCORE.SYSTEM.DIHEDRAL>
0

>  <SCORE.SYSTEM.SOLV>
0

>  <SCORE.SYSTEM.norm>
0

>  <SCORE.heavy>
14

>  <SCORE.norm>
-0.294727

>  <RMSD>
2.300

$$$$
ligand
 OpenBabel11021811393D
libRbt.so/2013.1/901 2013/11/27
 14 13  0  0  0  0  0  0  0  0999 V2000
   -4.7337    1.5954    9.9959 N   0  0  0  0  0  0  0  0  0  0  0  0
   -3.2222    1.8033    9.8957 C   0  0  0  0  0  0  0  0  0  0  0  0
   -2.6213    0.4645   10.1261 C   0  0  0  0  0  0  0  0  0  0  0  0
   -1.1013    0.4472   10.1330 C   0  0  0  0  0  0  0  0  0  0  0  0
   -0.6218   -0.9100   10.5074 N   0  0  0  0  0  0  0  0  0  0  0  0
    0.8880   -1.0135   10.2254 C   0  0  0  0  0  0  0  0  0  0  0  0
    1.2489   -2.4429   10.8567 C   0  0  0  0  0  0  0  0  0  0  0  0
    2.5163   -2.7024   10.6451 C   0  0  0  0  0  0  0  0  0  0  0  0
    2.5846   -4.0711   11.5418 C   0  0  0  0  0  0  0  0  0  0  0  0
    2.1198   -5.0795   10.4379 N   0  0  0  0  0  0  0  0  0  0  0  0
    3.3005   -5.9353    9.8274 C   0  0  0  0  0  0  0  0  0  0  0  0
    3.7805   -5.1431    8.4820 C   0  0  0  0  0  0  0  0  0  0  0  0
    4.7744   -6.0785    7.8571 C   0  0  0  0  0  0  0  0  0  0  0  0
    5.9694   -6.0654    8.7810 N   0  0  0  0  0  0  0  0  0  0  0  0
  1  2  1  0  0  0  0
  2  3  1  0  0  0  0
  3  4  1  0  0  0  0
  4  5  1  0  0  0  0
  5  6  1  0  0  0  0
  6  7  1  0  0  0  0
  7  8  1  0  0  0  0
  8  9  1  0  0  0  0
  9 10  1  0  0  0  0
 10 11  1  0  0  0  0
 11 12  1  0  0  0  0
 12 13  1  0  0  0  0
 13 14  1  0  0  0  0
M  END
>  <CHROM.1>
-177.37437724,174.30244318,168.02394484,173.00031819,177.53058785,173.36823967
86.37868208,103.77745301,-94.63802074,-173.21526451,-69.44596515,1.06315608
-2.50933826,9.95090964,3.06198212,-0.74745455,1.59378154

>  <Name>
ligand

>  <RI>
0

>  <Rbt.Current_Directory>
/home/itssahil/PROJECTS/Mol_Feturizer/New_Systems/rnas/1FUF

>  <Rbt.Executable>
rbdock ($Id: //depot/dev/client3/rdock/2013.1/src/exe/rbdock.cxx#4 $)

>  <Rbt.Library>
libRbt.so (2013.1, Build901 2013/11/27)

>  <Rbt.Parameter_File>
/export/apps/rDock/src/rDock_2013.1_src/data/scripts/dock_solv.prm

>  <Rbt.Receptor>
prm/blind_docking_100.prm

>  <SCORE>
-2.61637

>  <SCORE.INTER>
-1.24287

>  <SCORE.INTER.CONST>
1

>  <SCORE.INTER.POLAR>
0

>  <SCORE.INTER.ROT>
11

>  <SCORE.INTER.SOLV>
16.0518

>  <SCORE.INTER.VDW>
-17.1125

>  <SCORE.INTER.norm>
-0.0887762

>  <SCORE.INTRA>
-1.3735

>  <SCORE.INTRA.DIHEDRAL>
-5.58543

>  <SCORE.INTRA.DIHEDRAL.0>
10.5765

>  <SCORE.INTRA.POLAR>
0

>  <SCORE.INTRA.POLAR.0>
0

>  <SCORE.INTRA.REPUL>
0

>  <SCORE.INTRA.REPUL.0>
0

>  <SCORE.INTRA.SOLV>
1.19854

>  <SCORE.INTRA.SOLV.lig_0>
-50.1861

>  <SCORE.INTRA.VDW>
0.819944

>  <SCORE.INTRA.VDW.0>
-1.36671

>  <SCORE.INTRA.norm>
-0.0981074

>  <SCORE.RESTR>
0

>  <SCORE.RESTR.CAVITY>
0

>  <SCORE.RESTR.norm>
0

>  <SCORE.SYSTEM>
0

>  <SCORE.SYSTEM.CONST>
0

>  <SCORE.SYSTEM.DIHEDRAL>
0

>  <SCORE.SYSTEM.SOLV>
0

>  <SCORE.SYSTEM.norm>
0

>  <SCORE.heavy>
14

>  <SCORE.norm>
-0.186884

>  <RMSD>
2.303

$$$$
ligand
 OpenBabel11021811393D
libRbt.so/2013.1/901 2013/11/27
 14 13  0  0  0  0  0  0  0  0999 V2000
   -4.7133    1.1583    9.2209 N   0  0  0  0  0  0  0  0  0  0  0  0
   -3.6656    0.5101   10.1265 C   0  0  0  0  0  0  0  0  0  0  0  0
   -2.4427    1.3398    9.9757 C   0  0  0  0  0  0  0  0  0  0  0  0
   -1.2774    0.9121   10.8531 C   0  0  0  0  0  0  0  0  0  0  0  0
   -0.7895   -0.4228   10.4146 N   0  0  0  0  0  0  0  0  0  0  0  0
    0.7031   -0.3262   10.0504 C   0  0  0  0  0  0  0  0  0  0  0  0
    1.3561   -1.4222   11.0222 C   0  0  0  0  0  0  0  0  0  0  0  0
    1.2223   -2.6110   10.4861 C   0  0  0  0  0  0  0  0  0  0  0  0
    2.2424   -3.3946   11.4995 C   0  0  0  0  0  0  0  0  0  0  0  0
    2.2833   -4.7686   10.7499 N   0  0  0  0  0  0  0  0  0  0  0  0
    3.7310   -5.3977   10.6637 C   0  0  0  0  0  0  0  0  0  0  0  0
    3.6646   -6.5166    9.4755 C   0  0  0  0  0  0  0  0  0  0  0  0
    5.0780   -7.0128    9.3784 C   0  0  0  0  0  0  0  0  0  0  0  0
    5.0719   -8.0137    8.2470 N   0  0  0  0  0  0  0  0  0  0  0  0
  1  2  1  0  0  0  0
  2  3  1  0  0  0  0
  3  4  1  0  0  0  0
  4  5  1  0  0  0  0
  5  6  1  0  0  0  0
  6  7  1  0  0  0  0
  7  8  1  0  0  0  0
  8  9  1  0  0  0  0
  9 10  1  0  0  0  0
 10 11  1  0  0  0  0
 11 12  1  0  0  0  0
 12 13  1  0  0  0  0
 13 14  1  0  0  0  0
M  END
>  <CHROM.1>
177.06147225,66.64006739,122.54750417,122.75120231,82.02837956,168.01345810
-171.49189908,137.68369046,-162.03503608,176.43707910,-177.75207038,0.89048064
-2.56880433,10.15474939,2.46823401,-0.50395615,0.61016583

>  <Name>
ligand

>  <RI>
0

>  <Rbt.Current_Directory>
/home/itssahil/PROJECTS/Mol_Feturizer/New_Systems/rnas/1FUF

>  <Rbt.Executable>
rbdock ($Id: //depot/dev/client3/rdock/2013.1/src/exe/rbdock.cxx#4 $)

>  <Rbt.Library>
libRbt.so (2013.1, Build901 2013/11/27)

>  <Rbt.Parameter_File>
/export/apps/rDock/src/rDock_2013.1_src/data/scripts/dock_solv.prm

>  <Rbt.Receptor>
prm/blind_docking_20.prm

>  <SCORE>
-2.6888

>  <SCORE.INTER>
-1.03342

>  <SCORE.INTER.CONST>
1

>  <SCORE.INTER.POLAR>
0

>  <SCORE.INTER.ROT>
11

>  <SCORE.INTER.SOLV>
18.4795

>  <SCORE.INTER.VDW>
-17.7821

>  <SCORE.INTER.norm>
-0.073816

>  <SCORE.INTRA>
-1.65537

>  <SCORE.INTRA.DIHEDRAL>
-4.22252

>  <SCORE.INTRA.DIHEDRAL.0>
10.5765

>  <SCORE.INTRA.POLAR>
0

>  <SCORE.INTRA.POLAR.0>
0

>  <SCORE.INTRA.REPUL>
0

>  <SCORE.INTRA.REPUL.0>
0

>  <SCORE.INTRA.SOLV>
0.482525

>  <SCORE.INTRA.SOLV.lig_0>
-50.1861

>  <SCORE.INTRA.VDW>
0.214627

>  <SCORE.INTRA.VDW.0>
-1.36671

>  <SCORE.INTRA.norm>
-0.118241

>  <SCORE.RESTR>
0

>  <SCORE.RESTR.CAVITY>
0

>  <SCORE.RESTR.norm>
0

>  <SCORE.SYSTEM>
0

>  <SCORE.SYSTEM.CONST>
0

>  <SCORE.SYSTEM.DIHEDRAL>
0

>  <SCORE.SYSTEM.SOLV>
0

>  <SCORE.SYSTEM.norm>
0

>  <SCORE.heavy>
14

>  <SCORE.norm>
-0.192057

>  <RMSD>
2.313

$$$$
ligand
 OpenBabel11021811393D
libRbt.so/2013.1/901 2013/11/27
 14 13  0  0  0  0  0  0  0  0999 V2000
    1.8949   -6.7306   11.0681 N   0  0  0  0  0  0  0  0  0  0  0  0
    2.8287   -5.5337   10.8855 C   0  0  0  0  0  0  0  0  0  0  0  0
    1.9383   -4.3670   10.6558 C   0  0  0  0  0  0  0  0  0  0  0  0
    2.6665   -3.0568   10.4038 C   0  0  0  0  0  0  0  0  0  0  0  0
    1.6748   -1.9586   10.2530 N   0  0  0  0  0  0  0  0  0  0  0  0
    1.3183   -1.3987   11.6420 C   0  0  0  0  0  0  0  0  0  0  0  0
    0.4028   -0.1360   11.2687 C   0  0  0  0  0  0  0  0  0  0  0  0
   -0.7589   -0.5574   10.8313 C   0  0  0  0  0  0  0  0  0  0  0  0
   -1.4074    0.9205   10.5537 C   0  0  0  0  0  0  0  0  0  0  0  0
   -2.8620    0.4592   10.2034 N   0  0  0  0  0  0  0  0  0  0  0  0
   -3.8466    1.6566    9.8940 C   0  0  0  0  0  0  0  0  0  0  0  0
   -3.8158    1.8562    8.2732 C   0  0  0  0  0  0  0  0  0  0  0  0
   -4.7141    3.0371    8.0457 C   0  0  0  0  0  0  0  0  0  0  0  0
   -6.1039    2.5516    8.3841 N   0  0  0  0  0  0  0  0  0  0  0  0
  1  2  1  0  0  0  0
  2  3  1  0  0  0  0
  3  4  1  0  0  0  0
  4  5  1  0  0  0  0
  5  6  1  0  0  0  0
  6  7  1  0  0  0  0
  7  8  1  0  0  0  0
  8  9  1  0  0  0  0
  9 10  1  0  0  0  0
 10 11  1  0  0  0  0
 11 12  1  0  0  0  0
 12 13  1  0  0  0  0
 13 14  1  0  0  0  0
M  END
>  <CHROM.1>
-178.21552102,-177.35514520,86.27615489,173.31488146,72.23269678,-179.91128407
-173.12800092,178.60647669,93.82004049,-177.55186194,-68.67488728,-0.77005650
-0.94678051,10.16881497,0.69487098,0.45392175,-2.95038393

>  <Name>
ligand

>  <RI>
0

>  <Rbt.Current_Directory>
/home/itssahil/PROJECTS/Mol_Feturizer/New_Systems/rnas/1FUF

>  <Rbt.Executable>
rbdock ($Id: //depot/dev/client3/rdock/2013.1/src/exe/rbdock.cxx#4 $)

>  <Rbt.Library>
libRbt.so (2013.1, Build901 2013/11/27)

>  <Rbt.Parameter_File>
/export/apps/rDock/src/rDock_2013.1_src/data/scripts/dock_solv.prm

>  <Rbt.Receptor>
prm/pocket_docking_4.prm

>  <SCORE>
-3.65611

>  <SCORE.INTER>
-1.18229

>  <SCORE.INTER.CONST>
1

>  <SCORE.INTER.POLAR>
0

>  <SCORE.INTER.ROT>
11

>  <SCORE.INTER.SOLV>
18.845

>  <SCORE.INTER.VDW>
-18.0032

>  <SCORE.INTER.norm>
-0.0844494

>  <SCORE.INTRA>
-2.47382

>  <SCORE.INTRA.DIHEDRAL>
-8.27075

>  <SCORE.INTRA.DIHEDRAL.0>
10.5765

>  <SCORE.INTRA.POLAR>
0

>  <SCORE.INTRA.POLAR.0>
0

>  <SCORE.INTRA.REPUL>
0

>  <SCORE.INTRA.REPUL.0>
0

>  <SCORE.INTRA.SOLV>
1.25258

>  <SCORE.INTRA.SOLV.lig_0>
-50.1861

>  <SCORE.INTRA.VDW>
1.03526

>  <SCORE.INTRA.VDW.0>
-1.36671

>  <SCORE.INTRA.norm>
-0.176702

>  <SCORE.RESTR>
0

>  <SCORE.RESTR.CAVITY>
0

>  <SCORE.RESTR.norm>
0

>  <SCORE.SYSTEM>
0

>  <SCORE.SYSTEM.CONST>
0

>  <SCORE.SYSTEM.DIHEDRAL>
0

>  <SCORE.SYSTEM.SOLV>
0

>  <SCORE.SYSTEM.norm>
0

>  <SCORE.heavy>
14

>  <SCORE.norm>
-0.261151

>  <RMSD>
2.316

$$$$
ligand
 OpenBabel11021811393D
libRbt.so/2013.1/901 2013/11/27
 14 13  0  0  0  0  0  0  0  0999 V2000
   -3.4445    3.2353    6.6226 N   0  0  0  0  0  0  0  0  0  0  0  0
   -2.4720    2.6330    7.6373 C   0  0  0  0  0  0  0  0  0  0  0  0
   -3.3227    1.9478    8.6441 C   0  0  0  0  0  0  0  0  0  0  0  0
   -2.5880    1.5162    9.9028 C   0  0  0  0  0  0  0  0  0  0  0  0
   -1.4862    0.5851    9.5401 N   0  0  0  0  0  0  0  0  0  0  0  0
   -0.7242    0.1756   10.8134 C   0  0  0  0  0  0  0  0  0  0  0  0
    0.4147   -0.7887   10.2260 C   0  0  0  0  0  0  0  0  0  0  0  0
    1.1123   -1.2888   11.2169 C   0  0  0  0  0  0  0  0  0  0  0  0
    2.1356   -2.1805   10.3007 C   0  0  0  0  0  0  0  0  0  0  0  0
    3.0078   -2.7717   11.4587 N   0  0  0  0  0  0  0  0  0  0  0  0
    3.8488   -4.0402   11.0310 C   0  0  0  0  0  0  0  0  0  0  0  0
    2.7664   -5.2433   10.8101 C   0  0  0  0  0  0  0  0  0  0  0  0
    3.6249   -6.4518   10.5744 C   0  0  0  0  0  0  0  0  0  0  0  0
    4.2707   -6.2252    9.2277 N   0  0  0  0  0  0  0  0  0  0  0  0
  1  2  1  0  0  0  0
  2  3  1  0  0  0  0
  3  4  1  0  0  0  0
  4  5  1  0  0  0  0
  5  6  1  0  0  0  0
  6  7  1  0  0  0  0
  7  8  1  0  0  0  0
  8  9  1  0  0  0  0
  9 10  1  0  0  0  0
 10 11  1  0  0  0  0
 11 12  1  0  0  0  0
 12 13  1  0  0  0  0
 13 14  1  0  0  0  0
M  END
>  <CHROM.1>
-168.12019773,-59.17285938,178.70866992,-179.12254059,-176.34258192,-179.98085332
178.86939656,162.29581061,-70.04033654,-173.29335817,-69.04405858,0.51022873
-1.34981754,9.85782028,3.08109834,-0.87602614,1.19960038

>  <Name>
ligand

>  <RI>
0

>  <Rbt.Current_Directory>
/home/itssahil/PROJECTS/Mol_Feturizer/New_Systems/rnas/1FUF

>  <Rbt.Executable>
rbdock ($Id: //depot/dev/client3/rdock/2013.1/src/exe/rbdock.cxx#4 $)

>  <Rbt.Library>
libRbt.so (2013.1, Build901 2013/11/27)

>  <Rbt.Parameter_File>
/export/apps/rDock/src/rDock_2013.1_src/data/scripts/dock_solv.prm

>  <Rbt.Receptor>
prm/pocket_docking_7.prm

>  <SCORE>
-6.50263

>  <SCORE.INTER>
-3.26631

>  <SCORE.INTER.CONST>
1

>  <SCORE.INTER.POLAR>
0

>  <SCORE.INTER.ROT>
11

>  <SCORE.INTER.SOLV>
18.2483

>  <SCORE.INTER.VDW>
-19.1936

>  <SCORE.INTER.norm>
-0.233308

>  <SCORE.INTRA>
-3.23632

>  <SCORE.INTRA.DIHEDRAL>
-9.20662

>  <SCORE.INTRA.DIHEDRAL.0>
10.5765

>  <SCORE.INTRA.POLAR>
0

>  <SCORE.INTRA.POLAR.0>
0

>  <SCORE.INTRA.REPUL>
0

>  <SCORE.INTRA.REPUL.0>
0

>  <SCORE.INTRA.SOLV>
1.1313

>  <SCORE.INTRA.SOLV.lig_0>
-50.1861

>  <SCORE.INTRA.VDW>
0.801342

>  <SCORE.INTRA.VDW.0>
-1.36671

>  <SCORE.INTRA.norm>
-0.231165

>  <SCORE.RESTR>
0

>  <SCORE.RESTR.CAVITY>
0

>  <SCORE.RESTR.norm>
0

>  <SCORE.SYSTEM>
0

>  <SCORE.SYSTEM.CONST>
0

>  <SCORE.SYSTEM.DIHEDRAL>
0

>  <SCORE.SYSTEM.SOLV>
0

>  <SCORE.SYSTEM.norm>
0

>  <SCORE.heavy>
14

>  <SCORE.norm>
-0.464473

>  <RMSD>
2.319

$$$$
ligand
 OpenBabel11021811393D
libRbt.so/2013.1/901 2013/11/27
 14 13  0  0  0  0  0  0  0  0999 V2000
   -4.4788    3.2203    7.0138 N   0  0  0  0  0  0  0  0  0  0  0  0
   -3.0843    2.8687    6.4946 C   0  0  0  0  0  0  0  0  0  0  0  0
   -2.2357    2.7211    7.7049 C   0  0  0  0  0  0  0  0  0  0  0  0
   -2.6224    1.5625    8.6097 C   0  0  0  0  0  0  0  0  0  0  0  0
   -1.7631    1.5724    9.8238 N   0  0  0  0  0  0  0  0  0  0  0  0
   -1.7172    0.1573   10.4279 C   0  0  0  0  0  0  0  0  0  0  0  0
   -0.1740   -0.2367   10.2398 C   0  0  0  0  0  0  0  0  0  0  0  0
    0.0052   -1.4788   10.6190 C   0  0  0  0  0  0  0  0  0  0  0  0
    1.6294   -1.5103   10.4121 C   0  0  0  0  0  0  0  0  0  0  0  0
    1.8595   -3.0289   10.7161 N   0  0  0  0  0  0  0  0  0  0  0  0
    3.2984   -3.3470   11.2883 C   0  0  0  0  0  0  0  0  0  0  0  0
    4.0595   -4.2153   10.1330 C   0  0  0  0  0  0  0  0  0  0  0  0
    3.3371   -5.5311   10.1467 C   0  0  0  0  0  0  0  0  0  0  0  0
    4.0791   -6.4033    9.1617 N   0  0  0  0  0  0  0  0  0  0  0  0
  1  2  1  0  0  0  0
  2  3  1  0  0  0  0
  3  4  1  0  0  0  0
  4  5  1  0  0  0  0
  5  6  1  0  0  0  0
  6  7  1  0  0  0  0
  7  8  1  0  0  0  0
  8  9  1  0  0  0  0
  9 10  1  0  0  0  0
 10 11  1  0  0  0  0
 11 12  1  0  0  0  0
 12 13  1  0  0  0  0
 13 14  1  0  0  0  0
M  END
>  <CHROM.1>
65.04316805,-176.31598909,-156.57582119,114.95979953,-175.06027581,-176.07906159
-174.47983126,-152.46839719,-112.47172627,-69.77328768,-175.84824321,0.15671829
-0.97486556,9.48522475,-3.04054489,-0.85629357,1.38343000

>  <Name>
ligand

>  <RI>
0

>  <Rbt.Current_Directory>
/home/itssahil/PROJECTS/Mol_Feturizer/New_Systems/rnas/1FUF

>  <Rbt.Executable>
rbdock ($Id: //depot/dev/client3/rdock/2013.1/src/exe/rbdock.cxx#4 $)

>  <Rbt.Library>
libRbt.so (2013.1, Build901 2013/11/27)

>  <Rbt.Parameter_File>
/export/apps/rDock/src/rDock_2013.1_src/data/scripts/dock_solv.prm

>  <Rbt.Receptor>
prm/pocket_docking_5.prm

>  <SCORE>
-5.16225

>  <SCORE.INTER>
-2.80677

>  <SCORE.INTER.CONST>
1

>  <SCORE.INTER.POLAR>
0

>  <SCORE.INTER.ROT>
11

>  <SCORE.INTER.SOLV>
17.0621

>  <SCORE.INTER.VDW>
-18.4919

>  <SCORE.INTER.norm>
-0.200483

>  <SCORE.INTRA>
-2.35548

>  <SCORE.INTRA.DIHEDRAL>
-6.48719

>  <SCORE.INTRA.DIHEDRAL.0>
10.5765

>  <SCORE.INTRA.POLAR>
0

>  <SCORE.INTRA.POLAR.0>
0

>  <SCORE.INTRA.REPUL>
0

>  <SCORE.INTRA.REPUL.0>
0

>  <SCORE.INTRA.SOLV>
1.20974

>  <SCORE.INTRA.SOLV.lig_0>
-50.1861

>  <SCORE.INTRA.VDW>
0.283245

>  <SCORE.INTRA.VDW.0>
-1.36671

>  <SCORE.INTRA.norm>
-0.168249

>  <SCORE.RESTR>
0

>  <SCORE.RESTR.CAVITY>
0

>  <SCORE.RESTR.norm>
0

>  <SCORE.SYSTEM>
0

>  <SCORE.SYSTEM.CONST>
0

>  <SCORE.SYSTEM.DIHEDRAL>
0

>  <SCORE.SYSTEM.SOLV>
0

>  <SCORE.SYSTEM.norm>
0

>  <SCORE.heavy>
14

>  <SCORE.norm>
-0.368732

>  <RMSD>
2.326

$$$$
ligand
 OpenBabel11021811393D
libRbt.so/2013.1/901 2013/11/27
 14 13  0  0  0  0  0  0  0  0999 V2000
   -3.7868    1.6057    8.6654 N   0  0  0  0  0  0  0  0  0  0  0  0
   -2.4249    2.1172    9.1360 C   0  0  0  0  0  0  0  0  0  0  0  0
   -2.2254    1.5305   10.4860 C   0  0  0  0  0  0  0  0  0  0  0  0
   -1.9885    0.0291   10.4933 C   0  0  0  0  0  0  0  0  0  0  0  0
   -0.6470   -0.2647    9.9220 N   0  0  0  0  0  0  0  0  0  0  0  0
    0.4280   -0.0347   10.9996 C   0  0  0  0  0  0  0  0  0  0  0  0
    0.8486   -1.5353   11.3781 C   0  0  0  0  0  0  0  0  0  0  0  0
    1.6242   -2.0180   10.4379 C   0  0  0  0  0  0  0  0  0  0  0  0
    2.3440   -3.1685   11.3544 C   0  0  0  0  0  0  0  0  0  0  0  0
    1.4753   -4.3882   10.8970 N   0  0  0  0  0  0  0  0  0  0  0  0
    2.0788   -5.7868   11.3198 C   0  0  0  0  0  0  0  0  0  0  0  0
    3.0646   -6.2385   10.0983 C   0  0  0  0  0  0  0  0  0  0  0  0
    4.3047   -5.4239   10.3256 C   0  0  0  0  0  0  0  0  0  0  0  0
    5.1920   -5.7089    9.1368 N   0  0  0  0  0  0  0  0  0  0  0  0
  1  2  1  0  0  0  0
  2  3  1  0  0  0  0
  3  4  1  0  0  0  0
  4  5  1  0  0  0  0
  5  6  1  0  0  0  0
  6  7  1  0  0  0  0
  7  8  1  0  0  0  0
  8  9  1  0  0  0  0
  9 10  1  0  0  0  0
 10 11  1  0  0  0  0
 11 12  1  0  0  0  0
 12 13  1  0  0  0  0
 13 14  1  0  0  0  0
M  END
>  <CHROM.1>
69.90571554,70.33152887,80.54809315,106.46860290,76.67160019,157.49697834
98.87054247,166.61904610,-89.29944113,78.33125178,-174.49350218,0.73490520
-2.09175163,10.33243213,-2.52151528,-0.63274496,2.36081574

>  <Name>
ligand

>  <RI>
0

>  <Rbt.Current_Directory>
/home/itssahil/PROJECTS/Mol_Feturizer/New_Systems/rnas/1FUF

>  <Rbt.Executable>
rbdock ($Id: //depot/dev/client3/rdock/2013.1/src/exe/rbdock.cxx#4 $)

>  <Rbt.Library>
libRbt.so (2013.1, Build901 2013/11/27)

>  <Rbt.Parameter_File>
/export/apps/rDock/src/rDock_2013.1_src/data/scripts/dock_solv.prm

>  <Rbt.Receptor>
prm/blind_docking_100.prm

>  <SCORE>
1.14848

>  <SCORE.INTER>
-1.8627

>  <SCORE.INTER.CONST>
1

>  <SCORE.INTER.POLAR>
0

>  <SCORE.INTER.ROT>
11

>  <SCORE.INTER.SOLV>
16.3057

>  <SCORE.INTER.VDW>
-17.6104

>  <SCORE.INTER.norm>
-0.13305

>  <SCORE.INTRA>
3.01119

>  <SCORE.INTRA.DIHEDRAL>
0.43338

>  <SCORE.INTRA.DIHEDRAL.0>
10.5765

>  <SCORE.INTRA.POLAR>
0

>  <SCORE.INTRA.POLAR.0>
0

>  <SCORE.INTRA.REPUL>
0

>  <SCORE.INTRA.REPUL.0>
0

>  <SCORE.INTRA.SOLV>
2.67523

>  <SCORE.INTRA.SOLV.lig_0>
-50.1861

>  <SCORE.INTRA.VDW>
1.45688

>  <SCORE.INTRA.VDW.0>
-1.36671

>  <SCORE.INTRA.norm>
0.215085

>  <SCORE.RESTR>
0

>  <SCORE.RESTR.CAVITY>
0

>  <SCORE.RESTR.norm>
0

>  <SCORE.SYSTEM>
0

>  <SCORE.SYSTEM.CONST>
0

>  <SCORE.SYSTEM.DIHEDRAL>
0

>  <SCORE.SYSTEM.SOLV>
0

>  <SCORE.SYSTEM.norm>
0

>  <SCORE.heavy>
14

>  <SCORE.norm>
0.0820345

>  <RMSD>
2.329

$$$$
ligand
 OpenBabel11021811393D
libRbt.so/2013.1/901 2013/11/27
 14 13  0  0  0  0  0  0  0  0999 V2000
    5.4646   -7.5765    8.2500 N   0  0  0  0  0  0  0  0  0  0  0  0
    4.2365   -6.7587    8.6513 C   0  0  0  0  0  0  0  0  0  0  0  0
    4.2471   -6.7294   10.1364 C   0  0  0  0  0  0  0  0  0  0  0  0
    3.0688   -6.0008   10.7620 C   0  0  0  0  0  0  0  0  0  0  0  0
    3.1067   -4.5666   10.3696 N   0  0  0  0  0  0  0  0  0  0  0  0
    2.1301   -3.7698   11.2534 C   0  0  0  0  0  0  0  0  0  0  0  0
    2.2397   -2.2967   10.6289 C   0  0  0  0  0  0  0  0  0  0  0  0
    1.4927   -1.4745   11.3250 C   0  0  0  0  0  0  0  0  0  0  0  0
    0.1053   -1.7225   10.4911 C   0  0  0  0  0  0  0  0  0  0  0  0
   -0.7855   -0.6675   11.2292 N   0  0  0  0  0  0  0  0  0  0  0  0
   -1.2670    0.5149   10.2969 C   0  0  0  0  0  0  0  0  0  0  0  0
   -2.8860    0.3479   10.1594 C   0  0  0  0  0  0  0  0  0  0  0  0
   -3.2807    1.4723    9.2467 C   0  0  0  0  0  0  0  0  0  0  0  0
   -4.7819    1.3692    9.1138 N   0  0  0  0  0  0  0  0  0  0  0  0
  1  2  1  0  0  0  0
  2  3  1  0  0  0  0
  3  4  1  0  0  0  0
  4  5  1  0  0  0  0
  5  6  1  0  0  0  0
  6  7  1  0  0  0  0
  7  8  1  0  0  0  0
  8  9  1  0  0  0  0
  9 10  1  0  0  0  0
 10 11  1  0  0  0  0
 11 12  1  0  0  0  0
 12 13  1  0  0  0  0
 13 14  1  0  0  0  0
M  END
>  <CHROM.1>
-177.85552919,-63.44798660,-166.70113268,-176.52988845,-177.31794903,-87.70597051
-175.83211943,115.38499938,113.08132686,-178.85653704,-178.95227628,0.93510548
-2.70413269,10.13686025,0.48460505,0.65628508,-2.23975520

>  <Name>
ligand

>  <RI>
0

>  <Rbt.Current_Directory>
/home/itssahil/PROJECTS/Mol_Feturizer/New_Systems/rnas/1FUF

>  <Rbt.Executable>
rbdock ($Id: //depot/dev/client3/rdock/2013.1/src/exe/rbdock.cxx#4 $)

>  <Rbt.Library>
libRbt.so (2013.1, Build901 2013/11/27)

>  <Rbt.Parameter_File>
/export/apps/rDock/src/rDock_2013.1_src/data/scripts/dock_solv.prm

>  <Rbt.Receptor>
prm/pocket_docking_6.prm

>  <SCORE>
-3.67787

>  <SCORE.INTER>
-2.50077

>  <SCORE.INTER.CONST>
1

>  <SCORE.INTER.POLAR>
0

>  <SCORE.INTER.ROT>
11

>  <SCORE.INTER.SOLV>
15.897

>  <SCORE.INTER.VDW>
-17.8995

>  <SCORE.INTER.norm>
-0.178626

>  <SCORE.INTRA>
-1.1771

>  <SCORE.INTRA.DIHEDRAL>
-5.22599

>  <SCORE.INTRA.DIHEDRAL.0>
10.5765

>  <SCORE.INTRA.POLAR>
0

>  <SCORE.INTRA.POLAR.0>
0

>  <SCORE.INTRA.REPUL>
0

>  <SCORE.INTRA.REPUL.0>
0

>  <SCORE.INTRA.SOLV>
0.54766

>  <SCORE.INTRA.SOLV.lig_0>
-50.1861

>  <SCORE.INTRA.VDW>
1.16207

>  <SCORE.INTRA.VDW.0>
-1.36671

>  <SCORE.INTRA.norm>
-0.0840784

>  <SCORE.RESTR>
0

>  <SCORE.RESTR.CAVITY>
0

>  <SCORE.RESTR.norm>
0

>  <SCORE.SYSTEM>
0

>  <SCORE.SYSTEM.CONST>
0

>  <SCORE.SYSTEM.DIHEDRAL>
0

>  <SCORE.SYSTEM.SOLV>
0

>  <SCORE.SYSTEM.norm>
0

>  <SCORE.heavy>
14

>  <SCORE.norm>
-0.262705

>  <RMSD>
2.332

$$$$
ligand
 OpenBabel11021811393D
libRbt.so/2013.1/901 2013/11/27
 14 13  0  0  0  0  0  0  0  0999 V2000
   -6.8411    3.2713    7.4802 N   0  0  0  0  0  0  0  0  0  0  0  0
   -5.3857    3.6901    7.2690 C   0  0  0  0  0  0  0  0  0  0  0  0
   -4.5692    2.5598    7.7813 C   0  0  0  0  0  0  0  0  0  0  0  0
   -4.7430    2.2767    9.2646 C   0  0  0  0  0  0  0  0  0  0  0  0
   -3.9832    1.0509    9.6285 N   0  0  0  0  0  0  0  0  0  0  0  0
   -2.5601    1.4435   10.0649 C   0  0  0  0  0  0  0  0  0  0  0  0
   -1.8981    0.0152   10.3710 C   0  0  0  0  0  0  0  0  0  0  0  0
   -0.6479    0.1845   10.7273 C   0  0  0  0  0  0  0  0  0  0  0  0
   -0.3117   -1.3940   11.0047 C   0  0  0  0  0  0  0  0  0  0  0  0
    1.1997   -1.2333   11.3803 N   0  0  0  0  0  0  0  0  0  0  0  0
    2.1867   -1.6485   10.2173 C   0  0  0  0  0  0  0  0  0  0  0  0
    2.8798   -3.0484   10.6946 C   0  0  0  0  0  0  0  0  0  0  0  0
    3.7882   -3.4000    9.5525 C   0  0  0  0  0  0  0  0  0  0  0  0
    4.4244   -4.7143    9.9396 N   0  0  0  0  0  0  0  0  0  0  0  0
  1  2  1  0  0  0  0
  2  3  1  0  0  0  0
  3  4  1  0  0  0  0
  4  5  1  0  0  0  0
  5  6  1  0  0  0  0
  6  7  1  0  0  0  0
  7  8  1  0  0  0  0
  8  9  1  0  0  0  0
  9 10  1  0  0  0  0
 10 11  1  0  0  0  0
 11 12  1  0  0  0  0
 12 13  1  0  0  0  0
 13 14  1  0  0  0  0
M  END
>  <CHROM.1>
-62.43727600,174.53157859,90.82355019,-178.48409890,178.31555135,178.10978854
177.88427823,-102.78132373,-108.65441180,179.37570108,-178.54023309,-1.17575445
-0.06745865,9.66973211,-2.92269470,-0.60998324,1.59522865

>  <Name>
ligand

>  <RI>
0

>  <Rbt.Current_Directory>
/home/itssahil/PROJECTS/Mol_Feturizer/New_Systems/rnas/1FUF

>  <Rbt.Executable>
rbdock ($Id: //depot/dev/client3/rdock/2013.1/src/exe/rbdock.cxx#4 $)

>  <Rbt.Library>
libRbt.so (2013.1, Build901 2013/11/27)

>  <Rbt.Parameter_File>
/export/apps/rDock/src/rDock_2013.1_src/data/scripts/dock_solv.prm

>  <Rbt.Receptor>
prm/blind_docking_40.prm

>  <SCORE>
-4.44929

>  <SCORE.INTER>
-1.49883

>  <SCORE.INTER.CONST>
1

>  <SCORE.INTER.POLAR>
0

>  <SCORE.INTER.ROT>
11

>  <SCORE.INTER.SOLV>
14.8878

>  <SCORE.INTER.VDW>
-16.8952

>  <SCORE.INTER.norm>
-0.107059

>  <SCORE.INTRA>
-2.95046

>  <SCORE.INTRA.DIHEDRAL>
-7.69232

>  <SCORE.INTRA.DIHEDRAL.0>
10.5765

>  <SCORE.INTRA.POLAR>
0

>  <SCORE.INTRA.POLAR.0>
0

>  <SCORE.INTRA.REPUL>
0

>  <SCORE.INTRA.REPUL.0>
0

>  <SCORE.INTRA.SOLV>
0.832395

>  <SCORE.INTRA.SOLV.lig_0>
-50.1861

>  <SCORE.INTRA.VDW>
0.479502

>  <SCORE.INTRA.VDW.0>
-1.36671

>  <SCORE.INTRA.norm>
-0.210747

>  <SCORE.RESTR>
0

>  <SCORE.RESTR.CAVITY>
0

>  <SCORE.RESTR.norm>
0

>  <SCORE.SYSTEM>
0

>  <SCORE.SYSTEM.CONST>
0

>  <SCORE.SYSTEM.DIHEDRAL>
0

>  <SCORE.SYSTEM.SOLV>
0

>  <SCORE.SYSTEM.norm>
0

>  <SCORE.heavy>
14

>  <SCORE.norm>
-0.317806

>  <RMSD>
2.336

$$$$
ligand
 OpenBabel11021811393D
libRbt.so/2013.1/901 2013/11/27
 14 13  0  0  0  0  0  0  0  0999 V2000
   -6.5425    3.9957    6.4727 N   0  0  0  0  0  0  0  0  0  0  0  0
   -6.2760    3.4254    7.8662 C   0  0  0  0  0  0  0  0  0  0  0  0
   -4.8723    2.9402    7.8347 C   0  0  0  0  0  0  0  0  0  0  0  0
   -4.4125    2.2545    9.1111 C   0  0  0  0  0  0  0  0  0  0  0  0
   -3.0197    1.7628    8.9365 N   0  0  0  0  0  0  0  0  0  0  0  0
   -2.6705    0.8004   10.0861 C   0  0  0  0  0  0  0  0  0  0  0  0
   -1.1541    0.4064    9.7434 C   0  0  0  0  0  0  0  0  0  0  0  0
   -0.6894   -0.3836   10.6807 C   0  0  0  0  0  0  0  0  0  0  0  0
    0.8436   -0.4753   10.1122 C   0  0  0  0  0  0  0  0  0  0  0  0
    1.4105   -1.4789   11.1718 N   0  0  0  0  0  0  0  0  0  0  0  0
    1.5561   -2.9560   10.6275 C   0  0  0  0  0  0  0  0  0  0  0  0
    3.1589   -3.2116   10.4450 C   0  0  0  0  0  0  0  0  0  0  0  0
    3.2382   -4.6348    9.9743 C   0  0  0  0  0  0  0  0  0  0  0  0
    4.7124   -4.9161    9.8025 N   0  0  0  0  0  0  0  0  0  0  0  0
  1  2  1  0  0  0  0
  2  3  1  0  0  0  0
  3  4  1  0  0  0  0
  4  5  1  0  0  0  0
  5  6  1  0  0  0  0
  6  7  1  0  0  0  0
  7  8  1  0  0  0  0
  8  9  1  0  0  0  0
  9 10  1  0  0  0  0
 10 11  1  0  0  0  0
 11 12  1  0  0  0  0
 12 13  1  0  0  0  0
 13 14  1  0  0  0  0
M  END
>  <CHROM.1>
-176.75619590,177.52224056,-167.13525128,-179.04231331,177.48670938,-175.39354387
-177.12382657,102.86706992,107.85112773,178.14540970,-179.58181104,-1.05132326
-0.17649685,9.49049347,-3.12142037,-0.70012537,1.25692026

>  <Name>
ligand

>  <RI>
0

>  <Rbt.Current_Directory>
/home/itssahil/PROJECTS/Mol_Feturizer/New_Systems/rnas/1FUF

>  <Rbt.Executable>
rbdock ($Id: //depot/dev/client3/rdock/2013.1/src/exe/rbdock.cxx#4 $)

>  <Rbt.Library>
libRbt.so (2013.1, Build901 2013/11/27)

>  <Rbt.Parameter_File>
/export/apps/rDock/src/rDock_2013.1_src/data/scripts/dock_solv.prm

>  <Rbt.Receptor>
prm/blind_docking_80.prm

>  <SCORE>
-5.81215

>  <SCORE.INTER>
-1.69123

>  <SCORE.INTER.CONST>
1

>  <SCORE.INTER.POLAR>
0

>  <SCORE.INTER.ROT>
11

>  <SCORE.INTER.SOLV>
16.7355

>  <SCORE.INTER.VDW>
-17.6393

>  <SCORE.INTER.norm>
-0.120802

>  <SCORE.INTRA>
-4.12092

>  <SCORE.INTRA.DIHEDRAL>
-8.16743

>  <SCORE.INTRA.DIHEDRAL.0>
10.5765

>  <SCORE.INTRA.POLAR>
0

>  <SCORE.INTRA.POLAR.0>
0

>  <SCORE.INTRA.REPUL>
0

>  <SCORE.INTRA.REPUL.0>
0

>  <SCORE.INTRA.SOLV>
-0.148413

>  <SCORE.INTRA.SOLV.lig_0>
-50.1861

>  <SCORE.INTRA.VDW>
0.037

>  <SCORE.INTRA.VDW.0>
-1.36671

>  <SCORE.INTRA.norm>
-0.294352

>  <SCORE.RESTR>
0

>  <SCORE.RESTR.CAVITY>
0

>  <SCORE.RESTR.norm>
0

>  <SCORE.SYSTEM>
0

>  <SCORE.SYSTEM.CONST>
0

>  <SCORE.SYSTEM.DIHEDRAL>
0

>  <SCORE.SYSTEM.SOLV>
0

>  <SCORE.SYSTEM.norm>
0

>  <SCORE.heavy>
14

>  <SCORE.norm>
-0.415154

>  <RMSD>
2.343

$$$$
ligand
 OpenBabel11021811393D
libRbt.so/2013.1/901 2013/11/27
 14 13  0  0  0  0  0  0  0  0999 V2000
   -3.3862    2.4904    7.4794 N   0  0  0  0  0  0  0  0  0  0  0  0
   -3.1940    1.9553    8.8989 C   0  0  0  0  0  0  0  0  0  0  0  0
   -1.9947    1.0812    8.8345 C   0  0  0  0  0  0  0  0  0  0  0  0
   -1.5665    0.4971   10.1710 C   0  0  0  0  0  0  0  0  0  0  0  0
   -0.3411   -0.3249    9.9840 N   0  0  0  0  0  0  0  0  0  0  0  0
    0.5089   -0.2727   11.2663 C   0  0  0  0  0  0  0  0  0  0  0  0
    1.0238   -1.7866   11.3880 C   0  0  0  0  0  0  0  0  0  0  0  0
    1.9870   -1.9876   10.5217 C   0  0  0  0  0  0  0  0  0  0  0  0
    2.3825   -3.4964   11.0205 C   0  0  0  0  0  0  0  0  0  0  0  0
    3.5817   -3.7425   10.0444 N   0  0  0  0  0  0  0  0  0  0  0  0
    4.5770   -4.8669   10.5384 C   0  0  0  0  0  0  0  0  0  0  0  0
    3.8715   -6.2901   10.1582 C   0  0  0  0  0  0  0  0  0  0  0  0
    3.9514   -6.3347    8.6599 C   0  0  0  0  0  0  0  0  0  0  0  0
    5.4011   -6.6208    8.3465 N   0  0  0  0  0  0  0  0  0  0  0  0
  1  2  1  0  0  0  0
  2  3  1  0  0  0  0
  3  4  1  0  0  0  0
  4  5  1  0  0  0  0
  5  6  1  0  0  0  0
  6  7  1  0  0  0  0
  7  8  1  0  0  0  0
  8  9  1  0  0  0  0
  9 10  1  0  0  0  0
 10 11  1  0  0  0  0
 11 12  1  0  0  0  0
 12 13  1  0  0  0  0
 13 14  1  0  0  0  0
M  END
>  <CHROM.1>
176.63631906,-178.47782212,149.24824545,140.07067264,76.28014051,173.69858136
-177.49768271,158.85844657,79.63869068,69.84061412,73.69582110,1.20010903
-2.12140060,9.80831909,2.92973288,-0.80021373,1.19745679

>  <Name>
ligand

>  <RI>
0

>  <Rbt.Current_Directory>
/home/itssahil/PROJECTS/Mol_Feturizer/New_Systems/rnas/1FUF

>  <Rbt.Executable>
rbdock ($Id: //depot/dev/client3/rdock/2013.1/src/exe/rbdock.cxx#4 $)

>  <Rbt.Library>
libRbt.so (2013.1, Build901 2013/11/27)

>  <Rbt.Parameter_File>
/export/apps/rDock/src/rDock_2013.1_src/data/scripts/dock_solv.prm

>  <Rbt.Receptor>
prm/blind_docking_100.prm

>  <SCORE>
-3.58435

>  <SCORE.INTER>
-2.20182

>  <SCORE.INTER.CONST>
1

>  <SCORE.INTER.POLAR>
0

>  <SCORE.INTER.ROT>
11

>  <SCORE.INTER.SOLV>
16.0203

>  <SCORE.INTER.VDW>
-17.7413

>  <SCORE.INTER.norm>
-0.157273

>  <SCORE.INTRA>
-1.38253

>  <SCORE.INTRA.DIHEDRAL>
-6.21123

>  <SCORE.INTRA.DIHEDRAL.0>
10.5765

>  <SCORE.INTRA.POLAR>
0

>  <SCORE.INTRA.POLAR.0>
0

>  <SCORE.INTRA.REPUL>
0

>  <SCORE.INTRA.REPUL.0>
0

>  <SCORE.INTRA.SOLV>
1.98812

>  <SCORE.INTRA.SOLV.lig_0>
-50.1861

>  <SCORE.INTRA.VDW>
0.729032

>  <SCORE.INTRA.VDW.0>
-1.36671

>  <SCORE.INTRA.norm>
-0.0987518

>  <SCORE.RESTR>
0

>  <SCORE.RESTR.CAVITY>
0

>  <SCORE.RESTR.norm>
0

>  <SCORE.SYSTEM>
0

>  <SCORE.SYSTEM.CONST>
0

>  <SCORE.SYSTEM.DIHEDRAL>
0

>  <SCORE.SYSTEM.SOLV>
0

>  <SCORE.SYSTEM.norm>
0

>  <SCORE.heavy>
14

>  <SCORE.norm>
-0.256025

>  <RMSD>
2.346

$$$$
ligand
 OpenBabel11021811393D
libRbt.so/2013.1/901 2013/11/27
 14 13  0  0  0  0  0  0  0  0999 V2000
    4.2918   -4.8302    9.8807 N   0  0  0  0  0  0  0  0  0  0  0  0
    3.1008   -4.4449   10.7588 C   0  0  0  0  0  0  0  0  0  0  0  0
    2.5790   -3.1775   10.1860 C   0  0  0  0  0  0  0  0  0  0  0  0
    1.3604   -2.6162   10.9006 C   0  0  0  0  0  0  0  0  0  0  0  0
    0.9376   -1.3513   10.2423 N   0  0  0  0  0  0  0  0  0  0  0  0
   -0.3051   -0.7934   10.9595 C   0  0  0  0  0  0  0  0  0  0  0  0
   -0.9171    0.1909    9.8511 C   0  0  0  0  0  0  0  0  0  0  0  0
   -2.0021    0.7546   10.3240 C   0  0  0  0  0  0  0  0  0  0  0  0
   -2.4134    1.5568    8.9569 C   0  0  0  0  0  0  0  0  0  0  0  0
   -3.7004    2.2657    9.4977 N   0  0  0  0  0  0  0  0  0  0  0  0
   -4.9995    1.3693    9.4087 C   0  0  0  0  0  0  0  0  0  0  0  0
   -6.2090    2.2671   10.0404 C   0  0  0  0  0  0  0  0  0  0  0  0
   -6.3891    3.3711    9.0395 C   0  0  0  0  0  0  0  0  0  0  0  0
   -7.2105    2.7679    7.9245 N   0  0  0  0  0  0  0  0  0  0  0  0
  1  2  1  0  0  0  0
  2  3  1  0  0  0  0
  3  4  1  0  0  0  0
  4  5  1  0  0  0  0
  5  6  1  0  0  0  0
  6  7  1  0  0  0  0
  7  8  1  0  0  0  0
  8  9  1  0  0  0  0
  9 10  1  0  0  0  0
 10 11  1  0  0  0  0
 11 12  1  0  0  0  0
 12 13  1  0  0  0  0
 13 14  1  0  0  0  0
M  END
>  <CHROM.1>
179.05455284,179.75927251,179.41989960,-160.03084281,-179.92161283,-175.73262493
-179.04780977,-84.92929515,178.92301705,68.29200792,79.90485846,-1.56266854
-0.19067557,9.85525699,0.45127789,0.45649630,-2.61734934

>  <Name>
ligand

>  <RI>
0

>  <Rbt.Current_Directory>
/home/itssahil/PROJECTS/Mol_Feturizer/New_Systems/rnas/1FUF

>  <Rbt.Executable>
rbdock ($Id: //depot/dev/client3/rdock/2013.1/src/exe/rbdock.cxx#4 $)

>  <Rbt.Library>
libRbt.so (2013.1, Build901 2013/11/27)

>  <Rbt.Parameter_File>
/export/apps/rDock/src/rDock_2013.1_src/data/scripts/dock_solv.prm

>  <Rbt.Receptor>
prm/blind_docking_60.prm

>  <SCORE>
-3.92996

>  <SCORE.INTER>
-1.12561

>  <SCORE.INTER.CONST>
1

>  <SCORE.INTER.POLAR>
0

>  <SCORE.INTER.ROT>
11

>  <SCORE.INTER.SOLV>
14.6584

>  <SCORE.INTER.VDW>
-16.5699

>  <SCORE.INTER.norm>
-0.0804007

>  <SCORE.INTRA>
-2.80435

>  <SCORE.INTRA.DIHEDRAL>
-8.12621

>  <SCORE.INTRA.DIHEDRAL.0>
10.5765

>  <SCORE.INTRA.POLAR>
0

>  <SCORE.INTRA.POLAR.0>
0

>  <SCORE.INTRA.REPUL>
0

>  <SCORE.INTRA.REPUL.0>
0

>  <SCORE.INTRA.SOLV>
1.45523

>  <SCORE.INTRA.SOLV.lig_0>
-50.1861

>  <SCORE.INTRA.VDW>
0.531139

>  <SCORE.INTRA.VDW.0>
-1.36671

>  <SCORE.INTRA.norm>
-0.200311

>  <SCORE.RESTR>
0

>  <SCORE.RESTR.CAVITY>
0

>  <SCORE.RESTR.norm>
0

>  <SCORE.SYSTEM>
0

>  <SCORE.SYSTEM.CONST>
0

>  <SCORE.SYSTEM.DIHEDRAL>
0

>  <SCORE.SYSTEM.SOLV>
0

>  <SCORE.SYSTEM.norm>
0

>  <SCORE.heavy>
14

>  <SCORE.norm>
-0.280712

>  <RMSD>
2.346

$$$$
ligand
 OpenBabel11021811393D
libRbt.so/2013.1/901 2013/11/27
 14 13  0  0  0  0  0  0  0  0999 V2000
   -3.3605    2.7025    7.0789 N   0  0  0  0  0  0  0  0  0  0  0  0
   -3.3708    2.1726    8.5131 C   0  0  0  0  0  0  0  0  0  0  0  0
   -2.1628    1.3158    8.6284 C   0  0  0  0  0  0  0  0  0  0  0  0
   -1.9711    0.6749    9.9933 C   0  0  0  0  0  0  0  0  0  0  0  0
   -0.7143   -0.1205    9.9963 N   0  0  0  0  0  0  0  0  0  0  0  0
   -0.5520   -0.8131   11.3615 C   0  0  0  0  0  0  0  0  0  0  0  0
    1.0059   -1.1935   11.3604 C   0  0  0  0  0  0  0  0  0  0  0  0
    1.1818   -2.2977   10.6759 C   0  0  0  0  0  0  0  0  0  0  0  0
    2.7530   -2.5247   11.0778 C   0  0  0  0  0  0  0  0  0  0  0  0
    2.9376   -3.9453   10.4459 N   0  0  0  0  0  0  0  0  0  0  0  0
    4.2398   -4.6921   10.9415 C   0  0  0  0  0  0  0  0  0  0  0  0
    4.1692   -6.1923   10.2994 C   0  0  0  0  0  0  0  0  0  0  0  0
    4.3249   -5.9534    8.8257 C   0  0  0  0  0  0  0  0  0  0  0  0
    4.2194   -7.3185    8.1874 N   0  0  0  0  0  0  0  0  0  0  0  0
  1  2  1  0  0  0  0
  2  3  1  0  0  0  0
  3  4  1  0  0  0  0
  4  5  1  0  0  0  0
  5  6  1  0  0  0  0
  6  7  1  0  0  0  0
  7  8  1  0  0  0  0
  8  9  1  0  0  0  0
  9 10  1  0  0  0  0
 10 11  1  0  0  0  0
 11 12  1  0  0  0  0
 12 13  1  0  0  0  0
 13 14  1  0  0  0  0
M  END
>  <CHROM.1>
-179.97433195,-178.31726709,-177.77048014,-162.20686571,-81.34752876,-171.10065403
172.23563072,-165.00362201,174.27240343,67.19074827,-178.19450754,0.90720393
-2.01317453,9.81361255,2.95538224,-0.82434597,1.18727557

>  <Name>
ligand

>  <RI>
0

>  <Rbt.Current_Directory>
/home/itssahil/PROJECTS/Mol_Feturizer/New_Systems/rnas/1FUF

>  <Rbt.Executable>
rbdock ($Id: //depot/dev/client3/rdock/2013.1/src/exe/rbdock.cxx#4 $)

>  <Rbt.Library>
libRbt.so (2013.1, Build901 2013/11/27)

>  <Rbt.Parameter_File>
/export/apps/rDock/src/rDock_2013.1_src/data/scripts/dock_solv.prm

>  <Rbt.Receptor>
prm/blind_docking_20.prm

>  <SCORE>
-4.78541

>  <SCORE.INTER>
-1.57989

>  <SCORE.INTER.CONST>
1

>  <SCORE.INTER.POLAR>
0

>  <SCORE.INTER.ROT>
11

>  <SCORE.INTER.SOLV>
19.7693

>  <SCORE.INTER.VDW>
-18.5763

>  <SCORE.INTER.norm>
-0.112849

>  <SCORE.INTRA>
-3.20552

>  <SCORE.INTRA.DIHEDRAL>
-7.80837

>  <SCORE.INTRA.DIHEDRAL.0>
10.5765

>  <SCORE.INTRA.POLAR>
0

>  <SCORE.INTRA.POLAR.0>
0

>  <SCORE.INTRA.REPUL>
0

>  <SCORE.INTRA.REPUL.0>
0

>  <SCORE.INTRA.SOLV>
0.724578

>  <SCORE.INTRA.SOLV.lig_0>
-50.1861

>  <SCORE.INTRA.VDW>
0.33637

>  <SCORE.INTRA.VDW.0>
-1.36671

>  <SCORE.INTRA.norm>
-0.228966

>  <SCORE.RESTR>
0

>  <SCORE.RESTR.CAVITY>
0

>  <SCORE.RESTR.norm>
0

>  <SCORE.SYSTEM>
0

>  <SCORE.SYSTEM.CONST>
0

>  <SCORE.SYSTEM.DIHEDRAL>
0

>  <SCORE.SYSTEM.SOLV>
0

>  <SCORE.SYSTEM.norm>
0

>  <SCORE.heavy>
14

>  <SCORE.norm>
-0.341815

>  <RMSD>
2.347

$$$$
ligand
 OpenBabel11021811393D
libRbt.so/2013.1/901 2013/11/27
 14 13  0  0  0  0  0  0  0  0999 V2000
   -4.2017    1.8663    8.1243 N   0  0  0  0  0  0  0  0  0  0  0  0
   -3.6773    1.9546    9.5579 C   0  0  0  0  0  0  0  0  0  0  0  0
   -2.3838    1.2242    9.5530 C   0  0  0  0  0  0  0  0  0  0  0  0
   -1.6132    1.2960   10.8613 C   0  0  0  0  0  0  0  0  0  0  0  0
   -0.4026    0.4365   10.7724 N   0  0  0  0  0  0  0  0  0  0  0  0
   -0.7449   -0.9800   11.2686 C   0  0  0  0  0  0  0  0  0  0  0  0
    0.3067   -1.8810   10.4598 C   0  0  0  0  0  0  0  0  0  0  0  0
    1.4199   -1.9692   11.1466 C   0  0  0  0  0  0  0  0  0  0  0  0
    2.2036   -2.9704   10.1146 C   0  0  0  0  0  0  0  0  0  0  0  0
    3.3592   -3.4129   11.0738 N   0  0  0  0  0  0  0  0  0  0  0  0
    4.6160   -4.0029   10.3178 C   0  0  0  0  0  0  0  0  0  0  0  0
    4.1158   -5.4016    9.6384 C   0  0  0  0  0  0  0  0  0  0  0  0
    3.9249   -6.3163   10.8132 C   0  0  0  0  0  0  0  0  0  0  0  0
    2.5328   -6.0254   11.3225 N   0  0  0  0  0  0  0  0  0  0  0  0
  1  2  1  0  0  0  0
  2  3  1  0  0  0  0
  3  4  1  0  0  0  0
  4  5  1  0  0  0  0
  5  6  1  0  0  0  0
  6  7  1  0  0  0  0
  7  8  1  0  0  0  0
  8  9  1  0  0  0  0
  9 10  1  0  0  0  0
 10 11  1  0  0  0  0
 11 12  1  0  0  0  0
 12 13  1  0  0  0  0
 13 14  1  0  0  0  0
M  END
>  <CHROM.1>
174.51758716,175.15960405,-90.68574264,152.63192102,88.32741846,177.43607939
-165.10376566,-160.20204008,-66.70584772,-70.45141327,84.79895483,0.67553125
-1.87018491,10.35888642,2.56737616,-0.57674048,0.54979918

>  <Name>
ligand

>  <RI>
0

>  <Rbt.Current_Directory>
/home/itssahil/PROJECTS/Mol_Feturizer/New_Systems/rnas/1FUF

>  <Rbt.Executable>
rbdock ($Id: //depot/dev/client3/rdock/2013.1/src/exe/rbdock.cxx#4 $)

>  <Rbt.Library>
libRbt.so (2013.1, Build901 2013/11/27)

>  <Rbt.Parameter_File>
/export/apps/rDock/src/rDock_2013.1_src/data/scripts/dock_solv.prm

>  <Rbt.Receptor>
prm/blind_docking_40.prm

>  <SCORE>
0.427303

>  <SCORE.INTER>
-0.865488

>  <SCORE.INTER.CONST>
1

>  <SCORE.INTER.POLAR>
0

>  <SCORE.INTER.ROT>
11

>  <SCORE.INTER.SOLV>
17.9435

>  <SCORE.INTER.VDW>
-17.4915

>  <SCORE.INTER.norm>
-0.0618205

>  <SCORE.INTRA>
1.29279

>  <SCORE.INTRA.DIHEDRAL>
-3.14049

>  <SCORE.INTRA.DIHEDRAL.0>
10.5765

>  <SCORE.INTRA.POLAR>
0

>  <SCORE.INTRA.POLAR.0>
0

>  <SCORE.INTRA.REPUL>
0

>  <SCORE.INTRA.REPUL.0>
0

>  <SCORE.INTRA.SOLV>
4.23689

>  <SCORE.INTRA.SOLV.lig_0>
-50.1861

>  <SCORE.INTRA.VDW>
0.744594

>  <SCORE.INTRA.VDW.0>
-1.36671

>  <SCORE.INTRA.norm>
0.0923422

>  <SCORE.RESTR>
0

>  <SCORE.RESTR.CAVITY>
0

>  <SCORE.RESTR.norm>
0

>  <SCORE.SYSTEM>
0

>  <SCORE.SYSTEM.CONST>
0

>  <SCORE.SYSTEM.DIHEDRAL>
0

>  <SCORE.SYSTEM.SOLV>
0

>  <SCORE.SYSTEM.norm>
0

>  <SCORE.heavy>
14

>  <SCORE.norm>
0.0305216

>  <RMSD>
2.352

$$$$
ligand
 OpenBabel11021811393D
libRbt.so/2013.1/901 2013/11/27
 14 13  0  0  0  0  0  0  0  0999 V2000
   -4.4361    1.0571    8.9413 N   0  0  0  0  0  0  0  0  0  0  0  0
   -3.7301    1.9629    9.9507 C   0  0  0  0  0  0  0  0  0  0  0  0
   -2.2880    1.6212    9.8501 C   0  0  0  0  0  0  0  0  0  0  0  0
   -1.9323    0.2304   10.3499 C   0  0  0  0  0  0  0  0  0  0  0  0
   -0.4659    0.0169   10.2222 N   0  0  0  0  0  0  0  0  0  0  0  0
   -0.1018   -1.3708   10.7802 C   0  0  0  0  0  0  0  0  0  0  0  0
    1.4644   -1.4645   10.4481 C   0  0  0  0  0  0  0  0  0  0  0  0
    1.9021   -2.6607   10.7579 C   0  0  0  0  0  0  0  0  0  0  0  0
    3.4537   -2.4246   10.2903 C   0  0  0  0  0  0  0  0  0  0  0  0
    3.9740   -3.8845   10.5125 N   0  0  0  0  0  0  0  0  0  0  0  0
    3.7845   -4.8207    9.2529 C   0  0  0  0  0  0  0  0  0  0  0  0
    4.4868   -6.2434    9.6408 C   0  0  0  0  0  0  0  0  0  0  0  0
    4.3182   -7.0705    8.3995 C   0  0  0  0  0  0  0  0  0  0  0  0
    5.0760   -8.3496    8.6670 N   0  0  0  0  0  0  0  0  0  0  0  0
  1  2  1  0  0  0  0
  2  3  1  0  0  0  0
  3  4  1  0  0  0  0
  4  5  1  0  0  0  0
  5  6  1  0  0  0  0
  6  7  1  0  0  0  0
  7  8  1  0  0  0  0
  8  9  1  0  0  0  0
  9 10  1  0  0  0  0
 10 11  1  0  0  0  0
 11 12  1  0  0  0  0
 12 13  1  0  0  0  0
 13 14  1  0  0  0  0
M  END
>  <CHROM.1>
-68.03459087,-178.93256253,177.79779881,175.48207925,-174.18541553,179.17506833
-174.57888810,88.27676046,175.67486486,-178.15940373,174.53961118,1.10757146
-2.38560117,9.86178554,2.43463203,-0.40358567,0.51539640

>  <Name>
ligand

>  <RI>
0

>  <Rbt.Current_Directory>
/home/itssahil/PROJECTS/Mol_Feturizer/New_Systems/rnas/1FUF

>  <Rbt.Executable>
rbdock ($Id: //depot/dev/client3/rdock/2013.1/src/exe/rbdock.cxx#4 $)

>  <Rbt.Library>
libRbt.so (2013.1, Build901 2013/11/27)

>  <Rbt.Parameter_File>
/export/apps/rDock/src/rDock_2013.1_src/data/scripts/dock_solv.prm

>  <Rbt.Receptor>
prm/blind_docking_60.prm

>  <SCORE>
-5.6957

>  <SCORE.INTER>
-1.68731

>  <SCORE.INTER.CONST>
1

>  <SCORE.INTER.POLAR>
0

>  <SCORE.INTER.ROT>
11

>  <SCORE.INTER.SOLV>
17.8388

>  <SCORE.INTER.VDW>
-18.0045

>  <SCORE.INTER.norm>
-0.120522

>  <SCORE.INTRA>
-4.00839

>  <SCORE.INTRA.DIHEDRAL>
-9.38449

>  <SCORE.INTRA.DIHEDRAL.0>
10.5765

>  <SCORE.INTRA.POLAR>
0

>  <SCORE.INTRA.POLAR.0>
0

>  <SCORE.INTRA.REPUL>
0

>  <SCORE.INTRA.REPUL.0>
0

>  <SCORE.INTRA.SOLV>
0.675544

>  <SCORE.INTRA.SOLV.lig_0>
-50.1861

>  <SCORE.INTRA.VDW>
0.346081

>  <SCORE.INTRA.VDW.0>
-1.36671

>  <SCORE.INTRA.norm>
-0.286314

>  <SCORE.RESTR>
0

>  <SCORE.RESTR.CAVITY>
0

>  <SCORE.RESTR.norm>
0

>  <SCORE.SYSTEM>
0

>  <SCORE.SYSTEM.CONST>
0

>  <SCORE.SYSTEM.DIHEDRAL>
0

>  <SCORE.SYSTEM.SOLV>
0

>  <SCORE.SYSTEM.norm>
0

>  <SCORE.heavy>
14

>  <SCORE.norm>
-0.406836

>  <RMSD>
2.357

$$$$
ligand
 OpenBabel11021811393D
libRbt.so/2013.1/901 2013/11/27
 14 13  0  0  0  0  0  0  0  0999 V2000
   -3.3368    2.5155    7.3628 N   0  0  0  0  0  0  0  0  0  0  0  0
   -3.2495    2.0163    8.8054 C   0  0  0  0  0  0  0  0  0  0  0  0
   -2.0688    1.1157    8.8431 C   0  0  0  0  0  0  0  0  0  0  0  0
   -1.7976    0.4865   10.1999 C   0  0  0  0  0  0  0  0  0  0  0  0
   -0.5700   -0.3497   10.1231 N   0  0  0  0  0  0  0  0  0  0  0  0
   -0.3310   -1.0315   11.4824 C   0  0  0  0  0  0  0  0  0  0  0  0
    1.2237   -1.4153   11.3954 C   0  0  0  0  0  0  0  0  0  0  0  0
    1.3681   -2.4655   10.6243 C   0  0  0  0  0  0  0  0  0  0  0  0
    2.9801   -2.6479   10.8477 C   0  0  0  0  0  0  0  0  0  0  0  0
    3.1624   -3.9824   10.0495 N   0  0  0  0  0  0  0  0  0  0  0  0
    4.4376   -4.8091   10.4849 C   0  0  0  0  0  0  0  0  0  0  0  0
    4.0109   -6.3822   10.3791 C   0  0  0  0  0  0  0  0  0  0  0  0
    3.8126   -6.5960    8.9066 C   0  0  0  0  0  0  0  0  0  0  0  0
    5.2015   -6.5908    8.3126 N   0  0  0  0  0  0  0  0  0  0  0  0
  1  2  1  0  0  0  0
  2  3  1  0  0  0  0
  3  4  1  0  0  0  0
  4  5  1  0  0  0  0
  5  6  1  0  0  0  0
  6  7  1  0  0  0  0
  7  8  1  0  0  0  0
  8  9  1  0  0  0  0
  9 10  1  0  0  0  0
 10 11  1  0  0  0  0
 11 12  1  0  0  0  0
 12 13  1  0  0  0  0
 13 14  1  0  0  0  0
M  END
>  <CHROM.1>
-179.44671241,-177.97636923,-177.67778010,-160.23502944,-76.43954123,-175.75002406
174.73704493,-156.73229113,144.06314748,66.88120673,72.61367031,1.06020962
-2.15261884,9.84441495,2.99418929,-0.81127075,1.27654243

>  <Name>
ligand

>  <RI>
0

>  <Rbt.Current_Directory>
/home/itssahil/PROJECTS/Mol_Feturizer/New_Systems/rnas/1FUF

>  <Rbt.Executable>
rbdock ($Id: //depot/dev/client3/rdock/2013.1/src/exe/rbdock.cxx#4 $)

>  <Rbt.Library>
libRbt.so (2013.1, Build901 2013/11/27)

>  <Rbt.Parameter_File>
/export/apps/rDock/src/rDock_2013.1_src/data/scripts/dock_solv.prm

>  <Rbt.Receptor>
prm/pocket_docking_8.prm

>  <SCORE>
-4.62966

>  <SCORE.INTER>
-2.75976

>  <SCORE.INTER.CONST>
1

>  <SCORE.INTER.POLAR>
0

>  <SCORE.INTER.ROT>
11

>  <SCORE.INTER.SOLV>
16.2467

>  <SCORE.INTER.VDW>
-18.1887

>  <SCORE.INTER.norm>
-0.197126

>  <SCORE.INTRA>
-1.86989

>  <SCORE.INTRA.DIHEDRAL>
-7.18733

>  <SCORE.INTRA.DIHEDRAL.0>
10.5765

>  <SCORE.INTRA.POLAR>
0

>  <SCORE.INTRA.POLAR.0>
0

>  <SCORE.INTRA.REPUL>
0

>  <SCORE.INTRA.REPUL.0>
0

>  <SCORE.INTRA.SOLV>
2.07732

>  <SCORE.INTRA.SOLV.lig_0>
-50.1861

>  <SCORE.INTRA.VDW>
0.68511

>  <SCORE.INTRA.VDW.0>
-1.36671

>  <SCORE.INTRA.norm>
-0.133564

>  <SCORE.RESTR>
0

>  <SCORE.RESTR.CAVITY>
0

>  <SCORE.RESTR.norm>
0

>  <SCORE.SYSTEM>
0

>  <SCORE.SYSTEM.CONST>
0

>  <SCORE.SYSTEM.DIHEDRAL>
0

>  <SCORE.SYSTEM.SOLV>
0

>  <SCORE.SYSTEM.norm>
0

>  <SCORE.heavy>
14

>  <SCORE.norm>
-0.33069

>  <RMSD>
2.367

$$$$
ligand
 OpenBabel11021811393D
libRbt.so/2013.1/901 2013/11/27
 14 13  0  0  0  0  0  0  0  0999 V2000
    4.8454   -6.8760    9.6517 N   0  0  0  0  0  0  0  0  0  0  0  0
    3.6144   -5.9704    9.7012 C   0  0  0  0  0  0  0  0  0  0  0  0
    2.9177   -6.3165   10.9667 C   0  0  0  0  0  0  0  0  0  0  0  0
    1.6355   -5.5386   11.2147 C   0  0  0  0  0  0  0  0  0  0  0  0
    1.9645   -4.1152   11.4942 N   0  0  0  0  0  0  0  0  0  0  0  0
    2.0181   -3.3342   10.1687 C   0  0  0  0  0  0  0  0  0  0  0  0
    1.6026   -1.8568   10.6341 C   0  0  0  0  0  0  0  0  0  0  0  0
    0.2953   -1.7607   10.6546 C   0  0  0  0  0  0  0  0  0  0  0  0
    0.2251   -0.1377   10.8613 C   0  0  0  0  0  0  0  0  0  0  0  0
   -1.3053    0.0516   10.5908 N   0  0  0  0  0  0  0  0  0  0  0  0
   -1.8309    1.5040   10.9277 C   0  0  0  0  0  0  0  0  0  0  0  0
   -3.1785    1.7138   10.0289 C   0  0  0  0  0  0  0  0  0  0  0  0
   -2.6468    1.9532    8.6458 C   0  0  0  0  0  0  0  0  0  0  0  0
   -3.8573    2.2862    7.8057 N   0  0  0  0  0  0  0  0  0  0  0  0
  1  2  1  0  0  0  0
  2  3  1  0  0  0  0
  3  4  1  0  0  0  0
  4  5  1  0  0  0  0
  5  6  1  0  0  0  0
  6  7  1  0  0  0  0
  7  8  1  0  0  0  0
  8  9  1  0  0  0  0
  9 10  1  0  0  0  0
 10 11  1  0  0  0  0
 11 12  1  0  0  0  0
 12 13  1  0  0  0  0
 13 14  1  0  0  0  0
M  END
>  <CHROM.1>
-179.16498766,-69.14249962,88.65590762,151.33940535,-85.03167299,-169.61680180
168.77095086,170.66792923,156.32310699,-75.60317625,-174.64147637,0.45000226
-2.02832702,10.23914280,0.07906590,0.90295680,-1.80129449

>  <Name>
ligand

>  <RI>
0

>  <Rbt.Current_Directory>
/home/itssahil/PROJECTS/Mol_Feturizer/New_Systems/rnas/1FUF

>  <Rbt.Executable>
rbdock ($Id: //depot/dev/client3/rdock/2013.1/src/exe/rbdock.cxx#4 $)

>  <Rbt.Library>
libRbt.so (2013.1, Build901 2013/11/27)

>  <Rbt.Parameter_File>
/export/apps/rDock/src/rDock_2013.1_src/data/scripts/dock_solv.prm

>  <Rbt.Receptor>
prm/blind_docking_40.prm

>  <SCORE>
-4.09256

>  <SCORE.INTER>
-3.03519

>  <SCORE.INTER.CONST>
1

>  <SCORE.INTER.POLAR>
0

>  <SCORE.INTER.ROT>
11

>  <SCORE.INTER.SOLV>
18.3227

>  <SCORE.INTER.VDW>
-19.0643

>  <SCORE.INTER.norm>
-0.216799

>  <SCORE.INTRA>
-1.05738

>  <SCORE.INTRA.DIHEDRAL>
-4.73901

>  <SCORE.INTRA.DIHEDRAL.0>
10.5765

>  <SCORE.INTRA.POLAR>
0

>  <SCORE.INTRA.POLAR.0>
0

>  <SCORE.INTRA.REPUL>
0

>  <SCORE.INTRA.REPUL.0>
0

>  <SCORE.INTRA.SOLV>
0.952815

>  <SCORE.INTRA.SOLV.lig_0>
-50.1861

>  <SCORE.INTRA.VDW>
0.835721

>  <SCORE.INTRA.VDW.0>
-1.36671

>  <SCORE.INTRA.norm>
-0.0755268

>  <SCORE.RESTR>
0

>  <SCORE.RESTR.CAVITY>
0

>  <SCORE.RESTR.norm>
0

>  <SCORE.SYSTEM>
0

>  <SCORE.SYSTEM.CONST>
0

>  <SCORE.SYSTEM.DIHEDRAL>
0

>  <SCORE.SYSTEM.SOLV>
0

>  <SCORE.SYSTEM.norm>
0

>  <SCORE.heavy>
14

>  <SCORE.norm>
-0.292326

>  <RMSD>
2.368

$$$$
ligand
 OpenBabel11021811393D
libRbt.so/2013.1/901 2013/11/27
 14 13  0  0  0  0  0  0  0  0999 V2000
    5.1571   -7.5885    9.0147 N   0  0  0  0  0  0  0  0  0  0  0  0
    3.9394   -7.0327    8.2755 C   0  0  0  0  0  0  0  0  0  0  0  0
    4.3411   -5.6808    7.8091 C   0  0  0  0  0  0  0  0  0  0  0  0
    4.4523   -4.6398    8.9112 C   0  0  0  0  0  0  0  0  0  0  0  0
    3.0967   -4.3265    9.4369 N   0  0  0  0  0  0  0  0  0  0  0  0
    3.1371   -2.9804   10.1826 C   0  0  0  0  0  0  0  0  0  0  0  0
    1.6209   -2.8294   10.6827 C   0  0  0  0  0  0  0  0  0  0  0  0
    1.5243   -1.7797   11.4621 C   0  0  0  0  0  0  0  0  0  0  0  0
    1.1063   -0.7109   10.2940 C   0  0  0  0  0  0  0  0  0  0  0  0
   -0.4481   -0.8070   10.4551 N   0  0  0  0  0  0  0  0  0  0  0  0
   -1.2079    0.5186   10.0494 C   0  0  0  0  0  0  0  0  0  0  0  0
   -2.8002    0.1884   10.2018 C   0  0  0  0  0  0  0  0  0  0  0  0
   -3.4679    1.4598    9.7650 C   0  0  0  0  0  0  0  0  0  0  0  0
   -4.9501    1.1799    9.8469 N   0  0  0  0  0  0  0  0  0  0  0  0
  1  2  1  0  0  0  0
  2  3  1  0  0  0  0
  3  4  1  0  0  0  0
  4  5  1  0  0  0  0
  5  6  1  0  0  0  0
  6  7  1  0  0  0  0
  7  8  1  0  0  0  0
  8  9  1  0  0  0  0
  9 10  1  0  0  0  0
 10 11  1  0  0  0  0
 11 12  1  0  0  0  0
 12 13  1  0  0  0  0
 13 14  1  0  0  0  0
M  END
>  <CHROM.1>
-71.99948341,-69.20777618,-161.08472478,-179.24732637,173.59418542,92.53978493
94.00890015,151.41881062,176.76000748,-178.28166813,178.14036975,1.10737442
-2.50190939,9.74194577,0.67132449,0.38270183,-2.51283322

>  <Name>
ligand

>  <RI>
0

>  <Rbt.Current_Directory>
/home/itssahil/PROJECTS/Mol_Feturizer/New_Systems/rnas/1FUF

>  <Rbt.Executable>
rbdock ($Id: //depot/dev/client3/rdock/2013.1/src/exe/rbdock.cxx#4 $)

>  <Rbt.Library>
libRbt.so (2013.1, Build901 2013/11/27)

>  <Rbt.Parameter_File>
/export/apps/rDock/src/rDock_2013.1_src/data/scripts/dock_solv.prm

>  <Rbt.Receptor>
prm/blind_docking_60.prm

>  <SCORE>
-1.06551

>  <SCORE.INTER>
-2.19842

>  <SCORE.INTER.CONST>
1

>  <SCORE.INTER.POLAR>
0

>  <SCORE.INTER.ROT>
11

>  <SCORE.INTER.SOLV>
18.1717

>  <SCORE.INTER.VDW>
-18.4562

>  <SCORE.INTER.norm>
-0.15703

>  <SCORE.INTRA>
1.13291

>  <SCORE.INTRA.DIHEDRAL>
-1.92041

>  <SCORE.INTRA.DIHEDRAL.0>
10.5765

>  <SCORE.INTRA.POLAR>
0

>  <SCORE.INTRA.POLAR.0>
0

>  <SCORE.INTRA.REPUL>
0

>  <SCORE.INTRA.REPUL.0>
0

>  <SCORE.INTRA.SOLV>
1.93113

>  <SCORE.INTRA.SOLV.lig_0>
-50.1861

>  <SCORE.INTRA.VDW>
1.12755

>  <SCORE.INTRA.VDW.0>
-1.36671

>  <SCORE.INTRA.norm>
0.0809222

>  <SCORE.RESTR>
0

>  <SCORE.RESTR.CAVITY>
0

>  <SCORE.RESTR.norm>
0

>  <SCORE.SYSTEM>
0

>  <SCORE.SYSTEM.CONST>
0

>  <SCORE.SYSTEM.DIHEDRAL>
0

>  <SCORE.SYSTEM.SOLV>
0

>  <SCORE.SYSTEM.norm>
0

>  <SCORE.heavy>
14

>  <SCORE.norm>
-0.0761079

>  <RMSD>
2.374

$$$$
ligand
 OpenBabel11021811393D
libRbt.so/2013.1/901 2013/11/27
 14 13  0  0  0  0  0  0  0  0999 V2000
    4.6923   -4.6431    9.7416 N   0  0  0  0  0  0  0  0  0  0  0  0
    3.7934   -3.9936   10.7943 C   0  0  0  0  0  0  0  0  0  0  0  0
    3.0874   -2.8932   10.0890 C   0  0  0  0  0  0  0  0  0  0  0  0
    2.1309   -2.0957   10.9607 C   0  0  0  0  0  0  0  0  0  0  0  0
    1.4491   -1.0639   10.1345 N   0  0  0  0  0  0  0  0  0  0  0  0
    0.3976   -0.3366   10.9920 C   0  0  0  0  0  0  0  0  0  0  0  0
   -0.6762    0.1172    9.8906 C   0  0  0  0  0  0  0  0  0  0  0  0
   -1.6297    0.8035   10.4723 C   0  0  0  0  0  0  0  0  0  0  0  0
   -2.5264    1.0650    9.1272 C   0  0  0  0  0  0  0  0  0  0  0  0
   -3.6967    1.8619    9.7955 N   0  0  0  0  0  0  0  0  0  0  0  0
   -4.9762    1.9937    8.8764 C   0  0  0  0  0  0  0  0  0  0  0  0
   -4.6885    3.2592    7.8847 C   0  0  0  0  0  0  0  0  0  0  0  0
   -5.9379    3.3512    7.0579 C   0  0  0  0  0  0  0  0  0  0  0  0
   -7.0275    3.7495    8.0254 N   0  0  0  0  0  0  0  0  0  0  0  0
  1  2  1  0  0  0  0
  2  3  1  0  0  0  0
  3  4  1  0  0  0  0
  4  5  1  0  0  0  0
  5  6  1  0  0  0  0
  6  7  1  0  0  0  0
  7  8  1  0  0  0  0
  8  9  1  0  0  0  0
  9 10  1  0  0  0  0
 10 11  1  0  0  0  0
 11 12  1  0  0  0  0
 12 13  1  0  0  0  0
 13 14  1  0  0  0  0
M  END
>  <CHROM.1>
-179.72098681,-177.79341643,175.33670658,-152.11987967,-177.78803119,-178.80479173
178.86784466,-165.31063336,-83.07498792,-179.03745618,66.50827084,-1.11487741
0.08398171,9.56021298,-0.03000474,0.64333564,-1.86114504

>  <Name>
ligand

>  <RI>
0

>  <Rbt.Current_Directory>
/home/itssahil/PROJECTS/Mol_Feturizer/New_Systems/rnas/1FUF

>  <Rbt.Executable>
rbdock ($Id: //depot/dev/client3/rdock/2013.1/src/exe/rbdock.cxx#4 $)

>  <Rbt.Library>
libRbt.so (2013.1, Build901 2013/11/27)

>  <Rbt.Parameter_File>
/export/apps/rDock/src/rDock_2013.1_src/data/scripts/dock_solv.prm

>  <Rbt.Receptor>
prm/pocket_docking_4.prm

>  <SCORE>
-5.31199

>  <SCORE.INTER>
-1.72497

>  <SCORE.INTER.CONST>
1

>  <SCORE.INTER.POLAR>
0

>  <SCORE.INTER.ROT>
11

>  <SCORE.INTER.SOLV>
16.2349

>  <SCORE.INTER.VDW>
-17.495

>  <SCORE.INTER.norm>
-0.123212

>  <SCORE.INTRA>
-3.58702

>  <SCORE.INTRA.DIHEDRAL>
-9.25883

>  <SCORE.INTRA.DIHEDRAL.0>
10.5765

>  <SCORE.INTRA.POLAR>
0

>  <SCORE.INTRA.POLAR.0>
0

>  <SCORE.INTRA.REPUL>
0

>  <SCORE.INTRA.REPUL.0>
0

>  <SCORE.INTRA.SOLV>
0.894348

>  <SCORE.INTRA.SOLV.lig_0>
-50.1861

>  <SCORE.INTRA.VDW>
0.595215

>  <SCORE.INTRA.VDW.0>
-1.36671

>  <SCORE.INTRA.norm>
-0.256216

>  <SCORE.RESTR>
0

>  <SCORE.RESTR.CAVITY>
0

>  <SCORE.RESTR.norm>
0

>  <SCORE.SYSTEM>
0

>  <SCORE.SYSTEM.CONST>
0

>  <SCORE.SYSTEM.DIHEDRAL>
0

>  <SCORE.SYSTEM.SOLV>
0

>  <SCORE.SYSTEM.norm>
0

>  <SCORE.heavy>
14

>  <SCORE.norm>
-0.379428

>  <RMSD>
2.379

$$$$
ligand
 OpenBabel11021811393D
libRbt.so/2013.1/901 2013/11/27
 14 13  0  0  0  0  0  0  0  0999 V2000
   -4.7269    1.1724    9.1638 N   0  0  0  0  0  0  0  0  0  0  0  0
   -3.4737    1.6697    9.8850 C   0  0  0  0  0  0  0  0  0  0  0  0
   -2.6441    0.4599   10.1192 C   0  0  0  0  0  0  0  0  0  0  0  0
   -1.3133    0.7295   10.8026 C   0  0  0  0  0  0  0  0  0  0  0  0
   -0.5912   -0.5546   11.0072 N   0  0  0  0  0  0  0  0  0  0  0  0
    0.8238   -0.4449   10.4110 C   0  0  0  0  0  0  0  0  0  0  0  0
    1.5617   -1.7092   11.0660 C   0  0  0  0  0  0  0  0  0  0  0  0
    1.1736   -2.8020   10.4546 C   0  0  0  0  0  0  0  0  0  0  0  0
    2.1653   -3.8316   11.2533 C   0  0  0  0  0  0  0  0  0  0  0  0
    1.6993   -5.1602   10.5685 N   0  0  0  0  0  0  0  0  0  0  0  0
    2.4368   -6.4460   11.1179 C   0  0  0  0  0  0  0  0  0  0  0  0
    3.9424   -6.4048   10.4860 C   0  0  0  0  0  0  0  0  0  0  0  0
    3.7124   -6.5842    9.0135 C   0  0  0  0  0  0  0  0  0  0  0  0
    5.0835   -6.5092    8.3841 N   0  0  0  0  0  0  0  0  0  0  0  0
  1  2  1  0  0  0  0
  2  3  1  0  0  0  0
  3  4  1  0  0  0  0
  4  5  1  0  0  0  0
  5  6  1  0  0  0  0
  6  7  1  0  0  0  0
  7  8  1  0  0  0  0
  8  9  1  0  0  0  0
  9 10  1  0  0  0  0
 10 11  1  0  0  0  0
 11 12  1  0  0  0  0
 12 13  1  0  0  0  0
 13 14  1  0  0  0  0
M  END
>  <CHROM.1>
178.48403195,178.79528635,126.78502159,164.94751293,76.22851552,175.77498720
178.64305870,-178.76481809,-74.44241641,-66.01029357,178.30768011,0.70368972
-2.60102592,10.26681629,2.43591349,-0.48990646,0.52920021

>  <Name>
ligand

>  <RI>
0

>  <Rbt.Current_Directory>
/home/itssahil/PROJECTS/Mol_Feturizer/New_Systems/rnas/1FUF

>  <Rbt.Executable>
rbdock ($Id: //depot/dev/client3/rdock/2013.1/src/exe/rbdock.cxx#4 $)

>  <Rbt.Library>
libRbt.so (2013.1, Build901 2013/11/27)

>  <Rbt.Parameter_File>
/export/apps/rDock/src/rDock_2013.1_src/data/scripts/dock_solv.prm

>  <Rbt.Receptor>
prm/pocket_docking_4.prm

>  <SCORE>
-6.71529

>  <SCORE.INTER>
-3.79986

>  <SCORE.INTER.CONST>
1

>  <SCORE.INTER.POLAR>
0

>  <SCORE.INTER.ROT>
11

>  <SCORE.INTER.SOLV>
16.0725

>  <SCORE.INTER.VDW>
-18.8241

>  <SCORE.INTER.norm>
-0.271419

>  <SCORE.INTRA>
-2.91542

>  <SCORE.INTRA.DIHEDRAL>
-7.89229

>  <SCORE.INTRA.DIHEDRAL.0>
10.5765

>  <SCORE.INTRA.POLAR>
0

>  <SCORE.INTRA.POLAR.0>
0

>  <SCORE.INTRA.REPUL>
0

>  <SCORE.INTRA.REPUL.0>
0

>  <SCORE.INTRA.SOLV>
0.795646

>  <SCORE.INTRA.SOLV.lig_0>
-50.1861

>  <SCORE.INTRA.VDW>
0.632899

>  <SCORE.INTRA.VDW.0>
-1.36671

>  <SCORE.INTRA.norm>
-0.208244

>  <SCORE.RESTR>
0

>  <SCORE.RESTR.CAVITY>
0

>  <SCORE.RESTR.norm>
0

>  <SCORE.SYSTEM>
0

>  <SCORE.SYSTEM.CONST>
0

>  <SCORE.SYSTEM.DIHEDRAL>
0

>  <SCORE.SYSTEM.SOLV>
0

>  <SCORE.SYSTEM.norm>
0

>  <SCORE.heavy>
14

>  <SCORE.norm>
-0.479663

>  <RMSD>
2.379

$$$$
ligand
 OpenBabel11021811393D
libRbt.so/2013.1/901 2013/11/27
 14 13  0  0  0  0  0  0  0  0999 V2000
   -3.9640    1.7277    8.5929 N   0  0  0  0  0  0  0  0  0  0  0  0
   -2.5083    1.3622    8.8850 C   0  0  0  0  0  0  0  0  0  0  0  0
   -2.4788    0.9626   10.3154 C   0  0  0  0  0  0  0  0  0  0  0  0
   -1.0936    0.6425   10.8532 C   0  0  0  0  0  0  0  0  0  0  0  0
   -0.5886   -0.6025   10.2149 N   0  0  0  0  0  0  0  0  0  0  0  0
    0.9492   -0.6230   10.2826 C   0  0  0  0  0  0  0  0  0  0  0  0
    1.2440   -2.1339   10.7322 C   0  0  0  0  0  0  0  0  0  0  0  0
    2.5296   -2.2801   10.9430 C   0  0  0  0  0  0  0  0  0  0  0  0
    2.4623   -3.8270   11.4761 C   0  0  0  0  0  0  0  0  0  0  0  0
    2.7090   -4.5421   10.1054 N   0  0  0  0  0  0  0  0  0  0  0  0
    2.9000   -6.1061   10.2347 C   0  0  0  0  0  0  0  0  0  0  0  0
    3.8044   -6.5559    8.9512 C   0  0  0  0  0  0  0  0  0  0  0  0
    5.1527   -5.9651    9.2448 C   0  0  0  0  0  0  0  0  0  0  0  0
    6.0195   -6.3461    8.0678 N   0  0  0  0  0  0  0  0  0  0  0  0
  1  2  1  0  0  0  0
  2  3  1  0  0  0  0
  3  4  1  0  0  0  0
  4  5  1  0  0  0  0
  5  6  1  0  0  0  0
  6  7  1  0  0  0  0
  7  8  1  0  0  0  0
  8  9  1  0  0  0  0
  9 10  1  0  0  0  0
 10 11  1  0  0  0  0
 11 12  1  0  0  0  0
 12 13  1  0  0  0  0
 13 14  1  0  0  0  0
M  END
>  <CHROM.1>
-176.09616109,-68.08942628,156.90446253,135.80361323,-174.80404116,175.88473643
92.81633862,172.62646514,-153.84886738,69.34846235,-179.34841586,1.22416052
-2.44905890,9.92164189,2.83655370,-0.75479305,1.18355478

>  <Name>
ligand

>  <RI>
0

>  <Rbt.Current_Directory>
/home/itssahil/PROJECTS/Mol_Feturizer/New_Systems/rnas/1FUF

>  <Rbt.Executable>
rbdock ($Id: //depot/dev/client3/rdock/2013.1/src/exe/rbdock.cxx#4 $)

>  <Rbt.Library>
libRbt.so (2013.1, Build901 2013/11/27)

>  <Rbt.Parameter_File>
/export/apps/rDock/src/rDock_2013.1_src/data/scripts/dock_solv.prm

>  <Rbt.Receptor>
prm/pocket_docking_3.prm

>  <SCORE>
-3.35786

>  <SCORE.INTER>
-1.91354

>  <SCORE.INTER.CONST>
1

>  <SCORE.INTER.POLAR>
0

>  <SCORE.INTER.ROT>
11

>  <SCORE.INTER.SOLV>
14.7321

>  <SCORE.INTER.VDW>
-17.1197

>  <SCORE.INTER.norm>
-0.136681

>  <SCORE.INTRA>
-1.44433

>  <SCORE.INTRA.DIHEDRAL>
-4.69372

>  <SCORE.INTRA.DIHEDRAL.0>
10.5765

>  <SCORE.INTRA.POLAR>
0

>  <SCORE.INTRA.POLAR.0>
0

>  <SCORE.INTRA.REPUL>
0

>  <SCORE.INTRA.REPUL.0>
0

>  <SCORE.INTRA.SOLV>
1.03077

>  <SCORE.INTRA.SOLV.lig_0>
-50.1861

>  <SCORE.INTRA.VDW>
0.38715

>  <SCORE.INTRA.VDW.0>
-1.36671

>  <SCORE.INTRA.norm>
-0.103166

>  <SCORE.RESTR>
0

>  <SCORE.RESTR.CAVITY>
0

>  <SCORE.RESTR.norm>
0

>  <SCORE.SYSTEM>
0

>  <SCORE.SYSTEM.CONST>
0

>  <SCORE.SYSTEM.DIHEDRAL>
0

>  <SCORE.SYSTEM.SOLV>
0

>  <SCORE.SYSTEM.norm>
0

>  <SCORE.heavy>
14

>  <SCORE.norm>
-0.239847

>  <RMSD>
2.380

$$$$
ligand
 OpenBabel11021811393D
libRbt.so/2013.1/901 2013/11/27
 14 13  0  0  0  0  0  0  0  0999 V2000
   -7.8586    2.7566    8.8241 N   0  0  0  0  0  0  0  0  0  0  0  0
   -7.3290    2.1485   10.1233 C   0  0  0  0  0  0  0  0  0  0  0  0
   -6.0210    1.5385    9.7716 C   0  0  0  0  0  0  0  0  0  0  0  0
   -4.9444    2.5365    9.3775 C   0  0  0  0  0  0  0  0  0  0  0  0
   -3.6927    1.8084    9.0378 N   0  0  0  0  0  0  0  0  0  0  0  0
   -2.9462    1.4446   10.3341 C   0  0  0  0  0  0  0  0  0  0  0  0
   -1.6975    0.6067    9.7769 C   0  0  0  0  0  0  0  0  0  0  0  0
   -1.0164    0.1213   10.7865 C   0  0  0  0  0  0  0  0  0  0  0  0
    0.1526   -0.6044    9.8985 C   0  0  0  0  0  0  0  0  0  0  0  0
    0.8073   -1.4464   11.0447 N   0  0  0  0  0  0  0  0  0  0  0  0
    1.5116   -2.7667   10.5346 C   0  0  0  0  0  0  0  0  0  0  0  0
    2.6361   -3.1392   11.6592 C   0  0  0  0  0  0  0  0  0  0  0  0
    3.2649   -4.3942   11.1275 C   0  0  0  0  0  0  0  0  0  0  0  0
    4.0720   -3.9579    9.9274 N   0  0  0  0  0  0  0  0  0  0  0  0
  1  2  1  0  0  0  0
  2  3  1  0  0  0  0
  3  4  1  0  0  0  0
  4  5  1  0  0  0  0
  5  6  1  0  0  0  0
  6  7  1  0  0  0  0
  7  8  1  0  0  0  0
  8  9  1  0  0  0  0
  9 10  1  0  0  0  0
 10 11  1  0  0  0  0
 11 12  1  0  0  0  0
 12 13  1  0  0  0  0
 13 14  1  0  0  0  0
M  END
>  <CHROM.1>
66.67271730,-179.48156473,-80.89811125,176.78618906,-174.57146012,-178.52104017
-168.53021928,152.76727985,155.91831731,179.83019122,70.88023190,-1.64723822
-0.23914399,10.15901504,2.58960747,0.13499148,-0.44514249

>  <Name>
ligand

>  <RI>
0

>  <Rbt.Current_Directory>
/home/itssahil/PROJECTS/Mol_Feturizer/New_Systems/rnas/1FUF

>  <Rbt.Executable>
rbdock ($Id: //depot/dev/client3/rdock/2013.1/src/exe/rbdock.cxx#4 $)

>  <Rbt.Library>
libRbt.so (2013.1, Build901 2013/11/27)

>  <Rbt.Parameter_File>
/export/apps/rDock/src/rDock_2013.1_src/data/scripts/dock_solv.prm

>  <Rbt.Receptor>
prm/blind_docking_80.prm

>  <SCORE>
-2.7278

>  <SCORE.INTER>
-0.428387

>  <SCORE.INTER.CONST>
1

>  <SCORE.INTER.POLAR>
0

>  <SCORE.INTER.ROT>
11

>  <SCORE.INTER.SOLV>
14.5913

>  <SCORE.INTER.VDW>
-16.0827

>  <SCORE.INTER.norm>
-0.0305991

>  <SCORE.INTRA>
-2.29942

>  <SCORE.INTRA.DIHEDRAL>
-8.10622

>  <SCORE.INTRA.DIHEDRAL.0>
10.5765

>  <SCORE.INTRA.POLAR>
0

>  <SCORE.INTRA.POLAR.0>
0

>  <SCORE.INTRA.REPUL>
0

>  <SCORE.INTRA.REPUL.0>
0

>  <SCORE.INTRA.SOLV>
1.66047

>  <SCORE.INTRA.SOLV.lig_0>
-50.1861

>  <SCORE.INTRA.VDW>
0.923459

>  <SCORE.INTRA.VDW.0>
-1.36671

>  <SCORE.INTRA.norm>
-0.164244

>  <SCORE.RESTR>
0

>  <SCORE.RESTR.CAVITY>
0

>  <SCORE.RESTR.norm>
0

>  <SCORE.SYSTEM>
0

>  <SCORE.SYSTEM.CONST>
0

>  <SCORE.SYSTEM.DIHEDRAL>
0

>  <SCORE.SYSTEM.SOLV>
0

>  <SCORE.SYSTEM.norm>
0

>  <SCORE.heavy>
14

>  <SCORE.norm>
-0.194843

>  <RMSD>
2.381

$$$$
ligand
 OpenBabel11021811393D
libRbt.so/2013.1/901 2013/11/27
 14 13  0  0  0  0  0  0  0  0999 V2000
   -7.0976    3.1190    9.1118 N   0  0  0  0  0  0  0  0  0  0  0  0
   -5.8304    2.2716    8.9921 C   0  0  0  0  0  0  0  0  0  0  0  0
   -4.8996    3.0662    8.1501 C   0  0  0  0  0  0  0  0  0  0  0  0
   -3.5921    2.3649    7.8198 C   0  0  0  0  0  0  0  0  0  0  0  0
   -2.7897    2.1999    9.0612 N   0  0  0  0  0  0  0  0  0  0  0  0
   -3.0169    0.7883    9.6318 C   0  0  0  0  0  0  0  0  0  0  0  0
   -1.7077    0.5775   10.5337 C   0  0  0  0  0  0  0  0  0  0  0  0
   -0.7516    0.0665    9.7967 C   0  0  0  0  0  0  0  0  0  0  0  0
    0.3679   -0.0478   10.9863 C   0  0  0  0  0  0  0  0  0  0  0  0
    1.4037   -0.9435   10.2272 N   0  0  0  0  0  0  0  0  0  0  0  0
    1.5643   -2.3880   10.8491 C   0  0  0  0  0  0  0  0  0  0  0  0
    2.7662   -3.1077   10.0092 C   0  0  0  0  0  0  0  0  0  0  0  0
    2.8486   -4.4786   10.6149 C   0  0  0  0  0  0  0  0  0  0  0  0
    4.0765   -5.1112   10.0035 N   0  0  0  0  0  0  0  0  0  0  0  0
  1  2  1  0  0  0  0
  2  3  1  0  0  0  0
  3  4  1  0  0  0  0
  4  5  1  0  0  0  0
  5  6  1  0  0  0  0
  6  7  1  0  0  0  0
  7  8  1  0  0  0  0
  8  9  1  0  0  0  0
  9 10  1  0  0  0  0
 10 11  1  0  0  0  0
 11 12  1  0  0  0  0
 12 13  1  0  0  0  0
 13 14  1  0  0  0  0
M  END
>  <CHROM.1>
-176.09736615,-67.13953660,96.77315396,157.95606148,-88.29000847,-178.66969192
167.94953236,-113.57991695,-175.16454069,-178.55775512,-172.15717130,-1.18992889
-0.11589644,9.69913873,2.52887887,-0.30250672,0.14655600

>  <Name>
ligand

>  <RI>
0

>  <Rbt.Current_Directory>
/home/itssahil/PROJECTS/Mol_Feturizer/New_Systems/rnas/1FUF

>  <Rbt.Executable>
rbdock ($Id: //depot/dev/client3/rdock/2013.1/src/exe/rbdock.cxx#4 $)

>  <Rbt.Library>
libRbt.so (2013.1, Build901 2013/11/27)

>  <Rbt.Parameter_File>
/export/apps/rDock/src/rDock_2013.1_src/data/scripts/dock_solv.prm

>  <Rbt.Receptor>
prm/pocket_docking_4.prm

>  <SCORE>
-3.24065

>  <SCORE.INTER>
-1.55

>  <SCORE.INTER.CONST>
1

>  <SCORE.INTER.POLAR>
0

>  <SCORE.INTER.ROT>
11

>  <SCORE.INTER.SOLV>
15.4847

>  <SCORE.INTER.VDW>
-17.1282

>  <SCORE.INTER.norm>
-0.110714

>  <SCORE.INTRA>
-1.69065

>  <SCORE.INTRA.DIHEDRAL>
-4.68795

>  <SCORE.INTRA.DIHEDRAL.0>
10.5765

>  <SCORE.INTRA.POLAR>
0

>  <SCORE.INTRA.POLAR.0>
0

>  <SCORE.INTRA.REPUL>
0

>  <SCORE.INTRA.REPUL.0>
0

>  <SCORE.INTRA.SOLV>
0.499079

>  <SCORE.INTRA.SOLV.lig_0>
-50.1861

>  <SCORE.INTRA.VDW>
0.40378

>  <SCORE.INTRA.VDW.0>
-1.36671

>  <SCORE.INTRA.norm>
-0.120761

>  <SCORE.RESTR>
0

>  <SCORE.RESTR.CAVITY>
0

>  <SCORE.RESTR.norm>
0

>  <SCORE.SYSTEM>
0

>  <SCORE.SYSTEM.CONST>
0

>  <SCORE.SYSTEM.DIHEDRAL>
0

>  <SCORE.SYSTEM.SOLV>
0

>  <SCORE.SYSTEM.norm>
0

>  <SCORE.heavy>
14

>  <SCORE.norm>
-0.231475

>  <RMSD>
2.382

$$$$
ligand
 OpenBabel11021811393D
libRbt.so/2013.1/901 2013/11/27
 14 13  0  0  0  0  0  0  0  0999 V2000
   -7.3353    2.9732    9.2999 N   0  0  0  0  0  0  0  0  0  0  0  0
   -5.8403    3.2164    9.5094 C   0  0  0  0  0  0  0  0  0  0  0  0
   -5.1526    2.1528    8.7332 C   0  0  0  0  0  0  0  0  0  0  0  0
   -3.6347    2.2064    8.7962 C   0  0  0  0  0  0  0  0  0  0  0  0
   -3.1836    1.8878   10.1772 N   0  0  0  0  0  0  0  0  0  0  0  0
   -3.0222    0.3638   10.3225 C   0  0  0  0  0  0  0  0  0  0  0  0
   -1.4726    0.1561    9.9657 C   0  0  0  0  0  0  0  0  0  0  0  0
   -0.7371    0.5893   10.9607 C   0  0  0  0  0  0  0  0  0  0  0  0
    0.7122    0.1645   10.3276 C   0  0  0  0  0  0  0  0  0  0  0  0
    0.7446   -1.3181   10.8297 N   0  0  0  0  0  0  0  0  0  0  0  0
    2.0054   -2.1278   10.3257 C   0  0  0  0  0  0  0  0  0  0  0  0
    2.4743   -3.0579   11.5839 C   0  0  0  0  0  0  0  0  0  0  0  0
    3.6747   -3.7878   11.0554 C   0  0  0  0  0  0  0  0  0  0  0  0
    3.1223   -4.8415   10.1246 N   0  0  0  0  0  0  0  0  0  0  0  0
  1  2  1  0  0  0  0
  2  3  1  0  0  0  0
  3  4  1  0  0  0  0
  4  5  1  0  0  0  0
  5  6  1  0  0  0  0
  6  7  1  0  0  0  0
  7  8  1  0  0  0  0
  8  9  1  0  0  0  0
  9 10  1  0  0  0  0
 10 11  1  0  0  0  0
 11 12  1  0  0  0  0
 12 13  1  0  0  0  0
 13 14  1  0  0  0  0
M  END
>  <CHROM.1>
179.79886762,67.35950006,87.61999003,92.80281210,73.27866685,176.99492228
-85.66691461,176.42668433,140.72514262,-179.42976465,-74.88401117,-1.26018256
-0.10153876,10.14369986,2.59657369,-0.34277192,0.26023203

>  <Name>
ligand

>  <RI>
0

>  <Rbt.Current_Directory>
/home/itssahil/PROJECTS/Mol_Feturizer/New_Systems/rnas/1FUF

>  <Rbt.Executable>
rbdock ($Id: //depot/dev/client3/rdock/2013.1/src/exe/rbdock.cxx#4 $)

>  <Rbt.Library>
libRbt.so (2013.1, Build901 2013/11/27)

>  <Rbt.Parameter_File>
/export/apps/rDock/src/rDock_2013.1_src/data/scripts/dock_solv.prm

>  <Rbt.Receptor>
prm/pocket_docking_6.prm

>  <SCORE>
0.0601297

>  <SCORE.INTER>
-0.195154

>  <SCORE.INTER.CONST>
1

>  <SCORE.INTER.POLAR>
0

>  <SCORE.INTER.ROT>
11

>  <SCORE.INTER.SOLV>
16.1291

>  <SCORE.INTER.VDW>
-16.4398

>  <SCORE.INTER.norm>
-0.0139395

>  <SCORE.INTRA>
0.255283

>  <SCORE.INTRA.DIHEDRAL>
-4.65482

>  <SCORE.INTRA.DIHEDRAL.0>
10.5765

>  <SCORE.INTRA.POLAR>
0

>  <SCORE.INTRA.POLAR.0>
0

>  <SCORE.INTRA.REPUL>
0

>  <SCORE.INTRA.REPUL.0>
0

>  <SCORE.INTRA.SOLV>
1.9074

>  <SCORE.INTRA.SOLV.lig_0>
-50.1861

>  <SCORE.INTRA.VDW>
1.62899

>  <SCORE.INTRA.VDW.0>
-1.36671

>  <SCORE.INTRA.norm>
0.0182345

>  <SCORE.RESTR>
0

>  <SCORE.RESTR.CAVITY>
0

>  <SCORE.RESTR.norm>
0

>  <SCORE.SYSTEM>
0

>  <SCORE.SYSTEM.CONST>
0

>  <SCORE.SYSTEM.DIHEDRAL>
0

>  <SCORE.SYSTEM.SOLV>
0

>  <SCORE.SYSTEM.norm>
0

>  <SCORE.heavy>
14

>  <SCORE.norm>
0.00429498

>  <RMSD>
2.390

$$$$
ligand
 OpenBabel11021811393D
libRbt.so/2013.1/901 2013/11/27
 14 13  0  0  0  0  0  0  0  0999 V2000
   -4.7473    1.2875    9.1732 N   0  0  0  0  0  0  0  0  0  0  0  0
   -3.5791    1.5367   10.1278 C   0  0  0  0  0  0  0  0  0  0  0  0
   -2.6154    0.4356    9.8716 C   0  0  0  0  0  0  0  0  0  0  0  0
   -1.3312    0.5194   10.6806 C   0  0  0  0  0  0  0  0  0  0  0  0
   -0.4601   -0.6402   10.3509 N   0  0  0  0  0  0  0  0  0  0  0  0
    0.7882   -0.6129   11.2514 C   0  0  0  0  0  0  0  0  0  0  0  0
    1.8228   -1.5093   10.4159 C   0  0  0  0  0  0  0  0  0  0  0  0
    1.5554   -2.7773   10.6136 C   0  0  0  0  0  0  0  0  0  0  0  0
    2.8634   -3.3741    9.8296 C   0  0  0  0  0  0  0  0  0  0  0  0
    2.6775   -4.8816   10.2095 N   0  0  0  0  0  0  0  0  0  0  0  0
    3.9725   -5.7567    9.9718 C   0  0  0  0  0  0  0  0  0  0  0  0
    4.1061   -5.9308    8.3532 C   0  0  0  0  0  0  0  0  0  0  0  0
    5.4012   -6.6704    8.1833 C   0  0  0  0  0  0  0  0  0  0  0  0
    5.1426   -8.0565    8.7253 N   0  0  0  0  0  0  0  0  0  0  0  0
  1  2  1  0  0  0  0
  2  3  1  0  0  0  0
  3  4  1  0  0  0  0
  4  5  1  0  0  0  0
  5  6  1  0  0  0  0
  6  7  1  0  0  0  0
  7  8  1  0  0  0  0
  8  9  1  0  0  0  0
  9 10  1  0  0  0  0
 10 11  1  0  0  0  0
 11 12  1  0  0  0  0
 12 13  1  0  0  0  0
 13 14  1  0  0  0  0
M  END
>  <CHROM.1>
177.43739450,179.29222983,-175.56401846,-158.74246349,-79.80975310,-172.65981323
172.86620930,-163.88314011,-73.02610024,175.68221273,69.14439474,1.11422810
-2.60200805,9.83993494,2.49027176,-0.47681277,0.68830758

>  <Name>
ligand

>  <RI>
0

>  <Rbt.Current_Directory>
/home/itssahil/PROJECTS/Mol_Feturizer/New_Systems/rnas/1FUF

>  <Rbt.Executable>
rbdock ($Id: //depot/dev/client3/rdock/2013.1/src/exe/rbdock.cxx#4 $)

>  <Rbt.Library>
libRbt.so (2013.1, Build901 2013/11/27)

>  <Rbt.Parameter_File>
/export/apps/rDock/src/rDock_2013.1_src/data/scripts/dock_solv.prm

>  <Rbt.Receptor>
prm/blind_docking_60.prm

>  <SCORE>
-4.17527

>  <SCORE.INTER>
-1.73419

>  <SCORE.INTER.CONST>
1

>  <SCORE.INTER.POLAR>
0

>  <SCORE.INTER.ROT>
11

>  <SCORE.INTER.SOLV>
15.944

>  <SCORE.INTER.VDW>
-17.4041

>  <SCORE.INTER.norm>
-0.123871

>  <SCORE.INTRA>
-2.44108

>  <SCORE.INTRA.DIHEDRAL>
-7.71293

>  <SCORE.INTRA.DIHEDRAL.0>
10.5765

>  <SCORE.INTRA.POLAR>
0

>  <SCORE.INTRA.POLAR.0>
0

>  <SCORE.INTRA.REPUL>
0

>  <SCORE.INTRA.REPUL.0>
0

>  <SCORE.INTRA.SOLV>
1.15682

>  <SCORE.INTRA.SOLV.lig_0>
-50.1861

>  <SCORE.INTRA.VDW>
0.836973

>  <SCORE.INTRA.VDW.0>
-1.36671

>  <SCORE.INTRA.norm>
-0.174363

>  <SCORE.RESTR>
0

>  <SCORE.RESTR.CAVITY>
0

>  <SCORE.RESTR.norm>
0

>  <SCORE.SYSTEM>
0

>  <SCORE.SYSTEM.CONST>
0

>  <SCORE.SYSTEM.DIHEDRAL>
0

>  <SCORE.SYSTEM.SOLV>
0

>  <SCORE.SYSTEM.norm>
0

>  <SCORE.heavy>
14

>  <SCORE.norm>
-0.298234

>  <RMSD>
2.393

$$$$
ligand
 OpenBabel11021811393D
libRbt.so/2013.1/901 2013/11/27
 14 13  0  0  0  0  0  0  0  0999 V2000
    4.3636   -5.4151   10.4277 N   0  0  0  0  0  0  0  0  0  0  0  0
    2.9893   -6.0822   10.3604 C   0  0  0  0  0  0  0  0  0  0  0  0
    2.0416   -5.0983   10.9437 C   0  0  0  0  0  0  0  0  0  0  0  0
    1.9901   -3.7640   10.2175 C   0  0  0  0  0  0  0  0  0  0  0  0
    0.8919   -2.9340   10.7810 N   0  0  0  0  0  0  0  0  0  0  0  0
    1.4575   -1.5728   11.2249 C   0  0  0  0  0  0  0  0  0  0  0  0
    0.1379   -0.6627   11.2751 C   0  0  0  0  0  0  0  0  0  0  0  0
   -0.2736   -0.4285   10.0526 C   0  0  0  0  0  0  0  0  0  0  0  0
   -1.5701    0.4859   10.4582 C   0  0  0  0  0  0  0  0  0  0  0  0
   -2.2164    0.5926    9.0361 N   0  0  0  0  0  0  0  0  0  0  0  0
   -3.7963    0.6400    9.0627 C   0  0  0  0  0  0  0  0  0  0  0  0
   -4.1996    2.2212    8.9920 C   0  0  0  0  0  0  0  0  0  0  0  0
   -4.0068    2.5705    7.5449 C   0  0  0  0  0  0  0  0  0  0  0  0
   -2.5142    2.7181    7.3661 N   0  0  0  0  0  0  0  0  0  0  0  0
  1  2  1  0  0  0  0
  2  3  1  0  0  0  0
  3  4  1  0  0  0  0
  4  5  1  0  0  0  0
  5  6  1  0  0  0  0
  6  7  1  0  0  0  0
  7  8  1  0  0  0  0
  8  9  1  0  0  0  0
  9 10  1  0  0  0  0
 10 11  1  0  0  0  0
 11 12  1  0  0  0  0
 12 13  1  0  0  0  0
 13 14  1  0  0  0  0
M  END
>  <CHROM.1>
59.68332688,172.83675392,125.41174100,159.96154963,-71.35450549,-179.82623457
-171.40914170,146.42087698,96.34146623,77.49591923,-77.28576801,-0.33626742
-1.19491725,9.83894599,0.17287578,0.84171543,-2.11164721

>  <Name>
ligand

>  <RI>
0

>  <Rbt.Current_Directory>
/home/itssahil/PROJECTS/Mol_Feturizer/New_Systems/rnas/1FUF

>  <Rbt.Executable>
rbdock ($Id: //depot/dev/client3/rdock/2013.1/src/exe/rbdock.cxx#4 $)

>  <Rbt.Library>
libRbt.so (2013.1, Build901 2013/11/27)

>  <Rbt.Parameter_File>
/export/apps/rDock/src/rDock_2013.1_src/data/scripts/dock_solv.prm

>  <Rbt.Receptor>
prm/pocket_docking_5.prm

>  <SCORE>
-1.22483

>  <SCORE.INTER>
-2.04156

>  <SCORE.INTER.CONST>
1

>  <SCORE.INTER.POLAR>
0

>  <SCORE.INTER.ROT>
11

>  <SCORE.INTER.SOLV>
19.4885

>  <SCORE.INTER.VDW>
-18.7906

>  <SCORE.INTER.norm>
-0.145825

>  <SCORE.INTRA>
0.816726

>  <SCORE.INTRA.DIHEDRAL>
-4.51678

>  <SCORE.INTRA.DIHEDRAL.0>
10.5765

>  <SCORE.INTRA.POLAR>
0

>  <SCORE.INTRA.POLAR.0>
0

>  <SCORE.INTRA.REPUL>
0

>  <SCORE.INTRA.REPUL.0>
0

>  <SCORE.INTRA.SOLV>
4.5546

>  <SCORE.INTRA.SOLV.lig_0>
-50.1861

>  <SCORE.INTRA.VDW>
0.797818

>  <SCORE.INTRA.VDW.0>
-1.36671

>  <SCORE.INTRA.norm>
0.0583376

>  <SCORE.RESTR>
0

>  <SCORE.RESTR.CAVITY>
0

>  <SCORE.RESTR.norm>
0

>  <SCORE.SYSTEM>
0

>  <SCORE.SYSTEM.CONST>
0

>  <SCORE.SYSTEM.DIHEDRAL>
0

>  <SCORE.SYSTEM.SOLV>
0

>  <SCORE.SYSTEM.norm>
0

>  <SCORE.heavy>
14

>  <SCORE.norm>
-0.0874878

>  <RMSD>
2.414

$$$$
ligand
 OpenBabel11021811393D
libRbt.so/2013.1/901 2013/11/27
 14 13  0  0  0  0  0  0  0  0999 V2000
    4.3251   -6.4961   10.7133 N   0  0  0  0  0  0  0  0  0  0  0  0
    3.0857   -6.3916    9.8240 C   0  0  0  0  0  0  0  0  0  0  0  0
    1.9763   -6.0050   10.7331 C   0  0  0  0  0  0  0  0  0  0  0  0
    2.1380   -4.6398   11.3817 C   0  0  0  0  0  0  0  0  0  0  0  0
    2.1097   -3.5854   10.3330 N   0  0  0  0  0  0  0  0  0  0  0  0
    2.6264   -2.2621   10.9259 C   0  0  0  0  0  0  0  0  0  0  0  0
    1.2690   -1.5625   11.4158 C   0  0  0  0  0  0  0  0  0  0  0  0
    0.6012   -1.1343   10.3721 C   0  0  0  0  0  0  0  0  0  0  0  0
   -0.6530   -0.4838   11.2001 C   0  0  0  0  0  0  0  0  0  0  0  0
   -1.4623    0.0642    9.9770 N   0  0  0  0  0  0  0  0  0  0  0  0
   -2.9052    0.5862   10.3576 C   0  0  0  0  0  0  0  0  0  0  0  0
   -3.6427    0.9392    8.9436 C   0  0  0  0  0  0  0  0  0  0  0  0
   -2.8767    2.1244    8.4320 C   0  0  0  0  0  0  0  0  0  0  0  0
   -3.5795    2.5338    7.1591 N   0  0  0  0  0  0  0  0  0  0  0  0
  1  2  1  0  0  0  0
  2  3  1  0  0  0  0
  3  4  1  0  0  0  0
  4  5  1  0  0  0  0
  5  6  1  0  0  0  0
  6  7  1  0  0  0  0
  7  8  1  0  0  0  0
  8  9  1  0  0  0  0
  9 10  1  0  0  0  0
 10 11  1  0  0  0  0
 11 12  1  0  0  0  0
 12 13  1  0  0  0  0
 13 14  1  0  0  0  0
M  END
>  <CHROM.1>
64.01835677,64.33121215,-165.61470405,-92.53992371,-73.26820954,-179.11296909
178.98795468,170.75908408,-173.33443211,-67.88297899,-176.83190342,0.21509486
-1.87949657,10.12654787,0.45460927,0.77668708,-2.44003117

>  <Name>
ligand

>  <RI>
0

>  <Rbt.Current_Directory>
/home/itssahil/PROJECTS/Mol_Feturizer/New_Systems/rnas/1FUF

>  <Rbt.Executable>
rbdock ($Id: //depot/dev/client3/rdock/2013.1/src/exe/rbdock.cxx#4 $)

>  <Rbt.Library>
libRbt.so (2013.1, Build901 2013/11/27)

>  <Rbt.Parameter_File>
/export/apps/rDock/src/rDock_2013.1_src/data/scripts/dock_solv.prm

>  <Rbt.Receptor>
prm/blind_docking_20.prm

>  <SCORE>
-4.04256

>  <SCORE.INTER>
-2.03226

>  <SCORE.INTER.CONST>
1

>  <SCORE.INTER.POLAR>
0

>  <SCORE.INTER.ROT>
11

>  <SCORE.INTER.SOLV>
20.5308

>  <SCORE.INTER.VDW>
-19.1318

>  <SCORE.INTER.norm>
-0.145162

>  <SCORE.INTRA>
-2.0103

>  <SCORE.INTRA.DIHEDRAL>
-8.5815

>  <SCORE.INTRA.DIHEDRAL.0>
10.5765

>  <SCORE.INTRA.POLAR>
0

>  <SCORE.INTRA.POLAR.0>
0

>  <SCORE.INTRA.REPUL>
0

>  <SCORE.INTRA.REPUL.0>
0

>  <SCORE.INTRA.SOLV>
2.63765

>  <SCORE.INTRA.SOLV.lig_0>
-50.1861

>  <SCORE.INTRA.VDW>
0.961629

>  <SCORE.INTRA.VDW.0>
-1.36671

>  <SCORE.INTRA.norm>
-0.143593

>  <SCORE.RESTR>
0

>  <SCORE.RESTR.CAVITY>
0

>  <SCORE.RESTR.norm>
0

>  <SCORE.SYSTEM>
0

>  <SCORE.SYSTEM.CONST>
0

>  <SCORE.SYSTEM.DIHEDRAL>
0

>  <SCORE.SYSTEM.SOLV>
0

>  <SCORE.SYSTEM.norm>
0

>  <SCORE.heavy>
14

>  <SCORE.norm>
-0.288754

>  <RMSD>
2.417

$$$$
ligand
 OpenBabel11021811393D
libRbt.so/2013.1/901 2013/11/27
 14 13  0  0  0  0  0  0  0  0999 V2000
   -3.5509    2.0524    7.9123 N   0  0  0  0  0  0  0  0  0  0  0  0
   -2.2358    1.5804    8.5334 C   0  0  0  0  0  0  0  0  0  0  0  0
   -2.5314    1.3658    9.9733 C   0  0  0  0  0  0  0  0  0  0  0  0
   -1.3251    0.9833   10.8154 C   0  0  0  0  0  0  0  0  0  0  0  0
   -0.8461   -0.3659   10.4126 N   0  0  0  0  0  0  0  0  0  0  0  0
   -0.3493   -1.1236   11.6572 C   0  0  0  0  0  0  0  0  0  0  0  0
    1.1544   -1.4971   11.2433 C   0  0  0  0  0  0  0  0  0  0  0  0
    1.1403   -2.5534   10.4670 C   0  0  0  0  0  0  0  0  0  0  0  0
    2.7627   -2.7666   10.4032 C   0  0  0  0  0  0  0  0  0  0  0  0
    2.7756   -4.1106    9.6001 N   0  0  0  0  0  0  0  0  0  0  0  0
    2.6792   -5.3948   10.5170 C   0  0  0  0  0  0  0  0  0  0  0  0
    4.0780   -6.2091   10.2981 C   0  0  0  0  0  0  0  0  0  0  0  0
    4.0413   -6.5904    8.8467 C   0  0  0  0  0  0  0  0  0  0  0  0
    5.3022   -7.3886    8.6125 N   0  0  0  0  0  0  0  0  0  0  0  0
  1  2  1  0  0  0  0
  2  3  1  0  0  0  0
  3  4  1  0  0  0  0
  4  5  1  0  0  0  0
  5  6  1  0  0  0  0
  6  7  1  0  0  0  0
  7  8  1  0  0  0  0
  8  9  1  0  0  0  0
  9 10  1  0  0  0  0
 10 11  1  0  0  0  0
 11 12  1  0  0  0  0
 12 13  1  0  0  0  0
 13 14  1  0  0  0  0
M  END
>  <CHROM.1>
-175.83894816,-67.05958572,-143.74808500,-123.85607825,-80.36144446,-173.10363521
174.55243983,-87.90898813,-116.54738535,-63.44531455,-178.18433213,0.93537255
-2.28693695,9.94976523,2.94487794,-0.84691238,1.30871622

>  <Name>
ligand

>  <RI>
0

>  <Rbt.Current_Directory>
/home/itssahil/PROJECTS/Mol_Feturizer/New_Systems/rnas/1FUF

>  <Rbt.Executable>
rbdock ($Id: //depot/dev/client3/rdock/2013.1/src/exe/rbdock.cxx#4 $)

>  <Rbt.Library>
libRbt.so (2013.1, Build901 2013/11/27)

>  <Rbt.Parameter_File>
/export/apps/rDock/src/rDock_2013.1_src/data/scripts/dock_solv.prm

>  <Rbt.Receptor>
prm/pocket_docking_4.prm

>  <SCORE>
-2.89891

>  <SCORE.INTER>
-1.67715

>  <SCORE.INTER.CONST>
1

>  <SCORE.INTER.POLAR>
0

>  <SCORE.INTER.ROT>
11

>  <SCORE.INTER.SOLV>
17.6943

>  <SCORE.INTER.VDW>
-17.9495

>  <SCORE.INTER.norm>
-0.119796

>  <SCORE.INTRA>
-1.22177

>  <SCORE.INTRA.DIHEDRAL>
-4.82783

>  <SCORE.INTRA.DIHEDRAL.0>
10.5765

>  <SCORE.INTRA.POLAR>
0

>  <SCORE.INTRA.POLAR.0>
0

>  <SCORE.INTRA.REPUL>
0

>  <SCORE.INTRA.REPUL.0>
0

>  <SCORE.INTRA.SOLV>
1.05835

>  <SCORE.INTRA.SOLV.lig_0>
-50.1861

>  <SCORE.INTRA.VDW>
0.662971

>  <SCORE.INTRA.VDW.0>
-1.36671

>  <SCORE.INTRA.norm>
-0.0872691

>  <SCORE.RESTR>
0

>  <SCORE.RESTR.CAVITY>
0

>  <SCORE.RESTR.norm>
0

>  <SCORE.SYSTEM>
0

>  <SCORE.SYSTEM.CONST>
0

>  <SCORE.SYSTEM.DIHEDRAL>
0

>  <SCORE.SYSTEM.SOLV>
0

>  <SCORE.SYSTEM.norm>
0

>  <SCORE.heavy>
14

>  <SCORE.norm>
-0.207065

>  <RMSD>
2.418

$$$$
ligand
 OpenBabel11021811393D
libRbt.so/2013.1/901 2013/11/27
 14 13  0  0  0  0  0  0  0  0999 V2000
    3.7671   -6.0399    7.9225 N   0  0  0  0  0  0  0  0  0  0  0  0
    4.8471   -6.7442    8.7445 C   0  0  0  0  0  0  0  0  0  0  0  0
    4.2827   -6.8750   10.1123 C   0  0  0  0  0  0  0  0  0  0  0  0
    4.1093   -5.5586   10.8524 C   0  0  0  0  0  0  0  0  0  0  0  0
    2.9167   -4.8447   10.3231 N   0  0  0  0  0  0  0  0  0  0  0  0
    3.0819   -3.3322   10.5570 C   0  0  0  0  0  0  0  0  0  0  0  0
    1.5658   -2.8146   10.4822 C   0  0  0  0  0  0  0  0  0  0  0  0
    1.5454   -1.5116   10.6247 C   0  0  0  0  0  0  0  0  0  0  0  0
   -0.0800   -1.3339   10.5343 C   0  0  0  0  0  0  0  0  0  0  0  0
   -0.1316    0.2306   10.5685 N   0  0  0  0  0  0  0  0  0  0  0  0
   -1.5899    0.8100   10.7607 C   0  0  0  0  0  0  0  0  0  0  0  0
   -2.2009    0.9965    9.2574 C   0  0  0  0  0  0  0  0  0  0  0  0
   -3.5526    1.6031    9.4984 C   0  0  0  0  0  0  0  0  0  0  0  0
   -4.1123    1.8875    8.1245 N   0  0  0  0  0  0  0  0  0  0  0  0
  1  2  1  0  0  0  0
  2  3  1  0  0  0  0
  3  4  1  0  0  0  0
  4  5  1  0  0  0  0
  5  6  1  0  0  0  0
  6  7  1  0  0  0  0
  7  8  1  0  0  0  0
  8  9  1  0  0  0  0
  9 10  1  0  0  0  0
 10 11  1  0  0  0  0
 11 12  1  0  0  0  0
 12 13  1  0  0  0  0
 13 14  1  0  0  0  0
M  END
>  <CHROM.1>
-67.97782056,76.24212312,-154.39028566,-158.82442586,-178.03933101,-178.89651776
-175.04458355,-169.55729285,-89.77229165,-177.53831377,175.92338756,1.03222072
-2.39488508,9.88329874,0.41040064,0.73070895,-2.16875906

>  <Name>
ligand

>  <RI>
0

>  <Rbt.Current_Directory>
/home/itssahil/PROJECTS/Mol_Feturizer/New_Systems/rnas/1FUF

>  <Rbt.Executable>
rbdock ($Id: //depot/dev/client3/rdock/2013.1/src/exe/rbdock.cxx#4 $)

>  <Rbt.Library>
libRbt.so (2013.1, Build901 2013/11/27)

>  <Rbt.Parameter_File>
/export/apps/rDock/src/rDock_2013.1_src/data/scripts/dock_solv.prm

>  <Rbt.Receptor>
prm/blind_docking_100.prm

>  <SCORE>
-3.83332

>  <SCORE.INTER>
-1.58833

>  <SCORE.INTER.CONST>
1

>  <SCORE.INTER.POLAR>
0

>  <SCORE.INTER.ROT>
11

>  <SCORE.INTER.SOLV>
17.7461

>  <SCORE.INTER.VDW>
-17.9076

>  <SCORE.INTER.norm>
-0.113452

>  <SCORE.INTRA>
-2.24499

>  <SCORE.INTRA.DIHEDRAL>
-7.72611

>  <SCORE.INTRA.DIHEDRAL.0>
10.5765

>  <SCORE.INTRA.POLAR>
0

>  <SCORE.INTRA.POLAR.0>
0

>  <SCORE.INTRA.REPUL>
0

>  <SCORE.INTRA.REPUL.0>
0

>  <SCORE.INTRA.SOLV>
3.12063

>  <SCORE.INTRA.SOLV.lig_0>
-50.1861

>  <SCORE.INTRA.VDW>
0.0577466

>  <SCORE.INTRA.VDW.0>
-1.36671

>  <SCORE.INTRA.norm>
-0.160357

>  <SCORE.RESTR>
0

>  <SCORE.RESTR.CAVITY>
0

>  <SCORE.RESTR.norm>
0

>  <SCORE.SYSTEM>
0

>  <SCORE.SYSTEM.CONST>
0

>  <SCORE.SYSTEM.DIHEDRAL>
0

>  <SCORE.SYSTEM.SOLV>
0

>  <SCORE.SYSTEM.norm>
0

>  <SCORE.heavy>
14

>  <SCORE.norm>
-0.273809

>  <RMSD>
2.420

$$$$
ligand
 OpenBabel11021811393D
libRbt.so/2013.1/901 2013/11/27
 14 13  0  0  0  0  0  0  0  0999 V2000
   -4.7736    1.4532    9.3537 N   0  0  0  0  0  0  0  0  0  0  0  0
   -3.2949    1.7485    9.6075 C   0  0  0  0  0  0  0  0  0  0  0  0
   -2.7027    0.4594   10.0481 C   0  0  0  0  0  0  0  0  0  0  0  0
   -1.1981    0.4958   10.2611 C   0  0  0  0  0  0  0  0  0  0  0  0
   -0.7195   -0.8562   10.6553 N   0  0  0  0  0  0  0  0  0  0  0  0
    0.8152   -0.9063   10.5457 C   0  0  0  0  0  0  0  0  0  0  0  0
    1.1159   -2.4651   10.7729 C   0  0  0  0  0  0  0  0  0  0  0  0
    2.4068   -2.6749   10.6823 C   0  0  0  0  0  0  0  0  0  0  0  0
    2.3542   -4.2962   10.9062 C   0  0  0  0  0  0  0  0  0  0  0  0
    3.8892   -4.5830   10.7926 N   0  0  0  0  0  0  0  0  0  0  0  0
    4.2228   -6.0419   10.2833 C   0  0  0  0  0  0  0  0  0  0  0  0
    4.0758   -5.9947    8.6572 C   0  0  0  0  0  0  0  0  0  0  0  0
    4.3345   -7.4126    8.2380 C   0  0  0  0  0  0  0  0  0  0  0  0
    5.7936   -7.6582    8.5422 N   0  0  0  0  0  0  0  0  0  0  0  0
  1  2  1  0  0  0  0
  2  3  1  0  0  0  0
  3  4  1  0  0  0  0
  4  5  1  0  0  0  0
  5  6  1  0  0  0  0
  6  7  1  0  0  0  0
  7  8  1  0  0  0  0
  8  9  1  0  0  0  0
  9 10  1  0  0  0  0
 10 11  1  0  0  0  0
 11 12  1  0  0  0  0
 12 13  1  0  0  0  0
 13 14  1  0  0  0  0
M  END
>  <CHROM.1>
175.70464728,-178.17813345,166.67511445,-171.36887313,178.84585909,-178.34567559
179.60351652,-152.74415079,81.44533057,-177.27826302,-67.80638446,1.16570221
-2.76653539,9.95332576,2.59570467,-0.60018518,0.83631387

>  <Name>
ligand

>  <RI>
0

>  <Rbt.Current_Directory>
/home/itssahil/PROJECTS/Mol_Feturizer/New_Systems/rnas/1FUF

>  <Rbt.Executable>
rbdock ($Id: //depot/dev/client3/rdock/2013.1/src/exe/rbdock.cxx#4 $)

>  <Rbt.Library>
libRbt.so (2013.1, Build901 2013/11/27)

>  <Rbt.Parameter_File>
/export/apps/rDock/src/rDock_2013.1_src/data/scripts/dock_solv.prm

>  <Rbt.Receptor>
prm/blind_docking_60.prm

>  <SCORE>
-7.17129

>  <SCORE.INTER>
-3.50538

>  <SCORE.INTER.CONST>
1

>  <SCORE.INTER.POLAR>
0

>  <SCORE.INTER.ROT>
11

>  <SCORE.INTER.SOLV>
15.5807

>  <SCORE.INTER.VDW>
-18.4638

>  <SCORE.INTER.norm>
-0.250384

>  <SCORE.INTRA>
-3.66591

>  <SCORE.INTRA.DIHEDRAL>
-9.1673

>  <SCORE.INTRA.DIHEDRAL.0>
10.5765

>  <SCORE.INTRA.POLAR>
0

>  <SCORE.INTRA.POLAR.0>
0

>  <SCORE.INTRA.REPUL>
0

>  <SCORE.INTRA.REPUL.0>
0

>  <SCORE.INTRA.SOLV>
0.833767

>  <SCORE.INTRA.SOLV.lig_0>
-50.1861

>  <SCORE.INTRA.VDW>
0.500855

>  <SCORE.INTRA.VDW.0>
-1.36671

>  <SCORE.INTRA.norm>
-0.261851

>  <SCORE.RESTR>
0

>  <SCORE.RESTR.CAVITY>
0

>  <SCORE.RESTR.norm>
0

>  <SCORE.SYSTEM>
0

>  <SCORE.SYSTEM.CONST>
0

>  <SCORE.SYSTEM.DIHEDRAL>
0

>  <SCORE.SYSTEM.SOLV>
0

>  <SCORE.SYSTEM.norm>
0

>  <SCORE.heavy>
14

>  <SCORE.norm>
-0.512235

>  <RMSD>
2.428

$$$$
ligand
 OpenBabel11021811393D
libRbt.so/2013.1/901 2013/11/27
 14 13  0  0  0  0  0  0  0  0999 V2000
   -3.9930    1.7653    8.3773 N   0  0  0  0  0  0  0  0  0  0  0  0
   -3.0397    1.8346    9.5708 C   0  0  0  0  0  0  0  0  0  0  0  0
   -2.0890    0.7083    9.3853 C   0  0  0  0  0  0  0  0  0  0  0  0
   -1.0328    0.5882   10.4718 C   0  0  0  0  0  0  0  0  0  0  0  0
   -0.1565   -0.5790   10.1855 N   0  0  0  0  0  0  0  0  0  0  0  0
    0.9350   -0.6751   11.2669 C   0  0  0  0  0  0  0  0  0  0  0  0
    1.3290   -2.2285   11.2073 C   0  0  0  0  0  0  0  0  0  0  0  0
    2.1354   -2.4323   10.1940 C   0  0  0  0  0  0  0  0  0  0  0  0
    2.3115   -4.0460   10.4100 C   0  0  0  0  0  0  0  0  0  0  0  0
    3.2905   -4.3209    9.2194 N   0  0  0  0  0  0  0  0  0  0  0  0
    3.6767   -5.8454    9.0590 C   0  0  0  0  0  0  0  0  0  0  0  0
    4.3890   -5.9767    7.5950 C   0  0  0  0  0  0  0  0  0  0  0  0
    5.6955   -5.2592    7.7723 C   0  0  0  0  0  0  0  0  0  0  0  0
    6.3998   -5.3794    6.4414 N   0  0  0  0  0  0  0  0  0  0  0  0
  1  2  1  0  0  0  0
  2  3  1  0  0  0  0
  3  4  1  0  0  0  0
  4  5  1  0  0  0  0
  5  6  1  0  0  0  0
  6  7  1  0  0  0  0
  7  8  1  0  0  0  0
  8  9  1  0  0  0  0
  9 10  1  0  0  0  0
 10 11  1  0  0  0  0
 11 12  1  0  0  0  0
 12 13  1  0  0  0  0
 13 14  1  0  0  0  0
M  END
>  <CHROM.1>
179.80006848,179.30971737,178.48574518,155.99691633,79.63674387,-179.31696740
-179.29841958,-178.08706241,166.89617485,69.64446935,179.01072041,1.41795023
-2.27479376,9.36861394,2.96246494,-0.73091624,1.55301385

>  <Name>
ligand

>  <RI>
0

>  <Rbt.Current_Directory>
/home/itssahil/PROJECTS/Mol_Feturizer/New_Systems/rnas/1FUF

>  <Rbt.Executable>
rbdock ($Id: //depot/dev/client3/rdock/2013.1/src/exe/rbdock.cxx#4 $)

>  <Rbt.Library>
libRbt.so (2013.1, Build901 2013/11/27)

>  <Rbt.Parameter_File>
/export/apps/rDock/src/rDock_2013.1_src/data/scripts/dock_solv.prm

>  <Rbt.Receptor>
prm/pocket_docking_6.prm

>  <SCORE>
-3.81556

>  <SCORE.INTER>
-0.317562

>  <SCORE.INTER.CONST>
1

>  <SCORE.INTER.POLAR>
0

>  <SCORE.INTER.ROT>
11

>  <SCORE.INTER.SOLV>
19.3848

>  <SCORE.INTER.VDW>
-17.6067

>  <SCORE.INTER.norm>
-0.022683

>  <SCORE.INTRA>
-3.498

>  <SCORE.INTRA.DIHEDRAL>
-8.33236

>  <SCORE.INTRA.DIHEDRAL.0>
10.5765

>  <SCORE.INTRA.POLAR>
0

>  <SCORE.INTRA.POLAR.0>
0

>  <SCORE.INTRA.REPUL>
0

>  <SCORE.INTRA.REPUL.0>
0

>  <SCORE.INTRA.SOLV>
0.70055

>  <SCORE.INTRA.SOLV.lig_0>
-50.1861

>  <SCORE.INTRA.VDW>
0.317906

>  <SCORE.INTRA.VDW.0>
-1.36671

>  <SCORE.INTRA.norm>
-0.249857

>  <SCORE.RESTR>
0

>  <SCORE.RESTR.CAVITY>
0

>  <SCORE.RESTR.norm>
0

>  <SCORE.SYSTEM>
0

>  <SCORE.SYSTEM.CONST>
0

>  <SCORE.SYSTEM.DIHEDRAL>
0

>  <SCORE.SYSTEM.SOLV>
0

>  <SCORE.SYSTEM.norm>
0

>  <SCORE.heavy>
14

>  <SCORE.norm>
-0.27254

>  <RMSD>
2.448

$$$$
ligand
 OpenBabel11021811393D
libRbt.so/2013.1/901 2013/11/27
 14 13  0  0  0  0  0  0  0  0999 V2000
    2.6055   -6.2340   10.7494 N   0  0  0  0  0  0  0  0  0  0  0  0
    1.9560   -4.8987   11.1145 C   0  0  0  0  0  0  0  0  0  0  0  0
    3.0616   -3.9066   11.1151 C   0  0  0  0  0  0  0  0  0  0  0  0
    2.6498   -2.5025   11.5269 C   0  0  0  0  0  0  0  0  0  0  0  0
    1.6974   -1.9509   10.5264 N   0  0  0  0  0  0  0  0  0  0  0  0
    0.6662   -1.0589   11.2412 C   0  0  0  0  0  0  0  0  0  0  0  0
   -0.1422   -0.4282   10.0081 C   0  0  0  0  0  0  0  0  0  0  0  0
   -1.1199    0.3155   10.4661 C   0  0  0  0  0  0  0  0  0  0  0  0
   -1.7180    0.7650    9.0094 C   0  0  0  0  0  0  0  0  0  0  0  0
   -2.9427    1.5948    9.5221 N   0  0  0  0  0  0  0  0  0  0  0  0
   -3.7663    2.2861    8.3633 C   0  0  0  0  0  0  0  0  0  0  0  0
   -5.1660    2.7839    9.0422 C   0  0  0  0  0  0  0  0  0  0  0  0
   -5.9187    3.3916    7.8944 C   0  0  0  0  0  0  0  0  0  0  0  0
   -7.2516    3.8100    8.4689 N   0  0  0  0  0  0  0  0  0  0  0  0
  1  2  1  0  0  0  0
  2  3  1  0  0  0  0
  3  4  1  0  0  0  0
  4  5  1  0  0  0  0
  5  6  1  0  0  0  0
  6  7  1  0  0  0  0
  7  8  1  0  0  0  0
  8  9  1  0  0  0  0
  9 10  1  0  0  0  0
 10 11  1  0  0  0  0
 11 12  1  0  0  0  0
 12 13  1  0  0  0  0
 13 14  1  0  0  0  0
M  END
>  <CHROM.1>
-177.02093220,-64.60383208,145.37015758,173.46276022,176.68277221,-179.37027894
177.00688050,176.92846517,166.78640943,-178.38814395,177.48496402,-1.09907201
-0.43081374,9.93204756,0.67608357,0.38969758,-3.04161262

>  <Name>
ligand

>  <RI>
0

>  <Rbt.Current_Directory>
/home/itssahil/PROJECTS/Mol_Feturizer/New_Systems/rnas/1FUF

>  <Rbt.Executable>
rbdock ($Id: //depot/dev/client3/rdock/2013.1/src/exe/rbdock.cxx#4 $)

>  <Rbt.Library>
libRbt.so (2013.1, Build901 2013/11/27)

>  <Rbt.Parameter_File>
/export/apps/rDock/src/rDock_2013.1_src/data/scripts/dock_solv.prm

>  <Rbt.Receptor>
prm/blind_docking_80.prm

>  <SCORE>
-6.54602

>  <SCORE.INTER>
-1.97001

>  <SCORE.INTER.CONST>
1

>  <SCORE.INTER.POLAR>
0

>  <SCORE.INTER.ROT>
11

>  <SCORE.INTER.SOLV>
18.6718

>  <SCORE.INTER.VDW>
-18.4706

>  <SCORE.INTER.norm>
-0.140715

>  <SCORE.INTRA>
-4.57602

>  <SCORE.INTRA.DIHEDRAL>
-9.42788

>  <SCORE.INTRA.DIHEDRAL.0>
10.5765

>  <SCORE.INTRA.POLAR>
0

>  <SCORE.INTRA.POLAR.0>
0

>  <SCORE.INTRA.REPUL>
0

>  <SCORE.INTRA.REPUL.0>
0

>  <SCORE.INTRA.SOLV>
0.186802

>  <SCORE.INTRA.SOLV.lig_0>
-50.1861

>  <SCORE.INTRA.VDW>
0.0445227

>  <SCORE.INTRA.VDW.0>
-1.36671

>  <SCORE.INTRA.norm>
-0.326858

>  <SCORE.RESTR>
0

>  <SCORE.RESTR.CAVITY>
0

>  <SCORE.RESTR.norm>
0

>  <SCORE.SYSTEM>
0

>  <SCORE.SYSTEM.CONST>
0

>  <SCORE.SYSTEM.DIHEDRAL>
0

>  <SCORE.SYSTEM.SOLV>
0

>  <SCORE.SYSTEM.norm>
0

>  <SCORE.heavy>
14

>  <SCORE.norm>
-0.467573

>  <RMSD>
2.450

$$$$
ligand
 OpenBabel11021811393D
libRbt.so/2013.1/901 2013/11/27
 14 13  0  0  0  0  0  0  0  0999 V2000
    5.3239   -8.5741    8.8126 N   0  0  0  0  0  0  0  0  0  0  0  0
    4.5577   -7.3090    8.4248 C   0  0  0  0  0  0  0  0  0  0  0  0
    4.2963   -6.5961    9.7016 C   0  0  0  0  0  0  0  0  0  0  0  0
    3.5716   -5.2690    9.5469 C   0  0  0  0  0  0  0  0  0  0  0  0
    3.3551   -4.6622   10.8875 N   0  0  0  0  0  0  0  0  0  0  0  0
    3.3423   -3.1283   10.7573 C   0  0  0  0  0  0  0  0  0  0  0  0
    1.7712   -2.8104   10.7045 C   0  0  0  0  0  0  0  0  0  0  0  0
    1.5949   -1.5175   10.5779 C   0  0  0  0  0  0  0  0  0  0  0  0
   -0.0370   -1.5320   10.7128 C   0  0  0  0  0  0  0  0  0  0  0  0
   -0.2765    0.0136   10.6404 N   0  0  0  0  0  0  0  0  0  0  0  0
   -1.2723    0.4448    9.4908 C   0  0  0  0  0  0  0  0  0  0  0  0
   -2.7457    0.5488   10.1882 C   0  0  0  0  0  0  0  0  0  0  0  0
   -3.6518    0.9098    9.0472 C   0  0  0  0  0  0  0  0  0  0  0  0
   -5.0128    1.1160    9.6692 N   0  0  0  0  0  0  0  0  0  0  0  0
  1  2  1  0  0  0  0
  2  3  1  0  0  0  0
  3  4  1  0  0  0  0
  4  5  1  0  0  0  0
  5  6  1  0  0  0  0
  6  7  1  0  0  0  0
  7  8  1  0  0  0  0
  8  9  1  0  0  0  0
  9 10  1  0  0  0  0
 10 11  1  0  0  0  0
 11 12  1  0  0  0  0
 12 13  1  0  0  0  0
 13 14  1  0  0  0  0
M  END
>  <CHROM.1>
178.19743036,179.35952797,150.21958198,97.76234874,-179.34774025,-174.49732127
177.19354897,124.14576219,94.63757528,-178.01672708,-175.95465393,1.05844377
-2.74029161,9.94008197,0.66529739,0.45451437,-2.57532127

>  <Name>
ligand

>  <RI>
0

>  <Rbt.Current_Directory>
/home/itssahil/PROJECTS/Mol_Feturizer/New_Systems/rnas/1FUF

>  <Rbt.Executable>
rbdock ($Id: //depot/dev/client3/rdock/2013.1/src/exe/rbdock.cxx#4 $)

>  <Rbt.Library>
libRbt.so (2013.1, Build901 2013/11/27)

>  <Rbt.Parameter_File>
/export/apps/rDock/src/rDock_2013.1_src/data/scripts/dock_solv.prm

>  <Rbt.Receptor>
prm/pocket_docking_5.prm

>  <SCORE>
-5.23677

>  <SCORE.INTER>
-1.89121

>  <SCORE.INTER.CONST>
1

>  <SCORE.INTER.POLAR>
0

>  <SCORE.INTER.ROT>
11

>  <SCORE.INTER.SOLV>
18.4439

>  <SCORE.INTER.VDW>
-18.3421

>  <SCORE.INTER.norm>
-0.135086

>  <SCORE.INTRA>
-3.34556

>  <SCORE.INTRA.DIHEDRAL>
-6.96811

>  <SCORE.INTRA.DIHEDRAL.0>
10.5765

>  <SCORE.INTRA.POLAR>
0

>  <SCORE.INTRA.POLAR.0>
0

>  <SCORE.INTRA.REPUL>
0

>  <SCORE.INTRA.REPUL.0>
0

>  <SCORE.INTRA.SOLV>
-0.144408

>  <SCORE.INTRA.SOLV.lig_0>
-50.1861

>  <SCORE.INTRA.VDW>
0.210695

>  <SCORE.INTRA.VDW.0>
-1.36671

>  <SCORE.INTRA.norm>
-0.238969

>  <SCORE.RESTR>
0

>  <SCORE.RESTR.CAVITY>
0

>  <SCORE.RESTR.norm>
0

>  <SCORE.SYSTEM>
0

>  <SCORE.SYSTEM.CONST>
0

>  <SCORE.SYSTEM.DIHEDRAL>
0

>  <SCORE.SYSTEM.SOLV>
0

>  <SCORE.SYSTEM.norm>
0

>  <SCORE.heavy>
14

>  <SCORE.norm>
-0.374055

>  <RMSD>
2.453

$$$$
ligand
 OpenBabel11021811393D
libRbt.so/2013.1/901 2013/11/27
 14 13  0  0  0  0  0  0  0  0999 V2000
   -3.9785    0.6494   10.1791 N   0  0  0  0  0  0  0  0  0  0  0  0
   -3.0427    1.8483   10.0210 C   0  0  0  0  0  0  0  0  0  0  0  0
   -1.7280    1.3975   10.5456 C   0  0  0  0  0  0  0  0  0  0  0  0
   -1.0936    0.2582    9.7647 C   0  0  0  0  0  0  0  0  0  0  0  0
    0.2249   -0.0808   10.3639 N   0  0  0  0  0  0  0  0  0  0  0  0
    0.0130   -1.0190   11.5659 C   0  0  0  0  0  0  0  0  0  0  0  0
    1.3967   -1.8288   11.6059 C   0  0  0  0  0  0  0  0  0  0  0  0
    1.4075   -2.7160   10.6408 C   0  0  0  0  0  0  0  0  0  0  0  0
    2.7735   -3.4899   11.1065 C   0  0  0  0  0  0  0  0  0  0  0  0
    2.7751   -4.6093   10.0118 N   0  0  0  0  0  0  0  0  0  0  0  0
    3.8808   -5.7155   10.2418 C   0  0  0  0  0  0  0  0  0  0  0  0
    3.8371   -6.6759    8.9214 C   0  0  0  0  0  0  0  0  0  0  0  0
    4.3874   -5.8028    7.8314 C   0  0  0  0  0  0  0  0  0  0  0  0
    5.8777   -5.7549    8.0734 N   0  0  0  0  0  0  0  0  0  0  0  0
  1  2  1  0  0  0  0
  2  3  1  0  0  0  0
  3  4  1  0  0  0  0
  4  5  1  0  0  0  0
  5  6  1  0  0  0  0
  6  7  1  0  0  0  0
  7  8  1  0  0  0  0
  8  9  1  0  0  0  0
  9 10  1  0  0  0  0
 10 11  1  0  0  0  0
 11 12  1  0  0  0  0
 12 13  1  0  0  0  0
 13 14  1  0  0  0  0
M  END
>  <CHROM.1>
63.57306995,178.70226246,82.74120494,152.81729458,-75.42245394,-171.35271909
177.19186910,-172.29719076,-173.47327245,69.91328851,75.37807229,1.19504608
-2.39566062,10.06254413,2.80577869,-0.74330063,1.29466643

>  <Name>
ligand

>  <RI>
0

>  <Rbt.Current_Directory>
/home/itssahil/PROJECTS/Mol_Feturizer/New_Systems/rnas/1FUF

>  <Rbt.Executable>
rbdock ($Id: //depot/dev/client3/rdock/2013.1/src/exe/rbdock.cxx#4 $)

>  <Rbt.Library>
libRbt.so (2013.1, Build901 2013/11/27)

>  <Rbt.Parameter_File>
/export/apps/rDock/src/rDock_2013.1_src/data/scripts/dock_solv.prm

>  <Rbt.Receptor>
prm/pocket_docking_4.prm

>  <SCORE>
-2.58794

>  <SCORE.INTER>
-1.62154

>  <SCORE.INTER.CONST>
1

>  <SCORE.INTER.POLAR>
0

>  <SCORE.INTER.ROT>
11

>  <SCORE.INTER.SOLV>
17.3939

>  <SCORE.INTER.VDW>
-17.8123

>  <SCORE.INTER.norm>
-0.115824

>  <SCORE.INTRA>
-0.966393

>  <SCORE.INTRA.DIHEDRAL>
-7.14881

>  <SCORE.INTRA.DIHEDRAL.0>
10.5765

>  <SCORE.INTRA.POLAR>
0

>  <SCORE.INTRA.POLAR.0>
0

>  <SCORE.INTRA.REPUL>
0

>  <SCORE.INTRA.REPUL.0>
0

>  <SCORE.INTRA.SOLV>
2.95834

>  <SCORE.INTRA.SOLV.lig_0>
-50.1861

>  <SCORE.INTRA.VDW>
1.12884

>  <SCORE.INTRA.VDW.0>
-1.36671

>  <SCORE.INTRA.norm>
-0.069028

>  <SCORE.RESTR>
0

>  <SCORE.RESTR.CAVITY>
0

>  <SCORE.RESTR.norm>
0

>  <SCORE.SYSTEM>
0

>  <SCORE.SYSTEM.CONST>
0

>  <SCORE.SYSTEM.DIHEDRAL>
0

>  <SCORE.SYSTEM.SOLV>
0

>  <SCORE.SYSTEM.norm>
0

>  <SCORE.heavy>
14

>  <SCORE.norm>
-0.184853

>  <RMSD>
2.463

$$$$
ligand
 OpenBabel11021811393D
libRbt.so/2013.1/901 2013/11/27
 14 13  0  0  0  0  0  0  0  0999 V2000
   -6.1675    3.6962    6.3320 N   0  0  0  0  0  0  0  0  0  0  0  0
   -5.8213    3.4532    7.8014 C   0  0  0  0  0  0  0  0  0  0  0  0
   -4.5713    2.6507    7.7872 C   0  0  0  0  0  0  0  0  0  0  0  0
   -4.0913    2.2053    9.1589 C   0  0  0  0  0  0  0  0  0  0  0  0
   -2.8669    1.3739    9.0107 N   0  0  0  0  0  0  0  0  0  0  0  0
   -2.3677    0.9480   10.4033 C   0  0  0  0  0  0  0  0  0  0  0  0
   -1.0093    0.1728   10.0489 C   0  0  0  0  0  0  0  0  0  0  0  0
   -0.4540   -0.2565   11.1562 C   0  0  0  0  0  0  0  0  0  0  0  0
    0.8373   -0.9800   10.4556 C   0  0  0  0  0  0  0  0  0  0  0  0
    1.5130   -1.5296   11.7567 N   0  0  0  0  0  0  0  0  0  0  0  0
    2.8256   -2.3665   11.4810 C   0  0  0  0  0  0  0  0  0  0  0  0
    2.3234   -3.8466   11.0069 C   0  0  0  0  0  0  0  0  0  0  0  0
    3.6015   -4.6143   10.8332 C   0  0  0  0  0  0  0  0  0  0  0  0
    3.1803   -5.9915   10.3772 N   0  0  0  0  0  0  0  0  0  0  0  0
  1  2  1  0  0  0  0
  2  3  1  0  0  0  0
  3  4  1  0  0  0  0
  4  5  1  0  0  0  0
  5  6  1  0  0  0  0
  6  7  1  0  0  0  0
  7  8  1  0  0  0  0
  8  9  1  0  0  0  0
  9 10  1  0  0  0  0
 10 11  1  0  0  0  0
 11 12  1  0  0  0  0
 12 13  1  0  0  0  0
 13 14  1  0  0  0  0
M  END
>  <CHROM.1>
-175.89012799,177.98756985,178.88574827,-175.91007013,179.85584027,179.41733452
-179.01967180,178.09960115,-79.16983641,-177.02771093,-179.35904386,-0.93340717
-0.36309109,9.82941580,2.90584094,-0.73551491,0.79428435

>  <Name>
ligand

>  <RI>
0

>  <Rbt.Current_Directory>
/home/itssahil/PROJECTS/Mol_Feturizer/New_Systems/rnas/1FUF

>  <Rbt.Executable>
rbdock ($Id: //depot/dev/client3/rdock/2013.1/src/exe/rbdock.cxx#4 $)

>  <Rbt.Library>
libRbt.so (2013.1, Build901 2013/11/27)

>  <Rbt.Parameter_File>
/export/apps/rDock/src/rDock_2013.1_src/data/scripts/dock_solv.prm

>  <Rbt.Receptor>
prm/pocket_docking_6.prm

>  <SCORE>
-5.75871

>  <SCORE.INTER>
-0.770504

>  <SCORE.INTER.CONST>
1

>  <SCORE.INTER.POLAR>
0

>  <SCORE.INTER.ROT>
11

>  <SCORE.INTER.SOLV>
19.763

>  <SCORE.INTER.VDW>
-18.0347

>  <SCORE.INTER.norm>
-0.055036

>  <SCORE.INTRA>
-4.98821

>  <SCORE.INTRA.DIHEDRAL>
-10.1621

>  <SCORE.INTRA.DIHEDRAL.0>
10.5765

>  <SCORE.INTRA.POLAR>
0

>  <SCORE.INTRA.POLAR.0>
0

>  <SCORE.INTRA.REPUL>
0

>  <SCORE.INTRA.REPUL.0>
0

>  <SCORE.INTRA.SOLV>
-0.150775

>  <SCORE.INTRA.SOLV.lig_0>
-50.1861

>  <SCORE.INTRA.VDW>
0.168207

>  <SCORE.INTRA.VDW.0>
-1.36671

>  <SCORE.INTRA.norm>
-0.356301

>  <SCORE.RESTR>
0

>  <SCORE.RESTR.CAVITY>
0

>  <SCORE.RESTR.norm>
0

>  <SCORE.SYSTEM>
0

>  <SCORE.SYSTEM.CONST>
0

>  <SCORE.SYSTEM.DIHEDRAL>
0

>  <SCORE.SYSTEM.SOLV>
0

>  <SCORE.SYSTEM.norm>
0

>  <SCORE.heavy>
14

>  <SCORE.norm>
-0.411337

>  <RMSD>
2.471

$$$$
ligand
 OpenBabel11021811393D
libRbt.so/2013.1/901 2013/11/27
 14 13  0  0  0  0  0  0  0  0999 V2000
    3.9675   -4.0579    9.6958 N   0  0  0  0  0  0  0  0  0  0  0  0
    3.5671   -3.6661   11.1186 C   0  0  0  0  0  0  0  0  0  0  0  0
    2.1053   -3.9162   11.2027 C   0  0  0  0  0  0  0  0  0  0  0  0
    1.2501   -2.9301   10.4238 C   0  0  0  0  0  0  0  0  0  0  0  0
    1.2531   -1.6143   11.1172 N   0  0  0  0  0  0  0  0  0  0  0  0
    0.8191   -0.5160   10.1297 C   0  0  0  0  0  0  0  0  0  0  0  0
   -0.7226   -0.3067   10.5188 C   0  0  0  0  0  0  0  0  0  0  0  0
   -1.2851    0.4929    9.6454 C   0  0  0  0  0  0  0  0  0  0  0  0
   -2.7885    0.4585   10.2936 C   0  0  0  0  0  0  0  0  0  0  0  0
   -3.5162    1.3169    9.2050 N   0  0  0  0  0  0  0  0  0  0  0  0
   -4.5592    2.3430    9.8036 C   0  0  0  0  0  0  0  0  0  0  0  0
   -5.6859    2.5671    8.6425 C   0  0  0  0  0  0  0  0  0  0  0  0
   -4.9272    3.2482    7.5409 C   0  0  0  0  0  0  0  0  0  0  0  0
   -5.9473    3.5115    6.4583 N   0  0  0  0  0  0  0  0  0  0  0  0
  1  2  1  0  0  0  0
  2  3  1  0  0  0  0
  3  4  1  0  0  0  0
  4  5  1  0  0  0  0
  5  6  1  0  0  0  0
  6  7  1  0  0  0  0
  7  8  1  0  0  0  0
  8  9  1  0  0  0  0
  9 10  1  0  0  0  0
 10 11  1  0  0  0  0
 11 12  1  0  0  0  0
 12 13  1  0  0  0  0
 13 14  1  0  0  0  0
M  END
>  <CHROM.1>
-71.76835411,-72.12037898,160.73456473,99.83019764,-172.23286760,178.68918987
-175.75050833,-139.09025664,-152.27265296,-65.90268251,-178.37315020,-1.17646345
-0.21922194,9.69994540,-0.36508539,0.61168853,-1.37714091

>  <Name>
ligand

>  <RI>
0

>  <Rbt.Current_Directory>
/home/itssahil/PROJECTS/Mol_Feturizer/New_Systems/rnas/1FUF

>  <Rbt.Executable>
rbdock ($Id: //depot/dev/client3/rdock/2013.1/src/exe/rbdock.cxx#4 $)

>  <Rbt.Library>
libRbt.so (2013.1, Build901 2013/11/27)

>  <Rbt.Parameter_File>
/export/apps/rDock/src/rDock_2013.1_src/data/scripts/dock_solv.prm

>  <Rbt.Receptor>
prm/blind_docking_20.prm

>  <SCORE>
-2.40734

>  <SCORE.INTER>
-0.501805

>  <SCORE.INTER.CONST>
1

>  <SCORE.INTER.POLAR>
0

>  <SCORE.INTER.ROT>
11

>  <SCORE.INTER.SOLV>
17.5467

>  <SCORE.INTER.VDW>
-17.1168

>  <SCORE.INTER.norm>
-0.0358432

>  <SCORE.INTRA>
-1.90554

>  <SCORE.INTRA.DIHEDRAL>
-6.46157

>  <SCORE.INTRA.DIHEDRAL.0>
10.5765

>  <SCORE.INTRA.POLAR>
0

>  <SCORE.INTRA.POLAR.0>
0

>  <SCORE.INTRA.REPUL>
0

>  <SCORE.INTRA.REPUL.0>
0

>  <SCORE.INTRA.SOLV>
1.84271

>  <SCORE.INTRA.SOLV.lig_0>
-50.1861

>  <SCORE.INTRA.VDW>
0.40389

>  <SCORE.INTRA.VDW.0>
-1.36671

>  <SCORE.INTRA.norm>
-0.13611

>  <SCORE.RESTR>
0

>  <SCORE.RESTR.CAVITY>
0

>  <SCORE.RESTR.norm>
0

>  <SCORE.SYSTEM>
0

>  <SCORE.SYSTEM.CONST>
0

>  <SCORE.SYSTEM.DIHEDRAL>
0

>  <SCORE.SYSTEM.SOLV>
0

>  <SCORE.SYSTEM.norm>
0

>  <SCORE.heavy>
14

>  <SCORE.norm>
-0.171953

>  <RMSD>
2.478

$$$$
ligand
 OpenBabel11021811393D
libRbt.so/2013.1/901 2013/11/27
 14 13  0  0  0  0  0  0  0  0999 V2000
   -7.6637    2.4405    8.2006 N   0  0  0  0  0  0  0  0  0  0  0  0
   -6.8156    3.7104    8.2796 C   0  0  0  0  0  0  0  0  0  0  0  0
   -5.4055    3.2523    8.1869 C   0  0  0  0  0  0  0  0  0  0  0  0
   -4.9559    2.3576    9.3306 C   0  0  0  0  0  0  0  0  0  0  0  0
   -3.5185    2.0161    9.1582 N   0  0  0  0  0  0  0  0  0  0  0  0
   -3.0624    1.1239   10.3268 C   0  0  0  0  0  0  0  0  0  0  0  0
   -1.5899    0.6908    9.8619 C   0  0  0  0  0  0  0  0  0  0  0  0
   -1.0574   -0.0838   10.7757 C   0  0  0  0  0  0  0  0  0  0  0  0
    0.3988   -0.2655   10.0489 C   0  0  0  0  0  0  0  0  0  0  0  0
    1.0348   -1.2594   11.0780 N   0  0  0  0  0  0  0  0  0  0  0  0
    1.6948   -2.5284   10.4049 C   0  0  0  0  0  0  0  0  0  0  0  0
    2.6199   -3.2196   11.5599 C   0  0  0  0  0  0  0  0  0  0  0  0
    3.1497   -4.4565   10.8947 C   0  0  0  0  0  0  0  0  0  0  0  0
    4.1565   -3.9641    9.8819 N   0  0  0  0  0  0  0  0  0  0  0  0
  1  2  1  0  0  0  0
  2  3  1  0  0  0  0
  3  4  1  0  0  0  0
  4  5  1  0  0  0  0
  5  6  1  0  0  0  0
  6  7  1  0  0  0  0
  7  8  1  0  0  0  0
  8  9  1  0  0  0  0
  9 10  1  0  0  0  0
 10 11  1  0  0  0  0
 11 12  1  0  0  0  0
 12 13  1  0  0  0  0
 13 14  1  0  0  0  0
M  END
>  <CHROM.1>
-63.08060149,-177.51174457,179.32981501,172.00724101,179.74820813,-177.33556874
-176.83886467,130.81829983,165.58622462,176.63580833,71.55581854,-1.50103114
-0.01319360,9.85644286,2.74318694,-0.50925894,0.52605569

>  <Name>
ligand

>  <RI>
0

>  <Rbt.Current_Directory>
/home/itssahil/PROJECTS/Mol_Feturizer/New_Systems/rnas/1FUF

>  <Rbt.Executable>
rbdock ($Id: //depot/dev/client3/rdock/2013.1/src/exe/rbdock.cxx#4 $)

>  <Rbt.Library>
libRbt.so (2013.1, Build901 2013/11/27)

>  <Rbt.Parameter_File>
/export/apps/rDock/src/rDock_2013.1_src/data/scripts/dock_solv.prm

>  <Rbt.Receptor>
prm/blind_docking_40.prm

>  <SCORE>
-4.70636

>  <SCORE.INTER>
-1.76948

>  <SCORE.INTER.CONST>
1

>  <SCORE.INTER.POLAR>
0

>  <SCORE.INTER.ROT>
11

>  <SCORE.INTER.SOLV>
14.526

>  <SCORE.INTER.VDW>
-16.955

>  <SCORE.INTER.norm>
-0.126391

>  <SCORE.INTRA>
-2.93689

>  <SCORE.INTRA.DIHEDRAL>
-8.59551

>  <SCORE.INTRA.DIHEDRAL.0>
10.5765

>  <SCORE.INTRA.POLAR>
0

>  <SCORE.INTRA.POLAR.0>
0

>  <SCORE.INTRA.REPUL>
0

>  <SCORE.INTRA.REPUL.0>
0

>  <SCORE.INTRA.SOLV>
1.64406

>  <SCORE.INTRA.SOLV.lig_0>
-50.1861

>  <SCORE.INTRA.VDW>
0.538835

>  <SCORE.INTRA.VDW.0>
-1.36671

>  <SCORE.INTRA.norm>
-0.209778

>  <SCORE.RESTR>
0

>  <SCORE.RESTR.CAVITY>
0

>  <SCORE.RESTR.norm>
0

>  <SCORE.SYSTEM>
0

>  <SCORE.SYSTEM.CONST>
0

>  <SCORE.SYSTEM.DIHEDRAL>
0

>  <SCORE.SYSTEM.SOLV>
0

>  <SCORE.SYSTEM.norm>
0

>  <SCORE.heavy>
14

>  <SCORE.norm>
-0.336169

>  <RMSD>
2.493

$$$$
ligand
 OpenBabel11021811393D
libRbt.so/2013.1/901 2013/11/27
 14 13  0  0  0  0  0  0  0  0999 V2000
   -4.5764    1.6638    9.1688 N   0  0  0  0  0  0  0  0  0  0  0  0
   -3.3983    1.5799   10.1400 C   0  0  0  0  0  0  0  0  0  0  0  0
   -2.4289    0.6483    9.5085 C   0  0  0  0  0  0  0  0  0  0  0  0
   -1.1719    0.3959   10.3251 C   0  0  0  0  0  0  0  0  0  0  0  0
   -0.2622   -0.5068    9.5702 N   0  0  0  0  0  0  0  0  0  0  0  0
    1.0021   -0.7732   10.4071 C   0  0  0  0  0  0  0  0  0  0  0  0
    1.0004   -2.3733   10.5155 C   0  0  0  0  0  0  0  0  0  0  0  0
    2.1917   -2.7844   10.8763 C   0  0  0  0  0  0  0  0  0  0  0  0
    1.8619   -4.3879   10.8368 C   0  0  0  0  0  0  0  0  0  0  0  0
    3.3170   -4.9167   11.0707 N   0  0  0  0  0  0  0  0  0  0  0  0
    3.5489   -6.3851   10.5330 C   0  0  0  0  0  0  0  0  0  0  0  0
    4.9656   -6.3477    9.7210 C   0  0  0  0  0  0  0  0  0  0  0  0
    5.0596   -7.7162    9.1116 C   0  0  0  0  0  0  0  0  0  0  0  0
    6.3741   -7.7316    8.3675 N   0  0  0  0  0  0  0  0  0  0  0  0
  1  2  1  0  0  0  0
  2  3  1  0  0  0  0
  3  4  1  0  0  0  0
  4  5  1  0  0  0  0
  5  6  1  0  0  0  0
  6  7  1  0  0  0  0
  7  8  1  0  0  0  0
  8  9  1  0  0  0  0
  9 10  1  0  0  0  0
 10 11  1  0  0  0  0
 11 12  1  0  0  0  0
 12 13  1  0  0  0  0
 13 14  1  0  0  0  0
M  END
>  <CHROM.1>
-179.02822424,-177.91029059,-179.34575563,122.92014915,162.71734574,-178.08935945
172.60652178,-156.47339759,134.17609822,-174.06463968,-179.04866022,1.24884557
-2.83105550,10.01106197,2.75438168,-0.72071882,1.04053467

>  <Name>
ligand

>  <RI>
0

>  <Rbt.Current_Directory>
/home/itssahil/PROJECTS/Mol_Feturizer/New_Systems/rnas/1FUF

>  <Rbt.Executable>
rbdock ($Id: //depot/dev/client3/rdock/2013.1/src/exe/rbdock.cxx#4 $)

>  <Rbt.Library>
libRbt.so (2013.1, Build901 2013/11/27)

>  <Rbt.Parameter_File>
/export/apps/rDock/src/rDock_2013.1_src/data/scripts/dock_solv.prm

>  <Rbt.Receptor>
prm/pocket_docking_5.prm

>  <SCORE>
-5.03428

>  <SCORE.INTER>
-1.67997

>  <SCORE.INTER.CONST>
1

>  <SCORE.INTER.POLAR>
0

>  <SCORE.INTER.ROT>
11

>  <SCORE.INTER.SOLV>
16.4604

>  <SCORE.INTER.VDW>
-17.5401

>  <SCORE.INTER.norm>
-0.119998

>  <SCORE.INTRA>
-3.35431

>  <SCORE.INTRA.DIHEDRAL>
-6.51018

>  <SCORE.INTRA.DIHEDRAL.0>
10.5765

>  <SCORE.INTRA.POLAR>
0

>  <SCORE.INTRA.POLAR.0>
0

>  <SCORE.INTRA.REPUL>
0

>  <SCORE.INTRA.REPUL.0>
0

>  <SCORE.INTRA.SOLV>
-0.140071

>  <SCORE.INTRA.SOLV.lig_0>
-50.1861

>  <SCORE.INTRA.VDW>
-0.0291786

>  <SCORE.INTRA.VDW.0>
-1.36671

>  <SCORE.INTRA.norm>
-0.239593

>  <SCORE.RESTR>
0

>  <SCORE.RESTR.CAVITY>
0

>  <SCORE.RESTR.norm>
0

>  <SCORE.SYSTEM>
0

>  <SCORE.SYSTEM.CONST>
0

>  <SCORE.SYSTEM.DIHEDRAL>
0

>  <SCORE.SYSTEM.SOLV>
0

>  <SCORE.SYSTEM.norm>
0

>  <SCORE.heavy>
14

>  <SCORE.norm>
-0.359591

>  <RMSD>
2.500

$$$$
ligand
 OpenBabel11021811393D
libRbt.so/2013.1/901 2013/11/27
 14 13  0  0  0  0  0  0  0  0999 V2000
    3.0220   -5.9142   10.2996 N   0  0  0  0  0  0  0  0  0  0  0  0
    2.4440   -4.6503   10.9371 C   0  0  0  0  0  0  0  0  0  0  0  0
    2.8607   -3.5329   10.0514 C   0  0  0  0  0  0  0  0  0  0  0  0
    2.5152   -2.1487   10.5761 C   0  0  0  0  0  0  0  0  0  0  0  0
    1.0370   -1.9895   10.6213 N   0  0  0  0  0  0  0  0  0  0  0  0
    0.6862   -0.4912   10.6612 C   0  0  0  0  0  0  0  0  0  0  0  0
   -0.9163   -0.5213   10.6046 C   0  0  0  0  0  0  0  0  0  0  0  0
   -1.3705    0.7066   10.5376 C   0  0  0  0  0  0  0  0  0  0  0  0
   -2.9494    0.3172   10.3448 C   0  0  0  0  0  0  0  0  0  0  0  0
   -3.5214    1.7703   10.2324 N   0  0  0  0  0  0  0  0  0  0  0  0
   -3.7526    2.2440    8.7420 C   0  0  0  0  0  0  0  0  0  0  0  0
   -5.2373    2.9241    8.7119 C   0  0  0  0  0  0  0  0  0  0  0  0
   -5.4162    3.3182    7.2746 C   0  0  0  0  0  0  0  0  0  0  0  0
   -6.8436    3.8010    7.1686 N   0  0  0  0  0  0  0  0  0  0  0  0
  1  2  1  0  0  0  0
  2  3  1  0  0  0  0
  3  4  1  0  0  0  0
  4  5  1  0  0  0  0
  5  6  1  0  0  0  0
  6  7  1  0  0  0  0
  7  8  1  0  0  0  0
  8  9  1  0  0  0  0
  9 10  1  0  0  0  0
 10 11  1  0  0  0  0
 11 12  1  0  0  0  0
 12 13  1  0  0  0  0
 13 14  1  0  0  0  0
M  END
>  <CHROM.1>
-173.86874265,-65.53617086,-160.13344370,176.28500463,-175.65275885,174.65429913
-178.94054960,97.90451023,133.78944050,-178.50402481,173.38889642,-1.24574368
-0.29750147,9.76887659,0.34094581,0.68102128,-2.40896761

>  <Name>
ligand

>  <RI>
0

>  <Rbt.Current_Directory>
/home/itssahil/PROJECTS/Mol_Feturizer/New_Systems/rnas/1FUF

>  <Rbt.Executable>
rbdock ($Id: //depot/dev/client3/rdock/2013.1/src/exe/rbdock.cxx#4 $)

>  <Rbt.Library>
libRbt.so (2013.1, Build901 2013/11/27)

>  <Rbt.Parameter_File>
/export/apps/rDock/src/rDock_2013.1_src/data/scripts/dock_solv.prm

>  <Rbt.Receptor>
prm/blind_docking_40.prm

>  <SCORE>
-5.32011

>  <SCORE.INTER>
-1.66657

>  <SCORE.INTER.CONST>
1

>  <SCORE.INTER.POLAR>
0

>  <SCORE.INTER.ROT>
11

>  <SCORE.INTER.SOLV>
18.1079

>  <SCORE.INTER.VDW>
-18.0803

>  <SCORE.INTER.norm>
-0.119041

>  <SCORE.INTRA>
-3.65354

>  <SCORE.INTRA.DIHEDRAL>
-7.75434

>  <SCORE.INTRA.DIHEDRAL.0>
10.5765

>  <SCORE.INTRA.POLAR>
0

>  <SCORE.INTRA.POLAR.0>
0

>  <SCORE.INTRA.REPUL>
0

>  <SCORE.INTRA.REPUL.0>
0

>  <SCORE.INTRA.SOLV>
0.169295

>  <SCORE.INTRA.SOLV.lig_0>
-50.1861

>  <SCORE.INTRA.VDW>
0.138987

>  <SCORE.INTRA.VDW.0>
-1.36671

>  <SCORE.INTRA.norm>
-0.260967

>  <SCORE.RESTR>
0

>  <SCORE.RESTR.CAVITY>
0

>  <SCORE.RESTR.norm>
0

>  <SCORE.SYSTEM>
0

>  <SCORE.SYSTEM.CONST>
0

>  <SCORE.SYSTEM.DIHEDRAL>
0

>  <SCORE.SYSTEM.SOLV>
0

>  <SCORE.SYSTEM.norm>
0

>  <SCORE.heavy>
14

>  <SCORE.norm>
-0.380008

>  <RMSD>
2.526

$$$$
ligand
 OpenBabel11021811393D
libRbt.so/2013.1/901 2013/11/27
 14 13  0  0  0  0  0  0  0  0999 V2000
   -2.0961    2.9937    6.9019 N   0  0  0  0  0  0  0  0  0  0  0  0
   -3.5672    3.3821    7.0537 C   0  0  0  0  0  0  0  0  0  0  0  0
   -4.2199    2.2175    7.7052 C   0  0  0  0  0  0  0  0  0  0  0  0
   -3.8466    2.0197    9.1654 C   0  0  0  0  0  0  0  0  0  0  0  0
   -2.4142    1.6309    9.2633 N   0  0  0  0  0  0  0  0  0  0  0  0
   -2.2758    0.4285   10.2146 C   0  0  0  0  0  0  0  0  0  0  0  0
   -0.7082    0.1042   10.1178 C   0  0  0  0  0  0  0  0  0  0  0  0
   -0.4459   -0.9769   10.8112 C   0  0  0  0  0  0  0  0  0  0  0  0
    1.1614   -1.0194   10.5003 C   0  0  0  0  0  0  0  0  0  0  0  0
    1.4990   -2.3391   11.2721 N   0  0  0  0  0  0  0  0  0  0  0  0
    1.4899   -3.6267   10.3549 C   0  0  0  0  0  0  0  0  0  0  0  0
    2.9708   -3.7009    9.6699 C   0  0  0  0  0  0  0  0  0  0  0  0
    3.8821   -3.9831   10.8288 C   0  0  0  0  0  0  0  0  0  0  0  0
    5.2658   -4.0866   10.2316 N   0  0  0  0  0  0  0  0  0  0  0  0
  1  2  1  0  0  0  0
  2  3  1  0  0  0  0
  3  4  1  0  0  0  0
  4  5  1  0  0  0  0
  5  6  1  0  0  0  0
  6  7  1  0  0  0  0
  7  8  1  0  0  0  0
  8  9  1  0  0  0  0
  9 10  1  0  0  0  0
 10 11  1  0  0  0  0
 11 12  1  0  0  0  0
 12 13  1  0  0  0  0
 13 14  1  0  0  0  0
M  END
>  <CHROM.1>
71.02749549,-67.50916714,-133.01393551,176.54673045,-175.40357293,179.68176202
-177.87542246,94.40448702,84.61719188,67.13796157,178.92840896,-0.23639647
-0.49687536,9.57796482,-2.52505696,-0.49986060,2.16632497

>  <Name>
ligand

>  <RI>
0

>  <Rbt.Current_Directory>
/home/itssahil/PROJECTS/Mol_Feturizer/New_Systems/rnas/1FUF

>  <Rbt.Executable>
rbdock ($Id: //depot/dev/client3/rdock/2013.1/src/exe/rbdock.cxx#4 $)

>  <Rbt.Library>
libRbt.so (2013.1, Build901 2013/11/27)

>  <Rbt.Parameter_File>
/export/apps/rDock/src/rDock_2013.1_src/data/scripts/dock_solv.prm

>  <Rbt.Receptor>
prm/blind_docking_60.prm

>  <SCORE>
-3.05397

>  <SCORE.INTER>
-1.60054

>  <SCORE.INTER.CONST>
1

>  <SCORE.INTER.POLAR>
0

>  <SCORE.INTER.ROT>
11

>  <SCORE.INTER.SOLV>
19.7309

>  <SCORE.INTER.VDW>
-18.5773

>  <SCORE.INTER.norm>
-0.114324

>  <SCORE.INTRA>
-1.45343

>  <SCORE.INTRA.DIHEDRAL>
-7.38046

>  <SCORE.INTRA.DIHEDRAL.0>
10.5765

>  <SCORE.INTRA.POLAR>
0

>  <SCORE.INTRA.POLAR.0>
0

>  <SCORE.INTRA.REPUL>
0

>  <SCORE.INTRA.REPUL.0>
0

>  <SCORE.INTRA.SOLV>
3.53274

>  <SCORE.INTRA.SOLV.lig_0>
-50.1861

>  <SCORE.INTRA.VDW>
0.470435

>  <SCORE.INTRA.VDW.0>
-1.36671

>  <SCORE.INTRA.norm>
-0.103816

>  <SCORE.RESTR>
0

>  <SCORE.RESTR.CAVITY>
0

>  <SCORE.RESTR.norm>
0

>  <SCORE.SYSTEM>
0

>  <SCORE.SYSTEM.CONST>
0

>  <SCORE.SYSTEM.DIHEDRAL>
0

>  <SCORE.SYSTEM.SOLV>
0

>  <SCORE.SYSTEM.norm>
0

>  <SCORE.heavy>
14

>  <SCORE.norm>
-0.21814

>  <RMSD>
2.527

$$$$
ligand
 OpenBabel11021811393D
libRbt.so/2013.1/901 2013/11/27
 14 13  0  0  0  0  0  0  0  0999 V2000
   -4.7140    1.1117    9.5181 N   0  0  0  0  0  0  0  0  0  0  0  0
   -3.5726    0.5560   10.3705 C   0  0  0  0  0  0  0  0  0  0  0  0
   -2.3406    1.2091    9.8585 C   0  0  0  0  0  0  0  0  0  0  0  0
   -1.0665    0.8129   10.5868 C   0  0  0  0  0  0  0  0  0  0  0  0
   -0.7952   -0.6322   10.3623 N   0  0  0  0  0  0  0  0  0  0  0  0
    0.7245   -0.8763   10.3904 C   0  0  0  0  0  0  0  0  0  0  0  0
    0.8043   -2.4636   10.6053 C   0  0  0  0  0  0  0  0  0  0  0  0
    2.0581   -2.8440   10.5631 C   0  0  0  0  0  0  0  0  0  0  0  0
    1.7915   -4.4230   10.9057 C   0  0  0  0  0  0  0  0  0  0  0  0
    3.2635   -4.9328   10.7486 N   0  0  0  0  0  0  0  0  0  0  0  0
    3.5224   -5.7066    9.3945 C   0  0  0  0  0  0  0  0  0  0  0  0
    4.7584   -6.7320    9.6923 C   0  0  0  0  0  0  0  0  0  0  0  0
    4.8985   -7.4982    8.4091 C   0  0  0  0  0  0  0  0  0  0  0  0
    6.0728   -8.4238    8.6239 N   0  0  0  0  0  0  0  0  0  0  0  0
  1  2  1  0  0  0  0
  2  3  1  0  0  0  0
  3  4  1  0  0  0  0
  4  5  1  0  0  0  0
  5  6  1  0  0  0  0
  6  7  1  0  0  0  0
  7  8  1  0  0  0  0
  8  9  1  0  0  0  0
  9 10  1  0  0  0  0
 10 11  1  0  0  0  0
 11 12  1  0  0  0  0
 12 13  1  0  0  0  0
 13 14  1  0  0  0  0
M  END
>  <CHROM.1>
179.10830931,64.99385996,149.56999407,162.76763246,175.87891548,176.43036618
175.65861580,-103.39192417,-153.34090927,176.39207189,177.79336097,1.10042403
-2.91721210,10.00215649,2.45954369,-0.46586235,0.61603339

>  <Name>
ligand

>  <RI>
0

>  <Rbt.Current_Directory>
/home/itssahil/PROJECTS/Mol_Feturizer/New_Systems/rnas/1FUF

>  <Rbt.Executable>
rbdock ($Id: //depot/dev/client3/rdock/2013.1/src/exe/rbdock.cxx#4 $)

>  <Rbt.Library>
libRbt.so (2013.1, Build901 2013/11/27)

>  <Rbt.Parameter_File>
/export/apps/rDock/src/rDock_2013.1_src/data/scripts/dock_solv.prm

>  <Rbt.Receptor>
prm/blind_docking_40.prm

>  <SCORE>
-5.17507

>  <SCORE.INTER>
-1.43071

>  <SCORE.INTER.CONST>
1

>  <SCORE.INTER.POLAR>
0

>  <SCORE.INTER.ROT>
11

>  <SCORE.INTER.SOLV>
16.3401

>  <SCORE.INTER.VDW>
-17.3338

>  <SCORE.INTER.norm>
-0.102194

>  <SCORE.INTRA>
-3.74436

>  <SCORE.INTRA.DIHEDRAL>
-7.89957

>  <SCORE.INTRA.DIHEDRAL.0>
10.5765

>  <SCORE.INTRA.POLAR>
0

>  <SCORE.INTRA.POLAR.0>
0

>  <SCORE.INTRA.REPUL>
0

>  <SCORE.INTRA.REPUL.0>
0

>  <SCORE.INTRA.SOLV>
0.193081

>  <SCORE.INTRA.SOLV.lig_0>
-50.1861

>  <SCORE.INTRA.VDW>
0.108881

>  <SCORE.INTRA.VDW.0>
-1.36671

>  <SCORE.INTRA.norm>
-0.267455

>  <SCORE.RESTR>
0

>  <SCORE.RESTR.CAVITY>
0

>  <SCORE.RESTR.norm>
0

>  <SCORE.SYSTEM>
0

>  <SCORE.SYSTEM.CONST>
0

>  <SCORE.SYSTEM.DIHEDRAL>
0

>  <SCORE.SYSTEM.SOLV>
0

>  <SCORE.SYSTEM.norm>
0

>  <SCORE.heavy>
14

>  <SCORE.norm>
-0.369648

>  <RMSD>
2.528

$$$$
ligand
 OpenBabel11021811393D
libRbt.so/2013.1/901 2013/11/27
 14 13  0  0  0  0  0  0  0  0999 V2000
    5.3576   -6.9819    7.9707 N   0  0  0  0  0  0  0  0  0  0  0  0
    4.0364   -6.6634    8.6715 C   0  0  0  0  0  0  0  0  0  0  0  0
    4.3852   -6.4551   10.1004 C   0  0  0  0  0  0  0  0  0  0  0  0
    3.2094   -6.0851   10.9899 C   0  0  0  0  0  0  0  0  0  0  0  0
    2.6285   -4.7942   10.5335 N   0  0  0  0  0  0  0  0  0  0  0  0
    3.5034   -3.6334   11.0404 C   0  0  0  0  0  0  0  0  0  0  0  0
    2.4042   -2.5928   11.5705 C   0  0  0  0  0  0  0  0  0  0  0  0
    1.7593   -2.0856   10.5480 C   0  0  0  0  0  0  0  0  0  0  0  0
    0.7599   -1.1179   11.4121 C   0  0  0  0  0  0  0  0  0  0  0  0
   -0.0798   -0.5493   10.2192 N   0  0  0  0  0  0  0  0  0  0  0  0
   -1.1223    0.5574   10.6522 C   0  0  0  0  0  0  0  0  0  0  0  0
   -2.2204    0.6369    9.4457 C   0  0  0  0  0  0  0  0  0  0  0  0
   -3.2049    1.6608    9.9310 C   0  0  0  0  0  0  0  0  0  0  0  0
   -4.2878    1.7024    8.8787 N   0  0  0  0  0  0  0  0  0  0  0  0
  1  2  1  0  0  0  0
  2  3  1  0  0  0  0
  3  4  1  0  0  0  0
  4  5  1  0  0  0  0
  5  6  1  0  0  0  0
  6  7  1  0  0  0  0
  7  8  1  0  0  0  0
  8  9  1  0  0  0  0
  9 10  1  0  0  0  0
 10 11  1  0  0  0  0
 11 12  1  0  0  0  0
 12 13  1  0  0  0  0
 13 14  1  0  0  0  0
M  END
>  <CHROM.1>
178.44996657,-61.90529821,-78.71413682,-135.69109377,-70.14476526,179.79118394
-177.20244378,-175.30572384,-160.55524663,178.04639928,-176.58070761,1.22361435
-2.60007047,10.14057602,0.44055046,0.71411725,-2.17317577

>  <Name>
ligand

>  <RI>
0

>  <Rbt.Current_Directory>
/home/itssahil/PROJECTS/Mol_Feturizer/New_Systems/rnas/1FUF

>  <Rbt.Executable>
rbdock ($Id: //depot/dev/client3/rdock/2013.1/src/exe/rbdock.cxx#4 $)

>  <Rbt.Library>
libRbt.so (2013.1, Build901 2013/11/27)

>  <Rbt.Parameter_File>
/export/apps/rDock/src/rDock_2013.1_src/data/scripts/dock_solv.prm

>  <Rbt.Receptor>
prm/blind_docking_60.prm

>  <SCORE>
-6.7203

>  <SCORE.INTER>
-3.79269

>  <SCORE.INTER.CONST>
1

>  <SCORE.INTER.POLAR>
0

>  <SCORE.INTER.ROT>
11

>  <SCORE.INTER.SOLV>
15.0624

>  <SCORE.INTER.VDW>
-18.4826

>  <SCORE.INTER.norm>
-0.270906

>  <SCORE.INTRA>
-2.92761

>  <SCORE.INTRA.DIHEDRAL>
-8.50767

>  <SCORE.INTRA.DIHEDRAL.0>
10.5765

>  <SCORE.INTRA.POLAR>
0

>  <SCORE.INTRA.POLAR.0>
0

>  <SCORE.INTRA.REPUL>
0

>  <SCORE.INTRA.REPUL.0>
0

>  <SCORE.INTRA.SOLV>
0.672565

>  <SCORE.INTRA.SOLV.lig_0>
-50.1861

>  <SCORE.INTRA.VDW>
0.989941

>  <SCORE.INTRA.VDW.0>
-1.36671

>  <SCORE.INTRA.norm>
-0.209115

>  <SCORE.RESTR>
0

>  <SCORE.RESTR.CAVITY>
0

>  <SCORE.RESTR.norm>
0

>  <SCORE.SYSTEM>
0

>  <SCORE.SYSTEM.CONST>
0

>  <SCORE.SYSTEM.DIHEDRAL>
0

>  <SCORE.SYSTEM.SOLV>
0

>  <SCORE.SYSTEM.norm>
0

>  <SCORE.heavy>
14

>  <SCORE.norm>
-0.480021

>  <RMSD>
2.551

$$$$
ligand
 OpenBabel11021811393D
libRbt.so/2013.1/901 2013/11/27
 14 13  0  0  0  0  0  0  0  0999 V2000
    5.2627   -7.6881    8.7922 N   0  0  0  0  0  0  0  0  0  0  0  0
    3.9946   -7.2836    8.0396 C   0  0  0  0  0  0  0  0  0  0  0  0
    4.0129   -5.7988    8.0005 C   0  0  0  0  0  0  0  0  0  0  0  0
    3.8217   -5.1291    9.3517 C   0  0  0  0  0  0  0  0  0  0  0  0
    3.8295   -3.6518    9.1792 N   0  0  0  0  0  0  0  0  0  0  0  0
    3.5262   -2.9788   10.5300 C   0  0  0  0  0  0  0  0  0  0  0  0
    2.0048   -2.5100   10.3360 C   0  0  0  0  0  0  0  0  0  0  0  0
    1.5934   -1.9113   11.4273 C   0  0  0  0  0  0  0  0  0  0  0  0
    0.0365   -1.7105   10.9611 C   0  0  0  0  0  0  0  0  0  0  0  0
    0.1933   -0.3148   10.2691 N   0  0  0  0  0  0  0  0  0  0  0  0
   -0.9296    0.7210   10.6757 C   0  0  0  0  0  0  0  0  0  0  0  0
   -2.1770    0.4549    9.6554 C   0  0  0  0  0  0  0  0  0  0  0  0
   -3.2106    1.4513   10.0939 C   0  0  0  0  0  0  0  0  0  0  0  0
   -4.4068    1.2015    9.2059 N   0  0  0  0  0  0  0  0  0  0  0  0
  1  2  1  0  0  0  0
  2  3  1  0  0  0  0
  3  4  1  0  0  0  0
  4  5  1  0  0  0  0
  5  6  1  0  0  0  0
  6  7  1  0  0  0  0
  7  8  1  0  0  0  0
  8  9  1  0  0  0  0
  9 10  1  0  0  0  0
 10 11  1  0  0  0  0
 11 12  1  0  0  0  0
 12 13  1  0  0  0  0
 13 14  1  0  0  0  0
M  END
>  <CHROM.1>
-68.04983984,-178.79400408,175.61202963,-104.44829735,179.79557601,-174.78859633
-89.49771180,-133.64351957,-86.39617540,179.50558437,-177.88015826,1.25369019
-2.51053455,9.75141685,0.67283101,0.47479612,-2.44281131

>  <Name>
ligand

>  <RI>
0

>  <Rbt.Current_Directory>
/home/itssahil/PROJECTS/Mol_Feturizer/New_Systems/rnas/1FUF

>  <Rbt.Executable>
rbdock ($Id: //depot/dev/client3/rdock/2013.1/src/exe/rbdock.cxx#4 $)

>  <Rbt.Library>
libRbt.so (2013.1, Build901 2013/11/27)

>  <Rbt.Parameter_File>
/export/apps/rDock/src/rDock_2013.1_src/data/scripts/dock_solv.prm

>  <Rbt.Receptor>
prm/pocket_docking_5.prm

>  <SCORE>
-3.9503

>  <SCORE.INTER>
-2.74002

>  <SCORE.INTER.CONST>
1

>  <SCORE.INTER.POLAR>
0

>  <SCORE.INTER.ROT>
11

>  <SCORE.INTER.SOLV>
17.7078

>  <SCORE.INTER.VDW>
-18.6626

>  <SCORE.INTER.norm>
-0.195716

>  <SCORE.INTRA>
-1.21028

>  <SCORE.INTRA.DIHEDRAL>
-4.94236

>  <SCORE.INTRA.DIHEDRAL.0>
10.5765

>  <SCORE.INTRA.POLAR>
0

>  <SCORE.INTRA.POLAR.0>
0

>  <SCORE.INTRA.REPUL>
0

>  <SCORE.INTRA.REPUL.0>
0

>  <SCORE.INTRA.SOLV>
1.09718

>  <SCORE.INTRA.SOLV.lig_0>
-50.1861

>  <SCORE.INTRA.VDW>
0.712314

>  <SCORE.INTRA.VDW.0>
-1.36671

>  <SCORE.INTRA.norm>
-0.0864484

>  <SCORE.RESTR>
0

>  <SCORE.RESTR.CAVITY>
0

>  <SCORE.RESTR.norm>
0

>  <SCORE.SYSTEM>
0

>  <SCORE.SYSTEM.CONST>
0

>  <SCORE.SYSTEM.DIHEDRAL>
0

>  <SCORE.SYSTEM.SOLV>
0

>  <SCORE.SYSTEM.norm>
0

>  <SCORE.heavy>
14

>  <SCORE.norm>
-0.282164

>  <RMSD>
2.551

$$$$
ligand
 OpenBabel11021811393D
libRbt.so/2013.1/901 2013/11/27
 14 13  0  0  0  0  0  0  0  0999 V2000
    3.8155   -3.8966    9.9239 N   0  0  0  0  0  0  0  0  0  0  0  0
    2.7301   -4.3512   10.9003 C   0  0  0  0  0  0  0  0  0  0  0  0
    1.5218   -3.5632   10.5455 C   0  0  0  0  0  0  0  0  0  0  0  0
    1.6694   -2.0620   10.7330 C   0  0  0  0  0  0  0  0  0  0  0  0
    0.3661   -1.3975   10.4644 N   0  0  0  0  0  0  0  0  0  0  0  0
    0.5707    0.1276   10.4189 C   0  0  0  0  0  0  0  0  0  0  0  0
   -0.8909    0.6723   10.7912 C   0  0  0  0  0  0  0  0  0  0  0  0
   -1.6962    0.4821    9.7744 C   0  0  0  0  0  0  0  0  0  0  0  0
   -3.0275    1.1488   10.4561 C   0  0  0  0  0  0  0  0  0  0  0  0
   -4.0256    0.9010    9.2755 N   0  0  0  0  0  0  0  0  0  0  0  0
   -4.2613    2.1755    8.3703 C   0  0  0  0  0  0  0  0  0  0  0  0
   -5.4286    3.0440    9.1124 C   0  0  0  0  0  0  0  0  0  0  0  0
   -6.6395    2.1621    9.0171 C   0  0  0  0  0  0  0  0  0  0  0  0
   -7.7876    3.0062    9.5182 N   0  0  0  0  0  0  0  0  0  0  0  0
  1  2  1  0  0  0  0
  2  3  1  0  0  0  0
  3  4  1  0  0  0  0
  4  5  1  0  0  0  0
  5  6  1  0  0  0  0
  6  7  1  0  0  0  0
  7  8  1  0  0  0  0
  8  9  1  0  0  0  0
  9 10  1  0  0  0  0
 10 11  1  0  0  0  0
 11 12  1  0  0  0  0
 12 13  1  0  0  0  0
 13 14  1  0  0  0  0
M  END
>  <CHROM.1>
-63.23005677,-174.96951016,-170.44865327,-155.45675513,-72.90131512,-178.95419604
-178.51550285,-99.83898209,-84.73167760,-65.88391690,-172.28603157,-1.64872982
-0.11068894,9.95014325,0.57899913,0.20136055,-3.07434073

>  <Name>
ligand

>  <RI>
0

>  <Rbt.Current_Directory>
/home/itssahil/PROJECTS/Mol_Feturizer/New_Systems/rnas/1FUF

>  <Rbt.Executable>
rbdock ($Id: //depot/dev/client3/rdock/2013.1/src/exe/rbdock.cxx#4 $)

>  <Rbt.Library>
libRbt.so (2013.1, Build901 2013/11/27)

>  <Rbt.Parameter_File>
/export/apps/rDock/src/rDock_2013.1_src/data/scripts/dock_solv.prm

>  <Rbt.Receptor>
prm/blind_docking_100.prm

>  <SCORE>
-3.02344

>  <SCORE.INTER>
-0.899656

>  <SCORE.INTER.CONST>
1

>  <SCORE.INTER.POLAR>
0

>  <SCORE.INTER.ROT>
11

>  <SCORE.INTER.SOLV>
15.3168

>  <SCORE.INTER.VDW>
-16.6387

>  <SCORE.INTER.norm>
-0.0642612

>  <SCORE.INTRA>
-2.12378

>  <SCORE.INTRA.DIHEDRAL>
-7.63425

>  <SCORE.INTRA.DIHEDRAL.0>
10.5765

>  <SCORE.INTRA.POLAR>
0

>  <SCORE.INTRA.POLAR.0>
0

>  <SCORE.INTRA.REPUL>
0

>  <SCORE.INTRA.REPUL.0>
0

>  <SCORE.INTRA.SOLV>
1.63287

>  <SCORE.INTRA.SOLV.lig_0>
-50.1861

>  <SCORE.INTRA.VDW>
0.876908

>  <SCORE.INTRA.VDW.0>
-1.36671

>  <SCORE.INTRA.norm>
-0.151699

>  <SCORE.RESTR>
0

>  <SCORE.RESTR.CAVITY>
0

>  <SCORE.RESTR.norm>
0

>  <SCORE.SYSTEM>
0

>  <SCORE.SYSTEM.CONST>
0

>  <SCORE.SYSTEM.DIHEDRAL>
0

>  <SCORE.SYSTEM.SOLV>
0

>  <SCORE.SYSTEM.norm>
0

>  <SCORE.heavy>
14

>  <SCORE.norm>
-0.21596

>  <RMSD>
2.554

$$$$
ligand
 OpenBabel11021811393D
libRbt.so/2013.1/901 2013/11/27
 14 13  0  0  0  0  0  0  0  0999 V2000
   -8.4227    2.5995    9.5560 N   0  0  0  0  0  0  0  0  0  0  0  0
   -7.0754    1.9882    9.1700 C   0  0  0  0  0  0  0  0  0  0  0  0
   -6.1179    3.1236    9.1421 C   0  0  0  0  0  0  0  0  0  0  0  0
   -4.7151    2.7555    8.6867 C   0  0  0  0  0  0  0  0  0  0  0  0
   -4.1200    1.7865    9.6454 N   0  0  0  0  0  0  0  0  0  0  0  0
   -2.5848    1.8647    9.5632 C   0  0  0  0  0  0  0  0  0  0  0  0
   -2.1406    0.5207   10.3169 C   0  0  0  0  0  0  0  0  0  0  0  0
   -0.8318    0.4636   10.3655 C   0  0  0  0  0  0  0  0  0  0  0  0
   -0.7305   -0.9878   11.1172 C   0  0  0  0  0  0  0  0  0  0  0  0
    0.8005   -0.9592   11.4434 N   0  0  0  0  0  0  0  0  0  0  0  0
    1.7122   -1.4100   10.2332 C   0  0  0  0  0  0  0  0  0  0  0  0
    2.2789   -2.8910   10.6250 C   0  0  0  0  0  0  0  0  0  0  0  0
    3.1827   -3.2381    9.4779 C   0  0  0  0  0  0  0  0  0  0  0  0
    3.8477   -4.5356    9.8731 N   0  0  0  0  0  0  0  0  0  0  0  0
  1  2  1  0  0  0  0
  2  3  1  0  0  0  0
  3  4  1  0  0  0  0
  4  5  1  0  0  0  0
  5  6  1  0  0  0  0
  6  7  1  0  0  0  0
  7  8  1  0  0  0  0
  8  9  1  0  0  0  0
  9 10  1  0  0  0  0
 10 11  1  0  0  0  0
 11 12  1  0  0  0  0
 12 13  1  0  0  0  0
 13 14  1  0  0  0  0
M  END
>  <CHROM.1>
-176.16774081,-62.88341717,-156.14315163,-164.84696006,-178.05835081,-178.23760862
-169.47928160,-82.47732610,-107.34713398,-177.43997649,173.90492199,-1.77970075
0.07732100,9.94391473,2.61251648,-0.16917434,0.10267944

>  <Name>
ligand

>  <RI>
0

>  <Rbt.Current_Directory>
/home/itssahil/PROJECTS/Mol_Feturizer/New_Systems/rnas/1FUF

>  <Rbt.Executable>
rbdock ($Id: //depot/dev/client3/rdock/2013.1/src/exe/rbdock.cxx#4 $)

>  <Rbt.Library>
libRbt.so (2013.1, Build901 2013/11/27)

>  <Rbt.Parameter_File>
/export/apps/rDock/src/rDock_2013.1_src/data/scripts/dock_solv.prm

>  <Rbt.Receptor>
prm/pocket_docking_3.prm

>  <SCORE>
-3.80845

>  <SCORE.INTER>
-0.397287

>  <SCORE.INTER.CONST>
1

>  <SCORE.INTER.POLAR>
0

>  <SCORE.INTER.ROT>
11

>  <SCORE.INTER.SOLV>
14.6199

>  <SCORE.INTER.VDW>
-16.0715

>  <SCORE.INTER.norm>
-0.0283776

>  <SCORE.INTRA>
-3.41116

>  <SCORE.INTRA.DIHEDRAL>
-7.85776

>  <SCORE.INTRA.DIHEDRAL.0>
10.5765

>  <SCORE.INTRA.POLAR>
0

>  <SCORE.INTRA.POLAR.0>
0

>  <SCORE.INTRA.REPUL>
0

>  <SCORE.INTRA.REPUL.0>
0

>  <SCORE.INTRA.SOLV>
0.203495

>  <SCORE.INTRA.SOLV.lig_0>
-50.1861

>  <SCORE.INTRA.VDW>
0.415969

>  <SCORE.INTRA.VDW.0>
-1.36671

>  <SCORE.INTRA.norm>
-0.243654

>  <SCORE.RESTR>
0

>  <SCORE.RESTR.CAVITY>
0

>  <SCORE.RESTR.norm>
0

>  <SCORE.SYSTEM>
0

>  <SCORE.SYSTEM.CONST>
0

>  <SCORE.SYSTEM.DIHEDRAL>
0

>  <SCORE.SYSTEM.SOLV>
0

>  <SCORE.SYSTEM.norm>
0

>  <SCORE.heavy>
14

>  <SCORE.norm>
-0.272032

>  <RMSD>
2.574

$$$$
ligand
 OpenBabel11021811393D
libRbt.so/2013.1/901 2013/11/27
 14 13  0  0  0  0  0  0  0  0999 V2000
   -4.4476    1.0879    9.3292 N   0  0  0  0  0  0  0  0  0  0  0  0
   -3.3293    1.4307   10.3140 C   0  0  0  0  0  0  0  0  0  0  0  0
   -2.1705    0.5961    9.9049 C   0  0  0  0  0  0  0  0  0  0  0  0
   -0.9369    0.7568   10.7783 C   0  0  0  0  0  0  0  0  0  0  0  0
    0.1584   -0.1018   10.2535 N   0  0  0  0  0  0  0  0  0  0  0  0
    0.0011   -1.5277   10.8121 C   0  0  0  0  0  0  0  0  0  0  0  0
    1.4320   -2.1743   10.4860 C   0  0  0  0  0  0  0  0  0  0  0  0
    1.4355   -3.4303   10.8615 C   0  0  0  0  0  0  0  0  0  0  0  0
    2.9591   -3.7738   10.3693 C   0  0  0  0  0  0  0  0  0  0  0  0
    3.0207   -5.2573   10.8662 N   0  0  0  0  0  0  0  0  0  0  0  0
    4.2463   -6.0679   10.2832 C   0  0  0  0  0  0  0  0  0  0  0  0
    3.7562   -6.6438    8.8354 C   0  0  0  0  0  0  0  0  0  0  0  0
    4.9217   -7.4673    8.3700 C   0  0  0  0  0  0  0  0  0  0  0  0
    6.0015   -6.4694    8.0234 N   0  0  0  0  0  0  0  0  0  0  0  0
  1  2  1  0  0  0  0
  2  3  1  0  0  0  0
  3  4  1  0  0  0  0
  4  5  1  0  0  0  0
  5  6  1  0  0  0  0
  6  7  1  0  0  0  0
  7  8  1  0  0  0  0
  8  9  1  0  0  0  0
  9 10  1  0  0  0  0
 10 11  1  0  0  0  0
 11 12  1  0  0  0  0
 12 13  1  0  0  0  0
 13 14  1  0  0  0  0
M  END
>  <CHROM.1>
-178.78472485,-178.76453498,-84.64156928,-165.26958619,-177.46211690,178.67546455
177.48348718,166.81071291,-85.51734617,-176.72743999,-70.94918642,1.21774487
-2.78877351,9.96350729,2.61413655,-0.63253530,0.92732195

>  <Name>
ligand

>  <RI>
0

>  <Rbt.Current_Directory>
/home/itssahil/PROJECTS/Mol_Feturizer/New_Systems/rnas/1FUF

>  <Rbt.Executable>
rbdock ($Id: //depot/dev/client3/rdock/2013.1/src/exe/rbdock.cxx#4 $)

>  <Rbt.Library>
libRbt.so (2013.1, Build901 2013/11/27)

>  <Rbt.Parameter_File>
/export/apps/rDock/src/rDock_2013.1_src/data/scripts/dock_solv.prm

>  <Rbt.Receptor>
prm/pocket_docking_8.prm

>  <SCORE>
-5.59923

>  <SCORE.INTER>
-2.28886

>  <SCORE.INTER.CONST>
1

>  <SCORE.INTER.POLAR>
0

>  <SCORE.INTER.ROT>
11

>  <SCORE.INTER.SOLV>
15.3556

>  <SCORE.INTER.VDW>
-17.5778

>  <SCORE.INTER.norm>
-0.16349

>  <SCORE.INTRA>
-3.31036

>  <SCORE.INTRA.DIHEDRAL>
-8.82621

>  <SCORE.INTRA.DIHEDRAL.0>
10.5765

>  <SCORE.INTRA.POLAR>
0

>  <SCORE.INTRA.POLAR.0>
0

>  <SCORE.INTRA.REPUL>
0

>  <SCORE.INTRA.REPUL.0>
0

>  <SCORE.INTRA.SOLV>
0.774156

>  <SCORE.INTRA.SOLV.lig_0>
-50.1861

>  <SCORE.INTRA.VDW>
0.715663

>  <SCORE.INTRA.VDW.0>
-1.36671

>  <SCORE.INTRA.norm>
-0.236455

>  <SCORE.RESTR>
0

>  <SCORE.RESTR.CAVITY>
0

>  <SCORE.RESTR.norm>
0

>  <SCORE.SYSTEM>
0

>  <SCORE.SYSTEM.CONST>
0

>  <SCORE.SYSTEM.DIHEDRAL>
0

>  <SCORE.SYSTEM.SOLV>
0

>  <SCORE.SYSTEM.norm>
0

>  <SCORE.heavy>
14

>  <SCORE.norm>
-0.399945

>  <RMSD>
2.579

$$$$
ligand
 OpenBabel11021811393D
libRbt.so/2013.1/901 2013/11/27
 14 13  0  0  0  0  0  0  0  0999 V2000
   -4.4390    1.3528    9.0340 N   0  0  0  0  0  0  0  0  0  0  0  0
   -3.4860    1.2923   10.2282 C   0  0  0  0  0  0  0  0  0  0  0  0
   -2.2613    0.6188    9.7249 C   0  0  0  0  0  0  0  0  0  0  0  0
   -1.1859    0.3963   10.7758 C   0  0  0  0  0  0  0  0  0  0  0  0
   -0.0357   -0.3221   10.1648 N   0  0  0  0  0  0  0  0  0  0  0  0
    0.4023   -1.4681   11.0947 C   0  0  0  0  0  0  0  0  0  0  0  0
    1.8299   -1.8680   10.4831 C   0  0  0  0  0  0  0  0  0  0  0  0
    2.3121   -2.8929   11.1430 C   0  0  0  0  0  0  0  0  0  0  0  0
    3.6738   -3.0722   10.2511 C   0  0  0  0  0  0  0  0  0  0  0  0
    4.1928   -4.3956   10.9074 N   0  0  0  0  0  0  0  0  0  0  0  0
    3.7320   -5.7014   10.1447 C   0  0  0  0  0  0  0  0  0  0  0  0
    4.4168   -5.6220    8.6639 C   0  0  0  0  0  0  0  0  0  0  0  0
    3.9653   -6.8891    7.9977 C   0  0  0  0  0  0  0  0  0  0  0  0
    4.7949   -7.9856    8.6234 N   0  0  0  0  0  0  0  0  0  0  0  0
  1  2  1  0  0  0  0
  2  3  1  0  0  0  0
  3  4  1  0  0  0  0
  4  5  1  0  0  0  0
  5  6  1  0  0  0  0
  6  7  1  0  0  0  0
  7  8  1  0  0  0  0
  8  9  1  0  0  0  0
  9 10  1  0  0  0  0
 10 11  1  0  0  0  0
 11 12  1  0  0  0  0
 12 13  1  0  0  0  0
 13 14  1  0  0  0  0
M  END
>  <CHROM.1>
-177.52166747,178.11968111,-133.94854047,-166.26004095,-177.04804768,177.47956440
-173.69024940,93.46967648,63.60387128,179.12887378,-75.00758234,1.27950051
-2.61110801,9.94558434,2.52019595,-0.52287465,0.71586139

>  <Name>
ligand

>  <RI>
0

>  <Rbt.Current_Directory>
/home/itssahil/PROJECTS/Mol_Feturizer/New_Systems/rnas/1FUF

>  <Rbt.Executable>
rbdock ($Id: //depot/dev/client3/rdock/2013.1/src/exe/rbdock.cxx#4 $)

>  <Rbt.Library>
libRbt.so (2013.1, Build901 2013/11/27)

>  <Rbt.Parameter_File>
/export/apps/rDock/src/rDock_2013.1_src/data/scripts/dock_solv.prm

>  <Rbt.Receptor>
prm/pocket_docking_7.prm

>  <SCORE>
-5.874

>  <SCORE.INTER>
-3.28095

>  <SCORE.INTER.CONST>
1

>  <SCORE.INTER.POLAR>
0

>  <SCORE.INTER.ROT>
11

>  <SCORE.INTER.SOLV>
17.8326

>  <SCORE.INTER.VDW>
-19.0648

>  <SCORE.INTER.norm>
-0.234354

>  <SCORE.INTRA>
-2.59304

>  <SCORE.INTRA.DIHEDRAL>
-7.60439

>  <SCORE.INTRA.DIHEDRAL.0>
10.5765

>  <SCORE.INTRA.POLAR>
0

>  <SCORE.INTRA.POLAR.0>
0

>  <SCORE.INTRA.REPUL>
0

>  <SCORE.INTRA.REPUL.0>
0

>  <SCORE.INTRA.SOLV>
0.718883

>  <SCORE.INTRA.SOLV.lig_0>
-50.1861

>  <SCORE.INTRA.VDW>
0.849708

>  <SCORE.INTRA.VDW.0>
-1.36671

>  <SCORE.INTRA.norm>
-0.185217

>  <SCORE.RESTR>
0

>  <SCORE.RESTR.CAVITY>
0

>  <SCORE.RESTR.norm>
0

>  <SCORE.SYSTEM>
0

>  <SCORE.SYSTEM.CONST>
0

>  <SCORE.SYSTEM.DIHEDRAL>
0

>  <SCORE.SYSTEM.SOLV>
0

>  <SCORE.SYSTEM.norm>
0

>  <SCORE.heavy>
14

>  <SCORE.norm>
-0.419571

>  <RMSD>
2.581

$$$$
ligand
 OpenBabel11021811393D
libRbt.so/2013.1/901 2013/11/27
 14 13  0  0  0  0  0  0  0  0999 V2000
    3.9636   -7.2651    7.8095 N   0  0  0  0  0  0  0  0  0  0  0  0
    3.9582   -6.2251    8.9303 C   0  0  0  0  0  0  0  0  0  0  0  0
    5.0878   -5.3092    8.6275 C   0  0  0  0  0  0  0  0  0  0  0  0
    5.3874   -4.2940    9.7184 C   0  0  0  0  0  0  0  0  0  0  0  0
    4.2085   -3.4073    9.9088 N   0  0  0  0  0  0  0  0  0  0  0  0
    3.4020   -3.8859   11.1296 C   0  0  0  0  0  0  0  0  0  0  0  0
    2.5431   -2.5818   11.4951 C   0  0  0  0  0  0  0  0  0  0  0  0
    1.6806   -2.3483   10.5358 C   0  0  0  0  0  0  0  0  0  0  0  0
    0.9859   -1.0317   11.2183 C   0  0  0  0  0  0  0  0  0  0  0  0
   -0.0285   -0.7006   10.0726 N   0  0  0  0  0  0  0  0  0  0  0  0
   -1.1223    0.3633   10.4859 C   0  0  0  0  0  0  0  0  0  0  0  0
   -1.9457    0.7151    9.1199 C   0  0  0  0  0  0  0  0  0  0  0  0
   -2.9524    1.7348    9.5671 C   0  0  0  0  0  0  0  0  0  0  0  0
   -3.9510    0.9690   10.4027 N   0  0  0  0  0  0  0  0  0  0  0  0
  1  2  1  0  0  0  0
  2  3  1  0  0  0  0
  3  4  1  0  0  0  0
  4  5  1  0  0  0  0
  5  6  1  0  0  0  0
  6  7  1  0  0  0  0
  7  8  1  0  0  0  0
  8  9  1  0  0  0  0
  9 10  1  0  0  0  0
 10 11  1  0  0  0  0
 11 12  1  0  0  0  0
 12 13  1  0  0  0  0
 13 14  1  0  0  0  0
M  END
>  <CHROM.1>
-172.30396761,-62.19655011,99.54882807,160.41166265,67.05475016,178.94841234
178.47431657,167.90710271,172.72224653,-179.34285212,-71.29408182,1.51571492
-2.37610473,9.93026180,0.57980785,0.50119169,-2.37239896

>  <Name>
ligand

>  <RI>
0

>  <Rbt.Current_Directory>
/home/itssahil/PROJECTS/Mol_Feturizer/New_Systems/rnas/1FUF

>  <Rbt.Executable>
rbdock ($Id: //depot/dev/client3/rdock/2013.1/src/exe/rbdock.cxx#4 $)

>  <Rbt.Library>
libRbt.so (2013.1, Build901 2013/11/27)

>  <Rbt.Parameter_File>
/export/apps/rDock/src/rDock_2013.1_src/data/scripts/dock_solv.prm

>  <Rbt.Receptor>
prm/pocket_docking_4.prm

>  <SCORE>
-2.90826

>  <SCORE.INTER>
-0.654298

>  <SCORE.INTER.CONST>
1

>  <SCORE.INTER.POLAR>
0

>  <SCORE.INTER.ROT>
11

>  <SCORE.INTER.SOLV>
21.5831

>  <SCORE.INTER.VDW>
-18.5639

>  <SCORE.INTER.norm>
-0.0467356

>  <SCORE.INTRA>
-2.25397

>  <SCORE.INTRA.DIHEDRAL>
-8.33138

>  <SCORE.INTRA.DIHEDRAL.0>
10.5765

>  <SCORE.INTRA.POLAR>
0

>  <SCORE.INTRA.POLAR.0>
0

>  <SCORE.INTRA.REPUL>
0

>  <SCORE.INTRA.REPUL.0>
0

>  <SCORE.INTRA.SOLV>
1.56298

>  <SCORE.INTRA.SOLV.lig_0>
-50.1861

>  <SCORE.INTRA.VDW>
1.13024

>  <SCORE.INTRA.VDW.0>
-1.36671

>  <SCORE.INTRA.norm>
-0.160998

>  <SCORE.RESTR>
0

>  <SCORE.RESTR.CAVITY>
0

>  <SCORE.RESTR.norm>
0

>  <SCORE.SYSTEM>
0

>  <SCORE.SYSTEM.CONST>
0

>  <SCORE.SYSTEM.DIHEDRAL>
0

>  <SCORE.SYSTEM.SOLV>
0

>  <SCORE.SYSTEM.norm>
0

>  <SCORE.heavy>
14

>  <SCORE.norm>
-0.207733

>  <RMSD>
2.591

$$$$
ligand
 OpenBabel11021811393D
libRbt.so/2013.1/901 2013/11/27
 14 13  0  0  0  0  0  0  0  0999 V2000
   -2.6188    3.0295    7.6164 N   0  0  0  0  0  0  0  0  0  0  0  0
   -2.1423    1.6849    8.1670 C   0  0  0  0  0  0  0  0  0  0  0  0
   -2.3743    1.7515    9.6327 C   0  0  0  0  0  0  0  0  0  0  0  0
   -2.1297    0.4453   10.3707 C   0  0  0  0  0  0  0  0  0  0  0  0
   -0.6973    0.0649   10.2454 N   0  0  0  0  0  0  0  0  0  0  0  0
   -0.2893   -0.7928   11.4569 C   0  0  0  0  0  0  0  0  0  0  0  0
    0.4792   -2.0147   10.7580 C   0  0  0  0  0  0  0  0  0  0  0  0
    1.7418   -1.6991   10.6006 C   0  0  0  0  0  0  0  0  0  0  0  0
    2.2251   -3.1394    9.9893 C   0  0  0  0  0  0  0  0  0  0  0  0
    2.3498   -3.9202   11.3406 N   0  0  0  0  0  0  0  0  0  0  0  0
    1.9384   -5.4426   11.2302 C   0  0  0  0  0  0  0  0  0  0  0  0
    3.3297   -6.2690   11.0080 C   0  0  0  0  0  0  0  0  0  0  0  0
    3.7130   -5.9413    9.5942 C   0  0  0  0  0  0  0  0  0  0  0  0
    4.9435   -6.7710    9.3125 N   0  0  0  0  0  0  0  0  0  0  0  0
  1  2  1  0  0  0  0
  2  3  1  0  0  0  0
  3  4  1  0  0  0  0
  4  5  1  0  0  0  0
  5  6  1  0  0  0  0
  6  7  1  0  0  0  0
  7  8  1  0  0  0  0
  8  9  1  0  0  0  0
  9 10  1  0  0  0  0
 10 11  1  0  0  0  0
 11 12  1  0  0  0  0
 12 13  1  0  0  0  0
 13 14  1  0  0  0  0
M  END
>  <CHROM.1>
172.75943540,63.42330754,153.06092322,132.54627191,87.37640496,176.35835104
-80.43640974,144.64483763,96.04785795,-72.84507801,-175.83945890,0.74766899
-2.07249601,10.09465832,-2.71607915,-0.85444843,1.94711139

>  <Name>
ligand

>  <RI>
0

>  <Rbt.Current_Directory>
/home/itssahil/PROJECTS/Mol_Feturizer/New_Systems/rnas/1FUF

>  <Rbt.Executable>
rbdock ($Id: //depot/dev/client3/rdock/2013.1/src/exe/rbdock.cxx#4 $)

>  <Rbt.Library>
libRbt.so (2013.1, Build901 2013/11/27)

>  <Rbt.Parameter_File>
/export/apps/rDock/src/rDock_2013.1_src/data/scripts/dock_solv.prm

>  <Rbt.Receptor>
prm/blind_docking_100.prm

>  <SCORE>
-0.83313

>  <SCORE.INTER>
-1.52148

>  <SCORE.INTER.CONST>
1

>  <SCORE.INTER.POLAR>
0

>  <SCORE.INTER.ROT>
11

>  <SCORE.INTER.SOLV>
18.8433

>  <SCORE.INTER.VDW>
-18.2288

>  <SCORE.INTER.norm>
-0.108677

>  <SCORE.INTRA>
0.688355

>  <SCORE.INTRA.DIHEDRAL>
-2.66525

>  <SCORE.INTRA.DIHEDRAL.0>
10.5765

>  <SCORE.INTRA.POLAR>
0

>  <SCORE.INTRA.POLAR.0>
0

>  <SCORE.INTRA.REPUL>
0

>  <SCORE.INTRA.REPUL.0>
0

>  <SCORE.INTRA.SOLV>
1.50724

>  <SCORE.INTRA.SOLV.lig_0>
-50.1861

>  <SCORE.INTRA.VDW>
1.26736

>  <SCORE.INTRA.VDW.0>
-1.36671

>  <SCORE.INTRA.norm>
0.0491682

>  <SCORE.RESTR>
0

>  <SCORE.RESTR.CAVITY>
0

>  <SCORE.RESTR.norm>
0

>  <SCORE.SYSTEM>
0

>  <SCORE.SYSTEM.CONST>
0

>  <SCORE.SYSTEM.DIHEDRAL>
0

>  <SCORE.SYSTEM.SOLV>
0

>  <SCORE.SYSTEM.norm>
0

>  <SCORE.heavy>
14

>  <SCORE.norm>
-0.0595093

>  <RMSD>
2.595

$$$$
ligand
 OpenBabel11021811393D
libRbt.so/2013.1/901 2013/11/27
 14 13  0  0  0  0  0  0  0  0999 V2000
    1.1506   -5.9946   12.0846 N   0  0  0  0  0  0  0  0  0  0  0  0
    1.8848   -6.5986   10.8871 C   0  0  0  0  0  0  0  0  0  0  0  0
    3.2193   -5.9462   10.8695 C   0  0  0  0  0  0  0  0  0  0  0  0
    3.2104   -4.5033   10.3913 C   0  0  0  0  0  0  0  0  0  0  0  0
    2.3404   -3.6902   11.2825 N   0  0  0  0  0  0  0  0  0  0  0  0
    2.5769   -2.1953   11.0010 C   0  0  0  0  0  0  0  0  0  0  0  0
    1.0987   -1.6836   10.6475 C   0  0  0  0  0  0  0  0  0  0  0  0
    1.1583   -0.4427   10.2290 C   0  0  0  0  0  0  0  0  0  0  0  0
   -0.4188   -0.3052    9.8102 C   0  0  0  0  0  0  0  0  0  0  0  0
   -0.9255    0.4228   11.1004 N   0  0  0  0  0  0  0  0  0  0  0  0
   -1.9533    1.5872   10.8057 C   0  0  0  0  0  0  0  0  0  0  0  0
   -3.3084    0.8613   10.2538 C   0  0  0  0  0  0  0  0  0  0  0  0
   -4.1490    2.0059    9.7673 C   0  0  0  0  0  0  0  0  0  0  0  0
   -5.4291    1.3768    9.2698 N   0  0  0  0  0  0  0  0  0  0  0  0
  1  2  1  0  0  0  0
  2  3  1  0  0  0  0
  3  4  1  0  0  0  0
  4  5  1  0  0  0  0
  5  6  1  0  0  0  0
  6  7  1  0  0  0  0
  7  8  1  0  0  0  0
  8  9  1  0  0  0  0
  9 10  1  0  0  0  0
 10 11  1  0  0  0  0
 11 12  1  0  0  0  0
 12 13  1  0  0  0  0
 13 14  1  0  0  0  0
M  END
>  <CHROM.1>
-73.94841354,59.81444707,167.34030202,123.73285548,-172.72356779,173.96701454
98.53314067,138.49305280,68.26109996,-170.42240778,-178.96929666,0.03282259
-1.79319234,10.59983046,0.83955979,0.07675455,3.04993670

>  <Name>
ligand

>  <RI>
0

>  <Rbt.Current_Directory>
/home/itssahil/PROJECTS/Mol_Feturizer/New_Systems/rnas/1FUF

>  <Rbt.Executable>
rbdock ($Id: //depot/dev/client3/rdock/2013.1/src/exe/rbdock.cxx#4 $)

>  <Rbt.Library>
libRbt.so (2013.1, Build901 2013/11/27)

>  <Rbt.Parameter_File>
/export/apps/rDock/src/rDock_2013.1_src/data/scripts/dock_solv.prm

>  <Rbt.Receptor>
prm/blind_docking_40.prm

>  <SCORE>
-1.39664

>  <SCORE.INTER>
-2.40834

>  <SCORE.INTER.CONST>
1

>  <SCORE.INTER.POLAR>
0

>  <SCORE.INTER.ROT>
11

>  <SCORE.INTER.SOLV>
19.7265

>  <SCORE.INTER.VDW>
-19.1144

>  <SCORE.INTER.norm>
-0.172024

>  <SCORE.INTRA>
1.0117

>  <SCORE.INTRA.DIHEDRAL>
-2.91579

>  <SCORE.INTRA.DIHEDRAL.0>
10.5765

>  <SCORE.INTRA.POLAR>
0

>  <SCORE.INTRA.POLAR.0>
0

>  <SCORE.INTRA.REPUL>
0

>  <SCORE.INTRA.REPUL.0>
0

>  <SCORE.INTRA.SOLV>
3.39789

>  <SCORE.INTRA.SOLV.lig_0>
-50.1861

>  <SCORE.INTRA.VDW>
0.770649

>  <SCORE.INTRA.VDW.0>
-1.36671

>  <SCORE.INTRA.norm>
0.0722643

>  <SCORE.RESTR>
0

>  <SCORE.RESTR.CAVITY>
0

>  <SCORE.RESTR.norm>
0

>  <SCORE.SYSTEM>
0

>  <SCORE.SYSTEM.CONST>
0

>  <SCORE.SYSTEM.DIHEDRAL>
0

>  <SCORE.SYSTEM.SOLV>
0

>  <SCORE.SYSTEM.norm>
0

>  <SCORE.heavy>
14

>  <SCORE.norm>
-0.0997597

>  <RMSD>
2.626

$$$$
ligand
 OpenBabel11021811393D
libRbt.so/2013.1/901 2013/11/27
 14 13  0  0  0  0  0  0  0  0999 V2000
    5.5468   -5.5563    7.6916 N   0  0  0  0  0  0  0  0  0  0  0  0
    4.0957   -6.0372    7.7250 C   0  0  0  0  0  0  0  0  0  0  0  0
    4.0109   -6.9629    8.8837 C   0  0  0  0  0  0  0  0  0  0  0  0
    4.1030   -6.2853   10.2413 C   0  0  0  0  0  0  0  0  0  0  0  0
    2.8685   -5.4922   10.4852 N   0  0  0  0  0  0  0  0  0  0  0  0
    3.2020   -3.9915   10.4051 C   0  0  0  0  0  0  0  0  0  0  0  0
    1.7608   -3.3174   10.6059 C   0  0  0  0  0  0  0  0  0  0  0  0
    1.8680   -2.0177   10.4721 C   0  0  0  0  0  0  0  0  0  0  0  0
    0.2881   -1.6677   10.7237 C   0  0  0  0  0  0  0  0  0  0  0  0
    0.3405   -0.1456   10.3608 N   0  0  0  0  0  0  0  0  0  0  0  0
   -0.9110    0.6701   10.8781 C   0  0  0  0  0  0  0  0  0  0  0  0
   -2.0694    0.4841    9.7417 C   0  0  0  0  0  0  0  0  0  0  0  0
   -3.1972    1.3378   10.2442 C   0  0  0  0  0  0  0  0  0  0  0  0
   -4.3091    1.1624    9.2367 N   0  0  0  0  0  0  0  0  0  0  0  0
  1  2  1  0  0  0  0
  2  3  1  0  0  0  0
  3  4  1  0  0  0  0
  4  5  1  0  0  0  0
  5  6  1  0  0  0  0
  6  7  1  0  0  0  0
  7  8  1  0  0  0  0
  8  9  1  0  0  0  0
  9 10  1  0  0  0  0
 10 11  1  0  0  0  0
 11 12  1  0  0  0  0
 12 13  1  0  0  0  0
 13 14  1  0  0  0  0
M  END
>  <CHROM.1>
70.74279822,69.82654794,-109.07069761,176.92221245,-175.80563046,179.90105036
-172.02737245,-163.05825376,-84.60041163,-176.87979235,-178.44825423,1.25702789
-2.70146681,9.83551863,0.40862909,0.70823338,-2.00719880

>  <Name>
ligand

>  <RI>
0

>  <Rbt.Current_Directory>
/home/itssahil/PROJECTS/Mol_Feturizer/New_Systems/rnas/1FUF

>  <Rbt.Executable>
rbdock ($Id: //depot/dev/client3/rdock/2013.1/src/exe/rbdock.cxx#4 $)

>  <Rbt.Library>
libRbt.so (2013.1, Build901 2013/11/27)

>  <Rbt.Parameter_File>
/export/apps/rDock/src/rDock_2013.1_src/data/scripts/dock_solv.prm

>  <Rbt.Receptor>
prm/blind_docking_100.prm

>  <SCORE>
-6.28927

>  <SCORE.INTER>
-3.59521

>  <SCORE.INTER.CONST>
1

>  <SCORE.INTER.POLAR>
0

>  <SCORE.INTER.ROT>
11

>  <SCORE.INTER.SOLV>
15.8429

>  <SCORE.INTER.VDW>
-18.6111

>  <SCORE.INTER.norm>
-0.256801

>  <SCORE.INTRA>
-2.69406

>  <SCORE.INTRA.DIHEDRAL>
-7.67891

>  <SCORE.INTRA.DIHEDRAL.0>
10.5765

>  <SCORE.INTRA.POLAR>
0

>  <SCORE.INTRA.POLAR.0>
0

>  <SCORE.INTRA.REPUL>
0

>  <SCORE.INTRA.REPUL.0>
0

>  <SCORE.INTRA.SOLV>
2.00264

>  <SCORE.INTRA.SOLV.lig_0>
-50.1861

>  <SCORE.INTRA.VDW>
0.144081

>  <SCORE.INTRA.VDW.0>
-1.36671

>  <SCORE.INTRA.norm>
-0.192433

>  <SCORE.RESTR>
0

>  <SCORE.RESTR.CAVITY>
0

>  <SCORE.RESTR.norm>
0

>  <SCORE.SYSTEM>
0

>  <SCORE.SYSTEM.CONST>
0

>  <SCORE.SYSTEM.DIHEDRAL>
0

>  <SCORE.SYSTEM.SOLV>
0

>  <SCORE.SYSTEM.norm>
0

>  <SCORE.heavy>
14

>  <SCORE.norm>
-0.449233

>  <RMSD>
2.670

$$$$
ligand
 OpenBabel11021811393D
libRbt.so/2013.1/901 2013/11/27
 14 13  0  0  0  0  0  0  0  0999 V2000
   -5.1986    2.7552    7.6040 N   0  0  0  0  0  0  0  0  0  0  0  0
   -4.7569    2.4045    9.0252 C   0  0  0  0  0  0  0  0  0  0  0  0
   -3.5174    1.6009    8.8688 C   0  0  0  0  0  0  0  0  0  0  0  0
   -2.8465    1.2138   10.1767 C   0  0  0  0  0  0  0  0  0  0  0  0
   -1.5700    0.5063    9.8896 N   0  0  0  0  0  0  0  0  0  0  0  0
   -0.5958    0.7151   11.0631 C   0  0  0  0  0  0  0  0  0  0  0  0
    0.7003   -0.0898   10.5690 C   0  0  0  0  0  0  0  0  0  0  0  0
    0.4718   -1.3774   10.6611 C   0  0  0  0  0  0  0  0  0  0  0  0
    2.0065   -1.8665   10.3660 C   0  0  0  0  0  0  0  0  0  0  0  0
    1.7541   -3.4114   10.3983 N   0  0  0  0  0  0  0  0  0  0  0  0
    3.0714   -4.2621   10.5983 C   0  0  0  0  0  0  0  0  0  0  0  0
    2.6240   -5.8256   10.4459 C   0  0  0  0  0  0  0  0  0  0  0  0
    1.7020   -6.0443   11.6100 C   0  0  0  0  0  0  0  0  0  0  0  0
    1.2854   -7.4935   11.5216 N   0  0  0  0  0  0  0  0  0  0  0  0
  1  2  1  0  0  0  0
  2  3  1  0  0  0  0
  3  4  1  0  0  0  0
  4  5  1  0  0  0  0
  5  6  1  0  0  0  0
  6  7  1  0  0  0  0
  7  8  1  0  0  0  0
  8  9  1  0  0  0  0
  9 10  1  0  0  0  0
 10 11  1  0  0  0  0
 11 12  1  0  0  0  0
 12 13  1  0  0  0  0
 13 14  1  0  0  0  0
M  END
>  <CHROM.1>
176.22987154,-175.72667967,152.66863294,-179.32549847,-73.71214379,-170.36034010
-177.32777825,-161.92674533,-174.16461431,-64.65656867,-178.88823173,-0.34760122
-1.51232023,10.19996880,2.25502494,-0.26611583,-0.04888840

>  <Name>
ligand

>  <RI>
0

>  <Rbt.Current_Directory>
/home/itssahil/PROJECTS/Mol_Feturizer/New_Systems/rnas/1FUF

>  <Rbt.Executable>
rbdock ($Id: //depot/dev/client3/rdock/2013.1/src/exe/rbdock.cxx#4 $)

>  <Rbt.Library>
libRbt.so (2013.1, Build901 2013/11/27)

>  <Rbt.Parameter_File>
/export/apps/rDock/src/rDock_2013.1_src/data/scripts/dock_solv.prm

>  <Rbt.Receptor>
prm/pocket_docking_5.prm

>  <SCORE>
-5.36753

>  <SCORE.INTER>
-2.04539

>  <SCORE.INTER.CONST>
1

>  <SCORE.INTER.POLAR>
0

>  <SCORE.INTER.ROT>
11

>  <SCORE.INTER.SOLV>
22.6168

>  <SCORE.INTER.VDW>
-19.8359

>  <SCORE.INTER.norm>
-0.1461

>  <SCORE.INTRA>
-3.32213

>  <SCORE.INTRA.DIHEDRAL>
-8.48411

>  <SCORE.INTRA.DIHEDRAL.0>
10.5765

>  <SCORE.INTRA.POLAR>
0

>  <SCORE.INTRA.POLAR.0>
0

>  <SCORE.INTRA.REPUL>
0

>  <SCORE.INTRA.REPUL.0>
0

>  <SCORE.INTRA.SOLV>
0.782054

>  <SCORE.INTRA.SOLV.lig_0>
-50.1861

>  <SCORE.INTRA.VDW>
0.528894

>  <SCORE.INTRA.VDW.0>
-1.36671

>  <SCORE.INTRA.norm>
-0.237295

>  <SCORE.RESTR>
0

>  <SCORE.RESTR.CAVITY>
0

>  <SCORE.RESTR.norm>
0

>  <SCORE.SYSTEM>
0

>  <SCORE.SYSTEM.CONST>
0

>  <SCORE.SYSTEM.DIHEDRAL>
0

>  <SCORE.SYSTEM.SOLV>
0

>  <SCORE.SYSTEM.norm>
0

>  <SCORE.heavy>
14

>  <SCORE.norm>
-0.383395

>  <RMSD>
2.670

$$$$
ligand
 OpenBabel11021811393D
libRbt.so/2013.1/901 2013/11/27
 14 13  0  0  0  0  0  0  0  0999 V2000
    5.6669   -5.9960    7.8051 N   0  0  0  0  0  0  0  0  0  0  0  0
    4.1429   -6.0776    7.7112 C   0  0  0  0  0  0  0  0  0  0  0  0
    3.7066   -6.7845    8.9427 C   0  0  0  0  0  0  0  0  0  0  0  0
    3.9238   -6.0044   10.2291 C   0  0  0  0  0  0  0  0  0  0  0  0
    3.0384   -4.8094   10.2407 N   0  0  0  0  0  0  0  0  0  0  0  0
    3.8106   -3.6077   10.8146 C   0  0  0  0  0  0  0  0  0  0  0  0
    2.6273   -2.7016   11.4066 C   0  0  0  0  0  0  0  0  0  0  0  0
    1.9540   -2.1673   10.4168 C   0  0  0  0  0  0  0  0  0  0  0  0
    0.9181   -1.2951   11.3376 C   0  0  0  0  0  0  0  0  0  0  0  0
    0.0650   -0.6752   10.1803 N   0  0  0  0  0  0  0  0  0  0  0  0
   -1.0328    0.3455   10.6824 C   0  0  0  0  0  0  0  0  0  0  0  0
   -1.9853    0.6520    9.3914 C   0  0  0  0  0  0  0  0  0  0  0  0
   -2.9834    1.6427    9.9162 C   0  0  0  0  0  0  0  0  0  0  0  0
   -3.9540    1.8697    8.7812 N   0  0  0  0  0  0  0  0  0  0  0  0
  1  2  1  0  0  0  0
  2  3  1  0  0  0  0
  3  4  1  0  0  0  0
  4  5  1  0  0  0  0
  5  6  1  0  0  0  0
  6  7  1  0  0  0  0
  7  8  1  0  0  0  0
  8  9  1  0  0  0  0
  9 10  1  0  0  0  0
 10 11  1  0  0  0  0
 11 12  1  0  0  0  0
 12 13  1  0  0  0  0
 13 14  1  0  0  0  0
M  END
>  <CHROM.1>
67.68622325,66.66164230,-139.58565671,-153.66885116,-71.69785664,-177.63588838
-178.31223445,-176.26569050,-169.40473481,-178.80890080,-175.58045910,1.42137332
-2.54355776,9.84708736,0.41743220,0.70859889,-2.07228286

>  <Name>
ligand

>  <RI>
0

>  <Rbt.Current_Directory>
/home/itssahil/PROJECTS/Mol_Feturizer/New_Systems/rnas/1FUF

>  <Rbt.Executable>
rbdock ($Id: //depot/dev/client3/rdock/2013.1/src/exe/rbdock.cxx#4 $)

>  <Rbt.Library>
libRbt.so (2013.1, Build901 2013/11/27)

>  <Rbt.Parameter_File>
/export/apps/rDock/src/rDock_2013.1_src/data/scripts/dock_solv.prm

>  <Rbt.Receptor>
prm/pocket_docking_5.prm

>  <SCORE>
-6.35846

>  <SCORE.INTER>
-3.87029

>  <SCORE.INTER.CONST>
1

>  <SCORE.INTER.POLAR>
0

>  <SCORE.INTER.ROT>
11

>  <SCORE.INTER.SOLV>
14.9248

>  <SCORE.INTER.VDW>
-18.4885

>  <SCORE.INTER.norm>
-0.276449

>  <SCORE.INTRA>
-2.48817

>  <SCORE.INTRA.DIHEDRAL>
-8.07684

>  <SCORE.INTRA.DIHEDRAL.0>
10.5765

>  <SCORE.INTRA.POLAR>
0

>  <SCORE.INTRA.POLAR.0>
0

>  <SCORE.INTRA.REPUL>
0

>  <SCORE.INTRA.REPUL.0>
0

>  <SCORE.INTRA.SOLV>
2.25007

>  <SCORE.INTRA.SOLV.lig_0>
-50.1861

>  <SCORE.INTRA.VDW>
0.425214

>  <SCORE.INTRA.VDW.0>
-1.36671

>  <SCORE.INTRA.norm>
-0.177726

>  <SCORE.RESTR>
0

>  <SCORE.RESTR.CAVITY>
0

>  <SCORE.RESTR.norm>
0

>  <SCORE.SYSTEM>
0

>  <SCORE.SYSTEM.CONST>
0

>  <SCORE.SYSTEM.DIHEDRAL>
0

>  <SCORE.SYSTEM.SOLV>
0

>  <SCORE.SYSTEM.norm>
0

>  <SCORE.heavy>
14

>  <SCORE.norm>
-0.454175

>  <RMSD>
2.689

$$$$
ligand
 OpenBabel11021811393D
libRbt.so/2013.1/901 2013/11/27
 14 13  0  0  0  0  0  0  0  0999 V2000
   -3.8836    1.8308    8.7234 N   0  0  0  0  0  0  0  0  0  0  0  0
   -2.7733    1.7966    9.7742 C   0  0  0  0  0  0  0  0  0  0  0  0
   -1.9768    0.5800    9.4705 C   0  0  0  0  0  0  0  0  0  0  0  0
   -0.7931    0.3527   10.3968 C   0  0  0  0  0  0  0  0  0  0  0  0
   -0.1045   -0.9111   10.0216 N   0  0  0  0  0  0  0  0  0  0  0  0
    1.0914   -1.1397   10.9636 C   0  0  0  0  0  0  0  0  0  0  0  0
    1.4398   -2.6817   10.6937 C   0  0  0  0  0  0  0  0  0  0  0  0
    2.3743   -3.0671   11.5284 C   0  0  0  0  0  0  0  0  0  0  0  0
    2.2620   -4.6706   11.2154 C   0  0  0  0  0  0  0  0  0  0  0  0
    3.2048   -4.7166    9.9663 N   0  0  0  0  0  0  0  0  0  0  0  0
    3.6879   -6.1750    9.5935 C   0  0  0  0  0  0  0  0  0  0  0  0
    5.0931   -5.9890    8.7819 C   0  0  0  0  0  0  0  0  0  0  0  0
    5.5540   -7.3980    8.5465 C   0  0  0  0  0  0  0  0  0  0  0  0
    6.8826   -7.2697    7.8392 N   0  0  0  0  0  0  0  0  0  0  0  0
  1  2  1  0  0  0  0
  2  3  1  0  0  0  0
  3  4  1  0  0  0  0
  4  5  1  0  0  0  0
  5  6  1  0  0  0  0
  6  7  1  0  0  0  0
  7  8  1  0  0  0  0
  8  9  1  0  0  0  0
  9 10  1  0  0  0  0
 10 11  1  0  0  0  0
 11 12  1  0  0  0  0
 12 13  1  0  0  0  0
 13 14  1  0  0  0  0
M  END
>  <CHROM.1>
179.38223793,178.18960768,-179.87132883,164.91354341,-174.06905408,168.95818367
84.95574262,163.74504372,-155.38098286,175.88725432,-177.98386002,1.57564490
-2.81848906,9.82278459,3.01712425,-0.79075877,1.49359358

>  <Name>
ligand

>  <RI>
0

>  <Rbt.Current_Directory>
/home/itssahil/PROJECTS/Mol_Feturizer/New_Systems/rnas/1FUF

>  <Rbt.Executable>
rbdock ($Id: //depot/dev/client3/rdock/2013.1/src/exe/rbdock.cxx#4 $)

>  <Rbt.Library>
libRbt.so (2013.1, Build901 2013/11/27)

>  <Rbt.Parameter_File>
/export/apps/rDock/src/rDock_2013.1_src/data/scripts/dock_solv.prm

>  <Rbt.Receptor>
prm/blind_docking_60.prm

>  <SCORE>
-3.76217

>  <SCORE.INTER>
-1.01042

>  <SCORE.INTER.CONST>
1

>  <SCORE.INTER.POLAR>
0

>  <SCORE.INTER.ROT>
11

>  <SCORE.INTER.SOLV>
14.9086

>  <SCORE.INTER.VDW>
-16.5765

>  <SCORE.INTER.norm>
-0.072173

>  <SCORE.INTRA>
-2.75175

>  <SCORE.INTRA.DIHEDRAL>
-6.99934

>  <SCORE.INTRA.DIHEDRAL.0>
10.5765

>  <SCORE.INTRA.POLAR>
0

>  <SCORE.INTRA.POLAR.0>
0

>  <SCORE.INTRA.REPUL>
0

>  <SCORE.INTRA.REPUL.0>
0

>  <SCORE.INTRA.SOLV>
0.295583

>  <SCORE.INTRA.SOLV.lig_0>
-50.1861

>  <SCORE.INTRA.VDW>
0.600127

>  <SCORE.INTRA.VDW.0>
-1.36671

>  <SCORE.INTRA.norm>
-0.196554

>  <SCORE.RESTR>
0

>  <SCORE.RESTR.CAVITY>
0

>  <SCORE.RESTR.norm>
0

>  <SCORE.SYSTEM>
0

>  <SCORE.SYSTEM.CONST>
0

>  <SCORE.SYSTEM.DIHEDRAL>
0

>  <SCORE.SYSTEM.SOLV>
0

>  <SCORE.SYSTEM.norm>
0

>  <SCORE.heavy>
14

>  <SCORE.norm>
-0.268726

>  <RMSD>
2.703

$$$$
ligand
 OpenBabel11021811393D
libRbt.so/2013.1/901 2013/11/27
 14 13  0  0  0  0  0  0  0  0999 V2000
    6.5081   -5.4524    8.5780 N   0  0  0  0  0  0  0  0  0  0  0  0
    5.6677   -6.7090    8.3482 C   0  0  0  0  0  0  0  0  0  0  0  0
    4.2567   -6.2813    8.5287 C   0  0  0  0  0  0  0  0  0  0  0  0
    3.9117   -5.8200    9.9354 C   0  0  0  0  0  0  0  0  0  0  0  0
    2.4993   -5.3553    9.9732 N   0  0  0  0  0  0  0  0  0  0  0  0
    2.1456   -4.9135   11.4048 C   0  0  0  0  0  0  0  0  0  0  0  0
    2.1218   -3.3160   11.2656 C   0  0  0  0  0  0  0  0  0  0  0  0
    1.1333   -2.9644   10.4795 C   0  0  0  0  0  0  0  0  0  0  0  0
    1.2093   -1.3569   10.7826 C   0  0  0  0  0  0  0  0  0  0  0  0
    0.0581   -0.8989    9.8253 N   0  0  0  0  0  0  0  0  0  0  0  0
   -0.9144    0.1664   10.4721 C   0  0  0  0  0  0  0  0  0  0  0  0
   -1.8753    0.6917    9.2603 C   0  0  0  0  0  0  0  0  0  0  0  0
   -2.8016    1.6591    9.9381 C   0  0  0  0  0  0  0  0  0  0  0  0
   -3.7693    0.8027   10.7203 N   0  0  0  0  0  0  0  0  0  0  0  0
  1  2  1  0  0  0  0
  2  3  1  0  0  0  0
  3  4  1  0  0  0  0
  4  5  1  0  0  0  0
  5  6  1  0  0  0  0
  6  7  1  0  0  0  0
  7  8  1  0  0  0  0
  8  9  1  0  0  0  0
  9 10  1  0  0  0  0
 10 11  1  0  0  0  0
 11 12  1  0  0  0  0
 12 13  1  0  0  0  0
 13 14  1  0  0  0  0
M  END
>  <CHROM.1>
-64.68833456,177.16693890,178.95436732,105.97925461,65.93991277,169.72740549
178.62386408,135.97869396,170.92797649,178.15715989,-74.42693485,1.43940240
-2.83917200,9.96523216,-0.43171751,0.65856315,-0.77392611

>  <Name>
ligand

>  <RI>
0

>  <Rbt.Current_Directory>
/home/itssahil/PROJECTS/Mol_Feturizer/New_Systems/rnas/1FUF

>  <Rbt.Executable>
rbdock ($Id: //depot/dev/client3/rdock/2013.1/src/exe/rbdock.cxx#4 $)

>  <Rbt.Library>
libRbt.so (2013.1, Build901 2013/11/27)

>  <Rbt.Parameter_File>
/export/apps/rDock/src/rDock_2013.1_src/data/scripts/dock_solv.prm

>  <Rbt.Receptor>
prm/pocket_docking_3.prm

>  <SCORE>
-2.03126

>  <SCORE.INTER>
-0.602192

>  <SCORE.INTER.CONST>
1

>  <SCORE.INTER.POLAR>
0

>  <SCORE.INTER.ROT>
11

>  <SCORE.INTER.SOLV>
17.2115

>  <SCORE.INTER.VDW>
-17.072

>  <SCORE.INTER.norm>
-0.0430137

>  <SCORE.INTRA>
-1.42907

>  <SCORE.INTRA.DIHEDRAL>
-7.01347

>  <SCORE.INTRA.DIHEDRAL.0>
10.5765

>  <SCORE.INTRA.POLAR>
0

>  <SCORE.INTRA.POLAR.0>
0

>  <SCORE.INTRA.REPUL>
0

>  <SCORE.INTRA.REPUL.0>
0

>  <SCORE.INTRA.SOLV>
2.07565

>  <SCORE.INTRA.SOLV.lig_0>
-50.1861

>  <SCORE.INTRA.VDW>
1.03984

>  <SCORE.INTRA.VDW.0>
-1.36671

>  <SCORE.INTRA.norm>
-0.102076

>  <SCORE.RESTR>
0

>  <SCORE.RESTR.CAVITY>
0

>  <SCORE.RESTR.norm>
0

>  <SCORE.SYSTEM>
0

>  <SCORE.SYSTEM.CONST>
0

>  <SCORE.SYSTEM.DIHEDRAL>
0

>  <SCORE.SYSTEM.SOLV>
0

>  <SCORE.SYSTEM.norm>
0

>  <SCORE.heavy>
14

>  <SCORE.norm>
-0.14509

>  <RMSD>
2.724

$$$$
ligand
 OpenBabel11021811393D
libRbt.so/2013.1/901 2013/11/27
 14 13  0  0  0  0  0  0  0  0999 V2000
    2.7234   -5.9462   10.5298 N   0  0  0  0  0  0  0  0  0  0  0  0
    2.1534   -4.6919   11.1931 C   0  0  0  0  0  0  0  0  0  0  0  0
    2.7585   -3.5477   10.4643 C   0  0  0  0  0  0  0  0  0  0  0  0
    2.3507   -2.1796   10.9866 C   0  0  0  0  0  0  0  0  0  0  0  0
    0.8954   -1.9744   10.7578 N   0  0  0  0  0  0  0  0  0  0  0  0
    0.5765   -0.4696   10.8196 C   0  0  0  0  0  0  0  0  0  0  0  0
   -1.0152   -0.4568   10.6238 C   0  0  0  0  0  0  0  0  0  0  0  0
   -1.4290    0.7828   10.5206 C   0  0  0  0  0  0  0  0  0  0  0  0
   -2.9836    0.4355   10.1409 C   0  0  0  0  0  0  0  0  0  0  0  0
   -3.4815    1.8994    9.8951 N   0  0  0  0  0  0  0  0  0  0  0  0
   -4.9802    1.9815    9.3989 C   0  0  0  0  0  0  0  0  0  0  0  0
   -4.9898    3.0640    8.1758 C   0  0  0  0  0  0  0  0  0  0  0  0
   -6.4319    3.1172    7.7626 C   0  0  0  0  0  0  0  0  0  0  0  0
   -6.4612    3.9894    6.5296 N   0  0  0  0  0  0  0  0  0  0  0  0
  1  2  1  0  0  0  0
  2  3  1  0  0  0  0
  3  4  1  0  0  0  0
  4  5  1  0  0  0  0
  5  6  1  0  0  0  0
  6  7  1  0  0  0  0
  7  8  1  0  0  0  0
  8  9  1  0  0  0  0
  9 10  1  0  0  0  0
 10 11  1  0  0  0  0
 11 12  1  0  0  0  0
 12 13  1  0  0  0  0
 13 14  1  0  0  0  0
M  END
>  <CHROM.1>
-178.59646958,-65.50826523,-160.51821947,-177.46335220,-173.77668657,172.86717098
-175.62882332,176.28310046,-135.55509378,-179.09538951,-173.74770738,-1.45098518
-0.28536166,9.84292629,0.45444227,0.62710858,-2.64329382

>  <Name>
ligand

>  <RI>
0

>  <Rbt.Current_Directory>
/home/itssahil/PROJECTS/Mol_Feturizer/New_Systems/rnas/1FUF

>  <Rbt.Executable>
rbdock ($Id: //depot/dev/client3/rdock/2013.1/src/exe/rbdock.cxx#4 $)

>  <Rbt.Library>
libRbt.so (2013.1, Build901 2013/11/27)

>  <Rbt.Parameter_File>
/export/apps/rDock/src/rDock_2013.1_src/data/scripts/dock_solv.prm

>  <Rbt.Receptor>
prm/blind_docking_100.prm

>  <SCORE>
-5.11832

>  <SCORE.INTER>
-0.990582

>  <SCORE.INTER.CONST>
1

>  <SCORE.INTER.POLAR>
0

>  <SCORE.INTER.ROT>
11

>  <SCORE.INTER.SOLV>
19.5365

>  <SCORE.INTER.VDW>
-18.1059

>  <SCORE.INTER.norm>
-0.0707559

>  <SCORE.INTRA>
-4.12774

>  <SCORE.INTRA.DIHEDRAL>
-8.56282

>  <SCORE.INTRA.DIHEDRAL.0>
10.5765

>  <SCORE.INTRA.POLAR>
0

>  <SCORE.INTRA.POLAR.0>
0

>  <SCORE.INTRA.REPUL>
0

>  <SCORE.INTRA.REPUL.0>
0

>  <SCORE.INTRA.SOLV>
0.188575

>  <SCORE.INTRA.SOLV.lig_0>
-50.1861

>  <SCORE.INTRA.VDW>
0.0593817

>  <SCORE.INTRA.VDW.0>
-1.36671

>  <SCORE.INTRA.norm>
-0.294839

>  <SCORE.RESTR>
0

>  <SCORE.RESTR.CAVITY>
0

>  <SCORE.RESTR.norm>
0

>  <SCORE.SYSTEM>
0

>  <SCORE.SYSTEM.CONST>
0

>  <SCORE.SYSTEM.DIHEDRAL>
0

>  <SCORE.SYSTEM.SOLV>
0

>  <SCORE.SYSTEM.norm>
0

>  <SCORE.heavy>
14

>  <SCORE.norm>
-0.365594

>  <RMSD>
2.731

$$$$
ligand
 OpenBabel11021811393D
libRbt.so/2013.1/901 2013/11/27
 14 13  0  0  0  0  0  0  0  0999 V2000
    4.6405   -5.2938    9.8533 N   0  0  0  0  0  0  0  0  0  0  0  0
    4.4318   -3.9281   10.5087 C   0  0  0  0  0  0  0  0  0  0  0  0
    2.9861   -3.6272   10.3473 C   0  0  0  0  0  0  0  0  0  0  0  0
    2.5629   -2.2635   10.8686 C   0  0  0  0  0  0  0  0  0  0  0  0
    1.1028   -2.0804   10.6523 N   0  0  0  0  0  0  0  0  0  0  0  0
    0.7483   -0.5895   10.7987 C   0  0  0  0  0  0  0  0  0  0  0  0
   -0.8463   -0.6067   10.6293 C   0  0  0  0  0  0  0  0  0  0  0  0
   -1.2976    0.6240   10.6510 C   0  0  0  0  0  0  0  0  0  0  0  0
   -2.8649    0.2593   10.3473 C   0  0  0  0  0  0  0  0  0  0  0  0
   -3.4436    1.7129   10.4074 N   0  0  0  0  0  0  0  0  0  0  0  0
   -4.0663    2.2014    9.0389 C   0  0  0  0  0  0  0  0  0  0  0  0
   -2.8021    2.4669    8.0394 C   0  0  0  0  0  0  0  0  0  0  0  0
   -3.4398    3.0436    6.8089 C   0  0  0  0  0  0  0  0  0  0  0  0
   -2.2905    3.4989    5.9407 N   0  0  0  0  0  0  0  0  0  0  0  0
  1  2  1  0  0  0  0
  2  3  1  0  0  0  0
  3  4  1  0  0  0  0
  4  5  1  0  0  0  0
  5  6  1  0  0  0  0
  6  7  1  0  0  0  0
  7  8  1  0  0  0  0
  8  9  1  0  0  0  0
  9 10  1  0  0  0  0
 10 11  1  0  0  0  0
 11 12  1  0  0  0  0
 12 13  1  0  0  0  0
 13 14  1  0  0  0  0
M  END
>  <CHROM.1>
-176.87563670,-179.98243785,-164.00805164,-176.54205556,-176.22697801,175.88151514
178.46094255,117.05303392,-72.26783201,-175.03145528,171.62689610,-0.32718713
-0.32721332,9.63529849,-0.53898545,0.59127380,-1.09943604

>  <Name>
ligand

>  <RI>
0

>  <Rbt.Current_Directory>
/home/itssahil/PROJECTS/Mol_Feturizer/New_Systems/rnas/1FUF

>  <Rbt.Executable>
rbdock ($Id: //depot/dev/client3/rdock/2013.1/src/exe/rbdock.cxx#4 $)

>  <Rbt.Library>
libRbt.so (2013.1, Build901 2013/11/27)

>  <Rbt.Parameter_File>
/export/apps/rDock/src/rDock_2013.1_src/data/scripts/dock_solv.prm

>  <Rbt.Receptor>
prm/pocket_docking_7.prm

>  <SCORE>
-6.36559

>  <SCORE.INTER>
-2.21821

>  <SCORE.INTER.CONST>
1

>  <SCORE.INTER.POLAR>
0

>  <SCORE.INTER.ROT>
11

>  <SCORE.INTER.SOLV>
20.7934

>  <SCORE.INTER.VDW>
-19.3433

>  <SCORE.INTER.norm>
-0.158443

>  <SCORE.INTRA>
-4.14739

>  <SCORE.INTRA.DIHEDRAL>
-8.53161

>  <SCORE.INTRA.DIHEDRAL.0>
10.5765

>  <SCORE.INTRA.POLAR>
0

>  <SCORE.INTRA.POLAR.0>
0

>  <SCORE.INTRA.REPUL>
0

>  <SCORE.INTRA.REPUL.0>
0

>  <SCORE.INTRA.SOLV>
-0.152585

>  <SCORE.INTRA.SOLV.lig_0>
-50.1861

>  <SCORE.INTRA.VDW>
0.194712

>  <SCORE.INTRA.VDW.0>
-1.36671

>  <SCORE.INTRA.norm>
-0.296242

>  <SCORE.RESTR>
0

>  <SCORE.RESTR.CAVITY>
0

>  <SCORE.RESTR.norm>
0

>  <SCORE.SYSTEM>
0

>  <SCORE.SYSTEM.CONST>
0

>  <SCORE.SYSTEM.DIHEDRAL>
0

>  <SCORE.SYSTEM.SOLV>
0

>  <SCORE.SYSTEM.norm>
0

>  <SCORE.heavy>
14

>  <SCORE.norm>
-0.454685

>  <RMSD>
2.733

$$$$
ligand
 OpenBabel11021811393D
libRbt.so/2013.1/901 2013/11/27
 14 13  0  0  0  0  0  0  0  0999 V2000
    4.3988   -5.3059    9.5761 N   0  0  0  0  0  0  0  0  0  0  0  0
    2.9984   -5.0154   10.1171 C   0  0  0  0  0  0  0  0  0  0  0  0
    2.8305   -3.5431   10.0138 C   0  0  0  0  0  0  0  0  0  0  0  0
    1.4889   -3.0245   10.5055 C   0  0  0  0  0  0  0  0  0  0  0  0
    1.4353   -1.5477   10.3368 N   0  0  0  0  0  0  0  0  0  0  0  0
    0.8045   -0.9136   11.5897 C   0  0  0  0  0  0  0  0  0  0  0  0
   -0.7204   -0.7172   11.1334 C   0  0  0  0  0  0  0  0  0  0  0  0
   -0.7941    0.2810   10.2868 C   0  0  0  0  0  0  0  0  0  0  0  0
   -2.4285    0.3674   10.2333 C   0  0  0  0  0  0  0  0  0  0  0  0
   -2.5528    1.5146    9.1751 N   0  0  0  0  0  0  0  0  0  0  0  0
   -3.9227    1.5000    8.3862 C   0  0  0  0  0  0  0  0  0  0  0  0
   -4.0512    2.9681    7.6819 C   0  0  0  0  0  0  0  0  0  0  0  0
   -3.0189    2.9289    6.5928 C   0  0  0  0  0  0  0  0  0  0  0  0
   -1.6993    3.1744    7.2857 N   0  0  0  0  0  0  0  0  0  0  0  0
  1  2  1  0  0  0  0
  2  3  1  0  0  0  0
  3  4  1  0  0  0  0
  4  5  1  0  0  0  0
  5  6  1  0  0  0  0
  6  7  1  0  0  0  0
  7  8  1  0  0  0  0
  8  9  1  0  0  0  0
  9 10  1  0  0  0  0
 10 11  1  0  0  0  0
 11 12  1  0  0  0  0
 12 13  1  0  0  0  0
 13 14  1  0  0  0  0
M  END
>  <CHROM.1>
-179.94387526,-179.32803509,-137.41452008,-97.40968667,-73.78181778,-171.07537533
-177.58652144,155.30957505,163.79836122,71.38073257,-78.77551851,-0.37398070
-0.52376678,9.49402555,-0.47922211,0.72601200,-1.24329257

>  <Name>
ligand

>  <RI>
0

>  <Rbt.Current_Directory>
/home/itssahil/PROJECTS/Mol_Feturizer/New_Systems/rnas/1FUF

>  <Rbt.Executable>
rbdock ($Id: //depot/dev/client3/rdock/2013.1/src/exe/rbdock.cxx#4 $)

>  <Rbt.Library>
libRbt.so (2013.1, Build901 2013/11/27)

>  <Rbt.Parameter_File>
/export/apps/rDock/src/rDock_2013.1_src/data/scripts/dock_solv.prm

>  <Rbt.Receptor>
prm/blind_docking_20.prm

>  <SCORE>
-1.87586

>  <SCORE.INTER>
-1.88161

>  <SCORE.INTER.CONST>
1

>  <SCORE.INTER.POLAR>
0

>  <SCORE.INTER.ROT>
11

>  <SCORE.INTER.SOLV>
18.0757

>  <SCORE.INTER.VDW>
-18.213

>  <SCORE.INTER.norm>
-0.1344

>  <SCORE.INTRA>
0.00575106

>  <SCORE.INTRA.DIHEDRAL>
-5.39838

>  <SCORE.INTRA.DIHEDRAL.0>
10.5765

>  <SCORE.INTRA.POLAR>
0

>  <SCORE.INTRA.POLAR.0>
0

>  <SCORE.INTRA.REPUL>
0

>  <SCORE.INTRA.REPUL.0>
0

>  <SCORE.INTRA.SOLV>
3.80506

>  <SCORE.INTRA.SOLV.lig_0>
-50.1861

>  <SCORE.INTRA.VDW>
0.802415

>  <SCORE.INTRA.VDW.0>
-1.36671

>  <SCORE.INTRA.norm>
0.00041079

>  <SCORE.RESTR>
0

>  <SCORE.RESTR.CAVITY>
0

>  <SCORE.RESTR.norm>
0

>  <SCORE.SYSTEM>
0

>  <SCORE.SYSTEM.CONST>
0

>  <SCORE.SYSTEM.DIHEDRAL>
0

>  <SCORE.SYSTEM.SOLV>
0

>  <SCORE.SYSTEM.norm>
0

>  <SCORE.heavy>
14

>  <SCORE.norm>
-0.13399

>  <RMSD>
2.753

$$$$
ligand
 OpenBabel11021811393D
libRbt.so/2013.1/901 2013/11/27
 14 13  0  0  0  0  0  0  0  0999 V2000
   -3.7009    1.6404    8.7691 N   0  0  0  0  0  0  0  0  0  0  0  0
   -2.9091    1.4725   10.0663 C   0  0  0  0  0  0  0  0  0  0  0  0
   -1.7700    0.5826    9.7237 C   0  0  0  0  0  0  0  0  0  0  0  0
   -0.8786    0.2171   10.8994 C   0  0  0  0  0  0  0  0  0  0  0  0
    0.2032   -0.6935   10.4380 N   0  0  0  0  0  0  0  0  0  0  0  0
    0.9385   -1.2728   11.6601 C   0  0  0  0  0  0  0  0  0  0  0  0
    2.1093   -2.1262   10.9724 C   0  0  0  0  0  0  0  0  0  0  0  0
    1.5858   -3.1461   10.3365 C   0  0  0  0  0  0  0  0  0  0  0  0
    2.9792   -3.6959    9.6750 C   0  0  0  0  0  0  0  0  0  0  0  0
    3.2959   -4.8115   10.7269 N   0  0  0  0  0  0  0  0  0  0  0  0
    4.4453   -5.7979   10.2742 C   0  0  0  0  0  0  0  0  0  0  0  0
    3.8423   -6.6413    9.0120 C   0  0  0  0  0  0  0  0  0  0  0  0
    4.9584   -7.5761    8.6464 C   0  0  0  0  0  0  0  0  0  0  0  0
    6.0237   -6.7019    8.0276 N   0  0  0  0  0  0  0  0  0  0  0  0
  1  2  1  0  0  0  0
  2  3  1  0  0  0  0
  3  4  1  0  0  0  0
  4  5  1  0  0  0  0
  5  6  1  0  0  0  0
  6  7  1  0  0  0  0
  7  8  1  0  0  0  0
  8  9  1  0  0  0  0
  9 10  1  0  0  0  0
 10 11  1  0  0  0  0
 11 12  1  0  0  0  0
 12 13  1  0  0  0  0
 13 14  1  0  0  0  0
M  END
>  <CHROM.1>
-176.92130651,178.88014210,-169.33808663,-176.14921186,-67.58380274,175.42919841
97.66990242,168.00918081,-67.61348539,-178.79698352,-71.03696342,1.50880978
-2.75365143,9.94501117,2.69497526,-0.71485703,1.05185688

>  <Name>
ligand

>  <RI>
0

>  <Rbt.Current_Directory>
/home/itssahil/PROJECTS/Mol_Feturizer/New_Systems/rnas/1FUF

>  <Rbt.Executable>
rbdock ($Id: //depot/dev/client3/rdock/2013.1/src/exe/rbdock.cxx#4 $)

>  <Rbt.Library>
libRbt.so (2013.1, Build901 2013/11/27)

>  <Rbt.Parameter_File>
/export/apps/rDock/src/rDock_2013.1_src/data/scripts/dock_solv.prm

>  <Rbt.Receptor>
prm/pocket_docking_4.prm

>  <SCORE>
-2.8441

>  <SCORE.INTER>
-2.1986

>  <SCORE.INTER.CONST>
1

>  <SCORE.INTER.POLAR>
0

>  <SCORE.INTER.ROT>
11

>  <SCORE.INTER.SOLV>
15.0846

>  <SCORE.INTER.VDW>
-17.4273

>  <SCORE.INTER.norm>
-0.157043

>  <SCORE.INTRA>
-0.645499

>  <SCORE.INTRA.DIHEDRAL>
-5.67676

>  <SCORE.INTRA.DIHEDRAL.0>
10.5765

>  <SCORE.INTRA.POLAR>
0

>  <SCORE.INTRA.POLAR.0>
0

>  <SCORE.INTRA.REPUL>
0

>  <SCORE.INTRA.REPUL.0>
0

>  <SCORE.INTRA.SOLV>
1.68587

>  <SCORE.INTRA.SOLV.lig_0>
-50.1861

>  <SCORE.INTRA.VDW>
1.34995

>  <SCORE.INTRA.VDW.0>
-1.36671

>  <SCORE.INTRA.norm>
-0.0461071

>  <SCORE.RESTR>
0

>  <SCORE.RESTR.CAVITY>
0

>  <SCORE.RESTR.norm>
0

>  <SCORE.SYSTEM>
0

>  <SCORE.SYSTEM.CONST>
0

>  <SCORE.SYSTEM.DIHEDRAL>
0

>  <SCORE.SYSTEM.SOLV>
0

>  <SCORE.SYSTEM.norm>
0

>  <SCORE.heavy>
14

>  <SCORE.norm>
-0.20315

>  <RMSD>
2.764

$$$$
ligand
 OpenBabel11021811393D
libRbt.so/2013.1/901 2013/11/27
 14 13  0  0  0  0  0  0  0  0999 V2000
   -3.8019    2.1146    7.1733 N   0  0  0  0  0  0  0  0  0  0  0  0
   -2.5176    2.5166    7.8992 C   0  0  0  0  0  0  0  0  0  0  0  0
   -2.7177    2.1107    9.3140 C   0  0  0  0  0  0  0  0  0  0  0  0
   -2.5420    0.6236    9.5752 C   0  0  0  0  0  0  0  0  0  0  0  0
   -1.1085    0.2582    9.4207 N   0  0  0  0  0  0  0  0  0  0  0  0
   -0.6232   -0.4544   10.6960 C   0  0  0  0  0  0  0  0  0  0  0  0
    0.8212   -0.9904   10.2505 C   0  0  0  0  0  0  0  0  0  0  0  0
    1.2832   -1.8043   11.1685 C   0  0  0  0  0  0  0  0  0  0  0  0
    2.6198   -2.2785   10.3497 C   0  0  0  0  0  0  0  0  0  0  0  0
    3.2175   -3.2312   11.4389 N   0  0  0  0  0  0  0  0  0  0  0  0
    4.1177   -4.3857   10.8424 C   0  0  0  0  0  0  0  0  0  0  0  0
    3.0869   -5.4480   10.1519 C   0  0  0  0  0  0  0  0  0  0  0  0
    2.2677   -5.9467   11.3067 C   0  0  0  0  0  0  0  0  0  0  0  0
    1.3326   -6.9759   10.7167 N   0  0  0  0  0  0  0  0  0  0  0  0
  1  2  1  0  0  0  0
  2  3  1  0  0  0  0
  3  4  1  0  0  0  0
  4  5  1  0  0  0  0
  5  6  1  0  0  0  0
  6  7  1  0  0  0  0
  7  8  1  0  0  0  0
  8  9  1  0  0  0  0
  9 10  1  0  0  0  0
 10 11  1  0  0  0  0
 11 12  1  0  0  0  0
 12 13  1  0  0  0  0
 13 14  1  0  0  0  0
M  END
>  <CHROM.1>
77.51229325,69.49586847,125.86252286,170.41851465,-170.23576613,173.87953769
178.69113224,153.02639261,-73.58214330,-63.07773747,-177.88754014,0.38845572
-1.70641927,10.02182338,2.28442320,-0.38860476,-0.01094547

>  <Name>
ligand

>  <RI>
0

>  <Rbt.Current_Directory>
/home/itssahil/PROJECTS/Mol_Feturizer/New_Systems/rnas/1FUF

>  <Rbt.Executable>
rbdock ($Id: //depot/dev/client3/rdock/2013.1/src/exe/rbdock.cxx#4 $)

>  <Rbt.Library>
libRbt.so (2013.1, Build901 2013/11/27)

>  <Rbt.Parameter_File>
/export/apps/rDock/src/rDock_2013.1_src/data/scripts/dock_solv.prm

>  <Rbt.Receptor>
prm/pocket_docking_7.prm

>  <SCORE>
-4.07746

>  <SCORE.INTER>
-2.08993

>  <SCORE.INTER.CONST>
1

>  <SCORE.INTER.POLAR>
0

>  <SCORE.INTER.ROT>
11

>  <SCORE.INTER.SOLV>
23.0237

>  <SCORE.INTER.VDW>
-20.0012

>  <SCORE.INTER.norm>
-0.149281

>  <SCORE.INTRA>
-1.98754

>  <SCORE.INTRA.DIHEDRAL>
-6.6966

>  <SCORE.INTRA.DIHEDRAL.0>
10.5765

>  <SCORE.INTRA.POLAR>
0

>  <SCORE.INTRA.POLAR.0>
0

>  <SCORE.INTRA.REPUL>
0

>  <SCORE.INTRA.REPUL.0>
0

>  <SCORE.INTRA.SOLV>
1.79084

>  <SCORE.INTRA.SOLV.lig_0>
-50.1861

>  <SCORE.INTRA.VDW>
0.465346

>  <SCORE.INTRA.VDW.0>
-1.36671

>  <SCORE.INTRA.norm>
-0.141967

>  <SCORE.RESTR>
0

>  <SCORE.RESTR.CAVITY>
0

>  <SCORE.RESTR.norm>
0

>  <SCORE.SYSTEM>
0

>  <SCORE.SYSTEM.CONST>
0

>  <SCORE.SYSTEM.DIHEDRAL>
0

>  <SCORE.SYSTEM.SOLV>
0

>  <SCORE.SYSTEM.norm>
0

>  <SCORE.heavy>
14

>  <SCORE.norm>
-0.291247

>  <RMSD>
2.773

$$$$
ligand
 OpenBabel11021811393D
libRbt.so/2013.1/901 2013/11/27
 14 13  0  0  0  0  0  0  0  0999 V2000
    5.7786   -7.5049    8.9178 N   0  0  0  0  0  0  0  0  0  0  0  0
    4.4058   -7.4542    8.2463 C   0  0  0  0  0  0  0  0  0  0  0  0
    3.7747   -6.1985    8.7274 C   0  0  0  0  0  0  0  0  0  0  0  0
    3.4655   -6.1771   10.2155 C   0  0  0  0  0  0  0  0  0  0  0  0
    2.6708   -4.9624   10.5401 N   0  0  0  0  0  0  0  0  0  0  0  0
    3.6244   -3.8161   10.9229 C   0  0  0  0  0  0  0  0  0  0  0  0
    2.6085   -2.7092   11.4838 C   0  0  0  0  0  0  0  0  0  0  0  0
    1.8987   -2.2300   10.4913 C   0  0  0  0  0  0  0  0  0  0  0  0
    0.9607   -1.2327   11.3898 C   0  0  0  0  0  0  0  0  0  0  0  0
    0.0725   -0.6652   10.2320 N   0  0  0  0  0  0  0  0  0  0  0  0
   -0.9521    0.4411   10.7067 C   0  0  0  0  0  0  0  0  0  0  0  0
   -2.0400    0.5942    9.4979 C   0  0  0  0  0  0  0  0  0  0  0  0
   -2.9933    1.6342   10.0105 C   0  0  0  0  0  0  0  0  0  0  0  0
   -4.0708    1.7406    8.9571 N   0  0  0  0  0  0  0  0  0  0  0  0
  1  2  1  0  0  0  0
  2  3  1  0  0  0  0
  3  4  1  0  0  0  0
  4  5  1  0  0  0  0
  5  6  1  0  0  0  0
  6  7  1  0  0  0  0
  7  8  1  0  0  0  0
  8  9  1  0  0  0  0
  9 10  1  0  0  0  0
 10 11  1  0  0  0  0
 11 12  1  0  0  0  0
 12 13  1  0  0  0  0
 13 14  1  0  0  0  0
M  END
>  <CHROM.1>
-65.90693024,-172.11380315,-91.11039197,-170.21488401,-69.69484751,177.36588968
-178.74643190,-176.71338436,-164.44996221,179.12231857,-176.38160154,1.37180966
-2.75283752,10.02436961,0.57644238,0.65547439,-2.31958567

>  <Name>
ligand

>  <RI>
0

>  <Rbt.Current_Directory>
/home/itssahil/PROJECTS/Mol_Feturizer/New_Systems/rnas/1FUF

>  <Rbt.Executable>
rbdock ($Id: //depot/dev/client3/rdock/2013.1/src/exe/rbdock.cxx#4 $)

>  <Rbt.Library>
libRbt.so (2013.1, Build901 2013/11/27)

>  <Rbt.Parameter_File>
/export/apps/rDock/src/rDock_2013.1_src/data/scripts/dock_solv.prm

>  <Rbt.Receptor>
prm/blind_docking_80.prm

>  <SCORE>
-6.63124

>  <SCORE.INTER>
-3.52331

>  <SCORE.INTER.CONST>
1

>  <SCORE.INTER.POLAR>
0

>  <SCORE.INTER.ROT>
11

>  <SCORE.INTER.SOLV>
15.6029

>  <SCORE.INTER.VDW>
-18.4832

>  <SCORE.INTER.norm>
-0.251665

>  <SCORE.INTRA>
-3.10793

>  <SCORE.INTRA.DIHEDRAL>
-8.86931

>  <SCORE.INTRA.DIHEDRAL.0>
10.5765

>  <SCORE.INTRA.POLAR>
0

>  <SCORE.INTRA.POLAR.0>
0

>  <SCORE.INTRA.REPUL>
0

>  <SCORE.INTRA.REPUL.0>
0

>  <SCORE.INTRA.SOLV>
1.11558

>  <SCORE.INTRA.SOLV.lig_0>
-50.1861

>  <SCORE.INTRA.VDW>
0.768943

>  <SCORE.INTRA.VDW.0>
-1.36671

>  <SCORE.INTRA.norm>
-0.221995

>  <SCORE.RESTR>
0

>  <SCORE.RESTR.CAVITY>
0

>  <SCORE.RESTR.norm>
0

>  <SCORE.SYSTEM>
0

>  <SCORE.SYSTEM.CONST>
0

>  <SCORE.SYSTEM.DIHEDRAL>
0

>  <SCORE.SYSTEM.SOLV>
0

>  <SCORE.SYSTEM.norm>
0

>  <SCORE.heavy>
14

>  <SCORE.norm>
-0.47366

>  <RMSD>
2.774

$$$$
ligand
 OpenBabel11021811393D
libRbt.so/2013.1/901 2013/11/27
 14 13  0  0  0  0  0  0  0  0999 V2000
   -2.8053    2.0085    9.0662 N   0  0  0  0  0  0  0  0  0  0  0  0
   -2.8426    1.3098   10.4257 C   0  0  0  0  0  0  0  0  0  0  0  0
   -1.4283    0.9860   10.7445 C   0  0  0  0  0  0  0  0  0  0  0  0
   -0.7590    0.0422    9.7587 C   0  0  0  0  0  0  0  0  0  0  0  0
    0.5700   -0.3666   10.2868 N   0  0  0  0  0  0  0  0  0  0  0  0
    0.4246   -1.6836   11.0706 C   0  0  0  0  0  0  0  0  0  0  0  0
    1.9134   -1.9109   11.6218 C   0  0  0  0  0  0  0  0  0  0  0  0
    2.6699   -2.3641   10.6518 C   0  0  0  0  0  0  0  0  0  0  0  0
    2.4444   -3.9565   10.9603 C   0  0  0  0  0  0  0  0  0  0  0  0
    3.3346   -4.5312    9.8076 N   0  0  0  0  0  0  0  0  0  0  0  0
    3.2894   -6.1078    9.7015 C   0  0  0  0  0  0  0  0  0  0  0  0
    4.2069   -6.4975    8.4075 C   0  0  0  0  0  0  0  0  0  0  0  0
    5.5989   -6.1409    8.8414 C   0  0  0  0  0  0  0  0  0  0  0  0
    6.4714   -6.4038    7.6366 N   0  0  0  0  0  0  0  0  0  0  0  0
  1  2  1  0  0  0  0
  2  3  1  0  0  0  0
  3  4  1  0  0  0  0
  4  5  1  0  0  0  0
  5  6  1  0  0  0  0
  6  7  1  0  0  0  0
  7  8  1  0  0  0  0
  8  9  1  0  0  0  0
  9 10  1  0  0  0  0
 10 11  1  0  0  0  0
 11 12  1  0  0  0  0
 12 13  1  0  0  0  0
 13 14  1  0  0  0  0
M  END
>  <CHROM.1>
-61.77034078,-171.54443260,93.14300155,-176.87427015,-77.21160568,-92.20018308
179.73182951,-175.65965787,177.08645833,68.16597092,-176.45875899,1.64907575
-2.54411920,9.92752007,2.94838813,-0.80393557,1.49247250

>  <Name>
ligand

>  <RI>
0

>  <Rbt.Current_Directory>
/home/itssahil/PROJECTS/Mol_Feturizer/New_Systems/rnas/1FUF

>  <Rbt.Executable>
rbdock ($Id: //depot/dev/client3/rdock/2013.1/src/exe/rbdock.cxx#4 $)

>  <Rbt.Library>
libRbt.so (2013.1, Build901 2013/11/27)

>  <Rbt.Parameter_File>
/export/apps/rDock/src/rDock_2013.1_src/data/scripts/dock_solv.prm

>  <Rbt.Receptor>
prm/pocket_docking_4.prm

>  <SCORE>
-0.884985

>  <SCORE.INTER>
-0.988271

>  <SCORE.INTER.CONST>
1

>  <SCORE.INTER.POLAR>
0

>  <SCORE.INTER.ROT>
11

>  <SCORE.INTER.SOLV>
15.91

>  <SCORE.INTER.VDW>
-16.8955

>  <SCORE.INTER.norm>
-0.0705908

>  <SCORE.INTRA>
0.103286

>  <SCORE.INTRA.DIHEDRAL>
-4.81508

>  <SCORE.INTRA.DIHEDRAL.0>
10.5765

>  <SCORE.INTRA.POLAR>
0

>  <SCORE.INTRA.POLAR.0>
0

>  <SCORE.INTRA.REPUL>
0

>  <SCORE.INTRA.REPUL.0>
0

>  <SCORE.INTRA.SOLV>
1.88938

>  <SCORE.INTRA.SOLV.lig_0>
-50.1861

>  <SCORE.INTRA.VDW>
1.56613

>  <SCORE.INTRA.VDW.0>
-1.36671

>  <SCORE.INTRA.norm>
0.00737759

>  <SCORE.RESTR>
0

>  <SCORE.RESTR.CAVITY>
0

>  <SCORE.RESTR.norm>
0

>  <SCORE.SYSTEM>
0

>  <SCORE.SYSTEM.CONST>
0

>  <SCORE.SYSTEM.DIHEDRAL>
0

>  <SCORE.SYSTEM.SOLV>
0

>  <SCORE.SYSTEM.norm>
0

>  <SCORE.heavy>
14

>  <SCORE.norm>
-0.0632132

>  <RMSD>
2.783

$$$$
ligand
 OpenBabel11021811393D
libRbt.so/2013.1/901 2013/11/27
 14 13  0  0  0  0  0  0  0  0999 V2000
    6.8739   -5.1920    6.8770 N   0  0  0  0  0  0  0  0  0  0  0  0
    5.6529   -5.4338    7.7651 C   0  0  0  0  0  0  0  0  0  0  0  0
    6.0279   -4.9146    9.1054 C   0  0  0  0  0  0  0  0  0  0  0  0
    5.0274   -5.2271   10.2063 C   0  0  0  0  0  0  0  0  0  0  0  0
    3.7123   -4.6196    9.8691 N   0  0  0  0  0  0  0  0  0  0  0  0
    2.7229   -4.8729   11.0209 C   0  0  0  0  0  0  0  0  0  0  0  0
    1.4940   -3.9232   10.6211 C   0  0  0  0  0  0  0  0  0  0  0  0
    1.8695   -2.6701   10.7055 C   0  0  0  0  0  0  0  0  0  0  0  0
    0.3801   -2.0111   10.5351 C   0  0  0  0  0  0  0  0  0  0  0  0
    0.8066   -0.5047   10.5273 N   0  0  0  0  0  0  0  0  0  0  0  0
   -0.3036    0.4685   11.0924 C   0  0  0  0  0  0  0  0  0  0  0  0
   -1.4572    0.5522    9.9391 C   0  0  0  0  0  0  0  0  0  0  0  0
   -2.4761    1.4853   10.5258 C   0  0  0  0  0  0  0  0  0  0  0  0
   -3.5742    1.5768    9.4924 N   0  0  0  0  0  0  0  0  0  0  0  0
  1  2  1  0  0  0  0
  2  3  1  0  0  0  0
  3  4  1  0  0  0  0
  4  5  1  0  0  0  0
  5  6  1  0  0  0  0
  6  7  1  0  0  0  0
  7  8  1  0  0  0  0
  8  9  1  0  0  0  0
  9 10  1  0  0  0  0
 10 11  1  0  0  0  0
 11 12  1  0  0  0  0
 12 13  1  0  0  0  0
 13 14  1  0  0  0  0
M  END
>  <CHROM.1>
-171.86857501,-60.38932815,-176.96000700,169.33825271,-66.90493384,-169.77173726
-176.10670989,-150.92009535,-73.56446715,-179.88948965,-179.31050576,1.91115210
-2.52058265,9.87760481,-0.25340869,0.65979679,-0.92171027

>  <Name>
ligand

>  <RI>
0

>  <Rbt.Current_Directory>
/home/itssahil/PROJECTS/Mol_Feturizer/New_Systems/rnas/1FUF

>  <Rbt.Executable>
rbdock ($Id: //depot/dev/client3/rdock/2013.1/src/exe/rbdock.cxx#4 $)

>  <Rbt.Library>
libRbt.so (2013.1, Build901 2013/11/27)

>  <Rbt.Parameter_File>
/export/apps/rDock/src/rDock_2013.1_src/data/scripts/dock_solv.prm

>  <Rbt.Receptor>
prm/pocket_docking_3.prm

>  <SCORE>
-3.25883

>  <SCORE.INTER>
0.0299222

>  <SCORE.INTER.CONST>
1

>  <SCORE.INTER.POLAR>
0

>  <SCORE.INTER.ROT>
11

>  <SCORE.INTER.SOLV>
17.3996

>  <SCORE.INTER.VDW>
-16.7133

>  <SCORE.INTER.norm>
0.0021373

>  <SCORE.INTRA>
-3.28875

>  <SCORE.INTRA.DIHEDRAL>
-8.84879

>  <SCORE.INTRA.DIHEDRAL.0>
10.5765

>  <SCORE.INTRA.POLAR>
0

>  <SCORE.INTRA.POLAR.0>
0

>  <SCORE.INTRA.REPUL>
0

>  <SCORE.INTRA.REPUL.0>
0

>  <SCORE.INTRA.SOLV>
0.616765

>  <SCORE.INTRA.SOLV.lig_0>
-50.1861

>  <SCORE.INTRA.VDW>
0.827258

>  <SCORE.INTRA.VDW.0>
-1.36671

>  <SCORE.INTRA.norm>
-0.234911

>  <SCORE.RESTR>
0

>  <SCORE.RESTR.CAVITY>
0

>  <SCORE.RESTR.norm>
0

>  <SCORE.SYSTEM>
0

>  <SCORE.SYSTEM.CONST>
0

>  <SCORE.SYSTEM.DIHEDRAL>
0

>  <SCORE.SYSTEM.SOLV>
0

>  <SCORE.SYSTEM.norm>
0

>  <SCORE.heavy>
14

>  <SCORE.norm>
-0.232774

>  <RMSD>
2.794

$$$$
ligand
 OpenBabel11021811393D
libRbt.so/2013.1/901 2013/11/27
 14 13  0  0  0  0  0  0  0  0999 V2000
    3.9305   -6.6085    7.9066 N   0  0  0  0  0  0  0  0  0  0  0  0
    4.8389   -7.1899    8.9905 C   0  0  0  0  0  0  0  0  0  0  0  0
    5.0577   -6.0854    9.9594 C   0  0  0  0  0  0  0  0  0  0  0  0
    3.8789   -5.8087   10.8783 C   0  0  0  0  0  0  0  0  0  0  0  0
    2.7433   -5.2726   10.0813 N   0  0  0  0  0  0  0  0  0  0  0  0
    2.8529   -3.7390   10.0044 C   0  0  0  0  0  0  0  0  0  0  0  0
    2.1296   -3.2835   11.3613 C   0  0  0  0  0  0  0  0  0  0  0  0
    1.9965   -1.9794   11.3646 C   0  0  0  0  0  0  0  0  0  0  0  0
    0.5304   -1.9340   10.6364 C   0  0  0  0  0  0  0  0  0  0  0  0
    0.2622   -0.3981   10.7794 N   0  0  0  0  0  0  0  0  0  0  0  0
   -0.9855    0.1048    9.9490 C   0  0  0  0  0  0  0  0  0  0  0  0
   -1.5745    1.3946   10.7597 C   0  0  0  0  0  0  0  0  0  0  0  0
   -2.7021    1.8724    9.8917 C   0  0  0  0  0  0  0  0  0  0  0  0
   -3.7805    0.8231   10.0261 N   0  0  0  0  0  0  0  0  0  0  0  0
  1  2  1  0  0  0  0
  2  3  1  0  0  0  0
  3  4  1  0  0  0  0
  4  5  1  0  0  0  0
  5  6  1  0  0  0  0
  6  7  1  0  0  0  0
  7  8  1  0  0  0  0
  8  9  1  0  0  0  0
  9 10  1  0  0  0  0
 10 11  1  0  0  0  0
 11 12  1  0  0  0  0
 12 13  1  0  0  0  0
 13 14  1  0  0  0  0
M  END
>  <CHROM.1>
75.97155479,-67.17119581,-89.05166936,-85.29055718,-172.31642998,89.79722020
173.55629685,169.66716456,151.13064243,177.00619554,70.75834514,1.37011032
-2.72168129,10.18510264,0.57530450,0.66368121,-2.28020634

>  <Name>
ligand

>  <RI>
0

>  <Rbt.Current_Directory>
/home/itssahil/PROJECTS/Mol_Feturizer/New_Systems/rnas/1FUF

>  <Rbt.Executable>
rbdock ($Id: //depot/dev/client3/rdock/2013.1/src/exe/rbdock.cxx#4 $)

>  <Rbt.Library>
libRbt.so (2013.1, Build901 2013/11/27)

>  <Rbt.Parameter_File>
/export/apps/rDock/src/rDock_2013.1_src/data/scripts/dock_solv.prm

>  <Rbt.Receptor>
prm/blind_docking_80.prm

>  <SCORE>
1.26283

>  <SCORE.INTER>
-0.953972

>  <SCORE.INTER.CONST>
1

>  <SCORE.INTER.POLAR>
0

>  <SCORE.INTER.ROT>
11

>  <SCORE.INTER.SOLV>
18.8756

>  <SCORE.INTER.VDW>
-17.8612

>  <SCORE.INTER.norm>
-0.0681409

>  <SCORE.INTRA>
2.2168

>  <SCORE.INTRA.DIHEDRAL>
-3.93633

>  <SCORE.INTRA.DIHEDRAL.0>
10.5765

>  <SCORE.INTRA.POLAR>
0

>  <SCORE.INTRA.POLAR.0>
0

>  <SCORE.INTRA.REPUL>
0

>  <SCORE.INTRA.REPUL.0>
0

>  <SCORE.INTRA.SOLV>
4.41915

>  <SCORE.INTRA.SOLV.lig_0>
-50.1861

>  <SCORE.INTRA.VDW>
1.97539

>  <SCORE.INTRA.VDW.0>
-1.36671

>  <SCORE.INTRA.norm>
0.158343

>  <SCORE.RESTR>
0

>  <SCORE.RESTR.CAVITY>
0

>  <SCORE.RESTR.norm>
0

>  <SCORE.SYSTEM>
0

>  <SCORE.SYSTEM.CONST>
0

>  <SCORE.SYSTEM.DIHEDRAL>
0

>  <SCORE.SYSTEM.SOLV>
0

>  <SCORE.SYSTEM.norm>
0

>  <SCORE.heavy>
14

>  <SCORE.norm>
0.0902021

>  <RMSD>
2.795

$$$$
ligand
 OpenBabel11021811393D
libRbt.so/2013.1/901 2013/11/27
 14 13  0  0  0  0  0  0  0  0999 V2000
   -4.3804    1.4048    9.3902 N   0  0  0  0  0  0  0  0  0  0  0  0
   -2.9641    1.6278    9.9216 C   0  0  0  0  0  0  0  0  0  0  0  0
   -2.4034    0.2695   10.1393 C   0  0  0  0  0  0  0  0  0  0  0  0
   -0.9667    0.2516   10.6355 C   0  0  0  0  0  0  0  0  0  0  0  0
   -0.5064   -1.1561   10.7728 N   0  0  0  0  0  0  0  0  0  0  0  0
    0.7547   -1.1968   11.6547 C   0  0  0  0  0  0  0  0  0  0  0  0
    1.8634   -1.7348   10.6283 C   0  0  0  0  0  0  0  0  0  0  0  0
    1.7763   -3.0400   10.5416 C   0  0  0  0  0  0  0  0  0  0  0  0
    3.0529   -3.2515    9.5380 C   0  0  0  0  0  0  0  0  0  0  0  0
    3.0933   -4.8165    9.5617 N   0  0  0  0  0  0  0  0  0  0  0  0
    4.3204   -5.4282    8.7748 C   0  0  0  0  0  0  0  0  0  0  0  0
    4.3518   -7.0162    9.1556 C   0  0  0  0  0  0  0  0  0  0  0  0
    5.5981   -7.5157    8.4845 C   0  0  0  0  0  0  0  0  0  0  0  0
    5.5856   -9.0130    8.6847 N   0  0  0  0  0  0  0  0  0  0  0  0
  1  2  1  0  0  0  0
  2  3  1  0  0  0  0
  3  4  1  0  0  0  0
  4  5  1  0  0  0  0
  5  6  1  0  0  0  0
  6  7  1  0  0  0  0
  7  8  1  0  0  0  0
  8  9  1  0  0  0  0
  9 10  1  0  0  0  0
 10 11  1  0  0  0  0
 11 12  1  0  0  0  0
 12 13  1  0  0  0  0
 13 14  1  0  0  0  0
M  END
>  <CHROM.1>
178.29124511,-178.19495161,-163.10124633,-115.91755352,-81.59567297,-176.61384250
173.00578452,-174.94033830,169.26055363,-175.13323871,-173.97177575,1.36984421
-2.90088515,9.84890339,2.44640489,-0.48826149,0.67689675

>  <Name>
ligand

>  <RI>
0

>  <Rbt.Current_Directory>
/home/itssahil/PROJECTS/Mol_Feturizer/New_Systems/rnas/1FUF

>  <Rbt.Executable>
rbdock ($Id: //depot/dev/client3/rdock/2013.1/src/exe/rbdock.cxx#4 $)

>  <Rbt.Library>
libRbt.so (2013.1, Build901 2013/11/27)

>  <Rbt.Parameter_File>
/export/apps/rDock/src/rDock_2013.1_src/data/scripts/dock_solv.prm

>  <Rbt.Receptor>
prm/blind_docking_40.prm

>  <SCORE>
-4.54028

>  <SCORE.INTER>
-1.33958

>  <SCORE.INTER.CONST>
1

>  <SCORE.INTER.POLAR>
0

>  <SCORE.INTER.ROT>
11

>  <SCORE.INTER.SOLV>
17.63

>  <SCORE.INTER.VDW>
-17.703

>  <SCORE.INTER.norm>
-0.0956841

>  <SCORE.INTRA>
-3.2007

>  <SCORE.INTRA.DIHEDRAL>
-6.99276

>  <SCORE.INTRA.DIHEDRAL.0>
10.5765

>  <SCORE.INTRA.POLAR>
0

>  <SCORE.INTRA.POLAR.0>
0

>  <SCORE.INTRA.REPUL>
0

>  <SCORE.INTRA.REPUL.0>
0

>  <SCORE.INTRA.SOLV>
0.207326

>  <SCORE.INTRA.SOLV.lig_0>
-50.1861

>  <SCORE.INTRA.VDW>
0.192013

>  <SCORE.INTRA.VDW.0>
-1.36671

>  <SCORE.INTRA.norm>
-0.228622

>  <SCORE.RESTR>
0

>  <SCORE.RESTR.CAVITY>
0

>  <SCORE.RESTR.norm>
0

>  <SCORE.SYSTEM>
0

>  <SCORE.SYSTEM.CONST>
0

>  <SCORE.SYSTEM.DIHEDRAL>
0

>  <SCORE.SYSTEM.SOLV>
0

>  <SCORE.SYSTEM.norm>
0

>  <SCORE.heavy>
14

>  <SCORE.norm>
-0.324306

>  <RMSD>
2.798

$$$$
ligand
 OpenBabel11021811393D
libRbt.so/2013.1/901 2013/11/27
 14 13  0  0  0  0  0  0  0  0999 V2000
   -3.5155    2.4555    7.1825 N   0  0  0  0  0  0  0  0  0  0  0  0
   -2.4811    2.3323    8.3018 C   0  0  0  0  0  0  0  0  0  0  0  0
   -3.1020    1.4471    9.3204 C   0  0  0  0  0  0  0  0  0  0  0  0
   -2.2675    1.2456   10.5748 C   0  0  0  0  0  0  0  0  0  0  0  0
   -0.9378    0.6924   10.2031 N   0  0  0  0  0  0  0  0  0  0  0  0
   -0.7913   -0.7227   10.7912 C   0  0  0  0  0  0  0  0  0  0  0  0
    0.7408   -1.0644   10.4629 C   0  0  0  0  0  0  0  0  0  0  0  0
    0.9567   -2.3389   10.6811 C   0  0  0  0  0  0  0  0  0  0  0  0
    2.5265   -2.3504   10.2147 C   0  0  0  0  0  0  0  0  0  0  0  0
    2.6867   -3.8961   10.0231 N   0  0  0  0  0  0  0  0  0  0  0  0
    3.6516   -4.5665   11.0807 C   0  0  0  0  0  0  0  0  0  0  0  0
    3.4859   -6.1792   10.8811 C   0  0  0  0  0  0  0  0  0  0  0  0
    2.1404   -6.4726   11.4784 C   0  0  0  0  0  0  0  0  0  0  0  0
    1.1378   -6.0258   10.4406 N   0  0  0  0  0  0  0  0  0  0  0  0
  1  2  1  0  0  0  0
  2  3  1  0  0  0  0
  3  4  1  0  0  0  0
  4  5  1  0  0  0  0
  5  6  1  0  0  0  0
  6  7  1  0  0  0  0
  7  8  1  0  0  0  0
  8  9  1  0  0  0  0
  9 10  1  0  0  0  0
 10 11  1  0  0  0  0
 11 12  1  0  0  0  0
 12 13  1  0  0  0  0
 13 14  1  0  0  0  0
M  END
>  <CHROM.1>
-176.77478159,-57.39148273,-115.20294543,-172.75147414,-168.33805804,178.09955107
-162.89159662,-112.10758878,170.51188560,-73.67471114,77.51201819,0.30242331
-1.81745785,10.11714373,2.21830550,-0.24231642,-0.08618061

>  <Name>
ligand

>  <RI>
0

>  <Rbt.Current_Directory>
/home/itssahil/PROJECTS/Mol_Feturizer/New_Systems/rnas/1FUF

>  <Rbt.Executable>
rbdock ($Id: //depot/dev/client3/rdock/2013.1/src/exe/rbdock.cxx#4 $)

>  <Rbt.Library>
libRbt.so (2013.1, Build901 2013/11/27)

>  <Rbt.Parameter_File>
/export/apps/rDock/src/rDock_2013.1_src/data/scripts/dock_solv.prm

>  <Rbt.Receptor>
prm/pocket_docking_6.prm

>  <SCORE>
-2.50226

>  <SCORE.INTER>
-2.62453

>  <SCORE.INTER.CONST>
1

>  <SCORE.INTER.POLAR>
0

>  <SCORE.INTER.ROT>
11

>  <SCORE.INTER.SOLV>
20.1447

>  <SCORE.INTER.VDW>
-19.3979

>  <SCORE.INTER.norm>
-0.187467

>  <SCORE.INTRA>
0.122275

>  <SCORE.INTRA.DIHEDRAL>
-4.75749

>  <SCORE.INTRA.DIHEDRAL.0>
10.5765

>  <SCORE.INTRA.POLAR>
0

>  <SCORE.INTRA.POLAR.0>
0

>  <SCORE.INTRA.REPUL>
0

>  <SCORE.INTRA.REPUL.0>
0

>  <SCORE.INTRA.SOLV>
4.35696

>  <SCORE.INTRA.SOLV.lig_0>
-50.1861

>  <SCORE.INTRA.VDW>
0.32254

>  <SCORE.INTRA.VDW.0>
-1.36671

>  <SCORE.INTRA.norm>
0.00873396

>  <SCORE.RESTR>
0

>  <SCORE.RESTR.CAVITY>
0

>  <SCORE.RESTR.norm>
0

>  <SCORE.SYSTEM>
0

>  <SCORE.SYSTEM.CONST>
0

>  <SCORE.SYSTEM.DIHEDRAL>
0

>  <SCORE.SYSTEM.SOLV>
0

>  <SCORE.SYSTEM.norm>
0

>  <SCORE.heavy>
14

>  <SCORE.norm>
-0.178733

>  <RMSD>
2.821

$$$$
ligand
 OpenBabel11021811393D
libRbt.so/2013.1/901 2013/11/27
 14 13  0  0  0  0  0  0  0  0999 V2000
    0.9077   -7.3078   10.2303 N   0  0  0  0  0  0  0  0  0  0  0  0
    1.5044   -6.8562   11.5638 C   0  0  0  0  0  0  0  0  0  0  0  0
    2.8301   -6.2755   11.2290 C   0  0  0  0  0  0  0  0  0  0  0  0
    2.7773   -5.0808   10.2907 C   0  0  0  0  0  0  0  0  0  0  0  0
    1.9291   -4.0160   10.8899 N   0  0  0  0  0  0  0  0  0  0  0  0
    2.7164   -2.6935   10.9208 C   0  0  0  0  0  0  0  0  0  0  0  0
    1.6112   -1.6587   11.4497 C   0  0  0  0  0  0  0  0  0  0  0  0
    0.7151   -1.4655   10.5126 C   0  0  0  0  0  0  0  0  0  0  0  0
   -0.1731   -0.3532   11.3224 C   0  0  0  0  0  0  0  0  0  0  0  0
   -1.1783    0.0016   10.1756 N   0  0  0  0  0  0  0  0  0  0  0  0
   -2.0274    1.3041   10.4611 C   0  0  0  0  0  0  0  0  0  0  0  0
   -3.5839    0.8162   10.5455 C   0  0  0  0  0  0  0  0  0  0  0  0
   -3.9135    0.4407    9.1300 C   0  0  0  0  0  0  0  0  0  0  0  0
   -4.0067    1.7496    8.3819 N   0  0  0  0  0  0  0  0  0  0  0  0
  1  2  1  0  0  0  0
  2  3  1  0  0  0  0
  3  4  1  0  0  0  0
  4  5  1  0  0  0  0
  5  6  1  0  0  0  0
  6  7  1  0  0  0  0
  7  8  1  0  0  0  0
  8  9  1  0  0  0  0
  9 10  1  0  0  0  0
 10 11  1  0  0  0  0
 11 12  1  0  0  0  0
 12 13  1  0  0  0  0
 13 14  1  0  0  0  0
M  END
>  <CHROM.1>
60.56974767,57.67241129,126.93585388,174.61673731,-70.61938334,-177.35376210
174.89331722,-166.95425527,-116.72754250,-69.76146836,-72.13132727,0.00799148
-2.24243442,10.50761905,0.88053430,0.34028601,-3.04952256

>  <Name>
ligand

>  <RI>
0

>  <Rbt.Current_Directory>
/home/itssahil/PROJECTS/Mol_Feturizer/New_Systems/rnas/1FUF

>  <Rbt.Executable>
rbdock ($Id: //depot/dev/client3/rdock/2013.1/src/exe/rbdock.cxx#4 $)

>  <Rbt.Library>
libRbt.so (2013.1, Build901 2013/11/27)

>  <Rbt.Parameter_File>
/export/apps/rDock/src/rDock_2013.1_src/data/scripts/dock_solv.prm

>  <Rbt.Receptor>
prm/pocket_docking_6.prm

>  <SCORE>
-2.99163

>  <SCORE.INTER>
-2.86391

>  <SCORE.INTER.CONST>
1

>  <SCORE.INTER.POLAR>
0

>  <SCORE.INTER.ROT>
11

>  <SCORE.INTER.SOLV>
23.9721

>  <SCORE.INTER.VDW>
-20.8333

>  <SCORE.INTER.norm>
-0.204565

>  <SCORE.INTRA>
-0.127717

>  <SCORE.INTRA.DIHEDRAL>
-6.61018

>  <SCORE.INTRA.DIHEDRAL.0>
10.5765

>  <SCORE.INTRA.POLAR>
0

>  <SCORE.INTRA.POLAR.0>
0

>  <SCORE.INTRA.REPUL>
0

>  <SCORE.INTRA.REPUL.0>
0

>  <SCORE.INTRA.SOLV>
4.09052

>  <SCORE.INTRA.SOLV.lig_0>
-50.1861

>  <SCORE.INTRA.VDW>
1.13211

>  <SCORE.INTRA.VDW.0>
-1.36671

>  <SCORE.INTRA.norm>
-0.00912266

>  <SCORE.RESTR>
0

>  <SCORE.RESTR.CAVITY>
0

>  <SCORE.RESTR.norm>
0

>  <SCORE.SYSTEM>
0

>  <SCORE.SYSTEM.CONST>
0

>  <SCORE.SYSTEM.DIHEDRAL>
0

>  <SCORE.SYSTEM.SOLV>
0

>  <SCORE.SYSTEM.norm>
0

>  <SCORE.heavy>
14

>  <SCORE.norm>
-0.213688

>  <RMSD>
2.866

$$$$
ligand
 OpenBabel11021811393D
libRbt.so/2013.1/901 2013/11/27
 14 13  0  0  0  0  0  0  0  0999 V2000
   -2.9428    1.8093    8.4759 N   0  0  0  0  0  0  0  0  0  0  0  0
   -3.2149    1.6397    9.9710 C   0  0  0  0  0  0  0  0  0  0  0  0
   -2.5767    0.3521   10.3470 C   0  0  0  0  0  0  0  0  0  0  0  0
   -1.0569    0.3713   10.3281 C   0  0  0  0  0  0  0  0  0  0  0  0
   -0.5376   -0.9288   10.8303 N   0  0  0  0  0  0  0  0  0  0  0  0
    0.9500   -1.0624   10.4574 C   0  0  0  0  0  0  0  0  0  0  0  0
    1.2302   -2.6140   10.7503 C   0  0  0  0  0  0  0  0  0  0  0  0
    2.4501   -2.9125   10.3742 C   0  0  0  0  0  0  0  0  0  0  0  0
    2.3930   -4.4985   10.7780 C   0  0  0  0  0  0  0  0  0  0  0  0
    3.7703   -4.9289   10.1703 N   0  0  0  0  0  0  0  0  0  0  0  0
    3.9485   -6.4956   10.0576 C   0  0  0  0  0  0  0  0  0  0  0  0
    5.2367   -6.7323    9.0817 C   0  0  0  0  0  0  0  0  0  0  0  0
    5.3072   -8.2255    8.9457 C   0  0  0  0  0  0  0  0  0  0  0  0
    6.5200   -8.4904    8.0850 N   0  0  0  0  0  0  0  0  0  0  0  0
  1  2  1  0  0  0  0
  2  3  1  0  0  0  0
  3  4  1  0  0  0  0
  4  5  1  0  0  0  0
  5  6  1  0  0  0  0
  6  7  1  0  0  0  0
  7  8  1  0  0  0  0
  8  9  1  0  0  0  0
  9 10  1  0  0  0  0
 10 11  1  0  0  0  0
 11 12  1  0  0  0  0
 12 13  1  0  0  0  0
 13 14  1  0  0  0  0
M  END
>  <CHROM.1>
69.81336293,175.23674392,164.60984574,-167.06025854,174.97201622,-179.25799097
173.02870761,-166.43266569,166.09859273,-176.74655347,-178.09667619,1.53400738
-3.05114210,9.90396114,2.92465819,-0.81497359,1.37035394

>  <Name>
ligand

>  <RI>
0

>  <Rbt.Current_Directory>
/home/itssahil/PROJECTS/Mol_Feturizer/New_Systems/rnas/1FUF

>  <Rbt.Executable>
rbdock ($Id: //depot/dev/client3/rdock/2013.1/src/exe/rbdock.cxx#4 $)

>  <Rbt.Library>
libRbt.so (2013.1, Build901 2013/11/27)

>  <Rbt.Parameter_File>
/export/apps/rDock/src/rDock_2013.1_src/data/scripts/dock_solv.prm

>  <Rbt.Receptor>
prm/pocket_docking_5.prm

>  <SCORE>
-6.15373

>  <SCORE.INTER>
-2.004

>  <SCORE.INTER.CONST>
1

>  <SCORE.INTER.POLAR>
0

>  <SCORE.INTER.ROT>
11

>  <SCORE.INTER.SOLV>
15.0662

>  <SCORE.INTER.VDW>
-17.2914

>  <SCORE.INTER.norm>
-0.143143

>  <SCORE.INTRA>
-4.14972

>  <SCORE.INTRA.DIHEDRAL>
-9.1876

>  <SCORE.INTRA.DIHEDRAL.0>
10.5765

>  <SCORE.INTRA.POLAR>
0

>  <SCORE.INTRA.POLAR.0>
0

>  <SCORE.INTRA.REPUL>
0

>  <SCORE.INTRA.REPUL.0>
0

>  <SCORE.INTRA.SOLV>
0.614064

>  <SCORE.INTRA.SOLV.lig_0>
-50.1861

>  <SCORE.INTRA.VDW>
0.137045

>  <SCORE.INTRA.VDW.0>
-1.36671

>  <SCORE.INTRA.norm>
-0.296409

>  <SCORE.RESTR>
0

>  <SCORE.RESTR.CAVITY>
0

>  <SCORE.RESTR.norm>
0

>  <SCORE.SYSTEM>
0

>  <SCORE.SYSTEM.CONST>
0

>  <SCORE.SYSTEM.DIHEDRAL>
0

>  <SCORE.SYSTEM.SOLV>
0

>  <SCORE.SYSTEM.norm>
0

>  <SCORE.heavy>
14

>  <SCORE.norm>
-0.439552

>  <RMSD>
2.867

$$$$
ligand
 OpenBabel11021811393D
libRbt.so/2013.1/901 2013/11/27
 14 13  0  0  0  0  0  0  0  0999 V2000
    1.2064   -7.5648   11.3972 N   0  0  0  0  0  0  0  0  0  0  0  0
    1.8388   -6.1747   11.4736 C   0  0  0  0  0  0  0  0  0  0  0  0
    3.1921   -6.3211   10.8787 C   0  0  0  0  0  0  0  0  0  0  0  0
    4.0569   -5.0738   10.9624 C   0  0  0  0  0  0  0  0  0  0  0  0
    3.4109   -3.9699   10.2032 N   0  0  0  0  0  0  0  0  0  0  0  0
    2.6495   -3.0560   11.1803 C   0  0  0  0  0  0  0  0  0  0  0  0
    2.1155   -1.8979   10.2079 C   0  0  0  0  0  0  0  0  0  0  0  0
    1.3922   -1.0509   10.8993 C   0  0  0  0  0  0  0  0  0  0  0  0
   -0.0608   -1.7380   10.5853 C   0  0  0  0  0  0  0  0  0  0  0  0
   -0.9683   -0.6299   11.2178 N   0  0  0  0  0  0  0  0  0  0  0  0
   -1.4237    0.4779   10.1861 C   0  0  0  0  0  0  0  0  0  0  0  0
   -3.0565    0.4374   10.1749 C   0  0  0  0  0  0  0  0  0  0  0  0
   -3.4274    1.4374    9.1187 C   0  0  0  0  0  0  0  0  0  0  0  0
   -4.9363    1.5033    9.1446 N   0  0  0  0  0  0  0  0  0  0  0  0
  1  2  1  0  0  0  0
  2  3  1  0  0  0  0
  3  4  1  0  0  0  0
  4  5  1  0  0  0  0
  5  6  1  0  0  0  0
  6  7  1  0  0  0  0
  7  8  1  0  0  0  0
  8  9  1  0  0  0  0
  9 10  1  0  0  0  0
 10 11  1  0  0  0  0
 11 12  1  0  0  0  0
 12 13  1  0  0  0  0
 13 14  1  0  0  0  0
M  END
>  <CHROM.1>
-174.83745526,-61.96606398,98.40591358,176.43643224,177.70060177,-94.27867594
-171.96803645,91.94723580,120.64617306,-176.35119870,-176.07714885,0.42812238
-2.40139635,10.54502623,0.83910357,0.06258897,3.00214472

>  <Name>
ligand

>  <RI>
0

>  <Rbt.Current_Directory>
/home/itssahil/PROJECTS/Mol_Feturizer/New_Systems/rnas/1FUF

>  <Rbt.Executable>
rbdock ($Id: //depot/dev/client3/rdock/2013.1/src/exe/rbdock.cxx#4 $)

>  <Rbt.Library>
libRbt.so (2013.1, Build901 2013/11/27)

>  <Rbt.Parameter_File>
/export/apps/rDock/src/rDock_2013.1_src/data/scripts/dock_solv.prm

>  <Rbt.Receptor>
prm/pocket_docking_6.prm

>  <SCORE>
-2.14287

>  <SCORE.INTER>
-1.67062

>  <SCORE.INTER.CONST>
1

>  <SCORE.INTER.POLAR>
0

>  <SCORE.INTER.ROT>
11

>  <SCORE.INTER.SOLV>
22.6089

>  <SCORE.INTER.VDW>
-19.5834

>  <SCORE.INTER.norm>
-0.11933

>  <SCORE.INTRA>
-0.47225

>  <SCORE.INTRA.DIHEDRAL>
-3.62634

>  <SCORE.INTRA.DIHEDRAL.0>
10.5765

>  <SCORE.INTRA.POLAR>
0

>  <SCORE.INTRA.POLAR.0>
0

>  <SCORE.INTRA.REPUL>
0

>  <SCORE.INTRA.REPUL.0>
0

>  <SCORE.INTRA.SOLV>
0.528654

>  <SCORE.INTRA.SOLV.lig_0>
-50.1861

>  <SCORE.INTRA.VDW>
1.07659

>  <SCORE.INTRA.VDW.0>
-1.36671

>  <SCORE.INTRA.norm>
-0.0337321

>  <SCORE.RESTR>
0

>  <SCORE.RESTR.CAVITY>
0

>  <SCORE.RESTR.norm>
0

>  <SCORE.SYSTEM>
0

>  <SCORE.SYSTEM.CONST>
0

>  <SCORE.SYSTEM.DIHEDRAL>
0

>  <SCORE.SYSTEM.SOLV>
0

>  <SCORE.SYSTEM.norm>
0

>  <SCORE.heavy>
14

>  <SCORE.norm>
-0.153062

>  <RMSD>
2.885

$$$$
ligand
 OpenBabel11021811393D
libRbt.so/2013.1/901 2013/11/27
 14 13  0  0  0  0  0  0  0  0999 V2000
    3.7001   -3.9313    9.8262 N   0  0  0  0  0  0  0  0  0  0  0  0
    3.2622   -3.8304   11.2878 C   0  0  0  0  0  0  0  0  0  0  0  0
    2.6758   -2.4734   11.4336 C   0  0  0  0  0  0  0  0  0  0  0  0
    1.3222   -2.2953   10.7652 C   0  0  0  0  0  0  0  0  0  0  0  0
    0.8186   -0.9196   11.0223 N   0  0  0  0  0  0  0  0  0  0  0  0
   -0.7203   -0.9237   10.9818 C   0  0  0  0  0  0  0  0  0  0  0  0
   -1.0323    0.3077   10.0029 C   0  0  0  0  0  0  0  0  0  0  0  0
   -2.3298    0.4321    9.8633 C   0  0  0  0  0  0  0  0  0  0  0  0
   -2.2889    1.6192    8.7360 C   0  0  0  0  0  0  0  0  0  0  0  0
   -3.8150    1.6429    8.3873 N   0  0  0  0  0  0  0  0  0  0  0  0
   -4.1419    2.3942    7.0353 C   0  0  0  0  0  0  0  0  0  0  0  0
   -4.9232    3.7642    7.4602 C   0  0  0  0  0  0  0  0  0  0  0  0
   -6.2469    3.2726    7.9692 C   0  0  0  0  0  0  0  0  0  0  0  0
   -7.0290    2.8852    6.7363 N   0  0  0  0  0  0  0  0  0  0  0  0
  1  2  1  0  0  0  0
  2  3  1  0  0  0  0
  3  4  1  0  0  0  0
  4  5  1  0  0  0  0
  5  6  1  0  0  0  0
  6  7  1  0  0  0  0
  7  8  1  0  0  0  0
  8  9  1  0  0  0  0
  9 10  1  0  0  0  0
 10 11  1  0  0  0  0
 11 12  1  0  0  0  0
 12 13  1  0  0  0  0
 13 14  1  0  0  0  0
M  END
>  <CHROM.1>
72.15847372,177.91997663,-152.76703351,-130.67743947,179.82834110,-174.60643871
171.90620812,-163.89060213,-110.66822956,-69.44742440,-75.05249706,-1.48198244
0.13896561,9.39353893,-0.26640833,0.65844756,-1.67862789

>  <Name>
ligand

>  <RI>
0

>  <Rbt.Current_Directory>
/home/itssahil/PROJECTS/Mol_Feturizer/New_Systems/rnas/1FUF

>  <Rbt.Executable>
rbdock ($Id: //depot/dev/client3/rdock/2013.1/src/exe/rbdock.cxx#4 $)

>  <Rbt.Library>
libRbt.so (2013.1, Build901 2013/11/27)

>  <Rbt.Parameter_File>
/export/apps/rDock/src/rDock_2013.1_src/data/scripts/dock_solv.prm

>  <Rbt.Receptor>
prm/pocket_docking_6.prm

>  <SCORE>
-2.1304

>  <SCORE.INTER>
-0.941725

>  <SCORE.INTER.CONST>
1

>  <SCORE.INTER.POLAR>
0

>  <SCORE.INTER.ROT>
11

>  <SCORE.INTER.SOLV>
15.9696

>  <SCORE.INTER.VDW>
-16.8843

>  <SCORE.INTER.norm>
-0.0672661

>  <SCORE.INTRA>
-1.18867

>  <SCORE.INTRA.DIHEDRAL>
-5.55648

>  <SCORE.INTRA.DIHEDRAL.0>
10.5765

>  <SCORE.INTRA.POLAR>
0

>  <SCORE.INTRA.POLAR.0>
0

>  <SCORE.INTRA.REPUL>
0

>  <SCORE.INTRA.REPUL.0>
0

>  <SCORE.INTRA.SOLV>
2.3188

>  <SCORE.INTRA.SOLV.lig_0>
-50.1861

>  <SCORE.INTRA.VDW>
0.430168

>  <SCORE.INTRA.VDW.0>
-1.36671

>  <SCORE.INTRA.norm>
-0.0849053

>  <SCORE.RESTR>
0

>  <SCORE.RESTR.CAVITY>
0

>  <SCORE.RESTR.norm>
0

>  <SCORE.SYSTEM>
0

>  <SCORE.SYSTEM.CONST>
0

>  <SCORE.SYSTEM.DIHEDRAL>
0

>  <SCORE.SYSTEM.SOLV>
0

>  <SCORE.SYSTEM.norm>
0

>  <SCORE.heavy>
14

>  <SCORE.norm>
-0.152171

>  <RMSD>
2.889

$$$$
ligand
 OpenBabel11021811393D
libRbt.so/2013.1/901 2013/11/27
 14 13  0  0  0  0  0  0  0  0999 V2000
   -3.9010    1.7811    8.6876 N   0  0  0  0  0  0  0  0  0  0  0  0
   -3.1314    1.4107    9.9558 C   0  0  0  0  0  0  0  0  0  0  0  0
   -1.9273    0.6764    9.4892 C   0  0  0  0  0  0  0  0  0  0  0  0
   -1.0197    0.1796   10.6028 C   0  0  0  0  0  0  0  0  0  0  0  0
    0.1734   -0.4836   10.0123 N   0  0  0  0  0  0  0  0  0  0  0  0
    0.8728   -1.3303   11.0911 C   0  0  0  0  0  0  0  0  0  0  0  0
    2.0877   -1.9804   10.2705 C   0  0  0  0  0  0  0  0  0  0  0  0
    2.7065   -2.8514   11.0300 C   0  0  0  0  0  0  0  0  0  0  0  0
    3.7881   -3.3517    9.9068 C   0  0  0  0  0  0  0  0  0  0  0  0
    4.3763   -4.5692   10.6962 N   0  0  0  0  0  0  0  0  0  0  0  0
    5.0093   -5.6788    9.7649 C   0  0  0  0  0  0  0  0  0  0  0  0
    3.7543   -6.5501    9.1873 C   0  0  0  0  0  0  0  0  0  0  0  0
    4.3929   -7.4680    8.1858 C   0  0  0  0  0  0  0  0  0  0  0  0
    5.3109   -8.3582    8.9899 N   0  0  0  0  0  0  0  0  0  0  0  0
  1  2  1  0  0  0  0
  2  3  1  0  0  0  0
  3  4  1  0  0  0  0
  4  5  1  0  0  0  0
  5  6  1  0  0  0  0
  6  7  1  0  0  0  0
  7  8  1  0  0  0  0
  8  9  1  0  0  0  0
  9 10  1  0  0  0  0
 10 11  1  0  0  0  0
 11 12  1  0  0  0  0
 12 13  1  0  0  0  0
 13 14  1  0  0  0  0
M  END
>  <CHROM.1>
-178.71989691,-177.56647183,-163.73505564,178.70149171,-173.43478312,177.41554776
-170.45232632,155.65359135,-79.41223659,173.18620598,64.54672424,1.60668268
-2.75522209,9.84797916,2.47665387,-0.53404548,0.62990692

>  <Name>
ligand

>  <RI>
0

>  <Rbt.Current_Directory>
/home/itssahil/PROJECTS/Mol_Feturizer/New_Systems/rnas/1FUF

>  <Rbt.Executable>
rbdock ($Id: //depot/dev/client3/rdock/2013.1/src/exe/rbdock.cxx#4 $)

>  <Rbt.Library>
libRbt.so (2013.1, Build901 2013/11/27)

>  <Rbt.Parameter_File>
/export/apps/rDock/src/rDock_2013.1_src/data/scripts/dock_solv.prm

>  <Rbt.Receptor>
prm/pocket_docking_5.prm

>  <SCORE>
-5.96869

>  <SCORE.INTER>
-2.64735

>  <SCORE.INTER.CONST>
1

>  <SCORE.INTER.POLAR>
0

>  <SCORE.INTER.ROT>
11

>  <SCORE.INTER.SOLV>
17.9882

>  <SCORE.INTER.VDW>
-18.6943

>  <SCORE.INTER.norm>
-0.189096

>  <SCORE.INTRA>
-3.32134

>  <SCORE.INTRA.DIHEDRAL>
-8.8538

>  <SCORE.INTRA.DIHEDRAL.0>
10.5765

>  <SCORE.INTRA.POLAR>
0

>  <SCORE.INTRA.POLAR.0>
0

>  <SCORE.INTRA.REPUL>
0

>  <SCORE.INTRA.REPUL.0>
0

>  <SCORE.INTRA.SOLV>
0.88078

>  <SCORE.INTRA.SOLV.lig_0>
-50.1861

>  <SCORE.INTRA.VDW>
0.665172

>  <SCORE.INTRA.VDW.0>
-1.36671

>  <SCORE.INTRA.norm>
-0.237238

>  <SCORE.RESTR>
0

>  <SCORE.RESTR.CAVITY>
0

>  <SCORE.RESTR.norm>
0

>  <SCORE.SYSTEM>
0

>  <SCORE.SYSTEM.CONST>
0

>  <SCORE.SYSTEM.DIHEDRAL>
0

>  <SCORE.SYSTEM.SOLV>
0

>  <SCORE.SYSTEM.norm>
0

>  <SCORE.heavy>
14

>  <SCORE.norm>
-0.426335

>  <RMSD>
2.904

$$$$
ligand
 OpenBabel11021811393D
libRbt.so/2013.1/901 2013/11/27
 14 13  0  0  0  0  0  0  0  0999 V2000
   -7.6217    3.6071    7.1314 N   0  0  0  0  0  0  0  0  0  0  0  0
   -6.3807    3.4912    8.0171 C   0  0  0  0  0  0  0  0  0  0  0  0
   -5.2780    3.0927    7.1050 C   0  0  0  0  0  0  0  0  0  0  0  0
   -3.9584    2.7996    7.8002 C   0  0  0  0  0  0  0  0  0  0  0  0
   -4.1257    1.6380    8.7139 N   0  0  0  0  0  0  0  0  0  0  0  0
   -3.1818    1.7970    9.9195 C   0  0  0  0  0  0  0  0  0  0  0  0
   -2.0393    0.7197    9.5941 C   0  0  0  0  0  0  0  0  0  0  0  0
   -1.1461    0.7321   10.5537 C   0  0  0  0  0  0  0  0  0  0  0  0
   -0.1720   -0.4241    9.9246 C   0  0  0  0  0  0  0  0  0  0  0  0
    0.9092   -0.4396   11.0569 N   0  0  0  0  0  0  0  0  0  0  0  0
    1.3696   -1.8944   11.4701 C   0  0  0  0  0  0  0  0  0  0  0  0
    2.5174   -2.3258   10.3911 C   0  0  0  0  0  0  0  0  0  0  0  0
    2.9061   -3.7098   10.8233 C   0  0  0  0  0  0  0  0  0  0  0  0
    4.0134   -4.1245    9.8832 N   0  0  0  0  0  0  0  0  0  0  0  0
  1  2  1  0  0  0  0
  2  3  1  0  0  0  0
  3  4  1  0  0  0  0
  4  5  1  0  0  0  0
  5  6  1  0  0  0  0
  6  7  1  0  0  0  0
  7  8  1  0  0  0  0
  8  9  1  0  0  0  0
  9 10  1  0  0  0  0
 10 11  1  0  0  0  0
 11 12  1  0  0  0  0
 12 13  1  0  0  0  0
 13 14  1  0  0  0  0
M  END
>  <CHROM.1>
-174.92646264,62.95482392,-148.70024227,-105.76451742,-179.70681946,-179.75831557
-179.73752383,137.25972927,83.50349937,-179.54647243,-177.60996097,-1.58480164
0.35428866,9.45610913,-3.11611537,-0.66260088,1.16110642

>  <Name>
ligand

>  <RI>
0

>  <Rbt.Current_Directory>
/home/itssahil/PROJECTS/Mol_Feturizer/New_Systems/rnas/1FUF

>  <Rbt.Executable>
rbdock ($Id: //depot/dev/client3/rdock/2013.1/src/exe/rbdock.cxx#4 $)

>  <Rbt.Library>
libRbt.so (2013.1, Build901 2013/11/27)

>  <Rbt.Parameter_File>
/export/apps/rDock/src/rDock_2013.1_src/data/scripts/dock_solv.prm

>  <Rbt.Receptor>
prm/blind_docking_40.prm

>  <SCORE>
-4.79988

>  <SCORE.INTER>
-1.50097

>  <SCORE.INTER.CONST>
1

>  <SCORE.INTER.POLAR>
0

>  <SCORE.INTER.ROT>
11

>  <SCORE.INTER.SOLV>
14.8523

>  <SCORE.INTER.VDW>
-16.8847

>  <SCORE.INTER.norm>
-0.107212

>  <SCORE.INTRA>
-3.2989

>  <SCORE.INTRA.DIHEDRAL>
-7.37076

>  <SCORE.INTRA.DIHEDRAL.0>
10.5765

>  <SCORE.INTRA.POLAR>
0

>  <SCORE.INTRA.POLAR.0>
0

>  <SCORE.INTRA.REPUL>
0

>  <SCORE.INTRA.REPUL.0>
0

>  <SCORE.INTRA.SOLV>
0.278722

>  <SCORE.INTRA.SOLV.lig_0>
-50.1861

>  <SCORE.INTRA.VDW>
0.247113

>  <SCORE.INTRA.VDW.0>
-1.36671

>  <SCORE.INTRA.norm>
-0.235636

>  <SCORE.RESTR>
0

>  <SCORE.RESTR.CAVITY>
0

>  <SCORE.RESTR.norm>
0

>  <SCORE.SYSTEM>
0

>  <SCORE.SYSTEM.CONST>
0

>  <SCORE.SYSTEM.DIHEDRAL>
0

>  <SCORE.SYSTEM.SOLV>
0

>  <SCORE.SYSTEM.norm>
0

>  <SCORE.heavy>
14

>  <SCORE.norm>
-0.342848

>  <RMSD>
2.918

$$$$
ligand
 OpenBabel11021811393D
libRbt.so/2013.1/901 2013/11/27
 14 13  0  0  0  0  0  0  0  0999 V2000
   -8.2889    2.6475    9.1619 N   0  0  0  0  0  0  0  0  0  0  0  0
   -7.3355    3.7631    8.7325 C   0  0  0  0  0  0  0  0  0  0  0  0
   -6.0469    3.0892    8.4293 C   0  0  0  0  0  0  0  0  0  0  0  0
   -5.3268    2.5276    9.6445 C   0  0  0  0  0  0  0  0  0  0  0  0
   -4.1072    1.7980    9.2057 N   0  0  0  0  0  0  0  0  0  0  0  0
   -3.2036    1.5353   10.4241 C   0  0  0  0  0  0  0  0  0  0  0  0
   -2.0255    0.6559    9.7833 C   0  0  0  0  0  0  0  0  0  0  0  0
   -1.0769    0.4889   10.6726 C   0  0  0  0  0  0  0  0  0  0  0  0
   -0.0698   -0.3809    9.7182 C   0  0  0  0  0  0  0  0  0  0  0  0
    1.1376   -0.4834   10.7098 N   0  0  0  0  0  0  0  0  0  0  0  0
    1.1794   -1.8431   11.5150 C   0  0  0  0  0  0  0  0  0  0  0  0
    1.4480   -3.0131   10.4074 C   0  0  0  0  0  0  0  0  0  0  0  0
    2.8792   -2.7999   10.0084 C   0  0  0  0  0  0  0  0  0  0  0  0
    3.6981   -3.3623   11.1465 N   0  0  0  0  0  0  0  0  0  0  0  0
  1  2  1  0  0  0  0
  2  3  1  0  0  0  0
  3  4  1  0  0  0  0
  4  5  1  0  0  0  0
  5  6  1  0  0  0  0
  6  7  1  0  0  0  0
  7  8  1  0  0  0  0
  8  9  1  0  0  0  0
  9 10  1  0  0  0  0
 10 11  1  0  0  0  0
 11 12  1  0  0  0  0
 12 13  1  0  0  0  0
 13 14  1  0  0  0  0
M  END
>  <CHROM.1>
-69.31168229,176.01950798,166.05467449,175.68042286,172.14724420,-178.86533895
174.95931411,97.61995311,65.49566599,71.46397830,76.60698812,-1.93849710
0.33027272,9.96847441,2.65507157,-0.29797894,0.20512946

>  <Name>
ligand

>  <RI>
0

>  <Rbt.Current_Directory>
/home/itssahil/PROJECTS/Mol_Feturizer/New_Systems/rnas/1FUF

>  <Rbt.Executable>
rbdock ($Id: //depot/dev/client3/rdock/2013.1/src/exe/rbdock.cxx#4 $)

>  <Rbt.Library>
libRbt.so (2013.1, Build901 2013/11/27)

>  <Rbt.Parameter_File>
/export/apps/rDock/src/rDock_2013.1_src/data/scripts/dock_solv.prm

>  <Rbt.Receptor>
prm/blind_docking_20.prm

>  <SCORE>
-0.366895

>  <SCORE.INTER>
1.21787

>  <SCORE.INTER.CONST>
1

>  <SCORE.INTER.POLAR>
0

>  <SCORE.INTER.ROT>
11

>  <SCORE.INTER.SOLV>
17.6904

>  <SCORE.INTER.VDW>
-16.0182

>  <SCORE.INTER.norm>
0.0869909

>  <SCORE.INTRA>
-1.58477

>  <SCORE.INTRA.DIHEDRAL>
-7.37636

>  <SCORE.INTRA.DIHEDRAL.0>
10.5765

>  <SCORE.INTRA.POLAR>
0

>  <SCORE.INTRA.POLAR.0>
0

>  <SCORE.INTRA.REPUL>
0

>  <SCORE.INTRA.REPUL.0>
0

>  <SCORE.INTRA.SOLV>
2.3411

>  <SCORE.INTRA.SOLV.lig_0>
-50.1861

>  <SCORE.INTRA.VDW>
0.932862

>  <SCORE.INTRA.VDW.0>
-1.36671

>  <SCORE.INTRA.norm>
-0.113198

>  <SCORE.RESTR>
0

>  <SCORE.RESTR.CAVITY>
0

>  <SCORE.RESTR.norm>
0

>  <SCORE.SYSTEM>
0

>  <SCORE.SYSTEM.CONST>
0

>  <SCORE.SYSTEM.DIHEDRAL>
0

>  <SCORE.SYSTEM.SOLV>
0

>  <SCORE.SYSTEM.norm>
0

>  <SCORE.heavy>
14

>  <SCORE.norm>
-0.0262068

>  <RMSD>
2.935

$$$$
ligand
 OpenBabel11021811393D
libRbt.so/2013.1/901 2013/11/27
 14 13  0  0  0  0  0  0  0  0999 V2000
   -7.2891    3.8486    8.4416 N   0  0  0  0  0  0  0  0  0  0  0  0
   -5.9293    3.3087    8.8859 C   0  0  0  0  0  0  0  0  0  0  0  0
   -5.0745    3.3380    7.6714 C   0  0  0  0  0  0  0  0  0  0  0  0
   -3.6931    2.7314    7.8567 C   0  0  0  0  0  0  0  0  0  0  0  0
   -3.8265    1.2988    8.2338 N   0  0  0  0  0  0  0  0  0  0  0  0
   -3.3594    1.1085    9.6883 C   0  0  0  0  0  0  0  0  0  0  0  0
   -1.8779    0.5272    9.4904 C   0  0  0  0  0  0  0  0  0  0  0  0
   -1.5292   -0.1437   10.5614 C   0  0  0  0  0  0  0  0  0  0  0  0
   -0.0106   -0.5120   10.0714 C   0  0  0  0  0  0  0  0  0  0  0  0
    0.3245   -1.5714   11.1744 N   0  0  0  0  0  0  0  0  0  0  0  0
    1.8658   -1.6631   11.5139 C   0  0  0  0  0  0  0  0  0  0  0  0
    2.2131   -3.2569   11.5988 C   0  0  0  0  0  0  0  0  0  0  0  0
    2.1386   -3.7111   10.1700 C   0  0  0  0  0  0  0  0  0  0  0  0
    2.6075   -5.1470   10.1835 N   0  0  0  0  0  0  0  0  0  0  0  0
  1  2  1  0  0  0  0
  2  3  1  0  0  0  0
  3  4  1  0  0  0  0
  4  5  1  0  0  0  0
  5  6  1  0  0  0  0
  6  7  1  0  0  0  0
  7  8  1  0  0  0  0
  8  9  1  0  0  0  0
  9 10  1  0  0  0  0
 10 11  1  0  0  0  0
 11 12  1  0  0  0  0
 12 13  1  0  0  0  0
 13 14  1  0  0  0  0
M  END
>  <CHROM.1>
-175.23026450,60.93260437,-111.75199511,-100.35738102,-156.56371374,-177.34674141
-168.13460298,-151.39324384,-135.85650544,71.28008182,173.73855026,-1.67414663
0.01129771,9.68160555,-3.06049793,0.73868774,-2.06441027

>  <Name>
ligand

>  <RI>
0

>  <Rbt.Current_Directory>
/home/itssahil/PROJECTS/Mol_Feturizer/New_Systems/rnas/1FUF

>  <Rbt.Executable>
rbdock ($Id: //depot/dev/client3/rdock/2013.1/src/exe/rbdock.cxx#4 $)

>  <Rbt.Library>
libRbt.so (2013.1, Build901 2013/11/27)

>  <Rbt.Parameter_File>
/export/apps/rDock/src/rDock_2013.1_src/data/scripts/dock_solv.prm

>  <Rbt.Receptor>
prm/blind_docking_40.prm

>  <SCORE>
-1.41127

>  <SCORE.INTER>
-0.187371

>  <SCORE.INTER.CONST>
1

>  <SCORE.INTER.POLAR>
0

>  <SCORE.INTER.ROT>
11

>  <SCORE.INTER.SOLV>
18.6642

>  <SCORE.INTER.VDW>
-17.2796

>  <SCORE.INTER.norm>
-0.0133836

>  <SCORE.INTRA>
-1.2239

>  <SCORE.INTRA.DIHEDRAL>
-3.88208

>  <SCORE.INTRA.DIHEDRAL.0>
10.5765

>  <SCORE.INTRA.POLAR>
0

>  <SCORE.INTRA.POLAR.0>
0

>  <SCORE.INTRA.REPUL>
0

>  <SCORE.INTRA.REPUL.0>
0

>  <SCORE.INTRA.SOLV>
0.743383

>  <SCORE.INTRA.SOLV.lig_0>
-50.1861

>  <SCORE.INTRA.VDW>
0.345447

>  <SCORE.INTRA.VDW.0>
-1.36671

>  <SCORE.INTRA.norm>
-0.0874216

>  <SCORE.RESTR>
0

>  <SCORE.RESTR.CAVITY>
0

>  <SCORE.RESTR.norm>
0

>  <SCORE.SYSTEM>
0

>  <SCORE.SYSTEM.CONST>
0

>  <SCORE.SYSTEM.DIHEDRAL>
0

>  <SCORE.SYSTEM.SOLV>
0

>  <SCORE.SYSTEM.norm>
0

>  <SCORE.heavy>
14

>  <SCORE.norm>
-0.100805

>  <RMSD>
2.966

$$$$
ligand
 OpenBabel11021811393D
libRbt.so/2013.1/901 2013/11/27
 14 13  0  0  0  0  0  0  0  0999 V2000
   -6.3993    3.3907    6.7861 N   0  0  0  0  0  0  0  0  0  0  0  0
   -5.0779    3.5975    7.5271 C   0  0  0  0  0  0  0  0  0  0  0  0
   -4.1065    2.6874    6.8677 C   0  0  0  0  0  0  0  0  0  0  0  0
   -2.7216    2.6810    7.4944 C   0  0  0  0  0  0  0  0  0  0  0  0
   -2.8256    2.2860    8.9246 N   0  0  0  0  0  0  0  0  0  0  0  0
   -3.2112    0.7985    9.0164 C   0  0  0  0  0  0  0  0  0  0  0  0
   -2.2840    0.2864   10.2206 C   0  0  0  0  0  0  0  0  0  0  0  0
   -1.0397    0.2235    9.8127 C   0  0  0  0  0  0  0  0  0  0  0  0
   -0.4579   -0.6076   11.0981 C   0  0  0  0  0  0  0  0  0  0  0  0
    1.0177   -0.7740   10.6017 N   0  0  0  0  0  0  0  0  0  0  0  0
    1.8198   -1.8976   11.3720 C   0  0  0  0  0  0  0  0  0  0  0  0
    1.8857   -3.1772   10.3589 C   0  0  0  0  0  0  0  0  0  0  0  0
    2.6503   -4.2065   11.1393 C   0  0  0  0  0  0  0  0  0  0  0  0
    2.7824   -5.3920   10.2126 N   0  0  0  0  0  0  0  0  0  0  0  0
  1  2  1  0  0  0  0
  2  3  1  0  0  0  0
  3  4  1  0  0  0  0
  4  5  1  0  0  0  0
  5  6  1  0  0  0  0
  6  7  1  0  0  0  0
  7  8  1  0  0  0  0
  8  9  1  0  0  0  0
  9 10  1  0  0  0  0
 10 11  1  0  0  0  0
 11 12  1  0  0  0  0
 12 13  1  0  0  0  0
 13 14  1  0  0  0  0
M  END
>  <CHROM.1>
-177.25991854,58.46169931,69.58707994,139.08172771,-72.41247769,-168.38409062
176.85025766,-162.88088638,103.65716197,-179.87464625,-177.78439757,-1.28337938
-0.00737485,9.38812002,2.91049927,-0.79282437,0.77659543

>  <Name>
ligand

>  <RI>
0

>  <Rbt.Current_Directory>
/home/itssahil/PROJECTS/Mol_Feturizer/New_Systems/rnas/1FUF

>  <Rbt.Executable>
rbdock ($Id: //depot/dev/client3/rdock/2013.1/src/exe/rbdock.cxx#4 $)

>  <Rbt.Library>
libRbt.so (2013.1, Build901 2013/11/27)

>  <Rbt.Parameter_File>
/export/apps/rDock/src/rDock_2013.1_src/data/scripts/dock_solv.prm

>  <Rbt.Receptor>
prm/pocket_docking_6.prm

>  <SCORE>
-4.13191

>  <SCORE.INTER>
-2.25716

>  <SCORE.INTER.CONST>
1

>  <SCORE.INTER.POLAR>
0

>  <SCORE.INTER.ROT>
11

>  <SCORE.INTER.SOLV>
18.4295

>  <SCORE.INTER.VDW>
-18.5813

>  <SCORE.INTER.norm>
-0.161226

>  <SCORE.INTRA>
-1.87475

>  <SCORE.INTRA.DIHEDRAL>
-7.15432

>  <SCORE.INTRA.DIHEDRAL.0>
10.5765

>  <SCORE.INTRA.POLAR>
0

>  <SCORE.INTRA.POLAR.0>
0

>  <SCORE.INTRA.REPUL>
0

>  <SCORE.INTRA.REPUL.0>
0

>  <SCORE.INTRA.SOLV>
0.694778

>  <SCORE.INTRA.SOLV.lig_0>
-50.1861

>  <SCORE.INTRA.VDW>
1.35502

>  <SCORE.INTRA.VDW.0>
-1.36671

>  <SCORE.INTRA.norm>
-0.133911

>  <SCORE.RESTR>
0

>  <SCORE.RESTR.CAVITY>
0

>  <SCORE.RESTR.norm>
0

>  <SCORE.SYSTEM>
0

>  <SCORE.SYSTEM.CONST>
0

>  <SCORE.SYSTEM.DIHEDRAL>
0

>  <SCORE.SYSTEM.SOLV>
0

>  <SCORE.SYSTEM.norm>
0

>  <SCORE.heavy>
14

>  <SCORE.norm>
-0.295136

>  <RMSD>
3.011

$$$$
ligand
 OpenBabel11021811393D
libRbt.so/2013.1/901 2013/11/27
 14 13  0  0  0  0  0  0  0  0999 V2000
    6.4033   -5.3966    6.3453 N   0  0  0  0  0  0  0  0  0  0  0  0
    5.7501   -5.3981    7.7278 C   0  0  0  0  0  0  0  0  0  0  0  0
    4.5019   -6.1891    7.5762 C   0  0  0  0  0  0  0  0  0  0  0  0
    3.7246   -6.3955    8.8660 C   0  0  0  0  0  0  0  0  0  0  0  0
    3.2913   -5.0770    9.4010 N   0  0  0  0  0  0  0  0  0  0  0  0
    2.5901   -5.2817   10.7561 C   0  0  0  0  0  0  0  0  0  0  0  0
    2.2741   -3.7734   11.2003 C   0  0  0  0  0  0  0  0  0  0  0  0
    1.3391   -3.2804   10.4248 C   0  0  0  0  0  0  0  0  0  0  0  0
    1.2824   -1.7953   11.1126 C   0  0  0  0  0  0  0  0  0  0  0  0
    0.1818   -1.1693   10.1917 N   0  0  0  0  0  0  0  0  0  0  0  0
   -0.5770    0.0493   10.8538 C   0  0  0  0  0  0  0  0  0  0  0  0
   -1.8212    0.4000    9.8554 C   0  0  0  0  0  0  0  0  0  0  0  0
   -2.5361    1.5158   10.5604 C   0  0  0  0  0  0  0  0  0  0  0  0
   -3.7408    1.8222    9.7021 N   0  0  0  0  0  0  0  0  0  0  0  0
  1  2  1  0  0  0  0
  2  3  1  0  0  0  0
  3  4  1  0  0  0  0
  4  5  1  0  0  0  0
  5  6  1  0  0  0  0
  6  7  1  0  0  0  0
  7  8  1  0  0  0  0
  8  9  1  0  0  0  0
  9 10  1  0  0  0  0
 10 11  1  0  0  0  0
 11 12  1  0  0  0  0
 12 13  1  0  0  0  0
 13 14  1  0  0  0  0
M  END
>  <CHROM.1>
176.39483279,61.99317097,-176.08966286,177.11496574,70.05977308,-179.30191285
179.26964436,157.00885374,-171.18075161,177.58892849,-177.09163732,1.61887091
-2.85508724,9.61267885,-0.15186396,0.77418245,-1.03046227

>  <Name>
ligand

>  <RI>
0

>  <Rbt.Current_Directory>
/home/itssahil/PROJECTS/Mol_Feturizer/New_Systems/rnas/1FUF

>  <Rbt.Executable>
rbdock ($Id: //depot/dev/client3/rdock/2013.1/src/exe/rbdock.cxx#4 $)

>  <Rbt.Library>
libRbt.so (2013.1, Build901 2013/11/27)

>  <Rbt.Parameter_File>
/export/apps/rDock/src/rDock_2013.1_src/data/scripts/dock_solv.prm

>  <Rbt.Receptor>
prm/pocket_docking_5.prm

>  <SCORE>
-5.73851

>  <SCORE.INTER>
-1.6909

>  <SCORE.INTER.CONST>
1

>  <SCORE.INTER.POLAR>
0

>  <SCORE.INTER.ROT>
11

>  <SCORE.INTER.SOLV>
19.3811

>  <SCORE.INTER.VDW>
-18.521

>  <SCORE.INTER.norm>
-0.120778

>  <SCORE.INTRA>
-4.04761

>  <SCORE.INTRA.DIHEDRAL>
-9.61343

>  <SCORE.INTRA.DIHEDRAL.0>
10.5765

>  <SCORE.INTRA.POLAR>
0

>  <SCORE.INTRA.POLAR.0>
0

>  <SCORE.INTRA.REPUL>
0

>  <SCORE.INTRA.REPUL.0>
0

>  <SCORE.INTRA.SOLV>
0.627314

>  <SCORE.INTRA.SOLV.lig_0>
-50.1861

>  <SCORE.INTRA.VDW>
0.44545

>  <SCORE.INTRA.VDW.0>
-1.36671

>  <SCORE.INTRA.norm>
-0.289115

>  <SCORE.RESTR>
0

>  <SCORE.RESTR.CAVITY>
0

>  <SCORE.RESTR.norm>
0

>  <SCORE.SYSTEM>
0

>  <SCORE.SYSTEM.CONST>
0

>  <SCORE.SYSTEM.DIHEDRAL>
0

>  <SCORE.SYSTEM.SOLV>
0

>  <SCORE.SYSTEM.norm>
0

>  <SCORE.heavy>
14

>  <SCORE.norm>
-0.409893

>  <RMSD>
3.013

$$$$
ligand
 OpenBabel11021811393D
libRbt.so/2013.1/901 2013/11/27
 14 13  0  0  0  0  0  0  0  0999 V2000
    7.1829   -5.8909    6.6853 N   0  0  0  0  0  0  0  0  0  0  0  0
    5.8460   -5.4736    7.2990 C   0  0  0  0  0  0  0  0  0  0  0  0
    5.4077   -6.6312    8.1202 C   0  0  0  0  0  0  0  0  0  0  0  0
    4.0482   -6.4599    8.7783 C   0  0  0  0  0  0  0  0  0  0  0  0
    4.1083   -5.3429    9.7586 N   0  0  0  0  0  0  0  0  0  0  0  0
    2.7129   -5.1266   10.3719 C   0  0  0  0  0  0  0  0  0  0  0  0
    2.5591   -3.5320   10.2989 C   0  0  0  0  0  0  0  0  0  0  0  0
    1.3388   -3.1983   10.6427 C   0  0  0  0  0  0  0  0  0  0  0  0
    1.5537   -1.5768   10.5645 C   0  0  0  0  0  0  0  0  0  0  0  0
    0.0688   -1.1468   10.8125 N   0  0  0  0  0  0  0  0  0  0  0  0
   -0.4282   -0.0040    9.8398 C   0  0  0  0  0  0  0  0  0  0  0  0
   -1.9851    0.2827   10.2420 C   0  0  0  0  0  0  0  0  0  0  0  0
   -2.4291    1.3005    9.2320 C   0  0  0  0  0  0  0  0  0  0  0  0
   -3.8838    1.5625    9.5434 N   0  0  0  0  0  0  0  0  0  0  0  0
  1  2  1  0  0  0  0
  2  3  1  0  0  0  0
  3  4  1  0  0  0  0
  4  5  1  0  0  0  0
  5  6  1  0  0  0  0
  6  7  1  0  0  0  0
  7  8  1  0  0  0  0
  8  9  1  0  0  0  0
  9 10  1  0  0  0  0
 10 11  1  0  0  0  0
 11 12  1  0  0  0  0
 12 13  1  0  0  0  0
 13 14  1  0  0  0  0
M  END
>  <CHROM.1>
-177.14141294,-64.32959453,177.21323270,-134.23761140,172.43074846,176.35928071
173.94152437,-135.55070767,179.25572463,-176.26087704,178.28021293,1.86429376
-2.94561099,9.44218625,-0.22439304,0.71248269,-0.97311147

>  <Name>
ligand

>  <RI>
0

>  <Rbt.Current_Directory>
/home/itssahil/PROJECTS/Mol_Feturizer/New_Systems/rnas/1FUF

>  <Rbt.Executable>
rbdock ($Id: //depot/dev/client3/rdock/2013.1/src/exe/rbdock.cxx#4 $)

>  <Rbt.Library>
libRbt.so (2013.1, Build901 2013/11/27)

>  <Rbt.Parameter_File>
/export/apps/rDock/src/rDock_2013.1_src/data/scripts/dock_solv.prm

>  <Rbt.Receptor>
prm/pocket_docking_5.prm

>  <SCORE>
-5.41726

>  <SCORE.INTER>
-1.58289

>  <SCORE.INTER.CONST>
1

>  <SCORE.INTER.POLAR>
0

>  <SCORE.INTER.ROT>
11

>  <SCORE.INTER.SOLV>
14.2116

>  <SCORE.INTER.VDW>
-16.7258

>  <SCORE.INTER.norm>
-0.113064

>  <SCORE.INTRA>
-3.83437

>  <SCORE.INTRA.DIHEDRAL>
-7.94446

>  <SCORE.INTRA.DIHEDRAL.0>
10.5765

>  <SCORE.INTRA.POLAR>
0

>  <SCORE.INTRA.POLAR.0>
0

>  <SCORE.INTRA.REPUL>
0

>  <SCORE.INTRA.REPUL.0>
0

>  <SCORE.INTRA.SOLV>
0.187425

>  <SCORE.INTRA.SOLV.lig_0>
-50.1861

>  <SCORE.INTRA.VDW>
0.0441452

>  <SCORE.INTRA.VDW.0>
-1.36671

>  <SCORE.INTRA.norm>
-0.273884

>  <SCORE.RESTR>
0

>  <SCORE.RESTR.CAVITY>
0

>  <SCORE.RESTR.norm>
0

>  <SCORE.SYSTEM>
0

>  <SCORE.SYSTEM.CONST>
0

>  <SCORE.SYSTEM.DIHEDRAL>
0

>  <SCORE.SYSTEM.SOLV>
0

>  <SCORE.SYSTEM.norm>
0

>  <SCORE.heavy>
14

>  <SCORE.norm>
-0.386947

>  <RMSD>
3.014

$$$$
ligand
 OpenBabel11021811393D
libRbt.so/2013.1/901 2013/11/27
 14 13  0  0  0  0  0  0  0  0999 V2000
    6.1936   -8.2087    8.5467 N   0  0  0  0  0  0  0  0  0  0  0  0
    4.8433   -7.5195    8.7463 C   0  0  0  0  0  0  0  0  0  0  0  0
    5.0738   -6.0906    8.4123 C   0  0  0  0  0  0  0  0  0  0  0  0
    3.8404   -5.2092    8.5236 C   0  0  0  0  0  0  0  0  0  0  0  0
    3.4265   -5.1120    9.9489 N   0  0  0  0  0  0  0  0  0  0  0  0
    4.1885   -3.9572   10.6239 C   0  0  0  0  0  0  0  0  0  0  0  0
    2.9979   -3.1178   11.2944 C   0  0  0  0  0  0  0  0  0  0  0  0
    2.3004   -2.5281   10.3540 C   0  0  0  0  0  0  0  0  0  0  0  0
    1.2943   -1.7039   11.3490 C   0  0  0  0  0  0  0  0  0  0  0  0
    0.4109   -1.0216   10.2511 N   0  0  0  0  0  0  0  0  0  0  0  0
   -0.6953   -0.0579   10.8400 C   0  0  0  0  0  0  0  0  0  0  0  0
   -1.5768    0.4485    9.5615 C   0  0  0  0  0  0  0  0  0  0  0  0
   -2.6574    1.2826   10.1858 C   0  0  0  0  0  0  0  0  0  0  0  0
   -3.5456    1.7065    9.0399 N   0  0  0  0  0  0  0  0  0  0  0  0
  1  2  1  0  0  0  0
  2  3  1  0  0  0  0
  3  4  1  0  0  0  0
  4  5  1  0  0  0  0
  5  6  1  0  0  0  0
  6  7  1  0  0  0  0
  7  8  1  0  0  0  0
  8  9  1  0  0  0  0
  9 10  1  0  0  0  0
 10 11  1  0  0  0  0
 11 12  1  0  0  0  0
 12 13  1  0  0  0  0
 13 14  1  0  0  0  0
M  END
>  <CHROM.1>
179.12241673,67.03797170,87.08685155,128.33680331,-70.41602942,-175.86920018
-178.19554051,-177.90074417,-175.41512688,176.49488409,-176.80300429,1.86398658
-2.93481814,9.83425456,0.51689379,0.66466605,-2.18132810

>  <Name>
ligand

>  <RI>
0

>  <Rbt.Current_Directory>
/home/itssahil/PROJECTS/Mol_Feturizer/New_Systems/rnas/1FUF

>  <Rbt.Executable>
rbdock ($Id: //depot/dev/client3/rdock/2013.1/src/exe/rbdock.cxx#4 $)

>  <Rbt.Library>
libRbt.so (2013.1, Build901 2013/11/27)

>  <Rbt.Parameter_File>
/export/apps/rDock/src/rDock_2013.1_src/data/scripts/dock_solv.prm

>  <Rbt.Receptor>
prm/blind_docking_100.prm

>  <SCORE>
-5.14411

>  <SCORE.INTER>
-2.07355

>  <SCORE.INTER.CONST>
1

>  <SCORE.INTER.POLAR>
0

>  <SCORE.INTER.ROT>
11

>  <SCORE.INTER.SOLV>
14.7243

>  <SCORE.INTER.VDW>
-17.2238

>  <SCORE.INTER.norm>
-0.148111

>  <SCORE.INTRA>
-3.07056

>  <SCORE.INTRA.DIHEDRAL>
-8.14594

>  <SCORE.INTRA.DIHEDRAL.0>
10.5765

>  <SCORE.INTRA.POLAR>
0

>  <SCORE.INTRA.POLAR.0>
0

>  <SCORE.INTRA.REPUL>
0

>  <SCORE.INTRA.REPUL.0>
0

>  <SCORE.INTRA.SOLV>
0.588711

>  <SCORE.INTRA.SOLV.lig_0>
-50.1861

>  <SCORE.INTRA.VDW>
0.708051

>  <SCORE.INTRA.VDW.0>
-1.36671

>  <SCORE.INTRA.norm>
-0.219326

>  <SCORE.RESTR>
0

>  <SCORE.RESTR.CAVITY>
0

>  <SCORE.RESTR.norm>
0

>  <SCORE.SYSTEM>
0

>  <SCORE.SYSTEM.CONST>
0

>  <SCORE.SYSTEM.DIHEDRAL>
0

>  <SCORE.SYSTEM.SOLV>
0

>  <SCORE.SYSTEM.norm>
0

>  <SCORE.heavy>
14

>  <SCORE.norm>
-0.367436

>  <RMSD>
3.104

$$$$
ligand
 OpenBabel11021811393D
libRbt.so/2013.1/901 2013/11/27
 14 13  0  0  0  0  0  0  0  0999 V2000
    7.3271   -6.1036    6.6928 N   0  0  0  0  0  0  0  0  0  0  0  0
    6.2118   -5.2402    7.2834 C   0  0  0  0  0  0  0  0  0  0  0  0
    5.2118   -6.1974    7.8222 C   0  0  0  0  0  0  0  0  0  0  0  0
    4.0456   -5.5491    8.5504 C   0  0  0  0  0  0  0  0  0  0  0  0
    4.5476   -4.8333    9.7536 N   0  0  0  0  0  0  0  0  0  0  0  0
    4.3030   -3.3225    9.5877 C   0  0  0  0  0  0  0  0  0  0  0  0
    2.9417   -3.1120   10.4090 C   0  0  0  0  0  0  0  0  0  0  0  0
    2.5416   -1.8709   10.2736 C   0  0  0  0  0  0  0  0  0  0  0  0
    1.2591   -1.9709   11.2869 C   0  0  0  0  0  0  0  0  0  0  0  0
    0.7271   -0.5088   11.1118 N   0  0  0  0  0  0  0  0  0  0  0  0
   -0.3345   -0.3582    9.9501 C   0  0  0  0  0  0  0  0  0  0  0  0
   -1.4606    0.6876   10.5033 C   0  0  0  0  0  0  0  0  0  0  0  0
   -2.5049    0.6849    9.4251 C   0  0  0  0  0  0  0  0  0  0  0  0
   -3.5462    1.6817    9.8766 N   0  0  0  0  0  0  0  0  0  0  0  0
  1  2  1  0  0  0  0
  2  3  1  0  0  0  0
  3  4  1  0  0  0  0
  4  5  1  0  0  0  0
  5  6  1  0  0  0  0
  6  7  1  0  0  0  0
  7  8  1  0  0  0  0
  8  9  1  0  0  0  0
  9 10  1  0  0  0  0
 10 11  1  0  0  0  0
 11 12  1  0  0  0  0
 12 13  1  0  0  0  0
 13 14  1  0  0  0  0
M  END
>  <CHROM.1>
176.00469091,-63.50208289,115.16686380,97.59062290,-175.15974612,-175.88895462
-178.25066399,90.60374126,140.94249759,-174.50940026,-178.03355063,2.23358281
-2.57239933,9.46623762,0.37609817,0.62587801,-1.81153848

>  <Name>
ligand

>  <RI>
0

>  <Rbt.Current_Directory>
/home/itssahil/PROJECTS/Mol_Feturizer/New_Systems/rnas/1FUF

>  <Rbt.Executable>
rbdock ($Id: //depot/dev/client3/rdock/2013.1/src/exe/rbdock.cxx#4 $)

>  <Rbt.Library>
libRbt.so (2013.1, Build901 2013/11/27)

>  <Rbt.Parameter_File>
/export/apps/rDock/src/rDock_2013.1_src/data/scripts/dock_solv.prm

>  <Rbt.Receptor>
prm/pocket_docking_5.prm

>  <SCORE>
-4.03674

>  <SCORE.INTER>
-1.24812

>  <SCORE.INTER.CONST>
1

>  <SCORE.INTER.POLAR>
0

>  <SCORE.INTER.ROT>
11

>  <SCORE.INTER.SOLV>
15.0222

>  <SCORE.INTER.VDW>
-16.7728

>  <SCORE.INTER.norm>
-0.0891513

>  <SCORE.INTRA>
-2.78862

>  <SCORE.INTRA.DIHEDRAL>
-6.66569

>  <SCORE.INTRA.DIHEDRAL.0>
10.5765

>  <SCORE.INTRA.POLAR>
0

>  <SCORE.INTRA.POLAR.0>
0

>  <SCORE.INTRA.REPUL>
0

>  <SCORE.INTRA.REPUL.0>
0

>  <SCORE.INTRA.SOLV>
0.269417

>  <SCORE.INTRA.SOLV.lig_0>
-50.1861

>  <SCORE.INTRA.VDW>
0.40952

>  <SCORE.INTRA.VDW.0>
-1.36671

>  <SCORE.INTRA.norm>
-0.199187

>  <SCORE.RESTR>
0

>  <SCORE.RESTR.CAVITY>
0

>  <SCORE.RESTR.norm>
0

>  <SCORE.SYSTEM>
0

>  <SCORE.SYSTEM.CONST>
0

>  <SCORE.SYSTEM.DIHEDRAL>
0

>  <SCORE.SYSTEM.SOLV>
0

>  <SCORE.SYSTEM.norm>
0

>  <SCORE.heavy>
14

>  <SCORE.norm>
-0.288338

>  <RMSD>
3.119

$$$$
ligand
 OpenBabel11021811393D
libRbt.so/2013.1/901 2013/11/27
 14 13  0  0  0  0  0  0  0  0999 V2000
   -3.6097    1.6447    9.4027 N   0  0  0  0  0  0  0  0  0  0  0  0
   -2.6730    1.2512   10.5454 C   0  0  0  0  0  0  0  0  0  0  0  0
   -1.6627    0.3479    9.9372 C   0  0  0  0  0  0  0  0  0  0  0  0
   -0.6526   -0.2222   10.9198 C   0  0  0  0  0  0  0  0  0  0  0  0
    0.2630   -1.1526   10.2069 N   0  0  0  0  0  0  0  0  0  0  0  0
    1.2841   -1.7281   11.2048 C   0  0  0  0  0  0  0  0  0  0  0  0
    2.3379   -2.4432   10.2301 C   0  0  0  0  0  0  0  0  0  0  0  0
    3.2768   -3.0101   10.9482 C   0  0  0  0  0  0  0  0  0  0  0  0
    4.2116   -3.4949    9.6941 C   0  0  0  0  0  0  0  0  0  0  0  0
    3.5472   -4.8919    9.4529 N   0  0  0  0  0  0  0  0  0  0  0  0
    3.9654   -5.5616    8.0833 C   0  0  0  0  0  0  0  0  0  0  0  0
    5.5145   -6.0434    8.2732 C   0  0  0  0  0  0  0  0  0  0  0  0
    5.4074   -7.2203    9.1987 C   0  0  0  0  0  0  0  0  0  0  0  0
    4.8994   -8.3560    8.3420 N   0  0  0  0  0  0  0  0  0  0  0  0
  1  2  1  0  0  0  0
  2  3  1  0  0  0  0
  3  4  1  0  0  0  0
  4  5  1  0  0  0  0
  5  6  1  0  0  0  0
  6  7  1  0  0  0  0
  7  8  1  0  0  0  0
  8  9  1  0  0  0  0
  9 10  1  0  0  0  0
 10 11  1  0  0  0  0
 11 12  1  0  0  0  0
 12 13  1  0  0  0  0
 13 14  1  0  0  0  0
M  END
>  <CHROM.1>
-177.36155541,177.50493787,-179.99077476,-168.95196807,-178.99309359,-175.03911993
-88.89709569,166.84828993,72.36793549,72.20104056,76.10431016,1.86518375
-2.91991715,9.74581377,2.47227786,-0.50461942,0.74775366

>  <Name>
ligand

>  <RI>
0

>  <Rbt.Current_Directory>
/home/itssahil/PROJECTS/Mol_Feturizer/New_Systems/rnas/1FUF

>  <Rbt.Executable>
rbdock ($Id: //depot/dev/client3/rdock/2013.1/src/exe/rbdock.cxx#4 $)

>  <Rbt.Library>
libRbt.so (2013.1, Build901 2013/11/27)

>  <Rbt.Parameter_File>
/export/apps/rDock/src/rDock_2013.1_src/data/scripts/dock_solv.prm

>  <Rbt.Receptor>
prm/pocket_docking_5.prm

>  <SCORE>
-2.22129

>  <SCORE.INTER>
-1.11176

>  <SCORE.INTER.CONST>
1

>  <SCORE.INTER.POLAR>
0

>  <SCORE.INTER.ROT>
11

>  <SCORE.INTER.SOLV>
17.8569

>  <SCORE.INTER.VDW>
-17.6268

>  <SCORE.INTER.norm>
-0.0794113

>  <SCORE.INTRA>
-1.10953

>  <SCORE.INTRA.DIHEDRAL>
-5.9949

>  <SCORE.INTRA.DIHEDRAL.0>
10.5765

>  <SCORE.INTRA.POLAR>
0

>  <SCORE.INTRA.POLAR.0>
0

>  <SCORE.INTRA.REPUL>
0

>  <SCORE.INTRA.REPUL.0>
0

>  <SCORE.INTRA.SOLV>
1.88473

>  <SCORE.INTRA.SOLV.lig_0>
-50.1861

>  <SCORE.INTRA.VDW>
0.945551

>  <SCORE.INTRA.VDW.0>
-1.36671

>  <SCORE.INTRA.norm>
-0.0792524

>  <SCORE.RESTR>
0

>  <SCORE.RESTR.CAVITY>
0

>  <SCORE.RESTR.norm>
0

>  <SCORE.SYSTEM>
0

>  <SCORE.SYSTEM.CONST>
0

>  <SCORE.SYSTEM.DIHEDRAL>
0

>  <SCORE.SYSTEM.SOLV>
0

>  <SCORE.SYSTEM.norm>
0

>  <SCORE.heavy>
14

>  <SCORE.norm>
-0.158664

>  <RMSD>
3.148

$$$$
ligand
 OpenBabel11021811393D
libRbt.so/2013.1/901 2013/11/27
 14 13  0  0  0  0  0  0  0  0999 V2000
    7.3654   -6.2087    6.4087 N   0  0  0  0  0  0  0  0  0  0  0  0
    6.8411   -5.4416    7.6231 C   0  0  0  0  0  0  0  0  0  0  0  0
    5.4672   -5.9566    7.8551 C   0  0  0  0  0  0  0  0  0  0  0  0
    4.7677   -5.3654    9.0682 C   0  0  0  0  0  0  0  0  0  0  0  0
    4.5812   -3.9031    8.8702 N   0  0  0  0  0  0  0  0  0  0  0  0
    4.0946   -3.2680   10.1854 C   0  0  0  0  0  0  0  0  0  0  0  0
    2.5100   -3.5006   10.1028 C   0  0  0  0  0  0  0  0  0  0  0  0
    1.9340   -2.9290   11.1325 C   0  0  0  0  0  0  0  0  0  0  0  0
    1.6321   -1.4908   10.4099 C   0  0  0  0  0  0  0  0  0  0  0  0
    0.8262   -0.8250   11.5756 N   0  0  0  0  0  0  0  0  0  0  0  0
    0.1079    0.5200   11.1584 C   0  0  0  0  0  0  0  0  0  0  0  0
   -1.3408    0.0835   10.5431 C   0  0  0  0  0  0  0  0  0  0  0  0
   -2.0394    1.3934   10.3210 C   0  0  0  0  0  0  0  0  0  0  0  0
   -3.3774    1.0344    9.7189 N   0  0  0  0  0  0  0  0  0  0  0  0
  1  2  1  0  0  0  0
  2  3  1  0  0  0  0
  3  4  1  0  0  0  0
  4  5  1  0  0  0  0
  5  6  1  0  0  0  0
  6  7  1  0  0  0  0
  7  8  1  0  0  0  0
  8  9  1  0  0  0  0
  9 10  1  0  0  0  0
 10 11  1  0  0  0  0
 11 12  1  0  0  0  0
 12 13  1  0  0  0  0
 13 14  1  0  0  0  0
M  END
>  <CHROM.1>
177.54528820,63.36804758,-170.48229233,-84.96788357,-176.01969535,92.37271911
175.18104745,-169.14588371,86.91426769,173.41375490,178.69178975,2.38356305
-2.56126578,9.64111303,0.36240117,0.63932280,-1.71763049

>  <Name>
ligand

>  <RI>
0

>  <Rbt.Current_Directory>
/home/itssahil/PROJECTS/Mol_Feturizer/New_Systems/rnas/1FUF

>  <Rbt.Executable>
rbdock ($Id: //depot/dev/client3/rdock/2013.1/src/exe/rbdock.cxx#4 $)

>  <Rbt.Library>
libRbt.so (2013.1, Build901 2013/11/27)

>  <Rbt.Parameter_File>
/export/apps/rDock/src/rDock_2013.1_src/data/scripts/dock_solv.prm

>  <Rbt.Receptor>
prm/pocket_docking_5.prm

>  <SCORE>
-0.213054

>  <SCORE.INTER>
0.96682

>  <SCORE.INTER.CONST>
1

>  <SCORE.INTER.POLAR>
0

>  <SCORE.INTER.ROT>
11

>  <SCORE.INTER.SOLV>
16.7292

>  <SCORE.INTER.VDW>
-15.8652

>  <SCORE.INTER.norm>
0.0690586

>  <SCORE.INTRA>
-1.17987

>  <SCORE.INTRA.DIHEDRAL>
-5.64113

>  <SCORE.INTRA.DIHEDRAL.0>
10.5765

>  <SCORE.INTRA.POLAR>
0

>  <SCORE.INTRA.POLAR.0>
0

>  <SCORE.INTRA.REPUL>
0

>  <SCORE.INTRA.REPUL.0>
0

>  <SCORE.INTRA.SOLV>
0.537457

>  <SCORE.INTRA.SOLV.lig_0>
-50.1861

>  <SCORE.INTRA.VDW>
1.37196

>  <SCORE.INTRA.VDW.0>
-1.36671

>  <SCORE.INTRA.norm>
-0.0842767

>  <SCORE.RESTR>
0

>  <SCORE.RESTR.CAVITY>
0

>  <SCORE.RESTR.norm>
0

>  <SCORE.SYSTEM>
0

>  <SCORE.SYSTEM.CONST>
0

>  <SCORE.SYSTEM.DIHEDRAL>
0

>  <SCORE.SYSTEM.SOLV>
0

>  <SCORE.SYSTEM.norm>
0

>  <SCORE.heavy>
14

>  <SCORE.norm>
-0.0152181

>  <RMSD>
3.161

$$$$
ligand
 OpenBabel11021811393D
libRbt.so/2013.1/901 2013/11/27
 14 13  0  0  0  0  0  0  0  0999 V2000
    4.2372   -3.4709   10.4721 N   0  0  0  0  0  0  0  0  0  0  0  0
    2.9295   -3.3084   11.2476 C   0  0  0  0  0  0  0  0  0  0  0  0
    2.1432   -2.2992   10.4927 C   0  0  0  0  0  0  0  0  0  0  0  0
    0.8009   -1.9502   11.1148 C   0  0  0  0  0  0  0  0  0  0  0  0
    0.1537   -0.8688   10.3250 N   0  0  0  0  0  0  0  0  0  0  0  0
   -1.2798   -0.6480   10.8410 C   0  0  0  0  0  0  0  0  0  0  0  0
   -1.7865    0.5590    9.9146 C   0  0  0  0  0  0  0  0  0  0  0  0
   -3.0150    0.8739   10.2468 C   0  0  0  0  0  0  0  0  0  0  0  0
   -3.1652    2.1539    9.2366 C   0  0  0  0  0  0  0  0  0  0  0  0
   -4.5781    2.6387    9.7059 N   0  0  0  0  0  0  0  0  0  0  0  0
   -5.7344    2.2969    8.6835 C   0  0  0  0  0  0  0  0  0  0  0  0
   -6.5874    3.6767    8.4923 C   0  0  0  0  0  0  0  0  0  0  0  0
   -7.6958    3.2804    7.5609 C   0  0  0  0  0  0  0  0  0  0  0  0
   -8.5512    2.3152    8.3474 N   0  0  0  0  0  0  0  0  0  0  0  0
  1  2  1  0  0  0  0
  2  3  1  0  0  0  0
  3  4  1  0  0  0  0
  4  5  1  0  0  0  0
  5  6  1  0  0  0  0
  6  7  1  0  0  0  0
  7  8  1  0  0  0  0
  8  9  1  0  0  0  0
  9 10  1  0  0  0  0
 10 11  1  0  0  0  0
 11 12  1  0  0  0  0
 12 13  1  0  0  0  0
 13 14  1  0  0  0  0
M  END
>  <CHROM.1>
-178.41745372,176.12201079,172.49807315,178.39596396,-179.58211096,175.88788288
-174.94391976,-105.40904365,-131.83191474,-177.83882270,66.95075155,-2.29498071
0.37504027,9.76296895,-0.54487810,-0.19455422,-0.09184928

>  <Name>
ligand

>  <RI>
0

>  <Rbt.Current_Directory>
/home/itssahil/PROJECTS/Mol_Feturizer/New_Systems/rnas/1FUF

>  <Rbt.Executable>
rbdock ($Id: //depot/dev/client3/rdock/2013.1/src/exe/rbdock.cxx#4 $)

>  <Rbt.Library>
libRbt.so (2013.1, Build901 2013/11/27)

>  <Rbt.Parameter_File>
/export/apps/rDock/src/rDock_2013.1_src/data/scripts/dock_solv.prm

>  <Rbt.Receptor>
prm/blind_docking_100.prm

>  <SCORE>
-0.978669

>  <SCORE.INTER>
2.04726

>  <SCORE.INTER.CONST>
1

>  <SCORE.INTER.POLAR>
0

>  <SCORE.INTER.ROT>
11

>  <SCORE.INTER.SOLV>
16.8226

>  <SCORE.INTER.VDW>
-15.176

>  <SCORE.INTER.norm>
0.146233

>  <SCORE.INTRA>
-3.02593

>  <SCORE.INTRA.DIHEDRAL>
-7.97484

>  <SCORE.INTRA.DIHEDRAL.0>
10.5765

>  <SCORE.INTRA.POLAR>
0

>  <SCORE.INTRA.POLAR.0>
0

>  <SCORE.INTRA.REPUL>
0

>  <SCORE.INTRA.REPUL.0>
0

>  <SCORE.INTRA.SOLV>
0.894371

>  <SCORE.INTRA.SOLV.lig_0>
-50.1861

>  <SCORE.INTRA.VDW>
0.514303

>  <SCORE.INTRA.VDW.0>
-1.36671

>  <SCORE.INTRA.norm>
-0.216138

>  <SCORE.RESTR>
0

>  <SCORE.RESTR.CAVITY>
0

>  <SCORE.RESTR.norm>
0

>  <SCORE.SYSTEM>
0

>  <SCORE.SYSTEM.CONST>
0

>  <SCORE.SYSTEM.DIHEDRAL>
0

>  <SCORE.SYSTEM.SOLV>
0

>  <SCORE.SYSTEM.norm>
0

>  <SCORE.heavy>
14

>  <SCORE.norm>
-0.0699049

>  <RMSD>
3.209

$$$$
ligand
 OpenBabel11021811393D
libRbt.so/2013.1/901 2013/11/27
 14 13  0  0  0  0  0  0  0  0999 V2000
   -3.3890    0.8222    9.6930 N   0  0  0  0  0  0  0  0  0  0  0  0
   -2.6078    1.5273   10.8023 C   0  0  0  0  0  0  0  0  0  0  0  0
   -1.1912    1.1244   10.6078 C   0  0  0  0  0  0  0  0  0  0  0  0
   -0.9100   -0.3450   10.8768 C   0  0  0  0  0  0  0  0  0  0  0  0
    0.5326   -0.6246   10.6470 N   0  0  0  0  0  0  0  0  0  0  0  0
    0.7889   -2.1356   10.7917 C   0  0  0  0  0  0  0  0  0  0  0  0
    2.3204   -2.2606   10.3327 C   0  0  0  0  0  0  0  0  0  0  0  0
    2.6547   -3.5271   10.2793 C   0  0  0  0  0  0  0  0  0  0  0  0
    4.1852   -3.2994    9.7432 C   0  0  0  0  0  0  0  0  0  0  0  0
    4.6124   -4.8031    9.6552 N   0  0  0  0  0  0  0  0  0  0  0  0
    4.5031   -5.4060    8.1979 C   0  0  0  0  0  0  0  0  0  0  0  0
    3.9689   -6.9382    8.3845 C   0  0  0  0  0  0  0  0  0  0  0  0
    5.0968   -7.6206    9.1023 C   0  0  0  0  0  0  0  0  0  0  0  0
    6.2266   -7.6822    8.1015 N   0  0  0  0  0  0  0  0  0  0  0  0
  1  2  1  0  0  0  0
  2  3  1  0  0  0  0
  3  4  1  0  0  0  0
  4  5  1  0  0  0  0
  5  6  1  0  0  0  0
  6  7  1  0  0  0  0
  7  8  1  0  0  0  0
  8  9  1  0  0  0  0
  9 10  1  0  0  0  0
 10 11  1  0  0  0  0
 11 12  1  0  0  0  0
 12 13  1  0  0  0  0
 13 14  1  0  0  0  0
M  END
>  <CHROM.1>
-67.61286729,179.89040382,-174.75482286,173.09168953,-173.97650897,177.84437613
-179.50239584,98.11835958,-142.08541775,-65.72727280,-68.46715772,1.91365667
-2.94056103,9.80120808,2.35198205,-0.28165111,0.51455963

>  <Name>
ligand

>  <RI>
0

>  <Rbt.Current_Directory>
/home/itssahil/PROJECTS/Mol_Feturizer/New_Systems/rnas/1FUF

>  <Rbt.Executable>
rbdock ($Id: //depot/dev/client3/rdock/2013.1/src/exe/rbdock.cxx#4 $)

>  <Rbt.Library>
libRbt.so (2013.1, Build901 2013/11/27)

>  <Rbt.Parameter_File>
/export/apps/rDock/src/rDock_2013.1_src/data/scripts/dock_solv.prm

>  <Rbt.Receptor>
prm/blind_docking_40.prm

>  <SCORE>
-3.91439

>  <SCORE.INTER>
-1.96111

>  <SCORE.INTER.CONST>
1

>  <SCORE.INTER.POLAR>
0

>  <SCORE.INTER.ROT>
11

>  <SCORE.INTER.SOLV>
14.8983

>  <SCORE.INTER.VDW>
-17.2068

>  <SCORE.INTER.norm>
-0.140079

>  <SCORE.INTRA>
-1.95328

>  <SCORE.INTRA.DIHEDRAL>
-8.06317

>  <SCORE.INTRA.DIHEDRAL.0>
10.5765

>  <SCORE.INTRA.POLAR>
0

>  <SCORE.INTRA.POLAR.0>
0

>  <SCORE.INTRA.REPUL>
0

>  <SCORE.INTRA.REPUL.0>
0

>  <SCORE.INTRA.SOLV>
2.67998

>  <SCORE.INTRA.SOLV.lig_0>
-50.1861

>  <SCORE.INTRA.VDW>
0.738316

>  <SCORE.INTRA.VDW.0>
-1.36671

>  <SCORE.INTRA.norm>
-0.13952

>  <SCORE.RESTR>
0

>  <SCORE.RESTR.CAVITY>
0

>  <SCORE.RESTR.norm>
0

>  <SCORE.SYSTEM>
0

>  <SCORE.SYSTEM.CONST>
0

>  <SCORE.SYSTEM.DIHEDRAL>
0

>  <SCORE.SYSTEM.SOLV>
0

>  <SCORE.SYSTEM.norm>
0

>  <SCORE.heavy>
14

>  <SCORE.norm>
-0.279599

>  <RMSD>
3.220

$$$$
ligand
 OpenBabel11021811393D
libRbt.so/2013.1/901 2013/11/27
 14 13  0  0  0  0  0  0  0  0999 V2000
   -3.4370    0.9676   10.0521 N   0  0  0  0  0  0  0  0  0  0  0  0
   -1.9719    0.8210    9.6400 C   0  0  0  0  0  0  0  0  0  0  0  0
   -1.3847   -0.1489   10.5997 C   0  0  0  0  0  0  0  0  0  0  0  0
    0.1002   -0.4093   10.4055 C   0  0  0  0  0  0  0  0  0  0  0  0
    0.5150   -1.5669   11.2423 N   0  0  0  0  0  0  0  0  0  0  0  0
    0.9296   -2.7344   10.3286 C   0  0  0  0  0  0  0  0  0  0  0  0
    2.3172   -3.1971   10.9861 C   0  0  0  0  0  0  0  0  0  0  0  0
    2.9796   -3.9330   10.1268 C   0  0  0  0  0  0  0  0  0  0  0  0
    4.1494   -4.4288   11.1600 C   0  0  0  0  0  0  0  0  0  0  0  0
    5.1375   -5.0255   10.1021 N   0  0  0  0  0  0  0  0  0  0  0  0
    6.2277   -3.9944    9.6047 C   0  0  0  0  0  0  0  0  0  0  0  0
    7.1791   -4.8150    8.5611 C   0  0  0  0  0  0  0  0  0  0  0  0
    6.2558   -5.1420    7.4237 C   0  0  0  0  0  0  0  0  0  0  0  0
    7.0714   -5.9950    6.4809 N   0  0  0  0  0  0  0  0  0  0  0  0
  1  2  1  0  0  0  0
  2  3  1  0  0  0  0
  3  4  1  0  0  0  0
  4  5  1  0  0  0  0
  5  6  1  0  0  0  0
  6  7  1  0  0  0  0
  7  8  1  0  0  0  0
  8  9  1  0  0  0  0
  9 10  1  0  0  0  0
 10 11  1  0  0  0  0
 11 12  1  0  0  0  0
 12 13  1  0  0  0  0
 13 14  1  0  0  0  0
M  END
>  <CHROM.1>
-177.84401226,-169.54354303,113.75255012,132.83445545,-162.82347490,-170.82292395
-167.28744080,92.56995145,178.05385870,65.15983260,-175.79641506,2.57646136
-2.82866202,9.76536471,3.07127009,-0.60020930,1.79417426

>  <Name>
ligand

>  <RI>
0

>  <Rbt.Current_Directory>
/home/itssahil/PROJECTS/Mol_Feturizer/New_Systems/rnas/1FUF

>  <Rbt.Executable>
rbdock ($Id: //depot/dev/client3/rdock/2013.1/src/exe/rbdock.cxx#4 $)

>  <Rbt.Library>
libRbt.so (2013.1, Build901 2013/11/27)

>  <Rbt.Parameter_File>
/export/apps/rDock/src/rDock_2013.1_src/data/scripts/dock_solv.prm

>  <Rbt.Receptor>
prm/pocket_docking_3.prm

>  <SCORE>
-0.0404491

>  <SCORE.INTER>
1.96766

>  <SCORE.INTER.CONST>
1

>  <SCORE.INTER.POLAR>
0

>  <SCORE.INTER.ROT>
11

>  <SCORE.INTER.SOLV>
17.2714

>  <SCORE.INTER.VDW>
-15.3787

>  <SCORE.INTER.norm>
0.140547

>  <SCORE.INTRA>
-2.00811

>  <SCORE.INTRA.DIHEDRAL>
-5.08877

>  <SCORE.INTRA.DIHEDRAL.0>
10.5765

>  <SCORE.INTRA.POLAR>
0

>  <SCORE.INTRA.POLAR.0>
0

>  <SCORE.INTRA.REPUL>
0

>  <SCORE.INTRA.REPUL.0>
0

>  <SCORE.INTRA.SOLV>
0.459326

>  <SCORE.INTRA.SOLV.lig_0>
-50.1861

>  <SCORE.INTRA.VDW>
0.306611

>  <SCORE.INTRA.VDW.0>
-1.36671

>  <SCORE.INTRA.norm>
-0.143436

>  <SCORE.RESTR>
0

>  <SCORE.RESTR.CAVITY>
0

>  <SCORE.RESTR.norm>
0

>  <SCORE.SYSTEM>
0

>  <SCORE.SYSTEM.CONST>
0

>  <SCORE.SYSTEM.DIHEDRAL>
0

>  <SCORE.SYSTEM.SOLV>
0

>  <SCORE.SYSTEM.norm>
0

>  <SCORE.heavy>
14

>  <SCORE.norm>
-0.00288922

>  <RMSD>
3.340

$$$$
ligand
 OpenBabel11021811393D
libRbt.so/2013.1/901 2013/11/27
 14 13  0  0  0  0  0  0  0  0999 V2000
    3.2121   -4.8229   10.8203 N   0  0  0  0  0  0  0  0  0  0  0  0
    3.1795   -3.3030   10.6565 C   0  0  0  0  0  0  0  0  0  0  0  0
    1.7411   -2.9326   10.6748 C   0  0  0  0  0  0  0  0  0  0  0  0
    1.4706   -1.4437   10.5314 C   0  0  0  0  0  0  0  0  0  0  0  0
    0.0085   -1.1922   10.6374 N   0  0  0  0  0  0  0  0  0  0  0  0
   -0.3516    0.0706    9.8340 C   0  0  0  0  0  0  0  0  0  0  0  0
   -1.8975    0.2755   10.2082 C   0  0  0  0  0  0  0  0  0  0  0  0
   -2.3830    1.2747    9.5120 C   0  0  0  0  0  0  0  0  0  0  0  0
   -3.9244    1.1539   10.0517 C   0  0  0  0  0  0  0  0  0  0  0  0
   -4.5397    2.3306    9.2221 N   0  0  0  0  0  0  0  0  0  0  0  0
   -6.0048    2.7202    9.6703 C   0  0  0  0  0  0  0  0  0  0  0  0
   -6.7129    3.3888    8.3590 C   0  0  0  0  0  0  0  0  0  0  0  0
   -8.1108    3.6794    8.8222 C   0  0  0  0  0  0  0  0  0  0  0  0
   -8.8488    4.1497    7.5909 N   0  0  0  0  0  0  0  0  0  0  0  0
  1  2  1  0  0  0  0
  2  3  1  0  0  0  0
  3  4  1  0  0  0  0
  4  5  1  0  0  0  0
  5  6  1  0  0  0  0
  6  7  1  0  0  0  0
  7  8  1  0  0  0  0
  8  9  1  0  0  0  0
  9 10  1  0  0  0  0
 10 11  1  0  0  0  0
 11 12  1  0  0  0  0
 12 13  1  0  0  0  0
 13 14  1  0  0  0  0
M  END
>  <CHROM.1>
179.69648821,-176.97246690,-151.78932590,-173.45698648,-175.36712473,177.01436621
-179.38171195,-169.18605329,-154.19609673,177.51665434,-173.53868153,-2.36861815
0.38219354,9.75657191,0.59191287,0.19173503,3.10865118

>  <Name>
ligand

>  <RI>
0

>  <Rbt.Current_Directory>
/home/itssahil/PROJECTS/Mol_Feturizer/New_Systems/rnas/1FUF

>  <Rbt.Executable>
rbdock ($Id: //depot/dev/client3/rdock/2013.1/src/exe/rbdock.cxx#4 $)

>  <Rbt.Library>
libRbt.so (2013.1, Build901 2013/11/27)

>  <Rbt.Parameter_File>
/export/apps/rDock/src/rDock_2013.1_src/data/scripts/dock_solv.prm

>  <Rbt.Receptor>
prm/blind_docking_40.prm

>  <SCORE>
-4.81451

>  <SCORE.INTER>
-0.208051

>  <SCORE.INTER.CONST>
1

>  <SCORE.INTER.POLAR>
0

>  <SCORE.INTER.ROT>
11

>  <SCORE.INTER.SOLV>
15.5897

>  <SCORE.INTER.VDW>
-16.2686

>  <SCORE.INTER.norm>
-0.0148608

>  <SCORE.INTRA>
-4.60646

>  <SCORE.INTRA.DIHEDRAL>
-9.10059

>  <SCORE.INTRA.DIHEDRAL.0>
10.5765

>  <SCORE.INTRA.POLAR>
0

>  <SCORE.INTRA.POLAR.0>
0

>  <SCORE.INTRA.REPUL>
0

>  <SCORE.INTRA.REPUL.0>
0

>  <SCORE.INTRA.SOLV>
-0.151702

>  <SCORE.INTRA.SOLV.lig_0>
-50.1861

>  <SCORE.INTRA.VDW>
0.0196829

>  <SCORE.INTRA.VDW.0>
-1.36671

>  <SCORE.INTRA.norm>
-0.329033

>  <SCORE.RESTR>
0

>  <SCORE.RESTR.CAVITY>
0

>  <SCORE.RESTR.norm>
0

>  <SCORE.SYSTEM>
0

>  <SCORE.SYSTEM.CONST>
0

>  <SCORE.SYSTEM.DIHEDRAL>
0

>  <SCORE.SYSTEM.SOLV>
0

>  <SCORE.SYSTEM.norm>
0

>  <SCORE.heavy>
14

>  <SCORE.norm>
-0.343894

>  <RMSD>
3.350

$$$$
ligand
 OpenBabel11021811393D
libRbt.so/2013.1/901 2013/11/27
 14 13  0  0  0  0  0  0  0  0999 V2000
    3.2223   -4.7707   10.3935 N   0  0  0  0  0  0  0  0  0  0  0  0
    3.2144   -3.2420   10.4269 C   0  0  0  0  0  0  0  0  0  0  0  0
    1.7891   -2.8558   10.5880 C   0  0  0  0  0  0  0  0  0  0  0  0
    1.5423   -1.3566   10.6332 C   0  0  0  0  0  0  0  0  0  0  0  0
    0.1029   -1.0983   10.9047 N   0  0  0  0  0  0  0  0  0  0  0  0
   -0.4684   -0.1866    9.8037 C   0  0  0  0  0  0  0  0  0  0  0  0
   -1.9376    0.1319   10.3623 C   0  0  0  0  0  0  0  0  0  0  0  0
   -2.6681    0.6356    9.3973 C   0  0  0  0  0  0  0  0  0  0  0  0
   -4.0438    0.8095   10.2684 C   0  0  0  0  0  0  0  0  0  0  0  0
   -5.0405    0.9777    9.0727 N   0  0  0  0  0  0  0  0  0  0  0  0
   -5.4240    2.4827    8.7776 C   0  0  0  0  0  0  0  0  0  0  0  0
   -4.1404    3.1294    8.0017 C   0  0  0  0  0  0  0  0  0  0  0  0
   -4.1161    2.3998    6.6901 C   0  0  0  0  0  0  0  0  0  0  0  0
   -2.8125    2.7961    6.0378 N   0  0  0  0  0  0  0  0  0  0  0  0
  1  2  1  0  0  0  0
  2  3  1  0  0  0  0
  3  4  1  0  0  0  0
  4  5  1  0  0  0  0
  5  6  1  0  0  0  0
  6  7  1  0  0  0  0
  7  8  1  0  0  0  0
  8  9  1  0  0  0  0
  9 10  1  0  0  0  0
 10 11  1  0  0  0  0
 11 12  1  0  0  0  0
 12 13  1  0  0  0  0
 13 14  1  0  0  0  0
M  END
>  <CHROM.1>
-179.45428756,-175.51273209,-125.18610946,-172.82572725,-165.07379251,179.10341438
-163.27760636,-99.48708501,76.56538146,66.79239480,-170.66983223,-1.48447060
-0.01031188,9.38282028,-0.58257934,0.45404019,-1.02836168

>  <Name>
ligand

>  <RI>
0

>  <Rbt.Current_Directory>
/home/itssahil/PROJECTS/Mol_Feturizer/New_Systems/rnas/1FUF

>  <Rbt.Executable>
rbdock ($Id: //depot/dev/client3/rdock/2013.1/src/exe/rbdock.cxx#4 $)

>  <Rbt.Library>
libRbt.so (2013.1, Build901 2013/11/27)

>  <Rbt.Parameter_File>
/export/apps/rDock/src/rDock_2013.1_src/data/scripts/dock_solv.prm

>  <Rbt.Receptor>
prm/blind_docking_100.prm

>  <SCORE>
-1.85559

>  <SCORE.INTER>
0.116963

>  <SCORE.INTER.CONST>
1

>  <SCORE.INTER.POLAR>
0

>  <SCORE.INTER.ROT>
11

>  <SCORE.INTER.SOLV>
19.359

>  <SCORE.INTER.VDW>
-17.3084

>  <SCORE.INTER.norm>
0.0083545

>  <SCORE.INTRA>
-1.97255

>  <SCORE.INTRA.DIHEDRAL>
-5.88994

>  <SCORE.INTRA.DIHEDRAL.0>
10.5765

>  <SCORE.INTRA.POLAR>
0

>  <SCORE.INTRA.POLAR.0>
0

>  <SCORE.INTRA.REPUL>
0

>  <SCORE.INTRA.REPUL.0>
0

>  <SCORE.INTRA.SOLV>
1.0417

>  <SCORE.INTRA.SOLV.lig_0>
-50.1861

>  <SCORE.INTRA.VDW>
0.451566

>  <SCORE.INTRA.VDW.0>
-1.36671

>  <SCORE.INTRA.norm>
-0.140897

>  <SCORE.RESTR>
0

>  <SCORE.RESTR.CAVITY>
0

>  <SCORE.RESTR.norm>
0

>  <SCORE.SYSTEM>
0

>  <SCORE.SYSTEM.CONST>
0

>  <SCORE.SYSTEM.DIHEDRAL>
0

>  <SCORE.SYSTEM.SOLV>
0

>  <SCORE.SYSTEM.norm>
0

>  <SCORE.heavy>
14

>  <SCORE.norm>
-0.132542

>  <RMSD>
3.387

$$$$
ligand
 OpenBabel11021811393D
libRbt.so/2013.1/901 2013/11/27
 14 13  0  0  0  0  0  0  0  0999 V2000
    2.8039   -4.5716   10.2775 N   0  0  0  0  0  0  0  0  0  0  0  0
    1.5782   -3.6712   10.4357 C   0  0  0  0  0  0  0  0  0  0  0  0
    2.1064   -2.3567   10.8826 C   0  0  0  0  0  0  0  0  0  0  0  0
    1.0434   -1.3727   11.3433 C   0  0  0  0  0  0  0  0  0  0  0  0
    0.1999   -0.9746   10.1848 N   0  0  0  0  0  0  0  0  0  0  0  0
   -1.0640   -0.2595   10.6957 C   0  0  0  0  0  0  0  0  0  0  0  0
   -1.5263    0.5678    9.4019 C   0  0  0  0  0  0  0  0  0  0  0  0
   -2.6560    1.1806    9.6604 C   0  0  0  0  0  0  0  0  0  0  0  0
   -2.7870    1.9561    8.2241 C   0  0  0  0  0  0  0  0  0  0  0  0
   -4.1921    2.6074    8.4541 N   0  0  0  0  0  0  0  0  0  0  0  0
   -4.6531    3.5483    7.2703 C   0  0  0  0  0  0  0  0  0  0  0  0
   -6.2380    3.2308    7.0352 C   0  0  0  0  0  0  0  0  0  0  0  0
   -6.8829    3.6889    8.3109 C   0  0  0  0  0  0  0  0  0  0  0  0
   -8.3501    3.3651    8.1543 N   0  0  0  0  0  0  0  0  0  0  0  0
  1  2  1  0  0  0  0
  2  3  1  0  0  0  0
  3  4  1  0  0  0  0
  4  5  1  0  0  0  0
  5  6  1  0  0  0  0
  6  7  1  0  0  0  0
  7  8  1  0  0  0  0
  8  9  1  0  0  0  0
  9 10  1  0  0  0  0
 10 11  1  0  0  0  0
 11 12  1  0  0  0  0
 12 13  1  0  0  0  0
 13 14  1  0  0  0  0
M  END
>  <CHROM.1>
-169.59353346,-66.79506297,166.50839289,158.88594537,176.33439401,177.18404038
175.54830074,176.49547175,138.38090324,65.05025846,-177.99021420,-2.18689958
0.49576947,9.30935468,0.70344997,-0.00812311,2.70749283

>  <Name>
ligand

>  <RI>
0

>  <Rbt.Current_Directory>
/home/itssahil/PROJECTS/Mol_Feturizer/New_Systems/rnas/1FUF

>  <Rbt.Executable>
rbdock ($Id: //depot/dev/client3/rdock/2013.1/src/exe/rbdock.cxx#4 $)

>  <Rbt.Library>
libRbt.so (2013.1, Build901 2013/11/27)

>  <Rbt.Parameter_File>
/export/apps/rDock/src/rDock_2013.1_src/data/scripts/dock_solv.prm

>  <Rbt.Receptor>
prm/blind_docking_100.prm

>  <SCORE>
-4.33142

>  <SCORE.INTER>
-0.801854

>  <SCORE.INTER.CONST>
1

>  <SCORE.INTER.POLAR>
0

>  <SCORE.INTER.ROT>
11

>  <SCORE.INTER.SOLV>
15.605

>  <SCORE.INTER.VDW>
-16.6696

>  <SCORE.INTER.norm>
-0.0572753

>  <SCORE.INTRA>
-3.52956

>  <SCORE.INTRA.DIHEDRAL>
-8.30684

>  <SCORE.INTRA.DIHEDRAL.0>
10.5765

>  <SCORE.INTRA.POLAR>
0

>  <SCORE.INTRA.POLAR.0>
0

>  <SCORE.INTRA.REPUL>
0

>  <SCORE.INTRA.REPUL.0>
0

>  <SCORE.INTRA.SOLV>
0.730443

>  <SCORE.INTRA.SOLV.lig_0>
-50.1861

>  <SCORE.INTRA.VDW>
0.258632

>  <SCORE.INTRA.VDW.0>
-1.36671

>  <SCORE.INTRA.norm>
-0.252112

>  <SCORE.RESTR>
0

>  <SCORE.RESTR.CAVITY>
0

>  <SCORE.RESTR.norm>
0

>  <SCORE.SYSTEM>
0

>  <SCORE.SYSTEM.CONST>
0

>  <SCORE.SYSTEM.DIHEDRAL>
0

>  <SCORE.SYSTEM.SOLV>
0

>  <SCORE.SYSTEM.norm>
0

>  <SCORE.heavy>
14

>  <SCORE.norm>
-0.309387

>  <RMSD>
3.470

$$$$
ligand
 OpenBabel11021811393D
libRbt.so/2013.1/901 2013/11/27
 14 13  0  0  0  0  0  0  0  0999 V2000
    5.9230   -4.9432    8.5171 N   0  0  0  0  0  0  0  0  0  0  0  0
    4.8651   -5.8206    7.8469 C   0  0  0  0  0  0  0  0  0  0  0  0
    4.8067   -7.0627    8.6596 C   0  0  0  0  0  0  0  0  0  0  0  0
    4.1544   -6.8956   10.0223 C   0  0  0  0  0  0  0  0  0  0  0  0
    2.7040   -6.6158    9.8475 N   0  0  0  0  0  0  0  0  0  0  0  0
    2.2136   -5.7241   11.0025 C   0  0  0  0  0  0  0  0  0  0  0  0
    2.4446   -4.2520   10.4098 C   0  0  0  0  0  0  0  0  0  0  0  0
    1.9841   -3.3658   11.2591 C   0  0  0  0  0  0  0  0  0  0  0  0
    2.2538   -2.0473   10.3262 C   0  0  0  0  0  0  0  0  0  0  0  0
    1.2618   -1.0679   11.0391 N   0  0  0  0  0  0  0  0  0  0  0  0
    0.4173   -0.1844   10.0365 C   0  0  0  0  0  0  0  0  0  0  0  0
   -1.0552   -0.0104   10.7217 C   0  0  0  0  0  0  0  0  0  0  0  0
   -1.8580    0.6857    9.6615 C   0  0  0  0  0  0  0  0  0  0  0  0
   -3.2390    0.8501   10.2512 N   0  0  0  0  0  0  0  0  0  0  0  0
  1  2  1  0  0  0  0
  2  3  1  0  0  0  0
  3  4  1  0  0  0  0
  4  5  1  0  0  0  0
  5  6  1  0  0  0  0
  6  7  1  0  0  0  0
  7  8  1  0  0  0  0
  8  9  1  0  0  0  0
  9 10  1  0  0  0  0
 10 11  1  0  0  0  0
 11 12  1  0  0  0  0
 12 13  1  0  0  0  0
 13 14  1  0  0  0  0
M  END
>  <CHROM.1>
72.05273122,67.95140387,-149.01204337,90.40312771,175.83691263,-175.67314184
159.98285918,-137.33230902,144.65313668,-173.35265070,179.26740316,1.91982676
-3.31828891,9.97153056,-0.72271257,0.50224571,-0.32757269

>  <Name>
ligand

>  <RI>
0

>  <Rbt.Current_Directory>
/home/itssahil/PROJECTS/Mol_Feturizer/New_Systems/rnas/1FUF

>  <Rbt.Executable>
rbdock ($Id: //depot/dev/client3/rdock/2013.1/src/exe/rbdock.cxx#4 $)

>  <Rbt.Library>
libRbt.so (2013.1, Build901 2013/11/27)

>  <Rbt.Parameter_File>
/export/apps/rDock/src/rDock_2013.1_src/data/scripts/dock_solv.prm

>  <Rbt.Receptor>
prm/blind_docking_80.prm

>  <SCORE>
-3.2179

>  <SCORE.INTER>
-1.70334

>  <SCORE.INTER.CONST>
1

>  <SCORE.INTER.POLAR>
0

>  <SCORE.INTER.ROT>
11

>  <SCORE.INTER.SOLV>
17.1345

>  <SCORE.INTER.VDW>
-17.7804

>  <SCORE.INTER.norm>
-0.121667

>  <SCORE.INTRA>
-1.51457

>  <SCORE.INTRA.DIHEDRAL>
-5.13703

>  <SCORE.INTRA.DIHEDRAL.0>
10.5765

>  <SCORE.INTRA.POLAR>
0

>  <SCORE.INTRA.POLAR.0>
0

>  <SCORE.INTRA.REPUL>
0

>  <SCORE.INTRA.REPUL.0>
0

>  <SCORE.INTRA.SOLV>
2.03463

>  <SCORE.INTRA.SOLV.lig_0>
-50.1861

>  <SCORE.INTRA.VDW>
0.0366312

>  <SCORE.INTRA.VDW.0>
-1.36671

>  <SCORE.INTRA.norm>
-0.108183

>  <SCORE.RESTR>
0

>  <SCORE.RESTR.CAVITY>
0

>  <SCORE.RESTR.norm>
0

>  <SCORE.SYSTEM>
0

>  <SCORE.SYSTEM.CONST>
0

>  <SCORE.SYSTEM.DIHEDRAL>
0

>  <SCORE.SYSTEM.SOLV>
0

>  <SCORE.SYSTEM.norm>
0

>  <SCORE.heavy>
14

>  <SCORE.norm>
-0.22985

>  <RMSD>
3.569

$$$$
ligand
 OpenBabel11021811393D
libRbt.so/2013.1/901 2013/11/27
 14 13  0  0  0  0  0  0  0  0999 V2000
    7.0633   -5.8651    7.1091 N   0  0  0  0  0  0  0  0  0  0  0  0
    5.6756   -5.5189    7.6499 C   0  0  0  0  0  0  0  0  0  0  0  0
    5.1306   -6.7916    8.1883 C   0  0  0  0  0  0  0  0  0  0  0  0
    3.7168   -6.6909    8.7374 C   0  0  0  0  0  0  0  0  0  0  0  0
    3.6933   -5.7340    9.8759 N   0  0  0  0  0  0  0  0  0  0  0  0
    2.3999   -5.9363   10.6858 C   0  0  0  0  0  0  0  0  0  0  0  0
    2.2081   -4.5004   11.3738 C   0  0  0  0  0  0  0  0  0  0  0  0
    1.8181   -3.6353   10.4693 C   0  0  0  0  0  0  0  0  0  0  0  0
    1.9220   -2.3049   11.4184 C   0  0  0  0  0  0  0  0  0  0  0  0
    1.2116   -1.2938   10.4569 N   0  0  0  0  0  0  0  0  0  0  0  0
   -0.2362   -0.8777   10.9363 C   0  0  0  0  0  0  0  0  0  0  0  0
   -0.7999    0.1638    9.8114 C   0  0  0  0  0  0  0  0  0  0  0  0
   -2.1721    0.5131   10.3097 C   0  0  0  0  0  0  0  0  0  0  0  0
   -2.7641    1.4117    9.2496 N   0  0  0  0  0  0  0  0  0  0  0  0
  1  2  1  0  0  0  0
  2  3  1  0  0  0  0
  3  4  1  0  0  0  0
  4  5  1  0  0  0  0
  5  6  1  0  0  0  0
  6  7  1  0  0  0  0
  7  8  1  0  0  0  0
  8  9  1  0  0  0  0
  9 10  1  0  0  0  0
 10 11  1  0  0  0  0
 11 12  1  0  0  0  0
 12 13  1  0  0  0  0
 13 14  1  0  0  0  0
M  END
>  <CHROM.1>
-177.77308071,-61.68722825,-163.37581854,-155.12836515,73.07465748,-172.69296987
-170.00500207,107.67793298,-179.86491543,179.53144409,-176.58582240,2.06183228
-3.36163487,9.73393817,-0.34605445,0.73571432,-0.81106344

>  <Name>
ligand

>  <RI>
0

>  <Rbt.Current_Directory>
/home/itssahil/PROJECTS/Mol_Feturizer/New_Systems/rnas/1FUF

>  <Rbt.Executable>
rbdock ($Id: //depot/dev/client3/rdock/2013.1/src/exe/rbdock.cxx#4 $)

>  <Rbt.Library>
libRbt.so (2013.1, Build901 2013/11/27)

>  <Rbt.Parameter_File>
/export/apps/rDock/src/rDock_2013.1_src/data/scripts/dock_solv.prm

>  <Rbt.Receptor>
prm/blind_docking_100.prm

>  <SCORE>
-5.66898

>  <SCORE.INTER>
-2.56754

>  <SCORE.INTER.CONST>
1

>  <SCORE.INTER.POLAR>
0

>  <SCORE.INTER.ROT>
11

>  <SCORE.INTER.SOLV>
15.4699

>  <SCORE.INTER.VDW>
-17.8017

>  <SCORE.INTER.norm>
-0.183396

>  <SCORE.INTRA>
-3.10144

>  <SCORE.INTRA.DIHEDRAL>
-7.55609

>  <SCORE.INTRA.DIHEDRAL.0>
10.5765

>  <SCORE.INTRA.POLAR>
0

>  <SCORE.INTRA.POLAR.0>
0

>  <SCORE.INTRA.REPUL>
0

>  <SCORE.INTRA.REPUL.0>
0

>  <SCORE.INTRA.SOLV>
0.649646

>  <SCORE.INTRA.SOLV.lig_0>
-50.1861

>  <SCORE.INTRA.VDW>
0.351785

>  <SCORE.INTRA.VDW.0>
-1.36671

>  <SCORE.INTRA.norm>
-0.221531

>  <SCORE.RESTR>
0

>  <SCORE.RESTR.CAVITY>
0

>  <SCORE.RESTR.norm>
0

>  <SCORE.SYSTEM>
0

>  <SCORE.SYSTEM.CONST>
0

>  <SCORE.SYSTEM.DIHEDRAL>
0

>  <SCORE.SYSTEM.SOLV>
0

>  <SCORE.SYSTEM.norm>
0

>  <SCORE.heavy>
14

>  <SCORE.norm>
-0.404927

>  <RMSD>
3.600

$$$$
ligand
 OpenBabel11021811393D
libRbt.so/2013.1/901 2013/11/27
 14 13  0  0  0  0  0  0  0  0999 V2000
    3.3252   -4.4093   10.3919 N   0  0  0  0  0  0  0  0  0  0  0  0
    2.8968   -3.1637   11.1685 C   0  0  0  0  0  0  0  0  0  0  0  0
    1.6250   -2.7224   10.5405 C   0  0  0  0  0  0  0  0  0  0  0  0
    1.0588   -1.4286   11.1029 C   0  0  0  0  0  0  0  0  0  0  0  0
   -0.2424   -1.1297   10.4473 N   0  0  0  0  0  0  0  0  0  0  0  0
   -0.7176    0.2716   10.8718 C   0  0  0  0  0  0  0  0  0  0  0  0
   -2.1544    0.3656   10.1656 C   0  0  0  0  0  0  0  0  0  0  0  0
   -2.6731    1.5476   10.3947 C   0  0  0  0  0  0  0  0  0  0  0  0
   -4.0568    1.3173    9.5497 C   0  0  0  0  0  0  0  0  0  0  0  0
   -4.6940    2.7281    9.7838 N   0  0  0  0  0  0  0  0  0  0  0  0
   -6.0984    2.9109    9.0814 C   0  0  0  0  0  0  0  0  0  0  0  0
   -5.7798    3.4550    7.5747 C   0  0  0  0  0  0  0  0  0  0  0  0
   -7.1416    3.6453    6.9726 C   0  0  0  0  0  0  0  0  0  0  0  0
   -6.8902    4.0714    5.5454 N   0  0  0  0  0  0  0  0  0  0  0  0
  1  2  1  0  0  0  0
  2  3  1  0  0  0  0
  3  4  1  0  0  0  0
  4  5  1  0  0  0  0
  5  6  1  0  0  0  0
  6  7  1  0  0  0  0
  7  8  1  0  0  0  0
  8  9  1  0  0  0  0
  9 10  1  0  0  0  0
 10 11  1  0  0  0  0
 11 12  1  0  0  0  0
 12 13  1  0  0  0  0
 13 14  1  0  0  0  0
M  END
>  <CHROM.1>
-176.12820153,-177.11207961,-172.20570183,-176.04182287,-177.45495364,179.12859392
-179.10099699,179.48317078,-88.24781435,-178.49031172,-176.72618236,-2.25308148
0.53288336,9.54239386,-0.15201056,0.68659581,-1.81277842

>  <Name>
ligand

>  <RI>
0

>  <Rbt.Current_Directory>
/home/itssahil/PROJECTS/Mol_Feturizer/New_Systems/rnas/1FUF

>  <Rbt.Executable>
rbdock ($Id: //depot/dev/client3/rdock/2013.1/src/exe/rbdock.cxx#4 $)

>  <Rbt.Library>
libRbt.so (2013.1, Build901 2013/11/27)

>  <Rbt.Parameter_File>
/export/apps/rDock/src/rDock_2013.1_src/data/scripts/dock_solv.prm

>  <Rbt.Receptor>
prm/pocket_docking_6.prm

>  <SCORE>
-5.69549

>  <SCORE.INTER>
-0.787053

>  <SCORE.INTER.CONST>
1

>  <SCORE.INTER.POLAR>
0

>  <SCORE.INTER.ROT>
11

>  <SCORE.INTER.SOLV>
20.1749

>  <SCORE.INTER.VDW>
-18.183

>  <SCORE.INTER.norm>
-0.0562181

>  <SCORE.INTRA>
-4.90843

>  <SCORE.INTRA.DIHEDRAL>
-9.80131

>  <SCORE.INTRA.DIHEDRAL.0>
10.5765

>  <SCORE.INTRA.POLAR>
0

>  <SCORE.INTRA.POLAR.0>
0

>  <SCORE.INTRA.REPUL>
0

>  <SCORE.INTRA.REPUL.0>
0

>  <SCORE.INTRA.SOLV>
-0.150583

>  <SCORE.INTRA.SOLV.lig_0>
-50.1861

>  <SCORE.INTRA.VDW>
0.0675118

>  <SCORE.INTRA.VDW.0>
-1.36671

>  <SCORE.INTRA.norm>
-0.350602

>  <SCORE.RESTR>
0

>  <SCORE.RESTR.CAVITY>
0

>  <SCORE.RESTR.norm>
0

>  <SCORE.SYSTEM>
0

>  <SCORE.SYSTEM.CONST>
0

>  <SCORE.SYSTEM.DIHEDRAL>
0

>  <SCORE.SYSTEM.SOLV>
0

>  <SCORE.SYSTEM.norm>
0

>  <SCORE.heavy>
14

>  <SCORE.norm>
-0.40682

>  <RMSD>
3.601

$$$$
ligand
 OpenBabel11021811393D
libRbt.so/2013.1/901 2013/11/27
 14 13  0  0  0  0  0  0  0  0999 V2000
    6.2927   -6.1481    8.0658 N   0  0  0  0  0  0  0  0  0  0  0  0
    5.6024   -7.4942    8.2883 C   0  0  0  0  0  0  0  0  0  0  0  0
    4.1668   -7.1744    8.4971 C   0  0  0  0  0  0  0  0  0  0  0  0
    3.8639   -6.4514    9.7994 C   0  0  0  0  0  0  0  0  0  0  0  0
    2.3955   -6.2514    9.9263 N   0  0  0  0  0  0  0  0  0  0  0  0
    2.0981   -5.4548   11.2096 C   0  0  0  0  0  0  0  0  0  0  0  0
    1.3186   -4.1759   10.6362 C   0  0  0  0  0  0  0  0  0  0  0  0
    2.1692   -3.3891   10.0231 C   0  0  0  0  0  0  0  0  0  0  0  0
    2.0524   -2.1310   11.0649 C   0  0  0  0  0  0  0  0  0  0  0  0
    0.7600   -1.4752   10.4725 N   0  0  0  0  0  0  0  0  0  0  0  0
    0.5005   -0.0064   10.9962 C   0  0  0  0  0  0  0  0  0  0  0  0
   -1.1037    0.2527   10.8311 C   0  0  0  0  0  0  0  0  0  0  0  0
   -1.2806    0.4411    9.3525 C   0  0  0  0  0  0  0  0  0  0  0  0
   -2.7205    0.8613    9.1739 N   0  0  0  0  0  0  0  0  0  0  0  0
  1  2  1  0  0  0  0
  2  3  1  0  0  0  0
  3  4  1  0  0  0  0
  4  5  1  0  0  0  0
  5  6  1  0  0  0  0
  6  7  1  0  0  0  0
  7  8  1  0  0  0  0
  8  9  1  0  0  0  0
  9 10  1  0  0  0  0
 10 11  1  0  0  0  0
 11 12  1  0  0  0  0
 12 13  1  0  0  0  0
 13 14  1  0  0  0  0
M  END
>  <CHROM.1>
-68.93506301,-177.05263171,-177.07420197,121.89271503,-72.76352247,-113.98997753
-82.77269093,-165.88846327,-156.05538438,-74.15630619,-172.85347449,1.86545657
-3.47129267,9.88140350,-0.56480019,0.73130195,-0.64058725

>  <Name>
ligand

>  <RI>
0

>  <Rbt.Current_Directory>
/home/itssahil/PROJECTS/Mol_Feturizer/New_Systems/rnas/1FUF

>  <Rbt.Executable>
rbdock ($Id: //depot/dev/client3/rdock/2013.1/src/exe/rbdock.cxx#4 $)

>  <Rbt.Library>
libRbt.so (2013.1, Build901 2013/11/27)

>  <Rbt.Parameter_File>
/export/apps/rDock/src/rDock_2013.1_src/data/scripts/dock_solv.prm

>  <Rbt.Receptor>
prm/blind_docking_80.prm

>  <SCORE>
1.33175

>  <SCORE.INTER>
-1.24768

>  <SCORE.INTER.CONST>
1

>  <SCORE.INTER.POLAR>
0

>  <SCORE.INTER.ROT>
11

>  <SCORE.INTER.SOLV>
16.5864

>  <SCORE.INTER.VDW>
-17.2939

>  <SCORE.INTER.norm>
-0.0891198

>  <SCORE.INTRA>
2.57943

>  <SCORE.INTRA.DIHEDRAL>
0.745256

>  <SCORE.INTRA.DIHEDRAL.0>
10.5765

>  <SCORE.INTRA.POLAR>
0

>  <SCORE.INTRA.POLAR.0>
0

>  <SCORE.INTRA.REPUL>
0

>  <SCORE.INTRA.REPUL.0>
0

>  <SCORE.INTRA.SOLV>
1.85201

>  <SCORE.INTRA.SOLV.lig_0>
-50.1861

>  <SCORE.INTRA.VDW>
1.28079

>  <SCORE.INTRA.VDW.0>
-1.36671

>  <SCORE.INTRA.norm>
0.184245

>  <SCORE.RESTR>
0

>  <SCORE.RESTR.CAVITY>
0

>  <SCORE.RESTR.norm>
0

>  <SCORE.SYSTEM>
0

>  <SCORE.SYSTEM.CONST>
0

>  <SCORE.SYSTEM.DIHEDRAL>
0

>  <SCORE.SYSTEM.SOLV>
0

>  <SCORE.SYSTEM.norm>
0

>  <SCORE.heavy>
14

>  <SCORE.norm>
0.0951248

>  <RMSD>
3.616

$$$$
ligand
 OpenBabel11021811393D
libRbt.so/2013.1/901 2013/11/27
 14 13  0  0  0  0  0  0  0  0999 V2000
   -9.0960    2.8452    8.3581 N   0  0  0  0  0  0  0  0  0  0  0  0
   -7.8797    2.9959    7.4438 C   0  0  0  0  0  0  0  0  0  0  0  0
   -6.8849    3.7689    8.2310 C   0  0  0  0  0  0  0  0  0  0  0  0
   -6.2186    2.9852    9.3501 C   0  0  0  0  0  0  0  0  0  0  0  0
   -5.2874    1.9822    8.7677 N   0  0  0  0  0  0  0  0  0  0  0  0
   -4.7580    1.0672    9.8868 C   0  0  0  0  0  0  0  0  0  0  0  0
   -3.2023    0.9501    9.5152 C   0  0  0  0  0  0  0  0  0  0  0  0
   -2.6242    0.1040   10.3327 C   0  0  0  0  0  0  0  0  0  0  0  0
   -1.1057    0.2748    9.7439 C   0  0  0  0  0  0  0  0  0  0  0  0
   -0.4069   -0.8190   10.6193 N   0  0  0  0  0  0  0  0  0  0  0  0
    1.1487   -0.9343   10.3623 C   0  0  0  0  0  0  0  0  0  0  0  0
    1.5406   -2.4900   10.6690 C   0  0  0  0  0  0  0  0  0  0  0  0
    3.0102   -2.5497   10.3689 C   0  0  0  0  0  0  0  0  0  0  0  0
    3.3893   -4.0039   10.5221 N   0  0  0  0  0  0  0  0  0  0  0  0
  1  2  1  0  0  0  0
  2  3  1  0  0  0  0
  3  4  1  0  0  0  0
  4  5  1  0  0  0  0
  5  6  1  0  0  0  0
  6  7  1  0  0  0  0
  7  8  1  0  0  0  0
  8  9  1  0  0  0  0
  9 10  1  0  0  0  0
 10 11  1  0  0  0  0
 11 12  1  0  0  0  0
 12 13  1  0  0  0  0
 13 14  1  0  0  0  0
M  END
>  <CHROM.1>
73.20308982,71.09641022,-172.49871004,-137.30388525,-175.12366973,-177.48521593
-175.33906331,-178.27060110,-150.56487559,178.29785444,-175.11516315,-2.74100897
0.44135908,9.58363889,2.61568336,-0.15993628,-0.10136673

>  <Name>
ligand

>  <RI>
0

>  <Rbt.Current_Directory>
/home/itssahil/PROJECTS/Mol_Feturizer/New_Systems/rnas/1FUF

>  <Rbt.Executable>
rbdock ($Id: //depot/dev/client3/rdock/2013.1/src/exe/rbdock.cxx#4 $)

>  <Rbt.Library>
libRbt.so (2013.1, Build901 2013/11/27)

>  <Rbt.Parameter_File>
/export/apps/rDock/src/rDock_2013.1_src/data/scripts/dock_solv.prm

>  <Rbt.Receptor>
prm/pocket_docking_5.prm

>  <SCORE>
-3.19685

>  <SCORE.INTER>
-0.129531

>  <SCORE.INTER.CONST>
1

>  <SCORE.INTER.POLAR>
0

>  <SCORE.INTER.ROT>
11

>  <SCORE.INTER.SOLV>
13.2025

>  <SCORE.INTER.VDW>
-15.4205

>  <SCORE.INTER.norm>
-0.00925218

>  <SCORE.INTRA>
-3.06732

>  <SCORE.INTRA.DIHEDRAL>
-7.5909

>  <SCORE.INTRA.DIHEDRAL.0>
10.5765

>  <SCORE.INTRA.POLAR>
0

>  <SCORE.INTRA.POLAR.0>
0

>  <SCORE.INTRA.REPUL>
0

>  <SCORE.INTRA.REPUL.0>
0

>  <SCORE.INTRA.SOLV>
1.29705

>  <SCORE.INTRA.SOLV.lig_0>
-50.1861

>  <SCORE.INTRA.VDW>
0.0796017

>  <SCORE.INTRA.VDW.0>
-1.36671

>  <SCORE.INTRA.norm>
-0.219095

>  <SCORE.RESTR>
0

>  <SCORE.RESTR.CAVITY>
0

>  <SCORE.RESTR.norm>
0

>  <SCORE.SYSTEM>
0

>  <SCORE.SYSTEM.CONST>
0

>  <SCORE.SYSTEM.DIHEDRAL>
0

>  <SCORE.SYSTEM.SOLV>
0

>  <SCORE.SYSTEM.norm>
0

>  <SCORE.heavy>
14

>  <SCORE.norm>
-0.228347

>  <RMSD>
3.646

$$$$
ligand
 OpenBabel11021811393D
libRbt.so/2013.1/901 2013/11/27
 14 13  0  0  0  0  0  0  0  0999 V2000
    5.2919   -4.9727    7.7866 N   0  0  0  0  0  0  0  0  0  0  0  0
    4.1981   -5.9967    7.4814 C   0  0  0  0  0  0  0  0  0  0  0  0
    4.4074   -7.1021    8.4515 C   0  0  0  0  0  0  0  0  0  0  0  0
    4.0843   -6.7463    9.8936 C   0  0  0  0  0  0  0  0  0  0  0  0
    2.6125   -6.6005   10.0512 N   0  0  0  0  0  0  0  0  0  0  0  0
    2.3164   -5.6746   11.2449 C   0  0  0  0  0  0  0  0  0  0  0  0
    2.2185   -4.2385   10.5378 C   0  0  0  0  0  0  0  0  0  0  0  0
    1.9856   -3.3231   11.4469 C   0  0  0  0  0  0  0  0  0  0  0  0
    1.8681   -2.0552   10.4172 C   0  0  0  0  0  0  0  0  0  0  0  0
    1.2930   -1.0056   11.4266 N   0  0  0  0  0  0  0  0  0  0  0  0
   -0.2846   -0.9059   11.4032 C   0  0  0  0  0  0  0  0  0  0  0  0
   -0.6463    0.2316   10.2883 C   0  0  0  0  0  0  0  0  0  0  0  0
   -2.1392    0.3566   10.3828 C   0  0  0  0  0  0  0  0  0  0  0  0
   -2.5208    1.3753    9.3347 N   0  0  0  0  0  0  0  0  0  0  0  0
  1  2  1  0  0  0  0
  2  3  1  0  0  0  0
  3  4  1  0  0  0  0
  4  5  1  0  0  0  0
  5  6  1  0  0  0  0
  6  7  1  0  0  0  0
  7  8  1  0  0  0  0
  8  9  1  0  0  0  0
  9 10  1  0  0  0  0
 10 11  1  0  0  0  0
 11 12  1  0  0  0  0
 12 13  1  0  0  0  0
 13 14  1  0  0  0  0
M  END
>  <CHROM.1>
69.63436180,70.81412770,-155.09357395,92.00894274,-179.02005784,-177.16151297
168.62779096,-94.66995947,-89.88861486,-175.90238454,-178.40965809,1.76325430
-3.33290406,10.01062230,-0.23533104,0.88317057,-1.05576846

>  <Name>
ligand

>  <RI>
0

>  <Rbt.Current_Directory>
/home/itssahil/PROJECTS/Mol_Feturizer/New_Systems/rnas/1FUF

>  <Rbt.Executable>
rbdock ($Id: //depot/dev/client3/rdock/2013.1/src/exe/rbdock.cxx#4 $)

>  <Rbt.Library>
libRbt.so (2013.1, Build901 2013/11/27)

>  <Rbt.Parameter_File>
/export/apps/rDock/src/rDock_2013.1_src/data/scripts/dock_solv.prm

>  <Rbt.Receptor>
prm/blind_docking_20.prm

>  <SCORE>
-4.43411

>  <SCORE.INTER>
-2.24533

>  <SCORE.INTER.CONST>
1

>  <SCORE.INTER.POLAR>
0

>  <SCORE.INTER.ROT>
11

>  <SCORE.INTER.SOLV>
18.9673

>  <SCORE.INTER.VDW>
-18.7526

>  <SCORE.INTER.norm>
-0.16038

>  <SCORE.INTRA>
-2.18879

>  <SCORE.INTRA.DIHEDRAL>
-6.7701

>  <SCORE.INTRA.DIHEDRAL.0>
10.5765

>  <SCORE.INTRA.POLAR>
0

>  <SCORE.INTRA.POLAR.0>
0

>  <SCORE.INTRA.REPUL>
0

>  <SCORE.INTRA.REPUL.0>
0

>  <SCORE.INTRA.SOLV>
1.85132

>  <SCORE.INTRA.SOLV.lig_0>
-50.1861

>  <SCORE.INTRA.VDW>
0.270601

>  <SCORE.INTRA.VDW.0>
-1.36671

>  <SCORE.INTRA.norm>
-0.156342

>  <SCORE.RESTR>
0

>  <SCORE.RESTR.CAVITY>
0

>  <SCORE.RESTR.norm>
0

>  <SCORE.SYSTEM>
0

>  <SCORE.SYSTEM.CONST>
0

>  <SCORE.SYSTEM.DIHEDRAL>
0

>  <SCORE.SYSTEM.SOLV>
0

>  <SCORE.SYSTEM.norm>
0

>  <SCORE.heavy>
14

>  <SCORE.norm>
-0.316722

>  <RMSD>
3.658

$$$$
ligand
 OpenBabel11021811393D
libRbt.so/2013.1/901 2013/11/27
 14 13  0  0  0  0  0  0  0  0999 V2000
    7.0346   -5.9384    7.0471 N   0  0  0  0  0  0  0  0  0  0  0  0
    6.1494   -6.6280    8.0858 C   0  0  0  0  0  0  0  0  0  0  0  0
    4.7705   -6.1463    7.8148 C   0  0  0  0  0  0  0  0  0  0  0  0
    3.6990   -6.7723    8.6926 C   0  0  0  0  0  0  0  0  0  0  0  0
    3.9649   -6.4359   10.1169 N   0  0  0  0  0  0  0  0  0  0  0  0
    2.6894   -5.8504   10.7495 C   0  0  0  0  0  0  0  0  0  0  0  0
    2.8930   -4.2767   10.5173 C   0  0  0  0  0  0  0  0  0  0  0  0
    1.8385   -3.6339   10.9571 C   0  0  0  0  0  0  0  0  0  0  0  0
    2.3575   -2.1286   10.5745 C   0  0  0  0  0  0  0  0  0  0  0  0
    1.1568   -1.3235   11.1757 N   0  0  0  0  0  0  0  0  0  0  0  0
    0.4088   -0.4202   10.1157 C   0  0  0  0  0  0  0  0  0  0  0  0
   -1.0669   -0.1159   10.7462 C   0  0  0  0  0  0  0  0  0  0  0  0
   -1.7665    0.6440    9.6570 C   0  0  0  0  0  0  0  0  0  0  0  0
   -3.1617    0.8947   10.1790 N   0  0  0  0  0  0  0  0  0  0  0  0
  1  2  1  0  0  0  0
  2  3  1  0  0  0  0
  3  4  1  0  0  0  0
  4  5  1  0  0  0  0
  5  6  1  0  0  0  0
  6  7  1  0  0  0  0
  7  8  1  0  0  0  0
  8  9  1  0  0  0  0
  9 10  1  0  0  0  0
 10 11  1  0  0  0  0
 11 12  1  0  0  0  0
 12 13  1  0  0  0  0
 13 14  1  0  0  0  0
M  END
>  <CHROM.1>
176.71078606,61.74370985,128.53923838,-92.29194369,177.11016829,-179.74228254
-176.43122410,-121.62937381,159.76314243,-175.55064425,177.64078181,2.21193814
-3.43805148,9.74499617,-0.38518649,0.72521835,-0.73597202

>  <Name>
ligand

>  <RI>
0

>  <Rbt.Current_Directory>
/home/itssahil/PROJECTS/Mol_Feturizer/New_Systems/rnas/1FUF

>  <Rbt.Executable>
rbdock ($Id: //depot/dev/client3/rdock/2013.1/src/exe/rbdock.cxx#4 $)

>  <Rbt.Library>
libRbt.so (2013.1, Build901 2013/11/27)

>  <Rbt.Parameter_File>
/export/apps/rDock/src/rDock_2013.1_src/data/scripts/dock_solv.prm

>  <Rbt.Receptor>
prm/pocket_docking_7.prm

>  <SCORE>
-5.52542

>  <SCORE.INTER>
-2.3592

>  <SCORE.INTER.CONST>
1

>  <SCORE.INTER.POLAR>
0

>  <SCORE.INTER.ROT>
11

>  <SCORE.INTER.SOLV>
15.7104

>  <SCORE.INTER.VDW>
-17.7429

>  <SCORE.INTER.norm>
-0.168514

>  <SCORE.INTRA>
-3.16622

>  <SCORE.INTRA.DIHEDRAL>
-7.03156

>  <SCORE.INTRA.DIHEDRAL.0>
10.5765

>  <SCORE.INTRA.POLAR>
0

>  <SCORE.INTRA.POLAR.0>
0

>  <SCORE.INTRA.REPUL>
0

>  <SCORE.INTRA.REPUL.0>
0

>  <SCORE.INTRA.SOLV>
0.203365

>  <SCORE.INTRA.SOLV.lig_0>
-50.1861

>  <SCORE.INTRA.VDW>
0.247878

>  <SCORE.INTRA.VDW.0>
-1.36671

>  <SCORE.INTRA.norm>
-0.226159

>  <SCORE.RESTR>
0

>  <SCORE.RESTR.CAVITY>
0

>  <SCORE.RESTR.norm>
0

>  <SCORE.SYSTEM>
0

>  <SCORE.SYSTEM.CONST>
0

>  <SCORE.SYSTEM.DIHEDRAL>
0

>  <SCORE.SYSTEM.SOLV>
0

>  <SCORE.SYSTEM.norm>
0

>  <SCORE.heavy>
14

>  <SCORE.norm>
-0.394673

>  <RMSD>
3.668

$$$$
ligand
 OpenBabel11021811393D
libRbt.so/2013.1/901 2013/11/27
 14 13  0  0  0  0  0  0  0  0999 V2000
   -2.0849    1.7741    9.4830 N   0  0  0  0  0  0  0  0  0  0  0  0
   -1.3819    0.4165    9.4563 C   0  0  0  0  0  0  0  0  0  0  0  0
   -0.9307    0.1757   10.8510 C   0  0  0  0  0  0  0  0  0  0  0  0
   -0.3482   -1.2067   11.0963 C   0  0  0  0  0  0  0  0  0  0  0  0
    0.9166   -1.3561   10.3279 N   0  0  0  0  0  0  0  0  0  0  0  0
    1.9669   -2.0601   11.2060 C   0  0  0  0  0  0  0  0  0  0  0  0
    1.9297   -3.5585   10.6357 C   0  0  0  0  0  0  0  0  0  0  0  0
    2.6182   -4.3416   11.4302 C   0  0  0  0  0  0  0  0  0  0  0  0
    2.4124   -5.7187   10.5681 C   0  0  0  0  0  0  0  0  0  0  0  0
    3.5921   -5.5228    9.5575 N   0  0  0  0  0  0  0  0  0  0  0  0
    3.8080   -6.7564    8.5926 C   0  0  0  0  0  0  0  0  0  0  0  0
    5.4158   -6.8340    8.3156 C   0  0  0  0  0  0  0  0  0  0  0  0
    5.7015   -5.5808    7.5403 C   0  0  0  0  0  0  0  0  0  0  0  0
    7.1646   -5.6637    7.1741 N   0  0  0  0  0  0  0  0  0  0  0  0
  1  2  1  0  0  0  0
  2  3  1  0  0  0  0
  3  4  1  0  0  0  0
  4  5  1  0  0  0  0
  5  6  1  0  0  0  0
  6  7  1  0  0  0  0
  7  8  1  0  0  0  0
  8  9  1  0  0  0  0
  9 10  1  0  0  0  0
 10 11  1  0  0  0  0
 11 12  1  0  0  0  0
 12 13  1  0  0  0  0
 13 14  1  0  0  0  0
M  END
>  <CHROM.1>
172.90273631,65.97163740,137.79262724,101.80146984,-169.73005882,-178.62283421
84.94301437,175.02005503,-146.53969790,-66.34161173,-175.92413427,2.19849583
-3.30260797,9.73129387,-2.77531396,-0.75027682,2.37693931

>  <Name>
ligand

>  <RI>
0

>  <Rbt.Current_Directory>
/home/itssahil/PROJECTS/Mol_Feturizer/New_Systems/rnas/1FUF

>  <Rbt.Executable>
rbdock ($Id: //depot/dev/client3/rdock/2013.1/src/exe/rbdock.cxx#4 $)

>  <Rbt.Library>
libRbt.so (2013.1, Build901 2013/11/27)

>  <Rbt.Parameter_File>
/export/apps/rDock/src/rDock_2013.1_src/data/scripts/dock_solv.prm

>  <Rbt.Receptor>
prm/blind_docking_80.prm

>  <SCORE>
-1.96566

>  <SCORE.INTER>
-0.94325

>  <SCORE.INTER.CONST>
1

>  <SCORE.INTER.POLAR>
0

>  <SCORE.INTER.ROT>
11

>  <SCORE.INTER.SOLV>
16.53

>  <SCORE.INTER.VDW>
-17.0722

>  <SCORE.INTER.norm>
-0.067375

>  <SCORE.INTRA>
-1.02241

>  <SCORE.INTRA.DIHEDRAL>
-4.97179

>  <SCORE.INTRA.DIHEDRAL.0>
10.5765

>  <SCORE.INTRA.POLAR>
0

>  <SCORE.INTRA.POLAR.0>
0

>  <SCORE.INTRA.REPUL>
0

>  <SCORE.INTRA.REPUL.0>
0

>  <SCORE.INTRA.SOLV>
1.12172

>  <SCORE.INTRA.SOLV.lig_0>
-50.1861

>  <SCORE.INTRA.VDW>
0.902623

>  <SCORE.INTRA.VDW.0>
-1.36671

>  <SCORE.INTRA.norm>
-0.0730295

>  <SCORE.RESTR>
0

>  <SCORE.RESTR.CAVITY>
0

>  <SCORE.RESTR.norm>
0

>  <SCORE.SYSTEM>
0

>  <SCORE.SYSTEM.CONST>
0

>  <SCORE.SYSTEM.DIHEDRAL>
0

>  <SCORE.SYSTEM.SOLV>
0

>  <SCORE.SYSTEM.norm>
0

>  <SCORE.heavy>
14

>  <SCORE.norm>
-0.140404

>  <RMSD>
3.676

$$$$
ligand
 OpenBabel11021811393D
libRbt.so/2013.1/901 2013/11/27
 14 13  0  0  0  0  0  0  0  0999 V2000
    6.1455   -5.3120    6.4457 N   0  0  0  0  0  0  0  0  0  0  0  0
    5.7734   -5.3078    7.9288 C   0  0  0  0  0  0  0  0  0  0  0  0
    5.1807   -6.6440    8.1932 C   0  0  0  0  0  0  0  0  0  0  0  0
    4.8145   -6.8959    9.6468 C   0  0  0  0  0  0  0  0  0  0  0  0
    3.6961   -5.9977   10.0399 N   0  0  0  0  0  0  0  0  0  0  0  0
    4.2403   -4.8635   10.9272 C   0  0  0  0  0  0  0  0  0  0  0  0
    2.9365   -3.9558   11.1469 C   0  0  0  0  0  0  0  0  0  0  0  0
    2.5681   -3.4418    9.9986 C   0  0  0  0  0  0  0  0  0  0  0  0
    1.0930   -2.9228   10.4849 C   0  0  0  0  0  0  0  0  0  0  0  0
    1.5042   -1.4787   10.9288 N   0  0  0  0  0  0  0  0  0  0  0  0
    0.7492   -0.3365   10.1386 C   0  0  0  0  0  0  0  0  0  0  0  0
   -0.7799   -0.3282   10.7129 C   0  0  0  0  0  0  0  0  0  0  0  0
   -1.4917    0.6350    9.8080 C   0  0  0  0  0  0  0  0  0  0  0  0
   -2.9216    0.6562   10.2946 N   0  0  0  0  0  0  0  0  0  0  0  0
  1  2  1  0  0  0  0
  2  3  1  0  0  0  0
  3  4  1  0  0  0  0
  4  5  1  0  0  0  0
  5  6  1  0  0  0  0
  6  7  1  0  0  0  0
  7  8  1  0  0  0  0
  8  9  1  0  0  0  0
  9 10  1  0  0  0  0
 10 11  1  0  0  0  0
 11 12  1  0  0  0  0
 12 13  1  0  0  0  0
 13 14  1  0  0  0  0
M  END
>  <CHROM.1>
176.26775253,67.01382066,-105.20148040,175.74864186,-65.40210883,167.07681273
91.34351355,120.07482410,73.43278553,-172.62323473,179.17881492,2.39354614
-3.29964111,9.76405386,-0.16357597,0.76429152,-1.05037922

>  <Name>
ligand

>  <RI>
0

>  <Rbt.Current_Directory>
/home/itssahil/PROJECTS/Mol_Feturizer/New_Systems/rnas/1FUF

>  <Rbt.Executable>
rbdock ($Id: //depot/dev/client3/rdock/2013.1/src/exe/rbdock.cxx#4 $)

>  <Rbt.Library>
libRbt.so (2013.1, Build901 2013/11/27)

>  <Rbt.Parameter_File>
/export/apps/rDock/src/rDock_2013.1_src/data/scripts/dock_solv.prm

>  <Rbt.Receptor>
prm/blind_docking_60.prm

>  <SCORE>
-0.889596

>  <SCORE.INTER>
-0.583985

>  <SCORE.INTER.CONST>
1

>  <SCORE.INTER.POLAR>
0

>  <SCORE.INTER.ROT>
11

>  <SCORE.INTER.SOLV>
19.0652

>  <SCORE.INTER.VDW>
-17.6777

>  <SCORE.INTER.norm>
-0.0417132

>  <SCORE.INTRA>
-0.305611

>  <SCORE.INTRA.DIHEDRAL>
-4.01024

>  <SCORE.INTRA.DIHEDRAL.0>
10.5765

>  <SCORE.INTRA.POLAR>
0

>  <SCORE.INTRA.POLAR.0>
0

>  <SCORE.INTRA.REPUL>
0

>  <SCORE.INTRA.REPUL.0>
0

>  <SCORE.INTRA.SOLV>
1.06454

>  <SCORE.INTRA.SOLV.lig_0>
-50.1861

>  <SCORE.INTRA.VDW>
1.16724

>  <SCORE.INTRA.VDW.0>
-1.36671

>  <SCORE.INTRA.norm>
-0.0218294

>  <SCORE.RESTR>
0

>  <SCORE.RESTR.CAVITY>
0

>  <SCORE.RESTR.norm>
0

>  <SCORE.SYSTEM>
0

>  <SCORE.SYSTEM.CONST>
0

>  <SCORE.SYSTEM.DIHEDRAL>
0

>  <SCORE.SYSTEM.SOLV>
0

>  <SCORE.SYSTEM.norm>
0

>  <SCORE.heavy>
14

>  <SCORE.norm>
-0.0635426

>  <RMSD>
3.736

$$$$
ligand
 OpenBabel11021811393D
libRbt.so/2013.1/901 2013/11/27
 14 13  0  0  0  0  0  0  0  0999 V2000
   -6.1699    3.7845    6.5329 N   0  0  0  0  0  0  0  0  0  0  0  0
   -7.2700    3.2027    7.4214 C   0  0  0  0  0  0  0  0  0  0  0  0
   -6.8778    3.5431    8.8131 C   0  0  0  0  0  0  0  0  0  0  0  0
   -5.5824    2.8990    9.2796 C   0  0  0  0  0  0  0  0  0  0  0  0
   -5.7198    1.4187    9.2348 N   0  0  0  0  0  0  0  0  0  0  0  0
   -4.8343    0.7908   10.3265 C   0  0  0  0  0  0  0  0  0  0  0  0
   -3.4030    0.7352    9.6051 C   0  0  0  0  0  0  0  0  0  0  0  0
   -2.5144    0.2570   10.4420 C   0  0  0  0  0  0  0  0  0  0  0  0
   -1.2127    0.4401    9.4654 C   0  0  0  0  0  0  0  0  0  0  0  0
   -0.1169   -0.0624   10.4645 N   0  0  0  0  0  0  0  0  0  0  0  0
    0.1260   -1.6232   10.4020 C   0  0  0  0  0  0  0  0  0  0  0  0
    1.7315   -1.8368   10.6133 C   0  0  0  0  0  0  0  0  0  0  0  0
    1.9177   -3.3155   10.4342 C   0  0  0  0  0  0  0  0  0  0  0  0
    3.4090   -3.5420   10.5155 N   0  0  0  0  0  0  0  0  0  0  0  0
  1  2  1  0  0  0  0
  2  3  1  0  0  0  0
  3  4  1  0  0  0  0
  4  5  1  0  0  0  0
  5  6  1  0  0  0  0
  6  7  1  0  0  0  0
  7  8  1  0  0  0  0
  8  9  1  0  0  0  0
  9 10  1  0  0  0  0
 10 11  1  0  0  0  0
 11 12  1  0  0  0  0
 12 13  1  0  0  0  0
 13 14  1  0  0  0  0
M  END
>  <CHROM.1>
-63.97763571,-60.72180847,-149.96951252,-83.56043669,177.80218148,-175.98042652
177.49152754,88.70504866,142.85095945,-175.57986148,175.72161662,-2.60855139
0.47797939,9.53944679,-2.66630372,-0.41583031,2.08210813

>  <Name>
ligand

>  <RI>
0

>  <Rbt.Current_Directory>
/home/itssahil/PROJECTS/Mol_Feturizer/New_Systems/rnas/1FUF

>  <Rbt.Executable>
rbdock ($Id: //depot/dev/client3/rdock/2013.1/src/exe/rbdock.cxx#4 $)

>  <Rbt.Library>
libRbt.so (2013.1, Build901 2013/11/27)

>  <Rbt.Parameter_File>
/export/apps/rDock/src/rDock_2013.1_src/data/scripts/dock_solv.prm

>  <Rbt.Receptor>
prm/blind_docking_60.prm

>  <SCORE>
-1.88075

>  <SCORE.INTER>
0.167683

>  <SCORE.INTER.CONST>
1

>  <SCORE.INTER.POLAR>
0

>  <SCORE.INTER.ROT>
11

>  <SCORE.INTER.SOLV>
18.303

>  <SCORE.INTER.VDW>
-16.9226

>  <SCORE.INTER.norm>
0.0119774

>  <SCORE.INTRA>
-2.04844

>  <SCORE.INTRA.DIHEDRAL>
-7.88156

>  <SCORE.INTRA.DIHEDRAL.0>
10.5765

>  <SCORE.INTRA.POLAR>
0

>  <SCORE.INTRA.POLAR.0>
0

>  <SCORE.INTRA.REPUL>
0

>  <SCORE.INTRA.REPUL.0>
0

>  <SCORE.INTRA.SOLV>
1.74621

>  <SCORE.INTRA.SOLV.lig_0>
-50.1861

>  <SCORE.INTRA.VDW>
1.01924

>  <SCORE.INTRA.VDW.0>
-1.36671

>  <SCORE.INTRA.norm>
-0.146317

>  <SCORE.RESTR>
0

>  <SCORE.RESTR.CAVITY>
0

>  <SCORE.RESTR.norm>
0

>  <SCORE.SYSTEM>
0

>  <SCORE.SYSTEM.CONST>
0

>  <SCORE.SYSTEM.DIHEDRAL>
0

>  <SCORE.SYSTEM.SOLV>
0

>  <SCORE.SYSTEM.norm>
0

>  <SCORE.heavy>
14

>  <SCORE.norm>
-0.13434

>  <RMSD>
3.737

$$$$
ligand
 OpenBabel11021811393D
libRbt.so/2013.1/901 2013/11/27
 14 13  0  0  0  0  0  0  0  0999 V2000
    7.9316   -7.0018    6.5177 N   0  0  0  0  0  0  0  0  0  0  0  0
    7.5986   -5.5837    6.0529 C   0  0  0  0  0  0  0  0  0  0  0  0
    6.2341   -5.3065    6.5704 C   0  0  0  0  0  0  0  0  0  0  0  0
    6.1390   -5.2178    8.0849 C   0  0  0  0  0  0  0  0  0  0  0  0
    4.7349   -4.9244    8.4780 N   0  0  0  0  0  0  0  0  0  0  0  0
    4.6901   -3.5988    9.2593 C   0  0  0  0  0  0  0  0  0  0  0  0
    3.1239   -3.4456    9.5685 C   0  0  0  0  0  0  0  0  0  0  0  0
    2.9232   -2.3466   10.2545 C   0  0  0  0  0  0  0  0  0  0  0  0
    1.3114   -2.5438   10.4660 C   0  0  0  0  0  0  0  0  0  0  0  0
    1.0051   -1.1555   11.1220 N   0  0  0  0  0  0  0  0  0  0  0  0
   -0.5397   -0.8445   11.2490 C   0  0  0  0  0  0  0  0  0  0  0  0
   -0.8897    0.1952   10.0389 C   0  0  0  0  0  0  0  0  0  0  0  0
   -2.3471    0.4933   10.2399 C   0  0  0  0  0  0  0  0  0  0  0  0
   -2.7234    1.4218    9.1094 N   0  0  0  0  0  0  0  0  0  0  0  0
  1  2  1  0  0  0  0
  2  3  1  0  0  0  0
  3  4  1  0  0  0  0
  4  5  1  0  0  0  0
  5  6  1  0  0  0  0
  6  7  1  0  0  0  0
  7  8  1  0  0  0  0
  8  9  1  0  0  0  0
  9 10  1  0  0  0  0
 10 11  1  0  0  0  0
 11 12  1  0  0  0  0
 12 13  1  0  0  0  0
 13 14  1  0  0  0  0
M  END
>  <CHROM.1>
66.74344802,179.41075648,-120.18381457,179.13622965,179.39192054,-176.82177727
-173.03411950,169.50806339,-102.19011253,-177.93469493,-178.23660945,2.79944866
-2.84703423,9.07234511,0.25425914,0.64492339,-1.47552394

>  <Name>
ligand

>  <RI>
0

>  <Rbt.Current_Directory>
/home/itssahil/PROJECTS/Mol_Feturizer/New_Systems/rnas/1FUF

>  <Rbt.Executable>
rbdock ($Id: //depot/dev/client3/rdock/2013.1/src/exe/rbdock.cxx#4 $)

>  <Rbt.Library>
libRbt.so (2013.1, Build901 2013/11/27)

>  <Rbt.Parameter_File>
/export/apps/rDock/src/rDock_2013.1_src/data/scripts/dock_solv.prm

>  <Rbt.Receptor>
prm/pocket_docking_4.prm

>  <SCORE>
-4.67758

>  <SCORE.INTER>
-1.23933

>  <SCORE.INTER.CONST>
1

>  <SCORE.INTER.POLAR>
0

>  <SCORE.INTER.ROT>
11

>  <SCORE.INTER.SOLV>
15.1639

>  <SCORE.INTER.VDW>
-16.8142

>  <SCORE.INTER.norm>
-0.0885235

>  <SCORE.INTRA>
-3.43825

>  <SCORE.INTRA.DIHEDRAL>
-7.90543

>  <SCORE.INTRA.DIHEDRAL.0>
10.5765

>  <SCORE.INTRA.POLAR>
0

>  <SCORE.INTRA.POLAR.0>
0

>  <SCORE.INTRA.REPUL>
0

>  <SCORE.INTRA.REPUL.0>
0

>  <SCORE.INTRA.SOLV>
0.703087

>  <SCORE.INTRA.SOLV.lig_0>
-50.1861

>  <SCORE.INTRA.VDW>
0.162926

>  <SCORE.INTRA.VDW.0>
-1.36671

>  <SCORE.INTRA.norm>
-0.245589

>  <SCORE.RESTR>
0

>  <SCORE.RESTR.CAVITY>
0

>  <SCORE.RESTR.norm>
0

>  <SCORE.SYSTEM>
0

>  <SCORE.SYSTEM.CONST>
0

>  <SCORE.SYSTEM.DIHEDRAL>
0

>  <SCORE.SYSTEM.SOLV>
0

>  <SCORE.SYSTEM.norm>
0

>  <SCORE.heavy>
14

>  <SCORE.norm>
-0.334113

>  <RMSD>
3.754

$$$$
ligand
 OpenBabel11021811393D
libRbt.so/2013.1/901 2013/11/27
 14 13  0  0  0  0  0  0  0  0999 V2000
   -8.8951    3.7537    7.6885 N   0  0  0  0  0  0  0  0  0  0  0  0
   -7.6554    2.9861    8.1489 C   0  0  0  0  0  0  0  0  0  0  0  0
   -6.4978    3.7267    7.5849 C   0  0  0  0  0  0  0  0  0  0  0  0
   -5.1458    3.0880    7.8582 C   0  0  0  0  0  0  0  0  0  0  0  0
   -4.9695    2.9065    9.3239 N   0  0  0  0  0  0  0  0  0  0  0  0
   -4.7047    1.4204    9.6258 C   0  0  0  0  0  0  0  0  0  0  0  0
   -3.1337    1.4194    9.9480 C   0  0  0  0  0  0  0  0  0  0  0  0
   -2.7407    0.1912   10.1842 C   0  0  0  0  0  0  0  0  0  0  0  0
   -1.1509    0.5321   10.3787 C   0  0  0  0  0  0  0  0  0  0  0  0
   -0.6267   -0.9370   10.5139 N   0  0  0  0  0  0  0  0  0  0  0  0
    0.9242   -1.0294   10.8059 C   0  0  0  0  0  0  0  0  0  0  0  0
    1.3288   -2.5975   10.5931 C   0  0  0  0  0  0  0  0  0  0  0  0
    2.8078   -2.6184   10.8486 C   0  0  0  0  0  0  0  0  0  0  0  0
    3.2343   -4.0467   10.6035 N   0  0  0  0  0  0  0  0  0  0  0  0
  1  2  1  0  0  0  0
  2  3  1  0  0  0  0
  3  4  1  0  0  0  0
  4  5  1  0  0  0  0
  5  6  1  0  0  0  0
  6  7  1  0  0  0  0
  7  8  1  0  0  0  0
  8  9  1  0  0  0  0
  9 10  1  0  0  0  0
 10 11  1  0  0  0  0
 11 12  1  0  0  0  0
 12 13  1  0  0  0  0
 13 14  1  0  0  0  0
M  END
>  <CHROM.1>
-176.79896587,-55.85931514,122.91183933,105.40326715,-177.80745166,176.97525022
-174.35787699,-176.73847059,-168.15037954,178.65072859,-177.65825850,-2.65886895
0.62830538,9.57901417,2.62348026,-0.35886647,0.13241775

>  <Name>
ligand

>  <RI>
0

>  <Rbt.Current_Directory>
/home/itssahil/PROJECTS/Mol_Feturizer/New_Systems/rnas/1FUF

>  <Rbt.Executable>
rbdock ($Id: //depot/dev/client3/rdock/2013.1/src/exe/rbdock.cxx#4 $)

>  <Rbt.Library>
libRbt.so (2013.1, Build901 2013/11/27)

>  <Rbt.Parameter_File>
/export/apps/rDock/src/rDock_2013.1_src/data/scripts/dock_solv.prm

>  <Rbt.Receptor>
prm/pocket_docking_7.prm

>  <SCORE>
-4.88378

>  <SCORE.INTER>
-1.31425

>  <SCORE.INTER.CONST>
1

>  <SCORE.INTER.POLAR>
0

>  <SCORE.INTER.ROT>
11

>  <SCORE.INTER.SOLV>
14.9307

>  <SCORE.INTER.VDW>
-16.7864

>  <SCORE.INTER.norm>
-0.0938752

>  <SCORE.INTRA>
-3.56953

>  <SCORE.INTRA.DIHEDRAL>
-7.92282

>  <SCORE.INTRA.DIHEDRAL.0>
10.5765

>  <SCORE.INTRA.POLAR>
0

>  <SCORE.INTRA.POLAR.0>
0

>  <SCORE.INTRA.REPUL>
0

>  <SCORE.INTRA.REPUL.0>
0

>  <SCORE.INTRA.SOLV>
0.281614

>  <SCORE.INTRA.SOLV.lig_0>
-50.1861

>  <SCORE.INTRA.VDW>
0.251075

>  <SCORE.INTRA.VDW.0>
-1.36671

>  <SCORE.INTRA.norm>
-0.254966

>  <SCORE.RESTR>
0

>  <SCORE.RESTR.CAVITY>
0

>  <SCORE.RESTR.norm>
0

>  <SCORE.SYSTEM>
0

>  <SCORE.SYSTEM.CONST>
0

>  <SCORE.SYSTEM.DIHEDRAL>
0

>  <SCORE.SYSTEM.SOLV>
0

>  <SCORE.SYSTEM.norm>
0

>  <SCORE.heavy>
14

>  <SCORE.norm>
-0.348842

>  <RMSD>
3.777

$$$$
ligand
 OpenBabel11021811393D
libRbt.so/2013.1/901 2013/11/27
 14 13  0  0  0  0  0  0  0  0999 V2000
    3.4237   -4.0016   10.7119 N   0  0  0  0  0  0  0  0  0  0  0  0
    2.4937   -3.0759   11.4969 C   0  0  0  0  0  0  0  0  0  0  0  0
    1.6943   -2.3553   10.4730 C   0  0  0  0  0  0  0  0  0  0  0  0
    0.6500   -1.4071   11.0396 C   0  0  0  0  0  0  0  0  0  0  0  0
    0.0246   -0.6374    9.9311 N   0  0  0  0  0  0  0  0  0  0  0  0
   -1.2306    0.0834   10.4551 C   0  0  0  0  0  0  0  0  0  0  0  0
   -1.7914    0.7863    9.1272 C   0  0  0  0  0  0  0  0  0  0  0  0
   -2.8388    1.5137    9.4313 C   0  0  0  0  0  0  0  0  0  0  0  0
   -3.0382    2.1908    7.9537 C   0  0  0  0  0  0  0  0  0  0  0  0
   -4.3301    3.0188    8.2647 N   0  0  0  0  0  0  0  0  0  0  0  0
   -5.3182    3.1322    7.0359 C   0  0  0  0  0  0  0  0  0  0  0  0
   -6.7563    3.5946    7.6570 C   0  0  0  0  0  0  0  0  0  0  0  0
   -7.6768    3.5718    6.4715 C   0  0  0  0  0  0  0  0  0  0  0  0
   -9.0415    3.9159    7.0199 N   0  0  0  0  0  0  0  0  0  0  0  0
  1  2  1  0  0  0  0
  2  3  1  0  0  0  0
  3  4  1  0  0  0  0
  4  5  1  0  0  0  0
  5  6  1  0  0  0  0
  6  7  1  0  0  0  0
  7  8  1  0  0  0  0
  8  9  1  0  0  0  0
  9 10  1  0  0  0  0
 10 11  1  0  0  0  0
 11 12  1  0  0  0  0
 12 13  1  0  0  0  0
 13 14  1  0  0  0  0
M  END
>  <CHROM.1>
177.68907037,173.71684811,167.56376513,-177.45759304,-176.47945137,174.00503209
177.44052199,-145.84829905,162.78240393,-175.34801217,176.74808276,-2.40966371
0.73792278,9.07637842,0.66227253,0.13034364,2.76615114

>  <Name>
ligand

>  <RI>
0

>  <Rbt.Current_Directory>
/home/itssahil/PROJECTS/Mol_Feturizer/New_Systems/rnas/1FUF

>  <Rbt.Executable>
rbdock ($Id: //depot/dev/client3/rdock/2013.1/src/exe/rbdock.cxx#4 $)

>  <Rbt.Library>
libRbt.so (2013.1, Build901 2013/11/27)

>  <Rbt.Parameter_File>
/export/apps/rDock/src/rDock_2013.1_src/data/scripts/dock_solv.prm

>  <Rbt.Receptor>
prm/blind_docking_20.prm

>  <SCORE>
-5.24586

>  <SCORE.INTER>
-0.687759

>  <SCORE.INTER.CONST>
1

>  <SCORE.INTER.POLAR>
0

>  <SCORE.INTER.ROT>
11

>  <SCORE.INTER.SOLV>
15.6156

>  <SCORE.INTER.VDW>
-16.597

>  <SCORE.INTER.norm>
-0.0491257

>  <SCORE.INTRA>
-4.5581

>  <SCORE.INTRA.DIHEDRAL>
-8.98064

>  <SCORE.INTRA.DIHEDRAL.0>
10.5765

>  <SCORE.INTRA.POLAR>
0

>  <SCORE.INTRA.POLAR.0>
0

>  <SCORE.INTRA.REPUL>
0

>  <SCORE.INTRA.REPUL.0>
0

>  <SCORE.INTRA.SOLV>
-0.153176

>  <SCORE.INTRA.SOLV.lig_0>
-50.1861

>  <SCORE.INTRA.VDW>
0.00880364

>  <SCORE.INTRA.VDW.0>
-1.36671

>  <SCORE.INTRA.norm>
-0.325579

>  <SCORE.RESTR>
0

>  <SCORE.RESTR.CAVITY>
0

>  <SCORE.RESTR.norm>
0

>  <SCORE.SYSTEM>
0

>  <SCORE.SYSTEM.CONST>
0

>  <SCORE.SYSTEM.DIHEDRAL>
0

>  <SCORE.SYSTEM.SOLV>
0

>  <SCORE.SYSTEM.norm>
0

>  <SCORE.heavy>
14

>  <SCORE.norm>
-0.374704

>  <RMSD>
3.833

$$$$
ligand
 OpenBabel11021811393D
libRbt.so/2013.1/901 2013/11/27
 14 13  0  0  0  0  0  0  0  0999 V2000
   -9.0881    3.6713    7.2673 N   0  0  0  0  0  0  0  0  0  0  0  0
   -7.7317    3.6384    6.5622 C   0  0  0  0  0  0  0  0  0  0  0  0
   -6.7281    3.4490    7.6410 C   0  0  0  0  0  0  0  0  0  0  0  0
   -5.2942    3.3188    7.1537 C   0  0  0  0  0  0  0  0  0  0  0  0
   -4.4038    3.0158    8.3059 N   0  0  0  0  0  0  0  0  0  0  0  0
   -3.1677    2.2457    7.8069 C   0  0  0  0  0  0  0  0  0  0  0  0
   -2.6240    1.5743    9.1580 C   0  0  0  0  0  0  0  0  0  0  0  0
   -1.6309    0.7679    8.8718 C   0  0  0  0  0  0  0  0  0  0  0  0
   -1.3207    0.2923   10.4078 C   0  0  0  0  0  0  0  0  0  0  0  0
   -0.0935   -0.6323   10.1073 N   0  0  0  0  0  0  0  0  0  0  0  0
    0.6877   -1.0860   11.4047 C   0  0  0  0  0  0  0  0  0  0  0  0
    1.9723   -1.9461   10.8778 C   0  0  0  0  0  0  0  0  0  0  0  0
    1.3743   -3.2623   10.4738 C   0  0  0  0  0  0  0  0  0  0  0  0
    2.5518   -4.1749   10.2237 N   0  0  0  0  0  0  0  0  0  0  0  0
  1  2  1  0  0  0  0
  2  3  1  0  0  0  0
  3  4  1  0  0  0  0
  4  5  1  0  0  0  0
  5  6  1  0  0  0  0
  6  7  1  0  0  0  0
  7  8  1  0  0  0  0
  8  9  1  0  0  0  0
  9 10  1  0  0  0  0
 10 11  1  0  0  0  0
 11 12  1  0  0  0  0
 12 13  1  0  0  0  0
 13 14  1  0  0  0  0
M  END
>  <CHROM.1>
177.16759864,-175.07072501,153.16564568,-160.87247753,173.90435846,179.36012421
-177.78245839,168.89518578,-176.26958860,-75.69991798,-169.76604507,-2.53537395
0.77668857,9.01872560,2.62259405,-0.45680680,0.14223948

>  <Name>
ligand

>  <RI>
0

>  <Rbt.Current_Directory>
/home/itssahil/PROJECTS/Mol_Feturizer/New_Systems/rnas/1FUF

>  <Rbt.Executable>
rbdock ($Id: //depot/dev/client3/rdock/2013.1/src/exe/rbdock.cxx#4 $)

>  <Rbt.Library>
libRbt.so (2013.1, Build901 2013/11/27)

>  <Rbt.Parameter_File>
/export/apps/rDock/src/rDock_2013.1_src/data/scripts/dock_solv.prm

>  <Rbt.Receptor>
prm/blind_docking_20.prm

>  <SCORE>
-4.3736

>  <SCORE.INTER>
-0.446568

>  <SCORE.INTER.CONST>
1

>  <SCORE.INTER.POLAR>
0

>  <SCORE.INTER.ROT>
11

>  <SCORE.INTER.SOLV>
15.6327

>  <SCORE.INTER.VDW>
-16.4419

>  <SCORE.INTER.norm>
-0.0318977

>  <SCORE.INTRA>
-3.92703

>  <SCORE.INTRA.DIHEDRAL>
-8.13942

>  <SCORE.INTRA.DIHEDRAL.0>
10.5765

>  <SCORE.INTRA.POLAR>
0

>  <SCORE.INTRA.POLAR.0>
0

>  <SCORE.INTRA.REPUL>
0

>  <SCORE.INTRA.REPUL.0>
0

>  <SCORE.INTRA.SOLV>
0.191269

>  <SCORE.INTRA.SOLV.lig_0>
-50.1861

>  <SCORE.INTRA.VDW>
0.0470443

>  <SCORE.INTRA.VDW.0>
-1.36671

>  <SCORE.INTRA.norm>
-0.280502

>  <SCORE.RESTR>
0

>  <SCORE.RESTR.CAVITY>
0

>  <SCORE.RESTR.norm>
0

>  <SCORE.SYSTEM>
0

>  <SCORE.SYSTEM.CONST>
0

>  <SCORE.SYSTEM.DIHEDRAL>
0

>  <SCORE.SYSTEM.SOLV>
0

>  <SCORE.SYSTEM.norm>
0

>  <SCORE.heavy>
14

>  <SCORE.norm>
-0.3124

>  <RMSD>
3.924

$$$$
ligand
 OpenBabel11021811393D
libRbt.so/2013.1/901 2013/11/27
 14 13  0  0  0  0  0  0  0  0999 V2000
    6.3672   -5.7112    8.3423 N   0  0  0  0  0  0  0  0  0  0  0  0
    5.9417   -7.1787    8.4008 C   0  0  0  0  0  0  0  0  0  0  0  0
    4.4665   -7.1576    8.5741 C   0  0  0  0  0  0  0  0  0  0  0  0
    3.9971   -6.6527    9.9288 C   0  0  0  0  0  0  0  0  0  0  0  0
    2.5103   -6.6227    9.9596 N   0  0  0  0  0  0  0  0  0  0  0  0
    2.0388   -6.0974   11.3276 C   0  0  0  0  0  0  0  0  0  0  0  0
    1.6196   -4.5889   10.9802 C   0  0  0  0  0  0  0  0  0  0  0  0
    2.6927   -3.8362   10.9541 C   0  0  0  0  0  0  0  0  0  0  0  0
    1.9841   -2.5141   10.2972 C   0  0  0  0  0  0  0  0  0  0  0  0
    1.3888   -1.9082   11.6124 N   0  0  0  0  0  0  0  0  0  0  0  0
    0.7519   -0.4748   11.4153 C   0  0  0  0  0  0  0  0  0  0  0  0
   -0.7715   -0.7293   10.8840 C   0  0  0  0  0  0  0  0  0  0  0  0
   -1.2729    0.6513   10.5747 C   0  0  0  0  0  0  0  0  0  0  0  0
   -2.7082    0.4663   10.1418 N   0  0  0  0  0  0  0  0  0  0  0  0
  1  2  1  0  0  0  0
  2  3  1  0  0  0  0
  3  4  1  0  0  0  0
  4  5  1  0  0  0  0
  5  6  1  0  0  0  0
  6  7  1  0  0  0  0
  7  8  1  0  0  0  0
  8  9  1  0  0  0  0
  9 10  1  0  0  0  0
 10 11  1  0  0  0  0
 11 12  1  0  0  0  0
 12 13  1  0  0  0  0
 13 14  1  0  0  0  0
M  END
>  <CHROM.1>
-69.30548015,177.55840442,-179.42889455,102.94171272,-81.18587522,169.17570270
82.86225109,172.74026606,84.22136444,-174.12049101,-177.32231003,2.07193420
-3.73968967,10.24244666,-0.75264080,0.48218941,-0.20850325

>  <Name>
ligand

>  <RI>
0

>  <Rbt.Current_Directory>
/home/itssahil/PROJECTS/Mol_Feturizer/New_Systems/rnas/1FUF

>  <Rbt.Executable>
rbdock ($Id: //depot/dev/client3/rdock/2013.1/src/exe/rbdock.cxx#4 $)

>  <Rbt.Library>
libRbt.so (2013.1, Build901 2013/11/27)

>  <Rbt.Parameter_File>
/export/apps/rDock/src/rDock_2013.1_src/data/scripts/dock_solv.prm

>  <Rbt.Receptor>
prm/blind_docking_100.prm

>  <SCORE>
-2.26809

>  <SCORE.INTER>
-1.82145

>  <SCORE.INTER.CONST>
1

>  <SCORE.INTER.POLAR>
0

>  <SCORE.INTER.ROT>
11

>  <SCORE.INTER.SOLV>
16.8321

>  <SCORE.INTER.VDW>
-17.7583

>  <SCORE.INTER.norm>
-0.130104

>  <SCORE.INTRA>
-0.446637

>  <SCORE.INTRA.DIHEDRAL>
-4.87368

>  <SCORE.INTRA.DIHEDRAL.0>
10.5765

>  <SCORE.INTRA.POLAR>
0

>  <SCORE.INTRA.POLAR.0>
0

>  <SCORE.INTRA.REPUL>
0

>  <SCORE.INTRA.REPUL.0>
0

>  <SCORE.INTRA.SOLV>
1.56382

>  <SCORE.INTRA.SOLV.lig_0>
-50.1861

>  <SCORE.INTRA.VDW>
1.20829

>  <SCORE.INTRA.VDW.0>
-1.36671

>  <SCORE.INTRA.norm>
-0.0319026

>  <SCORE.RESTR>
0

>  <SCORE.RESTR.CAVITY>
0

>  <SCORE.RESTR.norm>
0

>  <SCORE.SYSTEM>
0

>  <SCORE.SYSTEM.CONST>
0

>  <SCORE.SYSTEM.DIHEDRAL>
0

>  <SCORE.SYSTEM.SOLV>
0

>  <SCORE.SYSTEM.norm>
0

>  <SCORE.heavy>
14

>  <SCORE.norm>
-0.162006

>  <RMSD>
3.938

$$$$
ligand
 OpenBabel11021811393D
libRbt.so/2013.1/901 2013/11/27
 14 13  0  0  0  0  0  0  0  0999 V2000
    7.1272   -6.0627    7.3537 N   0  0  0  0  0  0  0  0  0  0  0  0
    6.0972   -6.7889    8.2196 C   0  0  0  0  0  0  0  0  0  0  0  0
    4.7878   -6.1776    7.8755 C   0  0  0  0  0  0  0  0  0  0  0  0
    3.6028   -6.7557    8.6320 C   0  0  0  0  0  0  0  0  0  0  0  0
    3.7380   -6.4437   10.0799 N   0  0  0  0  0  0  0  0  0  0  0  0
    2.3449   -6.4480   10.7351 C   0  0  0  0  0  0  0  0  0  0  0  0
    2.2826   -4.9889   11.3978 C   0  0  0  0  0  0  0  0  0  0  0  0
    2.1603   -4.0887   10.4527 C   0  0  0  0  0  0  0  0  0  0  0  0
    2.2678   -2.7746   11.4239 C   0  0  0  0  0  0  0  0  0  0  0  0
    1.7336   -1.7082   10.4096 N   0  0  0  0  0  0  0  0  0  0  0  0
    0.8154   -0.6075   11.0762 C   0  0  0  0  0  0  0  0  0  0  0  0
   -0.3165   -0.2309    9.9605 C   0  0  0  0  0  0  0  0  0  0  0  0
   -1.2029    0.7485   10.6733 C   0  0  0  0  0  0  0  0  0  0  0  0
   -2.3124    1.0649    9.6982 N   0  0  0  0  0  0  0  0  0  0  0  0
  1  2  1  0  0  0  0
  2  3  1  0  0  0  0
  3  4  1  0  0  0  0
  4  5  1  0  0  0  0
  5  6  1  0  0  0  0
  6  7  1  0  0  0  0
  7  8  1  0  0  0  0
  8  9  1  0  0  0  0
  9 10  1  0  0  0  0
 10 11  1  0  0  0  0
 11 12  1  0  0  0  0
 12 13  1  0  0  0  0
 13 14  1  0  0  0  0
M  END
>  <CHROM.1>
-179.92226056,65.32684542,155.24618737,-124.33953801,71.47852213,-175.06450371
-165.07791067,141.94198861,-145.46837660,176.67050440,-176.92305887,2.36603751
-3.66172423,9.85647181,-0.52920041,0.72491963,-0.57786479

>  <Name>
ligand

>  <RI>
0

>  <Rbt.Current_Directory>
/home/itssahil/PROJECTS/Mol_Feturizer/New_Systems/rnas/1FUF

>  <Rbt.Executable>
rbdock ($Id: //depot/dev/client3/rdock/2013.1/src/exe/rbdock.cxx#4 $)

>  <Rbt.Library>
libRbt.so (2013.1, Build901 2013/11/27)

>  <Rbt.Parameter_File>
/export/apps/rDock/src/rDock_2013.1_src/data/scripts/dock_solv.prm

>  <Rbt.Receptor>
prm/blind_docking_100.prm

>  <SCORE>
-5.0476

>  <SCORE.INTER>
-2.70252

>  <SCORE.INTER.CONST>
1

>  <SCORE.INTER.POLAR>
0

>  <SCORE.INTER.ROT>
11

>  <SCORE.INTER.SOLV>
15.5515

>  <SCORE.INTER.VDW>
-17.9189

>  <SCORE.INTER.norm>
-0.193037

>  <SCORE.INTRA>
-2.34508

>  <SCORE.INTRA.DIHEDRAL>
-5.79794

>  <SCORE.INTRA.DIHEDRAL.0>
10.5765

>  <SCORE.INTRA.POLAR>
0

>  <SCORE.INTRA.POLAR.0>
0

>  <SCORE.INTRA.REPUL>
0

>  <SCORE.INTRA.REPUL.0>
0

>  <SCORE.INTRA.SOLV>
0.626019

>  <SCORE.INTRA.SOLV.lig_0>
-50.1861

>  <SCORE.INTRA.VDW>
0.240881

>  <SCORE.INTRA.VDW.0>
-1.36671

>  <SCORE.INTRA.norm>
-0.167506

>  <SCORE.RESTR>
0

>  <SCORE.RESTR.CAVITY>
0

>  <SCORE.RESTR.norm>
0

>  <SCORE.SYSTEM>
0

>  <SCORE.SYSTEM.CONST>
0

>  <SCORE.SYSTEM.DIHEDRAL>
0

>  <SCORE.SYSTEM.SOLV>
0

>  <SCORE.SYSTEM.norm>
0

>  <SCORE.heavy>
14

>  <SCORE.norm>
-0.360543

>  <RMSD>
4.082

$$$$
ligand
 OpenBabel11021811393D
libRbt.so/2013.1/901 2013/11/27
 14 13  0  0  0  0  0  0  0  0999 V2000
    6.2610   -8.2592    8.8642 N   0  0  0  0  0  0  0  0  0  0  0  0
    5.8566   -6.9024    8.2866 C   0  0  0  0  0  0  0  0  0  0  0  0
    4.3837   -6.8200    8.4608 C   0  0  0  0  0  0  0  0  0  0  0  0
    3.9259   -6.6676    9.9023 C   0  0  0  0  0  0  0  0  0  0  0  0
    2.4407   -6.6027    9.9473 N   0  0  0  0  0  0  0  0  0  0  0  0
    1.9990   -5.9279   11.2586 C   0  0  0  0  0  0  0  0  0  0  0  0
    1.8187   -4.4004   10.8045 C   0  0  0  0  0  0  0  0  0  0  0  0
    2.9653   -3.7756   10.9212 C   0  0  0  0  0  0  0  0  0  0  0  0
    2.5794   -2.4894    9.9840 C   0  0  0  0  0  0  0  0  0  0  0  0
    1.6857   -1.7253   11.0178 N   0  0  0  0  0  0  0  0  0  0  0  0
    0.7907   -0.5969   10.3660 C   0  0  0  0  0  0  0  0  0  0  0  0
   -0.2032   -0.0714   11.5509 C   0  0  0  0  0  0  0  0  0  0  0  0
   -1.0227    0.9916   10.8789 C   0  0  0  0  0  0  0  0  0  0  0  0
   -2.0165    0.2453   10.0203 N   0  0  0  0  0  0  0  0  0  0  0  0
  1  2  1  0  0  0  0
  2  3  1  0  0  0  0
  3  4  1  0  0  0  0
  4  5  1  0  0  0  0
  5  6  1  0  0  0  0
  6  7  1  0  0  0  0
  7  8  1  0  0  0  0
  8  9  1  0  0  0  0
  9 10  1  0  0  0  0
 10 11  1  0  0  0  0
 11 12  1  0  0  0  0
 12 13  1  0  0  0  0
 13 14  1  0  0  0  0
M  END
>  <CHROM.1>
69.94228682,-179.74243112,-158.49982911,94.73125302,-87.81824722,163.32352379
76.81626847,-164.34046083,172.30072766,179.96558470,75.60767874,2.24752111
-3.78572940,10.16176071,-0.82534102,0.52927455,-0.21424660

>  <Name>
ligand

>  <RI>
0

>  <Rbt.Current_Directory>
/home/itssahil/PROJECTS/Mol_Feturizer/New_Systems/rnas/1FUF

>  <Rbt.Executable>
rbdock ($Id: //depot/dev/client3/rdock/2013.1/src/exe/rbdock.cxx#4 $)

>  <Rbt.Library>
libRbt.so (2013.1, Build901 2013/11/27)

>  <Rbt.Parameter_File>
/export/apps/rDock/src/rDock_2013.1_src/data/scripts/dock_solv.prm

>  <Rbt.Receptor>
prm/pocket_docking_6.prm

>  <SCORE>
-0.435679

>  <SCORE.INTER>
-1.67649

>  <SCORE.INTER.CONST>
1

>  <SCORE.INTER.POLAR>
0

>  <SCORE.INTER.ROT>
11

>  <SCORE.INTER.SOLV>
17.1098

>  <SCORE.INTER.VDW>
-17.7543

>  <SCORE.INTER.norm>
-0.119749

>  <SCORE.INTRA>
1.24081

>  <SCORE.INTRA.DIHEDRAL>
-3.4694

>  <SCORE.INTRA.DIHEDRAL.0>
10.5765

>  <SCORE.INTRA.POLAR>
0

>  <SCORE.INTRA.POLAR.0>
0

>  <SCORE.INTRA.REPUL>
0

>  <SCORE.INTRA.REPUL.0>
0

>  <SCORE.INTRA.SOLV>
2.3959

>  <SCORE.INTRA.SOLV.lig_0>
-50.1861

>  <SCORE.INTRA.VDW>
1.77756

>  <SCORE.INTRA.VDW.0>
-1.36671

>  <SCORE.INTRA.norm>
0.0886292

>  <SCORE.RESTR>
0

>  <SCORE.RESTR.CAVITY>
0

>  <SCORE.RESTR.norm>
0

>  <SCORE.SYSTEM>
0

>  <SCORE.SYSTEM.CONST>
0

>  <SCORE.SYSTEM.DIHEDRAL>
0

>  <SCORE.SYSTEM.SOLV>
0

>  <SCORE.SYSTEM.norm>
0

>  <SCORE.heavy>
14

>  <SCORE.norm>
-0.0311199

>  <RMSD>
4.160

$$$$
ligand
 OpenBabel11021811393D
libRbt.so/2013.1/901 2013/11/27
 14 13  0  0  0  0  0  0  0  0999 V2000
    2.1325   -3.7218   11.0645 N   0  0  0  0  0  0  0  0  0  0  0  0
    1.0747   -2.7781   10.4913 C   0  0  0  0  0  0  0  0  0  0  0  0
    1.4709   -1.4185   10.9397 C   0  0  0  0  0  0  0  0  0  0  0  0
    0.8202   -0.2837   10.1655 C   0  0  0  0  0  0  0  0  0  0  0  0
   -0.6248   -0.2119   10.5104 N   0  0  0  0  0  0  0  0  0  0  0  0
   -1.3921    0.4583    9.3563 C   0  0  0  0  0  0  0  0  0  0  0  0
   -2.9014    0.4309    9.8978 C   0  0  0  0  0  0  0  0  0  0  0  0
   -3.7212    0.6947    8.9093 C   0  0  0  0  0  0  0  0  0  0  0  0
   -5.0839    0.7961    9.8116 C   0  0  0  0  0  0  0  0  0  0  0  0
   -5.0419    2.3344   10.0998 N   0  0  0  0  0  0  0  0  0  0  0  0
   -6.2246    3.1359    9.4231 C   0  0  0  0  0  0  0  0  0  0  0  0
   -5.8180    3.2929    7.8489 C   0  0  0  0  0  0  0  0  0  0  0  0
   -7.0931    3.7442    7.1981 C   0  0  0  0  0  0  0  0  0  0  0  0
   -6.7596    3.8988    5.7330 N   0  0  0  0  0  0  0  0  0  0  0  0
  1  2  1  0  0  0  0
  2  3  1  0  0  0  0
  3  4  1  0  0  0  0
  4  5  1  0  0  0  0
  5  6  1  0  0  0  0
  6  7  1  0  0  0  0
  7  8  1  0  0  0  0
  8  9  1  0  0  0  0
  9 10  1  0  0  0  0
 10 11  1  0  0  0  0
 11 12  1  0  0  0  0
 12 13  1  0  0  0  0
 13 14  1  0  0  0  0
M  END
>  <CHROM.1>
162.68002153,70.68038118,-155.54634632,179.45378657,-165.99251897,-172.55379610
91.49947292,113.51695409,-77.81403499,166.56019427,-179.86594521,-2.79740039
0.74093932,9.38924905,-0.49610016,0.47781316,-1.20523143

>  <Name>
ligand

>  <RI>
0

>  <Rbt.Current_Directory>
/home/itssahil/PROJECTS/Mol_Feturizer/New_Systems/rnas/1FUF

>  <Rbt.Executable>
rbdock ($Id: //depot/dev/client3/rdock/2013.1/src/exe/rbdock.cxx#4 $)

>  <Rbt.Library>
libRbt.so (2013.1, Build901 2013/11/27)

>  <Rbt.Parameter_File>
/export/apps/rDock/src/rDock_2013.1_src/data/scripts/dock_solv.prm

>  <Rbt.Receptor>
prm/blind_docking_20.prm

>  <SCORE>
0.101939

>  <SCORE.INTER>
0.730411

>  <SCORE.INTER.CONST>
1

>  <SCORE.INTER.POLAR>
0

>  <SCORE.INTER.ROT>
11

>  <SCORE.INTER.SOLV>
21.7693

>  <SCORE.INTER.VDW>
-17.7028

>  <SCORE.INTER.norm>
0.0521722

>  <SCORE.INTRA>
-0.628472

>  <SCORE.INTRA.DIHEDRAL>
-2.68849

>  <SCORE.INTRA.DIHEDRAL.0>
10.5765

>  <SCORE.INTRA.POLAR>
0

>  <SCORE.INTRA.POLAR.0>
0

>  <SCORE.INTRA.REPUL>
0

>  <SCORE.INTRA.REPUL.0>
0

>  <SCORE.INTRA.SOLV>
0.618691

>  <SCORE.INTRA.SOLV.lig_0>
-50.1861

>  <SCORE.INTRA.VDW>
0.406428

>  <SCORE.INTRA.VDW.0>
-1.36671

>  <SCORE.INTRA.norm>
-0.0448909

>  <SCORE.RESTR>
0

>  <SCORE.RESTR.CAVITY>
0

>  <SCORE.RESTR.norm>
0

>  <SCORE.SYSTEM>
0

>  <SCORE.SYSTEM.CONST>
0

>  <SCORE.SYSTEM.DIHEDRAL>
0

>  <SCORE.SYSTEM.SOLV>
0

>  <SCORE.SYSTEM.norm>
0

>  <SCORE.heavy>
14

>  <SCORE.norm>
0.00728136

>  <RMSD>
4.186

$$$$
ligand
 OpenBabel11021811393D
libRbt.so/2013.1/901 2013/11/27
 14 13  0  0  0  0  0  0  0  0999 V2000
    7.8078   -7.0910    6.5590 N   0  0  0  0  0  0  0  0  0  0  0  0
    7.5425   -5.5957    6.3810 C   0  0  0  0  0  0  0  0  0  0  0  0
    7.0904   -5.1118    7.7108 C   0  0  0  0  0  0  0  0  0  0  0  0
    5.6827   -5.5392    8.0931 C   0  0  0  0  0  0  0  0  0  0  0  0
    5.3370   -4.9749    9.4252 N   0  0  0  0  0  0  0  0  0  0  0  0
    4.7931   -3.5457    9.2483 C   0  0  0  0  0  0  0  0  0  0  0  0
    3.2096   -3.7746    9.3574 C   0  0  0  0  0  0  0  0  0  0  0  0
    2.8979   -4.0630   10.5976 C   0  0  0  0  0  0  0  0  0  0  0  0
    2.6312   -2.5246   11.0915 C   0  0  0  0  0  0  0  0  0  0  0  0
    1.1644   -2.3765   10.5642 N   0  0  0  0  0  0  0  0  0  0  0  0
    0.7249   -0.8755   10.3343 C   0  0  0  0  0  0  0  0  0  0  0  0
   -0.7769   -0.7457   10.9632 C   0  0  0  0  0  0  0  0  0  0  0  0
   -1.1414    0.6889   10.7139 C   0  0  0  0  0  0  0  0  0  0  0  0
   -1.4886    0.7624    9.2456 N   0  0  0  0  0  0  0  0  0  0  0  0
  1  2  1  0  0  0  0
  2  3  1  0  0  0  0
  3  4  1  0  0  0  0
  4  5  1  0  0  0  0
  5  6  1  0  0  0  0
  6  7  1  0  0  0  0
  7  8  1  0  0  0  0
  8  9  1  0  0  0  0
  9 10  1  0  0  0  0
 10 11  1  0  0  0  0
 11 12  1  0  0  0  0
 12 13  1  0  0  0  0
 13 14  1  0  0  0  0
M  END
>  <CHROM.1>
-73.12266249,-178.91622773,85.26485757,100.43393955,71.17266215,90.52026308
82.21498586,-157.31019360,-135.56206092,-179.82657885,76.35549695,3.24820079
-3.19753644,9.30622966,0.06017212,0.69928669,-1.16466525

>  <Name>
ligand

>  <RI>
0

>  <Rbt.Current_Directory>
/home/itssahil/PROJECTS/Mol_Feturizer/New_Systems/rnas/1FUF

>  <Rbt.Executable>
rbdock ($Id: //depot/dev/client3/rdock/2013.1/src/exe/rbdock.cxx#4 $)

>  <Rbt.Library>
libRbt.so (2013.1, Build901 2013/11/27)

>  <Rbt.Parameter_File>
/export/apps/rDock/src/rDock_2013.1_src/data/scripts/dock_solv.prm

>  <Rbt.Receptor>
prm/blind_docking_60.prm

>  <SCORE>
3.76079

>  <SCORE.INTER>
0.303296

>  <SCORE.INTER.CONST>
1

>  <SCORE.INTER.POLAR>
0

>  <SCORE.INTER.ROT>
11

>  <SCORE.INTER.SOLV>
15.8139

>  <SCORE.INTER.VDW>
-16.0024

>  <SCORE.INTER.norm>
0.021664

>  <SCORE.INTRA>
3.4575

>  <SCORE.INTRA.DIHEDRAL>
-0.973786

>  <SCORE.INTRA.DIHEDRAL.0>
10.5765

>  <SCORE.INTRA.POLAR>
0

>  <SCORE.INTRA.POLAR.0>
0

>  <SCORE.INTRA.REPUL>
0

>  <SCORE.INTRA.REPUL.0>
0

>  <SCORE.INTRA.SOLV>
2.48176

>  <SCORE.INTRA.SOLV.lig_0>
-50.1861

>  <SCORE.INTRA.VDW>
2.70351

>  <SCORE.INTRA.VDW.0>
-1.36671

>  <SCORE.INTRA.norm>
0.246964

>  <SCORE.RESTR>
0

>  <SCORE.RESTR.CAVITY>
0

>  <SCORE.RESTR.norm>
0

>  <SCORE.SYSTEM>
0

>  <SCORE.SYSTEM.CONST>
0

>  <SCORE.SYSTEM.DIHEDRAL>
0

>  <SCORE.SYSTEM.SOLV>
0

>  <SCORE.SYSTEM.norm>
0

>  <SCORE.heavy>
14

>  <SCORE.norm>
0.268628

>  <RMSD>
4.206

$$$$
ligand
 OpenBabel11021811393D
libRbt.so/2013.1/901 2013/11/27
 14 13  0  0  0  0  0  0  0  0999 V2000
    7.1168   -9.9774    8.5606 N   0  0  0  0  0  0  0  0  0  0  0  0
    5.8254   -9.2898    8.1162 C   0  0  0  0  0  0  0  0  0  0  0  0
    5.6669   -8.1211    9.0194 C   0  0  0  0  0  0  0  0  0  0  0  0
    4.4689   -7.2393    8.7067 C   0  0  0  0  0  0  0  0  0  0  0  0
    4.4189   -6.1089    9.6721 N   0  0  0  0  0  0  0  0  0  0  0  0
    2.9813   -5.9514   10.1995 C   0  0  0  0  0  0  0  0  0  0  0  0
    2.8655   -4.3628   10.3858 C   0  0  0  0  0  0  0  0  0  0  0  0
    1.6126   -4.0419   10.6004 C   0  0  0  0  0  0  0  0  0  0  0  0
    1.8316   -2.4193   10.6268 C   0  0  0  0  0  0  0  0  0  0  0  0
    0.3408   -2.0008   10.8581 N   0  0  0  0  0  0  0  0  0  0  0  0
    0.1805   -0.6953   11.7352 C   0  0  0  0  0  0  0  0  0  0  0  0
   -0.3855    0.4574   10.7259 C   0  0  0  0  0  0  0  0  0  0  0  0
   -1.7840    0.0049   10.4217 C   0  0  0  0  0  0  0  0  0  0  0  0
   -2.3600    1.0702    9.5189 N   0  0  0  0  0  0  0  0  0  0  0  0
  1  2  1  0  0  0  0
  2  3  1  0  0  0  0
  3  4  1  0  0  0  0
  4  5  1  0  0  0  0
  5  6  1  0  0  0  0
  6  7  1  0  0  0  0
  7  8  1  0  0  0  0
  8  9  1  0  0  0  0
  9 10  1  0  0  0  0
 10 11  1  0  0  0  0
 11 12  1  0  0  0  0
 12 13  1  0  0  0  0
 13 14  1  0  0  0  0
M  END
>  <CHROM.1>
176.92792704,-179.91427879,-133.68567440,-145.61977908,168.55200643,-175.99958256
179.07220034,146.58708246,111.10888813,69.21303526,178.36972653,2.34139058
-4.19107961,9.93921814,0.59069707,0.74696490,-2.14121831

>  <Name>
ligand

>  <RI>
0

>  <Rbt.Current_Directory>
/home/itssahil/PROJECTS/Mol_Feturizer/New_Systems/rnas/1FUF

>  <Rbt.Executable>
rbdock ($Id: //depot/dev/client3/rdock/2013.1/src/exe/rbdock.cxx#4 $)

>  <Rbt.Library>
libRbt.so (2013.1, Build901 2013/11/27)

>  <Rbt.Parameter_File>
/export/apps/rDock/src/rDock_2013.1_src/data/scripts/dock_solv.prm

>  <Rbt.Receptor>
prm/pocket_docking_7.prm

>  <SCORE>
-4.36736

>  <SCORE.INTER>
-1.66067

>  <SCORE.INTER.CONST>
1

>  <SCORE.INTER.POLAR>
0

>  <SCORE.INTER.ROT>
11

>  <SCORE.INTER.SOLV>
14.4089

>  <SCORE.INTER.VDW>
-16.8434

>  <SCORE.INTER.norm>
-0.118619

>  <SCORE.INTRA>
-2.70669

>  <SCORE.INTRA.DIHEDRAL>
-6.03287

>  <SCORE.INTRA.DIHEDRAL.0>
10.5765

>  <SCORE.INTRA.POLAR>
0

>  <SCORE.INTRA.POLAR.0>
0

>  <SCORE.INTRA.REPUL>
0

>  <SCORE.INTRA.REPUL.0>
0

>  <SCORE.INTRA.SOLV>
0.333614

>  <SCORE.INTRA.SOLV.lig_0>
-50.1861

>  <SCORE.INTRA.VDW>
0.142942

>  <SCORE.INTRA.VDW.0>
-1.36671

>  <SCORE.INTRA.norm>
-0.193335

>  <SCORE.RESTR>
0

>  <SCORE.RESTR.CAVITY>
0

>  <SCORE.RESTR.norm>
0

>  <SCORE.SYSTEM>
0

>  <SCORE.SYSTEM.CONST>
0

>  <SCORE.SYSTEM.DIHEDRAL>
0

>  <SCORE.SYSTEM.SOLV>
0

>  <SCORE.SYSTEM.norm>
0

>  <SCORE.heavy>
14

>  <SCORE.norm>
-0.311954

>  <RMSD>
4.286

$$$$
ligand
 OpenBabel11021811393D
libRbt.so/2013.1/901 2013/11/27
 14 13  0  0  0  0  0  0  0  0999 V2000
    6.7623   -6.1489    7.3247 N   0  0  0  0  0  0  0  0  0  0  0  0
    5.7009   -5.2410    7.9469 C   0  0  0  0  0  0  0  0  0  0  0  0
    4.4015   -5.9106    7.6825 C   0  0  0  0  0  0  0  0  0  0  0  0
    4.1946   -7.2103    8.4431 C   0  0  0  0  0  0  0  0  0  0  0  0
    4.1032   -6.9240    9.8998 N   0  0  0  0  0  0  0  0  0  0  0  0
    2.6962   -6.3925   10.2281 C   0  0  0  0  0  0  0  0  0  0  0  0
    3.0202   -4.9495   10.8485 C   0  0  0  0  0  0  0  0  0  0  0  0
    1.9311   -4.2198   10.8395 C   0  0  0  0  0  0  0  0  0  0  0  0
    2.6160   -2.8455   11.4088 C   0  0  0  0  0  0  0  0  0  0  0  0
    1.8905   -1.8309   10.4625 N   0  0  0  0  0  0  0  0  0  0  0  0
    0.5888   -1.1963   11.0965 C   0  0  0  0  0  0  0  0  0  0  0  0
    0.1851    0.0585   10.1320 C   0  0  0  0  0  0  0  0  0  0  0  0
   -1.0038    0.6642   10.8195 C   0  0  0  0  0  0  0  0  0  0  0  0
   -2.1536   -0.2698   10.5237 N   0  0  0  0  0  0  0  0  0  0  0  0
  1  2  1  0  0  0  0
  2  3  1  0  0  0  0
  3  4  1  0  0  0  0
  4  5  1  0  0  0  0
  5  6  1  0  0  0  0
  6  7  1  0  0  0  0
  7  8  1  0  0  0  0
  8  9  1  0  0  0  0
  9 10  1  0  0  0  0
 10 11  1  0  0  0  0
 11 12  1  0  0  0  0
 12 13  1  0  0  0  0
 13 14  1  0  0  0  0
M  END
>  <CHROM.1>
68.54612722,66.20322496,78.66799967,-120.65773452,162.64461846,-176.19631772
138.22996516,94.80643975,167.17765108,-177.01373195,-75.59218655,2.49515265
-3.74400467,9.83269697,-0.57382534,0.69589247,-0.42162071

>  <Name>
ligand

>  <RI>
0

>  <Rbt.Current_Directory>
/home/itssahil/PROJECTS/Mol_Feturizer/New_Systems/rnas/1FUF

>  <Rbt.Executable>
rbdock ($Id: //depot/dev/client3/rdock/2013.1/src/exe/rbdock.cxx#4 $)

>  <Rbt.Library>
libRbt.so (2013.1, Build901 2013/11/27)

>  <Rbt.Parameter_File>
/export/apps/rDock/src/rDock_2013.1_src/data/scripts/dock_solv.prm

>  <Rbt.Receptor>
prm/pocket_docking_6.prm

>  <SCORE>
-1.71141

>  <SCORE.INTER>
-2.94677

>  <SCORE.INTER.CONST>
1

>  <SCORE.INTER.POLAR>
0

>  <SCORE.INTER.ROT>
11

>  <SCORE.INTER.SOLV>
17.6069

>  <SCORE.INTER.VDW>
-18.7668

>  <SCORE.INTER.norm>
-0.210483

>  <SCORE.INTRA>
1.23536

>  <SCORE.INTRA.DIHEDRAL>
-1.43407

>  <SCORE.INTRA.DIHEDRAL.0>
10.5765

>  <SCORE.INTRA.POLAR>
0

>  <SCORE.INTRA.POLAR.0>
0

>  <SCORE.INTRA.REPUL>
0

>  <SCORE.INTRA.REPUL.0>
0

>  <SCORE.INTRA.SOLV>
2.42512

>  <SCORE.INTRA.SOLV.lig_0>
-50.1861

>  <SCORE.INTRA.VDW>
0.739837

>  <SCORE.INTRA.VDW.0>
-1.36671

>  <SCORE.INTRA.norm>
0.0882399

>  <SCORE.RESTR>
0

>  <SCORE.RESTR.CAVITY>
0

>  <SCORE.RESTR.norm>
0

>  <SCORE.SYSTEM>
0

>  <SCORE.SYSTEM.CONST>
0

>  <SCORE.SYSTEM.DIHEDRAL>
0

>  <SCORE.SYSTEM.SOLV>
0

>  <SCORE.SYSTEM.norm>
0

>  <SCORE.heavy>
14

>  <SCORE.norm>
-0.122243

>  <RMSD>
4.289

$$$$
ligand
 OpenBabel11021811393D
libRbt.so/2013.1/901 2013/11/27
 14 13  0  0  0  0  0  0  0  0999 V2000
    7.0032   -9.5909    7.9978 N   0  0  0  0  0  0  0  0  0  0  0  0
    5.7234   -8.9718    8.5605 C   0  0  0  0  0  0  0  0  0  0  0  0
    6.0378   -7.5357    8.7741 C   0  0  0  0  0  0  0  0  0  0  0  0
    4.9024   -6.7234    9.3755 C   0  0  0  0  0  0  0  0  0  0  0  0
    5.3844   -5.3512    9.6868 N   0  0  0  0  0  0  0  0  0  0  0  0
    4.4741   -4.3212    8.9938 C   0  0  0  0  0  0  0  0  0  0  0  0
    3.4252   -3.9675   10.1543 C   0  0  0  0  0  0  0  0  0  0  0  0
    2.6297   -3.0105    9.7422 C   0  0  0  0  0  0  0  0  0  0  0  0
    1.5859   -3.0722   11.0026 C   0  0  0  0  0  0  0  0  0  0  0  0
    0.6664   -1.8760   10.5843 N   0  0  0  0  0  0  0  0  0  0  0  0
    0.1109   -1.0480   11.8111 C   0  0  0  0  0  0  0  0  0  0  0  0
   -0.2473    0.4347   11.2271 C   0  0  0  0  0  0  0  0  0  0  0  0
   -1.4203    0.1848   10.3244 C   0  0  0  0  0  0  0  0  0  0  0  0
   -1.7194    1.5185    9.6813 N   0  0  0  0  0  0  0  0  0  0  0  0
  1  2  1  0  0  0  0
  2  3  1  0  0  0  0
  3  4  1  0  0  0  0
  4  5  1  0  0  0  0
  5  6  1  0  0  0  0
  6  7  1  0  0  0  0
  7  8  1  0  0  0  0
  8  9  1  0  0  0  0
  9 10  1  0  0  0  0
 10 11  1  0  0  0  0
 11 12  1  0  0  0  0
 12 13  1  0  0  0  0
 13 14  1  0  0  0  0
M  END
>  <CHROM.1>
-178.31124017,173.46915840,125.02685945,94.59367631,175.23355669,171.36364017
176.70701217,-145.21481369,156.44723137,68.40198724,-175.87877253,2.75398890
-3.80930312,9.85128527,0.22650442,0.87080299,-1.62353935

>  <Name>
ligand

>  <RI>
0

>  <Rbt.Current_Directory>
/home/itssahil/PROJECTS/Mol_Feturizer/New_Systems/rnas/1FUF

>  <Rbt.Executable>
rbdock ($Id: //depot/dev/client3/rdock/2013.1/src/exe/rbdock.cxx#4 $)

>  <Rbt.Library>
libRbt.so (2013.1, Build901 2013/11/27)

>  <Rbt.Parameter_File>
/export/apps/rDock/src/rDock_2013.1_src/data/scripts/dock_solv.prm

>  <Rbt.Receptor>
prm/pocket_docking_5.prm

>  <SCORE>
-1.61824

>  <SCORE.INTER>
1.07657

>  <SCORE.INTER.CONST>
1

>  <SCORE.INTER.POLAR>
0

>  <SCORE.INTER.ROT>
11

>  <SCORE.INTER.SOLV>
14.5542

>  <SCORE.INTER.VDW>
-15.067

>  <SCORE.INTER.norm>
0.076898

>  <SCORE.INTRA>
-2.69482

>  <SCORE.INTRA.DIHEDRAL>
-6.57277

>  <SCORE.INTRA.DIHEDRAL.0>
10.5765

>  <SCORE.INTRA.POLAR>
0

>  <SCORE.INTRA.POLAR.0>
0

>  <SCORE.INTRA.REPUL>
0

>  <SCORE.INTRA.REPUL.0>
0

>  <SCORE.INTRA.SOLV>
0.389154

>  <SCORE.INTRA.SOLV.lig_0>
-50.1861

>  <SCORE.INTRA.VDW>
0.396994

>  <SCORE.INTRA.VDW.0>
-1.36671

>  <SCORE.INTRA.norm>
-0.192487

>  <SCORE.RESTR>
0

>  <SCORE.RESTR.CAVITY>
0

>  <SCORE.RESTR.norm>
0

>  <SCORE.SYSTEM>
0

>  <SCORE.SYSTEM.CONST>
0

>  <SCORE.SYSTEM.DIHEDRAL>
0

>  <SCORE.SYSTEM.SOLV>
0

>  <SCORE.SYSTEM.norm>
0

>  <SCORE.heavy>
14

>  <SCORE.norm>
-0.115589

>  <RMSD>
4.291

$$$$
ligand
 OpenBabel11021811393D
libRbt.so/2013.1/901 2013/11/27
 14 13  0  0  0  0  0  0  0  0999 V2000
   -1.8051    0.7751    9.6998 N   0  0  0  0  0  0  0  0  0  0  0  0
   -0.9375    0.3296   10.8774 C   0  0  0  0  0  0  0  0  0  0  0  0
   -0.1677   -0.8406   10.3829 C   0  0  0  0  0  0  0  0  0  0  0  0
    0.7228   -1.4969   11.4255 C   0  0  0  0  0  0  0  0  0  0  0  0
    1.4966   -2.5994   10.7945 N   0  0  0  0  0  0  0  0  0  0  0  0
    2.8065   -2.0363   10.2142 C   0  0  0  0  0  0  0  0  0  0  0  0
    3.6920   -3.3619   10.0394 C   0  0  0  0  0  0  0  0  0  0  0  0
    3.9391   -3.8765   11.2195 C   0  0  0  0  0  0  0  0  0  0  0  0
    5.0113   -5.0070   10.7155 C   0  0  0  0  0  0  0  0  0  0  0  0
    4.0841   -6.2618   10.8457 N   0  0  0  0  0  0  0  0  0  0  0  0
    3.1213   -6.4662    9.6087 C   0  0  0  0  0  0  0  0  0  0  0  0
    4.0286   -7.1646    8.4438 C   0  0  0  0  0  0  0  0  0  0  0  0
    4.0163   -6.1545    7.3335 C   0  0  0  0  0  0  0  0  0  0  0  0
    5.1813   -5.2358    7.6178 N   0  0  0  0  0  0  0  0  0  0  0  0
  1  2  1  0  0  0  0
  2  3  1  0  0  0  0
  3  4  1  0  0  0  0
  4  5  1  0  0  0  0
  5  6  1  0  0  0  0
  6  7  1  0  0  0  0
  7  8  1  0  0  0  0
  8  9  1  0  0  0  0
  9 10  1  0  0  0  0
 10 11  1  0  0  0  0
 11 12  1  0  0  0  0
 12 13  1  0  0  0  0
 13 14  1  0  0  0  0
M  END
>  <CHROM.1>
-177.07764273,-176.74097382,88.15107752,161.89451083,-64.90777287,-171.46142433
-105.41475657,82.11581055,79.84323897,-117.53822820,88.29542990,2.51364482
-3.52842278,9.94424591,2.61836560,-0.75701877,1.12193563

>  <Name>
ligand

>  <RI>
0

>  <Rbt.Current_Directory>
/home/itssahil/PROJECTS/Mol_Feturizer/New_Systems/rnas/1FUF

>  <Rbt.Executable>
rbdock ($Id: //depot/dev/client3/rdock/2013.1/src/exe/rbdock.cxx#4 $)

>  <Rbt.Library>
libRbt.so (2013.1, Build901 2013/11/27)

>  <Rbt.Parameter_File>
/export/apps/rDock/src/rDock_2013.1_src/data/scripts/dock_solv.prm

>  <Rbt.Receptor>
prm/blind_docking_80.prm

>  <SCORE>
2.66121

>  <SCORE.INTER>
-2.94751

>  <SCORE.INTER.CONST>
1

>  <SCORE.INTER.POLAR>
0

>  <SCORE.INTER.ROT>
11

>  <SCORE.INTER.SOLV>
18.4714

>  <SCORE.INTER.VDW>
-19.0555

>  <SCORE.INTER.norm>
-0.210536

>  <SCORE.INTRA>
5.60872

>  <SCORE.INTRA.DIHEDRAL>
4.09893

>  <SCORE.INTRA.DIHEDRAL.0>
10.5765

>  <SCORE.INTRA.POLAR>
0

>  <SCORE.INTRA.POLAR.0>
0

>  <SCORE.INTRA.REPUL>
0

>  <SCORE.INTRA.REPUL.0>
0

>  <SCORE.INTRA.SOLV>
4.82823

>  <SCORE.INTRA.SOLV.lig_0>
-50.1861

>  <SCORE.INTRA.VDW>
1.14514

>  <SCORE.INTRA.VDW.0>
-1.36671

>  <SCORE.INTRA.norm>
0.400623

>  <SCORE.RESTR>
0

>  <SCORE.RESTR.CAVITY>
0

>  <SCORE.RESTR.norm>
0

>  <SCORE.SYSTEM>
0

>  <SCORE.SYSTEM.CONST>
0

>  <SCORE.SYSTEM.DIHEDRAL>
0

>  <SCORE.SYSTEM.SOLV>
0

>  <SCORE.SYSTEM.norm>
0

>  <SCORE.heavy>
14

>  <SCORE.norm>
0.190087

>  <RMSD>
4.309

$$$$
ligand
 OpenBabel11021811393D
libRbt.so/2013.1/901 2013/11/27
 14 13  0  0  0  0  0  0  0  0999 V2000
    7.2326   -5.5989    6.6233 N   0  0  0  0  0  0  0  0  0  0  0  0
    6.5622   -5.6109    7.9975 C   0  0  0  0  0  0  0  0  0  0  0  0
    5.8901   -6.9317    8.0997 C   0  0  0  0  0  0  0  0  0  0  0  0
    5.1563   -7.1671    9.4099 C   0  0  0  0  0  0  0  0  0  0  0  0
    4.0551   -6.1766    9.5472 N   0  0  0  0  0  0  0  0  0  0  0  0
    3.3455   -6.3863   10.8971 C   0  0  0  0  0  0  0  0  0  0  0  0
    2.1309   -5.3435   10.8019 C   0  0  0  0  0  0  0  0  0  0  0  0
    2.6009   -4.1224   10.8838 C   0  0  0  0  0  0  0  0  0  0  0  0
    1.1843   -3.3518   10.5991 C   0  0  0  0  0  0  0  0  0  0  0  0
    1.7053   -1.8809   10.7281 N   0  0  0  0  0  0  0  0  0  0  0  0
    0.6126   -0.8684   11.2571 C   0  0  0  0  0  0  0  0  0  0  0  0
   -0.2593   -0.4245    9.9492 C   0  0  0  0  0  0  0  0  0  0  0  0
   -1.4202    0.3245   10.5362 C   0  0  0  0  0  0  0  0  0  0  0  0
   -0.8325    1.6030   11.0858 N   0  0  0  0  0  0  0  0  0  0  0  0
  1  2  1  0  0  0  0
  2  3  1  0  0  0  0
  3  4  1  0  0  0  0
  4  5  1  0  0  0  0
  5  6  1  0  0  0  0
  6  7  1  0  0  0  0
  7  8  1  0  0  0  0
  8  9  1  0  0  0  0
  9 10  1  0  0  0  0
 10 11  1  0  0  0  0
 11 12  1  0  0  0  0
 12 13  1  0  0  0  0
 13 14  1  0  0  0  0
M  END
>  <CHROM.1>
179.62667754,62.98727631,-178.04370601,-174.93374886,-70.62117650,174.33570389
178.57596022,-149.88760011,-83.60677504,170.02315382,69.32423824,2.71155824
-3.70997917,9.88701338,-0.54164477,0.67175026,-0.45182236

>  <Name>
ligand

>  <RI>
0

>  <Rbt.Current_Directory>
/home/itssahil/PROJECTS/Mol_Feturizer/New_Systems/rnas/1FUF

>  <Rbt.Executable>
rbdock ($Id: //depot/dev/client3/rdock/2013.1/src/exe/rbdock.cxx#4 $)

>  <Rbt.Library>
libRbt.so (2013.1, Build901 2013/11/27)

>  <Rbt.Parameter_File>
/export/apps/rDock/src/rDock_2013.1_src/data/scripts/dock_solv.prm

>  <Rbt.Receptor>
prm/blind_docking_40.prm

>  <SCORE>
-1.98745

>  <SCORE.INTER>
0.494373

>  <SCORE.INTER.CONST>
1

>  <SCORE.INTER.POLAR>
0

>  <SCORE.INTER.ROT>
11

>  <SCORE.INTER.SOLV>
16.3775

>  <SCORE.INTER.VDW>
-16.0629

>  <SCORE.INTER.norm>
0.0353123

>  <SCORE.INTRA>
-2.48182

>  <SCORE.INTRA.DIHEDRAL>
-8.26398

>  <SCORE.INTRA.DIHEDRAL.0>
10.5765

>  <SCORE.INTRA.POLAR>
0

>  <SCORE.INTRA.POLAR.0>
0

>  <SCORE.INTRA.REPUL>
0

>  <SCORE.INTRA.REPUL.0>
0

>  <SCORE.INTRA.SOLV>
1.5663

>  <SCORE.INTRA.SOLV.lig_0>
-50.1861

>  <SCORE.INTRA.VDW>
0.867021

>  <SCORE.INTRA.VDW.0>
-1.36671

>  <SCORE.INTRA.norm>
-0.177273

>  <SCORE.RESTR>
0

>  <SCORE.RESTR.CAVITY>
0

>  <SCORE.RESTR.norm>
0

>  <SCORE.SYSTEM>
0

>  <SCORE.SYSTEM.CONST>
0

>  <SCORE.SYSTEM.DIHEDRAL>
0

>  <SCORE.SYSTEM.SOLV>
0

>  <SCORE.SYSTEM.norm>
0

>  <SCORE.heavy>
14

>  <SCORE.norm>
-0.14196

>  <RMSD>
4.325

$$$$
ligand
 OpenBabel11021811393D
libRbt.so/2013.1/901 2013/11/27
 14 13  0  0  0  0  0  0  0  0999 V2000
   -1.9026    1.1239    9.0826 N   0  0  0  0  0  0  0  0  0  0  0  0
   -1.7314    1.0497   10.6003 C   0  0  0  0  0  0  0  0  0  0  0  0
   -1.2144   -0.3155   10.8751 C   0  0  0  0  0  0  0  0  0  0  0  0
    0.1914   -0.5742   10.3582 C   0  0  0  0  0  0  0  0  0  0  0  0
    0.6019   -1.9603   10.7082 N   0  0  0  0  0  0  0  0  0  0  0  0
    2.1007   -2.1402   10.4062 C   0  0  0  0  0  0  0  0  0  0  0  0
    2.2558   -3.7364   10.4225 C   0  0  0  0  0  0  0  0  0  0  0  0
    3.4811   -4.0560   10.0831 C   0  0  0  0  0  0  0  0  0  0  0  0
    3.2617   -5.6788   10.0770 C   0  0  0  0  0  0  0  0  0  0  0  0
    4.6217   -6.0812    9.4139 N   0  0  0  0  0  0  0  0  0  0  0  0
    4.5484   -7.4294    8.5915 C   0  0  0  0  0  0  0  0  0  0  0  0
    5.9617   -8.2007    8.8663 C   0  0  0  0  0  0  0  0  0  0  0  0
    5.8058   -9.4977    8.1270 C   0  0  0  0  0  0  0  0  0  0  0  0
    7.0778  -10.2661    8.3978 N   0  0  0  0  0  0  0  0  0  0  0  0
  1  2  1  0  0  0  0
  2  3  1  0  0  0  0
  3  4  1  0  0  0  0
  4  5  1  0  0  0  0
  5  6  1  0  0  0  0
  6  7  1  0  0  0  0
  7  8  1  0  0  0  0
  8  9  1  0  0  0  0
  9 10  1  0  0  0  0
 10 11  1  0  0  0  0
 11 12  1  0  0  0  0
 12 13  1  0  0  0  0
 13 14  1  0  0  0  0
M  END
>  <CHROM.1>
67.40850567,179.24737399,-170.20593442,-164.10356406,175.56621638,-175.56913553
169.79369099,-151.44147746,-141.71758492,177.02974891,-178.01668893,2.50422301
-4.12584183,9.71510564,2.49616278,-0.71519630,0.90077695

>  <Name>
ligand

>  <RI>
0

>  <Rbt.Current_Directory>
/home/itssahil/PROJECTS/Mol_Feturizer/New_Systems/rnas/1FUF

>  <Rbt.Executable>
rbdock ($Id: //depot/dev/client3/rdock/2013.1/src/exe/rbdock.cxx#4 $)

>  <Rbt.Library>
libRbt.so (2013.1, Build901 2013/11/27)

>  <Rbt.Parameter_File>
/export/apps/rDock/src/rDock_2013.1_src/data/scripts/dock_solv.prm

>  <Rbt.Receptor>
prm/pocket_docking_8.prm

>  <SCORE>
-4.99155

>  <SCORE.INTER>
-1.44679

>  <SCORE.INTER.CONST>
1

>  <SCORE.INTER.POLAR>
0

>  <SCORE.INTER.ROT>
11

>  <SCORE.INTER.SOLV>
14.1229

>  <SCORE.INTER.VDW>
-16.6055

>  <SCORE.INTER.norm>
-0.103342

>  <SCORE.INTRA>
-3.54476

>  <SCORE.INTRA.DIHEDRAL>
-8.10008

>  <SCORE.INTRA.DIHEDRAL.0>
10.5765

>  <SCORE.INTRA.POLAR>
0

>  <SCORE.INTRA.POLAR.0>
0

>  <SCORE.INTRA.REPUL>
0

>  <SCORE.INTRA.REPUL.0>
0

>  <SCORE.INTRA.SOLV>
0.690606

>  <SCORE.INTRA.SOLV.lig_0>
-50.1861

>  <SCORE.INTRA.VDW>
0.159978

>  <SCORE.INTRA.VDW.0>
-1.36671

>  <SCORE.INTRA.norm>
-0.253197

>  <SCORE.RESTR>
0

>  <SCORE.RESTR.CAVITY>
0

>  <SCORE.RESTR.norm>
0

>  <SCORE.SYSTEM>
0

>  <SCORE.SYSTEM.CONST>
0

>  <SCORE.SYSTEM.DIHEDRAL>
0

>  <SCORE.SYSTEM.SOLV>
0

>  <SCORE.SYSTEM.norm>
0

>  <SCORE.heavy>
14

>  <SCORE.norm>
-0.356539

>  <RMSD>
4.333

$$$$
ligand
 OpenBabel11021811393D
libRbt.so/2013.1/901 2013/11/27
 14 13  0  0  0  0  0  0  0  0999 V2000
   -1.8477    1.0367   10.2270 N   0  0  0  0  0  0  0  0  0  0  0  0
   -0.6736    0.0963    9.9525 C   0  0  0  0  0  0  0  0  0  0  0  0
   -0.3240   -0.4967   11.2688 C   0  0  0  0  0  0  0  0  0  0  0  0
    0.8645   -1.4440   11.2389 C   0  0  0  0  0  0  0  0  0  0  0  0
    0.5950   -2.5486   10.2800 N   0  0  0  0  0  0  0  0  0  0  0  0
    1.4513   -3.7713   10.6564 C   0  0  0  0  0  0  0  0  0  0  0  0
    2.8381   -3.4481    9.9185 C   0  0  0  0  0  0  0  0  0  0  0  0
    3.6481   -4.4702   10.0518 C   0  0  0  0  0  0  0  0  0  0  0  0
    4.9181   -3.8145    9.2525 C   0  0  0  0  0  0  0  0  0  0  0  0
    5.7398   -5.1287    9.0311 N   0  0  0  0  0  0  0  0  0  0  0  0
    5.3821   -5.8777    7.6857 C   0  0  0  0  0  0  0  0  0  0  0  0
    6.3475   -5.2282    6.5395 C   0  0  0  0  0  0  0  0  0  0  0  0
    7.6476   -5.9570    6.7182 C   0  0  0  0  0  0  0  0  0  0  0  0
    8.2257   -5.4295    8.0102 N   0  0  0  0  0  0  0  0  0  0  0  0
  1  2  1  0  0  0  0
  2  3  1  0  0  0  0
  3  4  1  0  0  0  0
  4  5  1  0  0  0  0
  5  6  1  0  0  0  0
  6  7  1  0  0  0  0
  7  8  1  0  0  0  0
  8  9  1  0  0  0  0
  9 10  1  0  0  0  0
 10 11  1  0  0  0  0
 11 12  1  0  0  0  0
 12 13  1  0  0  0  0
 13 14  1  0  0  0  0
M  END
>  <CHROM.1>
-178.13311499,-57.86570208,-156.30966581,-85.10117742,-174.54106928,-178.68427843
-164.58357641,89.63976943,87.77768807,81.88181417,-71.51762053,3.20090785
-3.32022536,9.34506292,-3.05919797,-0.66895179,2.24038389

>  <Name>
ligand

>  <RI>
0

>  <Rbt.Current_Directory>
/home/itssahil/PROJECTS/Mol_Feturizer/New_Systems/rnas/1FUF

>  <Rbt.Executable>
rbdock ($Id: //depot/dev/client3/rdock/2013.1/src/exe/rbdock.cxx#4 $)

>  <Rbt.Library>
libRbt.so (2013.1, Build901 2013/11/27)

>  <Rbt.Parameter_File>
/export/apps/rDock/src/rDock_2013.1_src/data/scripts/dock_solv.prm

>  <Rbt.Receptor>
prm/pocket_docking_7.prm

>  <SCORE>
0.78769

>  <SCORE.INTER>
0.5157

>  <SCORE.INTER.CONST>
1

>  <SCORE.INTER.POLAR>
0

>  <SCORE.INTER.ROT>
11

>  <SCORE.INTER.SOLV>
16.3586

>  <SCORE.INTER.VDW>
-16.0424

>  <SCORE.INTER.norm>
0.0368357

>  <SCORE.INTRA>
0.271989

>  <SCORE.INTRA.DIHEDRAL>
-5.49459

>  <SCORE.INTRA.DIHEDRAL.0>
10.5765

>  <SCORE.INTRA.POLAR>
0

>  <SCORE.INTRA.POLAR.0>
0

>  <SCORE.INTRA.REPUL>
0

>  <SCORE.INTRA.REPUL.0>
0

>  <SCORE.INTRA.SOLV>
3.69976

>  <SCORE.INTRA.SOLV.lig_0>
-50.1861

>  <SCORE.INTRA.VDW>
1.1694

>  <SCORE.INTRA.VDW.0>
-1.36671

>  <SCORE.INTRA.norm>
0.0194278

>  <SCORE.RESTR>
0

>  <SCORE.RESTR.CAVITY>
0

>  <SCORE.RESTR.norm>
0

>  <SCORE.SYSTEM>
0

>  <SCORE.SYSTEM.CONST>
0

>  <SCORE.SYSTEM.DIHEDRAL>
0

>  <SCORE.SYSTEM.SOLV>
0

>  <SCORE.SYSTEM.norm>
0

>  <SCORE.heavy>
14

>  <SCORE.norm>
0.0562635

>  <RMSD>
4.334

$$$$
ligand
 OpenBabel11021811393D
libRbt.so/2013.1/901 2013/11/27
 14 13  0  0  0  0  0  0  0  0999 V2000
   -2.2099    0.0408   10.1966 N   0  0  0  0  0  0  0  0  0  0  0  0
   -0.9642    0.6881   10.8026 C   0  0  0  0  0  0  0  0  0  0  0  0
   -0.2136   -0.4208   11.4456 C   0  0  0  0  0  0  0  0  0  0  0  0
    0.4201   -1.4019   10.4727 C   0  0  0  0  0  0  0  0  0  0  0  0
    1.1687   -2.4396   11.2310 N   0  0  0  0  0  0  0  0  0  0  0  0
    1.9080   -3.3598   10.2427 C   0  0  0  0  0  0  0  0  0  0  0  0
    2.3189   -4.5950   11.1793 C   0  0  0  0  0  0  0  0  0  0  0  0
    3.0212   -5.4536   10.4806 C   0  0  0  0  0  0  0  0  0  0  0  0
    4.4817   -4.7569   10.7319 C   0  0  0  0  0  0  0  0  0  0  0  0
    5.3235   -5.6589    9.7680 N   0  0  0  0  0  0  0  0  0  0  0  0
    5.4929   -5.0486    8.3196 C   0  0  0  0  0  0  0  0  0  0  0  0
    6.6546   -5.9361    7.5911 C   0  0  0  0  0  0  0  0  0  0  0  0
    6.7187   -5.3642    6.2047 C   0  0  0  0  0  0  0  0  0  0  0  0
    7.8371   -6.1112    5.5169 N   0  0  0  0  0  0  0  0  0  0  0  0
  1  2  1  0  0  0  0
  2  3  1  0  0  0  0
  3  4  1  0  0  0  0
  4  5  1  0  0  0  0
  5  6  1  0  0  0  0
  6  7  1  0  0  0  0
  7  8  1  0  0  0  0
  8  9  1  0  0  0  0
  9 10  1  0  0  0  0
 10 11  1  0  0  0  0
 11 12  1  0  0  0  0
 12 13  1  0  0  0  0
 13 14  1  0  0  0  0
M  END
>  <CHROM.1>
70.10781135,178.53124299,-175.18426686,-165.91111793,-177.20559217,87.04581282
-173.52934687,94.00259173,167.38200557,177.01105225,177.06600290,2.99697634
-3.55839921,9.58468704,3.13259484,-0.71679427,2.15400932

>  <Name>
ligand

>  <RI>
0

>  <Rbt.Current_Directory>
/home/itssahil/PROJECTS/Mol_Feturizer/New_Systems/rnas/1FUF

>  <Rbt.Executable>
rbdock ($Id: //depot/dev/client3/rdock/2013.1/src/exe/rbdock.cxx#4 $)

>  <Rbt.Library>
libRbt.so (2013.1, Build901 2013/11/27)

>  <Rbt.Parameter_File>
/export/apps/rDock/src/rDock_2013.1_src/data/scripts/dock_solv.prm

>  <Rbt.Receptor>
prm/pocket_docking_7.prm

>  <SCORE>
-1.38024

>  <SCORE.INTER>
-0.0775765

>  <SCORE.INTER.CONST>
1

>  <SCORE.INTER.POLAR>
0

>  <SCORE.INTER.ROT>
11

>  <SCORE.INTER.SOLV>
17.2312

>  <SCORE.INTER.VDW>
-16.7288

>  <SCORE.INTER.norm>
-0.00554118

>  <SCORE.INTRA>
-1.30266

>  <SCORE.INTRA.DIHEDRAL>
-6.32349

>  <SCORE.INTRA.DIHEDRAL.0>
10.5765

>  <SCORE.INTRA.POLAR>
0

>  <SCORE.INTRA.POLAR.0>
0

>  <SCORE.INTRA.REPUL>
0

>  <SCORE.INTRA.REPUL.0>
0

>  <SCORE.INTRA.SOLV>
1.06122

>  <SCORE.INTRA.SOLV.lig_0>
-50.1861

>  <SCORE.INTRA.VDW>
1.32847

>  <SCORE.INTRA.VDW.0>
-1.36671

>  <SCORE.INTRA.norm>
-0.0930473

>  <SCORE.RESTR>
0

>  <SCORE.RESTR.CAVITY>
0

>  <SCORE.RESTR.norm>
0

>  <SCORE.SYSTEM>
0

>  <SCORE.SYSTEM.CONST>
0

>  <SCORE.SYSTEM.DIHEDRAL>
0

>  <SCORE.SYSTEM.SOLV>
0

>  <SCORE.SYSTEM.norm>
0

>  <SCORE.heavy>
14

>  <SCORE.norm>
-0.0985885

>  <RMSD>
4.338

$$$$
ligand
 OpenBabel11021811393D
libRbt.so/2013.1/901 2013/11/27
 14 13  0  0  0  0  0  0  0  0999 V2000
   -1.1579    1.8608   11.0814 N   0  0  0  0  0  0  0  0  0  0  0  0
   -1.2120    0.4133   10.5917 C   0  0  0  0  0  0  0  0  0  0  0  0
    0.0688   -0.2009   11.0266 C   0  0  0  0  0  0  0  0  0  0  0  0
    0.1973   -1.6826   10.7122 C   0  0  0  0  0  0  0  0  0  0  0  0
    1.4952   -2.1898   11.2323 N   0  0  0  0  0  0  0  0  0  0  0  0
    2.5625   -2.0876   10.1277 C   0  0  0  0  0  0  0  0  0  0  0  0
    3.6327   -3.1872   10.5940 C   0  0  0  0  0  0  0  0  0  0  0  0
    3.1254   -4.3842   10.4253 C   0  0  0  0  0  0  0  0  0  0  0  0
    4.4349   -5.2222   10.9397 C   0  0  0  0  0  0  0  0  0  0  0  0
    3.9116   -6.6632   10.6219 N   0  0  0  0  0  0  0  0  0  0  0  0
    4.7613   -7.4148    9.5208 C   0  0  0  0  0  0  0  0  0  0  0  0
    4.0033   -7.1365    8.1010 C   0  0  0  0  0  0  0  0  0  0  0  0
    4.4630   -5.7596    7.7191 C   0  0  0  0  0  0  0  0  0  0  0  0
    5.9245   -5.9105    7.3684 N   0  0  0  0  0  0  0  0  0  0  0  0
  1  2  1  0  0  0  0
  2  3  1  0  0  0  0
  3  4  1  0  0  0  0
  4  5  1  0  0  0  0
  5  6  1  0  0  0  0
  6  7  1  0  0  0  0
  7  8  1  0  0  0  0
  8  9  1  0  0  0  0
  9 10  1  0  0  0  0
 10 11  1  0  0  0  0
 11 12  1  0  0  0  0
 12 13  1  0  0  0  0
 13 14  1  0  0  0  0
M  END
>  <CHROM.1>
176.55951274,-178.17733184,-92.04102892,-156.88808738,70.67551642,178.67026383
-174.88631103,116.03061478,-94.22444420,80.20249933,69.63755939,2.58647823
-3.54048053,10.00440687,-3.10405943,-0.93922623,1.91325623

>  <Name>
ligand

>  <RI>
0

>  <Rbt.Current_Directory>
/home/itssahil/PROJECTS/Mol_Feturizer/New_Systems/rnas/1FUF

>  <Rbt.Executable>
rbdock ($Id: //depot/dev/client3/rdock/2013.1/src/exe/rbdock.cxx#4 $)

>  <Rbt.Library>
libRbt.so (2013.1, Build901 2013/11/27)

>  <Rbt.Parameter_File>
/export/apps/rDock/src/rDock_2013.1_src/data/scripts/dock_solv.prm

>  <Rbt.Receptor>
prm/blind_docking_100.prm

>  <SCORE>
-2.72412

>  <SCORE.INTER>
-2.30792

>  <SCORE.INTER.CONST>
1

>  <SCORE.INTER.POLAR>
0

>  <SCORE.INTER.ROT>
11

>  <SCORE.INTER.SOLV>
19.4906

>  <SCORE.INTER.VDW>
-18.9688

>  <SCORE.INTER.norm>
-0.164851

>  <SCORE.INTRA>
-0.4162

>  <SCORE.INTRA.DIHEDRAL>
-5.273

>  <SCORE.INTRA.DIHEDRAL.0>
10.5765

>  <SCORE.INTRA.POLAR>
0

>  <SCORE.INTRA.POLAR.0>
0

>  <SCORE.INTRA.REPUL>
0

>  <SCORE.INTRA.REPUL.0>
0

>  <SCORE.INTRA.SOLV>
2.73507

>  <SCORE.INTRA.SOLV.lig_0>
-50.1861

>  <SCORE.INTRA.VDW>
0.852769

>  <SCORE.INTRA.VDW.0>
-1.36671

>  <SCORE.INTRA.norm>
-0.0297286

>  <SCORE.RESTR>
0

>  <SCORE.RESTR.CAVITY>
0

>  <SCORE.RESTR.norm>
0

>  <SCORE.SYSTEM>
0

>  <SCORE.SYSTEM.CONST>
0

>  <SCORE.SYSTEM.DIHEDRAL>
0

>  <SCORE.SYSTEM.SOLV>
0

>  <SCORE.SYSTEM.norm>
0

>  <SCORE.heavy>
14

>  <SCORE.norm>
-0.19458

>  <RMSD>
4.340

$$$$
ligand
 OpenBabel11021811393D
libRbt.so/2013.1/901 2013/11/27
 14 13  0  0  0  0  0  0  0  0999 V2000
    1.8610   -3.1062   10.9453 N   0  0  0  0  0  0  0  0  0  0  0  0
    1.5963   -1.6887   10.4368 C   0  0  0  0  0  0  0  0  0  0  0  0
    0.6812   -1.0742   11.4327 C   0  0  0  0  0  0  0  0  0  0  0  0
    0.2808    0.3589   11.1224 C   0  0  0  0  0  0  0  0  0  0  0  0
   -0.5995    0.3801    9.9236 N   0  0  0  0  0  0  0  0  0  0  0  0
   -2.0552    0.1257   10.3551 C   0  0  0  0  0  0  0  0  0  0  0  0
   -2.8800    0.7144    9.1121 C   0  0  0  0  0  0  0  0  0  0  0  0
   -2.8183    2.0238    9.1324 C   0  0  0  0  0  0  0  0  0  0  0  0
   -3.7057    2.2790    7.7799 C   0  0  0  0  0  0  0  0  0  0  0  0
   -5.1248    2.0632    8.4051 N   0  0  0  0  0  0  0  0  0  0  0  0
   -5.7124    3.3566    9.0986 C   0  0  0  0  0  0  0  0  0  0  0  0
   -7.3306    3.2827    8.8897 C   0  0  0  0  0  0  0  0  0  0  0  0
   -7.5074    3.5122    7.4168 C   0  0  0  0  0  0  0  0  0  0  0  0
   -8.9984    3.6364    7.2090 N   0  0  0  0  0  0  0  0  0  0  0  0
  1  2  1  0  0  0  0
  2  3  1  0  0  0  0
  3  4  1  0  0  0  0
  4  5  1  0  0  0  0
  5  6  1  0  0  0  0
  6  7  1  0  0  0  0
  7  8  1  0  0  0  0
  8  9  1  0  0  0  0
  9 10  1  0  0  0  0
 10 11  1  0  0  0  0
 11 12  1  0  0  0  0
 12 13  1  0  0  0  0
 13 14  1  0  0  0  0
M  END
>  <CHROM.1>
179.95714902,68.90966573,85.19176021,159.64856464,-72.72596165,179.29304057
78.82497181,84.35545029,147.49246306,-69.56055557,-172.62847550,-3.02227364
1.13328508,9.37578560,0.30942567,0.51390686,-2.69671061

>  <Name>
ligand

>  <RI>
0

>  <Rbt.Current_Directory>
/home/itssahil/PROJECTS/Mol_Feturizer/New_Systems/rnas/1FUF

>  <Rbt.Executable>
rbdock ($Id: //depot/dev/client3/rdock/2013.1/src/exe/rbdock.cxx#4 $)

>  <Rbt.Library>
libRbt.so (2013.1, Build901 2013/11/27)

>  <Rbt.Parameter_File>
/export/apps/rDock/src/rDock_2013.1_src/data/scripts/dock_solv.prm

>  <Rbt.Receptor>
prm/blind_docking_100.prm

>  <SCORE>
0.847315

>  <SCORE.INTER>
1.13279

>  <SCORE.INTER.CONST>
1

>  <SCORE.INTER.POLAR>
0

>  <SCORE.INTER.ROT>
11

>  <SCORE.INTER.SOLV>
14.9734

>  <SCORE.INTER.VDW>
-15.1693

>  <SCORE.INTER.norm>
0.0809138

>  <SCORE.INTRA>
-0.285479

>  <SCORE.INTRA.DIHEDRAL>
-6.04778

>  <SCORE.INTRA.DIHEDRAL.0>
10.5765

>  <SCORE.INTRA.POLAR>
0

>  <SCORE.INTRA.POLAR.0>
0

>  <SCORE.INTRA.REPUL>
0

>  <SCORE.INTRA.REPUL.0>
0

>  <SCORE.INTRA.SOLV>
1.52239

>  <SCORE.INTRA.SOLV.lig_0>
-50.1861

>  <SCORE.INTRA.VDW>
1.97722

>  <SCORE.INTRA.VDW.0>
-1.36671

>  <SCORE.INTRA.norm>
-0.0203914

>  <SCORE.RESTR>
0

>  <SCORE.RESTR.CAVITY>
0

>  <SCORE.RESTR.norm>
0

>  <SCORE.SYSTEM>
0

>  <SCORE.SYSTEM.CONST>
0

>  <SCORE.SYSTEM.DIHEDRAL>
0

>  <SCORE.SYSTEM.SOLV>
0

>  <SCORE.SYSTEM.norm>
0

>  <SCORE.heavy>
14

>  <SCORE.norm>
0.0605225

>  <RMSD>
4.388

$$$$
ligand
 OpenBabel11021811393D
libRbt.so/2013.1/901 2013/11/27
 14 13  0  0  0  0  0  0  0  0999 V2000
   -1.6381    0.5611    9.2522 N   0  0  0  0  0  0  0  0  0  0  0  0
   -1.3928    0.8584   10.7319 C   0  0  0  0  0  0  0  0  0  0  0  0
   -0.0510    0.2964   11.0325 C   0  0  0  0  0  0  0  0  0  0  0  0
    0.0349   -1.2182   10.9380 C   0  0  0  0  0  0  0  0  0  0  0  0
    1.3545   -1.6737   11.4514 N   0  0  0  0  0  0  0  0  0  0  0  0
    2.3206   -1.8731   10.2696 C   0  0  0  0  0  0  0  0  0  0  0  0
    2.6083   -3.4494   10.3351 C   0  0  0  0  0  0  0  0  0  0  0  0
    3.3605   -3.7951    9.3186 C   0  0  0  0  0  0  0  0  0  0  0  0
    3.4056   -5.3983    9.6493 C   0  0  0  0  0  0  0  0  0  0  0  0
    4.1729   -5.8651    8.3668 N   0  0  0  0  0  0  0  0  0  0  0  0
    4.2639   -7.4367    8.2227 C   0  0  0  0  0  0  0  0  0  0  0  0
    5.7279   -7.8579    8.8117 C   0  0  0  0  0  0  0  0  0  0  0  0
    5.7919   -9.3385    8.5734 C   0  0  0  0  0  0  0  0  0  0  0  0
    7.1310   -9.7727    9.1212 N   0  0  0  0  0  0  0  0  0  0  0  0
  1  2  1  0  0  0  0
  2  3  1  0  0  0  0
  3  4  1  0  0  0  0
  4  5  1  0  0  0  0
  5  6  1  0  0  0  0
  6  7  1  0  0  0  0
  7  8  1  0  0  0  0
  8  9  1  0  0  0  0
  9 10  1  0  0  0  0
 10 11  1  0  0  0  0
 11 12  1  0  0  0  0
 12 13  1  0  0  0  0
 13 14  1  0  0  0  0
M  END
>  <CHROM.1>
-66.04737068,-171.66927431,-96.56133853,-116.04648682,175.81231199,-177.94975778
174.34063001,-172.77503628,-97.22632567,-176.66565462,-179.36952718,2.64924786
-3.99727379,9.71966458,2.46484603,-0.72817304,0.90584036

>  <Name>
ligand

>  <RI>
0

>  <Rbt.Current_Directory>
/home/itssahil/PROJECTS/Mol_Feturizer/New_Systems/rnas/1FUF

>  <Rbt.Executable>
rbdock ($Id: //depot/dev/client3/rdock/2013.1/src/exe/rbdock.cxx#4 $)

>  <Rbt.Library>
libRbt.so (2013.1, Build901 2013/11/27)

>  <Rbt.Parameter_File>
/export/apps/rDock/src/rDock_2013.1_src/data/scripts/dock_solv.prm

>  <Rbt.Receptor>
prm/pocket_docking_7.prm

>  <SCORE>
-3.94638

>  <SCORE.INTER>
-1.06645

>  <SCORE.INTER.CONST>
1

>  <SCORE.INTER.POLAR>
0

>  <SCORE.INTER.ROT>
11

>  <SCORE.INTER.SOLV>
16.9758

>  <SCORE.INTER.VDW>
-17.3029

>  <SCORE.INTER.norm>
-0.0761752

>  <SCORE.INTRA>
-2.87993

>  <SCORE.INTRA.DIHEDRAL>
-7.08003

>  <SCORE.INTRA.DIHEDRAL.0>
10.5765

>  <SCORE.INTRA.POLAR>
0

>  <SCORE.INTRA.POLAR.0>
0

>  <SCORE.INTRA.REPUL>
0

>  <SCORE.INTRA.REPUL.0>
0

>  <SCORE.INTRA.SOLV>
0.670098

>  <SCORE.INTRA.SOLV.lig_0>
-50.1861

>  <SCORE.INTRA.VDW>
0.325039

>  <SCORE.INTRA.VDW.0>
-1.36671

>  <SCORE.INTRA.norm>
-0.205709

>  <SCORE.RESTR>
0

>  <SCORE.RESTR.CAVITY>
0

>  <SCORE.RESTR.norm>
0

>  <SCORE.SYSTEM>
0

>  <SCORE.SYSTEM.CONST>
0

>  <SCORE.SYSTEM.DIHEDRAL>
0

>  <SCORE.SYSTEM.SOLV>
0

>  <SCORE.SYSTEM.norm>
0

>  <SCORE.heavy>
14

>  <SCORE.norm>
-0.281884

>  <RMSD>
4.441

$$$$
ligand
 OpenBabel11021811393D
libRbt.so/2013.1/901 2013/11/27
 14 13  0  0  0  0  0  0  0  0999 V2000
   -2.1520    0.8390    9.6260 N   0  0  0  0  0  0  0  0  0  0  0  0
   -1.1250    0.6159   10.7366 C   0  0  0  0  0  0  0  0  0  0  0  0
   -0.2834   -0.5186   10.2770 C   0  0  0  0  0  0  0  0  0  0  0  0
    0.8044   -0.9342   11.2539 C   0  0  0  0  0  0  0  0  0  0  0  0
    1.5728   -2.0741   10.6860 N   0  0  0  0  0  0  0  0  0  0  0  0
    2.7136   -2.4505   11.6486 C   0  0  0  0  0  0  0  0  0  0  0  0
    3.2407   -3.8285   11.0199 C   0  0  0  0  0  0  0  0  0  0  0  0
    3.8239   -3.5855    9.8712 C   0  0  0  0  0  0  0  0  0  0  0  0
    4.2330   -5.1345    9.5320 C   0  0  0  0  0  0  0  0  0  0  0  0
    4.9394   -4.8787    8.1583 N   0  0  0  0  0  0  0  0  0  0  0  0
    6.0203   -5.9723    7.7911 C   0  0  0  0  0  0  0  0  0  0  0  0
    6.8433   -5.3785    6.5113 C   0  0  0  0  0  0  0  0  0  0  0  0
    7.8661   -6.4395    6.2261 C   0  0  0  0  0  0  0  0  0  0  0  0
    8.6998   -5.8943    5.0905 N   0  0  0  0  0  0  0  0  0  0  0  0
  1  2  1  0  0  0  0
  2  3  1  0  0  0  0
  3  4  1  0  0  0  0
  4  5  1  0  0  0  0
  5  6  1  0  0  0  0
  6  7  1  0  0  0  0
  7  8  1  0  0  0  0
  8  9  1  0  0  0  0
  9 10  1  0  0  0  0
 10 11  1  0  0  0  0
 11 12  1  0  0  0  0
 12 13  1  0  0  0  0
 13 14  1  0  0  0  0
M  END
>  <CHROM.1>
-178.91326435,179.87165154,177.43587695,170.05213666,68.89190796,179.57336338
-179.87287013,154.20897857,-168.69519395,178.92747072,-177.06662318,3.37125421
-3.25970660,9.17377327,2.91317744,-0.70515523,1.84877909

>  <Name>
ligand

>  <RI>
0

>  <Rbt.Current_Directory>
/home/itssahil/PROJECTS/Mol_Feturizer/New_Systems/rnas/1FUF

>  <Rbt.Executable>
rbdock ($Id: //depot/dev/client3/rdock/2013.1/src/exe/rbdock.cxx#4 $)

>  <Rbt.Library>
libRbt.so (2013.1, Build901 2013/11/27)

>  <Rbt.Parameter_File>
/export/apps/rDock/src/rDock_2013.1_src/data/scripts/dock_solv.prm

>  <Rbt.Receptor>
prm/blind_docking_60.prm

>  <SCORE>
-3.54542

>  <SCORE.INTER>
0.674675

>  <SCORE.INTER.CONST>
1

>  <SCORE.INTER.POLAR>
0

>  <SCORE.INTER.ROT>
11

>  <SCORE.INTER.SOLV>
16.3461

>  <SCORE.INTER.VDW>
-15.9323

>  <SCORE.INTER.norm>
0.048191

>  <SCORE.INTRA>
-4.2201

>  <SCORE.INTRA.DIHEDRAL>
-9.58462

>  <SCORE.INTRA.DIHEDRAL.0>
10.5765

>  <SCORE.INTRA.POLAR>
0

>  <SCORE.INTRA.POLAR.0>
0

>  <SCORE.INTRA.REPUL>
0

>  <SCORE.INTRA.REPUL.0>
0

>  <SCORE.INTRA.SOLV>
0.288843

>  <SCORE.INTRA.SOLV.lig_0>
-50.1861

>  <SCORE.INTRA.VDW>
0.427793

>  <SCORE.INTRA.VDW.0>
-1.36671

>  <SCORE.INTRA.norm>
-0.301435

>  <SCORE.RESTR>
0

>  <SCORE.RESTR.CAVITY>
0

>  <SCORE.RESTR.norm>
0

>  <SCORE.SYSTEM>
0

>  <SCORE.SYSTEM.CONST>
0

>  <SCORE.SYSTEM.DIHEDRAL>
0

>  <SCORE.SYSTEM.SOLV>
0

>  <SCORE.SYSTEM.norm>
0

>  <SCORE.heavy>
14

>  <SCORE.norm>
-0.253244

>  <RMSD>
4.444

$$$$
ligand
 OpenBabel11021811393D
libRbt.so/2013.1/901 2013/11/27
 14 13  0  0  0  0  0  0  0  0999 V2000
    7.9599   -6.3017    7.9850 N   0  0  0  0  0  0  0  0  0  0  0  0
    7.1991   -7.5846    7.6485 C   0  0  0  0  0  0  0  0  0  0  0  0
    6.2533   -7.7923    8.7750 C   0  0  0  0  0  0  0  0  0  0  0  0
    5.2234   -6.6876    8.9466 C   0  0  0  0  0  0  0  0  0  0  0  0
    4.3927   -6.9656   10.1486 N   0  0  0  0  0  0  0  0  0  0  0  0
    4.2592   -5.6802   10.9850 C   0  0  0  0  0  0  0  0  0  0  0  0
    2.8170   -5.1391   10.5388 C   0  0  0  0  0  0  0  0  0  0  0  0
    2.5859   -3.9888   11.1236 C   0  0  0  0  0  0  0  0  0  0  0  0
    1.1863   -3.6537   10.3423 C   0  0  0  0  0  0  0  0  0  0  0  0
    0.8736   -2.2829   11.0311 N   0  0  0  0  0  0  0  0  0  0  0  0
    1.4546   -1.0371   10.2504 C   0  0  0  0  0  0  0  0  0  0  0  0
    0.4998    0.2272   10.6475 C   0  0  0  0  0  0  0  0  0  0  0  0
   -0.8095   -0.0987    9.9897 C   0  0  0  0  0  0  0  0  0  0  0  0
   -1.6947    1.0972   10.2500 N   0  0  0  0  0  0  0  0  0  0  0  0
  1  2  1  0  0  0  0
  2  3  1  0  0  0  0
  3  4  1  0  0  0  0
  4  5  1  0  0  0  0
  5  6  1  0  0  0  0
  6  7  1  0  0  0  0
  7  8  1  0  0  0  0
  8  9  1  0  0  0  0
  9 10  1  0  0  0  0
 10 11  1  0  0  0  0
 11 12  1  0  0  0  0
 12 13  1  0  0  0  0
 13 14  1  0  0  0  0
M  END
>  <CHROM.1>
62.22415901,-176.57187931,133.86687364,99.05338783,-176.60537757,173.69820660
179.50869749,91.69445096,153.90284271,-68.66205678,-176.04481499,3.01438139
-3.99214754,9.90445820,-0.56886236,0.62252828,-0.49450292

>  <Name>
ligand

>  <RI>
0

>  <Rbt.Current_Directory>
/home/itssahil/PROJECTS/Mol_Feturizer/New_Systems/rnas/1FUF

>  <Rbt.Executable>
rbdock ($Id: //depot/dev/client3/rdock/2013.1/src/exe/rbdock.cxx#4 $)

>  <Rbt.Library>
libRbt.so (2013.1, Build901 2013/11/27)

>  <Rbt.Parameter_File>
/export/apps/rDock/src/rDock_2013.1_src/data/scripts/dock_solv.prm

>  <Rbt.Receptor>
prm/pocket_docking_4.prm

>  <SCORE>
-0.271508

>  <SCORE.INTER>
1.88314

>  <SCORE.INTER.CONST>
1

>  <SCORE.INTER.POLAR>
0

>  <SCORE.INTER.ROT>
11

>  <SCORE.INTER.SOLV>
15.6348

>  <SCORE.INTER.VDW>
-14.8895

>  <SCORE.INTER.norm>
0.13451

>  <SCORE.INTRA>
-2.15464

>  <SCORE.INTRA.DIHEDRAL>
-6.91199

>  <SCORE.INTRA.DIHEDRAL.0>
10.5765

>  <SCORE.INTRA.POLAR>
0

>  <SCORE.INTRA.POLAR.0>
0

>  <SCORE.INTRA.REPUL>
0

>  <SCORE.INTRA.REPUL.0>
0

>  <SCORE.INTRA.SOLV>
1.28588

>  <SCORE.INTRA.SOLV.lig_0>
-50.1861

>  <SCORE.INTRA.VDW>
0.65841

>  <SCORE.INTRA.VDW.0>
-1.36671

>  <SCORE.INTRA.norm>
-0.153903

>  <SCORE.RESTR>
0

>  <SCORE.RESTR.CAVITY>
0

>  <SCORE.RESTR.norm>
0

>  <SCORE.SYSTEM>
0

>  <SCORE.SYSTEM.CONST>
0

>  <SCORE.SYSTEM.DIHEDRAL>
0

>  <SCORE.SYSTEM.SOLV>
0

>  <SCORE.SYSTEM.norm>
0

>  <SCORE.heavy>
14

>  <SCORE.norm>
-0.0193934

>  <RMSD>
4.523

$$$$
ligand
 OpenBabel11021811393D
libRbt.so/2013.1/901 2013/11/27
 14 13  0  0  0  0  0  0  0  0999 V2000
    2.1326   -2.8706   10.5257 N   0  0  0  0  0  0  0  0  0  0  0  0
    0.7572   -2.2026   10.5427 C   0  0  0  0  0  0  0  0  0  0  0  0
    1.0256   -0.7415   10.5431 C   0  0  0  0  0  0  0  0  0  0  0  0
   -0.2190    0.1291   10.4837 C   0  0  0  0  0  0  0  0  0  0  0  0
   -0.9322   -0.1111    9.2008 N   0  0  0  0  0  0  0  0  0  0  0  0
   -1.7953    1.1170    8.8591 C   0  0  0  0  0  0  0  0  0  0  0  0
   -3.2494    0.6505    9.3488 C   0  0  0  0  0  0  0  0  0  0  0  0
   -3.6909    1.4887   10.2550 C   0  0  0  0  0  0  0  0  0  0  0  0
   -5.2193    0.9053   10.3281 C   0  0  0  0  0  0  0  0  0  0  0  0
   -5.7701    1.5698    9.0218 N   0  0  0  0  0  0  0  0  0  0  0  0
   -6.0197    3.1246    9.1614 C   0  0  0  0  0  0  0  0  0  0  0  0
   -6.3270    3.6676    7.6519 C   0  0  0  0  0  0  0  0  0  0  0  0
   -7.6502    3.0441    7.3149 C   0  0  0  0  0  0  0  0  0  0  0  0
   -7.9776    3.5320    5.9233 N   0  0  0  0  0  0  0  0  0  0  0  0
  1  2  1  0  0  0  0
  2  3  1  0  0  0  0
  3  4  1  0  0  0  0
  4  5  1  0  0  0  0
  5  6  1  0  0  0  0
  6  7  1  0  0  0  0
  7  8  1  0  0  0  0
  8  9  1  0  0  0  0
  9 10  1  0  0  0  0
 10 11  1  0  0  0  0
 11 12  1  0  0  0  0
 12 13  1  0  0  0  0
 13 14  1  0  0  0  0
M  END
>  <CHROM.1>
176.87296080,-63.36157322,-156.24285845,-99.31214416,121.07759609,170.61009402
-78.06792392,-73.68605918,170.16588659,67.74397141,179.57983532,-3.20968642
0.95037153,9.22596816,-0.42136480,0.42992455,-1.28868875

>  <Name>
ligand

>  <RI>
0

>  <Rbt.Current_Directory>
/home/itssahil/PROJECTS/Mol_Feturizer/New_Systems/rnas/1FUF

>  <Rbt.Executable>
rbdock ($Id: //depot/dev/client3/rdock/2013.1/src/exe/rbdock.cxx#4 $)

>  <Rbt.Library>
libRbt.so (2013.1, Build901 2013/11/27)

>  <Rbt.Parameter_File>
/export/apps/rDock/src/rDock_2013.1_src/data/scripts/dock_solv.prm

>  <Rbt.Receptor>
prm/blind_docking_60.prm

>  <SCORE>
2.92387

>  <SCORE.INTER>
1.1359

>  <SCORE.INTER.CONST>
1

>  <SCORE.INTER.POLAR>
0

>  <SCORE.INTER.ROT>
11

>  <SCORE.INTER.SOLV>
17.9866

>  <SCORE.INTER.VDW>
-16.1716

>  <SCORE.INTER.norm>
0.0811359

>  <SCORE.INTRA>
1.78797

>  <SCORE.INTRA.DIHEDRAL>
-1.73492

>  <SCORE.INTRA.DIHEDRAL.0>
10.5765

>  <SCORE.INTRA.POLAR>
0

>  <SCORE.INTRA.POLAR.0>
0

>  <SCORE.INTRA.REPUL>
0

>  <SCORE.INTRA.REPUL.0>
0

>  <SCORE.INTRA.SOLV>
1.42044

>  <SCORE.INTRA.SOLV.lig_0>
-50.1861

>  <SCORE.INTRA.VDW>
1.9452

>  <SCORE.INTRA.VDW.0>
-1.36671

>  <SCORE.INTRA.norm>
0.127712

>  <SCORE.RESTR>
0

>  <SCORE.RESTR.CAVITY>
0

>  <SCORE.RESTR.norm>
0

>  <SCORE.SYSTEM>
0

>  <SCORE.SYSTEM.CONST>
0

>  <SCORE.SYSTEM.DIHEDRAL>
0

>  <SCORE.SYSTEM.SOLV>
0

>  <SCORE.SYSTEM.norm>
0

>  <SCORE.heavy>
14

>  <SCORE.norm>
0.208848

>  <RMSD>
4.525

$$$$
ligand
 OpenBabel11021811393D
libRbt.so/2013.1/901 2013/11/27
 14 13  0  0  0  0  0  0  0  0999 V2000
   -1.8525   -0.3196   10.5028 N   0  0  0  0  0  0  0  0  0  0  0  0
   -0.6777    0.6352   10.7181 C   0  0  0  0  0  0  0  0  0  0  0  0
    0.5094   -0.0648   10.1635 C   0  0  0  0  0  0  0  0  0  0  0  0
    0.9098   -1.3229   10.9168 C   0  0  0  0  0  0  0  0  0  0  0  0
    2.1496   -1.8863   10.3189 N   0  0  0  0  0  0  0  0  0  0  0  0
    2.7576   -2.9199   11.2842 C   0  0  0  0  0  0  0  0  0  0  0  0
    2.9904   -4.1807   10.3209 C   0  0  0  0  0  0  0  0  0  0  0  0
    3.4371   -5.1899   11.0285 C   0  0  0  0  0  0  0  0  0  0  0  0
    3.4688   -6.2813    9.8081 C   0  0  0  0  0  0  0  0  0  0  0  0
    4.7915   -5.8026    9.1205 N   0  0  0  0  0  0  0  0  0  0  0  0
    4.7356   -5.8520    7.5414 C   0  0  0  0  0  0  0  0  0  0  0  0
    6.1719   -5.2725    7.0226 C   0  0  0  0  0  0  0  0  0  0  0  0
    7.1435   -6.3560    7.3903 C   0  0  0  0  0  0  0  0  0  0  0  0
    8.4508   -5.9531    6.7496 N   0  0  0  0  0  0  0  0  0  0  0  0
  1  2  1  0  0  0  0
  2  3  1  0  0  0  0
  3  4  1  0  0  0  0
  4  5  1  0  0  0  0
  5  6  1  0  0  0  0
  6  7  1  0  0  0  0
  7  8  1  0  0  0  0
  8  9  1  0  0  0  0
  9 10  1  0  0  0  0
 10 11  1  0  0  0  0
 11 12  1  0  0  0  0
 12 13  1  0  0  0  0
 13 14  1  0  0  0  0
M  END
>  <CHROM.1>
-66.06461469,-176.72582644,165.20066818,129.84658133,-176.12783233,176.63094004
78.20249017,-141.32501268,178.10101128,70.64339347,171.95845119,3.21320275
-3.62621366,9.49201133,-2.81493135,-0.70406084,2.55124552

>  <Name>
ligand

>  <RI>
0

>  <Rbt.Current_Directory>
/home/itssahil/PROJECTS/Mol_Feturizer/New_Systems/rnas/1FUF

>  <Rbt.Executable>
rbdock ($Id: //depot/dev/client3/rdock/2013.1/src/exe/rbdock.cxx#4 $)

>  <Rbt.Library>
libRbt.so (2013.1, Build901 2013/11/27)

>  <Rbt.Parameter_File>
/export/apps/rDock/src/rDock_2013.1_src/data/scripts/dock_solv.prm

>  <Rbt.Receptor>
prm/blind_docking_60.prm

>  <SCORE>
-2.10675

>  <SCORE.INTER>
-0.94328

>  <SCORE.INTER.CONST>
1

>  <SCORE.INTER.POLAR>
0

>  <SCORE.INTER.ROT>
11

>  <SCORE.INTER.SOLV>
15.4626

>  <SCORE.INTER.VDW>
-16.7164

>  <SCORE.INTER.norm>
-0.0673771

>  <SCORE.INTRA>
-1.16347

>  <SCORE.INTRA.DIHEDRAL>
-6.31433

>  <SCORE.INTRA.DIHEDRAL.0>
10.5765

>  <SCORE.INTRA.POLAR>
0

>  <SCORE.INTRA.POLAR.0>
0

>  <SCORE.INTRA.REPUL>
0

>  <SCORE.INTRA.REPUL.0>
0

>  <SCORE.INTRA.SOLV>
1.60479

>  <SCORE.INTRA.SOLV.lig_0>
-50.1861

>  <SCORE.INTRA.VDW>
1.1913

>  <SCORE.INTRA.VDW.0>
-1.36671

>  <SCORE.INTRA.norm>
-0.0831049

>  <SCORE.RESTR>
0

>  <SCORE.RESTR.CAVITY>
0

>  <SCORE.RESTR.norm>
0

>  <SCORE.SYSTEM>
0

>  <SCORE.SYSTEM.CONST>
0

>  <SCORE.SYSTEM.DIHEDRAL>
0

>  <SCORE.SYSTEM.SOLV>
0

>  <SCORE.SYSTEM.norm>
0

>  <SCORE.heavy>
14

>  <SCORE.norm>
-0.150482

>  <RMSD>
4.556

$$$$
ligand
 OpenBabel11021811393D
libRbt.so/2013.1/901 2013/11/27
 14 13  0  0  0  0  0  0  0  0999 V2000
    8.0095   -5.8391    5.8284 N   0  0  0  0  0  0  0  0  0  0  0  0
    6.5992   -5.3648    6.1806 C   0  0  0  0  0  0  0  0  0  0  0  0
    6.3269   -5.9031    7.5381 C   0  0  0  0  0  0  0  0  0  0  0  0
    4.9005   -5.7009    8.0231 C   0  0  0  0  0  0  0  0  0  0  0  0
    4.7789   -6.1863    9.4238 N   0  0  0  0  0  0  0  0  0  0  0  0
    3.3602   -5.8922    9.9442 C   0  0  0  0  0  0  0  0  0  0  0  0
    3.5049   -4.3865   10.4769 C   0  0  0  0  0  0  0  0  0  0  0  0
    2.3613   -3.9947   10.9841 C   0  0  0  0  0  0  0  0  0  0  0  0
    2.8041   -2.4468   11.2836 C   0  0  0  0  0  0  0  0  0  0  0  0
    1.4408   -1.9365   11.8601 N   0  0  0  0  0  0  0  0  0  0  0  0
    0.3385   -1.6943   10.7531 C   0  0  0  0  0  0  0  0  0  0  0  0
    0.6948   -0.2531   10.0720 C   0  0  0  0  0  0  0  0  0  0  0  0
    0.3551    0.7387   11.1462 C   0  0  0  0  0  0  0  0  0  0  0  0
   -1.1518    0.8418   11.1313 N   0  0  0  0  0  0  0  0  0  0  0  0
  1  2  1  0  0  0  0
  2  3  1  0  0  0  0
  3  4  1  0  0  0  0
  4  5  1  0  0  0  0
  5  6  1  0  0  0  0
  6  7  1  0  0  0  0
  7  8  1  0  0  0  0
  8  9  1  0  0  0  0
  9 10  1  0  0  0  0
 10 11  1  0  0  0  0
 11 12  1  0  0  0  0
 12 13  1  0  0  0  0
 13 14  1  0  0  0  0
M  END
>  <CHROM.1>
-172.59111502,-175.78200416,176.15520866,-85.64254572,-178.80319668,-175.05911308
178.62424093,-75.47613518,-79.16248579,-70.83233569,-76.72229104,3.16588710
-3.42990305,9.61755964,-0.25304397,0.80745775,-0.61675358

>  <Name>
ligand

>  <RI>
0

>  <Rbt.Current_Directory>
/home/itssahil/PROJECTS/Mol_Feturizer/New_Systems/rnas/1FUF

>  <Rbt.Executable>
rbdock ($Id: //depot/dev/client3/rdock/2013.1/src/exe/rbdock.cxx#4 $)

>  <Rbt.Library>
libRbt.so (2013.1, Build901 2013/11/27)

>  <Rbt.Parameter_File>
/export/apps/rDock/src/rDock_2013.1_src/data/scripts/dock_solv.prm

>  <Rbt.Receptor>
prm/blind_docking_80.prm

>  <SCORE>
-2.12695

>  <SCORE.INTER>
-0.409726

>  <SCORE.INTER.CONST>
1

>  <SCORE.INTER.POLAR>
0

>  <SCORE.INTER.ROT>
11

>  <SCORE.INTER.SOLV>
16.6176

>  <SCORE.INTER.VDW>
-16.7457

>  <SCORE.INTER.norm>
-0.0292661

>  <SCORE.INTRA>
-1.71722

>  <SCORE.INTRA.DIHEDRAL>
-7.82535

>  <SCORE.INTRA.DIHEDRAL.0>
10.5765

>  <SCORE.INTRA.POLAR>
0

>  <SCORE.INTRA.POLAR.0>
0

>  <SCORE.INTRA.REPUL>
0

>  <SCORE.INTRA.REPUL.0>
0

>  <SCORE.INTRA.SOLV>
1.50105

>  <SCORE.INTRA.SOLV.lig_0>
-50.1861

>  <SCORE.INTRA.VDW>
1.44492

>  <SCORE.INTRA.VDW.0>
-1.36671

>  <SCORE.INTRA.norm>
-0.122659

>  <SCORE.RESTR>
0

>  <SCORE.RESTR.CAVITY>
0

>  <SCORE.RESTR.norm>
0

>  <SCORE.SYSTEM>
0

>  <SCORE.SYSTEM.CONST>
0

>  <SCORE.SYSTEM.DIHEDRAL>
0

>  <SCORE.SYSTEM.SOLV>
0

>  <SCORE.SYSTEM.norm>
0

>  <SCORE.heavy>
14

>  <SCORE.norm>
-0.151925

>  <RMSD>
4.586

$$$$
ligand
 OpenBabel11021811393D
libRbt.so/2013.1/901 2013/11/27
 14 13  0  0  0  0  0  0  0  0999 V2000
   -1.6932    0.8972    9.5470 N   0  0  0  0  0  0  0  0  0  0  0  0
   -0.9600    0.2584   10.7269 C   0  0  0  0  0  0  0  0  0  0  0  0
    0.0891   -0.6028   10.1231 C   0  0  0  0  0  0  0  0  0  0  0  0
    0.9630   -1.3332   11.1298 C   0  0  0  0  0  0  0  0  0  0  0  0
    1.9754   -2.1496   10.4082 N   0  0  0  0  0  0  0  0  0  0  0  0
    2.5490   -3.2120   11.3632 C   0  0  0  0  0  0  0  0  0  0  0  0
    2.8513   -4.4305   10.3653 C   0  0  0  0  0  0  0  0  0  0  0  0
    3.4032   -5.4127   11.0356 C   0  0  0  0  0  0  0  0  0  0  0  0
    3.7225   -6.3699    9.7458 C   0  0  0  0  0  0  0  0  0  0  0  0
    5.0049   -5.6303    9.2361 N   0  0  0  0  0  0  0  0  0  0  0  0
    5.5183   -6.1502    7.8343 C   0  0  0  0  0  0  0  0  0  0  0  0
    6.6533   -5.0816    7.3469 C   0  0  0  0  0  0  0  0  0  0  0  0
    7.1349   -5.6480    6.0429 C   0  0  0  0  0  0  0  0  0  0  0  0
    7.9858   -6.8391    6.4159 N   0  0  0  0  0  0  0  0  0  0  0  0
  1  2  1  0  0  0  0
  2  3  1  0  0  0  0
  3  4  1  0  0  0  0
  4  5  1  0  0  0  0
  5  6  1  0  0  0  0
  6  7  1  0  0  0  0
  7  8  1  0  0  0  0
  8  9  1  0  0  0  0
  9 10  1  0  0  0  0
 10 11  1  0  0  0  0
 11 12  1  0  0  0  0
 12 13  1  0  0  0  0
 13 14  1  0  0  0  0
M  END
>  <CHROM.1>
179.30873013,-179.57419709,-162.04803588,147.48360668,177.53435086,-174.00294149
78.74244589,-171.62034806,169.09939350,178.13283000,-73.88572272,3.22834755
-3.69327566,9.38028128,-2.99350534,-0.75037714,2.27915739

>  <Name>
ligand

>  <RI>
0

>  <Rbt.Current_Directory>
/home/itssahil/PROJECTS/Mol_Feturizer/New_Systems/rnas/1FUF

>  <Rbt.Executable>
rbdock ($Id: //depot/dev/client3/rdock/2013.1/src/exe/rbdock.cxx#4 $)

>  <Rbt.Library>
libRbt.so (2013.1, Build901 2013/11/27)

>  <Rbt.Parameter_File>
/export/apps/rDock/src/rDock_2013.1_src/data/scripts/dock_solv.prm

>  <Rbt.Receptor>
prm/blind_docking_80.prm

>  <SCORE>
-3.26131

>  <SCORE.INTER>
-1.37676

>  <SCORE.INTER.CONST>
1

>  <SCORE.INTER.POLAR>
0

>  <SCORE.INTER.ROT>
11

>  <SCORE.INTER.SOLV>
13.6962

>  <SCORE.INTER.VDW>
-16.4166

>  <SCORE.INTER.norm>
-0.0983397

>  <SCORE.INTRA>
-1.88455

>  <SCORE.INTRA.DIHEDRAL>
-7.38771

>  <SCORE.INTRA.DIHEDRAL.0>
10.5765

>  <SCORE.INTRA.POLAR>
0

>  <SCORE.INTRA.POLAR.0>
0

>  <SCORE.INTRA.REPUL>
0

>  <SCORE.INTRA.REPUL.0>
0

>  <SCORE.INTRA.SOLV>
1.29423

>  <SCORE.INTRA.SOLV.lig_0>
-50.1861

>  <SCORE.INTRA.VDW>
1.16219

>  <SCORE.INTRA.VDW.0>
-1.36671

>  <SCORE.INTRA.norm>
-0.134611

>  <SCORE.RESTR>
0

>  <SCORE.RESTR.CAVITY>
0

>  <SCORE.RESTR.norm>
0

>  <SCORE.SYSTEM>
0

>  <SCORE.SYSTEM.CONST>
0

>  <SCORE.SYSTEM.DIHEDRAL>
0

>  <SCORE.SYSTEM.SOLV>
0

>  <SCORE.SYSTEM.norm>
0

>  <SCORE.heavy>
14

>  <SCORE.norm>
-0.23295

>  <RMSD>
4.614

$$$$
ligand
 OpenBabel11021811393D
libRbt.so/2013.1/901 2013/11/27
 14 13  0  0  0  0  0  0  0  0999 V2000
    8.7464   -5.2558    5.2239 N   0  0  0  0  0  0  0  0  0  0  0  0
    7.6989   -6.1378    5.9043 C   0  0  0  0  0  0  0  0  0  0  0  0
    7.1626   -5.3242    7.0254 C   0  0  0  0  0  0  0  0  0  0  0  0
    6.1218   -6.0319    7.8777 C   0  0  0  0  0  0  0  0  0  0  0  0
    5.6749   -5.1261    8.9696 N   0  0  0  0  0  0  0  0  0  0  0  0
    4.7427   -5.8965    9.9222 C   0  0  0  0  0  0  0  0  0  0  0  0
    4.0774   -4.7098   10.7713 C   0  0  0  0  0  0  0  0  0  0  0  0
    3.2755   -4.0199    9.9969 C   0  0  0  0  0  0  0  0  0  0  0  0
    2.7589   -2.9696   11.1422 C   0  0  0  0  0  0  0  0  0  0  0  0
    1.7695   -2.1445   10.2525 N   0  0  0  0  0  0  0  0  0  0  0  0
    0.9187   -1.0895   11.0663 C   0  0  0  0  0  0  0  0  0  0  0  0
   -0.1596   -0.4693   10.0078 C   0  0  0  0  0  0  0  0  0  0  0  0
   -0.9309    0.5222   10.8295 C   0  0  0  0  0  0  0  0  0  0  0  0
   -1.9836    1.0775    9.8992 N   0  0  0  0  0  0  0  0  0  0  0  0
  1  2  1  0  0  0  0
  2  3  1  0  0  0  0
  3  4  1  0  0  0  0
  4  5  1  0  0  0  0
  5  6  1  0  0  0  0
  6  7  1  0  0  0  0
  7  8  1  0  0  0  0
  8  9  1  0  0  0  0
  9 10  1  0  0  0  0
 10 11  1  0  0  0  0
 11 12  1  0  0  0  0
 12 13  1  0  0  0  0
 13 14  1  0  0  0  0
M  END
>  <CHROM.1>
-178.15962633,179.36793704,-173.66922341,-165.86729700,69.22929586,178.48620335
-178.84712690,173.48492581,-173.47133781,-179.82466955,-177.58286586,3.56237501
-3.39844255,9.20660522,-0.00590383,0.71192190,-0.98856334

>  <Name>
ligand

>  <RI>
0

>  <Rbt.Current_Directory>
/home/itssahil/PROJECTS/Mol_Feturizer/New_Systems/rnas/1FUF

>  <Rbt.Executable>
rbdock ($Id: //depot/dev/client3/rdock/2013.1/src/exe/rbdock.cxx#4 $)

>  <Rbt.Library>
libRbt.so (2013.1, Build901 2013/11/27)

>  <Rbt.Parameter_File>
/export/apps/rDock/src/rDock_2013.1_src/data/scripts/dock_solv.prm

>  <Rbt.Receptor>
prm/pocket_docking_6.prm

>  <SCORE>
-3.91457

>  <SCORE.INTER>
0.51024

>  <SCORE.INTER.CONST>
1

>  <SCORE.INTER.POLAR>
0

>  <SCORE.INTER.ROT>
11

>  <SCORE.INTER.SOLV>
16.0461

>  <SCORE.INTER.VDW>
-15.9419

>  <SCORE.INTER.norm>
0.0364457

>  <SCORE.INTRA>
-4.42481

>  <SCORE.INTRA.DIHEDRAL>
-9.95042

>  <SCORE.INTRA.DIHEDRAL.0>
10.5765

>  <SCORE.INTRA.POLAR>
0

>  <SCORE.INTRA.POLAR.0>
0

>  <SCORE.INTRA.REPUL>
0

>  <SCORE.INTRA.REPUL.0>
0

>  <SCORE.INTRA.SOLV>
0.284288

>  <SCORE.INTRA.SOLV.lig_0>
-50.1861

>  <SCORE.INTRA.VDW>
0.40826

>  <SCORE.INTRA.VDW.0>
-1.36671

>  <SCORE.INTRA.norm>
-0.316058

>  <SCORE.RESTR>
0

>  <SCORE.RESTR.CAVITY>
0

>  <SCORE.RESTR.norm>
0

>  <SCORE.SYSTEM>
0

>  <SCORE.SYSTEM.CONST>
0

>  <SCORE.SYSTEM.DIHEDRAL>
0

>  <SCORE.SYSTEM.SOLV>
0

>  <SCORE.SYSTEM.norm>
0

>  <SCORE.heavy>
14

>  <SCORE.norm>
-0.279612

>  <RMSD>
4.658

$$$$
ligand
 OpenBabel11021811393D
libRbt.so/2013.1/901 2013/11/27
 14 13  0  0  0  0  0  0  0  0999 V2000
    6.6900  -10.7164    8.6637 N   0  0  0  0  0  0  0  0  0  0  0  0
    5.9907   -9.6151    7.8660 C   0  0  0  0  0  0  0  0  0  0  0  0
    5.4961   -8.6458    8.8771 C   0  0  0  0  0  0  0  0  0  0  0  0
    4.7741   -7.4408    8.2964 C   0  0  0  0  0  0  0  0  0  0  0  0
    4.3619   -6.5304    9.3980 N   0  0  0  0  0  0  0  0  0  0  0  0
    3.8553   -5.2047    8.8018 C   0  0  0  0  0  0  0  0  0  0  0  0
    3.2605   -4.4629   10.0933 C   0  0  0  0  0  0  0  0  0  0  0  0
    2.7596   -3.3053    9.7357 C   0  0  0  0  0  0  0  0  0  0  0  0
    2.2696   -2.8390   11.2270 C   0  0  0  0  0  0  0  0  0  0  0  0
    1.6994   -1.4330   10.8405 N   0  0  0  0  0  0  0  0  0  0  0  0
    0.1241   -1.3425   10.9365 C   0  0  0  0  0  0  0  0  0  0  0  0
   -0.2961    0.0264   10.1508 C   0  0  0  0  0  0  0  0  0  0  0  0
   -1.7830    0.1011   10.3420 C   0  0  0  0  0  0  0  0  0  0  0  0
   -2.2076    1.3840    9.6668 N   0  0  0  0  0  0  0  0  0  0  0  0
  1  2  1  0  0  0  0
  2  3  1  0  0  0  0
  3  4  1  0  0  0  0
  4  5  1  0  0  0  0
  5  6  1  0  0  0  0
  6  7  1  0  0  0  0
  7  8  1  0  0  0  0
  8  9  1  0  0  0  0
  9 10  1  0  0  0  0
 10 11  1  0  0  0  0
 11 12  1  0  0  0  0
 12 13  1  0  0  0  0
 13 14  1  0  0  0  0
M  END
>  <CHROM.1>
179.19559451,-178.45877409,170.19596973,171.76851406,-178.87341008,-179.80495311
178.46774067,110.22973945,-165.98509616,-176.83934225,178.14120310,2.64248810
-4.28743950,9.63540106,0.72605624,0.68631633,-2.32245746

>  <Name>
ligand

>  <RI>
0

>  <Rbt.Current_Directory>
/home/itssahil/PROJECTS/Mol_Feturizer/New_Systems/rnas/1FUF

>  <Rbt.Executable>
rbdock ($Id: //depot/dev/client3/rdock/2013.1/src/exe/rbdock.cxx#4 $)

>  <Rbt.Library>
libRbt.so (2013.1, Build901 2013/11/27)

>  <Rbt.Parameter_File>
/export/apps/rDock/src/rDock_2013.1_src/data/scripts/dock_solv.prm

>  <Rbt.Receptor>
prm/pocket_docking_7.prm

>  <SCORE>
-6.15745

>  <SCORE.INTER>
-1.56131

>  <SCORE.INTER.CONST>
1

>  <SCORE.INTER.POLAR>
0

>  <SCORE.INTER.ROT>
11

>  <SCORE.INTER.SOLV>
14.8807

>  <SCORE.INTER.VDW>
-16.9345

>  <SCORE.INTER.norm>
-0.111522

>  <SCORE.INTRA>
-4.59614

>  <SCORE.INTRA.DIHEDRAL>
-9.09061

>  <SCORE.INTRA.DIHEDRAL.0>
10.5765

>  <SCORE.INTRA.POLAR>
0

>  <SCORE.INTRA.POLAR.0>
0

>  <SCORE.INTRA.REPUL>
0

>  <SCORE.INTRA.REPUL.0>
0

>  <SCORE.INTRA.SOLV>
-0.158091

>  <SCORE.INTRA.SOLV.lig_0>
-50.1861

>  <SCORE.INTRA.VDW>
0.0282122

>  <SCORE.INTRA.VDW.0>
-1.36671

>  <SCORE.INTRA.norm>
-0.328296

>  <SCORE.RESTR>
0

>  <SCORE.RESTR.CAVITY>
0

>  <SCORE.RESTR.norm>
0

>  <SCORE.SYSTEM>
0

>  <SCORE.SYSTEM.CONST>
0

>  <SCORE.SYSTEM.DIHEDRAL>
0

>  <SCORE.SYSTEM.SOLV>
0

>  <SCORE.SYSTEM.norm>
0

>  <SCORE.heavy>
14

>  <SCORE.norm>
-0.439818

>  <RMSD>
4.664

$$$$
ligand
 OpenBabel11021811393D
libRbt.so/2013.1/901 2013/11/27
 14 13  0  0  0  0  0  0  0  0999 V2000
   -2.4968    0.3484   10.3415 N   0  0  0  0  0  0  0  0  0  0  0  0
   -0.9725    0.4486   10.4076 C   0  0  0  0  0  0  0  0  0  0  0  0
   -0.4985   -0.9208   10.7341 C   0  0  0  0  0  0  0  0  0  0  0  0
    1.0080   -1.1046   10.6490 C   0  0  0  0  0  0  0  0  0  0  0  0
    1.3551   -2.5148   10.9703 N   0  0  0  0  0  0  0  0  0  0  0  0
    2.8685   -2.7236   10.7808 C   0  0  0  0  0  0  0  0  0  0  0  0
    2.9977   -4.3204   10.8551 C   0  0  0  0  0  0  0  0  0  0  0  0
    4.2642   -4.6552   10.8075 C   0  0  0  0  0  0  0  0  0  0  0  0
    4.0369   -6.2759   10.8656 C   0  0  0  0  0  0  0  0  0  0  0  0
    3.6634   -6.4988    9.3615 N   0  0  0  0  0  0  0  0  0  0  0  0
    4.9083   -6.8273    8.4441 C   0  0  0  0  0  0  0  0  0  0  0  0
    5.3474   -8.3566    8.8133 C   0  0  0  0  0  0  0  0  0  0  0  0
    6.6656   -8.5238    8.1151 C   0  0  0  0  0  0  0  0  0  0  0  0
    7.1188   -9.9253    8.4500 N   0  0  0  0  0  0  0  0  0  0  0  0
  1  2  1  0  0  0  0
  2  3  1  0  0  0  0
  3  4  1  0  0  0  0
  4  5  1  0  0  0  0
  5  6  1  0  0  0  0
  6  7  1  0  0  0  0
  7  8  1  0  0  0  0
  8  9  1  0  0  0  0
  9 10  1  0  0  0  0
 10 11  1  0  0  0  0
 11 12  1  0  0  0  0
 12 13  1  0  0  0  0
 13 14  1  0  0  0  0
M  END
>  <CHROM.1>
171.39071894,-178.92112651,175.80016097,-168.33489436,-175.33081765,-178.74677821
79.71403600,91.25428527,72.99259596,-169.87764253,179.16136430,2.87634257
-4.41777454,9.97117793,2.45560691,-0.62230329,0.84853451

>  <Name>
ligand

>  <RI>
0

>  <Rbt.Current_Directory>
/home/itssahil/PROJECTS/Mol_Feturizer/New_Systems/rnas/1FUF

>  <Rbt.Executable>
rbdock ($Id: //depot/dev/client3/rdock/2013.1/src/exe/rbdock.cxx#4 $)

>  <Rbt.Library>
libRbt.so (2013.1, Build901 2013/11/27)

>  <Rbt.Parameter_File>
/export/apps/rDock/src/rDock_2013.1_src/data/scripts/dock_solv.prm

>  <Rbt.Receptor>
prm/pocket_docking_6.prm

>  <SCORE>
-4.76485

>  <SCORE.INTER>
-2.4844

>  <SCORE.INTER.CONST>
1

>  <SCORE.INTER.POLAR>
0

>  <SCORE.INTER.ROT>
11

>  <SCORE.INTER.SOLV>
14.2429

>  <SCORE.INTER.VDW>
-17.3372

>  <SCORE.INTER.norm>
-0.177457

>  <SCORE.INTRA>
-2.28046

>  <SCORE.INTRA.DIHEDRAL>
-7.58615

>  <SCORE.INTRA.DIHEDRAL.0>
10.5765

>  <SCORE.INTRA.POLAR>
0

>  <SCORE.INTRA.POLAR.0>
0

>  <SCORE.INTRA.REPUL>
0

>  <SCORE.INTRA.REPUL.0>
0

>  <SCORE.INTRA.SOLV>
0.39384

>  <SCORE.INTRA.SOLV.lig_0>
-50.1861

>  <SCORE.INTRA.VDW>
1.3157

>  <SCORE.INTRA.VDW.0>
-1.36671

>  <SCORE.INTRA.norm>
-0.16289

>  <SCORE.RESTR>
0

>  <SCORE.RESTR.CAVITY>
0

>  <SCORE.RESTR.norm>
0

>  <SCORE.SYSTEM>
0

>  <SCORE.SYSTEM.CONST>
0

>  <SCORE.SYSTEM.DIHEDRAL>
0

>  <SCORE.SYSTEM.SOLV>
0

>  <SCORE.SYSTEM.norm>
0

>  <SCORE.heavy>
14

>  <SCORE.norm>
-0.340347

>  <RMSD>
4.720

$$$$
ligand
 OpenBabel11021811393D
libRbt.so/2013.1/901 2013/11/27
 14 13  0  0  0  0  0  0  0  0999 V2000
   -2.3265    0.8320   10.2464 N   0  0  0  0  0  0  0  0  0  0  0  0
   -0.9090    0.7040   10.8051 C   0  0  0  0  0  0  0  0  0  0  0  0
   -0.4674   -0.6708   10.4561 C   0  0  0  0  0  0  0  0  0  0  0  0
    0.9319   -1.0247   10.9328 C   0  0  0  0  0  0  0  0  0  0  0  0
    1.2884   -2.3882   10.4574 N   0  0  0  0  0  0  0  0  0  0  0  0
    2.8150   -2.4855   10.2847 C   0  0  0  0  0  0  0  0  0  0  0  0
    2.9745   -3.8719    9.4946 C   0  0  0  0  0  0  0  0  0  0  0  0
    4.2434   -4.0830    9.2419 C   0  0  0  0  0  0  0  0  0  0  0  0
    4.0460   -5.4917    8.4306 C   0  0  0  0  0  0  0  0  0  0  0  0
    5.5586   -5.8437    8.2316 N   0  0  0  0  0  0  0  0  0  0  0  0
    6.1472   -5.3421    6.8527 C   0  0  0  0  0  0  0  0  0  0  0  0
    7.5853   -6.0965    6.6771 C   0  0  0  0  0  0  0  0  0  0  0  0
    8.0671   -5.6300    5.3342 C   0  0  0  0  0  0  0  0  0  0  0  0
    9.3532   -6.3832    5.0887 N   0  0  0  0  0  0  0  0  0  0  0  0
  1  2  1  0  0  0  0
  2  3  1  0  0  0  0
  3  4  1  0  0  0  0
  4  5  1  0  0  0  0
  5  6  1  0  0  0  0
  6  7  1  0  0  0  0
  7  8  1  0  0  0  0
  8  9  1  0  0  0  0
  9 10  1  0  0  0  0
 10 11  1  0  0  0  0
 11 12  1  0  0  0  0
 12 13  1  0  0  0  0
 13 14  1  0  0  0  0
M  END
>  <CHROM.1>
-179.48648180,-176.71633116,151.52768228,-168.65986277,178.54766627,-178.56635990
-174.87673936,-93.69163098,-166.81248542,177.71239656,-176.09379826,3.52198906
-3.41250427,8.75252582,-3.05167064,-0.71679186,2.35958750

>  <Name>
ligand

>  <RI>
0

>  <Rbt.Current_Directory>
/home/itssahil/PROJECTS/Mol_Feturizer/New_Systems/rnas/1FUF

>  <Rbt.Executable>
rbdock ($Id: //depot/dev/client3/rdock/2013.1/src/exe/rbdock.cxx#4 $)

>  <Rbt.Library>
libRbt.so (2013.1, Build901 2013/11/27)

>  <Rbt.Parameter_File>
/export/apps/rDock/src/rDock_2013.1_src/data/scripts/dock_solv.prm

>  <Rbt.Receptor>
prm/pocket_docking_6.prm

>  <SCORE>
-5.02051

>  <SCORE.INTER>
-0.648888

>  <SCORE.INTER.CONST>
1

>  <SCORE.INTER.POLAR>
0

>  <SCORE.INTER.ROT>
11

>  <SCORE.INTER.SOLV>
14.2793

>  <SCORE.INTER.VDW>
-16.1257

>  <SCORE.INTER.norm>
-0.0463492

>  <SCORE.INTRA>
-4.37162

>  <SCORE.INTRA.DIHEDRAL>
-8.83472

>  <SCORE.INTRA.DIHEDRAL.0>
10.5765

>  <SCORE.INTRA.POLAR>
0

>  <SCORE.INTRA.POLAR.0>
0

>  <SCORE.INTRA.REPUL>
0

>  <SCORE.INTRA.REPUL.0>
0

>  <SCORE.INTRA.SOLV>
-0.153217

>  <SCORE.INTRA.SOLV.lig_0>
-50.1861

>  <SCORE.INTRA.VDW>
0.122347

>  <SCORE.INTRA.VDW.0>
-1.36671

>  <SCORE.INTRA.norm>
-0.312259

>  <SCORE.RESTR>
0

>  <SCORE.RESTR.CAVITY>
0

>  <SCORE.RESTR.norm>
0

>  <SCORE.SYSTEM>
0

>  <SCORE.SYSTEM.CONST>
0

>  <SCORE.SYSTEM.DIHEDRAL>
0

>  <SCORE.SYSTEM.SOLV>
0

>  <SCORE.SYSTEM.norm>
0

>  <SCORE.heavy>
14

>  <SCORE.norm>
-0.358608

>  <RMSD>
4.741

$$$$
ligand
 OpenBabel11021811393D
libRbt.so/2013.1/901 2013/11/27
 14 13  0  0  0  0  0  0  0  0999 V2000
   -1.8558    0.7534    9.8054 N   0  0  0  0  0  0  0  0  0  0  0  0
   -0.7602    0.3786   10.8040 C   0  0  0  0  0  0  0  0  0  0  0  0
    0.0077   -0.7168   10.1580 C   0  0  0  0  0  0  0  0  0  0  0  0
    1.1719   -1.2427   10.9818 C   0  0  0  0  0  0  0  0  0  0  0  0
    1.8330   -2.3575   10.2520 N   0  0  0  0  0  0  0  0  0  0  0  0
    2.9231   -2.9767   11.1454 C   0  0  0  0  0  0  0  0  0  0  0  0
    3.1535   -4.4039   10.4513 C   0  0  0  0  0  0  0  0  0  0  0  0
    3.6902   -4.2286    9.2682 C   0  0  0  0  0  0  0  0  0  0  0  0
    3.8558   -5.8146    8.8954 C   0  0  0  0  0  0  0  0  0  0  0  0
    4.6063   -5.6420    7.5322 N   0  0  0  0  0  0  0  0  0  0  0  0
    6.1808   -5.6385    7.6745 C   0  0  0  0  0  0  0  0  0  0  0  0
    6.7685   -5.4763    6.1592 C   0  0  0  0  0  0  0  0  0  0  0  0
    8.2513   -5.6265    6.3375 C   0  0  0  0  0  0  0  0  0  0  0  0
    8.8373   -5.4656    4.9546 N   0  0  0  0  0  0  0  0  0  0  0  0
  1  2  1  0  0  0  0
  2  3  1  0  0  0  0
  3  4  1  0  0  0  0
  4  5  1  0  0  0  0
  5  6  1  0  0  0  0
  6  7  1  0  0  0  0
  7  8  1  0  0  0  0
  8  9  1  0  0  0  0
  9 10  1  0  0  0  0
 10 11  1  0  0  0  0
 11 12  1  0  0  0  0
 12 13  1  0  0  0  0
 13 14  1  0  0  0  0
M  END
>  <CHROM.1>
179.46567507,178.27836582,-174.57135928,161.32007346,67.27904251,177.19841867
-175.54820018,91.40279419,179.04207373,-174.17231240,-179.33763358,3.47599629
-3.46137110,8.88741524,-3.08638613,-0.72532443,2.32018768

>  <Name>
ligand

>  <RI>
0

>  <Rbt.Current_Directory>
/home/itssahil/PROJECTS/Mol_Feturizer/New_Systems/rnas/1FUF

>  <Rbt.Executable>
rbdock ($Id: //depot/dev/client3/rdock/2013.1/src/exe/rbdock.cxx#4 $)

>  <Rbt.Library>
libRbt.so (2013.1, Build901 2013/11/27)

>  <Rbt.Parameter_File>
/export/apps/rDock/src/rDock_2013.1_src/data/scripts/dock_solv.prm

>  <Rbt.Receptor>
prm/pocket_docking_6.prm

>  <SCORE>
-4.44004

>  <SCORE.INTER>
-0.605965

>  <SCORE.INTER.CONST>
1

>  <SCORE.INTER.POLAR>
0

>  <SCORE.INTER.ROT>
11

>  <SCORE.INTER.SOLV>
16.9233

>  <SCORE.INTER.VDW>
-16.9784

>  <SCORE.INTER.norm>
-0.0432832

>  <SCORE.INTRA>
-3.83407

>  <SCORE.INTRA.DIHEDRAL>
-9.19579

>  <SCORE.INTRA.DIHEDRAL.0>
10.5765

>  <SCORE.INTRA.POLAR>
0

>  <SCORE.INTRA.POLAR.0>
0

>  <SCORE.INTRA.REPUL>
0

>  <SCORE.INTRA.REPUL.0>
0

>  <SCORE.INTRA.SOLV>
0.293878

>  <SCORE.INTRA.SOLV.lig_0>
-50.1861

>  <SCORE.INTRA.VDW>
0.616881

>  <SCORE.INTRA.VDW.0>
-1.36671

>  <SCORE.INTRA.norm>
-0.273862

>  <SCORE.RESTR>
0

>  <SCORE.RESTR.CAVITY>
0

>  <SCORE.RESTR.norm>
0

>  <SCORE.SYSTEM>
0

>  <SCORE.SYSTEM.CONST>
0

>  <SCORE.SYSTEM.DIHEDRAL>
0

>  <SCORE.SYSTEM.SOLV>
0

>  <SCORE.SYSTEM.norm>
0

>  <SCORE.heavy>
14

>  <SCORE.norm>
-0.317146

>  <RMSD>
4.768

$$$$
ligand
 OpenBabel11021811393D
libRbt.so/2013.1/901 2013/11/27
 14 13  0  0  0  0  0  0  0  0999 V2000
   -8.7317    4.9404    6.2369 N   0  0  0  0  0  0  0  0  0  0  0  0
   -8.5892    3.4180    6.2454 C   0  0  0  0  0  0  0  0  0  0  0  0
   -7.4959    3.1270    7.2081 C   0  0  0  0  0  0  0  0  0  0  0  0
   -6.1044    3.4807    6.7091 C   0  0  0  0  0  0  0  0  0  0  0  0
   -5.1357    3.3908    7.8342 N   0  0  0  0  0  0  0  0  0  0  0  0
   -4.1400    2.2491    7.5602 C   0  0  0  0  0  0  0  0  0  0  0  0
   -3.3811    2.1224    8.9673 C   0  0  0  0  0  0  0  0  0  0  0  0
   -2.5699    1.0932    8.9309 C   0  0  0  0  0  0  0  0  0  0  0  0
   -2.1005    1.1629   10.4982 C   0  0  0  0  0  0  0  0  0  0  0  0
   -1.5151   -0.2845   10.6161 N   0  0  0  0  0  0  0  0  0  0  0  0
    0.0544   -0.3470   10.4375 C   0  0  0  0  0  0  0  0  0  0  0  0
    0.4680   -1.9136   10.6441 C   0  0  0  0  0  0  0  0  0  0  0  0
    1.9575   -1.9130   10.4587 C   0  0  0  0  0  0  0  0  0  0  0  0
    2.3725   -3.3618   10.5618 N   0  0  0  0  0  0  0  0  0  0  0  0
  1  2  1  0  0  0  0
  2  3  1  0  0  0  0
  3  4  1  0  0  0  0
  4  5  1  0  0  0  0
  5  6  1  0  0  0  0
  6  7  1  0  0  0  0
  7  8  1  0  0  0  0
  8  9  1  0  0  0  0
  9 10  1  0  0  0  0
 10 11  1  0  0  0  0
 11 12  1  0  0  0  0
 12 13  1  0  0  0  0
 13 14  1  0  0  0  0
M  END
>  <CHROM.1>
-72.80703337,169.35768090,114.39411285,-169.58905478,174.28848688,-174.67248649
162.64381613,97.52577266,178.10231901,179.76683693,-176.76422778,-3.20790887
1.22605383,8.77916743,-2.92696406,0.64321917,-2.52669620

>  <Name>
ligand

>  <RI>
0

>  <Rbt.Current_Directory>
/home/itssahil/PROJECTS/Mol_Feturizer/New_Systems/rnas/1FUF

>  <Rbt.Executable>
rbdock ($Id: //depot/dev/client3/rdock/2013.1/src/exe/rbdock.cxx#4 $)

>  <Rbt.Library>
libRbt.so (2013.1, Build901 2013/11/27)

>  <Rbt.Parameter_File>
/export/apps/rDock/src/rDock_2013.1_src/data/scripts/dock_solv.prm

>  <Rbt.Receptor>
prm/pocket_docking_7.prm

>  <SCORE>
-1.87858

>  <SCORE.INTER>
0.640047

>  <SCORE.INTER.CONST>
1

>  <SCORE.INTER.POLAR>
0

>  <SCORE.INTER.ROT>
11

>  <SCORE.INTER.SOLV>
16.7806

>  <SCORE.INTER.VDW>
-16.1002

>  <SCORE.INTER.norm>
0.0457176

>  <SCORE.INTRA>
-2.51862

>  <SCORE.INTRA.DIHEDRAL>
-6.12281

>  <SCORE.INTRA.DIHEDRAL.0>
10.5765

>  <SCORE.INTRA.POLAR>
0

>  <SCORE.INTRA.POLAR.0>
0

>  <SCORE.INTRA.REPUL>
0

>  <SCORE.INTRA.REPUL.0>
0

>  <SCORE.INTRA.SOLV>
0.716019

>  <SCORE.INTRA.SOLV.lig_0>
-50.1861

>  <SCORE.INTRA.VDW>
0.184772

>  <SCORE.INTRA.VDW.0>
-1.36671

>  <SCORE.INTRA.norm>
-0.179902

>  <SCORE.RESTR>
0

>  <SCORE.RESTR.CAVITY>
0

>  <SCORE.RESTR.norm>
0

>  <SCORE.SYSTEM>
0

>  <SCORE.SYSTEM.CONST>
0

>  <SCORE.SYSTEM.DIHEDRAL>
0

>  <SCORE.SYSTEM.SOLV>
0

>  <SCORE.SYSTEM.norm>
0

>  <SCORE.heavy>
14

>  <SCORE.norm>
-0.134184

>  <RMSD>
4.785

$$$$
ligand
 OpenBabel11021811393D
libRbt.so/2013.1/901 2013/11/27
 14 13  0  0  0  0  0  0  0  0999 V2000
    6.9335   -6.8472    7.5890 N   0  0  0  0  0  0  0  0  0  0  0  0
    6.5473   -8.0201    8.4909 C   0  0  0  0  0  0  0  0  0  0  0  0
    5.1096   -8.2746    8.2172 C   0  0  0  0  0  0  0  0  0  0  0  0
    4.1892   -7.1090    8.5412 C   0  0  0  0  0  0  0  0  0  0  0  0
    4.3059   -6.7706    9.9849 N   0  0  0  0  0  0  0  0  0  0  0  0
    5.1334   -5.4821   10.1416 C   0  0  0  0  0  0  0  0  0  0  0  0
    4.1736   -4.5771   11.0536 C   0  0  0  0  0  0  0  0  0  0  0  0
    3.1775   -4.1329   10.3263 C   0  0  0  0  0  0  0  0  0  0  0  0
    2.1108   -3.9465   11.5547 C   0  0  0  0  0  0  0  0  0  0  0  0
    1.0356   -3.1075   10.7857 N   0  0  0  0  0  0  0  0  0  0  0  0
    1.1579   -1.5502   11.0286 C   0  0  0  0  0  0  0  0  0  0  0  0
   -0.2936   -0.9175   10.6278 C   0  0  0  0  0  0  0  0  0  0  0  0
   -0.1484    0.5387   10.9616 C   0  0  0  0  0  0  0  0  0  0  0  0
   -1.5202    1.1347   10.7498 N   0  0  0  0  0  0  0  0  0  0  0  0
  1  2  1  0  0  0  0
  2  3  1  0  0  0  0
  3  4  1  0  0  0  0
  4  5  1  0  0  0  0
  5  6  1  0  0  0  0
  6  7  1  0  0  0  0
  7  8  1  0  0  0  0
  8  9  1  0  0  0  0
  9 10  1  0  0  0  0
 10 11  1  0  0  0  0
 11 12  1  0  0  0  0
 12 13  1  0  0  0  0
 13 14  1  0  0  0  0
M  END
>  <CHROM.1>
-61.33105509,-59.71979725,104.81291011,127.70078333,-74.26632595,153.92344889
167.35094258,-97.66765872,-160.04734684,176.43426448,-173.89362886,2.99384707
-4.21883315,10.00386685,0.10362653,0.89019782,-1.39154572

>  <Name>
ligand

>  <RI>
0

>  <Rbt.Current_Directory>
/home/itssahil/PROJECTS/Mol_Feturizer/New_Systems/rnas/1FUF

>  <Rbt.Executable>
rbdock ($Id: //depot/dev/client3/rdock/2013.1/src/exe/rbdock.cxx#4 $)

>  <Rbt.Library>
libRbt.so (2013.1, Build901 2013/11/27)

>  <Rbt.Parameter_File>
/export/apps/rDock/src/rDock_2013.1_src/data/scripts/dock_solv.prm

>  <Rbt.Receptor>
prm/blind_docking_60.prm

>  <SCORE>
0.713015

>  <SCORE.INTER>
0.00438468

>  <SCORE.INTER.CONST>
1

>  <SCORE.INTER.POLAR>
0

>  <SCORE.INTER.ROT>
11

>  <SCORE.INTER.SOLV>
17.028

>  <SCORE.INTER.VDW>
-16.6064

>  <SCORE.INTER.norm>
0.000313191

>  <SCORE.INTRA>
0.70863

>  <SCORE.INTRA.DIHEDRAL>
-3.32229

>  <SCORE.INTRA.DIHEDRAL.0>
10.5765

>  <SCORE.INTRA.POLAR>
0

>  <SCORE.INTRA.POLAR.0>
0

>  <SCORE.INTRA.REPUL>
0

>  <SCORE.INTRA.REPUL.0>
0

>  <SCORE.INTRA.SOLV>
3.32772

>  <SCORE.INTRA.SOLV.lig_0>
-50.1861

>  <SCORE.INTRA.VDW>
0.705915

>  <SCORE.INTRA.VDW.0>
-1.36671

>  <SCORE.INTRA.norm>
0.0506164

>  <SCORE.RESTR>
0

>  <SCORE.RESTR.CAVITY>
0

>  <SCORE.RESTR.norm>
0

>  <SCORE.SYSTEM>
0

>  <SCORE.SYSTEM.CONST>
0

>  <SCORE.SYSTEM.DIHEDRAL>
0

>  <SCORE.SYSTEM.SOLV>
0

>  <SCORE.SYSTEM.norm>
0

>  <SCORE.heavy>
14

>  <SCORE.norm>
0.0509296

>  <RMSD>
4.796

$$$$
ligand
 OpenBabel11021811393D
libRbt.so/2013.1/901 2013/11/27
 14 13  0  0  0  0  0  0  0  0999 V2000
    2.9555   -2.6232   10.5671 N   0  0  0  0  0  0  0  0  0  0  0  0
    1.5045   -2.3975   10.9933 C   0  0  0  0  0  0  0  0  0  0  0  0
    1.0771   -1.1534   10.3030 C   0  0  0  0  0  0  0  0  0  0  0  0
   -0.3687   -0.7569   10.5542 C   0  0  0  0  0  0  0  0  0  0  0  0
   -0.7328    0.3805    9.6675 N   0  0  0  0  0  0  0  0  0  0  0  0
   -2.2199    0.7257    9.8651 C   0  0  0  0  0  0  0  0  0  0  0  0
   -2.5032    1.7050    8.6270 C   0  0  0  0  0  0  0  0  0  0  0  0
   -3.7291    2.1625    8.7083 C   0  0  0  0  0  0  0  0  0  0  0  0
   -3.6933    3.0530    7.3345 C   0  0  0  0  0  0  0  0  0  0  0  0
   -5.0509    3.8086    7.5278 N   0  0  0  0  0  0  0  0  0  0  0  0
   -6.1897    3.3219    6.5453 C   0  0  0  0  0  0  0  0  0  0  0  0
   -7.6024    3.6674    7.2886 C   0  0  0  0  0  0  0  0  0  0  0  0
   -8.6388    3.1322    6.3438 C   0  0  0  0  0  0  0  0  0  0  0  0
   -9.9664    3.4174    7.0055 N   0  0  0  0  0  0  0  0  0  0  0  0
  1  2  1  0  0  0  0
  2  3  1  0  0  0  0
  3  4  1  0  0  0  0
  4  5  1  0  0  0  0
  5  6  1  0  0  0  0
  6  7  1  0  0  0  0
  7  8  1  0  0  0  0
  8  9  1  0  0  0  0
  9 10  1  0  0  0  0
 10 11  1  0  0  0  0
 11 12  1  0  0  0  0
 12 13  1  0  0  0  0
 13 14  1  0  0  0  0
M  END
>  <CHROM.1>
178.23396931,-171.99990086,176.71878597,-167.61027993,-175.83021231,-178.64768825
-170.71869787,-108.12350207,154.93203939,-177.60669930,179.30123753,-3.22557633
1.31739274,8.66648590,0.59792945,0.08733361,2.64638933

>  <Name>
ligand

>  <RI>
0

>  <Rbt.Current_Directory>
/home/itssahil/PROJECTS/Mol_Feturizer/New_Systems/rnas/1FUF

>  <Rbt.Executable>
rbdock ($Id: //depot/dev/client3/rdock/2013.1/src/exe/rbdock.cxx#4 $)

>  <Rbt.Library>
libRbt.so (2013.1, Build901 2013/11/27)

>  <Rbt.Parameter_File>
/export/apps/rDock/src/rDock_2013.1_src/data/scripts/dock_solv.prm

>  <Rbt.Receptor>
prm/pocket_docking_5.prm

>  <SCORE>
-4.60915

>  <SCORE.INTER>
-0.393703

>  <SCORE.INTER.CONST>
1

>  <SCORE.INTER.POLAR>
0

>  <SCORE.INTER.ROT>
11

>  <SCORE.INTER.SOLV>
16.0411

>  <SCORE.INTER.VDW>
-16.5428

>  <SCORE.INTER.norm>
-0.0281217

>  <SCORE.INTRA>
-4.21545

>  <SCORE.INTRA.DIHEDRAL>
-8.24466

>  <SCORE.INTRA.DIHEDRAL.0>
10.5765

>  <SCORE.INTRA.POLAR>
0

>  <SCORE.INTRA.POLAR.0>
0

>  <SCORE.INTRA.REPUL>
0

>  <SCORE.INTRA.REPUL.0>
0

>  <SCORE.INTRA.SOLV>
-0.154427

>  <SCORE.INTRA.SOLV.lig_0>
-50.1861

>  <SCORE.INTRA.VDW>
-0.0159039

>  <SCORE.INTRA.VDW.0>
-1.36671

>  <SCORE.INTRA.norm>
-0.301104

>  <SCORE.RESTR>
0

>  <SCORE.RESTR.CAVITY>
0

>  <SCORE.RESTR.norm>
0

>  <SCORE.SYSTEM>
0

>  <SCORE.SYSTEM.CONST>
0

>  <SCORE.SYSTEM.DIHEDRAL>
0

>  <SCORE.SYSTEM.SOLV>
0

>  <SCORE.SYSTEM.norm>
0

>  <SCORE.heavy>
14

>  <SCORE.norm>
-0.329225

>  <RMSD>
4.800

$$$$
ligand
 OpenBabel11021811393D
libRbt.so/2013.1/901 2013/11/27
 14 13  0  0  0  0  0  0  0  0999 V2000
    2.2464   -2.1687   10.4742 N   0  0  0  0  0  0  0  0  0  0  0  0
    1.2341   -1.1682   11.0331 C   0  0  0  0  0  0  0  0  0  0  0  0
   -0.0761   -1.5651   10.4566 C   0  0  0  0  0  0  0  0  0  0  0  0
   -1.2555   -0.7368   10.9398 C   0  0  0  0  0  0  0  0  0  0  0  0
   -1.1744    0.6296   10.3578 N   0  0  0  0  0  0  0  0  0  0  0  0
   -1.6088    0.5820    8.8817 C   0  0  0  0  0  0  0  0  0  0  0  0
   -2.5916    1.8453    8.7815 C   0  0  0  0  0  0  0  0  0  0  0  0
   -3.7571    1.5290    9.2916 C   0  0  0  0  0  0  0  0  0  0  0  0
   -4.5810    2.8150    8.7007 C   0  0  0  0  0  0  0  0  0  0  0  0
   -6.0080    2.4097    9.2013 N   0  0  0  0  0  0  0  0  0  0  0  0
   -7.1439    3.4116    8.7484 C   0  0  0  0  0  0  0  0  0  0  0  0
   -7.3478    3.1652    7.1467 C   0  0  0  0  0  0  0  0  0  0  0  0
   -8.4208    4.1459    6.7724 C   0  0  0  0  0  0  0  0  0  0  0  0
   -9.6957    3.5835    7.3557 N   0  0  0  0  0  0  0  0  0  0  0  0
  1  2  1  0  0  0  0
  2  3  1  0  0  0  0
  3  4  1  0  0  0  0
  4  5  1  0  0  0  0
  5  6  1  0  0  0  0
  6  7  1  0  0  0  0
  7  8  1  0  0  0  0
  8  9  1  0  0  0  0
  9 10  1  0  0  0  0
 10 11  1  0  0  0  0
 11 12  1  0  0  0  0
 12 13  1  0  0  0  0
 13 14  1  0  0  0  0
M  END
>  <CHROM.1>
177.03716662,70.91574702,76.11839180,134.39495024,-78.51715559,-166.31369853
175.86791970,-177.14024696,72.12710961,-179.47317300,-72.67021740,-3.58427875
1.31993846,9.15289908,-0.52960497,0.22877466,-0.92705973

>  <Name>
ligand

>  <RI>
0

>  <Rbt.Current_Directory>
/home/itssahil/PROJECTS/Mol_Feturizer/New_Systems/rnas/1FUF

>  <Rbt.Executable>
rbdock ($Id: //depot/dev/client3/rdock/2013.1/src/exe/rbdock.cxx#4 $)

>  <Rbt.Library>
libRbt.so (2013.1, Build901 2013/11/27)

>  <Rbt.Parameter_File>
/export/apps/rDock/src/rDock_2013.1_src/data/scripts/dock_solv.prm

>  <Rbt.Receptor>
prm/blind_docking_80.prm

>  <SCORE>
2.0979

>  <SCORE.INTER>
3.12733

>  <SCORE.INTER.CONST>
1

>  <SCORE.INTER.POLAR>
0

>  <SCORE.INTER.ROT>
11

>  <SCORE.INTER.SOLV>
14.2087

>  <SCORE.INTER.VDW>
-13.5847

>  <SCORE.INTER.norm>
0.223381

>  <SCORE.INTRA>
-1.02944

>  <SCORE.INTRA.DIHEDRAL>
-6.14

>  <SCORE.INTRA.DIHEDRAL.0>
10.5765

>  <SCORE.INTRA.POLAR>
0

>  <SCORE.INTRA.POLAR.0>
0

>  <SCORE.INTRA.REPUL>
0

>  <SCORE.INTRA.REPUL.0>
0

>  <SCORE.INTRA.SOLV>
1.39242

>  <SCORE.INTRA.SOLV.lig_0>
-50.1861

>  <SCORE.INTRA.VDW>
1.34436

>  <SCORE.INTRA.VDW.0>
-1.36671

>  <SCORE.INTRA.norm>
-0.0735311

>  <SCORE.RESTR>
0

>  <SCORE.RESTR.CAVITY>
0

>  <SCORE.RESTR.norm>
0

>  <SCORE.SYSTEM>
0

>  <SCORE.SYSTEM.CONST>
0

>  <SCORE.SYSTEM.DIHEDRAL>
0

>  <SCORE.SYSTEM.SOLV>
0

>  <SCORE.SYSTEM.norm>
0

>  <SCORE.heavy>
14

>  <SCORE.norm>
0.14985

>  <RMSD>
4.896

$$$$
ligand
 OpenBabel11021811393D
libRbt.so/2013.1/901 2013/11/27
 14 13  0  0  0  0  0  0  0  0999 V2000
   -1.1991    0.3489   10.9248 N   0  0  0  0  0  0  0  0  0  0  0  0
    0.0159   -0.3984   11.4755 C   0  0  0  0  0  0  0  0  0  0  0  0
    0.6884   -0.9904   10.2906 C   0  0  0  0  0  0  0  0  0  0  0  0
    1.9742   -1.7386   10.6025 C   0  0  0  0  0  0  0  0  0  0  0  0
    1.6641   -2.9359   11.4286 N   0  0  0  0  0  0  0  0  0  0  0  0
    1.5366   -4.1677   10.5142 C   0  0  0  0  0  0  0  0  0  0  0  0
    1.6564   -5.3759   11.5621 C   0  0  0  0  0  0  0  0  0  0  0  0
    1.7593   -6.5076   10.9084 C   0  0  0  0  0  0  0  0  0  0  0  0
    3.3938   -6.5246   10.8096 C   0  0  0  0  0  0  0  0  0  0  0  0
    3.5323   -5.9306    9.3676 N   0  0  0  0  0  0  0  0  0  0  0  0
    3.8711   -7.0149    8.2682 C   0  0  0  0  0  0  0  0  0  0  0  0
    5.4854   -7.2496    8.3511 C   0  0  0  0  0  0  0  0  0  0  0  0
    6.0566   -5.9540    7.8527 C   0  0  0  0  0  0  0  0  0  0  0  0
    7.5464   -6.1854    7.7588 N   0  0  0  0  0  0  0  0  0  0  0  0
  1  2  1  0  0  0  0
  2  3  1  0  0  0  0
  3  4  1  0  0  0  0
  4  5  1  0  0  0  0
  5  6  1  0  0  0  0
  6  7  1  0  0  0  0
  7  8  1  0  0  0  0
  8  9  1  0  0  0  0
  9 10  1  0  0  0  0
 10 11  1  0  0  0  0
 11 12  1  0  0  0  0
 12 13  1  0  0  0  0
 13 14  1  0  0  0  0
M  END
>  <CHROM.1>
177.42560921,65.51616982,95.89348757,163.48291682,-170.93490668,90.25444412
-97.13916956,-103.18608865,-81.93704378,-68.38425753,-173.52251392,2.71289655
-4.33059832,10.00825309,-2.47585323,-0.60803765,2.93566195

>  <Name>
ligand

>  <RI>
0

>  <Rbt.Current_Directory>
/home/itssahil/PROJECTS/Mol_Feturizer/New_Systems/rnas/1FUF

>  <Rbt.Executable>
rbdock ($Id: //depot/dev/client3/rdock/2013.1/src/exe/rbdock.cxx#4 $)

>  <Rbt.Library>
libRbt.so (2013.1, Build901 2013/11/27)

>  <Rbt.Parameter_File>
/export/apps/rDock/src/rDock_2013.1_src/data/scripts/dock_solv.prm

>  <Rbt.Receptor>
prm/blind_docking_80.prm

>  <SCORE>
-0.589331

>  <SCORE.INTER>
-3.02444

>  <SCORE.INTER.CONST>
1

>  <SCORE.INTER.POLAR>
0

>  <SCORE.INTER.ROT>
11

>  <SCORE.INTER.SOLV>
15.78

>  <SCORE.INTER.VDW>
-18.2096

>  <SCORE.INTER.norm>
-0.216031

>  <SCORE.INTRA>
2.4351

>  <SCORE.INTRA.DIHEDRAL>
-0.515224

>  <SCORE.INTRA.DIHEDRAL.0>
10.5765

>  <SCORE.INTRA.POLAR>
0

>  <SCORE.INTRA.POLAR.0>
0

>  <SCORE.INTRA.REPUL>
0

>  <SCORE.INTRA.REPUL.0>
0

>  <SCORE.INTRA.SOLV>
1.92833

>  <SCORE.INTRA.SOLV.lig_0>
-50.1861

>  <SCORE.INTRA.VDW>
1.72855

>  <SCORE.INTRA.VDW.0>
-1.36671

>  <SCORE.INTRA.norm>
0.173936

>  <SCORE.RESTR>
0

>  <SCORE.RESTR.CAVITY>
0

>  <SCORE.RESTR.norm>
0

>  <SCORE.SYSTEM>
0

>  <SCORE.SYSTEM.CONST>
0

>  <SCORE.SYSTEM.DIHEDRAL>
0

>  <SCORE.SYSTEM.SOLV>
0

>  <SCORE.SYSTEM.norm>
0

>  <SCORE.heavy>
14

>  <SCORE.norm>
-0.0420951

>  <RMSD>
4.899

$$$$
ligand
 OpenBabel11021811393D
libRbt.so/2013.1/901 2013/11/27
 14 13  0  0  0  0  0  0  0  0999 V2000
    8.5762   -5.7836    5.6679 N   0  0  0  0  0  0  0  0  0  0  0  0
    7.0656   -5.5759    5.7810 C   0  0  0  0  0  0  0  0  0  0  0  0
    6.7557   -5.6956    7.2289 C   0  0  0  0  0  0  0  0  0  0  0  0
    5.2718   -5.7264    7.5566 C   0  0  0  0  0  0  0  0  0  0  0  0
    5.0904   -5.9200    9.0201 N   0  0  0  0  0  0  0  0  0  0  0  0
    3.6564   -6.4071    9.2965 C   0  0  0  0  0  0  0  0  0  0  0  0
    3.2019   -5.4449   10.4964 C   0  0  0  0  0  0  0  0  0  0  0  0
    3.0809   -4.2194   10.0468 C   0  0  0  0  0  0  0  0  0  0  0  0
    2.6884   -3.5275   11.4782 C   0  0  0  0  0  0  0  0  0  0  0  0
    2.4383   -2.0725   10.9569 N   0  0  0  0  0  0  0  0  0  0  0  0
    0.9068   -1.7002   10.8351 C   0  0  0  0  0  0  0  0  0  0  0  0
    0.8514   -0.2883   10.0157 C   0  0  0  0  0  0  0  0  0  0  0  0
   -0.6183   -0.0088    9.8926 C   0  0  0  0  0  0  0  0  0  0  0  0
   -1.0194    0.6038   11.2138 N   0  0  0  0  0  0  0  0  0  0  0  0
  1  2  1  0  0  0  0
  2  3  1  0  0  0  0
  3  4  1  0  0  0  0
  4  5  1  0  0  0  0
  5  6  1  0  0  0  0
  6  7  1  0  0  0  0
  7  8  1  0  0  0  0
  8  9  1  0  0  0  0
  9 10  1  0  0  0  0
 10 11  1  0  0  0  0
 11 12  1  0  0  0  0
 12 13  1  0  0  0  0
 13 14  1  0  0  0  0
M  END
>  <CHROM.1>
-171.40070887,177.02546591,-161.59795520,-132.50995373,68.37179090,-177.76861126
-176.27414605,103.27264720,-169.22316605,178.25650561,81.33569343,3.42459071
-3.69777361,9.24905848,-0.22293734,0.75956256,-0.62838141

>  <Name>
ligand

>  <RI>
0

>  <Rbt.Current_Directory>
/home/itssahil/PROJECTS/Mol_Feturizer/New_Systems/rnas/1FUF

>  <Rbt.Executable>
rbdock ($Id: //depot/dev/client3/rdock/2013.1/src/exe/rbdock.cxx#4 $)

>  <Rbt.Library>
libRbt.so (2013.1, Build901 2013/11/27)

>  <Rbt.Parameter_File>
/export/apps/rDock/src/rDock_2013.1_src/data/scripts/dock_solv.prm

>  <Rbt.Receptor>
prm/pocket_docking_5.prm

>  <SCORE>
-2.6461

>  <SCORE.INTER>
-0.669246

>  <SCORE.INTER.CONST>
1

>  <SCORE.INTER.POLAR>
0

>  <SCORE.INTER.ROT>
11

>  <SCORE.INTER.SOLV>
15.425

>  <SCORE.INTER.VDW>
-16.5212

>  <SCORE.INTER.norm>
-0.0478033

>  <SCORE.INTRA>
-1.97685

>  <SCORE.INTRA.DIHEDRAL>
-5.96126

>  <SCORE.INTRA.DIHEDRAL.0>
10.5765

>  <SCORE.INTRA.POLAR>
0

>  <SCORE.INTRA.POLAR.0>
0

>  <SCORE.INTRA.REPUL>
0

>  <SCORE.INTRA.REPUL.0>
0

>  <SCORE.INTRA.SOLV>
1.00813

>  <SCORE.INTRA.SOLV.lig_0>
-50.1861

>  <SCORE.INTRA.VDW>
0.499715

>  <SCORE.INTRA.VDW.0>
-1.36671

>  <SCORE.INTRA.norm>
-0.141204

>  <SCORE.RESTR>
0

>  <SCORE.RESTR.CAVITY>
0

>  <SCORE.RESTR.norm>
0

>  <SCORE.SYSTEM>
0

>  <SCORE.SYSTEM.CONST>
0

>  <SCORE.SYSTEM.DIHEDRAL>
0

>  <SCORE.SYSTEM.SOLV>
0

>  <SCORE.SYSTEM.norm>
0

>  <SCORE.heavy>
14

>  <SCORE.norm>
-0.189007

>  <RMSD>
4.909

$$$$
ligand
 OpenBabel11021811393D
libRbt.so/2013.1/901 2013/11/27
 14 13  0  0  0  0  0  0  0  0999 V2000
   -1.7375   -0.4594   10.7159 N   0  0  0  0  0  0  0  0  0  0  0  0
   -0.5279    0.4737   10.6511 C   0  0  0  0  0  0  0  0  0  0  0  0
    0.5907   -0.3612   10.1429 C   0  0  0  0  0  0  0  0  0  0  0  0
    0.9926   -1.5046   11.0603 C   0  0  0  0  0  0  0  0  0  0  0  0
    2.0277   -2.3375   10.3915 N   0  0  0  0  0  0  0  0  0  0  0  0
    2.7319   -3.2163   11.4410 C   0  0  0  0  0  0  0  0  0  0  0  0
    3.4559   -4.3158   10.5251 C   0  0  0  0  0  0  0  0  0  0  0  0
    4.3839   -3.7354    9.8035 C   0  0  0  0  0  0  0  0  0  0  0  0
    4.7568   -5.0391    8.8854 C   0  0  0  0  0  0  0  0  0  0  0  0
    5.7677   -4.3413    7.9145 N   0  0  0  0  0  0  0  0  0  0  0  0
    6.2941   -5.2888    6.7637 C   0  0  0  0  0  0  0  0  0  0  0  0
    7.7374   -5.8575    7.2749 C   0  0  0  0  0  0  0  0  0  0  0  0
    8.2130   -6.6978    6.1257 C   0  0  0  0  0  0  0  0  0  0  0  0
    8.5443   -5.7171    5.0255 N   0  0  0  0  0  0  0  0  0  0  0  0
  1  2  1  0  0  0  0
  2  3  1  0  0  0  0
  3  4  1  0  0  0  0
  4  5  1  0  0  0  0
  5  6  1  0  0  0  0
  6  7  1  0  0  0  0
  7  8  1  0  0  0  0
  8  9  1  0  0  0  0
  9 10  1  0  0  0  0
 10 11  1  0  0  0  0
 11 12  1  0  0  0  0
 12 13  1  0  0  0  0
 13 14  1  0  0  0  0
M  END
>  <CHROM.1>
-63.84869024,174.78902241,163.16478498,163.72610266,66.15894103,-172.85333606
174.76117135,-175.69608427,-97.26247574,-177.66242086,69.89599077,3.80224047
-3.45710558,9.05171419,2.98567795,-0.70719933,2.03623606

>  <Name>
ligand

>  <RI>
0

>  <Rbt.Current_Directory>
/home/itssahil/PROJECTS/Mol_Feturizer/New_Systems/rnas/1FUF

>  <Rbt.Executable>
rbdock ($Id: //depot/dev/client3/rdock/2013.1/src/exe/rbdock.cxx#4 $)

>  <Rbt.Library>
libRbt.so (2013.1, Build901 2013/11/27)

>  <Rbt.Parameter_File>
/export/apps/rDock/src/rDock_2013.1_src/data/scripts/dock_solv.prm

>  <Rbt.Receptor>
prm/pocket_docking_5.prm

>  <SCORE>
-0.443891

>  <SCORE.INTER>
1.50147

>  <SCORE.INTER.CONST>
1

>  <SCORE.INTER.POLAR>
0

>  <SCORE.INTER.ROT>
11

>  <SCORE.INTER.SOLV>
18.5148

>  <SCORE.INTER.VDW>
-16.104

>  <SCORE.INTER.norm>
0.107248

>  <SCORE.INTRA>
-1.94536

>  <SCORE.INTRA.DIHEDRAL>
-8.31715

>  <SCORE.INTRA.DIHEDRAL.0>
10.5765

>  <SCORE.INTRA.POLAR>
0

>  <SCORE.INTRA.POLAR.0>
0

>  <SCORE.INTRA.REPUL>
0

>  <SCORE.INTRA.REPUL.0>
0

>  <SCORE.INTRA.SOLV>
2.27073

>  <SCORE.INTRA.SOLV.lig_0>
-50.1861

>  <SCORE.INTRA.VDW>
1.07785

>  <SCORE.INTRA.VDW.0>
-1.36671

>  <SCORE.INTRA.norm>
-0.138954

>  <SCORE.RESTR>
0

>  <SCORE.RESTR.CAVITY>
0

>  <SCORE.RESTR.norm>
0

>  <SCORE.SYSTEM>
0

>  <SCORE.SYSTEM.CONST>
0

>  <SCORE.SYSTEM.DIHEDRAL>
0

>  <SCORE.SYSTEM.SOLV>
0

>  <SCORE.SYSTEM.norm>
0

>  <SCORE.heavy>
14

>  <SCORE.norm>
-0.0317065

>  <RMSD>
4.915

$$$$
ligand
 OpenBabel11021811393D
libRbt.so/2013.1/901 2013/11/27
 14 13  0  0  0  0  0  0  0  0999 V2000
   -1.6222    0.7181    9.6759 N   0  0  0  0  0  0  0  0  0  0  0  0
   -0.8657    0.0401   10.8187 C   0  0  0  0  0  0  0  0  0  0  0  0
    0.2205   -0.7377   10.1693 C   0  0  0  0  0  0  0  0  0  0  0  0
    1.0670   -1.5608   11.1266 C   0  0  0  0  0  0  0  0  0  0  0  0
    2.1544   -2.2383   10.3710 N   0  0  0  0  0  0  0  0  0  0  0  0
    2.8533   -3.2588   11.2874 C   0  0  0  0  0  0  0  0  0  0  0  0
    4.2012   -3.5691   10.4757 C   0  0  0  0  0  0  0  0  0  0  0  0
    3.9142   -4.2890    9.4183 C   0  0  0  0  0  0  0  0  0  0  0  0
    5.4502   -4.4529    8.8747 C   0  0  0  0  0  0  0  0  0  0  0  0
    5.1488   -5.3649    7.6382 N   0  0  0  0  0  0  0  0  0  0  0  0
    6.2586   -5.2919    6.5147 C   0  0  0  0  0  0  0  0  0  0  0  0
    7.4529   -6.2963    6.9971 C   0  0  0  0  0  0  0  0  0  0  0  0
    8.4584   -6.2085    5.8860 C   0  0  0  0  0  0  0  0  0  0  0  0
    9.5496   -7.1846    6.2580 N   0  0  0  0  0  0  0  0  0  0  0  0
  1  2  1  0  0  0  0
  2  3  1  0  0  0  0
  3  4  1  0  0  0  0
  4  5  1  0  0  0  0
  5  6  1  0  0  0  0
  6  7  1  0  0  0  0
  7  8  1  0  0  0  0
  8  9  1  0  0  0  0
  9 10  1  0  0  0  0
 10 11  1  0  0  0  0
 11 12  1  0  0  0  0
 12 13  1  0  0  0  0
 13 14  1  0  0  0  0
M  END
>  <CHROM.1>
-176.98415431,-177.29698907,-170.09630121,-164.82756157,-72.05715050,-178.40736230
177.70755575,156.71388486,81.80678064,178.87178880,-176.98868309,3.87441284
-3.54961991,8.96530878,2.84011183,-0.65811414,1.70073367

>  <Name>
ligand

>  <RI>
0

>  <Rbt.Current_Directory>
/home/itssahil/PROJECTS/Mol_Feturizer/New_Systems/rnas/1FUF

>  <Rbt.Executable>
rbdock ($Id: //depot/dev/client3/rdock/2013.1/src/exe/rbdock.cxx#4 $)

>  <Rbt.Library>
libRbt.so (2013.1, Build901 2013/11/27)

>  <Rbt.Parameter_File>
/export/apps/rDock/src/rDock_2013.1_src/data/scripts/dock_solv.prm

>  <Rbt.Receptor>
prm/pocket_docking_8.prm

>  <SCORE>
-3.93755

>  <SCORE.INTER>
-0.0962553

>  <SCORE.INTER.CONST>
1

>  <SCORE.INTER.POLAR>
0

>  <SCORE.INTER.ROT>
11

>  <SCORE.INTER.SOLV>
13.697

>  <SCORE.INTER.VDW>
-15.5632

>  <SCORE.INTER.norm>
-0.00687538

>  <SCORE.INTRA>
-3.84129

>  <SCORE.INTRA.DIHEDRAL>
-8.91073

>  <SCORE.INTRA.DIHEDRAL.0>
10.5765

>  <SCORE.INTRA.POLAR>
0

>  <SCORE.INTRA.POLAR.0>
0

>  <SCORE.INTRA.REPUL>
0

>  <SCORE.INTRA.REPUL.0>
0

>  <SCORE.INTRA.SOLV>
0.275105

>  <SCORE.INTRA.SOLV.lig_0>
-50.1861

>  <SCORE.INTRA.VDW>
0.476519

>  <SCORE.INTRA.VDW.0>
-1.36671

>  <SCORE.INTRA.norm>
-0.274378

>  <SCORE.RESTR>
0

>  <SCORE.RESTR.CAVITY>
0

>  <SCORE.RESTR.norm>
0

>  <SCORE.SYSTEM>
0

>  <SCORE.SYSTEM.CONST>
0

>  <SCORE.SYSTEM.DIHEDRAL>
0

>  <SCORE.SYSTEM.SOLV>
0

>  <SCORE.SYSTEM.norm>
0

>  <SCORE.heavy>
14

>  <SCORE.norm>
-0.281254

>  <RMSD>
5.011

$$$$
ligand
 OpenBabel11021811393D
libRbt.so/2013.1/901 2013/11/27
 14 13  0  0  0  0  0  0  0  0999 V2000
   -7.7065    2.7800    5.8297 N   0  0  0  0  0  0  0  0  0  0  0  0
   -8.4433    3.9130    6.5448 C   0  0  0  0  0  0  0  0  0  0  0  0
   -8.4945    3.5130    7.9745 C   0  0  0  0  0  0  0  0  0  0  0  0
   -7.1717    3.6378    8.7129 C   0  0  0  0  0  0  0  0  0  0  0  0
   -6.1807    2.7019    8.1179 N   0  0  0  0  0  0  0  0  0  0  0  0
   -4.8774    2.7510    8.9357 C   0  0  0  0  0  0  0  0  0  0  0  0
   -3.8254    2.0786    7.9292 C   0  0  0  0  0  0  0  0  0  0  0  0
   -2.6215    2.1626    8.4413 C   0  0  0  0  0  0  0  0  0  0  0  0
   -2.6850    0.7760    9.3102 C   0  0  0  0  0  0  0  0  0  0  0  0
   -1.2425    0.8311    9.9165 N   0  0  0  0  0  0  0  0  0  0  0  0
   -0.8204   -0.4971   10.6627 C   0  0  0  0  0  0  0  0  0  0  0  0
    0.7483   -0.7469   10.2823 C   0  0  0  0  0  0  0  0  0  0  0  0
    1.0514   -2.0838   10.8939 C   0  0  0  0  0  0  0  0  0  0  0  0
    2.4769   -2.3890   10.4981 N   0  0  0  0  0  0  0  0  0  0  0  0
  1  2  1  0  0  0  0
  2  3  1  0  0  0  0
  3  4  1  0  0  0  0
  4  5  1  0  0  0  0
  5  6  1  0  0  0  0
  6  7  1  0  0  0  0
  7  8  1  0  0  0  0
  8  9  1  0  0  0  0
  9 10  1  0  0  0  0
 10 11  1  0  0  0  0
 11 12  1  0  0  0  0
 12 13  1  0  0  0  0
 13 14  1  0  0  0  0
M  END
>  <CHROM.1>
73.95233863,-63.90121259,-175.64133659,-163.10332174,174.04822703,87.41642333
178.93955472,-170.59535551,140.42763529,-174.29221679,176.94213445,-3.55675587
1.38790040,8.86080393,-2.93514096,-0.55388048,1.36198467

>  <Name>
ligand

>  <RI>
0

>  <Rbt.Current_Directory>
/home/itssahil/PROJECTS/Mol_Feturizer/New_Systems/rnas/1FUF

>  <Rbt.Executable>
rbdock ($Id: //depot/dev/client3/rdock/2013.1/src/exe/rbdock.cxx#4 $)

>  <Rbt.Library>
libRbt.so (2013.1, Build901 2013/11/27)

>  <Rbt.Parameter_File>
/export/apps/rDock/src/rDock_2013.1_src/data/scripts/dock_solv.prm

>  <Rbt.Receptor>
prm/blind_docking_80.prm

>  <SCORE>
1.56785

>  <SCORE.INTER>
1.51337

>  <SCORE.INTER.CONST>
1

>  <SCORE.INTER.POLAR>
0

>  <SCORE.INTER.ROT>
11

>  <SCORE.INTER.SOLV>
16.4527

>  <SCORE.INTER.VDW>
-15.4087

>  <SCORE.INTER.norm>
0.108098

>  <SCORE.INTRA>
0.0544773

>  <SCORE.INTRA.DIHEDRAL>
-5.67759

>  <SCORE.INTRA.DIHEDRAL.0>
10.5765

>  <SCORE.INTRA.POLAR>
0

>  <SCORE.INTRA.POLAR.0>
0

>  <SCORE.INTRA.REPUL>
0

>  <SCORE.INTRA.REPUL.0>
0

>  <SCORE.INTRA.SOLV>
3.37748

>  <SCORE.INTRA.SOLV.lig_0>
-50.1861

>  <SCORE.INTRA.VDW>
1.20454

>  <SCORE.INTRA.VDW.0>
-1.36671

>  <SCORE.INTRA.norm>
0.00389123

>  <SCORE.RESTR>
0

>  <SCORE.RESTR.CAVITY>
0

>  <SCORE.RESTR.norm>
0

>  <SCORE.SYSTEM>
0

>  <SCORE.SYSTEM.CONST>
0

>  <SCORE.SYSTEM.DIHEDRAL>
0

>  <SCORE.SYSTEM.SOLV>
0

>  <SCORE.SYSTEM.norm>
0

>  <SCORE.heavy>
14

>  <SCORE.norm>
0.111989

>  <RMSD>
5.029

$$$$
ligand
 OpenBabel11021811393D
libRbt.so/2013.1/901 2013/11/27
 14 13  0  0  0  0  0  0  0  0999 V2000
   -0.9654    0.2785   11.0372 N   0  0  0  0  0  0  0  0  0  0  0  0
   -0.3445   -1.0090   10.4942 C   0  0  0  0  0  0  0  0  0  0  0  0
    1.0831   -0.9641   10.9024 C   0  0  0  0  0  0  0  0  0  0  0  0
    1.9467   -2.0608   10.3008 C   0  0  0  0  0  0  0  0  0  0  0  0
    1.4269   -3.3893   10.7217 N   0  0  0  0  0  0  0  0  0  0  0  0
    2.5012   -4.1191   11.5481 C   0  0  0  0  0  0  0  0  0  0  0  0
    1.9260   -5.6153   11.5975 C   0  0  0  0  0  0  0  0  0  0  0  0
    2.0195   -6.1548   10.4064 C   0  0  0  0  0  0  0  0  0  0  0  0
    3.6082   -6.5421   10.4950 C   0  0  0  0  0  0  0  0  0  0  0  0
    3.7630   -7.1608    9.0650 N   0  0  0  0  0  0  0  0  0  0  0  0
    4.2295   -6.1173    7.9730 C   0  0  0  0  0  0  0  0  0  0  0  0
    5.8552   -6.2507    7.8896 C   0  0  0  0  0  0  0  0  0  0  0  0
    6.2352   -5.2729    6.8158 C   0  0  0  0  0  0  0  0  0  0  0  0
    7.7220   -5.4542    6.6199 N   0  0  0  0  0  0  0  0  0  0  0  0
  1  2  1  0  0  0  0
  2  3  1  0  0  0  0
  3  4  1  0  0  0  0
  4  5  1  0  0  0  0
  5  6  1  0  0  0  0
  6  7  1  0  0  0  0
  7  8  1  0  0  0  0
  8  9  1  0  0  0  0
  9 10  1  0  0  0  0
 10 11  1  0  0  0  0
 11 12  1  0  0  0  0
 12 13  1  0  0  0  0
 13 14  1  0  0  0  0
M  END
>  <CHROM.1>
-171.88208358,-60.37988120,-117.84652400,-166.76860772,70.26119922,79.89698380
-178.66697462,92.32988768,94.39039993,178.38593148,-175.07792311,2.92901993
-4.27383283,9.70489966,-2.68716684,-0.69794662,2.80444754

>  <Name>
ligand

>  <RI>
0

>  <Rbt.Current_Directory>
/home/itssahil/PROJECTS/Mol_Feturizer/New_Systems/rnas/1FUF

>  <Rbt.Executable>
rbdock ($Id: //depot/dev/client3/rdock/2013.1/src/exe/rbdock.cxx#4 $)

>  <Rbt.Library>
libRbt.so (2013.1, Build901 2013/11/27)

>  <Rbt.Parameter_File>
/export/apps/rDock/src/rDock_2013.1_src/data/scripts/dock_solv.prm

>  <Rbt.Receptor>
prm/blind_docking_80.prm

>  <SCORE>
-1.63622

>  <SCORE.INTER>
-1.87436

>  <SCORE.INTER.CONST>
1

>  <SCORE.INTER.POLAR>
0

>  <SCORE.INTER.ROT>
11

>  <SCORE.INTER.SOLV>
17.5197

>  <SCORE.INTER.VDW>
-18.0228

>  <SCORE.INTER.norm>
-0.133883

>  <SCORE.INTRA>
0.238138

>  <SCORE.INTRA.DIHEDRAL>
-5.57377

>  <SCORE.INTRA.DIHEDRAL.0>
10.5765

>  <SCORE.INTRA.POLAR>
0

>  <SCORE.INTRA.POLAR.0>
0

>  <SCORE.INTRA.REPUL>
0

>  <SCORE.INTRA.REPUL.0>
0

>  <SCORE.INTRA.SOLV>
0.995378

>  <SCORE.INTRA.SOLV.lig_0>
-50.1861

>  <SCORE.INTRA.VDW>
2.52733

>  <SCORE.INTRA.VDW.0>
-1.36671

>  <SCORE.INTRA.norm>
0.0170099

>  <SCORE.RESTR>
0

>  <SCORE.RESTR.CAVITY>
0

>  <SCORE.RESTR.norm>
0

>  <SCORE.SYSTEM>
0

>  <SCORE.SYSTEM.CONST>
0

>  <SCORE.SYSTEM.DIHEDRAL>
0

>  <SCORE.SYSTEM.SOLV>
0

>  <SCORE.SYSTEM.norm>
0

>  <SCORE.heavy>
14

>  <SCORE.norm>
-0.116873

>  <RMSD>
5.049

$$$$
ligand
 OpenBabel11021811393D
libRbt.so/2013.1/901 2013/11/27
 14 13  0  0  0  0  0  0  0  0999 V2000
   -2.1379   -0.3191   10.5918 N   0  0  0  0  0  0  0  0  0  0  0  0
   -0.6401   -0.1071   10.3686 C   0  0  0  0  0  0  0  0  0  0  0  0
   -0.0069   -1.4208   10.6513 C   0  0  0  0  0  0  0  0  0  0  0  0
    1.5060   -1.4372   10.5045 C   0  0  0  0  0  0  0  0  0  0  0  0
    2.0181   -2.8034   10.7932 N   0  0  0  0  0  0  0  0  0  0  0  0
    3.5567   -2.7925   10.7441 C   0  0  0  0  0  0  0  0  0  0  0  0
    3.8548   -3.6336    9.4115 C   0  0  0  0  0  0  0  0  0  0  0  0
    3.7012   -4.9111    9.6621 C   0  0  0  0  0  0  0  0  0  0  0  0
    3.9903   -5.4417    8.1401 C   0  0  0  0  0  0  0  0  0  0  0  0
    5.5526   -5.3421    8.1664 N   0  0  0  0  0  0  0  0  0  0  0  0
    6.2131   -5.4023    6.7314 C   0  0  0  0  0  0  0  0  0  0  0  0
    7.6182   -6.2142    6.9173 C   0  0  0  0  0  0  0  0  0  0  0  0
    8.1526   -6.3202    5.5186 C   0  0  0  0  0  0  0  0  0  0  0  0
    9.4068   -7.1541    5.6334 N   0  0  0  0  0  0  0  0  0  0  0  0
  1  2  1  0  0  0  0
  2  3  1  0  0  0  0
  3  4  1  0  0  0  0
  4  5  1  0  0  0  0
  5  6  1  0  0  0  0
  6  7  1  0  0  0  0
  7  8  1  0  0  0  0
  8  9  1  0  0  0  0
  9 10  1  0  0  0  0
 10 11  1  0  0  0  0
 11 12  1  0  0  0  0
 12 13  1  0  0  0  0
 13 14  1  0  0  0  0
M  END
>  <CHROM.1>
-179.33996387,-179.21389485,-175.91485616,-109.98196694,-77.54976144,177.26357714
78.73331859,-164.29402513,-144.63475281,176.36308440,-176.03568400,3.77040826
-3.80706748,8.84531607,2.74998522,-0.61040447,1.62116987

>  <Name>
ligand

>  <RI>
0

>  <Rbt.Current_Directory>
/home/itssahil/PROJECTS/Mol_Feturizer/New_Systems/rnas/1FUF

>  <Rbt.Executable>
rbdock ($Id: //depot/dev/client3/rdock/2013.1/src/exe/rbdock.cxx#4 $)

>  <Rbt.Library>
libRbt.so (2013.1, Build901 2013/11/27)

>  <Rbt.Parameter_File>
/export/apps/rDock/src/rDock_2013.1_src/data/scripts/dock_solv.prm

>  <Rbt.Receptor>
prm/pocket_docking_6.prm

>  <SCORE>
-1.49124

>  <SCORE.INTER>
-0.0547827

>  <SCORE.INTER.CONST>
1

>  <SCORE.INTER.POLAR>
0

>  <SCORE.INTER.ROT>
11

>  <SCORE.INTER.SOLV>
14.5162

>  <SCORE.INTER.VDW>
-15.8086

>  <SCORE.INTER.norm>
-0.00391305

>  <SCORE.INTRA>
-1.43646

>  <SCORE.INTRA.DIHEDRAL>
-6.03078

>  <SCORE.INTRA.DIHEDRAL.0>
10.5765

>  <SCORE.INTRA.POLAR>
0

>  <SCORE.INTRA.POLAR.0>
0

>  <SCORE.INTRA.REPUL>
0

>  <SCORE.INTRA.REPUL.0>
0

>  <SCORE.INTRA.SOLV>
0.776984

>  <SCORE.INTRA.SOLV.lig_0>
-50.1861

>  <SCORE.INTRA.VDW>
1.19044

>  <SCORE.INTRA.VDW.0>
-1.36671

>  <SCORE.INTRA.norm>
-0.102604

>  <SCORE.RESTR>
0

>  <SCORE.RESTR.CAVITY>
0

>  <SCORE.RESTR.norm>
0

>  <SCORE.SYSTEM>
0

>  <SCORE.SYSTEM.CONST>
0

>  <SCORE.SYSTEM.DIHEDRAL>
0

>  <SCORE.SYSTEM.SOLV>
0

>  <SCORE.SYSTEM.norm>
0

>  <SCORE.heavy>
14

>  <SCORE.norm>
-0.106517

>  <RMSD>
5.074

$$$$
ligand
 OpenBabel11021811393D
libRbt.so/2013.1/901 2013/11/27
 14 13  0  0  0  0  0  0  0  0999 V2000
   -0.7043    0.4715   11.3243 N   0  0  0  0  0  0  0  0  0  0  0  0
   -0.3677   -0.0332    9.9207 C   0  0  0  0  0  0  0  0  0  0  0  0
    1.0128   -0.5739   10.0139 C   0  0  0  0  0  0  0  0  0  0  0  0
    1.1300   -1.8759   10.7894 C   0  0  0  0  0  0  0  0  0  0  0  0
    2.5335   -2.3647   10.7298 N   0  0  0  0  0  0  0  0  0  0  0  0
    2.6117   -3.7691   11.3555 C   0  0  0  0  0  0  0  0  0  0  0  0
    3.0730   -4.6657   10.1084 C   0  0  0  0  0  0  0  0  0  0  0  0
    3.0864   -5.9275   10.4635 C   0  0  0  0  0  0  0  0  0  0  0  0
    3.6647   -6.5188    9.0501 C   0  0  0  0  0  0  0  0  0  0  0  0
    5.1821   -6.2173    9.2910 N   0  0  0  0  0  0  0  0  0  0  0  0
    6.1036   -6.5973    8.0640 C   0  0  0  0  0  0  0  0  0  0  0  0
    6.4242   -5.1943    7.2915 C   0  0  0  0  0  0  0  0  0  0  0  0
    7.1935   -5.6273    6.0775 C   0  0  0  0  0  0  0  0  0  0  0  0
    8.5212   -6.1208    6.6023 N   0  0  0  0  0  0  0  0  0  0  0  0
  1  2  1  0  0  0  0
  2  3  1  0  0  0  0
  3  4  1  0  0  0  0
  4  5  1  0  0  0  0
  5  6  1  0  0  0  0
  6  7  1  0  0  0  0
  7  8  1  0  0  0  0
  8  9  1  0  0  0  0
  9 10  1  0  0  0  0
 10 11  1  0  0  0  0
 11 12  1  0  0  0  0
 12 13  1  0  0  0  0
 13 14  1  0  0  0  0
M  END
>  <CHROM.1>
71.39610321,175.95416775,-172.66545109,116.88359636,-175.17741964,-176.77347323
81.21722451,-177.10853464,101.31548751,-175.16446901,-69.09957748,3.53305657
-3.92974190,9.36295956,-2.76521628,-0.70599805,2.66800892

>  <Name>
ligand

>  <RI>
0

>  <Rbt.Current_Directory>
/home/itssahil/PROJECTS/Mol_Feturizer/New_Systems/rnas/1FUF

>  <Rbt.Executable>
rbdock ($Id: //depot/dev/client3/rdock/2013.1/src/exe/rbdock.cxx#4 $)

>  <Rbt.Library>
libRbt.so (2013.1, Build901 2013/11/27)

>  <Rbt.Parameter_File>
/export/apps/rDock/src/rDock_2013.1_src/data/scripts/dock_solv.prm

>  <Rbt.Receptor>
prm/blind_docking_60.prm

>  <SCORE>
-1.82287

>  <SCORE.INTER>
-1.16593

>  <SCORE.INTER.CONST>
1

>  <SCORE.INTER.POLAR>
0

>  <SCORE.INTER.ROT>
11

>  <SCORE.INTER.SOLV>
13.8766

>  <SCORE.INTER.VDW>
-16.3362

>  <SCORE.INTER.norm>
-0.0832804

>  <SCORE.INTRA>
-0.656948

>  <SCORE.INTRA.DIHEDRAL>
-5.79868

>  <SCORE.INTRA.DIHEDRAL.0>
10.5765

>  <SCORE.INTRA.POLAR>
0

>  <SCORE.INTRA.POLAR.0>
0

>  <SCORE.INTRA.REPUL>
0

>  <SCORE.INTRA.REPUL.0>
0

>  <SCORE.INTRA.SOLV>
2.05321

>  <SCORE.INTRA.SOLV.lig_0>
-50.1861

>  <SCORE.INTRA.VDW>
1.21579

>  <SCORE.INTRA.VDW.0>
-1.36671

>  <SCORE.INTRA.norm>
-0.0469248

>  <SCORE.RESTR>
0

>  <SCORE.RESTR.CAVITY>
0

>  <SCORE.RESTR.norm>
0

>  <SCORE.SYSTEM>
0

>  <SCORE.SYSTEM.CONST>
0

>  <SCORE.SYSTEM.DIHEDRAL>
0

>  <SCORE.SYSTEM.SOLV>
0

>  <SCORE.SYSTEM.norm>
0

>  <SCORE.heavy>
14

>  <SCORE.norm>
-0.130205

>  <RMSD>
5.078

$$$$
ligand
 OpenBabel11021811393D
libRbt.so/2013.1/901 2013/11/27
 14 13  0  0  0  0  0  0  0  0999 V2000
    8.8286   -5.6737    6.8747 N   0  0  0  0  0  0  0  0  0  0  0  0
    7.5296   -5.7244    7.6798 C   0  0  0  0  0  0  0  0  0  0  0  0
    7.2593   -7.1673    7.9067 C   0  0  0  0  0  0  0  0  0  0  0  0
    5.9949   -7.4558    8.6995 C   0  0  0  0  0  0  0  0  0  0  0  0
    4.8136   -6.9462    7.9530 N   0  0  0  0  0  0  0  0  0  0  0  0
    3.6122   -6.8406    8.9096 C   0  0  0  0  0  0  0  0  0  0  0  0
    3.7436   -5.3353    9.4467 C   0  0  0  0  0  0  0  0  0  0  0  0
    2.6975   -5.0445   10.1814 C   0  0  0  0  0  0  0  0  0  0  0  0
    3.0447   -3.4579   10.3907 C   0  0  0  0  0  0  0  0  0  0  0  0
    1.6581   -3.0033   10.9583 N   0  0  0  0  0  0  0  0  0  0  0  0
    1.7057   -1.6063   11.6967 C   0  0  0  0  0  0  0  0  0  0  0  0
    0.1943   -0.9948   11.5989 C   0  0  0  0  0  0  0  0  0  0  0  0
    0.0522   -0.6345   10.1486 C   0  0  0  0  0  0  0  0  0  0  0  0
   -1.2281    0.1621   10.0596 N   0  0  0  0  0  0  0  0  0  0  0  0
  1  2  1  0  0  0  0
  2  3  1  0  0  0  0
  3  4  1  0  0  0  0
  4  5  1  0  0  0  0
  5  6  1  0  0  0  0
  6  7  1  0  0  0  0
  7  8  1  0  0  0  0
  8  9  1  0  0  0  0
  9 10  1  0  0  0  0
 10 11  1  0  0  0  0
 11 12  1  0  0  0  0
 12 13  1  0  0  0  0
 13 14  1  0  0  0  0
M  END
>  <CHROM.1>
-179.97082611,61.91746309,-162.81907032,91.19820165,173.61085996,-173.28398340
166.92363489,162.63433969,154.65795154,-70.83846073,-169.98009832,3.56473973
-4.26606461,9.46478448,-0.64117955,0.44370516,-0.03252341

>  <Name>
ligand

>  <RI>
0

>  <Rbt.Current_Directory>
/home/itssahil/PROJECTS/Mol_Feturizer/New_Systems/rnas/1FUF

>  <Rbt.Executable>
rbdock ($Id: //depot/dev/client3/rdock/2013.1/src/exe/rbdock.cxx#4 $)

>  <Rbt.Library>
libRbt.so (2013.1, Build901 2013/11/27)

>  <Rbt.Parameter_File>
/export/apps/rDock/src/rDock_2013.1_src/data/scripts/dock_solv.prm

>  <Rbt.Receptor>
prm/blind_docking_100.prm

>  <SCORE>
-0.759054

>  <SCORE.INTER>
2.18443

>  <SCORE.INTER.CONST>
1

>  <SCORE.INTER.POLAR>
0

>  <SCORE.INTER.ROT>
11

>  <SCORE.INTER.SOLV>
15.4813

>  <SCORE.INTER.VDW>
-14.6375

>  <SCORE.INTER.norm>
0.156031

>  <SCORE.INTRA>
-2.9453

>  <SCORE.INTRA.DIHEDRAL>
-7.24545

>  <SCORE.INTRA.DIHEDRAL.0>
10.5765

>  <SCORE.INTRA.POLAR>
0

>  <SCORE.INTRA.POLAR.0>
0

>  <SCORE.INTRA.REPUL>
0

>  <SCORE.INTRA.REPUL.0>
0

>  <SCORE.INTRA.SOLV>
0.646283

>  <SCORE.INTRA.SOLV.lig_0>
-50.1861

>  <SCORE.INTRA.VDW>
0.354281

>  <SCORE.INTRA.VDW.0>
-1.36671

>  <SCORE.INTRA.norm>
-0.210379

>  <SCORE.RESTR>
0.00181627

>  <SCORE.RESTR.CAVITY>
0.00181627

>  <SCORE.RESTR.norm>
0.000129733

>  <SCORE.SYSTEM>
0

>  <SCORE.SYSTEM.CONST>
0

>  <SCORE.SYSTEM.DIHEDRAL>
0

>  <SCORE.SYSTEM.SOLV>
0

>  <SCORE.SYSTEM.norm>
0

>  <SCORE.heavy>
14

>  <SCORE.norm>
-0.0542181

>  <RMSD>
5.154

$$$$
ligand
 OpenBabel11021811393D
libRbt.so/2013.1/901 2013/11/27
 14 13  0  0  0  0  0  0  0  0999 V2000
   -9.4366    4.8079    6.6358 N   0  0  0  0  0  0  0  0  0  0  0  0
   -9.7286    4.3359    8.0605 C   0  0  0  0  0  0  0  0  0  0  0  0
   -8.7794    3.2212    8.3118 C   0  0  0  0  0  0  0  0  0  0  0  0
   -7.3244    3.6454    8.4297 C   0  0  0  0  0  0  0  0  0  0  0  0
   -6.4752    2.4468    8.6631 N   0  0  0  0  0  0  0  0  0  0  0  0
   -5.0768    2.8945    9.1255 C   0  0  0  0  0  0  0  0  0  0  0  0
   -4.3955    1.4998    9.5287 C   0  0  0  0  0  0  0  0  0  0  0  0
   -3.1678    1.7184    9.9334 C   0  0  0  0  0  0  0  0  0  0  0  0
   -2.8191    0.1695   10.3345 C   0  0  0  0  0  0  0  0  0  0  0  0
   -1.3971    0.4153   10.9418 N   0  0  0  0  0  0  0  0  0  0  0  0
   -0.2175    0.0541    9.9533 C   0  0  0  0  0  0  0  0  0  0  0  0
    0.1972   -1.4887   10.2934 C   0  0  0  0  0  0  0  0  0  0  0  0
    1.1461   -1.3529   11.4484 C   0  0  0  0  0  0  0  0  0  0  0  0
    1.8240   -2.6976   11.5673 N   0  0  0  0  0  0  0  0  0  0  0  0
  1  2  1  0  0  0  0
  2  3  1  0  0  0  0
  3  4  1  0  0  0  0
  4  5  1  0  0  0  0
  5  6  1  0  0  0  0
  6  7  1  0  0  0  0
  7  8  1  0  0  0  0
  8  9  1  0  0  0  0
  9 10  1  0  0  0  0
 10 11  1  0  0  0  0
 11 12  1  0  0  0  0
 12 13  1  0  0  0  0
 13 14  1  0  0  0  0
M  END
>  <CHROM.1>
69.45232431,-179.32998464,-166.08959820,171.97935071,179.11324952,176.81241754
-175.29142733,-100.53791072,-93.45871210,-84.17556020,-165.85335149,-3.97508204
1.40504319,9.51626853,-2.56033264,0.06997746,2.71512147

>  <Name>
ligand

>  <RI>
0

>  <Rbt.Current_Directory>
/home/itssahil/PROJECTS/Mol_Feturizer/New_Systems/rnas/1FUF

>  <Rbt.Executable>
rbdock ($Id: //depot/dev/client3/rdock/2013.1/src/exe/rbdock.cxx#4 $)

>  <Rbt.Library>
libRbt.so (2013.1, Build901 2013/11/27)

>  <Rbt.Parameter_File>
/export/apps/rDock/src/rDock_2013.1_src/data/scripts/dock_solv.prm

>  <Rbt.Receptor>
prm/blind_docking_60.prm

>  <SCORE>
1.51715

>  <SCORE.INTER>
3.65251

>  <SCORE.INTER.CONST>
1

>  <SCORE.INTER.POLAR>
0

>  <SCORE.INTER.ROT>
11

>  <SCORE.INTER.SOLV>
15.757

>  <SCORE.INTER.VDW>
-13.7507

>  <SCORE.INTER.norm>
0.260894

>  <SCORE.INTRA>
-2.13536

>  <SCORE.INTRA.DIHEDRAL>
-5.63325

>  <SCORE.INTRA.DIHEDRAL.0>
10.5765

>  <SCORE.INTRA.POLAR>
0

>  <SCORE.INTRA.POLAR.0>
0

>  <SCORE.INTRA.REPUL>
0

>  <SCORE.INTRA.REPUL.0>
0

>  <SCORE.INTRA.SOLV>
0.97377

>  <SCORE.INTRA.SOLV.lig_0>
-50.1861

>  <SCORE.INTRA.VDW>
0.194377

>  <SCORE.INTRA.VDW.0>
-1.36671

>  <SCORE.INTRA.norm>
-0.152526

>  <SCORE.RESTR>
0

>  <SCORE.RESTR.CAVITY>
0

>  <SCORE.RESTR.norm>
0

>  <SCORE.SYSTEM>
0

>  <SCORE.SYSTEM.CONST>
0

>  <SCORE.SYSTEM.DIHEDRAL>
0

>  <SCORE.SYSTEM.SOLV>
0

>  <SCORE.SYSTEM.norm>
0

>  <SCORE.heavy>
14

>  <SCORE.norm>
0.108368

>  <RMSD>
5.198

$$$$
ligand
 OpenBabel11021811393D
libRbt.so/2013.1/901 2013/11/27
 14 13  0  0  0  0  0  0  0  0999 V2000
   -1.9899    0.2575   10.1391 N   0  0  0  0  0  0  0  0  0  0  0  0
   -0.6308    0.2215   10.8387 C   0  0  0  0  0  0  0  0  0  0  0  0
   -0.1164   -1.1572   10.6359 C   0  0  0  0  0  0  0  0  0  0  0  0
    1.2231   -1.4353   11.2986 C   0  0  0  0  0  0  0  0  0  0  0  0
    1.6210   -2.8452   11.0419 N   0  0  0  0  0  0  0  0  0  0  0  0
    2.8354   -2.8686   10.0961 C   0  0  0  0  0  0  0  0  0  0  0  0
    3.0429   -4.4408    9.8570 C   0  0  0  0  0  0  0  0  0  0  0  0
    4.0261   -4.6240    9.0095 C   0  0  0  0  0  0  0  0  0  0  0  0
    3.8959   -6.2536    8.9135 C   0  0  0  0  0  0  0  0  0  0  0  0
    5.1697   -6.5243    8.0442 N   0  0  0  0  0  0  0  0  0  0  0  0
    6.1339   -7.6152    8.6600 C   0  0  0  0  0  0  0  0  0  0  0  0
    5.4533   -9.0603    8.3190 C   0  0  0  0  0  0  0  0  0  0  0  0
    6.2860  -10.0357    9.0990 C   0  0  0  0  0  0  0  0  0  0  0  0
    7.6085  -10.1012    8.3720 N   0  0  0  0  0  0  0  0  0  0  0  0
  1  2  1  0  0  0  0
  2  3  1  0  0  0  0
  3  4  1  0  0  0  0
  4  5  1  0  0  0  0
  5  6  1  0  0  0  0
  6  7  1  0  0  0  0
  7  8  1  0  0  0  0
  8  9  1  0  0  0  0
  9 10  1  0  0  0  0
 10 11  1  0  0  0  0
 11 12  1  0  0  0  0
 12 13  1  0  0  0  0
 13 14  1  0  0  0  0
M  END
>  <CHROM.1>
-178.02529373,179.20002275,111.04964256,-176.05552699,177.30820892,-176.16532945
-173.42256774,128.05261474,78.22113751,-171.62825247,-72.10764873,3.18279313
-4.74872057,9.59468861,2.26735472,-0.33707797,0.52411320

>  <Name>
ligand

>  <RI>
0

>  <Rbt.Current_Directory>
/home/itssahil/PROJECTS/Mol_Feturizer/New_Systems/rnas/1FUF

>  <Rbt.Executable>
rbdock ($Id: //depot/dev/client3/rdock/2013.1/src/exe/rbdock.cxx#4 $)

>  <Rbt.Library>
libRbt.so (2013.1, Build901 2013/11/27)

>  <Rbt.Parameter_File>
/export/apps/rDock/src/rDock_2013.1_src/data/scripts/dock_solv.prm

>  <Rbt.Receptor>
prm/pocket_docking_8.prm

>  <SCORE>
-3.50787

>  <SCORE.INTER>
-0.864892

>  <SCORE.INTER.CONST>
1

>  <SCORE.INTER.POLAR>
0

>  <SCORE.INTER.ROT>
11

>  <SCORE.INTER.SOLV>
13.0245

>  <SCORE.INTER.VDW>
-15.8514

>  <SCORE.INTER.norm>
-0.061778

>  <SCORE.INTRA>
-2.64297

>  <SCORE.INTRA.DIHEDRAL>
-6.96268

>  <SCORE.INTRA.DIHEDRAL.0>
10.5765

>  <SCORE.INTRA.POLAR>
0

>  <SCORE.INTRA.POLAR.0>
0

>  <SCORE.INTRA.REPUL>
0

>  <SCORE.INTRA.REPUL.0>
0

>  <SCORE.INTRA.SOLV>
0.711874

>  <SCORE.INTRA.SOLV.lig_0>
-50.1861

>  <SCORE.INTRA.VDW>
0.48243

>  <SCORE.INTRA.VDW.0>
-1.36671

>  <SCORE.INTRA.norm>
-0.188784

>  <SCORE.RESTR>
0

>  <SCORE.RESTR.CAVITY>
0

>  <SCORE.RESTR.norm>
0

>  <SCORE.SYSTEM>
0

>  <SCORE.SYSTEM.CONST>
0

>  <SCORE.SYSTEM.DIHEDRAL>
0

>  <SCORE.SYSTEM.SOLV>
0

>  <SCORE.SYSTEM.norm>
0

>  <SCORE.heavy>
14

>  <SCORE.norm>
-0.250562

>  <RMSD>
5.208

$$$$
ligand
 OpenBabel11021811393D
libRbt.so/2013.1/901 2013/11/27
 14 13  0  0  0  0  0  0  0  0999 V2000
  -10.3366    3.2350    6.9634 N   0  0  0  0  0  0  0  0  0  0  0  0
   -9.7965    4.5699    7.4775 C   0  0  0  0  0  0  0  0  0  0  0  0
   -8.7206    4.2187    8.4397 C   0  0  0  0  0  0  0  0  0  0  0  0
   -7.4651    3.6465    7.8018 C   0  0  0  0  0  0  0  0  0  0  0  0
   -6.4879    3.2876    8.8641 N   0  0  0  0  0  0  0  0  0  0  0  0
   -5.1080    3.0438    8.2267 C   0  0  0  0  0  0  0  0  0  0  0  0
   -4.3067    2.3384    9.4235 C   0  0  0  0  0  0  0  0  0  0  0  0
   -3.1200    1.9792    8.9977 C   0  0  0  0  0  0  0  0  0  0  0  0
   -2.6256    1.2654   10.3861 C   0  0  0  0  0  0  0  0  0  0  0  0
   -1.2588    0.7035    9.8690 N   0  0  0  0  0  0  0  0  0  0  0  0
   -0.6574   -0.4357   10.7853 C   0  0  0  0  0  0  0  0  0  0  0  0
    0.8342   -0.7456   10.1962 C   0  0  0  0  0  0  0  0  0  0  0  0
    1.2965   -1.9217   11.0062 C   0  0  0  0  0  0  0  0  0  0  0  0
    2.6765   -2.2468   10.4849 N   0  0  0  0  0  0  0  0  0  0  0  0
  1  2  1  0  0  0  0
  2  3  1  0  0  0  0
  3  4  1  0  0  0  0
  4  5  1  0  0  0  0
  5  6  1  0  0  0  0
  6  7  1  0  0  0  0
  7  8  1  0  0  0  0
  8  9  1  0  0  0  0
  9 10  1  0  0  0  0
 10 11  1  0  0  0  0
 11 12  1  0  0  0  0
 12 13  1  0  0  0  0
 13 14  1  0  0  0  0
M  END
>  <CHROM.1>
70.74936222,-177.84095807,-166.04335506,-166.77912811,175.62687744,-177.62522799
174.90687295,-162.23842060,-172.84270121,-174.34032624,179.69616284,-3.93402376
1.63860366,9.20878232,2.75114733,-0.37388894,0.22048551

>  <Name>
ligand

>  <RI>
0

>  <Rbt.Current_Directory>
/home/itssahil/PROJECTS/Mol_Feturizer/New_Systems/rnas/1FUF

>  <Rbt.Executable>
rbdock ($Id: //depot/dev/client3/rdock/2013.1/src/exe/rbdock.cxx#4 $)

>  <Rbt.Library>
libRbt.so (2013.1, Build901 2013/11/27)

>  <Rbt.Parameter_File>
/export/apps/rDock/src/rDock_2013.1_src/data/scripts/dock_solv.prm

>  <Rbt.Receptor>
prm/blind_docking_40.prm

>  <SCORE>
-2.71949

>  <SCORE.INTER>
1.44742

>  <SCORE.INTER.CONST>
1

>  <SCORE.INTER.POLAR>
0

>  <SCORE.INTER.ROT>
11

>  <SCORE.INTER.SOLV>
14.5986

>  <SCORE.INTER.VDW>
-14.8346

>  <SCORE.INTER.norm>
0.103387

>  <SCORE.INTRA>
-4.16691

>  <SCORE.INTRA.DIHEDRAL>
-9.24498

>  <SCORE.INTRA.DIHEDRAL.0>
10.5765

>  <SCORE.INTRA.POLAR>
0

>  <SCORE.INTRA.POLAR.0>
0

>  <SCORE.INTRA.REPUL>
0

>  <SCORE.INTRA.REPUL.0>
0

>  <SCORE.INTRA.SOLV>
0.65289

>  <SCORE.INTRA.SOLV.lig_0>
-50.1861

>  <SCORE.INTRA.VDW>
0.129139

>  <SCORE.INTRA.VDW.0>
-1.36671

>  <SCORE.INTRA.norm>
-0.297636

>  <SCORE.RESTR>
0

>  <SCORE.RESTR.CAVITY>
0

>  <SCORE.RESTR.norm>
0

>  <SCORE.SYSTEM>
0

>  <SCORE.SYSTEM.CONST>
0

>  <SCORE.SYSTEM.DIHEDRAL>
0

>  <SCORE.SYSTEM.SOLV>
0

>  <SCORE.SYSTEM.norm>
0

>  <SCORE.heavy>
14

>  <SCORE.norm>
-0.194249

>  <RMSD>
5.242

$$$$
ligand
 OpenBabel11021811393D
libRbt.so/2013.1/901 2013/11/27
 14 13  0  0  0  0  0  0  0  0999 V2000
   -1.0526    0.6222   10.3221 N   0  0  0  0  0  0  0  0  0  0  0  0
    0.2984    0.0175   10.7058 C   0  0  0  0  0  0  0  0  0  0  0  0
    0.0746   -1.4499   10.7631 C   0  0  0  0  0  0  0  0  0  0  0  0
    1.3080   -2.2633   11.1202 C   0  0  0  0  0  0  0  0  0  0  0  0
    2.3493   -2.0709   10.0756 N   0  0  0  0  0  0  0  0  0  0  0  0
    3.5589   -2.9699   10.3892 C   0  0  0  0  0  0  0  0  0  0  0  0
    3.4498   -4.0883    9.2450 C   0  0  0  0  0  0  0  0  0  0  0  0
    4.5042   -4.8656    9.2971 C   0  0  0  0  0  0  0  0  0  0  0  0
    4.1786   -5.7225    7.9401 C   0  0  0  0  0  0  0  0  0  0  0  0
    5.6304   -6.2307    7.6482 N   0  0  0  0  0  0  0  0  0  0  0  0
    6.5273   -5.1754    6.8860 C   0  0  0  0  0  0  0  0  0  0  0  0
    7.6838   -6.0382    6.1205 C   0  0  0  0  0  0  0  0  0  0  0  0
    8.5057   -6.6013    7.2433 C   0  0  0  0  0  0  0  0  0  0  0  0
    9.6230   -7.3666    6.5743 N   0  0  0  0  0  0  0  0  0  0  0  0
  1  2  1  0  0  0  0
  2  3  1  0  0  0  0
  3  4  1  0  0  0  0
  4  5  1  0  0  0  0
  5  6  1  0  0  0  0
  6  7  1  0  0  0  0
  7  8  1  0  0  0  0
  8  9  1  0  0  0  0
  9 10  1  0  0  0  0
 10 11  1  0  0  0  0
 11 12  1  0  0  0  0
 12 13  1  0  0  0  0
 13 14  1  0  0  0  0
M  END
>  <CHROM.1>
179.46612228,-62.26568811,-176.14585360,108.58830863,173.66434656,-173.27968971
158.43017900,-82.50135509,-156.05231798,-66.99749158,-177.89804492,4.04562576
-3.87168316,8.88084504,-2.88493352,-0.70091300,2.54097877

>  <Name>
ligand

>  <RI>
0

>  <Rbt.Current_Directory>
/home/itssahil/PROJECTS/Mol_Feturizer/New_Systems/rnas/1FUF

>  <Rbt.Executable>
rbdock ($Id: //depot/dev/client3/rdock/2013.1/src/exe/rbdock.cxx#4 $)

>  <Rbt.Library>
libRbt.so (2013.1, Build901 2013/11/27)

>  <Rbt.Parameter_File>
/export/apps/rDock/src/rDock_2013.1_src/data/scripts/dock_solv.prm

>  <Rbt.Receptor>
prm/pocket_docking_6.prm

>  <SCORE>
-2.90731

>  <SCORE.INTER>
-0.636686

>  <SCORE.INTER.CONST>
1

>  <SCORE.INTER.POLAR>
0

>  <SCORE.INTER.ROT>
11

>  <SCORE.INTER.SOLV>
12.9945

>  <SCORE.INTER.VDW>
-15.6893

>  <SCORE.INTER.norm>
-0.0454776

>  <SCORE.INTRA>
-2.27063

>  <SCORE.INTRA.DIHEDRAL>
-6.54556

>  <SCORE.INTRA.DIHEDRAL.0>
10.5765

>  <SCORE.INTRA.POLAR>
0

>  <SCORE.INTRA.POLAR.0>
0

>  <SCORE.INTRA.REPUL>
0

>  <SCORE.INTRA.REPUL.0>
0

>  <SCORE.INTRA.SOLV>
0.756372

>  <SCORE.INTRA.SOLV.lig_0>
-50.1861

>  <SCORE.INTRA.VDW>
0.623968

>  <SCORE.INTRA.VDW.0>
-1.36671

>  <SCORE.INTRA.norm>
-0.162188

>  <SCORE.RESTR>
0

>  <SCORE.RESTR.CAVITY>
0

>  <SCORE.RESTR.norm>
0

>  <SCORE.SYSTEM>
0

>  <SCORE.SYSTEM.CONST>
0

>  <SCORE.SYSTEM.DIHEDRAL>
0

>  <SCORE.SYSTEM.SOLV>
0

>  <SCORE.SYSTEM.norm>
0

>  <SCORE.heavy>
14

>  <SCORE.norm>
-0.207665

>  <RMSD>
5.343

$$$$
ligand
 OpenBabel11021811393D
libRbt.so/2013.1/901 2013/11/27
 14 13  0  0  0  0  0  0  0  0999 V2000
  -10.7354    3.7862    7.8235 N   0  0  0  0  0  0  0  0  0  0  0  0
   -9.2692    4.1595    7.6019 C   0  0  0  0  0  0  0  0  0  0  0  0
   -8.5377    3.6059    8.7703 C   0  0  0  0  0  0  0  0  0  0  0  0
   -7.0376    3.8504    8.7497 C   0  0  0  0  0  0  0  0  0  0  0  0
   -6.4325    3.1279    7.5991 N   0  0  0  0  0  0  0  0  0  0  0  0
   -4.9016    3.2826    7.6474 C   0  0  0  0  0  0  0  0  0  0  0  0
   -4.4653    2.0175    8.5311 C   0  0  0  0  0  0  0  0  0  0  0  0
   -3.1602    2.0039    8.6534 C   0  0  0  0  0  0  0  0  0  0  0  0
   -3.0595    0.5954    9.4827 C   0  0  0  0  0  0  0  0  0  0  0  0
   -1.5031    0.5483    9.6465 N   0  0  0  0  0  0  0  0  0  0  0  0
   -1.0242   -0.3169   10.8798 C   0  0  0  0  0  0  0  0  0  0  0  0
    0.5286    0.1102   11.1523 C   0  0  0  0  0  0  0  0  0  0  0  0
    1.2829   -0.5804   10.0536 C   0  0  0  0  0  0  0  0  0  0  0  0
    1.2767   -2.0445   10.4253 N   0  0  0  0  0  0  0  0  0  0  0  0
  1  2  1  0  0  0  0
  2  3  1  0  0  0  0
  3  4  1  0  0  0  0
  4  5  1  0  0  0  0
  5  6  1  0  0  0  0
  6  7  1  0  0  0  0
  7  8  1  0  0  0  0
  8  9  1  0  0  0  0
  9 10  1  0  0  0  0
 10 11  1  0  0  0  0
 11 12  1  0  0  0  0
 12 13  1  0  0  0  0
 13 14  1  0  0  0  0
M  END
>  <CHROM.1>
179.35364208,-64.74848113,-175.41126964,89.90699764,179.39957537,-176.46184649
-179.99838549,155.88550578,-163.41686699,-75.64238800,-72.72742632,-4.07404683
1.72485822,9.07268889,2.65760102,0.16120063,-0.80033658

>  <Name>
ligand

>  <RI>
0

>  <Rbt.Current_Directory>
/home/itssahil/PROJECTS/Mol_Feturizer/New_Systems/rnas/1FUF

>  <Rbt.Executable>
rbdock ($Id: //depot/dev/client3/rdock/2013.1/src/exe/rbdock.cxx#4 $)

>  <Rbt.Library>
libRbt.so (2013.1, Build901 2013/11/27)

>  <Rbt.Parameter_File>
/export/apps/rDock/src/rDock_2013.1_src/data/scripts/dock_solv.prm

>  <Rbt.Receptor>
prm/blind_docking_20.prm

>  <SCORE>
-0.130949

>  <SCORE.INTER>
2.12775

>  <SCORE.INTER.CONST>
1

>  <SCORE.INTER.POLAR>
0

>  <SCORE.INTER.ROT>
11

>  <SCORE.INTER.SOLV>
14.8727

>  <SCORE.INTER.VDW>
-14.4724

>  <SCORE.INTER.norm>
0.151982

>  <SCORE.INTRA>
-2.25869

>  <SCORE.INTRA.DIHEDRAL>
-7.72602

>  <SCORE.INTRA.DIHEDRAL.0>
10.5765

>  <SCORE.INTRA.POLAR>
0

>  <SCORE.INTRA.POLAR.0>
0

>  <SCORE.INTRA.REPUL>
0

>  <SCORE.INTRA.REPUL.0>
0

>  <SCORE.INTRA.SOLV>
1.85895

>  <SCORE.INTRA.SOLV.lig_0>
-50.1861

>  <SCORE.INTRA.VDW>
0.67484

>  <SCORE.INTRA.VDW.0>
-1.36671

>  <SCORE.INTRA.norm>
-0.161335

>  <SCORE.RESTR>
0

>  <SCORE.RESTR.CAVITY>
0

>  <SCORE.RESTR.norm>
0

>  <SCORE.SYSTEM>
0

>  <SCORE.SYSTEM.CONST>
0

>  <SCORE.SYSTEM.DIHEDRAL>
0

>  <SCORE.SYSTEM.SOLV>
0

>  <SCORE.SYSTEM.norm>
0

>  <SCORE.heavy>
14

>  <SCORE.norm>
-0.00935348

>  <RMSD>
5.445

$$$$
ligand
 OpenBabel11021811393D
libRbt.so/2013.1/901 2013/11/27
 14 13  0  0  0  0  0  0  0  0999 V2000
   -0.4639    0.1361    9.7755 N   0  0  0  0  0  0  0  0  0  0  0  0
   -0.4141   -0.3202   11.2341 C   0  0  0  0  0  0  0  0  0  0  0  0
    0.8427   -1.1016   11.3627 C   0  0  0  0  0  0  0  0  0  0  0  0
    0.8355   -2.4341   10.6312 C   0  0  0  0  0  0  0  0  0  0  0  0
    2.0594   -3.2015   10.9852 N   0  0  0  0  0  0  0  0  0  0  0  0
    3.0701   -3.1125    9.8274 C   0  0  0  0  0  0  0  0  0  0  0  0
    4.4099   -3.6708   10.5095 C   0  0  0  0  0  0  0  0  0  0  0  0
    4.2697   -4.9507   10.7559 C   0  0  0  0  0  0  0  0  0  0  0  0
    4.8122   -5.4860    9.3064 C   0  0  0  0  0  0  0  0  0  0  0  0
    4.7544   -7.0219    9.6045 N   0  0  0  0  0  0  0  0  0  0  0  0
    5.3686   -7.9122    8.4515 C   0  0  0  0  0  0  0  0  0  0  0  0
    5.7601   -9.3382    9.1451 C   0  0  0  0  0  0  0  0  0  0  0  0
    6.3043  -10.1481    8.0044 C   0  0  0  0  0  0  0  0  0  0  0  0
    7.6092   -9.4847    7.6316 N   0  0  0  0  0  0  0  0  0  0  0  0
  1  2  1  0  0  0  0
  2  3  1  0  0  0  0
  3  4  1  0  0  0  0
  4  5  1  0  0  0  0
  5  6  1  0  0  0  0
  6  7  1  0  0  0  0
  7  8  1  0  0  0  0
  8  9  1  0  0  0  0
  9 10  1  0  0  0  0
 10 11  1  0  0  0  0
 11 12  1  0  0  0  0
 12 13  1  0  0  0  0
 13 14  1  0  0  0  0
M  END
>  <CHROM.1>
-69.38775705,-172.21470984,-102.83021441,167.02658382,68.59477622,88.49299176
176.15988997,-173.76709098,158.23770258,178.71254543,68.52661418,3.51559570
-4.86043949,9.80191457,2.24908919,-0.42595825,0.60405967

>  <Name>
ligand

>  <RI>
0

>  <Rbt.Current_Directory>
/home/itssahil/PROJECTS/Mol_Feturizer/New_Systems/rnas/1FUF

>  <Rbt.Executable>
rbdock ($Id: //depot/dev/client3/rdock/2013.1/src/exe/rbdock.cxx#4 $)

>  <Rbt.Library>
libRbt.so (2013.1, Build901 2013/11/27)

>  <Rbt.Parameter_File>
/export/apps/rDock/src/rDock_2013.1_src/data/scripts/dock_solv.prm

>  <Rbt.Receptor>
prm/pocket_docking_8.prm

>  <SCORE>
0.433781

>  <SCORE.INTER>
-0.192874

>  <SCORE.INTER.CONST>
1

>  <SCORE.INTER.POLAR>
0

>  <SCORE.INTER.ROT>
11

>  <SCORE.INTER.SOLV>
15.2289

>  <SCORE.INTER.VDW>
-16.1382

>  <SCORE.INTER.norm>
-0.0137767

>  <SCORE.INTRA>
0.626654

>  <SCORE.INTRA.DIHEDRAL>
-5.11012

>  <SCORE.INTRA.DIHEDRAL.0>
10.5765

>  <SCORE.INTRA.POLAR>
0

>  <SCORE.INTRA.POLAR.0>
0

>  <SCORE.INTRA.REPUL>
0

>  <SCORE.INTRA.REPUL.0>
0

>  <SCORE.INTRA.SOLV>
2.29902

>  <SCORE.INTRA.SOLV.lig_0>
-50.1861

>  <SCORE.INTRA.VDW>
2.03221

>  <SCORE.INTRA.VDW.0>
-1.36671

>  <SCORE.INTRA.norm>
0.044761

>  <SCORE.RESTR>
0

>  <SCORE.RESTR.CAVITY>
0

>  <SCORE.RESTR.norm>
0

>  <SCORE.SYSTEM>
0

>  <SCORE.SYSTEM.CONST>
0

>  <SCORE.SYSTEM.DIHEDRAL>
0

>  <SCORE.SYSTEM.SOLV>
0

>  <SCORE.SYSTEM.norm>
0

>  <SCORE.heavy>
14

>  <SCORE.norm>
0.0309843

>  <RMSD>
5.532

$$$$
ligand
 OpenBabel11021811393D
libRbt.so/2013.1/901 2013/11/27
 14 13  0  0  0  0  0  0  0  0999 V2000
    8.9052   -5.7867    6.1680 N   0  0  0  0  0  0  0  0  0  0  0  0
    7.4953   -5.6402    5.5946 C   0  0  0  0  0  0  0  0  0  0  0  0
    6.6177   -5.3715    6.7626 C   0  0  0  0  0  0  0  0  0  0  0  0
    6.5622   -6.4970    7.7828 C   0  0  0  0  0  0  0  0  0  0  0  0
    5.5795   -6.1555    8.8458 N   0  0  0  0  0  0  0  0  0  0  0  0
    4.1927   -6.6947    8.4510 C   0  0  0  0  0  0  0  0  0  0  0  0
    3.3222   -6.3674    9.7574 C   0  0  0  0  0  0  0  0  0  0  0  0
    3.2279   -5.0677    9.9007 C   0  0  0  0  0  0  0  0  0  0  0  0
    2.3137   -5.0899   11.2591 C   0  0  0  0  0  0  0  0  0  0  0  0
    2.2201   -3.5435   11.4856 N   0  0  0  0  0  0  0  0  0  0  0  0
    1.1188   -2.8407   10.5954 C   0  0  0  0  0  0  0  0  0  0  0  0
    1.0101   -1.3059   11.1437 C   0  0  0  0  0  0  0  0  0  0  0  0
   -0.1097   -0.7201   10.3338 C   0  0  0  0  0  0  0  0  0  0  0  0
   -0.2510    0.7030   10.8202 N   0  0  0  0  0  0  0  0  0  0  0  0
  1  2  1  0  0  0  0
  2  3  1  0  0  0  0
  3  4  1  0  0  0  0
  4  5  1  0  0  0  0
  5  6  1  0  0  0  0
  6  7  1  0  0  0  0
  7  8  1  0  0  0  0
  8  9  1  0  0  0  0
  9 10  1  0  0  0  0
 10 11  1  0  0  0  0
 11 12  1  0  0  0  0
 12 13  1  0  0  0  0
 13 14  1  0  0  0  0
M  END
>  <CHROM.1>
-62.85348888,-175.78056606,90.60703256,174.58592131,65.72913028,179.74442260
178.27325391,81.12465830,171.05375468,-176.14220354,179.55173587,3.72874533
-4.31293893,9.20714853,-0.32566815,0.69768393,-0.38018166

>  <Name>
ligand

>  <RI>
0

>  <Rbt.Current_Directory>
/home/itssahil/PROJECTS/Mol_Feturizer/New_Systems/rnas/1FUF

>  <Rbt.Executable>
rbdock ($Id: //depot/dev/client3/rdock/2013.1/src/exe/rbdock.cxx#4 $)

>  <Rbt.Library>
libRbt.so (2013.1, Build901 2013/11/27)

>  <Rbt.Parameter_File>
/export/apps/rDock/src/rDock_2013.1_src/data/scripts/dock_solv.prm

>  <Rbt.Receptor>
prm/pocket_docking_5.prm

>  <SCORE>
-3.60562

>  <SCORE.INTER>
-0.942481

>  <SCORE.INTER.CONST>
1

>  <SCORE.INTER.POLAR>
0

>  <SCORE.INTER.ROT>
11

>  <SCORE.INTER.SOLV>
15.1822

>  <SCORE.INTER.VDW>
-16.6224

>  <SCORE.INTER.norm>
-0.06732

>  <SCORE.INTRA>
-2.66313

>  <SCORE.INTRA.DIHEDRAL>
-9.24822

>  <SCORE.INTRA.DIHEDRAL.0>
10.5765

>  <SCORE.INTRA.POLAR>
0

>  <SCORE.INTRA.POLAR.0>
0

>  <SCORE.INTRA.REPUL>
0

>  <SCORE.INTRA.REPUL.0>
0

>  <SCORE.INTRA.SOLV>
1.20622

>  <SCORE.INTRA.SOLV.lig_0>
-50.1861

>  <SCORE.INTRA.VDW>
1.35787

>  <SCORE.INTRA.VDW.0>
-1.36671

>  <SCORE.INTRA.norm>
-0.190224

>  <SCORE.RESTR>
0

>  <SCORE.RESTR.CAVITY>
0

>  <SCORE.RESTR.norm>
0

>  <SCORE.SYSTEM>
0

>  <SCORE.SYSTEM.CONST>
0

>  <SCORE.SYSTEM.DIHEDRAL>
0

>  <SCORE.SYSTEM.SOLV>
0

>  <SCORE.SYSTEM.norm>
0

>  <SCORE.heavy>
14

>  <SCORE.norm>
-0.257544

>  <RMSD>
5.554

$$$$
ligand
 OpenBabel11021811393D
libRbt.so/2013.1/901 2013/11/27
 14 13  0  0  0  0  0  0  0  0999 V2000
   -0.2178    0.4573   11.4820 N   0  0  0  0  0  0  0  0  0  0  0  0
   -0.4420   -1.0479   11.6307 C   0  0  0  0  0  0  0  0  0  0  0  0
    0.1192   -1.6565   10.3973 C   0  0  0  0  0  0  0  0  0  0  0  0
    1.6376   -1.6516   10.3252 C   0  0  0  0  0  0  0  0  0  0  0  0
    2.1827   -2.6644   11.2683 N   0  0  0  0  0  0  0  0  0  0  0  0
    3.6490   -2.9618   10.9061 C   0  0  0  0  0  0  0  0  0  0  0  0
    3.5155   -4.3146   10.0552 C   0  0  0  0  0  0  0  0  0  0  0  0
    3.1939   -5.3007   10.8570 C   0  0  0  0  0  0  0  0  0  0  0  0
    3.0702   -6.4549    9.7020 C   0  0  0  0  0  0  0  0  0  0  0  0
    4.5820   -6.8559    9.6302 N   0  0  0  0  0  0  0  0  0  0  0  0
    4.9340   -7.7711    8.3902 C   0  0  0  0  0  0  0  0  0  0  0  0
    5.8484   -8.9907    8.9772 C   0  0  0  0  0  0  0  0  0  0  0  0
    6.1433   -9.8258    7.7653 C   0  0  0  0  0  0  0  0  0  0  0  0
    6.9722  -10.9830    8.2709 N   0  0  0  0  0  0  0  0  0  0  0  0
  1  2  1  0  0  0  0
  2  3  1  0  0  0  0
  3  4  1  0  0  0  0
  4  5  1  0  0  0  0
  5  6  1  0  0  0  0
  6  7  1  0  0  0  0
  7  8  1  0  0  0  0
  8  9  1  0  0  0  0
  9 10  1  0  0  0  0
 10 11  1  0  0  0  0
 11 12  1  0  0  0  0
 12 13  1  0  0  0  0
 13 14  1  0  0  0  0
M  END
>  <CHROM.1>
72.39200251,73.20625779,163.18967672,-98.62311399,-70.95585130,177.35200417
84.82376203,-168.19194096,-133.38432295,179.66440864,-179.08162792,3.22766661
-5.00153675,9.97547246,2.13947730,-0.22672833,0.45151909

>  <Name>
ligand

>  <RI>
0

>  <Rbt.Current_Directory>
/home/itssahil/PROJECTS/Mol_Feturizer/New_Systems/rnas/1FUF

>  <Rbt.Executable>
rbdock ($Id: //depot/dev/client3/rdock/2013.1/src/exe/rbdock.cxx#4 $)

>  <Rbt.Library>
libRbt.so (2013.1, Build901 2013/11/27)

>  <Rbt.Parameter_File>
/export/apps/rDock/src/rDock_2013.1_src/data/scripts/dock_solv.prm

>  <Rbt.Receptor>
prm/pocket_docking_7.prm

>  <SCORE>
-0.617667

>  <SCORE.INTER>
-0.481514

>  <SCORE.INTER.CONST>
1

>  <SCORE.INTER.POLAR>
0

>  <SCORE.INTER.ROT>
11

>  <SCORE.INTER.SOLV>
15.3603

>  <SCORE.INTER.VDW>
-16.3744

>  <SCORE.INTER.norm>
-0.0343938

>  <SCORE.INTRA>
-0.136153

>  <SCORE.INTRA.DIHEDRAL>
-4.63651

>  <SCORE.INTRA.DIHEDRAL.0>
10.5765

>  <SCORE.INTRA.POLAR>
0

>  <SCORE.INTRA.POLAR.0>
0

>  <SCORE.INTRA.REPUL>
0

>  <SCORE.INTRA.REPUL.0>
0

>  <SCORE.INTRA.SOLV>
2.16307

>  <SCORE.INTRA.SOLV.lig_0>
-50.1861

>  <SCORE.INTRA.VDW>
1.10057

>  <SCORE.INTRA.VDW.0>
-1.36671

>  <SCORE.INTRA.norm>
-0.00972524

>  <SCORE.RESTR>
0

>  <SCORE.RESTR.CAVITY>
0

>  <SCORE.RESTR.norm>
0

>  <SCORE.SYSTEM>
0

>  <SCORE.SYSTEM.CONST>
0

>  <SCORE.SYSTEM.DIHEDRAL>
0

>  <SCORE.SYSTEM.SOLV>
0

>  <SCORE.SYSTEM.norm>
0

>  <SCORE.heavy>
14

>  <SCORE.norm>
-0.0441191

>  <RMSD>
5.570

$$$$
ligand
 OpenBabel11021811393D
libRbt.so/2013.1/901 2013/11/27
 14 13  0  0  0  0  0  0  0  0999 V2000
   -0.4085   -0.5383   11.0722 N   0  0  0  0  0  0  0  0  0  0  0  0
    0.7804   -0.5383   10.1107 C   0  0  0  0  0  0  0  0  0  0  0  0
    1.7033   -1.5847   10.6206 C   0  0  0  0  0  0  0  0  0  0  0  0
    1.1872   -3.0070   10.4753 C   0  0  0  0  0  0  0  0  0  0  0  0
    2.2018   -3.9594   11.0005 N   0  0  0  0  0  0  0  0  0  0  0  0
    1.6065   -5.3789   11.0213 C   0  0  0  0  0  0  0  0  0  0  0  0
    2.6913   -6.2088   10.1808 C   0  0  0  0  0  0  0  0  0  0  0  0
    3.7978   -6.3049   10.8772 C   0  0  0  0  0  0  0  0  0  0  0  0
    4.6390   -7.1840    9.7812 C   0  0  0  0  0  0  0  0  0  0  0  0
    5.3455   -5.9970    9.0440 N   0  0  0  0  0  0  0  0  0  0  0  0
    4.9589   -5.8838    7.5153 C   0  0  0  0  0  0  0  0  0  0  0  0
    6.1615   -5.0331    6.8096 C   0  0  0  0  0  0  0  0  0  0  0  0
    7.2899   -6.0195    6.7262 C   0  0  0  0  0  0  0  0  0  0  0  0
    7.8961   -6.0493    8.1094 N   0  0  0  0  0  0  0  0  0  0  0  0
  1  2  1  0  0  0  0
  2  3  1  0  0  0  0
  3  4  1  0  0  0  0
  4  5  1  0  0  0  0
  5  6  1  0  0  0  0
  6  7  1  0  0  0  0
  7  8  1  0  0  0  0
  8  9  1  0  0  0  0
  9 10  1  0  0  0  0
 10 11  1  0  0  0  0
 11 12  1  0  0  0  0
 12 13  1  0  0  0  0
 13 14  1  0  0  0  0
M  END
>  <CHROM.1>
68.94962076,179.20487234,172.72682565,125.70922423,69.67720703,179.37184381
93.42765757,-118.07899727,-158.59149923,75.00223984,-79.39769512,3.56069630
-4.54923648,9.52445162,-2.76199201,-0.65959950,2.73110996

>  <Name>
ligand

>  <RI>
0

>  <Rbt.Current_Directory>
/home/itssahil/PROJECTS/Mol_Feturizer/New_Systems/rnas/1FUF

>  <Rbt.Executable>
rbdock ($Id: //depot/dev/client3/rdock/2013.1/src/exe/rbdock.cxx#4 $)

>  <Rbt.Library>
libRbt.so (2013.1, Build901 2013/11/27)

>  <Rbt.Parameter_File>
/export/apps/rDock/src/rDock_2013.1_src/data/scripts/dock_solv.prm

>  <Rbt.Receptor>
prm/pocket_docking_6.prm

>  <SCORE>
0.808467

>  <SCORE.INTER>
-1.63225

>  <SCORE.INTER.CONST>
1

>  <SCORE.INTER.POLAR>
0

>  <SCORE.INTER.ROT>
11

>  <SCORE.INTER.SOLV>
14.3583

>  <SCORE.INTER.VDW>
-16.8076

>  <SCORE.INTER.norm>
-0.11659

>  <SCORE.INTRA>
2.44072

>  <SCORE.INTRA.DIHEDRAL>
-1.80904

>  <SCORE.INTRA.DIHEDRAL.0>
10.5765

>  <SCORE.INTRA.POLAR>
0

>  <SCORE.INTRA.POLAR.0>
0

>  <SCORE.INTRA.REPUL>
0

>  <SCORE.INTRA.REPUL.0>
0

>  <SCORE.INTRA.SOLV>
4.96906

>  <SCORE.INTRA.SOLV.lig_0>
-50.1861

>  <SCORE.INTRA.VDW>
0.860712

>  <SCORE.INTRA.VDW.0>
-1.36671

>  <SCORE.INTRA.norm>
0.174337

>  <SCORE.RESTR>
0

>  <SCORE.RESTR.CAVITY>
0

>  <SCORE.RESTR.norm>
0

>  <SCORE.SYSTEM>
0

>  <SCORE.SYSTEM.CONST>
0

>  <SCORE.SYSTEM.DIHEDRAL>
0

>  <SCORE.SYSTEM.SOLV>
0

>  <SCORE.SYSTEM.norm>
0

>  <SCORE.heavy>
14

>  <SCORE.norm>
0.0577476

>  <RMSD>
5.582

$$$$
ligand
 OpenBabel11021811393D
libRbt.so/2013.1/901 2013/11/27
 14 13  0  0  0  0  0  0  0  0999 V2000
   -0.7108   -0.1392   10.8843 N   0  0  0  0  0  0  0  0  0  0  0  0
    0.7527   -0.5700   10.9859 C   0  0  0  0  0  0  0  0  0  0  0  0
    0.7738   -2.0009   10.5876 C   0  0  0  0  0  0  0  0  0  0  0  0
    2.1492   -2.6470   10.6267 C   0  0  0  0  0  0  0  0  0  0  0  0
    2.0468   -4.0605   10.1753 N   0  0  0  0  0  0  0  0  0  0  0  0
    1.9650   -4.9840   11.4042 C   0  0  0  0  0  0  0  0  0  0  0  0
    2.4689   -6.3836   10.8049 C   0  0  0  0  0  0  0  0  0  0  0  0
    3.7666   -6.3360   10.6255 C   0  0  0  0  0  0  0  0  0  0  0  0
    3.7285   -6.1218    9.0024 C   0  0  0  0  0  0  0  0  0  0  0  0
    5.2631   -5.9127    8.7729 N   0  0  0  0  0  0  0  0  0  0  0  0
    5.6367   -5.5718    7.2752 C   0  0  0  0  0  0  0  0  0  0  0  0
    7.2206   -5.9361    7.1131 C   0  0  0  0  0  0  0  0  0  0  0  0
    7.5037   -5.6455    5.6679 C   0  0  0  0  0  0  0  0  0  0  0  0
    8.9558   -6.0089    5.4654 N   0  0  0  0  0  0  0  0  0  0  0  0
  1  2  1  0  0  0  0
  2  3  1  0  0  0  0
  3  4  1  0  0  0  0
  4  5  1  0  0  0  0
  5  6  1  0  0  0  0
  6  7  1  0  0  0  0
  7  8  1  0  0  0  0
  8  9  1  0  0  0  0
  9 10  1  0  0  0  0
 10 11  1  0  0  0  0
 11 12  1  0  0  0  0
 12 13  1  0  0  0  0
 13 14  1  0  0  0  0
M  END
>  <CHROM.1>
-179.55481822,-178.51363414,-97.54815353,-157.42947391,74.12373870,-102.95491876
174.48149931,-176.26639418,-159.46034844,177.86087960,-178.41095474,3.67996172
-4.45145060,9.24240693,-2.90636984,-0.70410832,2.73843113

>  <Name>
ligand

>  <RI>
0

>  <Rbt.Current_Directory>
/home/itssahil/PROJECTS/Mol_Feturizer/New_Systems/rnas/1FUF

>  <Rbt.Executable>
rbdock ($Id: //depot/dev/client3/rdock/2013.1/src/exe/rbdock.cxx#4 $)

>  <Rbt.Library>
libRbt.so (2013.1, Build901 2013/11/27)

>  <Rbt.Parameter_File>
/export/apps/rDock/src/rDock_2013.1_src/data/scripts/dock_solv.prm

>  <Rbt.Receptor>
prm/pocket_docking_8.prm

>  <SCORE>
-2.88638

>  <SCORE.INTER>
-2.69027

>  <SCORE.INTER.CONST>
1

>  <SCORE.INTER.POLAR>
0

>  <SCORE.INTER.ROT>
11

>  <SCORE.INTER.SOLV>
14.568

>  <SCORE.INTER.VDW>
-17.5828

>  <SCORE.INTER.norm>
-0.192162

>  <SCORE.INTRA>
-0.196104

>  <SCORE.INTRA.DIHEDRAL>
-3.1954

>  <SCORE.INTRA.DIHEDRAL.0>
10.5765

>  <SCORE.INTRA.POLAR>
0

>  <SCORE.INTRA.POLAR.0>
0

>  <SCORE.INTRA.REPUL>
0

>  <SCORE.INTRA.REPUL.0>
0

>  <SCORE.INTRA.SOLV>
1.18008

>  <SCORE.INTRA.SOLV.lig_0>
-50.1861

>  <SCORE.INTRA.VDW>
0.811557

>  <SCORE.INTRA.VDW.0>
-1.36671

>  <SCORE.INTRA.norm>
-0.0140074

>  <SCORE.RESTR>
0

>  <SCORE.RESTR.CAVITY>
0

>  <SCORE.RESTR.norm>
0

>  <SCORE.SYSTEM>
0

>  <SCORE.SYSTEM.CONST>
0

>  <SCORE.SYSTEM.DIHEDRAL>
0

>  <SCORE.SYSTEM.SOLV>
0

>  <SCORE.SYSTEM.norm>
0

>  <SCORE.heavy>
14

>  <SCORE.norm>
-0.20617

>  <RMSD>
5.616

$$$$
ligand
 OpenBabel11021811393D
libRbt.so/2013.1/901 2013/11/27
 14 13  0  0  0  0  0  0  0  0999 V2000
   -0.5902    0.7902   10.8609 N   0  0  0  0  0  0  0  0  0  0  0  0
    0.3910   -0.2134   10.2541 C   0  0  0  0  0  0  0  0  0  0  0  0
    0.2456   -1.4501   11.0642 C   0  0  0  0  0  0  0  0  0  0  0  0
    1.0502   -2.6356   10.5566 C   0  0  0  0  0  0  0  0  0  0  0  0
    2.5024   -2.3496   10.7039 N   0  0  0  0  0  0  0  0  0  0  0  0
    3.2697   -2.9887    9.5322 C   0  0  0  0  0  0  0  0  0  0  0  0
    3.4842   -4.4904   10.0524 C   0  0  0  0  0  0  0  0  0  0  0  0
    4.0095   -5.2109    9.0914 C   0  0  0  0  0  0  0  0  0  0  0  0
    3.9561   -6.6470    9.8765 C   0  0  0  0  0  0  0  0  0  0  0  0
    4.4226   -7.5608    8.6939 N   0  0  0  0  0  0  0  0  0  0  0  0
    5.8506   -8.2013    8.9164 C   0  0  0  0  0  0  0  0  0  0  0  0
    5.8802   -9.5593    8.0095 C   0  0  0  0  0  0  0  0  0  0  0  0
    7.2694  -10.0900    8.2135 C   0  0  0  0  0  0  0  0  0  0  0  0
    8.1718   -9.1477    7.4522 N   0  0  0  0  0  0  0  0  0  0  0  0
  1  2  1  0  0  0  0
  2  3  1  0  0  0  0
  3  4  1  0  0  0  0
  4  5  1  0  0  0  0
  5  6  1  0  0  0  0
  6  7  1  0  0  0  0
  7  8  1  0  0  0  0
  8  9  1  0  0  0  0
  9 10  1  0  0  0  0
 10 11  1  0  0  0  0
 11 12  1  0  0  0  0
 12 13  1  0  0  0  0
 13 14  1  0  0  0  0
M  END
>  <CHROM.1>
174.88826832,66.61954647,-145.29089824,-84.62671335,173.36066767,-174.88616242
173.74751347,111.82049049,155.22067727,177.72011896,-71.97795654,3.56520100
-4.98264206,9.51987644,-2.25134479,-0.42422300,3.10838473

>  <Name>
ligand

>  <RI>
0

>  <Rbt.Current_Directory>
/home/itssahil/PROJECTS/Mol_Feturizer/New_Systems/rnas/1FUF

>  <Rbt.Executable>
rbdock ($Id: //depot/dev/client3/rdock/2013.1/src/exe/rbdock.cxx#4 $)

>  <Rbt.Library>
libRbt.so (2013.1, Build901 2013/11/27)

>  <Rbt.Parameter_File>
/export/apps/rDock/src/rDock_2013.1_src/data/scripts/dock_solv.prm

>  <Rbt.Receptor>
prm/pocket_docking_6.prm

>  <SCORE>
-2.25554

>  <SCORE.INTER>
-0.344658

>  <SCORE.INTER.CONST>
1

>  <SCORE.INTER.POLAR>
0

>  <SCORE.INTER.ROT>
11

>  <SCORE.INTER.SOLV>
14.4397

>  <SCORE.INTER.VDW>
-15.9764

>  <SCORE.INTER.norm>
-0.0246184

>  <SCORE.INTRA>
-1.91089

>  <SCORE.INTRA.DIHEDRAL>
-6.58477

>  <SCORE.INTRA.DIHEDRAL.0>
10.5765

>  <SCORE.INTRA.POLAR>
0

>  <SCORE.INTRA.POLAR.0>
0

>  <SCORE.INTRA.REPUL>
0

>  <SCORE.INTRA.REPUL.0>
0

>  <SCORE.INTRA.SOLV>
1.1123

>  <SCORE.INTRA.SOLV.lig_0>
-50.1861

>  <SCORE.INTRA.VDW>
0.825351

>  <SCORE.INTRA.VDW.0>
-1.36671

>  <SCORE.INTRA.norm>
-0.136492

>  <SCORE.RESTR>
0

>  <SCORE.RESTR.CAVITY>
0

>  <SCORE.RESTR.norm>
0

>  <SCORE.SYSTEM>
0

>  <SCORE.SYSTEM.CONST>
0

>  <SCORE.SYSTEM.DIHEDRAL>
0

>  <SCORE.SYSTEM.SOLV>
0

>  <SCORE.SYSTEM.norm>
0

>  <SCORE.heavy>
14

>  <SCORE.norm>
-0.16111

>  <RMSD>
5.659

$$$$
ligand
 OpenBabel11021811393D
libRbt.so/2013.1/901 2013/11/27
 14 13  0  0  0  0  0  0  0  0999 V2000
    1.3207   -1.9475   10.4055 N   0  0  0  0  0  0  0  0  0  0  0  0
    1.2176   -0.4802    9.9877 C   0  0  0  0  0  0  0  0  0  0  0  0
    0.1713    0.1089   10.8624 C   0  0  0  0  0  0  0  0  0  0  0  0
   -1.2384   -0.3853   10.5813 C   0  0  0  0  0  0  0  0  0  0  0  0
   -2.0323    0.7068    9.9574 N   0  0  0  0  0  0  0  0  0  0  0  0
   -3.4821    0.6412   10.4709 C   0  0  0  0  0  0  0  0  0  0  0  0
   -4.0974    2.0124    9.9114 C   0  0  0  0  0  0  0  0  0  0  0  0
   -4.2704    1.9127    8.6157 C   0  0  0  0  0  0  0  0  0  0  0  0
   -5.2553    3.2108    8.4529 C   0  0  0  0  0  0  0  0  0  0  0  0
   -5.4453    3.1484    6.9000 N   0  0  0  0  0  0  0  0  0  0  0  0
   -6.7212    3.9289    6.3883 C   0  0  0  0  0  0  0  0  0  0  0  0
   -7.9477    2.8505    6.4135 C   0  0  0  0  0  0  0  0  0  0  0  0
   -9.1302    3.6496    5.9485 C   0  0  0  0  0  0  0  0  0  0  0  0
  -10.1837    2.6290    5.5876 N   0  0  0  0  0  0  0  0  0  0  0  0
  1  2  1  0  0  0  0
  2  3  1  0  0  0  0
  3  4  1  0  0  0  0
  4  5  1  0  0  0  0
  5  6  1  0  0  0  0
  6  7  1  0  0  0  0
  7  8  1  0  0  0  0
  8  9  1  0  0  0  0
  9 10  1  0  0  0  0
 10 11  1  0  0  0  0
 11 12  1  0  0  0  0
 12 13  1  0  0  0  0
 13 14  1  0  0  0  0
M  END
>  <CHROM.1>
-69.29573552,-109.16341351,-143.50662067,170.41415885,72.92730388,164.78607077
178.25180154,160.01212558,-89.50013588,178.86683854,164.64456758,-4.07815729
1.57061821,8.60609955,0.37510876,0.47357690,-3.12042304

>  <Name>
ligand

>  <RI>
0

>  <Rbt.Current_Directory>
/home/itssahil/PROJECTS/Mol_Feturizer/New_Systems/rnas/1FUF

>  <Rbt.Executable>
rbdock ($Id: //depot/dev/client3/rdock/2013.1/src/exe/rbdock.cxx#4 $)

>  <Rbt.Library>
libRbt.so (2013.1, Build901 2013/11/27)

>  <Rbt.Parameter_File>
/export/apps/rDock/src/rDock_2013.1_src/data/scripts/dock_solv.prm

>  <Rbt.Receptor>
prm/pocket_docking_6.prm

>  <SCORE>
2.70349

>  <SCORE.INTER>
2.17123

>  <SCORE.INTER.CONST>
1

>  <SCORE.INTER.POLAR>
0

>  <SCORE.INTER.ROT>
11

>  <SCORE.INTER.SOLV>
17.4166

>  <SCORE.INTER.VDW>
-15.2914

>  <SCORE.INTER.norm>
0.155088

>  <SCORE.INTRA>
0.532264

>  <SCORE.INTRA.DIHEDRAL>
-1.01983

>  <SCORE.INTRA.DIHEDRAL.0>
10.5765

>  <SCORE.INTRA.POLAR>
0

>  <SCORE.INTRA.POLAR.0>
0

>  <SCORE.INTRA.REPUL>
0

>  <SCORE.INTRA.REPUL.0>
0

>  <SCORE.INTRA.SOLV>
1.18965

>  <SCORE.INTRA.SOLV.lig_0>
-50.1861

>  <SCORE.INTRA.VDW>
0.447351

>  <SCORE.INTRA.VDW.0>
-1.36671

>  <SCORE.INTRA.norm>
0.0380188

>  <SCORE.RESTR>
0

>  <SCORE.RESTR.CAVITY>
0

>  <SCORE.RESTR.norm>
0

>  <SCORE.SYSTEM>
0

>  <SCORE.SYSTEM.CONST>
0

>  <SCORE.SYSTEM.DIHEDRAL>
0

>  <SCORE.SYSTEM.SOLV>
0

>  <SCORE.SYSTEM.norm>
0

>  <SCORE.heavy>
14

>  <SCORE.norm>
0.193107

>  <RMSD>
5.665

$$$$
ligand
 OpenBabel11021811393D
libRbt.so/2013.1/901 2013/11/27
 14 13  0  0  0  0  0  0  0  0999 V2000
    8.0983   -5.8446    5.0272 N   0  0  0  0  0  0  0  0  0  0  0  0
    7.8328   -5.4518    6.4809 C   0  0  0  0  0  0  0  0  0  0  0  0
    6.3553   -5.3598    6.6037 C   0  0  0  0  0  0  0  0  0  0  0  0
    5.8543   -5.0915    8.0135 C   0  0  0  0  0  0  0  0  0  0  0  0
    4.3771   -5.2597    8.0560 N   0  0  0  0  0  0  0  0  0  0  0  0
    4.0396   -6.7003    8.4810 C   0  0  0  0  0  0  0  0  0  0  0  0
    3.8859   -6.5527   10.0705 C   0  0  0  0  0  0  0  0  0  0  0  0
    2.7991   -5.8705   10.3391 C   0  0  0  0  0  0  0  0  0  0  0  0
    3.5467   -4.4750   10.7577 C   0  0  0  0  0  0  0  0  0  0  0  0
    2.2676   -3.6025   10.9904 N   0  0  0  0  0  0  0  0  0  0  0  0
    2.5707   -2.2056   11.6656 C   0  0  0  0  0  0  0  0  0  0  0  0
    1.1480   -1.4040   11.6977 C   0  0  0  0  0  0  0  0  0  0  0  0
    0.8793   -1.1034   10.2518 C   0  0  0  0  0  0  0  0  0  0  0  0
   -0.3868   -0.2795   10.2447 N   0  0  0  0  0  0  0  0  0  0  0  0
  1  2  1  0  0  0  0
  2  3  1  0  0  0  0
  3  4  1  0  0  0  0
  4  5  1  0  0  0  0
  5  6  1  0  0  0  0
  6  7  1  0  0  0  0
  7  8  1  0  0  0  0
  8  9  1  0  0  0  0
  9 10  1  0  0  0  0
 10 11  1  0  0  0  0
 11 12  1  0  0  0  0
 12 13  1  0  0  0  0
 13 14  1  0  0  0  0
M  END
>  <CHROM.1>
175.09513386,-170.04479033,93.38001925,92.73333263,69.87984617,-105.42050011
176.27100598,169.94139686,175.05472616,-69.08660649,-176.35362955,3.80494562
-4.22882853,9.19166663,-0.23010314,0.78240251,-0.43822242

>  <Name>
ligand

>  <RI>
0

>  <Rbt.Current_Directory>
/home/itssahil/PROJECTS/Mol_Feturizer/New_Systems/rnas/1FUF

>  <Rbt.Executable>
rbdock ($Id: //depot/dev/client3/rdock/2013.1/src/exe/rbdock.cxx#4 $)

>  <Rbt.Library>
libRbt.so (2013.1, Build901 2013/11/27)

>  <Rbt.Parameter_File>
/export/apps/rDock/src/rDock_2013.1_src/data/scripts/dock_solv.prm

>  <Rbt.Receptor>
prm/pocket_docking_5.prm

>  <SCORE>
-1.22123

>  <SCORE.INTER>
-2.04575

>  <SCORE.INTER.CONST>
1

>  <SCORE.INTER.POLAR>
0

>  <SCORE.INTER.ROT>
11

>  <SCORE.INTER.SOLV>
17.2959

>  <SCORE.INTER.VDW>
-18.0625

>  <SCORE.INTER.norm>
-0.146125

>  <SCORE.INTRA>
0.82452

>  <SCORE.INTRA.DIHEDRAL>
-2.58577

>  <SCORE.INTRA.DIHEDRAL.0>
10.5765

>  <SCORE.INTRA.POLAR>
0

>  <SCORE.INTRA.POLAR.0>
0

>  <SCORE.INTRA.REPUL>
0

>  <SCORE.INTRA.REPUL.0>
0

>  <SCORE.INTRA.SOLV>
1.62876

>  <SCORE.INTRA.SOLV.lig_0>
-50.1861

>  <SCORE.INTRA.VDW>
1.30303

>  <SCORE.INTRA.VDW.0>
-1.36671

>  <SCORE.INTRA.norm>
0.0588943

>  <SCORE.RESTR>
0

>  <SCORE.RESTR.CAVITY>
0

>  <SCORE.RESTR.norm>
0

>  <SCORE.SYSTEM>
0

>  <SCORE.SYSTEM.CONST>
0

>  <SCORE.SYSTEM.DIHEDRAL>
0

>  <SCORE.SYSTEM.SOLV>
0

>  <SCORE.SYSTEM.norm>
0

>  <SCORE.heavy>
14

>  <SCORE.norm>
-0.0872305

>  <RMSD>
5.667

$$$$
ligand
 OpenBabel11021811393D
libRbt.so/2013.1/901 2013/11/27
 14 13  0  0  0  0  0  0  0  0999 V2000
    8.6613   -5.4397    6.3159 N   0  0  0  0  0  0  0  0  0  0  0  0
    7.2416   -5.8322    6.7262 C   0  0  0  0  0  0  0  0  0  0  0  0
    7.4044   -6.8239    7.8201 C   0  0  0  0  0  0  0  0  0  0  0  0
    6.1050   -7.4402    8.3122 C   0  0  0  0  0  0  0  0  0  0  0  0
    5.2643   -6.3882    8.9437 N   0  0  0  0  0  0  0  0  0  0  0  0
    3.7964   -6.8514    8.9631 C   0  0  0  0  0  0  0  0  0  0  0  0
    3.2238   -6.0943   10.2557 C   0  0  0  0  0  0  0  0  0  0  0  0
    1.9730   -6.4399   10.4416 C   0  0  0  0  0  0  0  0  0  0  0  0
    1.6508   -5.3628   11.6322 C   0  0  0  0  0  0  0  0  0  0  0  0
    1.4675   -4.0928   10.7349 N   0  0  0  0  0  0  0  0  0  0  0  0
    2.2140   -2.8147   11.2901 C   0  0  0  0  0  0  0  0  0  0  0  0
    1.6333   -1.5490   10.4364 C   0  0  0  0  0  0  0  0  0  0  0  0
    0.2077   -1.4393   10.8933 C   0  0  0  0  0  0  0  0  0  0  0  0
   -0.3496   -0.2337   10.1737 N   0  0  0  0  0  0  0  0  0  0  0  0
  1  2  1  0  0  0  0
  2  3  1  0  0  0  0
  3  4  1  0  0  0  0
  4  5  1  0  0  0  0
  5  6  1  0  0  0  0
  6  7  1  0  0  0  0
  7  8  1  0  0  0  0
  8  9  1  0  0  0  0
  9 10  1  0  0  0  0
 10 11  1  0  0  0  0
 11 12  1  0  0  0  0
 12 13  1  0  0  0  0
 13 14  1  0  0  0  0
M  END
>  <CHROM.1>
-175.36006313,-65.16503592,159.05948717,151.22751668,-177.30499524,-171.92787711
78.27610434,-134.68497772,-167.27431786,68.18742463,177.35631214,3.60662600
-4.77187739,9.49583059,-0.41944333,0.59508538,-0.24646914

>  <Name>
ligand

>  <RI>
0

>  <Rbt.Current_Directory>
/home/itssahil/PROJECTS/Mol_Feturizer/New_Systems/rnas/1FUF

>  <Rbt.Executable>
rbdock ($Id: //depot/dev/client3/rdock/2013.1/src/exe/rbdock.cxx#4 $)

>  <Rbt.Library>
libRbt.so (2013.1, Build901 2013/11/27)

>  <Rbt.Parameter_File>
/export/apps/rDock/src/rDock_2013.1_src/data/scripts/dock_solv.prm

>  <Rbt.Receptor>
prm/pocket_docking_5.prm

>  <SCORE>
-2.33349

>  <SCORE.INTER>
-0.733983

>  <SCORE.INTER.CONST>
1

>  <SCORE.INTER.POLAR>
0

>  <SCORE.INTER.ROT>
11

>  <SCORE.INTER.SOLV>
15.5932

>  <SCORE.INTER.VDW>
-16.6204

>  <SCORE.INTER.norm>
-0.0524274

>  <SCORE.INTRA>
-1.5995

>  <SCORE.INTRA.DIHEDRAL>
-6.60514

>  <SCORE.INTRA.DIHEDRAL.0>
10.5765

>  <SCORE.INTRA.POLAR>
0

>  <SCORE.INTRA.POLAR.0>
0

>  <SCORE.INTRA.REPUL>
0

>  <SCORE.INTRA.REPUL.0>
0

>  <SCORE.INTRA.SOLV>
1.19924

>  <SCORE.INTRA.SOLV.lig_0>
-50.1861

>  <SCORE.INTRA.VDW>
1.10344

>  <SCORE.INTRA.VDW.0>
-1.36671

>  <SCORE.INTRA.norm>
-0.11425

>  <SCORE.RESTR>
0

>  <SCORE.RESTR.CAVITY>
0

>  <SCORE.RESTR.norm>
0

>  <SCORE.SYSTEM>
0

>  <SCORE.SYSTEM.CONST>
0

>  <SCORE.SYSTEM.DIHEDRAL>
0

>  <SCORE.SYSTEM.SOLV>
0

>  <SCORE.SYSTEM.norm>
0

>  <SCORE.heavy>
14

>  <SCORE.norm>
-0.166678

>  <RMSD>
5.670

$$$$
ligand
 OpenBabel11021811393D
libRbt.so/2013.1/901 2013/11/27
 14 13  0  0  0  0  0  0  0  0999 V2000
    8.5772   -6.9821    6.1249 N   0  0  0  0  0  0  0  0  0  0  0  0
    8.1926   -5.5307    5.8357 C   0  0  0  0  0  0  0  0  0  0  0  0
    6.7207   -5.4649    6.0247 C   0  0  0  0  0  0  0  0  0  0  0  0
    6.2509   -5.7749    7.4367 C   0  0  0  0  0  0  0  0  0  0  0  0
    4.7640   -5.7926    7.4726 N   0  0  0  0  0  0  0  0  0  0  0  0
    4.2905   -6.8662    8.4692 C   0  0  0  0  0  0  0  0  0  0  0  0
    4.2560   -6.0496    9.8490 C   0  0  0  0  0  0  0  0  0  0  0  0
    3.2332   -5.2297    9.8417 C   0  0  0  0  0  0  0  0  0  0  0  0
    3.6482   -4.3928   11.1868 C   0  0  0  0  0  0  0  0  0  0  0  0
    2.3043   -3.6138   11.3834 N   0  0  0  0  0  0  0  0  0  0  0  0
    2.2356   -2.2589   10.5719 C   0  0  0  0  0  0  0  0  0  0  0  0
    0.7289   -1.6723   10.8039 C   0  0  0  0  0  0  0  0  0  0  0  0
    0.7306   -0.3817   10.0374 C   0  0  0  0  0  0  0  0  0  0  0  0
   -0.6514    0.1973   10.2289 N   0  0  0  0  0  0  0  0  0  0  0  0
  1  2  1  0  0  0  0
  2  3  1  0  0  0  0
  3  4  1  0  0  0  0
  4  5  1  0  0  0  0
  5  6  1  0  0  0  0
  6  7  1  0  0  0  0
  7  8  1  0  0  0  0
  8  9  1  0  0  0  0
  9 10  1  0  0  0  0
 10 11  1  0  0  0  0
 11 12  1  0  0  0  0
 12 13  1  0  0  0  0
 13 14  1  0  0  0  0
M  END
>  <CHROM.1>
62.66573613,-175.15648572,144.93781356,87.95534979,73.07737360,-169.86082230
-168.54665324,-86.81134246,175.22903403,178.95411199,-179.90107092,3.94874476
-4.27243343,8.94770403,-0.17119987,0.76980425,-0.64067776

>  <Name>
ligand

>  <RI>
0

>  <Rbt.Current_Directory>
/home/itssahil/PROJECTS/Mol_Feturizer/New_Systems/rnas/1FUF

>  <Rbt.Executable>
rbdock ($Id: //depot/dev/client3/rdock/2013.1/src/exe/rbdock.cxx#4 $)

>  <Rbt.Library>
libRbt.so (2013.1, Build901 2013/11/27)

>  <Rbt.Parameter_File>
/export/apps/rDock/src/rDock_2013.1_src/data/scripts/dock_solv.prm

>  <Rbt.Receptor>
prm/blind_docking_60.prm

>  <SCORE>
-3.74147

>  <SCORE.INTER>
-1.93638

>  <SCORE.INTER.CONST>
1

>  <SCORE.INTER.POLAR>
0

>  <SCORE.INTER.ROT>
11

>  <SCORE.INTER.SOLV>
14.2282

>  <SCORE.INTER.VDW>
-16.967

>  <SCORE.INTER.norm>
-0.138313

>  <SCORE.INTRA>
-1.80508

>  <SCORE.INTRA.DIHEDRAL>
-7.12028

>  <SCORE.INTRA.DIHEDRAL.0>
10.5765

>  <SCORE.INTRA.POLAR>
0

>  <SCORE.INTRA.POLAR.0>
0

>  <SCORE.INTRA.REPUL>
0

>  <SCORE.INTRA.REPUL.0>
0

>  <SCORE.INTRA.SOLV>
1.27914

>  <SCORE.INTRA.SOLV.lig_0>
-50.1861

>  <SCORE.INTRA.VDW>
1.11549

>  <SCORE.INTRA.VDW.0>
-1.36671

>  <SCORE.INTRA.norm>
-0.128935

>  <SCORE.RESTR>
0

>  <SCORE.RESTR.CAVITY>
0

>  <SCORE.RESTR.norm>
0

>  <SCORE.SYSTEM>
0

>  <SCORE.SYSTEM.CONST>
0

>  <SCORE.SYSTEM.DIHEDRAL>
0

>  <SCORE.SYSTEM.SOLV>
0

>  <SCORE.SYSTEM.norm>
0

>  <SCORE.heavy>
14

>  <SCORE.norm>
-0.267248

>  <RMSD>
5.691

$$$$
ligand
 OpenBabel11021811393D
libRbt.so/2013.1/901 2013/11/27
 14 13  0  0  0  0  0  0  0  0999 V2000
    8.3873   -6.9644    5.7252 N   0  0  0  0  0  0  0  0  0  0  0  0
    8.0846   -5.4718    5.8614 C   0  0  0  0  0  0  0  0  0  0  0  0
    6.6778   -5.3935    6.3319 C   0  0  0  0  0  0  0  0  0  0  0  0
    6.4241   -6.0546    7.6769 C   0  0  0  0  0  0  0  0  0  0  0  0
    4.9891   -5.9075    8.0397 N   0  0  0  0  0  0  0  0  0  0  0  0
    4.6099   -6.9872    9.0694 C   0  0  0  0  0  0  0  0  0  0  0  0
    3.3159   -6.3451    9.7660 C   0  0  0  0  0  0  0  0  0  0  0  0
    3.6846   -5.3377   10.5195 C   0  0  0  0  0  0  0  0  0  0  0  0
    2.1789   -4.8570   10.9479 C   0  0  0  0  0  0  0  0  0  0  0  0
    2.5727   -3.5314   11.6821 N   0  0  0  0  0  0  0  0  0  0  0  0
    2.4221   -2.2417   10.7803 C   0  0  0  0  0  0  0  0  0  0  0  0
    0.9026   -1.6959   11.0271 C   0  0  0  0  0  0  0  0  0  0  0  0
    0.8228   -0.4707   10.1635 C   0  0  0  0  0  0  0  0  0  0  0  0
   -0.5540    0.1005   10.4085 N   0  0  0  0  0  0  0  0  0  0  0  0
  1  2  1  0  0  0  0
  2  3  1  0  0  0  0
  3  4  1  0  0  0  0
  4  5  1  0  0  0  0
  5  6  1  0  0  0  0
  6  7  1  0  0  0  0
  7  8  1  0  0  0  0
  8  9  1  0  0  0  0
  9 10  1  0  0  0  0
 10 11  1  0  0  0  0
 11 12  1  0  0  0  0
 12 13  1  0  0  0  0
 13 14  1  0  0  0  0
M  END
>  <CHROM.1>
61.09647618,179.84204265,158.48311823,157.88304035,-71.51229516,175.36724350
-172.31028326,97.72348307,90.64799630,179.39695038,-177.67296402,3.89418222
-4.36854272,9.14288750,-0.25927491,0.75769853,-0.48649018

>  <Name>
ligand

>  <RI>
0

>  <Rbt.Current_Directory>
/home/itssahil/PROJECTS/Mol_Feturizer/New_Systems/rnas/1FUF

>  <Rbt.Executable>
rbdock ($Id: //depot/dev/client3/rdock/2013.1/src/exe/rbdock.cxx#4 $)

>  <Rbt.Library>
libRbt.so (2013.1, Build901 2013/11/27)

>  <Rbt.Parameter_File>
/export/apps/rDock/src/rDock_2013.1_src/data/scripts/dock_solv.prm

>  <Rbt.Receptor>
prm/pocket_docking_5.prm

>  <SCORE>
-4.45735

>  <SCORE.INTER>
-1.93791

>  <SCORE.INTER.CONST>
1

>  <SCORE.INTER.POLAR>
0

>  <SCORE.INTER.ROT>
11

>  <SCORE.INTER.SOLV>
14.7671

>  <SCORE.INTER.VDW>
-17.1477

>  <SCORE.INTER.norm>
-0.138422

>  <SCORE.INTRA>
-2.51943

>  <SCORE.INTRA.DIHEDRAL>
-7.59535

>  <SCORE.INTRA.DIHEDRAL.0>
10.5765

>  <SCORE.INTRA.POLAR>
0

>  <SCORE.INTRA.POLAR.0>
0

>  <SCORE.INTRA.REPUL>
0

>  <SCORE.INTRA.REPUL.0>
0

>  <SCORE.INTRA.SOLV>
1.25246

>  <SCORE.INTRA.SOLV.lig_0>
-50.1861

>  <SCORE.INTRA.VDW>
0.652009

>  <SCORE.INTRA.VDW.0>
-1.36671

>  <SCORE.INTRA.norm>
-0.17996

>  <SCORE.RESTR>
0

>  <SCORE.RESTR.CAVITY>
0

>  <SCORE.RESTR.norm>
0

>  <SCORE.SYSTEM>
0

>  <SCORE.SYSTEM.CONST>
0

>  <SCORE.SYSTEM.DIHEDRAL>
0

>  <SCORE.SYSTEM.SOLV>
0

>  <SCORE.SYSTEM.norm>
0

>  <SCORE.heavy>
14

>  <SCORE.norm>
-0.318382

>  <RMSD>
5.713

$$$$
ligand
 OpenBabel11021811393D
libRbt.so/2013.1/901 2013/11/27
 14 13  0  0  0  0  0  0  0  0999 V2000
    9.2510   -5.8073    6.0519 N   0  0  0  0  0  0  0  0  0  0  0  0
    7.8025   -6.2779    6.1879 C   0  0  0  0  0  0  0  0  0  0  0  0
    7.1310   -5.2566    7.0321 C   0  0  0  0  0  0  0  0  0  0  0  0
    5.6669   -5.5424    7.3243 C   0  0  0  0  0  0  0  0  0  0  0  0
    5.5581   -6.7614    8.1696 N   0  0  0  0  0  0  0  0  0  0  0  0
    4.0825   -6.9948    8.5410 C   0  0  0  0  0  0  0  0  0  0  0  0
    3.8815   -5.9799    9.7663 C   0  0  0  0  0  0  0  0  0  0  0  0
    2.6541   -6.0810   10.2157 C   0  0  0  0  0  0  0  0  0  0  0  0
    2.6849   -4.7444   11.1613 C   0  0  0  0  0  0  0  0  0  0  0  0
    2.4911   -3.6745   10.0347 N   0  0  0  0  0  0  0  0  0  0  0  0
    2.1441   -2.2339   10.5853 C   0  0  0  0  0  0  0  0  0  0  0  0
    0.5188   -2.1925   10.7425 C   0  0  0  0  0  0  0  0  0  0  0  0
    0.2553   -0.8369   11.3309 C   0  0  0  0  0  0  0  0  0  0  0  0
    0.4774    0.1387   10.1993 N   0  0  0  0  0  0  0  0  0  0  0  0
  1  2  1  0  0  0  0
  2  3  1  0  0  0  0
  3  4  1  0  0  0  0
  4  5  1  0  0  0  0
  5  6  1  0  0  0  0
  6  7  1  0  0  0  0
  7  8  1  0  0  0  0
  8  9  1  0  0  0  0
  9 10  1  0  0  0  0
 10 11  1  0  0  0  0
 11 12  1  0  0  0  0
 12 13  1  0  0  0  0
 13 14  1  0  0  0  0
M  END
>  <CHROM.1>
-178.80233544,66.19593171,176.28334962,-80.99693201,-178.92742366,-167.93535199
78.26918590,167.11600626,-87.49208869,177.20566707,73.64050054,3.89973056
-4.44623670,9.09610994,-0.43232033,0.63269338,-0.18655258

>  <Name>
ligand

>  <RI>
0

>  <Rbt.Current_Directory>
/home/itssahil/PROJECTS/Mol_Feturizer/New_Systems/rnas/1FUF

>  <Rbt.Executable>
rbdock ($Id: //depot/dev/client3/rdock/2013.1/src/exe/rbdock.cxx#4 $)

>  <Rbt.Library>
libRbt.so (2013.1, Build901 2013/11/27)

>  <Rbt.Parameter_File>
/export/apps/rDock/src/rDock_2013.1_src/data/scripts/dock_solv.prm

>  <Rbt.Receptor>
prm/blind_docking_60.prm

>  <SCORE>
-2.17378

>  <SCORE.INTER>
-1.47631

>  <SCORE.INTER.CONST>
1

>  <SCORE.INTER.POLAR>
0

>  <SCORE.INTER.ROT>
11

>  <SCORE.INTER.SOLV>
15.1621

>  <SCORE.INTER.VDW>
-16.9716

>  <SCORE.INTER.norm>
-0.105451

>  <SCORE.INTRA>
-0.697468

>  <SCORE.INTRA.DIHEDRAL>
-6.96714

>  <SCORE.INTRA.DIHEDRAL.0>
10.5765

>  <SCORE.INTRA.POLAR>
0

>  <SCORE.INTRA.POLAR.0>
0

>  <SCORE.INTRA.REPUL>
0

>  <SCORE.INTRA.REPUL.0>
0

>  <SCORE.INTRA.SOLV>
1.69362

>  <SCORE.INTRA.SOLV.lig_0>
-50.1861

>  <SCORE.INTRA.VDW>
1.93929

>  <SCORE.INTRA.VDW.0>
-1.36671

>  <SCORE.INTRA.norm>
-0.0498191

>  <SCORE.RESTR>
0

>  <SCORE.RESTR.CAVITY>
0

>  <SCORE.RESTR.norm>
0

>  <SCORE.SYSTEM>
0

>  <SCORE.SYSTEM.CONST>
0

>  <SCORE.SYSTEM.DIHEDRAL>
0

>  <SCORE.SYSTEM.SOLV>
0

>  <SCORE.SYSTEM.norm>
0

>  <SCORE.heavy>
14

>  <SCORE.norm>
-0.15527

>  <RMSD>
5.740

$$$$
ligand
 OpenBabel11021811393D
libRbt.so/2013.1/901 2013/11/27
 14 13  0  0  0  0  0  0  0  0999 V2000
    7.0994   -5.8255    5.5137 N   0  0  0  0  0  0  0  0  0  0  0  0
    7.0453   -5.2772    6.9401 C   0  0  0  0  0  0  0  0  0  0  0  0
    7.6981   -6.3086    7.7868 C   0  0  0  0  0  0  0  0  0  0  0  0
    6.8670   -7.5618    8.0088 C   0  0  0  0  0  0  0  0  0  0  0  0
    5.7568   -7.2608    8.9517 N   0  0  0  0  0  0  0  0  0  0  0  0
    4.4259   -7.2273    8.1788 C   0  0  0  0  0  0  0  0  0  0  0  0
    3.9615   -5.7053    8.3782 C   0  0  0  0  0  0  0  0  0  0  0  0
    3.6088   -5.5202    9.6272 C   0  0  0  0  0  0  0  0  0  0  0  0
    3.2126   -3.9378    9.4824 C   0  0  0  0  0  0  0  0  0  0  0  0
    2.7510   -3.6917   10.9582 N   0  0  0  0  0  0  0  0  0  0  0  0
    2.4021   -2.1810   11.2667 C   0  0  0  0  0  0  0  0  0  0  0  0
    0.8893   -1.9441   10.6981 C   0  0  0  0  0  0  0  0  0  0  0  0
    0.6772   -0.4674   10.8632 C   0  0  0  0  0  0  0  0  0  0  0  0
   -0.7096   -0.2016   10.3266 N   0  0  0  0  0  0  0  0  0  0  0  0
  1  2  1  0  0  0  0
  2  3  1  0  0  0  0
  3  4  1  0  0  0  0
  4  5  1  0  0  0  0
  5  6  1  0  0  0  0
  6  7  1  0  0  0  0
  7  8  1  0  0  0  0
  8  9  1  0  0  0  0
  9 10  1  0  0  0  0
 10 11  1  0  0  0  0
 11 12  1  0  0  0  0
 12 13  1  0  0  0  0
 13 14  1  0  0  0  0
M  END
>  <CHROM.1>
-73.36106312,-73.33439404,107.72747018,-116.93292961,-70.27351096,179.95150756
178.70138874,174.50834090,80.72367676,-173.32768285,179.14839722,3.97763268
-4.50798922,9.07008422,-0.38173790,0.74086104,-0.47568765

>  <Name>
ligand

>  <RI>
0

>  <Rbt.Current_Directory>
/home/itssahil/PROJECTS/Mol_Feturizer/New_Systems/rnas/1FUF

>  <Rbt.Executable>
rbdock ($Id: //depot/dev/client3/rdock/2013.1/src/exe/rbdock.cxx#4 $)

>  <Rbt.Library>
libRbt.so (2013.1, Build901 2013/11/27)

>  <Rbt.Parameter_File>
/export/apps/rDock/src/rDock_2013.1_src/data/scripts/dock_solv.prm

>  <Rbt.Receptor>
prm/blind_docking_60.prm

>  <SCORE>
-0.803381

>  <SCORE.INTER>
0.62866

>  <SCORE.INTER.CONST>
1

>  <SCORE.INTER.POLAR>
0

>  <SCORE.INTER.ROT>
11

>  <SCORE.INTER.SOLV>
16.9876

>  <SCORE.INTER.VDW>
-16.1768

>  <SCORE.INTER.norm>
0.0449043

>  <SCORE.INTRA>
-1.43204

>  <SCORE.INTRA.DIHEDRAL>
-6.09958

>  <SCORE.INTRA.DIHEDRAL.0>
10.5765

>  <SCORE.INTRA.POLAR>
0

>  <SCORE.INTRA.POLAR.0>
0

>  <SCORE.INTRA.REPUL>
0

>  <SCORE.INTRA.REPUL.0>
0

>  <SCORE.INTRA.SOLV>
2.52918

>  <SCORE.INTRA.SOLV.lig_0>
-50.1861

>  <SCORE.INTRA.VDW>
0.353161

>  <SCORE.INTRA.VDW.0>
-1.36671

>  <SCORE.INTRA.norm>
-0.102289

>  <SCORE.RESTR>
0

>  <SCORE.RESTR.CAVITY>
0

>  <SCORE.RESTR.norm>
0

>  <SCORE.SYSTEM>
0

>  <SCORE.SYSTEM.CONST>
0

>  <SCORE.SYSTEM.DIHEDRAL>
0

>  <SCORE.SYSTEM.SOLV>
0

>  <SCORE.SYSTEM.norm>
0

>  <SCORE.heavy>
14

>  <SCORE.norm>
-0.0573844

>  <RMSD>
5.789

$$$$
ligand
 OpenBabel11021811393D
libRbt.so/2013.1/901 2013/11/27
 14 13  0  0  0  0  0  0  0  0999 V2000
  -10.1079    2.8567    9.1539 N   0  0  0  0  0  0  0  0  0  0  0  0
   -8.9774    1.8743    9.4622 C   0  0  0  0  0  0  0  0  0  0  0  0
   -7.7220    2.6540    9.3117 C   0  0  0  0  0  0  0  0  0  0  0  0
   -7.4827    3.2019    7.9142 C   0  0  0  0  0  0  0  0  0  0  0  0
   -6.1242    3.8034    7.8425 N   0  0  0  0  0  0  0  0  0  0  0  0
   -5.3284    3.1326    6.7083 C   0  0  0  0  0  0  0  0  0  0  0  0
   -3.8706    2.9904    7.3613 C   0  0  0  0  0  0  0  0  0  0  0  0
   -3.9416    2.2129    8.4144 C   0  0  0  0  0  0  0  0  0  0  0  0
   -2.3395    2.2010    8.7529 C   0  0  0  0  0  0  0  0  0  0  0  0
   -2.4272    1.6303   10.2082 N   0  0  0  0  0  0  0  0  0  0  0  0
   -2.0193    0.1067   10.3144 C   0  0  0  0  0  0  0  0  0  0  0  0
   -0.4026    0.0896   10.5468 C   0  0  0  0  0  0  0  0  0  0  0  0
   -0.0700   -1.3729   10.6071 C   0  0  0  0  0  0  0  0  0  0  0  0
    1.4273   -1.4333   10.7975 N   0  0  0  0  0  0  0  0  0  0  0  0
  1  2  1  0  0  0  0
  2  3  1  0  0  0  0
  3  4  1  0  0  0  0
  4  5  1  0  0  0  0
  5  6  1  0  0  0  0
  6  7  1  0  0  0  0
  7  8  1  0  0  0  0
  8  9  1  0  0  0  0
  9 10  1  0  0  0  0
 10 11  1  0  0  0  0
 11 12  1  0  0  0  0
 12 13  1  0  0  0  0
 13 14  1  0  0  0  0
M  END
>  <CHROM.1>
-61.99966483,-172.60561628,123.51809882,-139.88525924,62.20706892,176.35158829
164.92879258,103.86335744,88.09831168,-178.70826852,179.01947437,-4.24185286
1.71055328,9.09951183,2.71032422,0.14514227,-0.82063361

>  <Name>
ligand

>  <RI>
0

>  <Rbt.Current_Directory>
/home/itssahil/PROJECTS/Mol_Feturizer/New_Systems/rnas/1FUF

>  <Rbt.Executable>
rbdock ($Id: //depot/dev/client3/rdock/2013.1/src/exe/rbdock.cxx#4 $)

>  <Rbt.Library>
libRbt.so (2013.1, Build901 2013/11/27)

>  <Rbt.Parameter_File>
/export/apps/rDock/src/rDock_2013.1_src/data/scripts/dock_solv.prm

>  <Rbt.Receptor>
prm/blind_docking_20.prm

>  <SCORE>
0.514858

>  <SCORE.INTER>
1.95375

>  <SCORE.INTER.CONST>
1

>  <SCORE.INTER.POLAR>
0

>  <SCORE.INTER.ROT>
11

>  <SCORE.INTER.SOLV>
16.4861

>  <SCORE.INTER.VDW>
-15.1262

>  <SCORE.INTER.norm>
0.139554

>  <SCORE.INTRA>
-1.43889

>  <SCORE.INTRA.DIHEDRAL>
-5.82577

>  <SCORE.INTRA.DIHEDRAL.0>
10.5765

>  <SCORE.INTRA.POLAR>
0

>  <SCORE.INTRA.POLAR.0>
0

>  <SCORE.INTRA.REPUL>
0

>  <SCORE.INTRA.REPUL.0>
0

>  <SCORE.INTRA.SOLV>
1.21595

>  <SCORE.INTRA.SOLV.lig_0>
-50.1861

>  <SCORE.INTRA.VDW>
0.866016

>  <SCORE.INTRA.VDW.0>
-1.36671

>  <SCORE.INTRA.norm>
-0.102778

>  <SCORE.RESTR>
0

>  <SCORE.RESTR.CAVITY>
0

>  <SCORE.RESTR.norm>
0

>  <SCORE.SYSTEM>
0

>  <SCORE.SYSTEM.CONST>
0

>  <SCORE.SYSTEM.DIHEDRAL>
0

>  <SCORE.SYSTEM.SOLV>
0

>  <SCORE.SYSTEM.norm>
0

>  <SCORE.heavy>
14

>  <SCORE.norm>
0.0367756

>  <RMSD>
5.804

$$$$
ligand
 OpenBabel11021811393D
libRbt.so/2013.1/901 2013/11/27
 14 13  0  0  0  0  0  0  0  0999 V2000
    6.5875  -10.8047    7.2142 N   0  0  0  0  0  0  0  0  0  0  0  0
    6.5966  -10.6319    8.7335 C   0  0  0  0  0  0  0  0  0  0  0  0
    6.5606   -9.1653    8.9664 C   0  0  0  0  0  0  0  0  0  0  0  0
    5.2778   -8.4856    8.5159 C   0  0  0  0  0  0  0  0  0  0  0  0
    5.3494   -7.0331    8.8280 N   0  0  0  0  0  0  0  0  0  0  0  0
    3.9233   -6.4697    8.9645 C   0  0  0  0  0  0  0  0  0  0  0  0
    3.7542   -6.3696   10.5561 C   0  0  0  0  0  0  0  0  0  0  0  0
    2.5964   -5.8216   10.8351 C   0  0  0  0  0  0  0  0  0  0  0  0
    3.1091   -4.2665   10.8113 C   0  0  0  0  0  0  0  0  0  0  0  0
    1.7263   -3.5761   11.0615 N   0  0  0  0  0  0  0  0  0  0  0  0
    1.7214   -2.0319   10.7232 C   0  0  0  0  0  0  0  0  0  0  0  0
    0.1543   -1.5721   10.7450 C   0  0  0  0  0  0  0  0  0  0  0  0
    0.2048   -0.1262   10.3451 C   0  0  0  0  0  0  0  0  0  0  0  0
   -1.2285    0.3489   10.3862 N   0  0  0  0  0  0  0  0  0  0  0  0
  1  2  1  0  0  0  0
  2  3  1  0  0  0  0
  3  4  1  0  0  0  0
  4  5  1  0  0  0  0
  5  6  1  0  0  0  0
  6  7  1  0  0  0  0
  7  8  1  0  0  0  0
  8  9  1  0  0  0  0
  9 10  1  0  0  0  0
 10 11  1  0  0  0  0
 11 12  1  0  0  0  0
 12 13  1  0  0  0  0
 13 14  1  0  0  0  0
M  END
>  <CHROM.1>
65.75704111,178.73845312,-155.38649721,102.20004666,176.25014782,-88.35290685
176.92895570,-164.28935778,168.51943224,-176.98056799,-178.63685006,3.30958529
-5.42903108,9.76345039,0.10143274,0.97620846,-1.43832565

>  <Name>
ligand

>  <RI>
0

>  <Rbt.Current_Directory>
/home/itssahil/PROJECTS/Mol_Feturizer/New_Systems/rnas/1FUF

>  <Rbt.Executable>
rbdock ($Id: //depot/dev/client3/rdock/2013.1/src/exe/rbdock.cxx#4 $)

>  <Rbt.Library>
libRbt.so (2013.1, Build901 2013/11/27)

>  <Rbt.Parameter_File>
/export/apps/rDock/src/rDock_2013.1_src/data/scripts/dock_solv.prm

>  <Rbt.Receptor>
prm/pocket_docking_7.prm

>  <SCORE>
-3.79704

>  <SCORE.INTER>
-2.70539

>  <SCORE.INTER.CONST>
1

>  <SCORE.INTER.POLAR>
0

>  <SCORE.INTER.ROT>
11

>  <SCORE.INTER.SOLV>
13.7173

>  <SCORE.INTER.VDW>
-17.3093

>  <SCORE.INTER.norm>
-0.193242

>  <SCORE.INTRA>
-1.09165

>  <SCORE.INTRA.DIHEDRAL>
-5.83175

>  <SCORE.INTRA.DIHEDRAL.0>
10.5765

>  <SCORE.INTRA.POLAR>
0

>  <SCORE.INTRA.POLAR.0>
0

>  <SCORE.INTRA.REPUL>
0

>  <SCORE.INTRA.REPUL.0>
0

>  <SCORE.INTRA.SOLV>
1.10319

>  <SCORE.INTRA.SOLV.lig_0>
-50.1861

>  <SCORE.INTRA.VDW>
1.27263

>  <SCORE.INTRA.VDW.0>
-1.36671

>  <SCORE.INTRA.norm>
-0.0779752

>  <SCORE.RESTR>
0

>  <SCORE.RESTR.CAVITY>
0

>  <SCORE.RESTR.norm>
0

>  <SCORE.SYSTEM>
0

>  <SCORE.SYSTEM.CONST>
0

>  <SCORE.SYSTEM.DIHEDRAL>
0

>  <SCORE.SYSTEM.SOLV>
0

>  <SCORE.SYSTEM.norm>
0

>  <SCORE.heavy>
14

>  <SCORE.norm>
-0.271217

>  <RMSD>
5.822

$$$$
ligand
 OpenBabel11021811393D
libRbt.so/2013.1/901 2013/11/27
 14 13  0  0  0  0  0  0  0  0999 V2000
   -0.6586   -0.0202   10.9617 N   0  0  0  0  0  0  0  0  0  0  0  0
    0.5500   -0.5922   11.7033 C   0  0  0  0  0  0  0  0  0  0  0  0
    0.9477   -1.8028   10.9398 C   0  0  0  0  0  0  0  0  0  0  0  0
    2.1997   -2.4925   11.4569 C   0  0  0  0  0  0  0  0  0  0  0  0
    2.5032   -3.6739   10.6057 N   0  0  0  0  0  0  0  0  0  0  0  0
    3.9149   -4.1915   10.9359 C   0  0  0  0  0  0  0  0  0  0  0  0
    4.1141   -5.3434    9.8381 C   0  0  0  0  0  0  0  0  0  0  0  0
    4.0445   -4.8164    8.6397 C   0  0  0  0  0  0  0  0  0  0  0  0
    4.2112   -6.2152    7.8047 C   0  0  0  0  0  0  0  0  0  0  0  0
    5.7756   -6.2774    7.7913 N   0  0  0  0  0  0  0  0  0  0  0  0
    6.4344   -5.3584    6.6865 C   0  0  0  0  0  0  0  0  0  0  0  0
    7.7703   -6.1507    6.1811 C   0  0  0  0  0  0  0  0  0  0  0  0
    8.6335   -6.2057    7.4079 C   0  0  0  0  0  0  0  0  0  0  0  0
    9.8831   -6.9405    6.9831 N   0  0  0  0  0  0  0  0  0  0  0  0
  1  2  1  0  0  0  0
  2  3  1  0  0  0  0
  3  4  1  0  0  0  0
  4  5  1  0  0  0  0
  5  6  1  0  0  0  0
  6  7  1  0  0  0  0
  7  8  1  0  0  0  0
  8  9  1  0  0  0  0
  9 10  1  0  0  0  0
 10 11  1  0  0  0  0
 11 12  1  0  0  0  0
 12 13  1  0  0  0  0
 13 14  1  0  0  0  0
M  END
>  <CHROM.1>
176.36143047,-179.31793083,168.08534525,-174.50844444,60.91069799,-177.60495375
-85.47541269,-80.25673491,-145.82656225,-63.46173012,179.73191970,4.30880469
-4.29152181,9.13829478,2.61143917,-0.54706519,1.43023340

>  <Name>
ligand

>  <RI>
0

>  <Rbt.Current_Directory>
/home/itssahil/PROJECTS/Mol_Feturizer/New_Systems/rnas/1FUF

>  <Rbt.Executable>
rbdock ($Id: //depot/dev/client3/rdock/2013.1/src/exe/rbdock.cxx#4 $)

>  <Rbt.Library>
libRbt.so (2013.1, Build901 2013/11/27)

>  <Rbt.Parameter_File>
/export/apps/rDock/src/rDock_2013.1_src/data/scripts/dock_solv.prm

>  <Rbt.Receptor>
prm/pocket_docking_8.prm

>  <SCORE>
-1.58865

>  <SCORE.INTER>
-0.637617

>  <SCORE.INTER.CONST>
1

>  <SCORE.INTER.POLAR>
0

>  <SCORE.INTER.ROT>
11

>  <SCORE.INTER.SOLV>
12.8743

>  <SCORE.INTER.VDW>
-15.6498

>  <SCORE.INTER.norm>
-0.045544

>  <SCORE.INTRA>
-0.951033

>  <SCORE.INTRA.DIHEDRAL>
-7.16515

>  <SCORE.INTRA.DIHEDRAL.0>
10.5765

>  <SCORE.INTRA.POLAR>
0

>  <SCORE.INTRA.POLAR.0>
0

>  <SCORE.INTRA.REPUL>
0

>  <SCORE.INTRA.REPUL.0>
0

>  <SCORE.INTRA.SOLV>
1.36242

>  <SCORE.INTRA.SOLV.lig_0>
-50.1861

>  <SCORE.INTRA.VDW>
1.95033

>  <SCORE.INTRA.VDW.0>
-1.36671

>  <SCORE.INTRA.norm>
-0.0679309

>  <SCORE.RESTR>
0

>  <SCORE.RESTR.CAVITY>
0

>  <SCORE.RESTR.norm>
0

>  <SCORE.SYSTEM>
0

>  <SCORE.SYSTEM.CONST>
0

>  <SCORE.SYSTEM.DIHEDRAL>
0

>  <SCORE.SYSTEM.SOLV>
0

>  <SCORE.SYSTEM.norm>
0

>  <SCORE.heavy>
14

>  <SCORE.norm>
-0.113475

>  <RMSD>
5.860

$$$$
ligand
 OpenBabel11021811393D
libRbt.so/2013.1/901 2013/11/27
 14 13  0  0  0  0  0  0  0  0999 V2000
    9.2872   -9.5184    7.4622 N   0  0  0  0  0  0  0  0  0  0  0  0
    7.7763   -9.5127    7.2272 C   0  0  0  0  0  0  0  0  0  0  0  0
    7.1984   -8.7725    8.3782 C   0  0  0  0  0  0  0  0  0  0  0  0
    5.6866   -8.6199    8.3359 C   0  0  0  0  0  0  0  0  0  0  0  0
    5.2421   -7.7644    9.4685 N   0  0  0  0  0  0  0  0  0  0  0  0
    4.0448   -6.9066    9.0208 C   0  0  0  0  0  0  0  0  0  0  0  0
    4.0350   -5.7436   10.1250 C   0  0  0  0  0  0  0  0  0  0  0  0
    2.9321   -5.0447   10.0083 C   0  0  0  0  0  0  0  0  0  0  0  0
    3.3153   -3.8955   11.1101 C   0  0  0  0  0  0  0  0  0  0  0  0
    1.8780   -3.3149   11.3300 N   0  0  0  0  0  0  0  0  0  0  0  0
    1.6581   -1.9019   10.6560 C   0  0  0  0  0  0  0  0  0  0  0  0
    0.0671   -1.5695   10.8182 C   0  0  0  0  0  0  0  0  0  0  0  0
   -0.0747   -0.2102   10.1974 C   0  0  0  0  0  0  0  0  0  0  0  0
    0.6072    0.7383   11.1552 N   0  0  0  0  0  0  0  0  0  0  0  0
  1  2  1  0  0  0  0
  2  3  1  0  0  0  0
  3  4  1  0  0  0  0
  4  5  1  0  0  0  0
  5  6  1  0  0  0  0
  6  7  1  0  0  0  0
  7  8  1  0  0  0  0
  8  9  1  0  0  0  0
  9 10  1  0  0  0  0
 10 11  1  0  0  0  0
 11 12  1  0  0  0  0
 12 13  1  0  0  0  0
 13 14  1  0  0  0  0
M  END
>  <CHROM.1>
178.85835681,-175.01991778,144.82112794,-161.31672345,-169.77465326,-173.90021051
-163.15545779,-106.11384536,172.41728037,178.54903195,-70.62662579,3.83221790
-5.14553781,9.66371381,-0.80097335,0.48964781,-0.08527380

>  <Name>
ligand

>  <RI>
0

>  <Rbt.Current_Directory>
/home/itssahil/PROJECTS/Mol_Feturizer/New_Systems/rnas/1FUF

>  <Rbt.Executable>
rbdock ($Id: //depot/dev/client3/rdock/2013.1/src/exe/rbdock.cxx#4 $)

>  <Rbt.Library>
libRbt.so (2013.1, Build901 2013/11/27)

>  <Rbt.Parameter_File>
/export/apps/rDock/src/rDock_2013.1_src/data/scripts/dock_solv.prm

>  <Rbt.Receptor>
prm/pocket_docking_6.prm

>  <SCORE>
-1.51471

>  <SCORE.INTER>
0.91908

>  <SCORE.INTER.CONST>
1

>  <SCORE.INTER.POLAR>
0

>  <SCORE.INTER.ROT>
11

>  <SCORE.INTER.SOLV>
15.4578

>  <SCORE.INTER.VDW>
-15.4732

>  <SCORE.INTER.norm>
0.0656486

>  <SCORE.INTRA>
-2.43379

>  <SCORE.INTRA.DIHEDRAL>
-6.38674

>  <SCORE.INTRA.DIHEDRAL.0>
10.5765

>  <SCORE.INTRA.POLAR>
0

>  <SCORE.INTRA.POLAR.0>
0

>  <SCORE.INTRA.REPUL>
0

>  <SCORE.INTRA.REPUL.0>
0

>  <SCORE.INTRA.SOLV>
0.816393

>  <SCORE.INTRA.SOLV.lig_0>
-50.1861

>  <SCORE.INTRA.VDW>
0.351383

>  <SCORE.INTRA.VDW.0>
-1.36671

>  <SCORE.INTRA.norm>
-0.173842

>  <SCORE.RESTR>
0

>  <SCORE.RESTR.CAVITY>
0

>  <SCORE.RESTR.norm>
0

>  <SCORE.SYSTEM>
0

>  <SCORE.SYSTEM.CONST>
0

>  <SCORE.SYSTEM.DIHEDRAL>
0

>  <SCORE.SYSTEM.SOLV>
0

>  <SCORE.SYSTEM.norm>
0

>  <SCORE.heavy>
14

>  <SCORE.norm>
-0.108194

>  <RMSD>
5.905

$$$$
ligand
 OpenBabel11021811393D
libRbt.so/2013.1/901 2013/11/27
 14 13  0  0  0  0  0  0  0  0999 V2000
   -0.3318    0.6345   10.7348 N   0  0  0  0  0  0  0  0  0  0  0  0
    0.5415   -0.4438   10.0924 C   0  0  0  0  0  0  0  0  0  0  0  0
    0.4062   -1.6371   10.9668 C   0  0  0  0  0  0  0  0  0  0  0  0
    1.1625   -2.8636   10.4828 C   0  0  0  0  0  0  0  0  0  0  0  0
    2.6249   -2.5966   10.5320 N   0  0  0  0  0  0  0  0  0  0  0  0
    3.3046   -3.2534    9.3169 C   0  0  0  0  0  0  0  0  0  0  0  0
    3.6930   -4.6991    9.8920 C   0  0  0  0  0  0  0  0  0  0  0  0
    4.2720   -5.3999    8.9474 C   0  0  0  0  0  0  0  0  0  0  0  0
    4.5056   -6.7583    9.8316 C   0  0  0  0  0  0  0  0  0  0  0  0
    5.1845   -7.6285    8.7210 N   0  0  0  0  0  0  0  0  0  0  0  0
    5.6153   -9.0653    9.2203 C   0  0  0  0  0  0  0  0  0  0  0  0
    6.3018   -9.8009    7.9337 C   0  0  0  0  0  0  0  0  0  0  0  0
    7.5840   -9.0454    7.7376 C   0  0  0  0  0  0  0  0  0  0  0  0
    8.2702   -9.7205    6.5735 N   0  0  0  0  0  0  0  0  0  0  0  0
  1  2  1  0  0  0  0
  2  3  1  0  0  0  0
  3  4  1  0  0  0  0
  4  5  1  0  0  0  0
  5  6  1  0  0  0  0
  6  7  1  0  0  0  0
  7  8  1  0  0  0  0
  8  9  1  0  0  0  0
  9 10  1  0  0  0  0
 10 11  1  0  0  0  0
 11 12  1  0  0  0  0
 12 13  1  0  0  0  0
 13 14  1  0  0  0  0
M  END
>  <CHROM.1>
177.87987117,65.68764912,-142.40025983,-91.18128953,178.92291648,-179.32164542
179.35322583,178.36419124,-179.68329207,69.27544760,178.55934000,3.79525027
-5.16283494,9.35600077,-2.45165715,-0.71670815,2.78146828

>  <Name>
ligand

>  <RI>
0

>  <Rbt.Current_Directory>
/home/itssahil/PROJECTS/Mol_Feturizer/New_Systems/rnas/1FUF

>  <Rbt.Executable>
rbdock ($Id: //depot/dev/client3/rdock/2013.1/src/exe/rbdock.cxx#4 $)

>  <Rbt.Library>
libRbt.so (2013.1, Build901 2013/11/27)

>  <Rbt.Parameter_File>
/export/apps/rDock/src/rDock_2013.1_src/data/scripts/dock_solv.prm

>  <Rbt.Receptor>
prm/pocket_docking_8.prm

>  <SCORE>
-3.43368

>  <SCORE.INTER>
0.0830052

>  <SCORE.INTER.CONST>
1

>  <SCORE.INTER.POLAR>
0

>  <SCORE.INTER.ROT>
11

>  <SCORE.INTER.SOLV>
14.0278

>  <SCORE.INTER.VDW>
-15.5539

>  <SCORE.INTER.norm>
0.00592894

>  <SCORE.INTRA>
-3.51668

>  <SCORE.INTRA.DIHEDRAL>
-8.63123

>  <SCORE.INTRA.DIHEDRAL.0>
10.5765

>  <SCORE.INTRA.POLAR>
0

>  <SCORE.INTRA.POLAR.0>
0

>  <SCORE.INTRA.REPUL>
0

>  <SCORE.INTRA.REPUL.0>
0

>  <SCORE.INTRA.SOLV>
0.660873

>  <SCORE.INTRA.SOLV.lig_0>
-50.1861

>  <SCORE.INTRA.VDW>
0.468495

>  <SCORE.INTRA.VDW.0>
-1.36671

>  <SCORE.INTRA.norm>
-0.251191

>  <SCORE.RESTR>
0

>  <SCORE.RESTR.CAVITY>
0

>  <SCORE.RESTR.norm>
0

>  <SCORE.SYSTEM>
0

>  <SCORE.SYSTEM.CONST>
0

>  <SCORE.SYSTEM.DIHEDRAL>
0

>  <SCORE.SYSTEM.SOLV>
0

>  <SCORE.SYSTEM.norm>
0

>  <SCORE.heavy>
14

>  <SCORE.norm>
-0.245263

>  <RMSD>
5.916

$$$$
ligand
 OpenBabel11021811393D
libRbt.so/2013.1/901 2013/11/27
 14 13  0  0  0  0  0  0  0  0999 V2000
   -0.3310   -0.1689   10.0936 N   0  0  0  0  0  0  0  0  0  0  0  0
    0.2414   -1.1825   11.0850 C   0  0  0  0  0  0  0  0  0  0  0  0
    1.5330   -1.6246   10.4994 C   0  0  0  0  0  0  0  0  0  0  0  0
    2.2464   -2.7093   11.2900 C   0  0  0  0  0  0  0  0  0  0  0  0
    3.4871   -3.1107   10.5745 N   0  0  0  0  0  0  0  0  0  0  0  0
    3.8740   -4.5422   10.9878 C   0  0  0  0  0  0  0  0  0  0  0  0
    3.8245   -5.3199    9.5861 C   0  0  0  0  0  0  0  0  0  0  0  0
    4.0847   -6.5892    9.7855 C   0  0  0  0  0  0  0  0  0  0  0  0
    4.0867   -7.0348    8.2097 C   0  0  0  0  0  0  0  0  0  0  0  0
    5.5925   -6.7380    7.9001 N   0  0  0  0  0  0  0  0  0  0  0  0
    5.8201   -5.3882    7.1093 C   0  0  0  0  0  0  0  0  0  0  0  0
    7.2010   -5.5918    6.2611 C   0  0  0  0  0  0  0  0  0  0  0  0
    8.2692   -5.5724    7.3155 C   0  0  0  0  0  0  0  0  0  0  0  0
    8.2699   -6.9621    7.9076 N   0  0  0  0  0  0  0  0  0  0  0  0
  1  2  1  0  0  0  0
  2  3  1  0  0  0  0
  3  4  1  0  0  0  0
  4  5  1  0  0  0  0
  5  6  1  0  0  0  0
  6  7  1  0  0  0  0
  7  8  1  0  0  0  0
  8  9  1  0  0  0  0
  9 10  1  0  0  0  0
 10 11  1  0  0  0  0
 11 12  1  0  0  0  0
 12 13  1  0  0  0  0
 13 14  1  0  0  0  0
M  END
>  <CHROM.1>
-176.55995807,177.36083747,-155.69871663,119.64976835,-177.48741337,-175.31499438
87.71523852,-102.29409936,-152.56918814,-71.10565502,80.75916145,4.15707039
-4.46685122,9.18609296,-2.73589043,-0.67556406,2.76825031

>  <Name>
ligand

>  <RI>
0

>  <Rbt.Current_Directory>
/home/itssahil/PROJECTS/Mol_Feturizer/New_Systems/rnas/1FUF

>  <Rbt.Executable>
rbdock ($Id: //depot/dev/client3/rdock/2013.1/src/exe/rbdock.cxx#4 $)

>  <Rbt.Library>
libRbt.so (2013.1, Build901 2013/11/27)

>  <Rbt.Parameter_File>
/export/apps/rDock/src/rDock_2013.1_src/data/scripts/dock_solv.prm

>  <Rbt.Receptor>
prm/pocket_docking_4.prm

>  <SCORE>
-0.706168

>  <SCORE.INTER>
-1.93013

>  <SCORE.INTER.CONST>
1

>  <SCORE.INTER.POLAR>
0

>  <SCORE.INTER.ROT>
11

>  <SCORE.INTER.SOLV>
14.1256

>  <SCORE.INTER.VDW>
-16.9286

>  <SCORE.INTER.norm>
-0.137866

>  <SCORE.INTRA>
1.22396

>  <SCORE.INTRA.DIHEDRAL>
-2.9266

>  <SCORE.INTRA.DIHEDRAL.0>
10.5765

>  <SCORE.INTRA.POLAR>
0

>  <SCORE.INTRA.POLAR.0>
0

>  <SCORE.INTRA.REPUL>
0

>  <SCORE.INTRA.REPUL.0>
0

>  <SCORE.INTRA.SOLV>
3.51687

>  <SCORE.INTRA.SOLV.lig_0>
-50.1861

>  <SCORE.INTRA.VDW>
0.928821

>  <SCORE.INTRA.VDW.0>
-1.36671

>  <SCORE.INTRA.norm>
0.0874256

>  <SCORE.RESTR>
0

>  <SCORE.RESTR.CAVITY>
0

>  <SCORE.RESTR.norm>
0

>  <SCORE.SYSTEM>
0

>  <SCORE.SYSTEM.CONST>
0

>  <SCORE.SYSTEM.DIHEDRAL>
0

>  <SCORE.SYSTEM.SOLV>
0

>  <SCORE.SYSTEM.norm>
0

>  <SCORE.heavy>
14

>  <SCORE.norm>
-0.0504406

>  <RMSD>
5.922

$$$$
ligand
 OpenBabel11021811393D
libRbt.so/2013.1/901 2013/11/27
 14 13  0  0  0  0  0  0  0  0999 V2000
   -0.8117   -0.0893   10.9069 N   0  0  0  0  0  0  0  0  0  0  0  0
    0.6676   -0.4629   11.0087 C   0  0  0  0  0  0  0  0  0  0  0  0
    0.7324   -1.9147   10.7012 C   0  0  0  0  0  0  0  0  0  0  0  0
    2.1308   -2.5086   10.7493 C   0  0  0  0  0  0  0  0  0  0  0  0
    2.0770   -3.9389   10.3447 N   0  0  0  0  0  0  0  0  0  0  0  0
    3.3400   -4.6598   10.8497 C   0  0  0  0  0  0  0  0  0  0  0  0
    3.3542   -5.9833    9.9442 C   0  0  0  0  0  0  0  0  0  0  0  0
    3.6813   -5.6640    8.7155 C   0  0  0  0  0  0  0  0  0  0  0  0
    5.3024   -5.7920    8.9088 C   0  0  0  0  0  0  0  0  0  0  0  0
    5.7273   -5.4193    7.4487 N   0  0  0  0  0  0  0  0  0  0  0  0
    7.2932   -5.3364    7.2486 C   0  0  0  0  0  0  0  0  0  0  0  0
    7.5875   -5.9295    5.7555 C   0  0  0  0  0  0  0  0  0  0  0  0
    9.0835   -6.0430    5.7091 C   0  0  0  0  0  0  0  0  0  0  0  0
    9.3896   -6.7438    4.4064 N   0  0  0  0  0  0  0  0  0  0  0  0
  1  2  1  0  0  0  0
  2  3  1  0  0  0  0
  3  4  1  0  0  0  0
  4  5  1  0  0  0  0
  5  6  1  0  0  0  0
  6  7  1  0  0  0  0
  7  8  1  0  0  0  0
  8  9  1  0  0  0  0
  9 10  1  0  0  0  0
 10 11  1  0  0  0  0
 11 12  1  0  0  0  0
 12 13  1  0  0  0  0
 13 14  1  0  0  0  0
M  END
>  <CHROM.1>
-179.83186252,-176.55748817,-160.33089099,-162.03975761,71.97151774,88.03367330
179.82238272,176.08705338,143.12797016,-170.82794512,173.38300548,4.25401042
-4.32050843,8.76429381,-2.93155114,-0.71151748,2.72185719

>  <Name>
ligand

>  <RI>
0

>  <Rbt.Current_Directory>
/home/itssahil/PROJECTS/Mol_Feturizer/New_Systems/rnas/1FUF

>  <Rbt.Executable>
rbdock ($Id: //depot/dev/client3/rdock/2013.1/src/exe/rbdock.cxx#4 $)

>  <Rbt.Library>
libRbt.so (2013.1, Build901 2013/11/27)

>  <Rbt.Parameter_File>
/export/apps/rDock/src/rDock_2013.1_src/data/scripts/dock_solv.prm

>  <Rbt.Receptor>
prm/pocket_docking_6.prm

>  <SCORE>
-1.37028

>  <SCORE.INTER>
-0.305868

>  <SCORE.INTER.CONST>
1

>  <SCORE.INTER.POLAR>
0

>  <SCORE.INTER.ROT>
11

>  <SCORE.INTER.SOLV>
13.8969

>  <SCORE.INTER.VDW>
-15.7696

>  <SCORE.INTER.norm>
-0.0218477

>  <SCORE.INTRA>
-1.06441

>  <SCORE.INTRA.DIHEDRAL>
-5.42394

>  <SCORE.INTRA.DIHEDRAL.0>
10.5765

>  <SCORE.INTRA.POLAR>
0

>  <SCORE.INTRA.POLAR.0>
0

>  <SCORE.INTRA.REPUL>
0

>  <SCORE.INTRA.REPUL.0>
0

>  <SCORE.INTRA.SOLV>
0.555777

>  <SCORE.INTRA.SOLV.lig_0>
-50.1861

>  <SCORE.INTRA.VDW>
1.36967

>  <SCORE.INTRA.VDW.0>
-1.36671

>  <SCORE.INTRA.norm>
-0.0760291

>  <SCORE.RESTR>
0

>  <SCORE.RESTR.CAVITY>
0

>  <SCORE.RESTR.norm>
0

>  <SCORE.SYSTEM>
0

>  <SCORE.SYSTEM.CONST>
0

>  <SCORE.SYSTEM.DIHEDRAL>
0

>  <SCORE.SYSTEM.SOLV>
0

>  <SCORE.SYSTEM.norm>
0

>  <SCORE.heavy>
14

>  <SCORE.norm>
-0.0978768

>  <RMSD>
5.930

$$$$
ligand
 OpenBabel11021811393D
libRbt.so/2013.1/901 2013/11/27
 14 13  0  0  0  0  0  0  0  0999 V2000
    9.5551   -9.2078    7.7334 N   0  0  0  0  0  0  0  0  0  0  0  0
    8.3079   -8.9813    8.5886 C   0  0  0  0  0  0  0  0  0  0  0  0
    7.1588   -9.1053    7.6554 C   0  0  0  0  0  0  0  0  0  0  0  0
    5.7970   -8.9069    8.3008 C   0  0  0  0  0  0  0  0  0  0  0  0
    5.6988   -7.5233    8.8378 N   0  0  0  0  0  0  0  0  0  0  0  0
    4.2195   -7.1011    8.8928 C   0  0  0  0  0  0  0  0  0  0  0  0
    4.2580   -5.8826    9.9348 C   0  0  0  0  0  0  0  0  0  0  0  0
    3.0408   -5.4324   10.1201 C   0  0  0  0  0  0  0  0  0  0  0  0
    3.4514   -4.1407   11.0391 C   0  0  0  0  0  0  0  0  0  0  0  0
    2.0313   -3.4910   11.1508 N   0  0  0  0  0  0  0  0  0  0  0  0
    1.9667   -2.0149   10.5886 C   0  0  0  0  0  0  0  0  0  0  0  0
    0.4201   -1.5272   10.7836 C   0  0  0  0  0  0  0  0  0  0  0  0
    0.4175   -0.1316   10.2309 C   0  0  0  0  0  0  0  0  0  0  0  0
   -1.0158    0.3345   10.3325 N   0  0  0  0  0  0  0  0  0  0  0  0
  1  2  1  0  0  0  0
  2  3  1  0  0  0  0
  3  4  1  0  0  0  0
  4  5  1  0  0  0  0
  5  6  1  0  0  0  0
  6  7  1  0  0  0  0
  7  8  1  0  0  0  0
  8  9  1  0  0  0  0
  9 10  1  0  0  0  0
 10 11  1  0  0  0  0
 11 12  1  0  0  0  0
 12 13  1  0  0  0  0
 13 14  1  0  0  0  0
M  END
>  <CHROM.1>
-179.72147690,62.79049035,154.28947659,160.65532806,-178.15529618,-173.44478514
174.22302457,-121.23967061,179.57765858,-179.76495430,177.38049481,3.95046448
-5.22235062,9.58496007,-0.84311984,0.19418509,0.13020455

>  <Name>
ligand

>  <RI>
0

>  <Rbt.Current_Directory>
/home/itssahil/PROJECTS/Mol_Feturizer/New_Systems/rnas/1FUF

>  <Rbt.Executable>
rbdock ($Id: //depot/dev/client3/rdock/2013.1/src/exe/rbdock.cxx#4 $)

>  <Rbt.Library>
libRbt.so (2013.1, Build901 2013/11/27)

>  <Rbt.Parameter_File>
/export/apps/rDock/src/rDock_2013.1_src/data/scripts/dock_solv.prm

>  <Rbt.Receptor>
prm/pocket_docking_7.prm

>  <SCORE>
-4.08313

>  <SCORE.INTER>
-0.157336

>  <SCORE.INTER.CONST>
1

>  <SCORE.INTER.POLAR>
0

>  <SCORE.INTER.ROT>
11

>  <SCORE.INTER.SOLV>
12.1497

>  <SCORE.INTER.VDW>
-15.0881

>  <SCORE.INTER.norm>
-0.0112383

>  <SCORE.INTRA>
-3.9258

>  <SCORE.INTRA.DIHEDRAL>
-8.25638

>  <SCORE.INTRA.DIHEDRAL.0>
10.5765

>  <SCORE.INTRA.POLAR>
0

>  <SCORE.INTRA.POLAR.0>
0

>  <SCORE.INTRA.REPUL>
0

>  <SCORE.INTRA.REPUL.0>
0

>  <SCORE.INTRA.SOLV>
0.222739

>  <SCORE.INTRA.SOLV.lig_0>
-50.1861

>  <SCORE.INTRA.VDW>
0.0910253

>  <SCORE.INTRA.VDW.0>
-1.36671

>  <SCORE.INTRA.norm>
-0.280414

>  <SCORE.RESTR>
0

>  <SCORE.RESTR.CAVITY>
0

>  <SCORE.RESTR.norm>
0

>  <SCORE.SYSTEM>
0

>  <SCORE.SYSTEM.CONST>
0

>  <SCORE.SYSTEM.DIHEDRAL>
0

>  <SCORE.SYSTEM.SOLV>
0

>  <SCORE.SYSTEM.norm>
0

>  <SCORE.heavy>
14

>  <SCORE.norm>
-0.291652

>  <RMSD>
5.948

$$$$
ligand
 OpenBabel11021811393D
libRbt.so/2013.1/901 2013/11/27
 14 13  0  0  0  0  0  0  0  0999 V2000
  -10.4995    1.5343    8.3495 N   0  0  0  0  0  0  0  0  0  0  0  0
   -9.3794    1.3349    9.3711 C   0  0  0  0  0  0  0  0  0  0  0  0
   -8.9862    2.7014    9.8007 C   0  0  0  0  0  0  0  0  0  0  0  0
   -8.2580    3.5116    8.7406 C   0  0  0  0  0  0  0  0  0  0  0  0
   -6.9658    2.8522    8.4123 N   0  0  0  0  0  0  0  0  0  0  0  0
   -5.8918    3.3055    9.4176 C   0  0  0  0  0  0  0  0  0  0  0  0
   -4.7473    2.2025    9.2043 C   0  0  0  0  0  0  0  0  0  0  0  0
   -5.1816    1.0402    9.6273 C   0  0  0  0  0  0  0  0  0  0  0  0
   -3.8307    0.1875    9.2670 C   0  0  0  0  0  0  0  0  0  0  0  0
   -3.0650    0.4108   10.6143 N   0  0  0  0  0  0  0  0  0  0  0  0
   -1.6856    1.1631   10.4391 C   0  0  0  0  0  0  0  0  0  0  0  0
   -0.6318    0.0455    9.8839 C   0  0  0  0  0  0  0  0  0  0  0  0
   -0.4674   -0.8922   11.0445 C   0  0  0  0  0  0  0  0  0  0  0  0
    0.6090   -1.8642   10.6220 N   0  0  0  0  0  0  0  0  0  0  0  0
  1  2  1  0  0  0  0
  2  3  1  0  0  0  0
  3  4  1  0  0  0  0
  4  5  1  0  0  0  0
  5  6  1  0  0  0  0
  6  7  1  0  0  0  0
  7  8  1  0  0  0  0
  8  9  1  0  0  0  0
  9 10  1  0  0  0  0
 10 11  1  0  0  0  0
 11 12  1  0  0  0  0
 12 13  1  0  0  0  0
 13 14  1  0  0  0  0
M  END
>  <CHROM.1>
-70.29403321,-63.66360554,-85.16865291,163.58836077,-67.68540179,179.63904507
88.40840708,-119.02847676,-77.92928746,-67.86491979,-174.40027887,-4.92719843
1.25257609,9.62820325,2.77778792,-0.12612944,-0.16063134

>  <Name>
ligand

>  <RI>
0

>  <Rbt.Current_Directory>
/home/itssahil/PROJECTS/Mol_Feturizer/New_Systems/rnas/1FUF

>  <Rbt.Executable>
rbdock ($Id: //depot/dev/client3/rdock/2013.1/src/exe/rbdock.cxx#4 $)

>  <Rbt.Library>
libRbt.so (2013.1, Build901 2013/11/27)

>  <Rbt.Parameter_File>
/export/apps/rDock/src/rDock_2013.1_src/data/scripts/dock_solv.prm

>  <Rbt.Receptor>
prm/blind_docking_20.prm

>  <SCORE>
2.72092

>  <SCORE.INTER>
2.28974

>  <SCORE.INTER.CONST>
1

>  <SCORE.INTER.POLAR>
0

>  <SCORE.INTER.ROT>
11

>  <SCORE.INTER.SOLV>
16.5549

>  <SCORE.INTER.VDW>
-14.9252

>  <SCORE.INTER.norm>
0.163553

>  <SCORE.INTRA>
0.431179

>  <SCORE.INTRA.DIHEDRAL>
-4.93194

>  <SCORE.INTRA.DIHEDRAL.0>
10.5765

>  <SCORE.INTRA.POLAR>
0

>  <SCORE.INTRA.POLAR.0>
0

>  <SCORE.INTRA.REPUL>
0

>  <SCORE.INTRA.REPUL.0>
0

>  <SCORE.INTRA.SOLV>
2.84269

>  <SCORE.INTRA.SOLV.lig_0>
-50.1861

>  <SCORE.INTRA.VDW>
1.4758

>  <SCORE.INTRA.VDW.0>
-1.36671

>  <SCORE.INTRA.norm>
0.0307985

>  <SCORE.RESTR>
0

>  <SCORE.RESTR.CAVITY>
0

>  <SCORE.RESTR.norm>
0

>  <SCORE.SYSTEM>
0

>  <SCORE.SYSTEM.CONST>
0

>  <SCORE.SYSTEM.DIHEDRAL>
0

>  <SCORE.SYSTEM.SOLV>
0

>  <SCORE.SYSTEM.norm>
0

>  <SCORE.heavy>
14

>  <SCORE.norm>
0.194351

>  <RMSD>
5.962

$$$$
ligand
 OpenBabel11021811393D
libRbt.so/2013.1/901 2013/11/27
 14 13  0  0  0  0  0  0  0  0999 V2000
    8.9600   -6.5755    4.6543 N   0  0  0  0  0  0  0  0  0  0  0  0
    8.6639   -5.6735    5.8529 C   0  0  0  0  0  0  0  0  0  0  0  0
    7.2104   -5.8288    6.1170 C   0  0  0  0  0  0  0  0  0  0  0  0
    6.7267   -5.1661    7.3967 C   0  0  0  0  0  0  0  0  0  0  0  0
    5.3244   -5.5794    7.6705 N   0  0  0  0  0  0  0  0  0  0  0  0
    5.2476   -6.2330    9.0622 C   0  0  0  0  0  0  0  0  0  0  0  0
    3.7316   -5.9317    9.4900 C   0  0  0  0  0  0  0  0  0  0  0  0
    3.5509   -6.3022   10.7344 C   0  0  0  0  0  0  0  0  0  0  0  0
    1.9854   -5.8352   10.8485 C   0  0  0  0  0  0  0  0  0  0  0  0
    2.2287   -4.3032   11.0604 N   0  0  0  0  0  0  0  0  0  0  0  0
    1.1241   -3.3904   10.3928 C   0  0  0  0  0  0  0  0  0  0  0  0
    1.2640   -1.9251   11.1008 C   0  0  0  0  0  0  0  0  0  0  0  0
    0.1064   -1.1505   10.5412 C   0  0  0  0  0  0  0  0  0  0  0  0
    0.1501    0.1896   11.2370 N   0  0  0  0  0  0  0  0  0  0  0  0
  1  2  1  0  0  0  0
  2  3  1  0  0  0  0
  3  4  1  0  0  0  0
  4  5  1  0  0  0  0
  5  6  1  0  0  0  0
  6  7  1  0  0  0  0
  7  8  1  0  0  0  0
  8  9  1  0  0  0  0
  9 10  1  0  0  0  0
 10 11  1  0  0  0  0
 11 12  1  0  0  0  0
 12 13  1  0  0  0  0
 13 14  1  0  0  0  0
M  END
>  <CHROM.1>
171.85774790,-170.48501525,122.75493127,152.57424068,-172.96258113,178.57773630
-79.10322116,145.40778190,162.35495175,-174.13660191,176.66238821,4.01952528
-4.55054614,9.01149058,-0.20502434,0.70931514,-0.37305222

>  <Name>
ligand

>  <RI>
0

>  <Rbt.Current_Directory>
/home/itssahil/PROJECTS/Mol_Feturizer/New_Systems/rnas/1FUF

>  <Rbt.Executable>
rbdock ($Id: //depot/dev/client3/rdock/2013.1/src/exe/rbdock.cxx#4 $)

>  <Rbt.Library>
libRbt.so (2013.1, Build901 2013/11/27)

>  <Rbt.Parameter_File>
/export/apps/rDock/src/rDock_2013.1_src/data/scripts/dock_solv.prm

>  <Rbt.Receptor>
prm/pocket_docking_7.prm

>  <SCORE>
-3.30473

>  <SCORE.INTER>
-1.56821

>  <SCORE.INTER.CONST>
1

>  <SCORE.INTER.POLAR>
0

>  <SCORE.INTER.ROT>
11

>  <SCORE.INTER.SOLV>
15.0087

>  <SCORE.INTER.VDW>
-16.9817

>  <SCORE.INTER.norm>
-0.112015

>  <SCORE.INTRA>
-1.73652

>  <SCORE.INTRA.DIHEDRAL>
-5.66537

>  <SCORE.INTRA.DIHEDRAL.0>
10.5765

>  <SCORE.INTRA.POLAR>
0

>  <SCORE.INTRA.POLAR.0>
0

>  <SCORE.INTRA.REPUL>
0

>  <SCORE.INTRA.REPUL.0>
0

>  <SCORE.INTRA.SOLV>
0.399854

>  <SCORE.INTRA.SOLV.lig_0>
-50.1861

>  <SCORE.INTRA.VDW>
0.89624

>  <SCORE.INTRA.VDW.0>
-1.36671

>  <SCORE.INTRA.norm>
-0.124037

>  <SCORE.RESTR>
0

>  <SCORE.RESTR.CAVITY>
0

>  <SCORE.RESTR.norm>
0

>  <SCORE.SYSTEM>
0

>  <SCORE.SYSTEM.CONST>
0

>  <SCORE.SYSTEM.DIHEDRAL>
0

>  <SCORE.SYSTEM.SOLV>
0

>  <SCORE.SYSTEM.norm>
0

>  <SCORE.heavy>
14

>  <SCORE.norm>
-0.236052

>  <RMSD>
5.971

$$$$
ligand
 OpenBabel11021811393D
libRbt.so/2013.1/901 2013/11/27
 14 13  0  0  0  0  0  0  0  0999 V2000
    0.3063    0.5675   11.2370 N   0  0  0  0  0  0  0  0  0  0  0  0
    0.2655   -0.7128   10.4021 C   0  0  0  0  0  0  0  0  0  0  0  0
    1.1634   -1.6696   11.0985 C   0  0  0  0  0  0  0  0  0  0  0  0
    1.2468   -3.0426   10.4515 C   0  0  0  0  0  0  0  0  0  0  0  0
    2.0796   -3.9398   11.2963 N   0  0  0  0  0  0  0  0  0  0  0  0
    3.5502   -3.8383   10.8528 C   0  0  0  0  0  0  0  0  0  0  0  0
    3.5976   -4.8579    9.6158 C   0  0  0  0  0  0  0  0  0  0  0  0
    4.8422   -5.0243    9.2390 C   0  0  0  0  0  0  0  0  0  0  0  0
    4.5300   -6.0258    7.9816 C   0  0  0  0  0  0  0  0  0  0  0  0
    6.0042   -6.4493    7.6676 N   0  0  0  0  0  0  0  0  0  0  0  0
    6.7162   -5.5180    6.6070 C   0  0  0  0  0  0  0  0  0  0  0  0
    8.0353   -6.3386    6.1023 C   0  0  0  0  0  0  0  0  0  0  0  0
    8.6743   -5.4065    5.1144 C   0  0  0  0  0  0  0  0  0  0  0  0
    9.9102   -6.1268    4.6289 N   0  0  0  0  0  0  0  0  0  0  0  0
  1  2  1  0  0  0  0
  2  3  1  0  0  0  0
  3  4  1  0  0  0  0
  4  5  1  0  0  0  0
  5  6  1  0  0  0  0
  6  7  1  0  0  0  0
  7  8  1  0  0  0  0
  8  9  1  0  0  0  0
  9 10  1  0  0  0  0
 10 11  1  0  0  0  0
 11 12  1  0  0  0  0
 12 13  1  0  0  0  0
 13 14  1  0  0  0  0
M  END
>  <CHROM.1>
178.48259023,-175.30569703,-90.31221141,-83.33065417,-171.30880450,-177.91599067
-170.37153486,-90.83009243,-164.26575561,-179.44782323,179.58184746,4.35146569
-4.17027042,8.73535106,-2.89980159,-0.72863638,2.78237369

>  <Name>
ligand

>  <RI>
0

>  <Rbt.Current_Directory>
/home/itssahil/PROJECTS/Mol_Feturizer/New_Systems/rnas/1FUF

>  <Rbt.Executable>
rbdock ($Id: //depot/dev/client3/rdock/2013.1/src/exe/rbdock.cxx#4 $)

>  <Rbt.Library>
libRbt.so (2013.1, Build901 2013/11/27)

>  <Rbt.Parameter_File>
/export/apps/rDock/src/rDock_2013.1_src/data/scripts/dock_solv.prm

>  <Rbt.Receptor>
prm/pocket_docking_8.prm

>  <SCORE>
-2.87246

>  <SCORE.INTER>
0.26537

>  <SCORE.INTER.CONST>
1

>  <SCORE.INTER.POLAR>
0

>  <SCORE.INTER.ROT>
11

>  <SCORE.INTER.SOLV>
16.0219

>  <SCORE.INTER.VDW>
-16.0971

>  <SCORE.INTER.norm>
0.018955

>  <SCORE.INTRA>
-3.13783

>  <SCORE.INTRA.DIHEDRAL>
-8.01759

>  <SCORE.INTRA.DIHEDRAL.0>
10.5765

>  <SCORE.INTRA.POLAR>
0

>  <SCORE.INTRA.POLAR.0>
0

>  <SCORE.INTRA.REPUL>
0

>  <SCORE.INTRA.REPUL.0>
0

>  <SCORE.INTRA.SOLV>
-0.140583

>  <SCORE.INTRA.SOLV.lig_0>
-50.1861

>  <SCORE.INTRA.VDW>
0.941256

>  <SCORE.INTRA.VDW.0>
-1.36671

>  <SCORE.INTRA.norm>
-0.224131

>  <SCORE.RESTR>
0

>  <SCORE.RESTR.CAVITY>
0

>  <SCORE.RESTR.norm>
0

>  <SCORE.SYSTEM>
0

>  <SCORE.SYSTEM.CONST>
0

>  <SCORE.SYSTEM.DIHEDRAL>
0

>  <SCORE.SYSTEM.SOLV>
0

>  <SCORE.SYSTEM.norm>
0

>  <SCORE.heavy>
14

>  <SCORE.norm>
-0.205176

>  <RMSD>
5.986

$$$$
ligand
 OpenBabel11021811393D
libRbt.so/2013.1/901 2013/11/27
 14 13  0  0  0  0  0  0  0  0999 V2000
   -0.8111    0.0171   10.8278 N   0  0  0  0  0  0  0  0  0  0  0  0
    0.1744   -0.7728   11.6897 C   0  0  0  0  0  0  0  0  0  0  0  0
    1.1232   -1.4000   10.7342 C   0  0  0  0  0  0  0  0  0  0  0  0
    2.2211   -2.2258   11.3848 C   0  0  0  0  0  0  0  0  0  0  0  0
    3.0860   -2.8202   10.3308 N   0  0  0  0  0  0  0  0  0  0  0  0
    3.9678   -3.9178   10.9534 C   0  0  0  0  0  0  0  0  0  0  0  0
    4.5671   -4.6423    9.6542 C   0  0  0  0  0  0  0  0  0  0  0  0
    3.5952   -5.2278    8.9976 C   0  0  0  0  0  0  0  0  0  0  0  0
    4.5148   -5.8150    7.7764 C   0  0  0  0  0  0  0  0  0  0  0  0
    4.9588   -7.1518    8.4597 N   0  0  0  0  0  0  0  0  0  0  0  0
    6.5108   -7.4319    8.3496 C   0  0  0  0  0  0  0  0  0  0  0  0
    6.6631   -9.0460    8.1515 C   0  0  0  0  0  0  0  0  0  0  0  0
    6.0925   -9.6128    9.4189 C   0  0  0  0  0  0  0  0  0  0  0  0
    6.3601  -11.0977    9.3472 N   0  0  0  0  0  0  0  0  0  0  0  0
  1  2  1  0  0  0  0
  2  3  1  0  0  0  0
  3  4  1  0  0  0  0
  4  5  1  0  0  0  0
  5  6  1  0  0  0  0
  6  7  1  0  0  0  0
  7  8  1  0  0  0  0
  8  9  1  0  0  0  0
  9 10  1  0  0  0  0
 10 11  1  0  0  0  0
 11 12  1  0  0  0  0
 12 13  1  0  0  0  0
 13 14  1  0  0  0  0
M  END
>  <CHROM.1>
178.96606129,178.90692843,-166.15090737,168.06303508,-65.85326835,179.04564001
86.27309070,-132.29114575,-143.38129786,-62.61264553,-173.60899802,3.78756861
-5.08169535,9.71968359,-2.75375670,-0.94122682,2.32428785

>  <Name>
ligand

>  <RI>
0

>  <Rbt.Current_Directory>
/home/itssahil/PROJECTS/Mol_Feturizer/New_Systems/rnas/1FUF

>  <Rbt.Executable>
rbdock ($Id: //depot/dev/client3/rdock/2013.1/src/exe/rbdock.cxx#4 $)

>  <Rbt.Library>
libRbt.so (2013.1, Build901 2013/11/27)

>  <Rbt.Parameter_File>
/export/apps/rDock/src/rDock_2013.1_src/data/scripts/dock_solv.prm

>  <Rbt.Receptor>
prm/pocket_docking_7.prm

>  <SCORE>
-1.21215

>  <SCORE.INTER>
-0.139033

>  <SCORE.INTER.CONST>
1

>  <SCORE.INTER.POLAR>
0

>  <SCORE.INTER.ROT>
11

>  <SCORE.INTER.SOLV>
14.5563

>  <SCORE.INTER.VDW>
-15.8781

>  <SCORE.INTER.norm>
-0.00993096

>  <SCORE.INTRA>
-1.07311

>  <SCORE.INTRA.DIHEDRAL>
-5.88362

>  <SCORE.INTRA.DIHEDRAL.0>
10.5765

>  <SCORE.INTRA.POLAR>
0

>  <SCORE.INTRA.POLAR.0>
0

>  <SCORE.INTRA.REPUL>
0

>  <SCORE.INTRA.REPUL.0>
0

>  <SCORE.INTRA.SOLV>
1.2906

>  <SCORE.INTRA.SOLV.lig_0>
-50.1861

>  <SCORE.INTRA.VDW>
1.22339

>  <SCORE.INTRA.VDW.0>
-1.36671

>  <SCORE.INTRA.norm>
-0.076651

>  <SCORE.RESTR>
0

>  <SCORE.RESTR.CAVITY>
0

>  <SCORE.RESTR.norm>
0

>  <SCORE.SYSTEM>
0

>  <SCORE.SYSTEM.CONST>
0

>  <SCORE.SYSTEM.DIHEDRAL>
0

>  <SCORE.SYSTEM.SOLV>
0

>  <SCORE.SYSTEM.norm>
0

>  <SCORE.heavy>
14

>  <SCORE.norm>
-0.086582

>  <RMSD>
6.035

$$$$
ligand
 OpenBabel11021811393D
libRbt.so/2013.1/901 2013/11/27
 14 13  0  0  0  0  0  0  0  0999 V2000
   -0.7191    0.0018   10.2289 N   0  0  0  0  0  0  0  0  0  0  0  0
    0.7447   -0.4131   10.0768 C   0  0  0  0  0  0  0  0  0  0  0  0
    0.9144   -1.5989   10.9553 C   0  0  0  0  0  0  0  0  0  0  0  0
    2.3321   -2.1444   11.0127 C   0  0  0  0  0  0  0  0  0  0  0  0
    2.3570   -3.3752   11.8475 N   0  0  0  0  0  0  0  0  0  0  0  0
    1.9617   -4.5861   10.9830 C   0  0  0  0  0  0  0  0  0  0  0  0
    3.3805   -5.2853   10.7181 C   0  0  0  0  0  0  0  0  0  0  0  0
    3.2148   -6.3133    9.9217 C   0  0  0  0  0  0  0  0  0  0  0  0
    4.7999   -6.6949    9.7681 C   0  0  0  0  0  0  0  0  0  0  0  0
    4.6603   -7.7547    8.6242 N   0  0  0  0  0  0  0  0  0  0  0  0
    5.5671   -9.0326    8.8335 C   0  0  0  0  0  0  0  0  0  0  0  0
    7.0818   -8.5809    8.4220 C   0  0  0  0  0  0  0  0  0  0  0  0
    7.8847   -9.8371    8.5967 C   0  0  0  0  0  0  0  0  0  0  0  0
    7.5014  -10.7200    7.4325 N   0  0  0  0  0  0  0  0  0  0  0  0
  1  2  1  0  0  0  0
  2  3  1  0  0  0  0
  3  4  1  0  0  0  0
  4  5  1  0  0  0  0
  5  6  1  0  0  0  0
  6  7  1  0  0  0  0
  7  8  1  0  0  0  0
  8  9  1  0  0  0  0
  9 10  1  0  0  0  0
 10 11  1  0  0  0  0
 11 12  1  0  0  0  0
 12 13  1  0  0  0  0
 13 14  1  0  0  0  0
M  END
>  <CHROM.1>
-177.11287899,-176.32008033,84.25492013,103.39452036,-176.68425060,175.65141127
-170.39845565,-138.06092361,-77.17724069,-178.24079969,73.59300520,3.69161565
-5.45247457,9.81590953,3.10723841,-0.95136716,1.81412358

>  <Name>
ligand

>  <RI>
0

>  <Rbt.Current_Directory>
/home/itssahil/PROJECTS/Mol_Feturizer/New_Systems/rnas/1FUF

>  <Rbt.Executable>
rbdock ($Id: //depot/dev/client3/rdock/2013.1/src/exe/rbdock.cxx#4 $)

>  <Rbt.Library>
libRbt.so (2013.1, Build901 2013/11/27)

>  <Rbt.Parameter_File>
/export/apps/rDock/src/rDock_2013.1_src/data/scripts/dock_solv.prm

>  <Rbt.Receptor>
prm/pocket_docking_7.prm

>  <SCORE>
-2.63889

>  <SCORE.INTER>
-0.527264

>  <SCORE.INTER.CONST>
1

>  <SCORE.INTER.POLAR>
0

>  <SCORE.INTER.ROT>
11

>  <SCORE.INTER.SOLV>
14.7084

>  <SCORE.INTER.VDW>
-16.1877

>  <SCORE.INTER.norm>
-0.0376617

>  <SCORE.INTRA>
-2.11163

>  <SCORE.INTRA.DIHEDRAL>
-6.76298

>  <SCORE.INTRA.DIHEDRAL.0>
10.5765

>  <SCORE.INTRA.POLAR>
0

>  <SCORE.INTRA.POLAR.0>
0

>  <SCORE.INTRA.REPUL>
0

>  <SCORE.INTRA.REPUL.0>
0

>  <SCORE.INTRA.SOLV>
0.768759

>  <SCORE.INTRA.SOLV.lig_0>
-50.1861

>  <SCORE.INTRA.VDW>
0.885481

>  <SCORE.INTRA.VDW.0>
-1.36671

>  <SCORE.INTRA.norm>
-0.150831

>  <SCORE.RESTR>
0

>  <SCORE.RESTR.CAVITY>
0

>  <SCORE.RESTR.norm>
0

>  <SCORE.SYSTEM>
0

>  <SCORE.SYSTEM.CONST>
0

>  <SCORE.SYSTEM.DIHEDRAL>
0

>  <SCORE.SYSTEM.SOLV>
0

>  <SCORE.SYSTEM.norm>
0

>  <SCORE.heavy>
14

>  <SCORE.norm>
-0.188492

>  <RMSD>
6.042

$$$$
ligand
 OpenBabel11021811393D
libRbt.so/2013.1/901 2013/11/27
 14 13  0  0  0  0  0  0  0  0999 V2000
   -0.1740   -1.1342   11.0984 N   0  0  0  0  0  0  0  0  0  0  0  0
    1.1107   -1.0082   10.2788 C   0  0  0  0  0  0  0  0  0  0  0  0
    2.0551   -1.9921   10.8674 C   0  0  0  0  0  0  0  0  0  0  0  0
    1.6299   -3.4437   10.7168 C   0  0  0  0  0  0  0  0  0  0  0  0
    2.6545   -4.3278   11.3339 N   0  0  0  0  0  0  0  0  0  0  0  0
    2.1116   -5.7666   11.4038 C   0  0  0  0  0  0  0  0  0  0  0  0
    2.5886   -6.3727    9.9977 C   0  0  0  0  0  0  0  0  0  0  0  0
    3.8987   -6.3877    9.9545 C   0  0  0  0  0  0  0  0  0  0  0  0
    4.0341   -6.9250    8.4135 C   0  0  0  0  0  0  0  0  0  0  0  0
    5.5771   -6.7203    8.2448 N   0  0  0  0  0  0  0  0  0  0  0  0
    5.9792   -5.2405    7.8604 C   0  0  0  0  0  0  0  0  0  0  0  0
    6.5693   -5.3161    6.3392 C   0  0  0  0  0  0  0  0  0  0  0  0
    7.8577   -6.0699    6.4973 C   0  0  0  0  0  0  0  0  0  0  0  0
    8.4955   -6.0603    5.1280 N   0  0  0  0  0  0  0  0  0  0  0  0
  1  2  1  0  0  0  0
  2  3  1  0  0  0  0
  3  4  1  0  0  0  0
  4  5  1  0  0  0  0
  5  6  1  0  0  0  0
  6  7  1  0  0  0  0
  7  8  1  0  0  0  0
  8  9  1  0  0  0  0
  9 10  1  0  0  0  0
 10 11  1  0  0  0  0
 11 12  1  0  0  0  0
 12 13  1  0  0  0  0
 13 14  1  0  0  0  0
M  END
>  <CHROM.1>
64.91654234,179.62844405,170.07506419,89.79309307,63.47556268,-175.85348385
170.76861141,-82.84369328,-112.72420497,-68.52717891,-175.32426627,3.88476005
-4.76902592,9.15254864,-2.86184496,-0.72079414,2.86881216

>  <Name>
ligand

>  <RI>
0

>  <Rbt.Current_Directory>
/home/itssahil/PROJECTS/Mol_Feturizer/New_Systems/rnas/1FUF

>  <Rbt.Executable>
rbdock ($Id: //depot/dev/client3/rdock/2013.1/src/exe/rbdock.cxx#4 $)

>  <Rbt.Library>
libRbt.so (2013.1, Build901 2013/11/27)

>  <Rbt.Parameter_File>
/export/apps/rDock/src/rDock_2013.1_src/data/scripts/dock_solv.prm

>  <Rbt.Receptor>
prm/pocket_docking_7.prm

>  <SCORE>
-4.17392

>  <SCORE.INTER>
-2.81796

>  <SCORE.INTER.CONST>
1

>  <SCORE.INTER.POLAR>
0

>  <SCORE.INTER.ROT>
11

>  <SCORE.INTER.SOLV>
15.5693

>  <SCORE.INTER.VDW>
-18.0018

>  <SCORE.INTER.norm>
-0.201283

>  <SCORE.INTRA>
-1.35595

>  <SCORE.INTRA.DIHEDRAL>
-7.48845

>  <SCORE.INTRA.DIHEDRAL.0>
10.5765

>  <SCORE.INTRA.POLAR>
0

>  <SCORE.INTRA.POLAR.0>
0

>  <SCORE.INTRA.REPUL>
0

>  <SCORE.INTRA.REPUL.0>
0

>  <SCORE.INTRA.SOLV>
1.69177

>  <SCORE.INTRA.SOLV.lig_0>
-50.1861

>  <SCORE.INTRA.VDW>
1.54238

>  <SCORE.INTRA.VDW.0>
-1.36671

>  <SCORE.INTRA.norm>
-0.0968539

>  <SCORE.RESTR>
0

>  <SCORE.RESTR.CAVITY>
0

>  <SCORE.RESTR.norm>
0

>  <SCORE.SYSTEM>
0

>  <SCORE.SYSTEM.CONST>
0

>  <SCORE.SYSTEM.DIHEDRAL>
0

>  <SCORE.SYSTEM.SOLV>
0

>  <SCORE.SYSTEM.norm>
0

>  <SCORE.heavy>
14

>  <SCORE.norm>
-0.298137

>  <RMSD>
6.044

$$$$
ligand
 OpenBabel11021811393D
libRbt.so/2013.1/901 2013/11/27
 14 13  0  0  0  0  0  0  0  0999 V2000
    9.4420   -6.7341    4.7513 N   0  0  0  0  0  0  0  0  0  0  0  0
    8.5502   -5.6052    5.2695 C   0  0  0  0  0  0  0  0  0  0  0  0
    7.6477   -6.2377    6.2655 C   0  0  0  0  0  0  0  0  0  0  0  0
    6.6421   -5.2895    6.8982 C   0  0  0  0  0  0  0  0  0  0  0  0
    5.8222   -6.0283    7.8953 N   0  0  0  0  0  0  0  0  0  0  0  0
    5.2793   -5.0394    8.9427 C   0  0  0  0  0  0  0  0  0  0  0  0
    4.5260   -6.0170    9.9668 C   0  0  0  0  0  0  0  0  0  0  0  0
    4.1094   -5.3250   10.9994 C   0  0  0  0  0  0  0  0  0  0  0  0
    2.6646   -4.8856   10.3660 C   0  0  0  0  0  0  0  0  0  0  0  0
    2.1928   -3.9472   11.5271 N   0  0  0  0  0  0  0  0  0  0  0  0
    2.7869   -2.4850   11.4379 C   0  0  0  0  0  0  0  0  0  0  0  0
    1.8224   -1.6706   10.4013 C   0  0  0  0  0  0  0  0  0  0  0  0
    0.5462   -1.4936   11.1714 C   0  0  0  0  0  0  0  0  0  0  0  0
   -0.3715   -0.7245   10.2503 N   0  0  0  0  0  0  0  0  0  0  0  0
  1  2  1  0  0  0  0
  2  3  1  0  0  0  0
  3  4  1  0  0  0  0
  4  5  1  0  0  0  0
  5  6  1  0  0  0  0
  6  7  1  0  0  0  0
  7  8  1  0  0  0  0
  8  9  1  0  0  0  0
  9 10  1  0  0  0  0
 10 11  1  0  0  0  0
 11 12  1  0  0  0  0
 12 13  1  0  0  0  0
 13 14  1  0  0  0  0
M  END
>  <CHROM.1>
-178.86380616,-178.66421277,155.08547509,-176.18301964,174.09019020,87.86653278
-175.17012775,82.56910092,83.24433303,71.01006852,179.26300980,4.40436579
-4.39163048,9.01036302,0.08789630,0.75046511,-0.79712054

>  <Name>
ligand

>  <RI>
0

>  <Rbt.Current_Directory>
/home/itssahil/PROJECTS/Mol_Feturizer/New_Systems/rnas/1FUF

>  <Rbt.Executable>
rbdock ($Id: //depot/dev/client3/rdock/2013.1/src/exe/rbdock.cxx#4 $)

>  <Rbt.Library>
libRbt.so (2013.1, Build901 2013/11/27)

>  <Rbt.Parameter_File>
/export/apps/rDock/src/rDock_2013.1_src/data/scripts/dock_solv.prm

>  <Rbt.Receptor>
prm/pocket_docking_7.prm

>  <SCORE>
-1.71511

>  <SCORE.INTER>
-0.598019

>  <SCORE.INTER.CONST>
1

>  <SCORE.INTER.POLAR>
0

>  <SCORE.INTER.ROT>
11

>  <SCORE.INTER.SOLV>
14.3729

>  <SCORE.INTER.VDW>
-16.123

>  <SCORE.INTER.norm>
-0.0427157

>  <SCORE.INTRA>
-1.11709

>  <SCORE.INTRA.DIHEDRAL>
-5.96035

>  <SCORE.INTRA.DIHEDRAL.0>
10.5765

>  <SCORE.INTRA.POLAR>
0

>  <SCORE.INTRA.POLAR.0>
0

>  <SCORE.INTRA.REPUL>
0

>  <SCORE.INTRA.REPUL.0>
0

>  <SCORE.INTRA.SOLV>
0.683223

>  <SCORE.INTRA.SOLV.lig_0>
-50.1861

>  <SCORE.INTRA.VDW>
1.52147

>  <SCORE.INTRA.VDW.0>
-1.36671

>  <SCORE.INTRA.norm>
-0.0797922

>  <SCORE.RESTR>
0

>  <SCORE.RESTR.CAVITY>
0

>  <SCORE.RESTR.norm>
0

>  <SCORE.SYSTEM>
0

>  <SCORE.SYSTEM.CONST>
0

>  <SCORE.SYSTEM.DIHEDRAL>
0

>  <SCORE.SYSTEM.SOLV>
0

>  <SCORE.SYSTEM.norm>
0

>  <SCORE.heavy>
14

>  <SCORE.norm>
-0.122508

>  <RMSD>
6.086

$$$$
ligand
 OpenBabel11021811393D
libRbt.so/2013.1/901 2013/11/27
 14 13  0  0  0  0  0  0  0  0999 V2000
   -0.1062   -0.4368   10.3332 N   0  0  0  0  0  0  0  0  0  0  0  0
    0.5771   -1.5250   11.1621 C   0  0  0  0  0  0  0  0  0  0  0  0
    1.8484   -1.8237   10.4540 C   0  0  0  0  0  0  0  0  0  0  0  0
    2.6765   -2.9320   11.0837 C   0  0  0  0  0  0  0  0  0  0  0  0
    1.9545   -4.2259   10.9546 N   0  0  0  0  0  0  0  0  0  0  0  0
    2.9442   -5.3858   11.1666 C   0  0  0  0  0  0  0  0  0  0  0  0
    3.2996   -5.8020    9.6592 C   0  0  0  0  0  0  0  0  0  0  0  0
    4.2961   -6.6538    9.6685 C   0  0  0  0  0  0  0  0  0  0  0  0
    4.4002   -6.8454    8.0455 C   0  0  0  0  0  0  0  0  0  0  0  0
    5.1334   -5.5025    7.7130 N   0  0  0  0  0  0  0  0  0  0  0  0
    6.6882   -5.6724    7.4828 C   0  0  0  0  0  0  0  0  0  0  0  0
    6.9218   -5.5323    5.8723 C   0  0  0  0  0  0  0  0  0  0  0  0
    8.4076   -5.6794    5.7169 C   0  0  0  0  0  0  0  0  0  0  0  0
    8.7042   -7.1187    6.0667 N   0  0  0  0  0  0  0  0  0  0  0  0
  1  2  1  0  0  0  0
  2  3  1  0  0  0  0
  3  4  1  0  0  0  0
  4  5  1  0  0  0  0
  5  6  1  0  0  0  0
  6  7  1  0  0  0  0
  7  8  1  0  0  0  0
  8  9  1  0  0  0  0
  9 10  1  0  0  0  0
 10 11  1  0  0  0  0
 11 12  1  0  0  0  0
 12 13  1  0  0  0  0
 13 14  1  0  0  0  0
M  END
>  <CHROM.1>
-177.76085262,66.80154216,162.04099063,-98.14247615,170.45875818,-179.51224523
77.11436123,100.38129685,105.80965963,179.14302448,68.47330977,4.12476092
-4.65267686,8.95572158,-2.89486290,-0.73446833,2.74763547

>  <Name>
ligand

>  <RI>
0

>  <Rbt.Current_Directory>
/home/itssahil/PROJECTS/Mol_Feturizer/New_Systems/rnas/1FUF

>  <Rbt.Executable>
rbdock ($Id: //depot/dev/client3/rdock/2013.1/src/exe/rbdock.cxx#4 $)

>  <Rbt.Library>
libRbt.so (2013.1, Build901 2013/11/27)

>  <Rbt.Parameter_File>
/export/apps/rDock/src/rDock_2013.1_src/data/scripts/dock_solv.prm

>  <Rbt.Receptor>
prm/pocket_docking_6.prm

>  <SCORE>
-2.72298

>  <SCORE.INTER>
-2.42279

>  <SCORE.INTER.CONST>
1

>  <SCORE.INTER.POLAR>
0

>  <SCORE.INTER.ROT>
11

>  <SCORE.INTER.SOLV>
13.626

>  <SCORE.INTER.VDW>
-17.0905

>  <SCORE.INTER.norm>
-0.173056

>  <SCORE.INTRA>
-0.300192

>  <SCORE.INTRA.DIHEDRAL>
-5.69351

>  <SCORE.INTRA.DIHEDRAL.0>
10.5765

>  <SCORE.INTRA.POLAR>
0

>  <SCORE.INTRA.POLAR.0>
0

>  <SCORE.INTRA.REPUL>
0

>  <SCORE.INTRA.REPUL.0>
0

>  <SCORE.INTRA.SOLV>
1.74273

>  <SCORE.INTRA.SOLV.lig_0>
-50.1861

>  <SCORE.INTRA.VDW>
1.6752

>  <SCORE.INTRA.VDW.0>
-1.36671

>  <SCORE.INTRA.norm>
-0.0214423

>  <SCORE.RESTR>
0

>  <SCORE.RESTR.CAVITY>
0

>  <SCORE.RESTR.norm>
0

>  <SCORE.SYSTEM>
0

>  <SCORE.SYSTEM.CONST>
0

>  <SCORE.SYSTEM.DIHEDRAL>
0

>  <SCORE.SYSTEM.SOLV>
0

>  <SCORE.SYSTEM.norm>
0

>  <SCORE.heavy>
14

>  <SCORE.norm>
-0.194499

>  <RMSD>
6.104

$$$$
ligand
 OpenBabel11021811393D
libRbt.so/2013.1/901 2013/11/27
 14 13  0  0  0  0  0  0  0  0999 V2000
    9.4085   -9.0304    6.9844 N   0  0  0  0  0  0  0  0  0  0  0  0
    8.0080   -8.4349    7.1330 C   0  0  0  0  0  0  0  0  0  0  0  0
    7.2483   -9.4083    7.9588 C   0  0  0  0  0  0  0  0  0  0  0  0
    5.7944   -9.0347    8.1976 C   0  0  0  0  0  0  0  0  0  0  0  0
    5.7279   -7.7455    8.9364 N   0  0  0  0  0  0  0  0  0  0  0  0
    4.3222   -7.1384    8.7777 C   0  0  0  0  0  0  0  0  0  0  0  0
    4.3531   -5.9402    9.8433 C   0  0  0  0  0  0  0  0  0  0  0  0
    3.2039   -5.3098    9.8198 C   0  0  0  0  0  0  0  0  0  0  0  0
    3.6254   -4.1037   10.8442 C   0  0  0  0  0  0  0  0  0  0  0  0
    2.3320   -3.2330   10.7015 N   0  0  0  0  0  0  0  0  0  0  0  0
    2.2412   -2.0598   11.7571 C   0  0  0  0  0  0  0  0  0  0  0  0
    0.7770   -1.3701   11.5375 C   0  0  0  0  0  0  0  0  0  0  0  0
    0.8885   -0.7276   10.1855 C   0  0  0  0  0  0  0  0  0  0  0  0
   -0.4138    0.0117    9.9870 N   0  0  0  0  0  0  0  0  0  0  0  0
  1  2  1  0  0  0  0
  2  3  1  0  0  0  0
  3  4  1  0  0  0  0
  4  5  1  0  0  0  0
  5  6  1  0  0  0  0
  6  7  1  0  0  0  0
  7  8  1  0  0  0  0
  8  9  1  0  0  0  0
  9 10  1  0  0  0  0
 10 11  1  0  0  0  0
 11 12  1  0  0  0  0
 12 13  1  0  0  0  0
 13 14  1  0  0  0  0
M  END
>  <CHROM.1>
-178.06791046,-61.61651464,161.53020990,169.61799235,179.63544025,-173.94399809
173.38973100,169.87407254,-174.77589443,-67.82054908,-175.88678783,4.10825684
-5.25186905,9.47611471,-0.61365888,0.70626711,-0.35584830

>  <Name>
ligand

>  <RI>
0

>  <Rbt.Current_Directory>
/home/itssahil/PROJECTS/Mol_Feturizer/New_Systems/rnas/1FUF

>  <Rbt.Executable>
rbdock ($Id: //depot/dev/client3/rdock/2013.1/src/exe/rbdock.cxx#4 $)

>  <Rbt.Library>
libRbt.so (2013.1, Build901 2013/11/27)

>  <Rbt.Parameter_File>
/export/apps/rDock/src/rDock_2013.1_src/data/scripts/dock_solv.prm

>  <Rbt.Receptor>
prm/pocket_docking_6.prm

>  <SCORE>
-3.76102

>  <SCORE.INTER>
0.388253

>  <SCORE.INTER.CONST>
1

>  <SCORE.INTER.POLAR>
0

>  <SCORE.INTER.ROT>
11

>  <SCORE.INTER.SOLV>
12.6441

>  <SCORE.INTER.VDW>
-14.8892

>  <SCORE.INTER.norm>
0.0277323

>  <SCORE.INTRA>
-4.14927

>  <SCORE.INTRA.DIHEDRAL>
-9.49327

>  <SCORE.INTRA.DIHEDRAL.0>
10.5765

>  <SCORE.INTRA.POLAR>
0

>  <SCORE.INTRA.POLAR.0>
0

>  <SCORE.INTRA.REPUL>
0

>  <SCORE.INTRA.REPUL.0>
0

>  <SCORE.INTRA.SOLV>
0.698886

>  <SCORE.INTRA.SOLV.lig_0>
-50.1861

>  <SCORE.INTRA.VDW>
0.247918

>  <SCORE.INTRA.VDW.0>
-1.36671

>  <SCORE.INTRA.norm>
-0.296377

>  <SCORE.RESTR>
0

>  <SCORE.RESTR.CAVITY>
0

>  <SCORE.RESTR.norm>
0

>  <SCORE.SYSTEM>
0

>  <SCORE.SYSTEM.CONST>
0

>  <SCORE.SYSTEM.DIHEDRAL>
0

>  <SCORE.SYSTEM.SOLV>
0

>  <SCORE.SYSTEM.norm>
0

>  <SCORE.heavy>
14

>  <SCORE.norm>
-0.268644

>  <RMSD>
6.155

$$$$
ligand
 OpenBabel11021811393D
libRbt.so/2013.1/901 2013/11/27
 14 13  0  0  0  0  0  0  0  0999 V2000
    9.3081   -8.9406    7.4756 N   0  0  0  0  0  0  0  0  0  0  0  0
    8.1752   -8.5144    8.4099 C   0  0  0  0  0  0  0  0  0  0  0  0
    6.9484   -9.1465    7.8602 C   0  0  0  0  0  0  0  0  0  0  0  0
    5.6746   -8.8217    8.6235 C   0  0  0  0  0  0  0  0  0  0  0  0
    5.3662   -7.3736    8.4816 N   0  0  0  0  0  0  0  0  0  0  0  0
    3.8406   -7.1710    8.5163 C   0  0  0  0  0  0  0  0  0  0  0  0
    3.6481   -6.3089    9.8548 C   0  0  0  0  0  0  0  0  0  0  0  0
    2.3854   -6.3313   10.2066 C   0  0  0  0  0  0  0  0  0  0  0  0
    2.4841   -5.1643   11.3511 C   0  0  0  0  0  0  0  0  0  0  0  0
    2.2547   -3.9256   10.4213 N   0  0  0  0  0  0  0  0  0  0  0  0
    2.6385   -2.5492   11.0974 C   0  0  0  0  0  0  0  0  0  0  0  0
    1.7366   -1.4130   10.3468 C   0  0  0  0  0  0  0  0  0  0  0  0
    0.3544   -1.6483   10.8830 C   0  0  0  0  0  0  0  0  0  0  0  0
   -0.5034   -0.5729   10.2589 N   0  0  0  0  0  0  0  0  0  0  0  0
  1  2  1  0  0  0  0
  2  3  1  0  0  0  0
  3  4  1  0  0  0  0
  4  5  1  0  0  0  0
  5  6  1  0  0  0  0
  6  7  1  0  0  0  0
  7  8  1  0  0  0  0
  8  9  1  0  0  0  0
  9 10  1  0  0  0  0
 10 11  1  0  0  0  0
 11 12  1  0  0  0  0
 12 13  1  0  0  0  0
 13 14  1  0  0  0  0
M  END
>  <CHROM.1>
-178.43562999,66.16644929,148.62056044,115.66080015,-164.47646585,-169.11084464
87.18707675,-165.32304694,-154.30562282,73.07229413,177.48985773,3.87929543
-5.56309803,9.55638052,-0.79681744,0.32993956,0.05773131

>  <Name>
ligand

>  <RI>
0

>  <Rbt.Current_Directory>
/home/itssahil/PROJECTS/Mol_Feturizer/New_Systems/rnas/1FUF

>  <Rbt.Executable>
rbdock ($Id: //depot/dev/client3/rdock/2013.1/src/exe/rbdock.cxx#4 $)

>  <Rbt.Library>
libRbt.so (2013.1, Build901 2013/11/27)

>  <Rbt.Parameter_File>
/export/apps/rDock/src/rDock_2013.1_src/data/scripts/dock_solv.prm

>  <Rbt.Receptor>
prm/pocket_docking_7.prm

>  <SCORE>
-1.79807

>  <SCORE.INTER>
-1.08994

>  <SCORE.INTER.CONST>
1

>  <SCORE.INTER.POLAR>
0

>  <SCORE.INTER.ROT>
11

>  <SCORE.INTER.SOLV>
12.5188

>  <SCORE.INTER.VDW>
-15.8329

>  <SCORE.INTER.norm>
-0.0778529

>  <SCORE.INTRA>
-0.708132

>  <SCORE.INTRA.DIHEDRAL>
-3.61514

>  <SCORE.INTRA.DIHEDRAL.0>
10.5765

>  <SCORE.INTRA.POLAR>
0

>  <SCORE.INTRA.POLAR.0>
0

>  <SCORE.INTRA.REPUL>
0

>  <SCORE.INTRA.REPUL.0>
0

>  <SCORE.INTRA.SOLV>
1.10127

>  <SCORE.INTRA.SOLV.lig_0>
-50.1861

>  <SCORE.INTRA.VDW>
0.548803

>  <SCORE.INTRA.VDW.0>
-1.36671

>  <SCORE.INTRA.norm>
-0.0505808

>  <SCORE.RESTR>
0

>  <SCORE.RESTR.CAVITY>
0

>  <SCORE.RESTR.norm>
0

>  <SCORE.SYSTEM>
0

>  <SCORE.SYSTEM.CONST>
0

>  <SCORE.SYSTEM.DIHEDRAL>
0

>  <SCORE.SYSTEM.SOLV>
0

>  <SCORE.SYSTEM.norm>
0

>  <SCORE.heavy>
14

>  <SCORE.norm>
-0.128434

>  <RMSD>
6.207

$$$$
ligand
 OpenBabel11021811393D
libRbt.so/2013.1/901 2013/11/27
 14 13  0  0  0  0  0  0  0  0999 V2000
    7.3313  -10.8407    7.1216 N   0  0  0  0  0  0  0  0  0  0  0  0
    6.6365  -11.0380    8.4693 C   0  0  0  0  0  0  0  0  0  0  0  0
    6.4112   -9.6704    9.0037 C   0  0  0  0  0  0  0  0  0  0  0  0
    5.3686   -8.8615    8.2491 C   0  0  0  0  0  0  0  0  0  0  0  0
    5.2404   -7.5155    8.8688 N   0  0  0  0  0  0  0  0  0  0  0  0
    3.9078   -6.8788    8.4347 C   0  0  0  0  0  0  0  0  0  0  0  0
    3.9199   -5.4938    9.2433 C   0  0  0  0  0  0  0  0  0  0  0  0
    3.8163   -5.7405   10.5266 C   0  0  0  0  0  0  0  0  0  0  0  0
    3.9364   -4.1872   11.0312 C   0  0  0  0  0  0  0  0  0  0  0  0
    2.4451   -3.7675   10.8053 N   0  0  0  0  0  0  0  0  0  0  0  0
    2.2648   -2.2326   10.4726 C   0  0  0  0  0  0  0  0  0  0  0  0
    0.6896   -1.8962   10.7434 C   0  0  0  0  0  0  0  0  0  0  0  0
    0.5814   -0.4330   10.4263 C   0  0  0  0  0  0  0  0  0  0  0  0
   -0.8357   -0.0515   10.7842 N   0  0  0  0  0  0  0  0  0  0  0  0
  1  2  1  0  0  0  0
  2  3  1  0  0  0  0
  3  4  1  0  0  0  0
  4  5  1  0  0  0  0
  5  6  1  0  0  0  0
  6  7  1  0  0  0  0
  7  8  1  0  0  0  0
  8  9  1  0  0  0  0
  9 10  1  0  0  0  0
 10 11  1  0  0  0  0
 11 12  1  0  0  0  0
 12 13  1  0  0  0  0
 13 14  1  0  0  0  0
M  END
>  <CHROM.1>
69.60072116,-179.59474718,-161.45534673,177.43560601,-67.42358417,177.26082177
82.23573735,-150.72162929,-162.37987709,179.46392715,-175.02457398,3.69388317
-5.61483671,9.58437717,0.73145730,0.77786332,-2.19605469

>  <Name>
ligand

>  <RI>
0

>  <Rbt.Current_Directory>
/home/itssahil/PROJECTS/Mol_Feturizer/New_Systems/rnas/1FUF

>  <Rbt.Executable>
rbdock ($Id: //depot/dev/client3/rdock/2013.1/src/exe/rbdock.cxx#4 $)

>  <Rbt.Library>
libRbt.so (2013.1, Build901 2013/11/27)

>  <Rbt.Parameter_File>
/export/apps/rDock/src/rDock_2013.1_src/data/scripts/dock_solv.prm

>  <Rbt.Receptor>
prm/pocket_docking_7.prm

>  <SCORE>
-3.91529

>  <SCORE.INTER>
-2.40119

>  <SCORE.INTER.CONST>
1

>  <SCORE.INTER.POLAR>
0

>  <SCORE.INTER.ROT>
11

>  <SCORE.INTER.SOLV>
12.682

>  <SCORE.INTER.VDW>
-16.7615

>  <SCORE.INTER.norm>
-0.171514

>  <SCORE.INTRA>
-1.51409

>  <SCORE.INTRA.DIHEDRAL>
-7.15248

>  <SCORE.INTRA.DIHEDRAL.0>
10.5765

>  <SCORE.INTRA.POLAR>
0

>  <SCORE.INTRA.POLAR.0>
0

>  <SCORE.INTRA.REPUL>
0

>  <SCORE.INTRA.REPUL.0>
0

>  <SCORE.INTRA.SOLV>
1.61679

>  <SCORE.INTRA.SOLV.lig_0>
-50.1861

>  <SCORE.INTRA.VDW>
1.25375

>  <SCORE.INTRA.VDW.0>
-1.36671

>  <SCORE.INTRA.norm>
-0.108149

>  <SCORE.RESTR>
0

>  <SCORE.RESTR.CAVITY>
0

>  <SCORE.RESTR.norm>
0

>  <SCORE.SYSTEM>
0

>  <SCORE.SYSTEM.CONST>
0

>  <SCORE.SYSTEM.DIHEDRAL>
0

>  <SCORE.SYSTEM.SOLV>
0

>  <SCORE.SYSTEM.norm>
0

>  <SCORE.heavy>
14

>  <SCORE.norm>
-0.279663

>  <RMSD>
6.232

$$$$
ligand
 OpenBabel11021811393D
libRbt.so/2013.1/901 2013/11/27
 14 13  0  0  0  0  0  0  0  0999 V2000
   -0.4258   -0.0364   10.1687 N   0  0  0  0  0  0  0  0  0  0  0  0
    0.6493   -0.4049   11.1916 C   0  0  0  0  0  0  0  0  0  0  0  0
    1.3122   -1.6192   10.6506 C   0  0  0  0  0  0  0  0  0  0  0  0
    2.3310   -2.2517   11.5848 C   0  0  0  0  0  0  0  0  0  0  0  0
    2.9085   -3.4628   10.9429 N   0  0  0  0  0  0  0  0  0  0  0  0
    2.2266   -4.7183   11.5159 C   0  0  0  0  0  0  0  0  0  0  0  0
    2.5665   -5.8212   10.4023 C   0  0  0  0  0  0  0  0  0  0  0  0
    3.8467   -6.1002   10.4455 C   0  0  0  0  0  0  0  0  0  0  0  0
    3.9190   -6.8926    9.0142 C   0  0  0  0  0  0  0  0  0  0  0  0
    5.3649   -7.4756    9.1595 N   0  0  0  0  0  0  0  0  0  0  0  0
    5.6106   -8.7764    8.2953 C   0  0  0  0  0  0  0  0  0  0  0  0
    7.1967   -9.1309    8.4582 C   0  0  0  0  0  0  0  0  0  0  0  0
    7.3901  -10.3101    7.5498 C   0  0  0  0  0  0  0  0  0  0  0  0
    8.8431  -10.6950    7.7003 N   0  0  0  0  0  0  0  0  0  0  0  0
  1  2  1  0  0  0  0
  2  3  1  0  0  0  0
  3  4  1  0  0  0  0
  4  5  1  0  0  0  0
  5  6  1  0  0  0  0
  6  7  1  0  0  0  0
  7  8  1  0  0  0  0
  8  9  1  0  0  0  0
  9 10  1  0  0  0  0
 10 11  1  0  0  0  0
 11 12  1  0  0  0  0
 12 13  1  0  0  0  0
 13 14  1  0  0  0  0
M  END
>  <CHROM.1>
-173.94062429,179.20808780,-100.40351643,161.06025717,70.00507418,-166.20203031
-169.75865233,155.62819879,174.19903625,-176.33092700,-178.49923983,3.83838786
-5.54972687,9.79151926,-2.88811065,-0.92869139,2.21671931

>  <Name>
ligand

>  <RI>
0

>  <Rbt.Current_Directory>
/home/itssahil/PROJECTS/Mol_Feturizer/New_Systems/rnas/1FUF

>  <Rbt.Executable>
rbdock ($Id: //depot/dev/client3/rdock/2013.1/src/exe/rbdock.cxx#4 $)

>  <Rbt.Library>
libRbt.so (2013.1, Build901 2013/11/27)

>  <Rbt.Parameter_File>
/export/apps/rDock/src/rDock_2013.1_src/data/scripts/dock_solv.prm

>  <Rbt.Receptor>
prm/pocket_docking_8.prm

>  <SCORE>
-3.7796

>  <SCORE.INTER>
-0.821436

>  <SCORE.INTER.CONST>
1

>  <SCORE.INTER.POLAR>
0

>  <SCORE.INTER.ROT>
11

>  <SCORE.INTER.SOLV>
12.9595

>  <SCORE.INTER.VDW>
-15.8008

>  <SCORE.INTER.norm>
-0.058674

>  <SCORE.INTRA>
-2.95816

>  <SCORE.INTRA.DIHEDRAL>
-7.21934

>  <SCORE.INTRA.DIHEDRAL.0>
10.5765

>  <SCORE.INTRA.POLAR>
0

>  <SCORE.INTRA.POLAR.0>
0

>  <SCORE.INTRA.REPUL>
0

>  <SCORE.INTRA.REPUL.0>
0

>  <SCORE.INTRA.SOLV>
0.348833

>  <SCORE.INTRA.SOLV.lig_0>
-50.1861

>  <SCORE.INTRA.VDW>
0.477089

>  <SCORE.INTRA.VDW.0>
-1.36671

>  <SCORE.INTRA.norm>
-0.211297

>  <SCORE.RESTR>
0

>  <SCORE.RESTR.CAVITY>
0

>  <SCORE.RESTR.norm>
0

>  <SCORE.SYSTEM>
0

>  <SCORE.SYSTEM.CONST>
0

>  <SCORE.SYSTEM.DIHEDRAL>
0

>  <SCORE.SYSTEM.SOLV>
0

>  <SCORE.SYSTEM.norm>
0

>  <SCORE.heavy>
14

>  <SCORE.norm>
-0.269971

>  <RMSD>
6.235

$$$$
ligand
 OpenBabel11021811393D
libRbt.so/2013.1/901 2013/11/27
 14 13  0  0  0  0  0  0  0  0999 V2000
    8.6602  -10.0279    7.0228 N   0  0  0  0  0  0  0  0  0  0  0  0
    7.2433   -9.5078    7.2673 C   0  0  0  0  0  0  0  0  0  0  0  0
    7.0269   -9.6192    8.7327 C   0  0  0  0  0  0  0  0  0  0  0  0
    5.6570   -9.1602    9.2053 C   0  0  0  0  0  0  0  0  0  0  0  0
    5.5184   -7.6966    8.9792 N   0  0  0  0  0  0  0  0  0  0  0  0
    4.2682   -7.4290    8.1218 C   0  0  0  0  0  0  0  0  0  0  0  0
    4.1498   -5.8312    8.1928 C   0  0  0  0  0  0  0  0  0  0  0  0
    3.6125   -5.4871    9.3380 C   0  0  0  0  0  0  0  0  0  0  0  0
    3.6052   -3.8718    9.0692 C   0  0  0  0  0  0  0  0  0  0  0  0
    2.7001   -3.4530   10.2762 N   0  0  0  0  0  0  0  0  0  0  0  0
    2.4222   -1.8983   10.3471 C   0  0  0  0  0  0  0  0  0  0  0  0
    0.8696   -1.7410   10.8295 C   0  0  0  0  0  0  0  0  0  0  0  0
    0.6041   -0.2701   10.6909 C   0  0  0  0  0  0  0  0  0  0  0  0
   -0.8514   -0.0921   11.0538 N   0  0  0  0  0  0  0  0  0  0  0  0
  1  2  1  0  0  0  0
  2  3  1  0  0  0  0
  3  4  1  0  0  0  0
  4  5  1  0  0  0  0
  5  6  1  0  0  0  0
  6  7  1  0  0  0  0
  7  8  1  0  0  0  0
  8  9  1  0  0  0  0
  9 10  1  0  0  0  0
 10 11  1  0  0  0  0
 11 12  1  0  0  0  0
 12 13  1  0  0  0  0
 13 14  1  0  0  0  0
M  END
>  <CHROM.1>
-179.53192007,-65.98765704,124.25020801,170.98925166,-78.94830284,-178.65805230
168.66512833,-178.78976840,141.84322900,-172.23498159,176.86374679,3.96327887
-5.43471680,9.22326918,-0.73385656,0.67027058,-0.28502865

>  <Name>
ligand

>  <RI>
0

>  <Rbt.Current_Directory>
/home/itssahil/PROJECTS/Mol_Feturizer/New_Systems/rnas/1FUF

>  <Rbt.Executable>
rbdock ($Id: //depot/dev/client3/rdock/2013.1/src/exe/rbdock.cxx#4 $)

>  <Rbt.Library>
libRbt.so (2013.1, Build901 2013/11/27)

>  <Rbt.Parameter_File>
/export/apps/rDock/src/rDock_2013.1_src/data/scripts/dock_solv.prm

>  <Rbt.Receptor>
prm/pocket_docking_8.prm

>  <SCORE>
-3.64779

>  <SCORE.INTER>
-0.930432

>  <SCORE.INTER.CONST>
1

>  <SCORE.INTER.POLAR>
0

>  <SCORE.INTER.ROT>
11

>  <SCORE.INTER.SOLV>
12.8483

>  <SCORE.INTER.VDW>
-15.8364

>  <SCORE.INTER.norm>
-0.0664594

>  <SCORE.INTRA>
-2.71736

>  <SCORE.INTRA.DIHEDRAL>
-6.34843

>  <SCORE.INTRA.DIHEDRAL.0>
10.5765

>  <SCORE.INTRA.POLAR>
0

>  <SCORE.INTRA.POLAR.0>
0

>  <SCORE.INTRA.REPUL>
0

>  <SCORE.INTRA.REPUL.0>
0

>  <SCORE.INTRA.SOLV>
0.570899

>  <SCORE.INTRA.SOLV.lig_0>
-50.1861

>  <SCORE.INTRA.VDW>
0.171404

>  <SCORE.INTRA.VDW.0>
-1.36671

>  <SCORE.INTRA.norm>
-0.194097

>  <SCORE.RESTR>
0

>  <SCORE.RESTR.CAVITY>
0

>  <SCORE.RESTR.norm>
0

>  <SCORE.SYSTEM>
0

>  <SCORE.SYSTEM.CONST>
0

>  <SCORE.SYSTEM.DIHEDRAL>
0

>  <SCORE.SYSTEM.SOLV>
0

>  <SCORE.SYSTEM.norm>
0

>  <SCORE.heavy>
14

>  <SCORE.norm>
-0.260557

>  <RMSD>
6.238

$$$$
ligand
 OpenBabel11021811393D
libRbt.so/2013.1/901 2013/11/27
 14 13  0  0  0  0  0  0  0  0999 V2000
   -0.3722   -1.0955   11.8958 N   0  0  0  0  0  0  0  0  0  0  0  0
    1.1156   -1.3093   11.6153 C   0  0  0  0  0  0  0  0  0  0  0  0
    1.1761   -2.3849   10.5925 C   0  0  0  0  0  0  0  0  0  0  0  0
    2.5670   -2.6553   10.0421 C   0  0  0  0  0  0  0  0  0  0  0  0
    3.3526   -3.4325   11.0377 N   0  0  0  0  0  0  0  0  0  0  0  0
    3.1024   -4.9362   10.8234 C   0  0  0  0  0  0  0  0  0  0  0  0
    3.8680   -5.2089    9.4408 C   0  0  0  0  0  0  0  0  0  0  0  0
    3.6882   -6.4578    9.0851 C   0  0  0  0  0  0  0  0  0  0  0  0
    4.1379   -6.2788    7.5207 C   0  0  0  0  0  0  0  0  0  0  0  0
    5.6878   -6.2475    7.7405 N   0  0  0  0  0  0  0  0  0  0  0  0
    6.4671   -5.4409    6.6264 C   0  0  0  0  0  0  0  0  0  0  0  0
    7.8103   -6.3105    6.2988 C   0  0  0  0  0  0  0  0  0  0  0  0
    8.4858   -5.5222    5.2147 C   0  0  0  0  0  0  0  0  0  0  0  0
    9.7154   -6.3198    4.8492 N   0  0  0  0  0  0  0  0  0  0  0  0
  1  2  1  0  0  0  0
  2  3  1  0  0  0  0
  3  4  1  0  0  0  0
  4  5  1  0  0  0  0
  5  6  1  0  0  0  0
  6  7  1  0  0  0  0
  7  8  1  0  0  0  0
  8  9  1  0  0  0  0
  9 10  1  0  0  0  0
 10 11  1  0  0  0  0
 11 12  1  0  0  0  0
 12 13  1  0  0  0  0
 13 14  1  0  0  0  0
M  END
>  <CHROM.1>
173.33187747,76.53341481,87.73402092,70.68424956,-176.92792431,163.19903184
77.71378966,-152.95596556,-139.02109007,178.45116378,-178.18415151,4.34289579
-4.54296793,8.77016415,-2.71250203,-0.67305317,-3.13710729

>  <Name>
ligand

>  <RI>
0

>  <Rbt.Current_Directory>
/home/itssahil/PROJECTS/Mol_Feturizer/New_Systems/rnas/1FUF

>  <Rbt.Executable>
rbdock ($Id: //depot/dev/client3/rdock/2013.1/src/exe/rbdock.cxx#4 $)

>  <Rbt.Library>
libRbt.so (2013.1, Build901 2013/11/27)

>  <Rbt.Parameter_File>
/export/apps/rDock/src/rDock_2013.1_src/data/scripts/dock_solv.prm

>  <Rbt.Receptor>
prm/pocket_docking_6.prm

>  <SCORE>
-0.342385

>  <SCORE.INTER>
-0.737589

>  <SCORE.INTER.CONST>
1

>  <SCORE.INTER.POLAR>
0

>  <SCORE.INTER.ROT>
11

>  <SCORE.INTER.SOLV>
16.6707

>  <SCORE.INTER.VDW>
-16.982

>  <SCORE.INTER.norm>
-0.0526849

>  <SCORE.INTRA>
0.395204

>  <SCORE.INTRA.DIHEDRAL>
-5.11337

>  <SCORE.INTRA.DIHEDRAL.0>
10.5765

>  <SCORE.INTRA.POLAR>
0

>  <SCORE.INTRA.POLAR.0>
0

>  <SCORE.INTRA.REPUL>
0

>  <SCORE.INTRA.REPUL.0>
0

>  <SCORE.INTRA.SOLV>
0.639183

>  <SCORE.INTRA.SOLV.lig_0>
-50.1861

>  <SCORE.INTRA.VDW>
2.6323

>  <SCORE.INTRA.VDW.0>
-1.36671

>  <SCORE.INTRA.norm>
0.0282289

>  <SCORE.RESTR>
0

>  <SCORE.RESTR.CAVITY>
0

>  <SCORE.RESTR.norm>
0

>  <SCORE.SYSTEM>
0

>  <SCORE.SYSTEM.CONST>
0

>  <SCORE.SYSTEM.DIHEDRAL>
0

>  <SCORE.SYSTEM.SOLV>
0

>  <SCORE.SYSTEM.norm>
0

>  <SCORE.heavy>
14

>  <SCORE.norm>
-0.0244561

>  <RMSD>
6.265

$$$$
ligand
 OpenBabel11021811393D
libRbt.so/2013.1/901 2013/11/27
 14 13  0  0  0  0  0  0  0  0999 V2000
    8.3974   -6.9208    6.2464 N   0  0  0  0  0  0  0  0  0  0  0  0
    8.0189   -5.4695    5.9488 C   0  0  0  0  0  0  0  0  0  0  0  0
    6.5473   -5.3964    6.1379 C   0  0  0  0  0  0  0  0  0  0  0  0
    6.0818   -5.6294    7.5661 C   0  0  0  0  0  0  0  0  0  0  0  0
    4.5958   -5.5911    7.6165 N   0  0  0  0  0  0  0  0  0  0  0  0
    4.0931   -6.6268    8.6385 C   0  0  0  0  0  0  0  0  0  0  0  0
    3.8476   -5.7212    9.9391 C   0  0  0  0  0  0  0  0  0  0  0  0
    3.5622   -6.4950   10.9581 C   0  0  0  0  0  0  0  0  0  0  0  0
    1.9360   -6.4729   10.7667 C   0  0  0  0  0  0  0  0  0  0  0  0
    1.6383   -5.1638   11.5724 N   0  0  0  0  0  0  0  0  0  0  0  0
    1.3744   -3.9040   10.6546 C   0  0  0  0  0  0  0  0  0  0  0  0
    2.4804   -2.7864   11.0968 C   0  0  0  0  0  0  0  0  0  0  0  0
    2.1234   -1.5883   10.2660 C   0  0  0  0  0  0  0  0  0  0  0  0
    0.8542   -1.0433   10.8776 N   0  0  0  0  0  0  0  0  0  0  0  0
  1  2  1  0  0  0  0
  2  3  1  0  0  0  0
  3  4  1  0  0  0  0
  4  5  1  0  0  0  0
  5  6  1  0  0  0  0
  6  7  1  0  0  0  0
  7  8  1  0  0  0  0
  8  9  1  0  0  0  0
  9 10  1  0  0  0  0
 10 11  1  0  0  0  0
 11 12  1  0  0  0  0
 12 13  1  0  0  0  0
 13 14  1  0  0  0  0
M  END
>  <CHROM.1>
65.49819520,-177.51894185,143.64319327,97.83723437,-172.57438276,-91.59059314
-86.00403619,101.98948209,-122.44165839,-176.21811177,72.97628609,3.96795529
-4.91501949,9.16328739,0.23068196,-0.73108331,2.91431774

>  <Name>
ligand

>  <RI>
0

>  <Rbt.Current_Directory>
/home/itssahil/PROJECTS/Mol_Feturizer/New_Systems/rnas/1FUF

>  <Rbt.Executable>
rbdock ($Id: //depot/dev/client3/rdock/2013.1/src/exe/rbdock.cxx#4 $)

>  <Rbt.Library>
libRbt.so (2013.1, Build901 2013/11/27)

>  <Rbt.Parameter_File>
/export/apps/rDock/src/rDock_2013.1_src/data/scripts/dock_solv.prm

>  <Rbt.Receptor>
prm/pocket_docking_7.prm

>  <SCORE>
-0.669704

>  <SCORE.INTER>
-3.84079

>  <SCORE.INTER.CONST>
1

>  <SCORE.INTER.POLAR>
0

>  <SCORE.INTER.ROT>
11

>  <SCORE.INTER.SOLV>
14.8044

>  <SCORE.INTER.VDW>
-18.4287

>  <SCORE.INTER.norm>
-0.274342

>  <SCORE.INTRA>
3.17109

>  <SCORE.INTRA.DIHEDRAL>
-0.282581

>  <SCORE.INTRA.DIHEDRAL.0>
10.5765

>  <SCORE.INTRA.POLAR>
0

>  <SCORE.INTRA.POLAR.0>
0

>  <SCORE.INTRA.REPUL>
0

>  <SCORE.INTRA.REPUL.0>
0

>  <SCORE.INTRA.SOLV>
2.33755

>  <SCORE.INTRA.SOLV.lig_0>
-50.1861

>  <SCORE.INTRA.VDW>
2.1436

>  <SCORE.INTRA.VDW.0>
-1.36671

>  <SCORE.INTRA.norm>
0.226506

>  <SCORE.RESTR>
0

>  <SCORE.RESTR.CAVITY>
0

>  <SCORE.RESTR.norm>
0

>  <SCORE.SYSTEM>
0

>  <SCORE.SYSTEM.CONST>
0

>  <SCORE.SYSTEM.DIHEDRAL>
0

>  <SCORE.SYSTEM.SOLV>
0

>  <SCORE.SYSTEM.norm>
0

>  <SCORE.heavy>
14

>  <SCORE.norm>
-0.047836

>  <RMSD>
6.301

$$$$
ligand
 OpenBabel11021811393D
libRbt.so/2013.1/901 2013/11/27
 14 13  0  0  0  0  0  0  0  0999 V2000
   -0.6823    0.2732   10.3053 N   0  0  0  0  0  0  0  0  0  0  0  0
    0.6852   -0.4095   10.2606 C   0  0  0  0  0  0  0  0  0  0  0  0
    0.4257   -1.8388   10.5711 C   0  0  0  0  0  0  0  0  0  0  0  0
    1.6663   -2.7170   10.5863 C   0  0  0  0  0  0  0  0  0  0  0  0
    1.2666   -4.1380   10.7685 N   0  0  0  0  0  0  0  0  0  0  0  0
    2.4722   -4.9453   11.2828 C   0  0  0  0  0  0  0  0  0  0  0  0
    2.9255   -5.7438    9.9680 C   0  0  0  0  0  0  0  0  0  0  0  0
    4.0043   -6.4394   10.2340 C   0  0  0  0  0  0  0  0  0  0  0  0
    4.1781   -7.1010    8.7461 C   0  0  0  0  0  0  0  0  0  0  0  0
    5.4880   -7.9139    9.0194 N   0  0  0  0  0  0  0  0  0  0  0  0
    5.6492   -9.1823    8.0898 C   0  0  0  0  0  0  0  0  0  0  0  0
    6.7442  -10.1439    8.8276 C   0  0  0  0  0  0  0  0  0  0  0  0
    6.0359  -10.5960   10.0714 C   0  0  0  0  0  0  0  0  0  0  0  0
    7.0041  -11.5243   10.7662 N   0  0  0  0  0  0  0  0  0  0  0  0
  1  2  1  0  0  0  0
  2  3  1  0  0  0  0
  3  4  1  0  0  0  0
  4  5  1  0  0  0  0
  5  6  1  0  0  0  0
  6  7  1  0  0  0  0
  7  8  1  0  0  0  0
  8  9  1  0  0  0  0
  9 10  1  0  0  0  0
 10 11  1  0  0  0  0
 11 12  1  0  0  0  0
 12 13  1  0  0  0  0
 13 14  1  0  0  0  0
M  END
>  <CHROM.1>
-179.77298488,-174.24622387,-159.84063032,-104.44543862,176.83881756,179.82585104
178.58609804,153.63858033,-161.42490153,67.44741314,178.39636452,3.41885437
-5.88715640,9.96397164,-2.83207870,-0.95621407,2.06064409

>  <Name>
ligand

>  <RI>
0

>  <Rbt.Current_Directory>
/home/itssahil/PROJECTS/Mol_Feturizer/New_Systems/rnas/1FUF

>  <Rbt.Executable>
rbdock ($Id: //depot/dev/client3/rdock/2013.1/src/exe/rbdock.cxx#4 $)

>  <Rbt.Library>
libRbt.so (2013.1, Build901 2013/11/27)

>  <Rbt.Parameter_File>
/export/apps/rDock/src/rDock_2013.1_src/data/scripts/dock_solv.prm

>  <Rbt.Receptor>
prm/pocket_docking_8.prm

>  <SCORE>
-5.67961

>  <SCORE.INTER>
-2.01553

>  <SCORE.INTER.CONST>
1

>  <SCORE.INTER.POLAR>
0

>  <SCORE.INTER.ROT>
11

>  <SCORE.INTER.SOLV>
15.2493

>  <SCORE.INTER.VDW>
-17.3601

>  <SCORE.INTER.norm>
-0.143966

>  <SCORE.INTRA>
-3.66409

>  <SCORE.INTRA.DIHEDRAL>
-8.12504

>  <SCORE.INTRA.DIHEDRAL.0>
10.5765

>  <SCORE.INTRA.POLAR>
0

>  <SCORE.INTRA.POLAR.0>
0

>  <SCORE.INTRA.REPUL>
0

>  <SCORE.INTRA.REPUL.0>
0

>  <SCORE.INTRA.SOLV>
0.351586

>  <SCORE.INTRA.SOLV.lig_0>
-50.1861

>  <SCORE.INTRA.VDW>
0.222643

>  <SCORE.INTRA.VDW.0>
-1.36671

>  <SCORE.INTRA.norm>
-0.26172

>  <SCORE.RESTR>
0

>  <SCORE.RESTR.CAVITY>
0

>  <SCORE.RESTR.norm>
0

>  <SCORE.SYSTEM>
0

>  <SCORE.SYSTEM.CONST>
0

>  <SCORE.SYSTEM.DIHEDRAL>
0

>  <SCORE.SYSTEM.SOLV>
0

>  <SCORE.SYSTEM.norm>
0

>  <SCORE.heavy>
14

>  <SCORE.norm>
-0.405687

>  <RMSD>
6.307

$$$$
ligand
 OpenBabel11021811393D
libRbt.so/2013.1/901 2013/11/27
 14 13  0  0  0  0  0  0  0  0999 V2000
   -0.3512   -0.2779   10.2106 N   0  0  0  0  0  0  0  0  0  0  0  0
    0.1601   -1.5198   10.9416 C   0  0  0  0  0  0  0  0  0  0  0  0
    1.5847   -1.6563   10.5435 C   0  0  0  0  0  0  0  0  0  0  0  0
    2.2982   -2.8532   11.1510 C   0  0  0  0  0  0  0  0  0  0  0  0
    1.6239   -4.1060   10.7172 N   0  0  0  0  0  0  0  0  0  0  0  0
    2.4856   -5.3157   11.1220 C   0  0  0  0  0  0  0  0  0  0  0  0
    3.3126   -5.6019    9.7781 C   0  0  0  0  0  0  0  0  0  0  0  0
    4.1500   -6.5887    9.9866 C   0  0  0  0  0  0  0  0  0  0  0  0
    4.7930   -6.6165    8.4808 C   0  0  0  0  0  0  0  0  0  0  0  0
    5.8699   -7.7269    8.7229 N   0  0  0  0  0  0  0  0  0  0  0  0
    5.4560   -9.1425    8.1538 C   0  0  0  0  0  0  0  0  0  0  0  0
    6.4139  -10.2283    8.9096 C   0  0  0  0  0  0  0  0  0  0  0  0
    7.7884   -9.8988    8.4042 C   0  0  0  0  0  0  0  0  0  0  0  0
    7.7950  -10.3314    6.9569 N   0  0  0  0  0  0  0  0  0  0  0  0
  1  2  1  0  0  0  0
  2  3  1  0  0  0  0
  3  4  1  0  0  0  0
  4  5  1  0  0  0  0
  5  6  1  0  0  0  0
  6  7  1  0  0  0  0
  7  8  1  0  0  0  0
  8  9  1  0  0  0  0
  9 10  1  0  0  0  0
 10 11  1  0  0  0  0
 11 12  1  0  0  0  0
 12 13  1  0  0  0  0
 13 14  1  0  0  0  0
M  END
>  <CHROM.1>
-179.36191781,60.83674490,170.03106158,-95.71087358,177.26564257,179.76986804
176.43690089,101.92554923,-161.63741911,-66.01715165,-70.53109287,3.81290422
-5.84752126,9.57724177,-2.74387503,-0.87418993,2.39325392

>  <Name>
ligand

>  <RI>
0

>  <Rbt.Current_Directory>
/home/itssahil/PROJECTS/Mol_Feturizer/New_Systems/rnas/1FUF

>  <Rbt.Executable>
rbdock ($Id: //depot/dev/client3/rdock/2013.1/src/exe/rbdock.cxx#4 $)

>  <Rbt.Library>
libRbt.so (2013.1, Build901 2013/11/27)

>  <Rbt.Parameter_File>
/export/apps/rDock/src/rDock_2013.1_src/data/scripts/dock_solv.prm

>  <Rbt.Receptor>
prm/pocket_docking_8.prm

>  <SCORE>
-2.95409

>  <SCORE.INTER>
-0.896248

>  <SCORE.INTER.CONST>
1

>  <SCORE.INTER.POLAR>
0

>  <SCORE.INTER.ROT>
11

>  <SCORE.INTER.SOLV>
13.2741

>  <SCORE.INTER.VDW>
-15.9555

>  <SCORE.INTER.norm>
-0.0640177

>  <SCORE.INTRA>
-2.05784

>  <SCORE.INTRA.DIHEDRAL>
-7.88698

>  <SCORE.INTRA.DIHEDRAL.0>
10.5765

>  <SCORE.INTRA.POLAR>
0

>  <SCORE.INTRA.POLAR.0>
0

>  <SCORE.INTRA.REPUL>
0

>  <SCORE.INTRA.REPUL.0>
0

>  <SCORE.INTRA.SOLV>
2.16942

>  <SCORE.INTRA.SOLV.lig_0>
-50.1861

>  <SCORE.INTRA.VDW>
0.800936

>  <SCORE.INTRA.VDW.0>
-1.36671

>  <SCORE.INTRA.norm>
-0.146989

>  <SCORE.RESTR>
0

>  <SCORE.RESTR.CAVITY>
0

>  <SCORE.RESTR.norm>
0

>  <SCORE.SYSTEM>
0

>  <SCORE.SYSTEM.CONST>
0

>  <SCORE.SYSTEM.DIHEDRAL>
0

>  <SCORE.SYSTEM.SOLV>
0

>  <SCORE.SYSTEM.norm>
0

>  <SCORE.heavy>
14

>  <SCORE.norm>
-0.211007

>  <RMSD>
6.409

$$$$
ligand
 OpenBabel11021811393D
libRbt.so/2013.1/901 2013/11/27
 14 13  0  0  0  0  0  0  0  0999 V2000
   -0.0161   -2.0141   10.5614 N   0  0  0  0  0  0  0  0  0  0  0  0
    1.2251   -1.2358   10.9992 C   0  0  0  0  0  0  0  0  0  0  0  0
    2.2226   -2.2656   11.3883 C   0  0  0  0  0  0  0  0  0  0  0  0
    2.7655   -3.0879   10.2308 C   0  0  0  0  0  0  0  0  0  0  0  0
    3.7816   -4.0485   10.7378 N   0  0  0  0  0  0  0  0  0  0  0  0
    3.1068   -5.4029   11.0207 C   0  0  0  0  0  0  0  0  0  0  0  0
    3.9809   -6.4056   10.1249 C   0  0  0  0  0  0  0  0  0  0  0  0
    3.7623   -6.1559    8.8566 C   0  0  0  0  0  0  0  0  0  0  0  0
    4.7545   -7.3136    8.2591 C   0  0  0  0  0  0  0  0  0  0  0  0
    6.0913   -6.4997    8.3015 N   0  0  0  0  0  0  0  0  0  0  0  0
    6.2941   -5.5535    7.0514 C   0  0  0  0  0  0  0  0  0  0  0  0
    7.8586   -5.0859    7.0909 C   0  0  0  0  0  0  0  0  0  0  0  0
    8.6153   -6.3679    6.8984 C   0  0  0  0  0  0  0  0  0  0  0  0
    8.3991   -6.7446    5.4516 N   0  0  0  0  0  0  0  0  0  0  0  0
  1  2  1  0  0  0  0
  2  3  1  0  0  0  0
  3  4  1  0  0  0  0
  4  5  1  0  0  0  0
  5  6  1  0  0  0  0
  6  7  1  0  0  0  0
  7  8  1  0  0  0  0
  8  9  1  0  0  0  0
  9 10  1  0  0  0  0
 10 11  1  0  0  0  0
 11 12  1  0  0  0  0
 12 13  1  0  0  0  0
 13 14  1  0  0  0  0
M  END
>  <CHROM.1>
68.97563496,178.17418271,94.43881654,124.04815075,-68.30402541,-179.54014243
-84.98679768,-82.86495092,-166.60422491,63.98766960,71.74301376,4.48865502
-4.87012160,9.06960424,-2.71441502,-0.64421801,3.03666426

>  <Name>
ligand

>  <RI>
0

>  <Rbt.Current_Directory>
/home/itssahil/PROJECTS/Mol_Feturizer/New_Systems/rnas/1FUF

>  <Rbt.Executable>
rbdock ($Id: //depot/dev/client3/rdock/2013.1/src/exe/rbdock.cxx#4 $)

>  <Rbt.Library>
libRbt.so (2013.1, Build901 2013/11/27)

>  <Rbt.Parameter_File>
/export/apps/rDock/src/rDock_2013.1_src/data/scripts/dock_solv.prm

>  <Rbt.Receptor>
prm/pocket_docking_7.prm

>  <SCORE>
0.511061

>  <SCORE.INTER>
-0.919057

>  <SCORE.INTER.CONST>
1

>  <SCORE.INTER.POLAR>
0

>  <SCORE.INTER.ROT>
11

>  <SCORE.INTER.SOLV>
14.6758

>  <SCORE.INTER.VDW>
-16.438

>  <SCORE.INTER.norm>
-0.0656469

>  <SCORE.INTRA>
1.43012

>  <SCORE.INTRA.DIHEDRAL>
-4.95027

>  <SCORE.INTRA.DIHEDRAL.0>
10.5765

>  <SCORE.INTRA.POLAR>
0

>  <SCORE.INTRA.POLAR.0>
0

>  <SCORE.INTRA.REPUL>
0

>  <SCORE.INTRA.REPUL.0>
0

>  <SCORE.INTRA.SOLV>
3.73484

>  <SCORE.INTRA.SOLV.lig_0>
-50.1861

>  <SCORE.INTRA.VDW>
2.03784

>  <SCORE.INTRA.VDW.0>
-1.36671

>  <SCORE.INTRA.norm>
0.102151

>  <SCORE.RESTR>
0

>  <SCORE.RESTR.CAVITY>
0

>  <SCORE.RESTR.norm>
0

>  <SCORE.SYSTEM>
0

>  <SCORE.SYSTEM.CONST>
0

>  <SCORE.SYSTEM.DIHEDRAL>
0

>  <SCORE.SYSTEM.SOLV>
0

>  <SCORE.SYSTEM.norm>
0

>  <SCORE.heavy>
14

>  <SCORE.norm>
0.0365044

>  <RMSD>
6.415

$$$$
ligand
 OpenBabel11021811393D
libRbt.so/2013.1/901 2013/11/27
 14 13  0  0  0  0  0  0  0  0999 V2000
   -0.1161   -1.3317   10.9627 N   0  0  0  0  0  0  0  0  0  0  0  0
    1.2803   -1.1000   10.3845 C   0  0  0  0  0  0  0  0  0  0  0  0
    2.1225   -2.1955   10.9296 C   0  0  0  0  0  0  0  0  0  0  0  0
    1.7297   -3.5870   10.4607 C   0  0  0  0  0  0  0  0  0  0  0  0
    2.6378   -4.5926   11.0743 N   0  0  0  0  0  0  0  0  0  0  0  0
    2.2940   -5.9905   10.5290 C   0  0  0  0  0  0  0  0  0  0  0  0
    3.6861   -6.4464    9.8761 C   0  0  0  0  0  0  0  0  0  0  0  0
    3.9240   -5.7192    8.8115 C   0  0  0  0  0  0  0  0  0  0  0  0
    5.3989   -6.3465    8.4759 C   0  0  0  0  0  0  0  0  0  0  0  0
    5.8202   -5.3314    7.3608 N   0  0  0  0  0  0  0  0  0  0  0  0
    7.3806   -5.2771    7.1134 C   0  0  0  0  0  0  0  0  0  0  0  0
    7.6317   -5.9959    5.6684 C   0  0  0  0  0  0  0  0  0  0  0  0
    9.1264   -6.1029    5.5821 C   0  0  0  0  0  0  0  0  0  0  0  0
    9.3980   -6.8753    4.3127 N   0  0  0  0  0  0  0  0  0  0  0  0
  1  2  1  0  0  0  0
  2  3  1  0  0  0  0
  3  4  1  0  0  0  0
  4  5  1  0  0  0  0
  5  6  1  0  0  0  0
  6  7  1  0  0  0  0
  7  8  1  0  0  0  0
  8  9  1  0  0  0  0
  9 10  1  0  0  0  0
 10 11  1  0  0  0  0
 11 12  1  0  0  0  0
 12 13  1  0  0  0  0
 13 14  1  0  0  0  0
M  END
>  <CHROM.1>
65.09780139,-179.81056147,-176.46834746,121.71101575,-69.35308604,176.30822447
-170.69564420,159.82639078,108.27117949,-171.74779096,175.09825169,4.45101008
-4.77810029,8.68165719,-2.91463926,-0.70002225,2.87859705

>  <Name>
ligand

>  <RI>
0

>  <Rbt.Current_Directory>
/home/itssahil/PROJECTS/Mol_Feturizer/New_Systems/rnas/1FUF

>  <Rbt.Executable>
rbdock ($Id: //depot/dev/client3/rdock/2013.1/src/exe/rbdock.cxx#4 $)

>  <Rbt.Library>
libRbt.so (2013.1, Build901 2013/11/27)

>  <Rbt.Parameter_File>
/export/apps/rDock/src/rDock_2013.1_src/data/scripts/dock_solv.prm

>  <Rbt.Receptor>
prm/pocket_docking_8.prm

>  <SCORE>
-4.04081

>  <SCORE.INTER>
-1.7936

>  <SCORE.INTER.CONST>
1

>  <SCORE.INTER.POLAR>
0

>  <SCORE.INTER.ROT>
11

>  <SCORE.INTER.SOLV>
13.6161

>  <SCORE.INTER.VDW>
-16.6678

>  <SCORE.INTER.norm>
-0.128114

>  <SCORE.INTRA>
-2.24721

>  <SCORE.INTRA.DIHEDRAL>
-6.82911

>  <SCORE.INTRA.DIHEDRAL.0>
10.5765

>  <SCORE.INTRA.POLAR>
0

>  <SCORE.INTRA.POLAR.0>
0

>  <SCORE.INTRA.REPUL>
0

>  <SCORE.INTRA.REPUL.0>
0

>  <SCORE.INTRA.SOLV>
1.19495

>  <SCORE.INTRA.SOLV.lig_0>
-50.1861

>  <SCORE.INTRA.VDW>
0.569867

>  <SCORE.INTRA.VDW.0>
-1.36671

>  <SCORE.INTRA.norm>
-0.160515

>  <SCORE.RESTR>
0

>  <SCORE.RESTR.CAVITY>
0

>  <SCORE.RESTR.norm>
0

>  <SCORE.SYSTEM>
0

>  <SCORE.SYSTEM.CONST>
0

>  <SCORE.SYSTEM.DIHEDRAL>
0

>  <SCORE.SYSTEM.SOLV>
0

>  <SCORE.SYSTEM.norm>
0

>  <SCORE.heavy>
14

>  <SCORE.norm>
-0.288629

>  <RMSD>
6.436

$$$$
ligand
 OpenBabel11021811393D
libRbt.so/2013.1/901 2013/11/27
 14 13  0  0  0  0  0  0  0  0999 V2000
    8.3377   -9.0533    9.3532 N   0  0  0  0  0  0  0  0  0  0  0  0
    7.7425  -10.4610    9.3066 C   0  0  0  0  0  0  0  0  0  0  0  0
    6.2740  -10.2753    9.4311 C   0  0  0  0  0  0  0  0  0  0  0  0
    5.6343   -9.5126    8.2824 C   0  0  0  0  0  0  0  0  0  0  0  0
    5.8522   -8.0536    8.4727 N   0  0  0  0  0  0  0  0  0  0  0  0
    4.4993   -7.3224    8.4038 C   0  0  0  0  0  0  0  0  0  0  0  0
    4.8938   -5.8434    8.8821 C   0  0  0  0  0  0  0  0  0  0  0  0
    3.8134   -5.1029    8.9360 C   0  0  0  0  0  0  0  0  0  0  0  0
    4.5538   -3.7156    9.3932 C   0  0  0  0  0  0  0  0  0  0  0  0
    3.2785   -2.8148    9.5095 N   0  0  0  0  0  0  0  0  0  0  0  0
    2.6630   -2.7771   10.9651 C   0  0  0  0  0  0  0  0  0  0  0  0
    1.1037   -2.3266   10.7820 C   0  0  0  0  0  0  0  0  0  0  0  0
    1.1971   -0.8776   10.4014 C   0  0  0  0  0  0  0  0  0  0  0  0
   -0.2323   -0.4028   10.2870 N   0  0  0  0  0  0  0  0  0  0  0  0
  1  2  1  0  0  0  0
  2  3  1  0  0  0  0
  3  4  1  0  0  0  0
  4  5  1  0  0  0  0
  5  6  1  0  0  0  0
  6  7  1  0  0  0  0
  7  8  1  0  0  0  0
  8  9  1  0  0  0  0
  9 10  1  0  0  0  0
 10 11  1  0  0  0  0
 11 12  1  0  0  0  0
 12 13  1  0  0  0  0
 13 14  1  0  0  0  0
M  END
>  <CHROM.1>
63.86328654,-79.91343737,-126.69035433,170.36525464,-177.07712327,-178.48178186
-178.37618650,92.86278125,-158.14369585,-71.31089590,-177.34519188,4.25790673
-5.61014775,9.45759309,-0.97145228,-0.10077818,0.23997122

>  <Name>
ligand

>  <RI>
0

>  <Rbt.Current_Directory>
/home/itssahil/PROJECTS/Mol_Feturizer/New_Systems/rnas/1FUF

>  <Rbt.Executable>
rbdock ($Id: //depot/dev/client3/rdock/2013.1/src/exe/rbdock.cxx#4 $)

>  <Rbt.Library>
libRbt.so (2013.1, Build901 2013/11/27)

>  <Rbt.Parameter_File>
/export/apps/rDock/src/rDock_2013.1_src/data/scripts/dock_solv.prm

>  <Rbt.Receptor>
prm/pocket_docking_8.prm

>  <SCORE>
-1.2108

>  <SCORE.INTER>
0.0478944

>  <SCORE.INTER.CONST>
1

>  <SCORE.INTER.POLAR>
0

>  <SCORE.INTER.ROT>
11

>  <SCORE.INTER.SOLV>
15.2794

>  <SCORE.INTER.VDW>
-15.9945

>  <SCORE.INTER.norm>
0.00342103

>  <SCORE.INTRA>
-1.25869

>  <SCORE.INTRA.DIHEDRAL>
-6.32271

>  <SCORE.INTRA.DIHEDRAL.0>
10.5765

>  <SCORE.INTRA.POLAR>
0

>  <SCORE.INTRA.POLAR.0>
0

>  <SCORE.INTRA.REPUL>
0

>  <SCORE.INTRA.REPUL.0>
0

>  <SCORE.INTRA.SOLV>
3.18929

>  <SCORE.INTRA.SOLV.lig_0>
-50.1861

>  <SCORE.INTRA.VDW>
0.308019

>  <SCORE.INTRA.VDW.0>
-1.36671

>  <SCORE.INTRA.norm>
-0.0899065

>  <SCORE.RESTR>
0

>  <SCORE.RESTR.CAVITY>
0

>  <SCORE.RESTR.norm>
0

>  <SCORE.SYSTEM>
0

>  <SCORE.SYSTEM.CONST>
0

>  <SCORE.SYSTEM.DIHEDRAL>
0

>  <SCORE.SYSTEM.SOLV>
0

>  <SCORE.SYSTEM.norm>
0

>  <SCORE.heavy>
14

>  <SCORE.norm>
-0.0864855

>  <RMSD>
6.570

$$$$
ligand
 OpenBabel11021811393D
libRbt.so/2013.1/901 2013/11/27
 14 13  0  0  0  0  0  0  0  0999 V2000
    0.8358   -1.0897   11.0656 N   0  0  0  0  0  0  0  0  0  0  0  0
   -0.0294   -0.3772   10.0255 C   0  0  0  0  0  0  0  0  0  0  0  0
   -1.3512   -0.1825   10.6747 C   0  0  0  0  0  0  0  0  0  0  0  0
   -2.4023    0.4624    9.7861 C   0  0  0  0  0  0  0  0  0  0  0  0
   -2.0027    1.8619    9.4797 N   0  0  0  0  0  0  0  0  0  0  0  0
   -2.4185    2.2074    8.0383 C   0  0  0  0  0  0  0  0  0  0  0  0
   -3.9336    2.6950    8.2351 C   0  0  0  0  0  0  0  0  0  0  0  0
   -4.4023    3.1258    7.0891 C   0  0  0  0  0  0  0  0  0  0  0  0
   -5.8601    3.6174    7.6504 C   0  0  0  0  0  0  0  0  0  0  0  0
   -6.4459    4.1514    6.3002 N   0  0  0  0  0  0  0  0  0  0  0  0
   -7.3479    3.0971    5.5426 C   0  0  0  0  0  0  0  0  0  0  0  0
   -8.7411    3.0061    6.3903 C   0  0  0  0  0  0  0  0  0  0  0  0
   -9.3473    4.3688    6.2205 C   0  0  0  0  0  0  0  0  0  0  0  0
  -10.6360    4.3324    7.0078 N   0  0  0  0  0  0  0  0  0  0  0  0
  1  2  1  0  0  0  0
  2  3  1  0  0  0  0
  3  4  1  0  0  0  0
  4  5  1  0  0  0  0
  5  6  1  0  0  0  0
  6  7  1  0  0  0  0
  7  8  1  0  0  0  0
  8  9  1  0  0  0  0
  9 10  1  0  0  0  0
 10 11  1  0  0  0  0
 11 12  1  0  0  0  0
 12 13  1  0  0  0  0
 13 14  1  0  0  0  0
M  END
>  <CHROM.1>
-177.39861474,-66.30777473,143.91919037,86.13870278,175.25574857,-176.47231820
179.57771578,95.53398573,73.03480989,65.63436297,-179.30291607,-4.57732757
2.23399118,8.10742691,0.59624331,-0.02917599,2.32534230

>  <Name>
ligand

>  <RI>
0

>  <Rbt.Current_Directory>
/home/itssahil/PROJECTS/Mol_Feturizer/New_Systems/rnas/1FUF

>  <Rbt.Executable>
rbdock ($Id: //depot/dev/client3/rdock/2013.1/src/exe/rbdock.cxx#4 $)

>  <Rbt.Library>
libRbt.so (2013.1, Build901 2013/11/27)

>  <Rbt.Parameter_File>
/export/apps/rDock/src/rDock_2013.1_src/data/scripts/dock_solv.prm

>  <Rbt.Receptor>
prm/blind_docking_20.prm

>  <SCORE>
-1.81634

>  <SCORE.INTER>
0.77852

>  <SCORE.INTER.CONST>
1

>  <SCORE.INTER.POLAR>
0

>  <SCORE.INTER.ROT>
11

>  <SCORE.INTER.SOLV>
15.6461

>  <SCORE.INTER.VDW>
-15.6297

>  <SCORE.INTER.norm>
0.0556085

>  <SCORE.INTRA>
-2.59486

>  <SCORE.INTRA.DIHEDRAL>
-7.97004

>  <SCORE.INTRA.DIHEDRAL.0>
10.5765

>  <SCORE.INTRA.POLAR>
0

>  <SCORE.INTRA.POLAR.0>
0

>  <SCORE.INTRA.REPUL>
0

>  <SCORE.INTRA.REPUL.0>
0

>  <SCORE.INTRA.SOLV>
0.734731

>  <SCORE.INTRA.SOLV.lig_0>
-50.1861

>  <SCORE.INTRA.VDW>
1.0228

>  <SCORE.INTRA.VDW.0>
-1.36671

>  <SCORE.INTRA.norm>
-0.185347

>  <SCORE.RESTR>
0

>  <SCORE.RESTR.CAVITY>
0

>  <SCORE.RESTR.norm>
0

>  <SCORE.SYSTEM>
0

>  <SCORE.SYSTEM.CONST>
0

>  <SCORE.SYSTEM.DIHEDRAL>
0

>  <SCORE.SYSTEM.SOLV>
0

>  <SCORE.SYSTEM.norm>
0

>  <SCORE.heavy>
14

>  <SCORE.norm>
-0.129738

>  <RMSD>
6.574

$$$$
ligand
 OpenBabel11021811393D
libRbt.so/2013.1/901 2013/11/27
 14 13  0  0  0  0  0  0  0  0999 V2000
  -10.6613    3.2099    6.8220 N   0  0  0  0  0  0  0  0  0  0  0  0
   -9.3402    3.0063    6.0796 C   0  0  0  0  0  0  0  0  0  0  0  0
   -8.5167    4.2004    6.4001 C   0  0  0  0  0  0  0  0  0  0  0  0
   -7.1787    4.2562    5.6810 C   0  0  0  0  0  0  0  0  0  0  0  0
   -6.3603    3.0742    6.0624 N   0  0  0  0  0  0  0  0  0  0  0  0
   -5.2531    3.5133    7.0375 C   0  0  0  0  0  0  0  0  0  0  0  0
   -4.0198    2.5969    6.5779 C   0  0  0  0  0  0  0  0  0  0  0  0
   -2.9662    2.8952    7.2987 C   0  0  0  0  0  0  0  0  0  0  0  0
   -3.3093    1.9071    8.5587 C   0  0  0  0  0  0  0  0  0  0  0  0
   -2.0852    2.2730    9.4637 N   0  0  0  0  0  0  0  0  0  0  0  0
   -2.1025    1.5523   10.8706 C   0  0  0  0  0  0  0  0  0  0  0  0
   -1.6063    0.0204   10.5968 C   0  0  0  0  0  0  0  0  0  0  0  0
   -0.1192    0.1533   10.4420 C   0  0  0  0  0  0  0  0  0  0  0  0
    0.3948   -1.2603   10.3029 N   0  0  0  0  0  0  0  0  0  0  0  0
  1  2  1  0  0  0  0
  2  3  1  0  0  0  0
  3  4  1  0  0  0  0
  4  5  1  0  0  0  0
  5  6  1  0  0  0  0
  6  7  1  0  0  0  0
  7  8  1  0  0  0  0
  8  9  1  0  0  0  0
  9 10  1  0  0  0  0
 10 11  1  0  0  0  0
 11 12  1  0  0  0  0
 12 13  1  0  0  0  0
 13 14  1  0  0  0  0
M  END
>  <CHROM.1>
-175.94616380,-60.89380760,-105.20333762,-142.76096925,177.74151024,85.37311469
-178.37353180,176.67684688,77.66293793,77.15479385,175.34932678,-4.50878354
2.24290338,8.01379218,2.55443365,-0.00078855,-0.88568409

>  <Name>
ligand

>  <RI>
0

>  <Rbt.Current_Directory>
/home/itssahil/PROJECTS/Mol_Feturizer/New_Systems/rnas/1FUF

>  <Rbt.Executable>
rbdock ($Id: //depot/dev/client3/rdock/2013.1/src/exe/rbdock.cxx#4 $)

>  <Rbt.Library>
libRbt.so (2013.1, Build901 2013/11/27)

>  <Rbt.Parameter_File>
/export/apps/rDock/src/rDock_2013.1_src/data/scripts/dock_solv.prm

>  <Rbt.Receptor>
prm/blind_docking_80.prm

>  <SCORE>
0.252054

>  <SCORE.INTER>
0.582024

>  <SCORE.INTER.CONST>
1

>  <SCORE.INTER.POLAR>
0

>  <SCORE.INTER.ROT>
11

>  <SCORE.INTER.SOLV>
16.2544

>  <SCORE.INTER.VDW>
-15.9635

>  <SCORE.INTER.norm>
0.0415732

>  <SCORE.INTRA>
-0.32997

>  <SCORE.INTRA.DIHEDRAL>
-4.93573

>  <SCORE.INTRA.DIHEDRAL.0>
10.5765

>  <SCORE.INTRA.POLAR>
0

>  <SCORE.INTRA.POLAR.0>
0

>  <SCORE.INTRA.REPUL>
0

>  <SCORE.INTRA.REPUL.0>
0

>  <SCORE.INTRA.SOLV>
0.930159

>  <SCORE.INTRA.SOLV.lig_0>
-50.1861

>  <SCORE.INTRA.VDW>
1.67282

>  <SCORE.INTRA.VDW.0>
-1.36671

>  <SCORE.INTRA.norm>
-0.0235693

>  <SCORE.RESTR>
0

>  <SCORE.RESTR.CAVITY>
0

>  <SCORE.RESTR.norm>
0

>  <SCORE.SYSTEM>
0

>  <SCORE.SYSTEM.CONST>
0

>  <SCORE.SYSTEM.DIHEDRAL>
0

>  <SCORE.SYSTEM.SOLV>
0

>  <SCORE.SYSTEM.norm>
0

>  <SCORE.heavy>
14

>  <SCORE.norm>
0.0180039

>  <RMSD>
6.622

$$$$
ligand
 OpenBabel11021811393D
libRbt.so/2013.1/901 2013/11/27
 14 13  0  0  0  0  0  0  0  0999 V2000
    1.4525   -0.9977   10.3911 N   0  0  0  0  0  0  0  0  0  0  0  0
    0.1302   -0.5661   11.0262 C   0  0  0  0  0  0  0  0  0  0  0  0
   -0.6622    0.0355    9.9231 C   0  0  0  0  0  0  0  0  0  0  0  0
   -2.0371    0.5370   10.3339 C   0  0  0  0  0  0  0  0  0  0  0  0
   -2.7587    1.0445    9.1364 N   0  0  0  0  0  0  0  0  0  0  0  0
   -3.9842    1.8601    9.5869 C   0  0  0  0  0  0  0  0  0  0  0  0
   -4.5123    2.4646    8.1985 C   0  0  0  0  0  0  0  0  0  0  0  0
   -5.5146    3.2765    8.4328 C   0  0  0  0  0  0  0  0  0  0  0  0
   -5.7691    3.7215    6.8775 C   0  0  0  0  0  0  0  0  0  0  0  0
   -7.0071    2.8079    6.5880 N   0  0  0  0  0  0  0  0  0  0  0  0
   -8.3496    3.6141    6.3712 C   0  0  0  0  0  0  0  0  0  0  0  0
   -9.5500    2.5073    6.4125 C   0  0  0  0  0  0  0  0  0  0  0  0
  -10.7778    3.3054    6.0827 C   0  0  0  0  0  0  0  0  0  0  0  0
  -11.0511    4.1416    7.3107 N   0  0  0  0  0  0  0  0  0  0  0  0
  1  2  1  0  0  0  0
  2  3  1  0  0  0  0
  3  4  1  0  0  0  0
  4  5  1  0  0  0  0
  5  6  1  0  0  0  0
  6  7  1  0  0  0  0
  7  8  1  0  0  0  0
  8  9  1  0  0  0  0
  9 10  1  0  0  0  0
 10 11  1  0  0  0  0
 11 12  1  0  0  0  0
 12 13  1  0  0  0  0
 13 14  1  0  0  0  0
M  END
>  <CHROM.1>
179.81724650,-176.86903619,-166.08901442,173.20400460,-175.40585010,178.65490259
101.36245975,112.33346573,-167.96384540,-175.19535536,-72.39060780,-5.02801115
1.98239813,8.33367456,-0.51344562,-0.03324865,-0.74311840

>  <Name>
ligand

>  <RI>
0

>  <Rbt.Current_Directory>
/home/itssahil/PROJECTS/Mol_Feturizer/New_Systems/rnas/1FUF

>  <Rbt.Executable>
rbdock ($Id: //depot/dev/client3/rdock/2013.1/src/exe/rbdock.cxx#4 $)

>  <Rbt.Library>
libRbt.so (2013.1, Build901 2013/11/27)

>  <Rbt.Parameter_File>
/export/apps/rDock/src/rDock_2013.1_src/data/scripts/dock_solv.prm

>  <Rbt.Receptor>
prm/blind_docking_40.prm

>  <SCORE>
1.91292

>  <SCORE.INTER>
2.9958

>  <SCORE.INTER.CONST>
1

>  <SCORE.INTER.POLAR>
0

>  <SCORE.INTER.ROT>
11

>  <SCORE.INTER.SOLV>
14.8111

>  <SCORE.INTER.VDW>
-13.8732

>  <SCORE.INTER.norm>
0.213986

>  <SCORE.INTRA>
-1.08288

>  <SCORE.INTRA.DIHEDRAL>
-4.04039

>  <SCORE.INTRA.DIHEDRAL.0>
10.5765

>  <SCORE.INTRA.POLAR>
0

>  <SCORE.INTRA.POLAR.0>
0

>  <SCORE.INTRA.REPUL>
0

>  <SCORE.INTRA.REPUL.0>
0

>  <SCORE.INTRA.SOLV>
1.04019

>  <SCORE.INTRA.SOLV.lig_0>
-50.1861

>  <SCORE.INTRA.VDW>
0.417221

>  <SCORE.INTRA.VDW.0>
-1.36671

>  <SCORE.INTRA.norm>
-0.0773486

>  <SCORE.RESTR>
0

>  <SCORE.RESTR.CAVITY>
0

>  <SCORE.RESTR.norm>
0

>  <SCORE.SYSTEM>
0

>  <SCORE.SYSTEM.CONST>
0

>  <SCORE.SYSTEM.DIHEDRAL>
0

>  <SCORE.SYSTEM.SOLV>
0

>  <SCORE.SYSTEM.norm>
0

>  <SCORE.heavy>
14

>  <SCORE.norm>
0.136637

>  <RMSD>
6.632

$$$$
ligand
 OpenBabel11021811393D
libRbt.so/2013.1/901 2013/11/27
 14 13  0  0  0  0  0  0  0  0999 V2000
    0.2708   -1.7150   10.6330 N   0  0  0  0  0  0  0  0  0  0  0  0
    0.5025   -0.2701   11.0764 C   0  0  0  0  0  0  0  0  0  0  0  0
   -0.8166    0.4008   10.9480 C   0  0  0  0  0  0  0  0  0  0  0  0
   -1.3166    0.5424    9.5195 C   0  0  0  0  0  0  0  0  0  0  0  0
   -2.5565    1.3638    9.5065 N   0  0  0  0  0  0  0  0  0  0  0  0
   -2.7294    2.0047    8.1175 C   0  0  0  0  0  0  0  0  0  0  0  0
   -4.2282    2.5701    8.1944 C   0  0  0  0  0  0  0  0  0  0  0  0
   -4.5454    3.1142    7.0446 C   0  0  0  0  0  0  0  0  0  0  0  0
   -6.0750    3.5377    7.4480 C   0  0  0  0  0  0  0  0  0  0  0  0
   -6.5697    3.9557    6.0225 N   0  0  0  0  0  0  0  0  0  0  0  0
   -8.1095    4.3096    5.9673 C   0  0  0  0  0  0  0  0  0  0  0  0
   -8.9011    2.8825    6.0333 C   0  0  0  0  0  0  0  0  0  0  0  0
  -10.3467    3.2758    5.9393 C   0  0  0  0  0  0  0  0  0  0  0  0
  -11.1209    1.9879    6.0932 N   0  0  0  0  0  0  0  0  0  0  0  0
  1  2  1  0  0  0  0
  2  3  1  0  0  0  0
  3  4  1  0  0  0  0
  4  5  1  0  0  0  0
  5  6  1  0  0  0  0
  6  7  1  0  0  0  0
  7  8  1  0  0  0  0
  8  9  1  0  0  0  0
  9 10  1  0  0  0  0
 10 11  1  0  0  0  0
 11 12  1  0  0  0  0
 12 13  1  0  0  0  0
 13 14  1  0  0  0  0
M  END
>  <CHROM.1>
-66.80243118,-173.39305665,156.08610443,168.50860803,-177.76598342,178.90441884
-170.31921446,174.22225707,-75.09376889,-178.48390764,-176.19160076,-4.75292206
1.99738845,8.03880921,0.50108530,0.26287281,2.66593306

>  <Name>
ligand

>  <RI>
0

>  <Rbt.Current_Directory>
/home/itssahil/PROJECTS/Mol_Feturizer/New_Systems/rnas/1FUF

>  <Rbt.Executable>
rbdock ($Id: //depot/dev/client3/rdock/2013.1/src/exe/rbdock.cxx#4 $)

>  <Rbt.Library>
libRbt.so (2013.1, Build901 2013/11/27)

>  <Rbt.Parameter_File>
/export/apps/rDock/src/rDock_2013.1_src/data/scripts/dock_solv.prm

>  <Rbt.Receptor>
prm/blind_docking_20.prm

>  <SCORE>
-1.40516

>  <SCORE.INTER>
2.41615

>  <SCORE.INTER.CONST>
1

>  <SCORE.INTER.POLAR>
0

>  <SCORE.INTER.ROT>
11

>  <SCORE.INTER.SOLV>
16.9657

>  <SCORE.INTER.VDW>
-14.9778

>  <SCORE.INTER.norm>
0.172582

>  <SCORE.INTRA>
-3.82131

>  <SCORE.INTRA.DIHEDRAL>
-9.08296

>  <SCORE.INTRA.DIHEDRAL.0>
10.5765

>  <SCORE.INTRA.POLAR>
0

>  <SCORE.INTRA.POLAR.0>
0

>  <SCORE.INTRA.REPUL>
0

>  <SCORE.INTRA.REPUL.0>
0

>  <SCORE.INTRA.SOLV>
0.663962

>  <SCORE.INTRA.SOLV.lig_0>
-50.1861

>  <SCORE.INTRA.VDW>
0.388191

>  <SCORE.INTRA.VDW.0>
-1.36671

>  <SCORE.INTRA.norm>
-0.27295

>  <SCORE.RESTR>
0

>  <SCORE.RESTR.CAVITY>
0

>  <SCORE.RESTR.norm>
0

>  <SCORE.SYSTEM>
0

>  <SCORE.SYSTEM.CONST>
0

>  <SCORE.SYSTEM.DIHEDRAL>
0

>  <SCORE.SYSTEM.SOLV>
0

>  <SCORE.SYSTEM.norm>
0

>  <SCORE.heavy>
14

>  <SCORE.norm>
-0.100368

>  <RMSD>
6.640

$$$$
ligand
 OpenBabel11021811393D
libRbt.so/2013.1/901 2013/11/27
 14 13  0  0  0  0  0  0  0  0999 V2000
   -0.1647   -0.4351   10.2079 N   0  0  0  0  0  0  0  0  0  0  0  0
   -0.9130    0.7248   10.8656 C   0  0  0  0  0  0  0  0  0  0  0  0
   -2.2931    0.6676   10.3189 C   0  0  0  0  0  0  0  0  0  0  0  0
   -2.3890    0.9036    8.8204 C   0  0  0  0  0  0  0  0  0  0  0  0
   -2.1205    2.3364    8.5252 N   0  0  0  0  0  0  0  0  0  0  0  0
   -2.3485    2.5999    7.0257 C   0  0  0  0  0  0  0  0  0  0  0  0
   -3.7292    3.4158    7.0357 C   0  0  0  0  0  0  0  0  0  0  0  0
   -4.6879    2.6395    7.4794 C   0  0  0  0  0  0  0  0  0  0  0  0
   -5.9040    3.7242    7.3171 C   0  0  0  0  0  0  0  0  0  0  0  0
   -7.0474    2.8690    7.9595 N   0  0  0  0  0  0  0  0  0  0  0  0
   -8.1591    3.7366    8.6741 C   0  0  0  0  0  0  0  0  0  0  0  0
   -8.8468    2.7580    9.7864 C   0  0  0  0  0  0  0  0  0  0  0  0
   -9.5934    1.7526    8.9587 C   0  0  0  0  0  0  0  0  0  0  0  0
  -10.7730    2.5039    8.3876 N   0  0  0  0  0  0  0  0  0  0  0  0
  1  2  1  0  0  0  0
  2  3  1  0  0  0  0
  3  4  1  0  0  0  0
  4  5  1  0  0  0  0
  5  6  1  0  0  0  0
  6  7  1  0  0  0  0
  7  8  1  0  0  0  0
  8  9  1  0  0  0  0
  9 10  1  0  0  0  0
 10 11  1  0  0  0  0
 11 12  1  0  0  0  0
 12 13  1  0  0  0  0
 13 14  1  0  0  0  0
M  END
>  <CHROM.1>
-63.84422631,-71.61628397,-174.69476437,106.64756244,-64.89622364,-178.28740633
-175.25193648,149.85637354,-155.85030446,-69.20583301,-72.06490448,-4.92634687
2.15705393,8.66868105,0.23172700,-0.11492432,2.24479851

>  <Name>
ligand

>  <RI>
0

>  <Rbt.Current_Directory>
/home/itssahil/PROJECTS/Mol_Feturizer/New_Systems/rnas/1FUF

>  <Rbt.Executable>
rbdock ($Id: //depot/dev/client3/rdock/2013.1/src/exe/rbdock.cxx#4 $)

>  <Rbt.Library>
libRbt.so (2013.1, Build901 2013/11/27)

>  <Rbt.Parameter_File>
/export/apps/rDock/src/rDock_2013.1_src/data/scripts/dock_solv.prm

>  <Rbt.Receptor>
prm/blind_docking_100.prm

>  <SCORE>
0.784197

>  <SCORE.INTER>
0.85325

>  <SCORE.INTER.CONST>
1

>  <SCORE.INTER.POLAR>
0

>  <SCORE.INTER.ROT>
11

>  <SCORE.INTER.SOLV>
14.3055

>  <SCORE.INTER.VDW>
-15.133

>  <SCORE.INTER.norm>
0.0609464

>  <SCORE.INTRA>
-0.0690534

>  <SCORE.INTRA.DIHEDRAL>
-6.8855

>  <SCORE.INTRA.DIHEDRAL.0>
10.5765

>  <SCORE.INTRA.POLAR>
0

>  <SCORE.INTRA.POLAR.0>
0

>  <SCORE.INTRA.REPUL>
0

>  <SCORE.INTRA.REPUL.0>
0

>  <SCORE.INTRA.SOLV>
3.77359

>  <SCORE.INTRA.SOLV.lig_0>
-50.1861

>  <SCORE.INTRA.VDW>
1.4869

>  <SCORE.INTRA.VDW.0>
-1.36671

>  <SCORE.INTRA.norm>
-0.00493238

>  <SCORE.RESTR>
0

>  <SCORE.RESTR.CAVITY>
0

>  <SCORE.RESTR.norm>
0

>  <SCORE.SYSTEM>
0

>  <SCORE.SYSTEM.CONST>
0

>  <SCORE.SYSTEM.DIHEDRAL>
0

>  <SCORE.SYSTEM.SOLV>
0

>  <SCORE.SYSTEM.norm>
0

>  <SCORE.heavy>
14

>  <SCORE.norm>
0.0560141

>  <RMSD>
6.720

$$$$
ligand
 OpenBabel11021811393D
libRbt.so/2013.1/901 2013/11/27
 14 13  0  0  0  0  0  0  0  0999 V2000
  -12.3831   -0.2981   10.2956 N   0  0  0  0  0  0  0  0  0  0  0  0
  -10.9502    0.0717    9.9106 C   0  0  0  0  0  0  0  0  0  0  0  0
  -11.0421    1.4146    9.2822 C   0  0  0  0  0  0  0  0  0  0  0  0
   -9.7344    1.9330    8.7062 C   0  0  0  0  0  0  0  0  0  0  0  0
   -8.7358    2.0830    9.7982 N   0  0  0  0  0  0  0  0  0  0  0  0
   -7.5163    2.8609    9.2712 C   0  0  0  0  0  0  0  0  0  0  0  0
   -6.2957    1.9522    9.7774 C   0  0  0  0  0  0  0  0  0  0  0  0
   -5.1672    2.4673    9.3534 C   0  0  0  0  0  0  0  0  0  0  0  0
   -4.1853    1.3074    9.9633 C   0  0  0  0  0  0  0  0  0  0  0  0
   -2.8249    1.8685    9.4287 N   0  0  0  0  0  0  0  0  0  0  0  0
   -1.7630    0.7439    9.1020 C   0  0  0  0  0  0  0  0  0  0  0  0
   -1.0013    0.4225   10.5107 C   0  0  0  0  0  0  0  0  0  0  0  0
    0.0611   -0.5636   10.1206 C   0  0  0  0  0  0  0  0  0  0  0  0
    0.8023   -0.8771   11.3990 N   0  0  0  0  0  0  0  0  0  0  0  0
  1  2  1  0  0  0  0
  2  3  1  0  0  0  0
  3  4  1  0  0  0  0
  4  5  1  0  0  0  0
  5  6  1  0  0  0  0
  6  7  1  0  0  0  0
  7  8  1  0  0  0  0
  8  9  1  0  0  0  0
  9 10  1  0  0  0  0
 10 11  1  0  0  0  0
 11 12  1  0  0  0  0
 12 13  1  0  0  0  0
 13 14  1  0  0  0  0
M  END
>  <CHROM.1>
-174.87262264,-62.22006317,-168.95348882,-131.92554123,177.56295724,-177.65897354
178.11451786,-148.47685685,-85.46686710,-175.64376713,179.39764644,-5.76684702
1.09919113,9.77974591,3.03354454,-0.02530541,-0.41203659

>  <Name>
ligand

>  <RI>
0

>  <Rbt.Current_Directory>
/home/itssahil/PROJECTS/Mol_Feturizer/New_Systems/rnas/1FUF

>  <Rbt.Executable>
rbdock ($Id: //depot/dev/client3/rdock/2013.1/src/exe/rbdock.cxx#4 $)

>  <Rbt.Library>
libRbt.so (2013.1, Build901 2013/11/27)

>  <Rbt.Parameter_File>
/export/apps/rDock/src/rDock_2013.1_src/data/scripts/dock_solv.prm

>  <Rbt.Receptor>
prm/blind_docking_20.prm

>  <SCORE>
-0.108315

>  <SCORE.INTER>
3.63352

>  <SCORE.INTER.CONST>
1

>  <SCORE.INTER.POLAR>
0

>  <SCORE.INTER.ROT>
11

>  <SCORE.INTER.SOLV>
18.0739

>  <SCORE.INTER.VDW>
-14.5356

>  <SCORE.INTER.norm>
0.259537

>  <SCORE.INTRA>
-3.74183

>  <SCORE.INTRA.DIHEDRAL>
-8.03618

>  <SCORE.INTRA.DIHEDRAL.0>
10.5765

>  <SCORE.INTRA.POLAR>
0

>  <SCORE.INTRA.POLAR.0>
0

>  <SCORE.INTRA.REPUL>
0

>  <SCORE.INTRA.REPUL.0>
0

>  <SCORE.INTRA.SOLV>
0.198722

>  <SCORE.INTRA.SOLV.lig_0>
-50.1861

>  <SCORE.INTRA.VDW>
0.176899

>  <SCORE.INTRA.VDW.0>
-1.36671

>  <SCORE.INTRA.norm>
-0.267274

>  <SCORE.RESTR>
0

>  <SCORE.RESTR.CAVITY>
0

>  <SCORE.RESTR.norm>
0

>  <SCORE.SYSTEM>
0

>  <SCORE.SYSTEM.CONST>
0

>  <SCORE.SYSTEM.DIHEDRAL>
0

>  <SCORE.SYSTEM.SOLV>
0

>  <SCORE.SYSTEM.norm>
0

>  <SCORE.heavy>
14

>  <SCORE.norm>
-0.00773676

>  <RMSD>
6.765

$$$$
ligand
 OpenBabel11021811393D
libRbt.so/2013.1/901 2013/11/27
 14 13  0  0  0  0  0  0  0  0999 V2000
   -0.2433   -0.3765   10.7949 N   0  0  0  0  0  0  0  0  0  0  0  0
    1.1537   -0.8110   10.3504 C   0  0  0  0  0  0  0  0  0  0  0  0
    1.5373   -1.9138   11.2687 C   0  0  0  0  0  0  0  0  0  0  0  0
    2.9073   -2.5138   10.9973 C   0  0  0  0  0  0  0  0  0  0  0  0
    2.9135   -3.1495    9.6526 N   0  0  0  0  0  0  0  0  0  0  0  0
    4.3257   -3.6796    9.3453 C   0  0  0  0  0  0  0  0  0  0  0  0
    4.0463   -5.2342    9.0679 C   0  0  0  0  0  0  0  0  0  0  0  0
    5.1742   -5.8296    8.7646 C   0  0  0  0  0  0  0  0  0  0  0  0
    4.5584   -7.3387    8.6062 C   0  0  0  0  0  0  0  0  0  0  0  0
    5.9107   -8.1119    8.4492 N   0  0  0  0  0  0  0  0  0  0  0  0
    5.8429   -9.6101    8.9491 C   0  0  0  0  0  0  0  0  0  0  0  0
    7.0869  -10.3820    8.2250 C   0  0  0  0  0  0  0  0  0  0  0  0
    6.6497  -10.4906    6.7931 C   0  0  0  0  0  0  0  0  0  0  0  0
    7.7435  -11.2690    6.1005 N   0  0  0  0  0  0  0  0  0  0  0  0
  1  2  1  0  0  0  0
  2  3  1  0  0  0  0
  3  4  1  0  0  0  0
  4  5  1  0  0  0  0
  5  6  1  0  0  0  0
  6  7  1  0  0  0  0
  7  8  1  0  0  0  0
  8  9  1  0  0  0  0
  9 10  1  0  0  0  0
 10 11  1  0  0  0  0
 11 12  1  0  0  0  0
 12 13  1  0  0  0  0
 13 14  1  0  0  0  0
M  END
>  <CHROM.1>
179.49425918,-63.75518201,176.54276941,122.87525478,178.97650407,178.09233277
-172.18768210,152.19785091,159.54255284,-72.22069301,-176.98648159,4.25770251
-5.76503291,9.09763339,2.74267262,0.99804615,-0.75719891

>  <Name>
ligand

>  <RI>
0

>  <Rbt.Current_Directory>
/home/itssahil/PROJECTS/Mol_Feturizer/New_Systems/rnas/1FUF

>  <Rbt.Executable>
rbdock ($Id: //depot/dev/client3/rdock/2013.1/src/exe/rbdock.cxx#4 $)

>  <Rbt.Library>
libRbt.so (2013.1, Build901 2013/11/27)

>  <Rbt.Parameter_File>
/export/apps/rDock/src/rDock_2013.1_src/data/scripts/dock_solv.prm

>  <Rbt.Receptor>
prm/pocket_docking_8.prm

>  <SCORE>
-3.58447

>  <SCORE.INTER>
-0.21717

>  <SCORE.INTER.CONST>
1

>  <SCORE.INTER.POLAR>
0

>  <SCORE.INTER.ROT>
11

>  <SCORE.INTER.SOLV>
13.3541

>  <SCORE.INTER.VDW>
-15.5295

>  <SCORE.INTER.norm>
-0.0155122

>  <SCORE.INTRA>
-3.3673

>  <SCORE.INTRA.DIHEDRAL>
-7.64846

>  <SCORE.INTRA.DIHEDRAL.0>
10.5765

>  <SCORE.INTRA.POLAR>
0

>  <SCORE.INTRA.POLAR.0>
0

>  <SCORE.INTRA.REPUL>
0

>  <SCORE.INTRA.REPUL.0>
0

>  <SCORE.INTRA.SOLV>
0.641739

>  <SCORE.INTRA.SOLV.lig_0>
-50.1861

>  <SCORE.INTRA.VDW>
0.136054

>  <SCORE.INTRA.VDW.0>
-1.36671

>  <SCORE.INTRA.norm>
-0.240522

>  <SCORE.RESTR>
0

>  <SCORE.RESTR.CAVITY>
0

>  <SCORE.RESTR.norm>
0

>  <SCORE.SYSTEM>
0

>  <SCORE.SYSTEM.CONST>
0

>  <SCORE.SYSTEM.DIHEDRAL>
0

>  <SCORE.SYSTEM.SOLV>
0

>  <SCORE.SYSTEM.norm>
0

>  <SCORE.heavy>
14

>  <SCORE.norm>
-0.256034

>  <RMSD>
6.785

$$$$
ligand
 OpenBabel11021811393D
libRbt.so/2013.1/901 2013/11/27
 14 13  0  0  0  0  0  0  0  0999 V2000
    0.0084   -1.6439   10.5185 N   0  0  0  0  0  0  0  0  0  0  0  0
    1.1577   -1.4280   11.5036 C   0  0  0  0  0  0  0  0  0  0  0  0
    2.2805   -2.2545   10.9909 C   0  0  0  0  0  0  0  0  0  0  0  0
    2.0293   -3.7532   11.0274 C   0  0  0  0  0  0  0  0  0  0  0  0
    3.2079   -4.4680   10.4684 N   0  0  0  0  0  0  0  0  0  0  0  0
    2.8482   -5.9480   10.2449 C   0  0  0  0  0  0  0  0  0  0  0  0
    4.1683   -6.5082    9.5270 C   0  0  0  0  0  0  0  0  0  0  0  0
    4.2828   -5.9597    8.3418 C   0  0  0  0  0  0  0  0  0  0  0  0
    5.8453   -6.3783    8.0865 C   0  0  0  0  0  0  0  0  0  0  0  0
    6.0840   -5.5480    6.7808 N   0  0  0  0  0  0  0  0  0  0  0  0
    7.6121   -5.3668    6.4185 C   0  0  0  0  0  0  0  0  0  0  0  0
    8.0917   -6.7875    5.7707 C   0  0  0  0  0  0  0  0  0  0  0  0
    9.5304   -6.5465    5.4170 C   0  0  0  0  0  0  0  0  0  0  0  0
   10.0652   -7.8915    4.9848 N   0  0  0  0  0  0  0  0  0  0  0  0
  1  2  1  0  0  0  0
  2  3  1  0  0  0  0
  3  4  1  0  0  0  0
  4  5  1  0  0  0  0
  5  6  1  0  0  0  0
  6  7  1  0  0  0  0
  7  8  1  0  0  0  0
  8  9  1  0  0  0  0
  9 10  1  0  0  0  0
 10 11  1  0  0  0  0
 11 12  1  0  0  0  0
 12 13  1  0  0  0  0
 13 14  1  0  0  0  0
M  END
>  <CHROM.1>
-65.82783494,178.95083143,-168.79493949,175.00047317,-67.02478982,165.08004857
-171.58621602,164.04469974,77.17995479,178.64002397,172.64959968,4.80082746
-5.03450405,8.57735742,-2.81867405,-0.68381278,2.96120772

>  <Name>
ligand

>  <RI>
0

>  <Rbt.Current_Directory>
/home/itssahil/PROJECTS/Mol_Feturizer/New_Systems/rnas/1FUF

>  <Rbt.Executable>
rbdock ($Id: //depot/dev/client3/rdock/2013.1/src/exe/rbdock.cxx#4 $)

>  <Rbt.Library>
libRbt.so (2013.1, Build901 2013/11/27)

>  <Rbt.Parameter_File>
/export/apps/rDock/src/rDock_2013.1_src/data/scripts/dock_solv.prm

>  <Rbt.Receptor>
prm/pocket_docking_6.prm

>  <SCORE>
-2.81873

>  <SCORE.INTER>
-0.0781346

>  <SCORE.INTER.CONST>
1

>  <SCORE.INTER.POLAR>
0

>  <SCORE.INTER.ROT>
11

>  <SCORE.INTER.SOLV>
12.5519

>  <SCORE.INTER.VDW>
-15.1694

>  <SCORE.INTER.norm>
-0.00558104

>  <SCORE.INTRA>
-2.7406

>  <SCORE.INTRA.DIHEDRAL>
-8.35551

>  <SCORE.INTRA.DIHEDRAL.0>
10.5765

>  <SCORE.INTRA.POLAR>
0

>  <SCORE.INTRA.POLAR.0>
0

>  <SCORE.INTRA.REPUL>
0

>  <SCORE.INTRA.REPUL.0>
0

>  <SCORE.INTRA.SOLV>
1.25349

>  <SCORE.INTRA.SOLV.lig_0>
-50.1861

>  <SCORE.INTRA.VDW>
0.810413

>  <SCORE.INTRA.VDW.0>
-1.36671

>  <SCORE.INTRA.norm>
-0.195757

>  <SCORE.RESTR>
0

>  <SCORE.RESTR.CAVITY>
0

>  <SCORE.RESTR.norm>
0

>  <SCORE.SYSTEM>
0

>  <SCORE.SYSTEM.CONST>
0

>  <SCORE.SYSTEM.DIHEDRAL>
0

>  <SCORE.SYSTEM.SOLV>
0

>  <SCORE.SYSTEM.norm>
0

>  <SCORE.heavy>
14

>  <SCORE.norm>
-0.201338

>  <RMSD>
6.815

$$$$
ligand
 OpenBabel11021811393D
libRbt.so/2013.1/901 2013/11/27
 14 13  0  0  0  0  0  0  0  0999 V2000
    9.4250   -7.8930    3.9166 N   0  0  0  0  0  0  0  0  0  0  0  0
    8.5621   -7.4757    5.1080 C   0  0  0  0  0  0  0  0  0  0  0  0
    8.6930   -5.9985    5.1948 C   0  0  0  0  0  0  0  0  0  0  0  0
    8.0455   -5.3783    6.4222 C   0  0  0  0  0  0  0  0  0  0  0  0
    6.5757   -5.6013    6.3744 N   0  0  0  0  0  0  0  0  0  0  0  0
    6.0429   -5.7999    7.8050 C   0  0  0  0  0  0  0  0  0  0  0  0
    4.4679   -5.9689    7.5549 C   0  0  0  0  0  0  0  0  0  0  0  0
    3.8489   -6.0194    8.7094 C   0  0  0  0  0  0  0  0  0  0  0  0
    3.7153   -4.4018    8.9268 C   0  0  0  0  0  0  0  0  0  0  0  0
    3.0856   -4.4247   10.3601 N   0  0  0  0  0  0  0  0  0  0  0  0
    3.3839   -3.1200   11.2014 C   0  0  0  0  0  0  0  0  0  0  0  0
    2.4628   -1.9417   10.5450 C   0  0  0  0  0  0  0  0  0  0  0  0
    1.0595   -2.3822   10.8447 C   0  0  0  0  0  0  0  0  0  0  0  0
    0.1776   -1.2479   10.3783 N   0  0  0  0  0  0  0  0  0  0  0  0
  1  2  1  0  0  0  0
  2  3  1  0  0  0  0
  3  4  1  0  0  0  0
  4  5  1  0  0  0  0
  5  6  1  0  0  0  0
  6  7  1  0  0  0  0
  7  8  1  0  0  0  0
  8  9  1  0  0  0  0
  9 10  1  0  0  0  0
 10 11  1  0  0  0  0
 11 12  1  0  0  0  0
 12 13  1  0  0  0  0
 13 14  1  0  0  0  0
M  END
>  <CHROM.1>
-172.93315175,-63.93690139,145.68296318,178.06343817,-173.91066288,84.89256964
-175.46172145,153.81070513,72.74501061,66.20282342,174.36339273,4.96760404
-4.83238462,8.09596450,0.55139017,-0.61449314,-2.99632861

>  <Name>
ligand

>  <RI>
0

>  <Rbt.Current_Directory>
/home/itssahil/PROJECTS/Mol_Feturizer/New_Systems/rnas/1FUF

>  <Rbt.Executable>
rbdock ($Id: //depot/dev/client3/rdock/2013.1/src/exe/rbdock.cxx#4 $)

>  <Rbt.Library>
libRbt.so (2013.1, Build901 2013/11/27)

>  <Rbt.Parameter_File>
/export/apps/rDock/src/rDock_2013.1_src/data/scripts/dock_solv.prm

>  <Rbt.Receptor>
prm/pocket_docking_8.prm

>  <SCORE>
-1.19564

>  <SCORE.INTER>
-0.411234

>  <SCORE.INTER.CONST>
1

>  <SCORE.INTER.POLAR>
0

>  <SCORE.INTER.ROT>
11

>  <SCORE.INTER.SOLV>
13.5634

>  <SCORE.INTER.VDW>
-15.7286

>  <SCORE.INTER.norm>
-0.0293738

>  <SCORE.INTRA>
-0.784405

>  <SCORE.INTRA.DIHEDRAL>
-6.25222

>  <SCORE.INTRA.DIHEDRAL.0>
10.5765

>  <SCORE.INTRA.POLAR>
0

>  <SCORE.INTRA.POLAR.0>
0

>  <SCORE.INTRA.REPUL>
0

>  <SCORE.INTRA.REPUL.0>
0

>  <SCORE.INTRA.SOLV>
1.09548

>  <SCORE.INTRA.SOLV.lig_0>
-50.1861

>  <SCORE.INTRA.VDW>
1.79397

>  <SCORE.INTRA.VDW.0>
-1.36671

>  <SCORE.INTRA.norm>
-0.0560289

>  <SCORE.RESTR>
0

>  <SCORE.RESTR.CAVITY>
0

>  <SCORE.RESTR.norm>
0

>  <SCORE.SYSTEM>
0

>  <SCORE.SYSTEM.CONST>
0

>  <SCORE.SYSTEM.DIHEDRAL>
0

>  <SCORE.SYSTEM.SOLV>
0

>  <SCORE.SYSTEM.norm>
0

>  <SCORE.heavy>
14

>  <SCORE.norm>
-0.0854027

>  <RMSD>
6.923

$$$$
ligand
 OpenBabel11021811393D
libRbt.so/2013.1/901 2013/11/27
 14 13  0  0  0  0  0  0  0  0999 V2000
    0.6749    0.1768   10.5342 N   0  0  0  0  0  0  0  0  0  0  0  0
   -0.4904   -0.4277   11.3184 C   0  0  0  0  0  0  0  0  0  0  0  0
   -1.6992   -0.1705   10.4942 C   0  0  0  0  0  0  0  0  0  0  0  0
   -2.0980    1.2932   10.3978 C   0  0  0  0  0  0  0  0  0  0  0  0
   -3.1153    1.4611    9.3258 N   0  0  0  0  0  0  0  0  0  0  0  0
   -2.5690    2.4159    8.2490 C   0  0  0  0  0  0  0  0  0  0  0  0
   -3.8232    2.5568    7.2595 C   0  0  0  0  0  0  0  0  0  0  0  0
   -4.8124    3.1376    7.8940 C   0  0  0  0  0  0  0  0  0  0  0  0
   -5.8088    3.2849    6.6028 C   0  0  0  0  0  0  0  0  0  0  0  0
   -7.0771    3.8004    7.3625 N   0  0  0  0  0  0  0  0  0  0  0  0
   -8.4160    3.6392    6.5375 C   0  0  0  0  0  0  0  0  0  0  0  0
   -9.6205    4.0941    7.5425 C   0  0  0  0  0  0  0  0  0  0  0  0
  -10.8613    3.8850    6.7241 C   0  0  0  0  0  0  0  0  0  0  0  0
  -12.0009    4.3407    7.6045 N   0  0  0  0  0  0  0  0  0  0  0  0
  1  2  1  0  0  0  0
  2  3  1  0  0  0  0
  3  4  1  0  0  0  0
  4  5  1  0  0  0  0
  5  6  1  0  0  0  0
  6  7  1  0  0  0  0
  7  8  1  0  0  0  0
  8  9  1  0  0  0  0
  9 10  1  0  0  0  0
 10 11  1  0  0  0  0
 11 12  1  0  0  0  0
 12 13  1  0  0  0  0
 13 14  1  0  0  0  0
M  END
>  <CHROM.1>
-68.29593728,167.55651858,-119.49071963,-175.90308125,64.28857707,173.59100350
172.79930715,-161.67095499,174.75948572,-178.47345747,-178.11312363,-5.12255605
2.39193840,8.41752325,-0.47271883,0.14084280,-1.00687254

>  <Name>
ligand

>  <RI>
0

>  <Rbt.Current_Directory>
/home/itssahil/PROJECTS/Mol_Feturizer/New_Systems/rnas/1FUF

>  <Rbt.Executable>
rbdock ($Id: //depot/dev/client3/rdock/2013.1/src/exe/rbdock.cxx#4 $)

>  <Rbt.Library>
libRbt.so (2013.1, Build901 2013/11/27)

>  <Rbt.Parameter_File>
/export/apps/rDock/src/rDock_2013.1_src/data/scripts/dock_solv.prm

>  <Rbt.Receptor>
prm/blind_docking_20.prm

>  <SCORE>
0.55827

>  <SCORE.INTER>
3.0669

>  <SCORE.INTER.CONST>
1

>  <SCORE.INTER.POLAR>
0

>  <SCORE.INTER.ROT>
11

>  <SCORE.INTER.SOLV>
14.6099

>  <SCORE.INTER.VDW>
-13.7587

>  <SCORE.INTER.norm>
0.219064

>  <SCORE.INTRA>
-2.50863

>  <SCORE.INTRA.DIHEDRAL>
-7.80695

>  <SCORE.INTRA.DIHEDRAL.0>
10.5765

>  <SCORE.INTRA.POLAR>
0

>  <SCORE.INTRA.POLAR.0>
0

>  <SCORE.INTRA.REPUL>
0

>  <SCORE.INTRA.REPUL.0>
0

>  <SCORE.INTRA.SOLV>
1.36366

>  <SCORE.INTRA.SOLV.lig_0>
-50.1861

>  <SCORE.INTRA.VDW>
0.713019

>  <SCORE.INTRA.VDW.0>
-1.36671

>  <SCORE.INTRA.norm>
-0.179188

>  <SCORE.RESTR>
0

>  <SCORE.RESTR.CAVITY>
0

>  <SCORE.RESTR.norm>
0

>  <SCORE.SYSTEM>
0

>  <SCORE.SYSTEM.CONST>
0

>  <SCORE.SYSTEM.DIHEDRAL>
0

>  <SCORE.SYSTEM.SOLV>
0

>  <SCORE.SYSTEM.norm>
0

>  <SCORE.heavy>
14

>  <SCORE.norm>
0.0398764

>  <RMSD>
6.929

$$$$
ligand
 OpenBabel11021811393D
libRbt.so/2013.1/901 2013/11/27
 14 13  0  0  0  0  0  0  0  0999 V2000
    0.4521   -1.5119   11.4216 N   0  0  0  0  0  0  0  0  0  0  0  0
    1.6047   -1.4371   10.4196 C   0  0  0  0  0  0  0  0  0  0  0  0
    2.0805   -2.8348   10.2568 C   0  0  0  0  0  0  0  0  0  0  0  0
    2.7520   -3.4207   11.4883 C   0  0  0  0  0  0  0  0  0  0  0  0
    3.2647   -4.7812   11.1744 N   0  0  0  0  0  0  0  0  0  0  0  0
    4.7730   -4.7020   10.8770 C   0  0  0  0  0  0  0  0  0  0  0  0
    4.8201   -5.0070    9.3033 C   0  0  0  0  0  0  0  0  0  0  0  0
    6.0694   -5.0634    8.9101 C   0  0  0  0  0  0  0  0  0  0  0  0
    5.7608   -5.3879    7.3350 C   0  0  0  0  0  0  0  0  0  0  0  0
    7.2323   -5.6609    6.8751 N   0  0  0  0  0  0  0  0  0  0  0  0
    7.4227   -5.6123    5.3065 C   0  0  0  0  0  0  0  0  0  0  0  0
    8.9228   -6.1903    5.0179 C   0  0  0  0  0  0  0  0  0  0  0  0
    8.7486   -7.6792    5.0960 C   0  0  0  0  0  0  0  0  0  0  0  0
    8.6026   -7.9866    6.5677 N   0  0  0  0  0  0  0  0  0  0  0  0
  1  2  1  0  0  0  0
  2  3  1  0  0  0  0
  3  4  1  0  0  0  0
  4  5  1  0  0  0  0
  5  6  1  0  0  0  0
  6  7  1  0  0  0  0
  7  8  1  0  0  0  0
  8  9  1  0  0  0  0
  9 10  1  0  0  0  0
 10 11  1  0  0  0  0
 11 12  1  0  0  0  0
 12 13  1  0  0  0  0
 13 14  1  0  0  0  0
M  END
>  <CHROM.1>
-68.04327400,-176.16524090,99.44055538,-110.42682487,-175.77873647,179.53117424
-172.47363951,-163.34979635,-169.60183964,80.08903525,-74.47223903,5.17913609
-4.80530957,8.57477681,2.84799697,-0.77183479,2.06906661

>  <Name>
ligand

>  <RI>
0

>  <Rbt.Current_Directory>
/home/itssahil/PROJECTS/Mol_Feturizer/New_Systems/rnas/1FUF

>  <Rbt.Executable>
rbdock ($Id: //depot/dev/client3/rdock/2013.1/src/exe/rbdock.cxx#4 $)

>  <Rbt.Library>
libRbt.so (2013.1, Build901 2013/11/27)

>  <Rbt.Parameter_File>
/export/apps/rDock/src/rDock_2013.1_src/data/scripts/dock_solv.prm

>  <Rbt.Receptor>
prm/pocket_docking_6.prm

>  <SCORE>
-0.136168

>  <SCORE.INTER>
0.192711

>  <SCORE.INTER.CONST>
1

>  <SCORE.INTER.POLAR>
0

>  <SCORE.INTER.ROT>
11

>  <SCORE.INTER.SOLV>
14.0573

>  <SCORE.INTER.VDW>
-15.4906

>  <SCORE.INTER.norm>
0.0137651

>  <SCORE.INTRA>
-0.328879

>  <SCORE.INTRA.DIHEDRAL>
-5.54235

>  <SCORE.INTRA.DIHEDRAL.0>
10.5765

>  <SCORE.INTRA.POLAR>
0

>  <SCORE.INTRA.POLAR.0>
0

>  <SCORE.INTRA.REPUL>
0

>  <SCORE.INTRA.REPUL.0>
0

>  <SCORE.INTRA.SOLV>
4.13555

>  <SCORE.INTRA.SOLV.lig_0>
-50.1861

>  <SCORE.INTRA.VDW>
0.374523

>  <SCORE.INTRA.VDW.0>
-1.36671

>  <SCORE.INTRA.norm>
-0.0234914

>  <SCORE.RESTR>
0

>  <SCORE.RESTR.CAVITY>
0

>  <SCORE.RESTR.norm>
0

>  <SCORE.SYSTEM>
0

>  <SCORE.SYSTEM.CONST>
0

>  <SCORE.SYSTEM.DIHEDRAL>
0

>  <SCORE.SYSTEM.SOLV>
0

>  <SCORE.SYSTEM.norm>
0

>  <SCORE.heavy>
14

>  <SCORE.norm>
-0.00972627

>  <RMSD>
6.992

$$$$
ligand
 OpenBabel11021811393D
libRbt.so/2013.1/901 2013/11/27
 14 13  0  0  0  0  0  0  0  0999 V2000
    7.9219   -8.7441    6.7824 N   0  0  0  0  0  0  0  0  0  0  0  0
    9.0433   -8.5090    5.7699 C   0  0  0  0  0  0  0  0  0  0  0  0
    8.6135   -7.3355    4.9669 C   0  0  0  0  0  0  0  0  0  0  0  0
    8.5929   -6.0213    5.7305 C   0  0  0  0  0  0  0  0  0  0  0  0
    7.5193   -6.0614    6.7591 N   0  0  0  0  0  0  0  0  0  0  0  0
    6.2896   -5.2923    6.2434 C   0  0  0  0  0  0  0  0  0  0  0  0
    5.1984   -5.6087    7.3754 C   0  0  0  0  0  0  0  0  0  0  0  0
    5.4926   -4.9351    8.4609 C   0  0  0  0  0  0  0  0  0  0  0  0
    4.1062   -5.2595    9.2699 C   0  0  0  0  0  0  0  0  0  0  0  0
    4.3773   -4.3745   10.5327 N   0  0  0  0  0  0  0  0  0  0  0  0
    3.0604   -3.8226   11.2111 C   0  0  0  0  0  0  0  0  0  0  0  0
    2.6085   -2.5263   10.3261 C   0  0  0  0  0  0  0  0  0  0  0  0
    1.3877   -2.0207   11.0383 C   0  0  0  0  0  0  0  0  0  0  0  0
    0.9050   -0.8478   10.2179 N   0  0  0  0  0  0  0  0  0  0  0  0
  1  2  1  0  0  0  0
  2  3  1  0  0  0  0
  3  4  1  0  0  0  0
  4  5  1  0  0  0  0
  5  6  1  0  0  0  0
  6  7  1  0  0  0  0
  7  8  1  0  0  0  0
  8  9  1  0  0  0  0
  9 10  1  0  0  0  0
 10 11  1  0  0  0  0
 11 12  1  0  0  0  0
 12 13  1  0  0  0  0
 13 14  1  0  0  0  0
M  END
>  <CHROM.1>
68.54455814,-67.72760891,-100.61420525,172.78731215,73.06472322,170.70008850
-175.82445373,150.76706502,-80.45772944,-178.22255691,-177.88977369,5.36554939
-5.09709391,8.19160943,-0.00248382,-0.83644503,2.32966497

>  <Name>
ligand

>  <RI>
0

>  <Rbt.Current_Directory>
/home/itssahil/PROJECTS/Mol_Feturizer/New_Systems/rnas/1FUF

>  <Rbt.Executable>
rbdock ($Id: //depot/dev/client3/rdock/2013.1/src/exe/rbdock.cxx#4 $)

>  <Rbt.Library>
libRbt.so (2013.1, Build901 2013/11/27)

>  <Rbt.Parameter_File>
/export/apps/rDock/src/rDock_2013.1_src/data/scripts/dock_solv.prm

>  <Rbt.Receptor>
prm/pocket_docking_8.prm

>  <SCORE>
-0.0969556

>  <SCORE.INTER>
0.938352

>  <SCORE.INTER.CONST>
1

>  <SCORE.INTER.POLAR>
0

>  <SCORE.INTER.ROT>
11

>  <SCORE.INTER.SOLV>
12.7752

>  <SCORE.INTER.VDW>
-14.5662

>  <SCORE.INTER.norm>
0.0670251

>  <SCORE.INTRA>
-1.03531

>  <SCORE.INTRA.DIHEDRAL>
-7.16356

>  <SCORE.INTRA.DIHEDRAL.0>
10.5765

>  <SCORE.INTRA.POLAR>
0

>  <SCORE.INTRA.POLAR.0>
0

>  <SCORE.INTRA.REPUL>
0

>  <SCORE.INTRA.REPUL.0>
0

>  <SCORE.INTRA.SOLV>
3.90257

>  <SCORE.INTRA.SOLV.lig_0>
-50.1861

>  <SCORE.INTRA.VDW>
0.59519

>  <SCORE.INTRA.VDW.0>
-1.36671

>  <SCORE.INTRA.norm>
-0.0739505

>  <SCORE.RESTR>
0

>  <SCORE.RESTR.CAVITY>
0

>  <SCORE.RESTR.norm>
0

>  <SCORE.SYSTEM>
0

>  <SCORE.SYSTEM.CONST>
0

>  <SCORE.SYSTEM.DIHEDRAL>
0

>  <SCORE.SYSTEM.SOLV>
0

>  <SCORE.SYSTEM.norm>
0

>  <SCORE.heavy>
14

>  <SCORE.norm>
-0.0069254

>  <RMSD>
7.362

$$$$
ligand
 OpenBabel11021811393D
libRbt.so/2013.1/901 2013/11/27
 14 13  0  0  0  0  0  0  0  0999 V2000
    9.5862   -9.1480    4.0941 N   0  0  0  0  0  0  0  0  0  0  0  0
    8.9712   -7.7536    3.9689 C   0  0  0  0  0  0  0  0  0  0  0  0
    8.5706   -7.3712    5.3472 C   0  0  0  0  0  0  0  0  0  0  0  0
    7.8335   -6.0455    5.4457 C   0  0  0  0  0  0  0  0  0  0  0  0
    7.4741   -5.7814    6.8646 N   0  0  0  0  0  0  0  0  0  0  0  0
    6.0130   -5.3027    6.9403 C   0  0  0  0  0  0  0  0  0  0  0  0
    5.5121   -5.9727    8.3086 C   0  0  0  0  0  0  0  0  0  0  0  0
    4.2949   -5.5628    8.5714 C   0  0  0  0  0  0  0  0  0  0  0  0
    4.1473   -6.3145   10.0188 C   0  0  0  0  0  0  0  0  0  0  0  0
    2.7467   -5.7420   10.4211 N   0  0  0  0  0  0  0  0  0  0  0  0
    2.8153   -4.2989   11.0629 C   0  0  0  0  0  0  0  0  0  0  0  0
    1.4803   -3.5130   10.5452 C   0  0  0  0  0  0  0  0  0  0  0  0
    1.6291   -2.1396   11.1323 C   0  0  0  0  0  0  0  0  0  0  0  0
    0.4062   -1.3776   10.6784 N   0  0  0  0  0  0  0  0  0  0  0  0
  1  2  1  0  0  0  0
  2  3  1  0  0  0  0
  3  4  1  0  0  0  0
  4  5  1  0  0  0  0
  5  6  1  0  0  0  0
  6  7  1  0  0  0  0
  7  8  1  0  0  0  0
  8  9  1  0  0  0  0
  9 10  1  0  0  0  0
 10 11  1  0  0  0  0
 11 12  1  0  0  0  0
 12 13  1  0  0  0  0
 13 14  1  0  0  0  0
M  END
>  <CHROM.1>
-175.64781026,179.37319195,-134.55477362,143.95730232,174.90731637,-176.16563897
175.29096744,-82.40659931,144.29935941,-177.60503043,-179.83760850,5.10576523
-5.45165796,8.09999703,0.10920375,-0.80575898,2.65586787

>  <Name>
ligand

>  <RI>
0

>  <Rbt.Current_Directory>
/home/itssahil/PROJECTS/Mol_Feturizer/New_Systems/rnas/1FUF

>  <Rbt.Executable>
rbdock ($Id: //depot/dev/client3/rdock/2013.1/src/exe/rbdock.cxx#4 $)

>  <Rbt.Library>
libRbt.so (2013.1, Build901 2013/11/27)

>  <Rbt.Parameter_File>
/export/apps/rDock/src/rDock_2013.1_src/data/scripts/dock_solv.prm

>  <Rbt.Receptor>
prm/pocket_docking_8.prm

>  <SCORE>
-4.61865

>  <SCORE.INTER>
-1.12242

>  <SCORE.INTER.CONST>
1

>  <SCORE.INTER.POLAR>
0

>  <SCORE.INTER.ROT>
11

>  <SCORE.INTER.SOLV>
11.7791

>  <SCORE.INTER.VDW>
-15.608

>  <SCORE.INTER.norm>
-0.0801731

>  <SCORE.INTRA>
-3.49623

>  <SCORE.INTRA.DIHEDRAL>
-7.27453

>  <SCORE.INTRA.DIHEDRAL.0>
10.5765

>  <SCORE.INTRA.POLAR>
0

>  <SCORE.INTRA.POLAR.0>
0

>  <SCORE.INTRA.REPUL>
0

>  <SCORE.INTRA.REPUL.0>
0

>  <SCORE.INTRA.SOLV>
-0.15563

>  <SCORE.INTRA.SOLV.lig_0>
-50.1861

>  <SCORE.INTRA.VDW>
0.218851

>  <SCORE.INTRA.VDW.0>
-1.36671

>  <SCORE.INTRA.norm>
-0.249731

>  <SCORE.RESTR>
0

>  <SCORE.RESTR.CAVITY>
0

>  <SCORE.RESTR.norm>
0

>  <SCORE.SYSTEM>
0

>  <SCORE.SYSTEM.CONST>
0

>  <SCORE.SYSTEM.DIHEDRAL>
0

>  <SCORE.SYSTEM.SOLV>
0

>  <SCORE.SYSTEM.norm>
0

>  <SCORE.heavy>
14

>  <SCORE.norm>
-0.329904

>  <RMSD>
7.424

$$$$
ligand
 OpenBabel11021811393D
libRbt.so/2013.1/901 2013/11/27
 14 13  0  0  0  0  0  0  0  0999 V2000
    9.6933   -9.0696    4.9474 N   0  0  0  0  0  0  0  0  0  0  0  0
    8.3257   -8.8925    5.6080 C   0  0  0  0  0  0  0  0  0  0  0  0
    8.2001  -10.0186    6.5685 C   0  0  0  0  0  0  0  0  0  0  0  0
    6.8682  -10.0804    7.2984 C   0  0  0  0  0  0  0  0  0  0  0  0
    6.6903   -8.8480    8.1120 N   0  0  0  0  0  0  0  0  0  0  0  0
    5.1873   -8.5757    8.3037 C   0  0  0  0  0  0  0  0  0  0  0  0
    5.1981   -7.1737    9.0823 C   0  0  0  0  0  0  0  0  0  0  0  0
    3.9661   -6.7502    9.2292 C   0  0  0  0  0  0  0  0  0  0  0  0
    4.3188   -5.4541   10.1658 C   0  0  0  0  0  0  0  0  0  0  0  0
    2.8614   -4.9113   10.3465 N   0  0  0  0  0  0  0  0  0  0  0  0
    2.7989   -3.3636   10.6624 C   0  0  0  0  0  0  0  0  0  0  0  0
    1.2235   -2.9461   10.5534 C   0  0  0  0  0  0  0  0  0  0  0  0
    1.2323   -1.4660   10.8035 C   0  0  0  0  0  0  0  0  0  0  0  0
   -0.2180   -1.0460   10.7604 N   0  0  0  0  0  0  0  0  0  0  0  0
  1  2  1  0  0  0  0
  2  3  1  0  0  0  0
  3  4  1  0  0  0  0
  4  5  1  0  0  0  0
  5  6  1  0  0  0  0
  6  7  1  0  0  0  0
  7  8  1  0  0  0  0
  8  9  1  0  0  0  0
  9 10  1  0  0  0  0
 10 11  1  0  0  0  0
 11 12  1  0  0  0  0
 12 13  1  0  0  0  0
 13 14  1  0  0  0  0
M  END
>  <CHROM.1>
-177.10210726,-61.96920278,153.71870360,-175.56387049,175.08188973,174.07373107
179.33411864,-155.30498521,170.30670895,-177.69311726,-178.02691812,4.73898309
-6.32842867,8.74590803,-0.51831353,0.75413630,-0.32589293

>  <Name>
ligand

>  <RI>
0

>  <Rbt.Current_Directory>
/home/itssahil/PROJECTS/Mol_Feturizer/New_Systems/rnas/1FUF

>  <Rbt.Executable>
rbdock ($Id: //depot/dev/client3/rdock/2013.1/src/exe/rbdock.cxx#4 $)

>  <Rbt.Library>
libRbt.so (2013.1, Build901 2013/11/27)

>  <Rbt.Parameter_File>
/export/apps/rDock/src/rDock_2013.1_src/data/scripts/dock_solv.prm

>  <Rbt.Receptor>
prm/pocket_docking_7.prm

>  <SCORE>
-3.45107

>  <SCORE.INTER>
0.996446

>  <SCORE.INTER.CONST>
1

>  <SCORE.INTER.POLAR>
0

>  <SCORE.INTER.ROT>
11

>  <SCORE.INTER.SOLV>
10.9752

>  <SCORE.INTER.VDW>
-13.9274

>  <SCORE.INTER.norm>
0.0711747

>  <SCORE.INTRA>
-4.44751

>  <SCORE.INTRA.DIHEDRAL>
-9.24532

>  <SCORE.INTRA.DIHEDRAL.0>
10.5765

>  <SCORE.INTRA.POLAR>
0

>  <SCORE.INTRA.POLAR.0>
0

>  <SCORE.INTRA.REPUL>
0

>  <SCORE.INTRA.REPUL.0>
0

>  <SCORE.INTRA.SOLV>
0.210976

>  <SCORE.INTRA.SOLV.lig_0>
-50.1861

>  <SCORE.INTRA.VDW>
0.0696621

>  <SCORE.INTRA.VDW.0>
-1.36671

>  <SCORE.INTRA.norm>
-0.317679

>  <SCORE.RESTR>
0

>  <SCORE.RESTR.CAVITY>
0

>  <SCORE.RESTR.norm>
0

>  <SCORE.SYSTEM>
0

>  <SCORE.SYSTEM.CONST>
0

>  <SCORE.SYSTEM.DIHEDRAL>
0

>  <SCORE.SYSTEM.SOLV>
0

>  <SCORE.SYSTEM.norm>
0

>  <SCORE.heavy>
14

>  <SCORE.norm>
-0.246505

>  <RMSD>
7.426

$$$$
ligand
 OpenBabel11021811393D
libRbt.so/2013.1/901 2013/11/27
 14 13  0  0  0  0  0  0  0  0999 V2000
    1.3915   -0.9360   10.6115 N   0  0  0  0  0  0  0  0  0  0  0  0
    1.9690   -2.2092   11.2307 C   0  0  0  0  0  0  0  0  0  0  0  0
    3.1335   -2.5704   10.3821 C   0  0  0  0  0  0  0  0  0  0  0  0
    3.7488   -3.9242   10.6973 C   0  0  0  0  0  0  0  0  0  0  0  0
    2.7511   -4.9959   10.4361 N   0  0  0  0  0  0  0  0  0  0  0  0
    3.4824   -6.3350   10.2318 C   0  0  0  0  0  0  0  0  0  0  0  0
    3.7857   -6.3135    8.6571 C   0  0  0  0  0  0  0  0  0  0  0  0
    4.3149   -7.4592    8.3022 C   0  0  0  0  0  0  0  0  0  0  0  0
    5.8769   -7.0343    8.5498 C   0  0  0  0  0  0  0  0  0  0  0  0
    6.5482   -8.3387    8.0026 N   0  0  0  0  0  0  0  0  0  0  0  0
    8.0266   -8.1194    7.4875 C   0  0  0  0  0  0  0  0  0  0  0  0
    8.1810   -9.0514    6.1551 C   0  0  0  0  0  0  0  0  0  0  0  0
    9.5710   -8.7523    5.6740 C   0  0  0  0  0  0  0  0  0  0  0  0
    9.5223   -7.3269    5.1763 N   0  0  0  0  0  0  0  0  0  0  0  0
  1  2  1  0  0  0  0
  2  3  1  0  0  0  0
  3  4  1  0  0  0  0
  4  5  1  0  0  0  0
  5  6  1  0  0  0  0
  6  7  1  0  0  0  0
  7  8  1  0  0  0  0
  8  9  1  0  0  0  0
  9 10  1  0  0  0  0
 10 11  1  0  0  0  0
 11 12  1  0  0  0  0
 12 13  1  0  0  0  0
 13 14  1  0  0  0  0
M  END
>  <CHROM.1>
-171.72441410,63.01913525,158.74245903,-87.93582184,-174.62432028,-89.79506551
-174.83676821,155.01908684,-141.63777407,177.29067704,-69.08344886,5.16453660
-5.95498188,8.68536044,-2.50031871,-0.61305425,-3.13049584

>  <Name>
ligand

>  <RI>
0

>  <Rbt.Current_Directory>
/home/itssahil/PROJECTS/Mol_Feturizer/New_Systems/rnas/1FUF

>  <Rbt.Executable>
rbdock ($Id: //depot/dev/client3/rdock/2013.1/src/exe/rbdock.cxx#4 $)

>  <Rbt.Library>
libRbt.so (2013.1, Build901 2013/11/27)

>  <Rbt.Parameter_File>
/export/apps/rDock/src/rDock_2013.1_src/data/scripts/dock_solv.prm

>  <Rbt.Receptor>
prm/pocket_docking_8.prm

>  <SCORE>
0.59969

>  <SCORE.INTER>
0.410086

>  <SCORE.INTER.CONST>
1

>  <SCORE.INTER.POLAR>
0

>  <SCORE.INTER.ROT>
11

>  <SCORE.INTER.SOLV>
11.2647

>  <SCORE.INTER.VDW>
-14.4148

>  <SCORE.INTER.norm>
0.0292919

>  <SCORE.INTRA>
0.189604

>  <SCORE.INTRA.DIHEDRAL>
-4.54827

>  <SCORE.INTRA.DIHEDRAL.0>
10.5765

>  <SCORE.INTRA.POLAR>
0

>  <SCORE.INTRA.POLAR.0>
0

>  <SCORE.INTRA.REPUL>
0

>  <SCORE.INTRA.REPUL.0>
0

>  <SCORE.INTRA.SOLV>
1.62473

>  <SCORE.INTRA.SOLV.lig_0>
-50.1861

>  <SCORE.INTRA.VDW>
1.65138

>  <SCORE.INTRA.VDW.0>
-1.36671

>  <SCORE.INTRA.norm>
0.0135432

>  <SCORE.RESTR>
0

>  <SCORE.RESTR.CAVITY>
0

>  <SCORE.RESTR.norm>
0

>  <SCORE.SYSTEM>
0

>  <SCORE.SYSTEM.CONST>
0

>  <SCORE.SYSTEM.DIHEDRAL>
0

>  <SCORE.SYSTEM.SOLV>
0

>  <SCORE.SYSTEM.norm>
0

>  <SCORE.heavy>
14

>  <SCORE.norm>
0.042835

>  <RMSD>
7.579

$$$$
ligand
 OpenBabel11021811393D
libRbt.so/2013.1/901 2013/11/27
 14 13  0  0  0  0  0  0  0  0999 V2000
    0.2727   -0.6881   10.3313 N   0  0  0  0  0  0  0  0  0  0  0  0
   -1.1418   -0.3135   10.7752 C   0  0  0  0  0  0  0  0  0  0  0  0
   -1.6351    0.6498    9.7577 C   0  0  0  0  0  0  0  0  0  0  0  0
   -3.0008    1.2444   10.0609 C   0  0  0  0  0  0  0  0  0  0  0  0
   -3.4141    2.1343    8.9431 N   0  0  0  0  0  0  0  0  0  0  0  0
   -4.8846    2.5468    9.1363 C   0  0  0  0  0  0  0  0  0  0  0  0
   -5.2536    3.1529    7.6981 C   0  0  0  0  0  0  0  0  0  0  0  0
   -6.5472    3.3552    7.6322 C   0  0  0  0  0  0  0  0  0  0  0  0
   -6.6121    3.6615    6.0248 C   0  0  0  0  0  0  0  0  0  0  0  0
   -8.1633    3.5509    5.8432 N   0  0  0  0  0  0  0  0  0  0  0  0
   -8.9201    4.9267    6.0271 C   0  0  0  0  0  0  0  0  0  0  0  0
  -10.4243    4.5472    6.5382 C   0  0  0  0  0  0  0  0  0  0  0  0
  -10.1938    3.9303    7.8871 C   0  0  0  0  0  0  0  0  0  0  0  0
  -11.5473    3.4286    8.3323 N   0  0  0  0  0  0  0  0  0  0  0  0
  1  2  1  0  0  0  0
  2  3  1  0  0  0  0
  3  4  1  0  0  0  0
  4  5  1  0  0  0  0
  5  6  1  0  0  0  0
  6  7  1  0  0  0  0
  7  8  1  0  0  0  0
  8  9  1  0  0  0  0
  9 10  1  0  0  0  0
 10 11  1  0  0  0  0
 11 12  1  0  0  0  0
 12 13  1  0  0  0  0
 13 14  1  0  0  0  0
M  END
>  <CHROM.1>
-175.48203606,-177.14617593,170.60180037,-165.89230313,169.86981617,-169.38976595
166.49309381,90.74160649,-152.61571805,65.24373575,-174.06413088,-5.81899334
2.58069784,8.21334581,0.49985716,-0.19682824,2.09469985

>  <Name>
ligand

>  <RI>
0

>  <Rbt.Current_Directory>
/home/itssahil/PROJECTS/Mol_Feturizer/New_Systems/rnas/1FUF

>  <Rbt.Executable>
rbdock ($Id: //depot/dev/client3/rdock/2013.1/src/exe/rbdock.cxx#4 $)

>  <Rbt.Library>
libRbt.so (2013.1, Build901 2013/11/27)

>  <Rbt.Parameter_File>
/export/apps/rDock/src/rDock_2013.1_src/data/scripts/dock_solv.prm

>  <Rbt.Receptor>
prm/blind_docking_100.prm

>  <SCORE>
-0.465588

>  <SCORE.INTER>
2.80751

>  <SCORE.INTER.CONST>
1

>  <SCORE.INTER.POLAR>
0

>  <SCORE.INTER.ROT>
11

>  <SCORE.INTER.SOLV>
13.0858

>  <SCORE.INTER.VDW>
-13.4236

>  <SCORE.INTER.norm>
0.200537

>  <SCORE.INTRA>
-3.2731

>  <SCORE.INTRA.DIHEDRAL>
-7.36293

>  <SCORE.INTRA.DIHEDRAL.0>
10.5765

>  <SCORE.INTRA.POLAR>
0

>  <SCORE.INTRA.POLAR.0>
0

>  <SCORE.INTRA.REPUL>
0

>  <SCORE.INTRA.REPUL.0>
0

>  <SCORE.INTRA.SOLV>
0.479463

>  <SCORE.INTRA.SOLV.lig_0>
-50.1861

>  <SCORE.INTRA.VDW>
0.168634

>  <SCORE.INTRA.VDW.0>
-1.36671

>  <SCORE.INTRA.norm>
-0.233793

>  <SCORE.RESTR>
0

>  <SCORE.RESTR.CAVITY>
0

>  <SCORE.RESTR.norm>
0

>  <SCORE.SYSTEM>
0

>  <SCORE.SYSTEM.CONST>
0

>  <SCORE.SYSTEM.DIHEDRAL>
0

>  <SCORE.SYSTEM.SOLV>
0

>  <SCORE.SYSTEM.norm>
0

>  <SCORE.heavy>
14

>  <SCORE.norm>
-0.0332563

>  <RMSD>
7.609

$$$$
ligand
 OpenBabel11021811393D
libRbt.so/2013.1/901 2013/11/27
 14 13  0  0  0  0  0  0  0  0999 V2000
    1.3760   -1.2766   11.6407 N   0  0  0  0  0  0  0  0  0  0  0  0
    0.7235   -2.0490   10.4937 C   0  0  0  0  0  0  0  0  0  0  0  0
    1.3278   -3.4054   10.5342 C   0  0  0  0  0  0  0  0  0  0  0  0
    2.8091   -3.4471   10.1955 C   0  0  0  0  0  0  0  0  0  0  0  0
    3.3058   -4.8443   10.3118 N   0  0  0  0  0  0  0  0  0  0  0  0
    4.0621   -5.2256    9.0264 C   0  0  0  0  0  0  0  0  0  0  0  0
    4.4972   -6.7389    9.3307 C   0  0  0  0  0  0  0  0  0  0  0  0
    5.1645   -7.2121    8.3064 C   0  0  0  0  0  0  0  0  0  0  0  0
    5.4919   -8.6809    8.9523 C   0  0  0  0  0  0  0  0  0  0  0  0
    6.3464   -9.2538    7.7720 N   0  0  0  0  0  0  0  0  0  0  0  0
    7.8808   -8.8855    7.8668 C   0  0  0  0  0  0  0  0  0  0  0  0
    8.4889   -9.1046    6.3668 C   0  0  0  0  0  0  0  0  0  0  0  0
    8.3494  -10.5821    6.1416 C   0  0  0  0  0  0  0  0  0  0  0  0
    8.9826  -10.8414    4.7948 N   0  0  0  0  0  0  0  0  0  0  0  0
  1  2  1  0  0  0  0
  2  3  1  0  0  0  0
  3  4  1  0  0  0  0
  4  5  1  0  0  0  0
  5  6  1  0  0  0  0
  6  7  1  0  0  0  0
  7  8  1  0  0  0  0
  8  9  1  0  0  0  0
  9 10  1  0  0  0  0
 10 11  1  0  0  0  0
 11 12  1  0  0  0  0
 12 13  1  0  0  0  0
 13 14  1  0  0  0  0
M  END
>  <CHROM.1>
-66.76373930,178.20906536,129.10513284,-179.40935163,179.98914765,177.84862826
-177.67908330,87.02731052,-161.26482225,-65.11146536,-176.52192013,4.91468486
-6.53907976,8.69529849,-2.66820842,-0.82172155,2.71875566

>  <Name>
ligand

>  <RI>
0

>  <Rbt.Current_Directory>
/home/itssahil/PROJECTS/Mol_Feturizer/New_Systems/rnas/1FUF

>  <Rbt.Executable>
rbdock ($Id: //depot/dev/client3/rdock/2013.1/src/exe/rbdock.cxx#4 $)

>  <Rbt.Library>
libRbt.so (2013.1, Build901 2013/11/27)

>  <Rbt.Parameter_File>
/export/apps/rDock/src/rDock_2013.1_src/data/scripts/dock_solv.prm

>  <Rbt.Receptor>
prm/pocket_docking_8.prm

>  <SCORE>
-0.702132

>  <SCORE.INTER>
2.24436

>  <SCORE.INTER.CONST>
1

>  <SCORE.INTER.POLAR>
0

>  <SCORE.INTER.ROT>
11

>  <SCORE.INTER.SOLV>
11.1257

>  <SCORE.INTER.VDW>
-13.1456

>  <SCORE.INTER.norm>
0.160312

>  <SCORE.INTRA>
-2.94649

>  <SCORE.INTRA.DIHEDRAL>
-8.30277

>  <SCORE.INTRA.DIHEDRAL.0>
10.5765

>  <SCORE.INTRA.POLAR>
0

>  <SCORE.INTRA.POLAR.0>
0

>  <SCORE.INTRA.REPUL>
0

>  <SCORE.INTRA.REPUL.0>
0

>  <SCORE.INTRA.SOLV>
1.23588

>  <SCORE.INTRA.SOLV.lig_0>
-50.1861

>  <SCORE.INTRA.VDW>
0.586952

>  <SCORE.INTRA.VDW.0>
-1.36671

>  <SCORE.INTRA.norm>
-0.210464

>  <SCORE.RESTR>
0

>  <SCORE.RESTR.CAVITY>
0

>  <SCORE.RESTR.norm>
0

>  <SCORE.SYSTEM>
0

>  <SCORE.SYSTEM.CONST>
0

>  <SCORE.SYSTEM.DIHEDRAL>
0

>  <SCORE.SYSTEM.SOLV>
0

>  <SCORE.SYSTEM.norm>
0

>  <SCORE.heavy>
14

>  <SCORE.norm>
-0.0501523

>  <RMSD>
7.684

$$$$
ligand
 OpenBabel11021811393D
libRbt.so/2013.1/901 2013/11/27
 14 13  0  0  0  0  0  0  0  0999 V2000
    9.3874   -7.8760    3.7048 N   0  0  0  0  0  0  0  0  0  0  0  0
    9.5167   -7.7274    5.2211 C   0  0  0  0  0  0  0  0  0  0  0  0
    9.3914   -6.2718    5.4895 C   0  0  0  0  0  0  0  0  0  0  0  0
    7.9687   -5.7396    5.4334 C   0  0  0  0  0  0  0  0  0  0  0  0
    7.2287   -6.1714    6.6492 N   0  0  0  0  0  0  0  0  0  0  0  0
    6.1091   -5.1590    6.9515 C   0  0  0  0  0  0  0  0  0  0  0  0
    5.6215   -5.6243    8.4068 C   0  0  0  0  0  0  0  0  0  0  0  0
    4.9221   -6.7276    8.2971 C   0  0  0  0  0  0  0  0  0  0  0  0
    4.4942   -6.8415    9.8737 C   0  0  0  0  0  0  0  0  0  0  0  0
    3.2548   -5.8857    9.8339 N   0  0  0  0  0  0  0  0  0  0  0  0
    3.3740   -4.6561   10.8202 C   0  0  0  0  0  0  0  0  0  0  0  0
    2.1734   -3.6293   10.4054 C   0  0  0  0  0  0  0  0  0  0  0  0
    2.3829   -2.4546   11.3161 C   0  0  0  0  0  0  0  0  0  0  0  0
    1.2891   -1.4752   10.9612 N   0  0  0  0  0  0  0  0  0  0  0  0
  1  2  1  0  0  0  0
  2  3  1  0  0  0  0
  3  4  1  0  0  0  0
  4  5  1  0  0  0  0
  5  6  1  0  0  0  0
  6  7  1  0  0  0  0
  7  8  1  0  0  0  0
  8  9  1  0  0  0  0
  9 10  1  0  0  0  0
 10 11  1  0  0  0  0
 11 12  1  0  0  0  0
 12 13  1  0  0  0  0
 13 14  1  0  0  0  0
M  END
>  <CHROM.1>
77.29385062,74.19833432,153.09501155,-169.78939893,-74.23255009,-175.52544306
83.82456733,-121.25821285,168.02814309,-176.89542201,179.88729778,5.50823113
-5.44570500,8.09754957,-0.24429893,0.77163712,-0.22105338

>  <Name>
ligand

>  <RI>
0

>  <Rbt.Current_Directory>
/home/itssahil/PROJECTS/Mol_Feturizer/New_Systems/rnas/1FUF

>  <Rbt.Executable>
rbdock ($Id: //depot/dev/client3/rdock/2013.1/src/exe/rbdock.cxx#4 $)

>  <Rbt.Library>
libRbt.so (2013.1, Build901 2013/11/27)

>  <Rbt.Parameter_File>
/export/apps/rDock/src/rDock_2013.1_src/data/scripts/dock_solv.prm

>  <Rbt.Receptor>
prm/pocket_docking_7.prm

>  <SCORE>
-0.338274

>  <SCORE.INTER>
-0.136252

>  <SCORE.INTER.CONST>
1

>  <SCORE.INTER.POLAR>
0

>  <SCORE.INTER.ROT>
11

>  <SCORE.INTER.SOLV>
11.8774

>  <SCORE.INTER.VDW>
-14.9833

>  <SCORE.INTER.norm>
-0.00973228

>  <SCORE.INTRA>
-0.202022

>  <SCORE.INTRA.DIHEDRAL>
-4.15766

>  <SCORE.INTRA.DIHEDRAL.0>
10.5765

>  <SCORE.INTRA.POLAR>
0

>  <SCORE.INTRA.POLAR.0>
0

>  <SCORE.INTRA.REPUL>
0

>  <SCORE.INTRA.REPUL.0>
0

>  <SCORE.INTRA.SOLV>
2.02036

>  <SCORE.INTRA.SOLV.lig_0>
-50.1861

>  <SCORE.INTRA.VDW>
0.866628

>  <SCORE.INTRA.VDW.0>
-1.36671

>  <SCORE.INTRA.norm>
-0.0144301

>  <SCORE.RESTR>
0

>  <SCORE.RESTR.CAVITY>
0

>  <SCORE.RESTR.norm>
0

>  <SCORE.SYSTEM>
0

>  <SCORE.SYSTEM.CONST>
0

>  <SCORE.SYSTEM.DIHEDRAL>
0

>  <SCORE.SYSTEM.SOLV>
0

>  <SCORE.SYSTEM.norm>
0

>  <SCORE.heavy>
14

>  <SCORE.norm>
-0.0241624

>  <RMSD>
7.756

$$$$
ligand
 OpenBabel11021811393D
libRbt.so/2013.1/901 2013/11/27
 14 13  0  0  0  0  0  0  0  0999 V2000
    0.6176   -1.9343   10.5302 N   0  0  0  0  0  0  0  0  0  0  0  0
    1.9208   -1.9576   11.3296 C   0  0  0  0  0  0  0  0  0  0  0  0
    2.3908   -3.3659   11.2816 C   0  0  0  0  0  0  0  0  0  0  0  0
    2.8375   -3.8359    9.9068 C   0  0  0  0  0  0  0  0  0  0  0  0
    3.2112   -5.2742    9.9709 N   0  0  0  0  0  0  0  0  0  0  0  0
    4.1996   -5.5957    8.8354 C   0  0  0  0  0  0  0  0  0  0  0  0
    4.5832   -7.1212    9.1479 C   0  0  0  0  0  0  0  0  0  0  0  0
    5.6259   -7.4615    8.4298 C   0  0  0  0  0  0  0  0  0  0  0  0
    5.7727   -8.9843    9.0138 C   0  0  0  0  0  0  0  0  0  0  0  0
    7.1535   -9.3357    8.3647 N   0  0  0  0  0  0  0  0  0  0  0  0
    7.0301   -9.9601    6.9177 C   0  0  0  0  0  0  0  0  0  0  0  0
    8.4236   -9.5920    6.1492 C   0  0  0  0  0  0  0  0  0  0  0  0
    8.3802   -8.0958    6.0366 C   0  0  0  0  0  0  0  0  0  0  0  0
    9.6314   -7.7168    5.2797 N   0  0  0  0  0  0  0  0  0  0  0  0
  1  2  1  0  0  0  0
  2  3  1  0  0  0  0
  3  4  1  0  0  0  0
  4  5  1  0  0  0  0
  5  6  1  0  0  0  0
  6  7  1  0  0  0  0
  7  8  1  0  0  0  0
  8  9  1  0  0  0  0
  9 10  1  0  0  0  0
 10 11  1  0  0  0  0
 11 12  1  0  0  0  0
 12 13  1  0  0  0  0
 13 14  1  0  0  0  0
M  END
>  <CHROM.1>
67.97488022,-176.87136657,-155.57864616,174.97110546,-167.16741716,177.98408156
-170.68470951,-88.60915248,153.23945649,-65.50087609,-177.83177483,5.12698188
-6.44521615,8.65675035,-2.60489547,-0.72615530,2.89932219

>  <Name>
ligand

>  <RI>
0

>  <Rbt.Current_Directory>
/home/itssahil/PROJECTS/Mol_Feturizer/New_Systems/rnas/1FUF

>  <Rbt.Executable>
rbdock ($Id: //depot/dev/client3/rdock/2013.1/src/exe/rbdock.cxx#4 $)

>  <Rbt.Library>
libRbt.so (2013.1, Build901 2013/11/27)

>  <Rbt.Parameter_File>
/export/apps/rDock/src/rDock_2013.1_src/data/scripts/dock_solv.prm

>  <Rbt.Receptor>
prm/pocket_docking_6.prm

>  <SCORE>
-1.36013

>  <SCORE.INTER>
1.53387

>  <SCORE.INTER.CONST>
1

>  <SCORE.INTER.POLAR>
0

>  <SCORE.INTER.ROT>
11

>  <SCORE.INTER.SOLV>
10.8098

>  <SCORE.INTER.VDW>
-13.514

>  <SCORE.INTER.norm>
0.109562

>  <SCORE.INTRA>
-2.894

>  <SCORE.INTRA.DIHEDRAL>
-7.72915

>  <SCORE.INTRA.DIHEDRAL.0>
10.5765

>  <SCORE.INTRA.POLAR>
0

>  <SCORE.INTRA.POLAR.0>
0

>  <SCORE.INTRA.REPUL>
0

>  <SCORE.INTRA.REPUL.0>
0

>  <SCORE.INTRA.SOLV>
1.25234

>  <SCORE.INTRA.SOLV.lig_0>
-50.1861

>  <SCORE.INTRA.VDW>
0.344402

>  <SCORE.INTRA.VDW.0>
-1.36671

>  <SCORE.INTRA.norm>
-0.206714

>  <SCORE.RESTR>
0

>  <SCORE.RESTR.CAVITY>
0

>  <SCORE.RESTR.norm>
0

>  <SCORE.SYSTEM>
0

>  <SCORE.SYSTEM.CONST>
0

>  <SCORE.SYSTEM.DIHEDRAL>
0

>  <SCORE.SYSTEM.SOLV>
0

>  <SCORE.SYSTEM.norm>
0

>  <SCORE.heavy>
14

>  <SCORE.norm>
-0.0971518

>  <RMSD>
7.812

$$$$
ligand
 OpenBabel11021811393D
libRbt.so/2013.1/901 2013/11/27
 14 13  0  0  0  0  0  0  0  0999 V2000
    1.4758   -1.3542   11.6553 N   0  0  0  0  0  0  0  0  0  0  0  0
    0.9371   -2.2894   10.5722 C   0  0  0  0  0  0  0  0  0  0  0  0
    1.7588   -3.5232   10.6684 C   0  0  0  0  0  0  0  0  0  0  0  0
    3.2316   -3.3277   10.3470 C   0  0  0  0  0  0  0  0  0  0  0  0
    3.9362   -4.6348   10.4327 N   0  0  0  0  0  0  0  0  0  0  0  0
    3.7816   -5.3862    9.0980 C   0  0  0  0  0  0  0  0  0  0  0  0
    4.5983   -6.7376    9.3786 C   0  0  0  0  0  0  0  0  0  0  0  0
    4.5368   -7.5086    8.3201 C   0  0  0  0  0  0  0  0  0  0  0  0
    5.5453   -8.6744    8.8727 C   0  0  0  0  0  0  0  0  0  0  0  0
    5.4610   -9.6385    7.6419 N   0  0  0  0  0  0  0  0  0  0  0  0
    6.3572  -10.9322    7.7909 C   0  0  0  0  0  0  0  0  0  0  0  0
    7.8341  -10.5233    7.2256 C   0  0  0  0  0  0  0  0  0  0  0  0
    7.5938  -10.2606    5.7674 C   0  0  0  0  0  0  0  0  0  0  0  0
    8.9489   -9.9155    5.1961 N   0  0  0  0  0  0  0  0  0  0  0  0
  1  2  1  0  0  0  0
  2  3  1  0  0  0  0
  3  4  1  0  0  0  0
  4  5  1  0  0  0  0
  5  6  1  0  0  0  0
  6  7  1  0  0  0  0
  7  8  1  0  0  0  0
  8  9  1  0  0  0  0
  9 10  1  0  0  0  0
 10 11  1  0  0  0  0
 11 12  1  0  0  0  0
 12 13  1  0  0  0  0
 13 14  1  0  0  0  0
M  END
>  <CHROM.1>
-64.22137850,-178.10963019,84.36094001,179.68330221,178.84972345,175.03129090
178.41896149,179.09583287,-87.35957047,-65.31442828,-178.44152717,4.71393840
-6.76489727,8.78337198,-2.37238941,-0.73264091,3.04225949

>  <Name>
ligand

>  <RI>
0

>  <Rbt.Current_Directory>
/home/itssahil/PROJECTS/Mol_Feturizer/New_Systems/rnas/1FUF

>  <Rbt.Executable>
rbdock ($Id: //depot/dev/client3/rdock/2013.1/src/exe/rbdock.cxx#4 $)

>  <Rbt.Library>
libRbt.so (2013.1, Build901 2013/11/27)

>  <Rbt.Parameter_File>
/export/apps/rDock/src/rDock_2013.1_src/data/scripts/dock_solv.prm

>  <Rbt.Receptor>
prm/pocket_docking_8.prm

>  <SCORE>
-2.31009

>  <SCORE.INTER>
0.916159

>  <SCORE.INTER.CONST>
1

>  <SCORE.INTER.POLAR>
0

>  <SCORE.INTER.ROT>
11

>  <SCORE.INTER.SOLV>
14.0936

>  <SCORE.INTER.VDW>
-15.0204

>  <SCORE.INTER.norm>
0.0654399

>  <SCORE.INTRA>
-3.22624

>  <SCORE.INTRA.DIHEDRAL>
-9.31956

>  <SCORE.INTRA.DIHEDRAL.0>
10.5765

>  <SCORE.INTRA.POLAR>
0

>  <SCORE.INTRA.POLAR.0>
0

>  <SCORE.INTRA.REPUL>
0

>  <SCORE.INTRA.REPUL.0>
0

>  <SCORE.INTRA.SOLV>
1.27463

>  <SCORE.INTRA.SOLV.lig_0>
-50.1861

>  <SCORE.INTRA.VDW>
0.796222

>  <SCORE.INTRA.VDW.0>
-1.36671

>  <SCORE.INTRA.norm>
-0.230446

>  <SCORE.RESTR>
0

>  <SCORE.RESTR.CAVITY>
0

>  <SCORE.RESTR.norm>
0

>  <SCORE.SYSTEM>
0

>  <SCORE.SYSTEM.CONST>
0

>  <SCORE.SYSTEM.DIHEDRAL>
0

>  <SCORE.SYSTEM.SOLV>
0

>  <SCORE.SYSTEM.norm>
0

>  <SCORE.heavy>
14

>  <SCORE.norm>
-0.165006

>  <RMSD>
7.819

$$$$
ligand
 OpenBabel11021811393D
libRbt.so/2013.1/901 2013/11/27
 14 13  0  0  0  0  0  0  0  0999 V2000
   10.1691   -5.4830    3.9784 N   0  0  0  0  0  0  0  0  0  0  0  0
    9.8434   -6.9467    4.2774 C   0  0  0  0  0  0  0  0  0  0  0  0
    8.5527   -6.9241    5.0123 C   0  0  0  0  0  0  0  0  0  0  0  0
    8.5905   -6.1705    6.3319 C   0  0  0  0  0  0  0  0  0  0  0  0
    7.3322   -6.4226    7.0839 N   0  0  0  0  0  0  0  0  0  0  0  0
    6.3378   -5.2792    6.8124 C   0  0  0  0  0  0  0  0  0  0  0  0
    4.9784   -5.8646    7.4300 C   0  0  0  0  0  0  0  0  0  0  0  0
    5.0847   -5.9208    8.7354 C   0  0  0  0  0  0  0  0  0  0  0  0
    3.6679   -6.6947    9.0103 C   0  0  0  0  0  0  0  0  0  0  0  0
    3.5966   -6.4775   10.5593 N   0  0  0  0  0  0  0  0  0  0  0  0
    2.3951   -5.5556   11.0128 C   0  0  0  0  0  0  0  0  0  0  0  0
    2.7619   -4.0514   10.4926 C   0  0  0  0  0  0  0  0  0  0  0  0
    1.5445   -3.2482   10.8480 C   0  0  0  0  0  0  0  0  0  0  0  0
    1.8452   -1.8425   10.3841 N   0  0  0  0  0  0  0  0  0  0  0  0
  1  2  1  0  0  0  0
  2  3  1  0  0  0  0
  3  4  1  0  0  0  0
  4  5  1  0  0  0  0
  5  6  1  0  0  0  0
  6  7  1  0  0  0  0
  7  8  1  0  0  0  0
  8  9  1  0  0  0  0
  9 10  1  0  0  0  0
 10 11  1  0  0  0  0
 11 12  1  0  0  0  0
 12 13  1  0  0  0  0
 13 14  1  0  0  0  0
M  END
>  <CHROM.1>
-61.29060343,-169.81477057,-95.70257677,168.59210457,69.14006919,-173.73173204
-167.24881442,114.34851061,-69.59395804,175.51264738,179.88452799,5.47847575
-5.49170772,7.99777389,-0.09534623,0.71888420,-0.22785936

>  <Name>
ligand

>  <RI>
0

>  <Rbt.Current_Directory>
/home/itssahil/PROJECTS/Mol_Feturizer/New_Systems/rnas/1FUF

>  <Rbt.Executable>
rbdock ($Id: //depot/dev/client3/rdock/2013.1/src/exe/rbdock.cxx#4 $)

>  <Rbt.Library>
libRbt.so (2013.1, Build901 2013/11/27)

>  <Rbt.Parameter_File>
/export/apps/rDock/src/rDock_2013.1_src/data/scripts/dock_solv.prm

>  <Rbt.Receptor>
prm/pocket_docking_7.prm

>  <SCORE>
-2.05096

>  <SCORE.INTER>
-0.215137

>  <SCORE.INTER.CONST>
1

>  <SCORE.INTER.POLAR>
0

>  <SCORE.INTER.ROT>
11

>  <SCORE.INTER.SOLV>
13.9262

>  <SCORE.INTER.VDW>
-15.7188

>  <SCORE.INTER.norm>
-0.0153669

>  <SCORE.INTRA>
-1.83583

>  <SCORE.INTRA.DIHEDRAL>
-6.91654

>  <SCORE.INTRA.DIHEDRAL.0>
10.5765

>  <SCORE.INTRA.POLAR>
0

>  <SCORE.INTRA.POLAR.0>
0

>  <SCORE.INTRA.REPUL>
0

>  <SCORE.INTRA.REPUL.0>
0

>  <SCORE.INTRA.SOLV>
1.20167

>  <SCORE.INTRA.SOLV.lig_0>
-50.1861

>  <SCORE.INTRA.VDW>
1.02161

>  <SCORE.INTRA.VDW.0>
-1.36671

>  <SCORE.INTRA.norm>
-0.13113

>  <SCORE.RESTR>
0

>  <SCORE.RESTR.CAVITY>
0

>  <SCORE.RESTR.norm>
0

>  <SCORE.SYSTEM>
0

>  <SCORE.SYSTEM.CONST>
0

>  <SCORE.SYSTEM.DIHEDRAL>
0

>  <SCORE.SYSTEM.SOLV>
0

>  <SCORE.SYSTEM.norm>
0

>  <SCORE.heavy>
14

>  <SCORE.norm>
-0.146497

>  <RMSD>
7.829

$$$$
ligand
 OpenBabel11021811393D
libRbt.so/2013.1/901 2013/11/27
 14 13  0  0  0  0  0  0  0  0999 V2000
   -5.2586    0.3974   10.5877 N   0  0  0  0  0  0  0  0  0  0  0  0
   -4.3195    0.4069    9.3811 C   0  0  0  0  0  0  0  0  0  0  0  0
   -2.9530    0.5612    9.9428 C   0  0  0  0  0  0  0  0  0  0  0  0
   -1.9080    1.0278    8.9424 C   0  0  0  0  0  0  0  0  0  0  0  0
   -2.1716    2.4444    8.5734 N   0  0  0  0  0  0  0  0  0  0  0  0
   -2.3069    2.5566    7.0440 C   0  0  0  0  0  0  0  0  0  0  0  0
   -3.6391    3.4361    6.8899 C   0  0  0  0  0  0  0  0  0  0  0  0
   -4.6683    2.7405    7.3089 C   0  0  0  0  0  0  0  0  0  0  0  0
   -5.8168    3.8375    6.9100 C   0  0  0  0  0  0  0  0  0  0  0  0
   -7.0665    3.0385    7.4114 N   0  0  0  0  0  0  0  0  0  0  0  0
   -8.4041    3.4235    6.6621 C   0  0  0  0  0  0  0  0  0  0  0  0
   -9.5888    3.3339    7.7830 C   0  0  0  0  0  0  0  0  0  0  0  0
  -10.8392    3.6038    6.9976 C   0  0  0  0  0  0  0  0  0  0  0  0
  -10.7679    5.0660    6.6250 N   0  0  0  0  0  0  0  0  0  0  0  0
  1  2  1  0  0  0  0
  2  3  1  0  0  0  0
  3  4  1  0  0  0  0
  4  5  1  0  0  0  0
  5  6  1  0  0  0  0
  6  7  1  0  0  0  0
  7  8  1  0  0  0  0
  8  9  1  0  0  0  0
  9 10  1  0  0  0  0
 10 11  1  0  0  0  0
 11 12  1  0  0  0  0
 12 13  1  0  0  0  0
 13 14  1  0  0  0  0
M  END
>  <CHROM.1>
-161.75688767,69.76868517,-124.60867402,132.56893454,-67.30950723,-175.65901228
-179.54192657,-154.03773147,-144.41209761,-175.82377276,-70.12917909,-5.69320464
2.56237077,7.93265187,0.40907430,-0.07855235,2.32987032

>  <Name>
ligand

>  <RI>
0

>  <Rbt.Current_Directory>
/home/itssahil/PROJECTS/Mol_Feturizer/New_Systems/rnas/1FUF

>  <Rbt.Executable>
rbdock ($Id: //depot/dev/client3/rdock/2013.1/src/exe/rbdock.cxx#4 $)

>  <Rbt.Library>
libRbt.so (2013.1, Build901 2013/11/27)

>  <Rbt.Parameter_File>
/export/apps/rDock/src/rDock_2013.1_src/data/scripts/dock_solv.prm

>  <Rbt.Receptor>
prm/blind_docking_60.prm

>  <SCORE>
0.816581

>  <SCORE.INTER>
1.34754

>  <SCORE.INTER.CONST>
1

>  <SCORE.INTER.POLAR>
0

>  <SCORE.INTER.ROT>
11

>  <SCORE.INTER.SOLV>
15.7559

>  <SCORE.INTER.VDW>
-15.2869

>  <SCORE.INTER.norm>
0.0962525

>  <SCORE.INTRA>
-0.530954

>  <SCORE.INTRA.DIHEDRAL>
-4.82845

>  <SCORE.INTRA.DIHEDRAL.0>
10.5765

>  <SCORE.INTRA.POLAR>
0

>  <SCORE.INTRA.POLAR.0>
0

>  <SCORE.INTRA.REPUL>
0

>  <SCORE.INTRA.REPUL.0>
0

>  <SCORE.INTRA.SOLV>
2.37759

>  <SCORE.INTRA.SOLV.lig_0>
-50.1861

>  <SCORE.INTRA.VDW>
0.694476

>  <SCORE.INTRA.VDW.0>
-1.36671

>  <SCORE.INTRA.norm>
-0.0379253

>  <SCORE.RESTR>
0

>  <SCORE.RESTR.CAVITY>
0

>  <SCORE.RESTR.norm>
0

>  <SCORE.SYSTEM>
0

>  <SCORE.SYSTEM.CONST>
0

>  <SCORE.SYSTEM.DIHEDRAL>
0

>  <SCORE.SYSTEM.SOLV>
0

>  <SCORE.SYSTEM.norm>
0

>  <SCORE.heavy>
14

>  <SCORE.norm>
0.0583272

>  <RMSD>
7.845

$$$$
ligand
 OpenBabel11021811393D
libRbt.so/2013.1/901 2013/11/27
 14 13  0  0  0  0  0  0  0  0999 V2000
    1.7178   -2.3749   10.8617 N   0  0  0  0  0  0  0  0  0  0  0  0
    2.6045   -3.5250   10.3830 C   0  0  0  0  0  0  0  0  0  0  0  0
    2.3978   -4.6206   11.3647 C   0  0  0  0  0  0  0  0  0  0  0  0
    3.2311   -5.8654   11.1064 C   0  0  0  0  0  0  0  0  0  0  0  0
    2.7956   -6.4990    9.8332 N   0  0  0  0  0  0  0  0  0  0  0  0
    4.0334   -6.8423    8.9846 C   0  0  0  0  0  0  0  0  0  0  0  0
    4.2403   -5.4975    8.1357 C   0  0  0  0  0  0  0  0  0  0  0  0
    5.0828   -5.7277    7.1581 C   0  0  0  0  0  0  0  0  0  0  0  0
    6.4280   -5.2155    7.9390 C   0  0  0  0  0  0  0  0  0  0  0  0
    7.4426   -5.3788    6.7578 N   0  0  0  0  0  0  0  0  0  0  0  0
    8.0309   -6.8405    6.6285 C   0  0  0  0  0  0  0  0  0  0  0  0
    8.6360   -6.9490    5.1153 C   0  0  0  0  0  0  0  0  0  0  0  0
    9.8239   -6.0318    5.1433 C   0  0  0  0  0  0  0  0  0  0  0  0
   10.4794   -6.1875    3.7913 N   0  0  0  0  0  0  0  0  0  0  0  0
  1  2  1  0  0  0  0
  2  3  1  0  0  0  0
  3  4  1  0  0  0  0
  4  5  1  0  0  0  0
  5  6  1  0  0  0  0
  6  7  1  0  0  0  0
  7  8  1  0  0  0  0
  8  9  1  0  0  0  0
  9 10  1  0  0  0  0
 10 11  1  0  0  0  0
 11 12  1  0  0  0  0
 12 13  1  0  0  0  0
 13 14  1  0  0  0  0
M  END
>  <CHROM.1>
-178.00964915,-65.95262362,132.98847755,-89.31418898,-166.62152078,-94.71774716
-176.05113527,-85.04782821,161.54456221,68.87910507,175.61506278,5.49597230
-5.53986444,8.08601362,-2.93704134,-0.68779267,3.13898262

>  <Name>
ligand

>  <RI>
0

>  <Rbt.Current_Directory>
/home/itssahil/PROJECTS/Mol_Feturizer/New_Systems/rnas/1FUF

>  <Rbt.Executable>
rbdock ($Id: //depot/dev/client3/rdock/2013.1/src/exe/rbdock.cxx#4 $)

>  <Rbt.Library>
libRbt.so (2013.1, Build901 2013/11/27)

>  <Rbt.Parameter_File>
/export/apps/rDock/src/rDock_2013.1_src/data/scripts/dock_solv.prm

>  <Rbt.Receptor>
prm/pocket_docking_8.prm

>  <SCORE>
0.207477

>  <SCORE.INTER>
0.197755

>  <SCORE.INTER.CONST>
1

>  <SCORE.INTER.POLAR>
0

>  <SCORE.INTER.ROT>
11

>  <SCORE.INTER.SOLV>
12.6292

>  <SCORE.INTER.VDW>
-15.0112

>  <SCORE.INTER.norm>
0.0141254

>  <SCORE.INTRA>
0.00972166

>  <SCORE.INTRA.DIHEDRAL>
-3.19609

>  <SCORE.INTRA.DIHEDRAL.0>
10.5765

>  <SCORE.INTRA.POLAR>
0

>  <SCORE.INTRA.POLAR.0>
0

>  <SCORE.INTRA.REPUL>
0

>  <SCORE.INTRA.REPUL.0>
0

>  <SCORE.INTRA.SOLV>
0.921446

>  <SCORE.INTRA.SOLV.lig_0>
-50.1861

>  <SCORE.INTRA.VDW>
1.14705

>  <SCORE.INTRA.VDW.0>
-1.36671

>  <SCORE.INTRA.norm>
0.000694404

>  <SCORE.RESTR>
0

>  <SCORE.RESTR.CAVITY>
0

>  <SCORE.RESTR.norm>
0

>  <SCORE.SYSTEM>
0

>  <SCORE.SYSTEM.CONST>
0

>  <SCORE.SYSTEM.DIHEDRAL>
0

>  <SCORE.SYSTEM.SOLV>
0

>  <SCORE.SYSTEM.norm>
0

>  <SCORE.heavy>
14

>  <SCORE.norm>
0.0148198

>  <RMSD>
7.850

$$$$
ligand
 OpenBabel11021811393D
libRbt.so/2013.1/901 2013/11/27
 14 13  0  0  0  0  0  0  0  0999 V2000
   -1.2195    0.2960   10.7118 N   0  0  0  0  0  0  0  0  0  0  0  0
   -2.7091    0.5813   10.5176 C   0  0  0  0  0  0  0  0  0  0  0  0
   -2.8805    0.8222    9.0618 C   0  0  0  0  0  0  0  0  0  0  0  0
   -2.2078    2.0844    8.5471 C   0  0  0  0  0  0  0  0  0  0  0  0
   -2.4673    2.2263    7.0894 N   0  0  0  0  0  0  0  0  0  0  0  0
   -3.3793    3.4431    6.8496 C   0  0  0  0  0  0  0  0  0  0  0  0
   -4.8033    2.8967    7.3453 C   0  0  0  0  0  0  0  0  0  0  0  0
   -5.7212    3.8020    7.1079 C   0  0  0  0  0  0  0  0  0  0  0  0
   -6.9393    3.0549    7.9078 C   0  0  0  0  0  0  0  0  0  0  0  0
   -8.0721    4.0905    7.5983 N   0  0  0  0  0  0  0  0  0  0  0  0
   -8.9206    3.7326    6.3134 C   0  0  0  0  0  0  0  0  0  0  0  0
  -10.1008    2.7240    6.8208 C   0  0  0  0  0  0  0  0  0  0  0  0
  -10.7886    2.3175    5.5500 C   0  0  0  0  0  0  0  0  0  0  0  0
  -11.8959    1.3832    5.9776 N   0  0  0  0  0  0  0  0  0  0  0  0
  1  2  1  0  0  0  0
  2  3  1  0  0  0  0
  3  4  1  0  0  0  0
  4  5  1  0  0  0  0
  5  6  1  0  0  0  0
  6  7  1  0  0  0  0
  7  8  1  0  0  0  0
  8  9  1  0  0  0  0
  9 10  1  0  0  0  0
 10 11  1  0  0  0  0
 11 12  1  0  0  0  0
 12 13  1  0  0  0  0
 13 14  1  0  0  0  0
M  END
>  <CHROM.1>
-66.88380042,-179.11186289,112.21643332,-74.30511272,-175.30175305,-171.96120408
-178.03939861,93.13122046,86.30271926,-174.83831682,-179.80694323,-5.86465763
2.38978409,7.67126088,0.33377991,0.17682546,2.46600232

>  <Name>
ligand

>  <RI>
0

>  <Rbt.Current_Directory>
/home/itssahil/PROJECTS/Mol_Feturizer/New_Systems/rnas/1FUF

>  <Rbt.Executable>
rbdock ($Id: //depot/dev/client3/rdock/2013.1/src/exe/rbdock.cxx#4 $)

>  <Rbt.Library>
libRbt.so (2013.1, Build901 2013/11/27)

>  <Rbt.Parameter_File>
/export/apps/rDock/src/rDock_2013.1_src/data/scripts/dock_solv.prm

>  <Rbt.Receptor>
prm/pocket_docking_6.prm

>  <SCORE>
0.750364

>  <SCORE.INTER>
2.7035

>  <SCORE.INTER.CONST>
1

>  <SCORE.INTER.POLAR>
0

>  <SCORE.INTER.ROT>
11

>  <SCORE.INTER.SOLV>
14.7244

>  <SCORE.INTER.VDW>
-14.0391

>  <SCORE.INTER.norm>
0.193107

>  <SCORE.INTRA>
-1.95314

>  <SCORE.INTRA.DIHEDRAL>
-7.43716

>  <SCORE.INTRA.DIHEDRAL.0>
10.5765

>  <SCORE.INTRA.POLAR>
0

>  <SCORE.INTRA.POLAR.0>
0

>  <SCORE.INTRA.REPUL>
0

>  <SCORE.INTRA.REPUL.0>
0

>  <SCORE.INTRA.SOLV>
0.702534

>  <SCORE.INTRA.SOLV.lig_0>
-50.1861

>  <SCORE.INTRA.VDW>
1.41418

>  <SCORE.INTRA.VDW.0>
-1.36671

>  <SCORE.INTRA.norm>
-0.13951

>  <SCORE.RESTR>
0

>  <SCORE.RESTR.CAVITY>
0

>  <SCORE.RESTR.norm>
0

>  <SCORE.SYSTEM>
0

>  <SCORE.SYSTEM.CONST>
0

>  <SCORE.SYSTEM.DIHEDRAL>
0

>  <SCORE.SYSTEM.SOLV>
0

>  <SCORE.SYSTEM.norm>
0

>  <SCORE.heavy>
14

>  <SCORE.norm>
0.0535974

>  <RMSD>
7.867

$$$$
ligand
 OpenBabel11021811393D
libRbt.so/2013.1/901 2013/11/27
 14 13  0  0  0  0  0  0  0  0999 V2000
    9.7828   -8.8903    4.3051 N   0  0  0  0  0  0  0  0  0  0  0  0
    8.5044   -8.0845    4.5385 C   0  0  0  0  0  0  0  0  0  0  0  0
    8.9579   -6.7211    4.9154 C   0  0  0  0  0  0  0  0  0  0  0  0
    7.8369   -5.7601    5.2765 C   0  0  0  0  0  0  0  0  0  0  0  0
    7.1689   -6.2223    6.5225 N   0  0  0  0  0  0  0  0  0  0  0  0
    6.2094   -5.1275    7.0233 C   0  0  0  0  0  0  0  0  0  0  0  0
    5.7452   -5.7132    8.4423 C   0  0  0  0  0  0  0  0  0  0  0  0
    5.0930   -4.7863    9.1011 C   0  0  0  0  0  0  0  0  0  0  0  0
    4.8026   -5.6745   10.4458 C   0  0  0  0  0  0  0  0  0  0  0  0
    3.4557   -6.3293    9.9893 N   0  0  0  0  0  0  0  0  0  0  0  0
    2.3476   -6.3452   11.1168 C   0  0  0  0  0  0  0  0  0  0  0  0
    1.4539   -4.9974   10.8874 C   0  0  0  0  0  0  0  0  0  0  0  0
    2.3886   -3.8853   11.2652 C   0  0  0  0  0  0  0  0  0  0  0  0
    1.5870   -2.6162   11.0955 N   0  0  0  0  0  0  0  0  0  0  0  0
  1  2  1  0  0  0  0
  2  3  1  0  0  0  0
  3  4  1  0  0  0  0
  4  5  1  0  0  0  0
  5  6  1  0  0  0  0
  6  7  1  0  0  0  0
  7  8  1  0  0  0  0
  8  9  1  0  0  0  0
  9 10  1  0  0  0  0
 10 11  1  0  0  0  0
 11 12  1  0  0  0  0
 12 13  1  0  0  0  0
 13 14  1  0  0  0  0
M  END
>  <CHROM.1>
-176.58016688,66.02539039,170.01077090,-172.84568690,169.45149457,-179.14870919
-88.21875448,-136.59222126,93.69647975,-69.37764044,-178.78135485,5.38094153
-5.79657164,8.20899782,0.21216357,-0.78584566,3.00327843

>  <Name>
ligand

>  <RI>
0

>  <Rbt.Current_Directory>
/home/itssahil/PROJECTS/Mol_Feturizer/New_Systems/rnas/1FUF

>  <Rbt.Executable>
rbdock ($Id: //depot/dev/client3/rdock/2013.1/src/exe/rbdock.cxx#4 $)

>  <Rbt.Library>
libRbt.so (2013.1, Build901 2013/11/27)

>  <Rbt.Parameter_File>
/export/apps/rDock/src/rDock_2013.1_src/data/scripts/dock_solv.prm

>  <Rbt.Receptor>
prm/pocket_docking_8.prm

>  <SCORE>
-3.27185

>  <SCORE.INTER>
-2.28915

>  <SCORE.INTER.CONST>
1

>  <SCORE.INTER.POLAR>
0

>  <SCORE.INTER.ROT>
11

>  <SCORE.INTER.SOLV>
11.4452

>  <SCORE.INTER.VDW>
-16.2745

>  <SCORE.INTER.norm>
-0.163511

>  <SCORE.INTRA>
-0.9827

>  <SCORE.INTRA.DIHEDRAL>
-5.32336

>  <SCORE.INTRA.DIHEDRAL.0>
10.5765

>  <SCORE.INTRA.POLAR>
0

>  <SCORE.INTRA.POLAR.0>
0

>  <SCORE.INTRA.REPUL>
0

>  <SCORE.INTRA.REPUL.0>
0

>  <SCORE.INTRA.SOLV>
1.40765

>  <SCORE.INTRA.SOLV.lig_0>
-50.1861

>  <SCORE.INTRA.VDW>
0.975154

>  <SCORE.INTRA.VDW.0>
-1.36671

>  <SCORE.INTRA.norm>
-0.0701929

>  <SCORE.RESTR>
0

>  <SCORE.RESTR.CAVITY>
0

>  <SCORE.RESTR.norm>
0

>  <SCORE.SYSTEM>
0

>  <SCORE.SYSTEM.CONST>
0

>  <SCORE.SYSTEM.DIHEDRAL>
0

>  <SCORE.SYSTEM.SOLV>
0

>  <SCORE.SYSTEM.norm>
0

>  <SCORE.heavy>
14

>  <SCORE.norm>
-0.233703

>  <RMSD>
7.899

$$$$
ligand
 OpenBabel11021811393D
libRbt.so/2013.1/901 2013/11/27
 14 13  0  0  0  0  0  0  0  0999 V2000
   10.0955   -9.0372    4.6875 N   0  0  0  0  0  0  0  0  0  0  0  0
    9.5800   -7.9038    5.5751 C   0  0  0  0  0  0  0  0  0  0  0  0
    8.6856   -7.0954    4.7071 C   0  0  0  0  0  0  0  0  0  0  0  0
    8.1261   -5.8456    5.3670 C   0  0  0  0  0  0  0  0  0  0  0  0
    7.3162   -6.2307    6.5536 N   0  0  0  0  0  0  0  0  0  0  0  0
    6.5869   -4.9893    7.0983 C   0  0  0  0  0  0  0  0  0  0  0  0
    5.6388   -5.6257    8.2243 C   0  0  0  0  0  0  0  0  0  0  0  0
    4.6817   -6.3115    7.6478 C   0  0  0  0  0  0  0  0  0  0  0  0
    4.0449   -6.9423    9.0183 C   0  0  0  0  0  0  0  0  0  0  0  0
    3.1679   -5.7149    9.4375 N   0  0  0  0  0  0  0  0  0  0  0  0
    2.4655   -5.8916   10.8427 C   0  0  0  0  0  0  0  0  0  0  0  0
    1.4572   -4.6169   11.0044 C   0  0  0  0  0  0  0  0  0  0  0  0
    2.3812   -3.4339   11.0073 C   0  0  0  0  0  0  0  0  0  0  0  0
    1.4825   -2.2267   11.1380 N   0  0  0  0  0  0  0  0  0  0  0  0
  1  2  1  0  0  0  0
  2  3  1  0  0  0  0
  3  4  1  0  0  0  0
  4  5  1  0  0  0  0
  5  6  1  0  0  0  0
  6  7  1  0  0  0  0
  7  8  1  0  0  0  0
  8  9  1  0  0  0  0
  9 10  1  0  0  0  0
 10 11  1  0  0  0  0
 11 12  1  0  0  0  0
 12 13  1  0  0  0  0
 13 14  1  0  0  0  0
M  END
>  <CHROM.1>
-176.10466527,-60.83316320,-171.87564395,172.92889605,-71.00048639,173.67365231
82.09169273,-174.64845390,-172.68936527,-62.97551593,179.29576127,5.40780730
-5.84755718,8.02209229,0.32231700,-0.68741556,3.09181563

>  <Name>
ligand

>  <RI>
0

>  <Rbt.Current_Directory>
/home/itssahil/PROJECTS/Mol_Feturizer/New_Systems/rnas/1FUF

>  <Rbt.Executable>
rbdock ($Id: //depot/dev/client3/rdock/2013.1/src/exe/rbdock.cxx#4 $)

>  <Rbt.Library>
libRbt.so (2013.1, Build901 2013/11/27)

>  <Rbt.Parameter_File>
/export/apps/rDock/src/rDock_2013.1_src/data/scripts/dock_solv.prm

>  <Rbt.Receptor>
prm/pocket_docking_7.prm

>  <SCORE>
-2.36956

>  <SCORE.INTER>
-0.536499

>  <SCORE.INTER.CONST>
1

>  <SCORE.INTER.POLAR>
0

>  <SCORE.INTER.ROT>
11

>  <SCORE.INTER.SOLV>
10.4514

>  <SCORE.INTER.VDW>
-14.7748

>  <SCORE.INTER.norm>
-0.0383214

>  <SCORE.INTRA>
-1.83306

>  <SCORE.INTRA.DIHEDRAL>
-8.0592

>  <SCORE.INTRA.DIHEDRAL.0>
10.5765

>  <SCORE.INTRA.POLAR>
0

>  <SCORE.INTRA.POLAR.0>
0

>  <SCORE.INTRA.REPUL>
0

>  <SCORE.INTRA.REPUL.0>
0

>  <SCORE.INTRA.SOLV>
1.69418

>  <SCORE.INTRA.SOLV.lig_0>
-50.1861

>  <SCORE.INTRA.VDW>
1.34945

>  <SCORE.INTRA.VDW.0>
-1.36671

>  <SCORE.INTRA.norm>
-0.130933

>  <SCORE.RESTR>
0

>  <SCORE.RESTR.CAVITY>
0

>  <SCORE.RESTR.norm>
0

>  <SCORE.SYSTEM>
0

>  <SCORE.SYSTEM.CONST>
0

>  <SCORE.SYSTEM.DIHEDRAL>
0

>  <SCORE.SYSTEM.SOLV>
0

>  <SCORE.SYSTEM.norm>
0

>  <SCORE.heavy>
14

>  <SCORE.norm>
-0.169254

>  <RMSD>
7.906

$$$$
ligand
 OpenBabel11021811393D
libRbt.so/2013.1/901 2013/11/27
 14 13  0  0  0  0  0  0  0  0999 V2000
    8.2315   -8.7253    6.4054 N   0  0  0  0  0  0  0  0  0  0  0  0
    8.4906   -8.3540    4.9449 C   0  0  0  0  0  0  0  0  0  0  0  0
    8.8816   -6.9211    4.9630 C   0  0  0  0  0  0  0  0  0  0  0  0
    7.7426   -5.9595    5.2608 C   0  0  0  0  0  0  0  0  0  0  0  0
    7.2782   -6.1578    6.6599 N   0  0  0  0  0  0  0  0  0  0  0  0
    6.2318   -5.0835    7.0073 C   0  0  0  0  0  0  0  0  0  0  0  0
    5.8849   -5.4356    8.5330 C   0  0  0  0  0  0  0  0  0  0  0  0
    5.0613   -4.5337    9.0092 C   0  0  0  0  0  0  0  0  0  0  0  0
    4.8153   -5.2466   10.4628 C   0  0  0  0  0  0  0  0  0  0  0  0
    3.8387   -4.1821   11.0664 N   0  0  0  0  0  0  0  0  0  0  0  0
    2.3933   -4.2173   10.4270 C   0  0  0  0  0  0  0  0  0  0  0  0
    1.5140   -5.2297   11.3596 C   0  0  0  0  0  0  0  0  0  0  0  0
    1.9833   -6.5927   10.9409 C   0  0  0  0  0  0  0  0  0  0  0  0
    1.1383   -7.5649   11.7299 N   0  0  0  0  0  0  0  0  0  0  0  0
  1  2  1  0  0  0  0
  2  3  1  0  0  0  0
  3  4  1  0  0  0  0
  4  5  1  0  0  0  0
  5  6  1  0  0  0  0
  6  7  1  0  0  0  0
  7  8  1  0  0  0  0
  8  9  1  0  0  0  0
  9 10  1  0  0  0  0
 10 11  1  0  0  0  0
 11 12  1  0  0  0  0
 12 13  1  0  0  0  0
 13 14  1  0  0  0  0
M  END
>  <CHROM.1>
-71.95915202,66.78450018,173.92778958,-178.75428545,175.51642361,174.99606538
179.54847318,72.84163510,91.60027064,-76.53678475,-177.03848730,5.24900611
-6.01430089,8.48338416,0.29160521,-0.72742030,-2.99657120

>  <Name>
ligand

>  <RI>
0

>  <Rbt.Current_Directory>
/home/itssahil/PROJECTS/Mol_Feturizer/New_Systems/rnas/1FUF

>  <Rbt.Executable>
rbdock ($Id: //depot/dev/client3/rdock/2013.1/src/exe/rbdock.cxx#4 $)

>  <Rbt.Library>
libRbt.so (2013.1, Build901 2013/11/27)

>  <Rbt.Parameter_File>
/export/apps/rDock/src/rDock_2013.1_src/data/scripts/dock_solv.prm

>  <Rbt.Receptor>
prm/pocket_docking_7.prm

>  <SCORE>
-2.20656

>  <SCORE.INTER>
-1.17549

>  <SCORE.INTER.CONST>
1

>  <SCORE.INTER.POLAR>
0

>  <SCORE.INTER.ROT>
11

>  <SCORE.INTER.SOLV>
18.8925

>  <SCORE.INTER.VDW>
-18.0145

>  <SCORE.INTER.norm>
-0.0839639

>  <SCORE.INTRA>
-1.03107

>  <SCORE.INTRA.DIHEDRAL>
-7.88275

>  <SCORE.INTRA.DIHEDRAL.0>
10.5765

>  <SCORE.INTRA.POLAR>
0

>  <SCORE.INTRA.POLAR.0>
0

>  <SCORE.INTRA.REPUL>
0

>  <SCORE.INTRA.REPUL.0>
0

>  <SCORE.INTRA.SOLV>
3.50383

>  <SCORE.INTRA.SOLV.lig_0>
-50.1861

>  <SCORE.INTRA.VDW>
1.15839

>  <SCORE.INTRA.VDW.0>
-1.36671

>  <SCORE.INTRA.norm>
-0.0736477

>  <SCORE.RESTR>
0

>  <SCORE.RESTR.CAVITY>
0

>  <SCORE.RESTR.norm>
0

>  <SCORE.SYSTEM>
0

>  <SCORE.SYSTEM.CONST>
0

>  <SCORE.SYSTEM.DIHEDRAL>
0

>  <SCORE.SYSTEM.SOLV>
0

>  <SCORE.SYSTEM.norm>
0

>  <SCORE.heavy>
14

>  <SCORE.norm>
-0.157612

>  <RMSD>
7.961

$$$$
ligand
 OpenBabel11021811393D
libRbt.so/2013.1/901 2013/11/27
 14 13  0  0  0  0  0  0  0  0999 V2000
    1.6318   -1.4219   10.8188 N   0  0  0  0  0  0  0  0  0  0  0  0
    2.0167   -2.7635   11.4432 C   0  0  0  0  0  0  0  0  0  0  0  0
    3.0542   -3.3354   10.5470 C   0  0  0  0  0  0  0  0  0  0  0  0
    3.4619   -4.7609   10.8820 C   0  0  0  0  0  0  0  0  0  0  0  0
    4.5800   -5.1791    9.9947 N   0  0  0  0  0  0  0  0  0  0  0  0
    4.0061   -5.8295    8.7229 C   0  0  0  0  0  0  0  0  0  0  0  0
    5.2383   -5.7138    7.7030 C   0  0  0  0  0  0  0  0  0  0  0  0
    6.1818   -6.5481    8.0670 C   0  0  0  0  0  0  0  0  0  0  0  0
    7.4448   -5.6598    7.5216 C   0  0  0  0  0  0  0  0  0  0  0  0
    7.4075   -6.1213    6.0259 N   0  0  0  0  0  0  0  0  0  0  0  0
    8.3051   -7.3896    5.7342 C   0  0  0  0  0  0  0  0  0  0  0  0
    9.6817   -6.8211    5.0637 C   0  0  0  0  0  0  0  0  0  0  0  0
   10.4904   -6.3709    6.2454 C   0  0  0  0  0  0  0  0  0  0  0  0
   10.9506   -7.6414    6.9205 N   0  0  0  0  0  0  0  0  0  0  0  0
  1  2  1  0  0  0  0
  2  3  1  0  0  0  0
  3  4  1  0  0  0  0
  4  5  1  0  0  0  0
  5  6  1  0  0  0  0
  6  7  1  0  0  0  0
  7  8  1  0  0  0  0
  8  9  1  0  0  0  0
  9 10  1  0  0  0  0
 10 11  1  0  0  0  0
 11 12  1  0  0  0  0
 12 13  1  0  0  0  0
 13 14  1  0  0  0  0
M  END
>  <CHROM.1>
-172.65348295,-175.23991229,-90.22639598,160.08781739,71.18421353,-149.15575636
-83.50549507,-90.52499993,-100.43949347,81.09106411,72.52608737,6.03216341
-5.39699728,8.26349054,-2.46994620,-0.24875457,-2.54380409

>  <Name>
ligand

>  <RI>
0

>  <Rbt.Current_Directory>
/home/itssahil/PROJECTS/Mol_Feturizer/New_Systems/rnas/1FUF

>  <Rbt.Executable>
rbdock ($Id: //depot/dev/client3/rdock/2013.1/src/exe/rbdock.cxx#4 $)

>  <Rbt.Library>
libRbt.so (2013.1, Build901 2013/11/27)

>  <Rbt.Parameter_File>
/export/apps/rDock/src/rDock_2013.1_src/data/scripts/dock_solv.prm

>  <Rbt.Receptor>
prm/pocket_docking_6.prm

>  <SCORE>
5.6903

>  <SCORE.INTER>
2.75596

>  <SCORE.INTER.CONST>
1

>  <SCORE.INTER.POLAR>
0

>  <SCORE.INTER.ROT>
11

>  <SCORE.INTER.SOLV>
10.5115

>  <SCORE.INTER.VDW>
-12.5998

>  <SCORE.INTER.norm>
0.196855

>  <SCORE.INTRA>
2.93433

>  <SCORE.INTRA.DIHEDRAL>
-0.2705

>  <SCORE.INTRA.DIHEDRAL.0>
10.5765

>  <SCORE.INTRA.POLAR>
0

>  <SCORE.INTRA.POLAR.0>
0

>  <SCORE.INTRA.REPUL>
0

>  <SCORE.INTRA.REPUL.0>
0

>  <SCORE.INTRA.SOLV>
2.8725

>  <SCORE.INTRA.SOLV.lig_0>
-50.1861

>  <SCORE.INTRA.VDW>
1.63333

>  <SCORE.INTRA.VDW.0>
-1.36671

>  <SCORE.INTRA.norm>
0.209595

>  <SCORE.RESTR>
0

>  <SCORE.RESTR.CAVITY>
0

>  <SCORE.RESTR.norm>
0

>  <SCORE.SYSTEM>
0

>  <SCORE.SYSTEM.CONST>
0

>  <SCORE.SYSTEM.DIHEDRAL>
0

>  <SCORE.SYSTEM.SOLV>
0

>  <SCORE.SYSTEM.norm>
0

>  <SCORE.heavy>
14

>  <SCORE.norm>
0.40645

>  <RMSD>
7.967

$$$$
ligand
 OpenBabel11021811393D
libRbt.so/2013.1/901 2013/11/27
 14 13  0  0  0  0  0  0  0  0999 V2000
    0.9435   -2.0000   10.6440 N   0  0  0  0  0  0  0  0  0  0  0  0
    1.6977   -3.3166   10.4541 C   0  0  0  0  0  0  0  0  0  0  0  0
    3.0494   -3.0856   11.0254 C   0  0  0  0  0  0  0  0  0  0  0  0
    3.9899   -4.2754   10.9230 C   0  0  0  0  0  0  0  0  0  0  0  0
    4.2119   -4.6110    9.4911 N   0  0  0  0  0  0  0  0  0  0  0  0
    5.7182   -4.8057    9.2403 C   0  0  0  0  0  0  0  0  0  0  0  0
    5.7663   -5.0342    7.6537 C   0  0  0  0  0  0  0  0  0  0  0  0
    7.0105   -5.2066    7.2783 C   0  0  0  0  0  0  0  0  0  0  0  0
    6.7036   -5.4083    5.6825 C   0  0  0  0  0  0  0  0  0  0  0  0
    8.1668   -5.7107    5.2145 N   0  0  0  0  0  0  0  0  0  0  0  0
    8.5076   -7.2536    5.1651 C   0  0  0  0  0  0  0  0  0  0  0  0
    8.8686   -7.6833    6.6990 C   0  0  0  0  0  0  0  0  0  0  0  0
    9.1023   -9.1631    6.6055 C   0  0  0  0  0  0  0  0  0  0  0  0
    9.4100   -9.6077    8.0160 N   0  0  0  0  0  0  0  0  0  0  0  0
  1  2  1  0  0  0  0
  2  3  1  0  0  0  0
  3  4  1  0  0  0  0
  4  5  1  0  0  0  0
  5  6  1  0  0  0  0
  6  7  1  0  0  0  0
  7  8  1  0  0  0  0
  8  9  1  0  0  0  0
  9 10  1  0  0  0  0
 10 11  1  0  0  0  0
 11 12  1  0  0  0  0
 12 13  1  0  0  0  0
 13 14  1  0  0  0  0
M  END
>  <CHROM.1>
-179.08550629,61.57508652,132.84580253,-175.55403988,179.44320752,179.79036876
-176.50831955,93.43713245,-81.31361426,176.77694672,-178.75405192,5.93912152
-5.51157278,8.14939037,3.00193317,-0.77646659,2.10791791

>  <Name>
ligand

>  <RI>
0

>  <Rbt.Current_Directory>
/home/itssahil/PROJECTS/Mol_Feturizer/New_Systems/rnas/1FUF

>  <Rbt.Executable>
rbdock ($Id: //depot/dev/client3/rdock/2013.1/src/exe/rbdock.cxx#4 $)

>  <Rbt.Library>
libRbt.so (2013.1, Build901 2013/11/27)

>  <Rbt.Parameter_File>
/export/apps/rDock/src/rDock_2013.1_src/data/scripts/dock_solv.prm

>  <Rbt.Receptor>
prm/pocket_docking_6.prm

>  <SCORE>
-1.93323

>  <SCORE.INTER>
1.54283

>  <SCORE.INTER.CONST>
1

>  <SCORE.INTER.POLAR>
0

>  <SCORE.INTER.ROT>
11

>  <SCORE.INTER.SOLV>
10.4406

>  <SCORE.INTER.VDW>
-13.385

>  <SCORE.INTER.norm>
0.110202

>  <SCORE.INTRA>
-3.48381

>  <SCORE.INTRA.DIHEDRAL>
-8.34217

>  <SCORE.INTRA.DIHEDRAL.0>
10.5765

>  <SCORE.INTRA.POLAR>
0

>  <SCORE.INTRA.POLAR.0>
0

>  <SCORE.INTRA.REPUL>
0

>  <SCORE.INTRA.REPUL.0>
0

>  <SCORE.INTRA.SOLV>
0.232646

>  <SCORE.INTRA.SOLV.lig_0>
-50.1861

>  <SCORE.INTRA.VDW>
0.570954

>  <SCORE.INTRA.VDW.0>
-1.36671

>  <SCORE.INTRA.norm>
-0.248843

>  <SCORE.RESTR>
0.00774681

>  <SCORE.RESTR.CAVITY>
0.00774681

>  <SCORE.RESTR.norm>
0.000553344

>  <SCORE.SYSTEM>
0

>  <SCORE.SYSTEM.CONST>
0

>  <SCORE.SYSTEM.DIHEDRAL>
0

>  <SCORE.SYSTEM.SOLV>
0

>  <SCORE.SYSTEM.norm>
0

>  <SCORE.heavy>
14

>  <SCORE.norm>
-0.138088

>  <RMSD>
7.971

$$$$
ligand
 OpenBabel11021811393D
libRbt.so/2013.1/901 2013/11/27
 14 13  0  0  0  0  0  0  0  0999 V2000
    0.8238   -2.5646   10.6310 N   0  0  0  0  0  0  0  0  0  0  0  0
    2.0840   -2.1330   11.3818 C   0  0  0  0  0  0  0  0  0  0  0  0
    3.1941   -2.9108   10.7740 C   0  0  0  0  0  0  0  0  0  0  0  0
    3.0434   -4.4192   10.8860 C   0  0  0  0  0  0  0  0  0  0  0  0
    4.2902   -5.0791   10.4143 N   0  0  0  0  0  0  0  0  0  0  0  0
    4.2176   -5.2762    8.8893 C   0  0  0  0  0  0  0  0  0  0  0  0
    5.7649   -5.2230    8.4712 C   0  0  0  0  0  0  0  0  0  0  0  0
    5.8673   -5.3589    7.1713 C   0  0  0  0  0  0  0  0  0  0  0  0
    7.5011   -5.2755    7.0975 C   0  0  0  0  0  0  0  0  0  0  0  0
    7.6671   -5.5770    5.5701 N   0  0  0  0  0  0  0  0  0  0  0  0
    8.9818   -6.3843    5.2253 C   0  0  0  0  0  0  0  0  0  0  0  0
    8.4836   -7.8278    4.6456 C   0  0  0  0  0  0  0  0  0  0  0  0
    9.7612   -8.5934    4.4590 C   0  0  0  0  0  0  0  0  0  0  0  0
    9.3433   -9.9390    3.9144 N   0  0  0  0  0  0  0  0  0  0  0  0
  1  2  1  0  0  0  0
  2  3  1  0  0  0  0
  3  4  1  0  0  0  0
  4  5  1  0  0  0  0
  5  6  1  0  0  0  0
  6  7  1  0  0  0  0
  7  8  1  0  0  0  0
  8  9  1  0  0  0  0
  9 10  1  0  0  0  0
 10 11  1  0  0  0  0
 11 12  1  0  0  0  0
 12 13  1  0  0  0  0
 13 14  1  0  0  0  0
M  END
>  <CHROM.1>
-60.12801657,-172.32079499,-86.65431995,151.07173602,-179.03962041,-179.54196964
174.69534893,-146.57763070,115.12163286,-174.87045386,-179.71159467,5.78749136
-5.46857349,7.82369468,2.62018367,0.73242893,0.04822283

>  <Name>
ligand

>  <RI>
0

>  <Rbt.Current_Directory>
/home/itssahil/PROJECTS/Mol_Feturizer/New_Systems/rnas/1FUF

>  <Rbt.Executable>
rbdock ($Id: //depot/dev/client3/rdock/2013.1/src/exe/rbdock.cxx#4 $)

>  <Rbt.Library>
libRbt.so (2013.1, Build901 2013/11/27)

>  <Rbt.Parameter_File>
/export/apps/rDock/src/rDock_2013.1_src/data/scripts/dock_solv.prm

>  <Rbt.Receptor>
prm/pocket_docking_8.prm

>  <SCORE>
-1.7288

>  <SCORE.INTER>
1.03661

>  <SCORE.INTER.CONST>
1

>  <SCORE.INTER.POLAR>
0

>  <SCORE.INTER.ROT>
11

>  <SCORE.INTER.SOLV>
12.6605

>  <SCORE.INTER.VDW>
-14.4624

>  <SCORE.INTER.norm>
0.0740437

>  <SCORE.INTRA>
-2.76542

>  <SCORE.INTRA.DIHEDRAL>
-7.19763

>  <SCORE.INTRA.DIHEDRAL.0>
10.5765

>  <SCORE.INTRA.POLAR>
0

>  <SCORE.INTRA.POLAR.0>
0

>  <SCORE.INTRA.REPUL>
0

>  <SCORE.INTRA.REPUL.0>
0

>  <SCORE.INTRA.SOLV>
0.781559

>  <SCORE.INTRA.SOLV.lig_0>
-50.1861

>  <SCORE.INTRA.VDW>
0.442619

>  <SCORE.INTRA.VDW.0>
-1.36671

>  <SCORE.INTRA.norm>
-0.19753

>  <SCORE.RESTR>
0

>  <SCORE.RESTR.CAVITY>
0

>  <SCORE.RESTR.norm>
0

>  <SCORE.SYSTEM>
0

>  <SCORE.SYSTEM.CONST>
0

>  <SCORE.SYSTEM.DIHEDRAL>
0

>  <SCORE.SYSTEM.SOLV>
0

>  <SCORE.SYSTEM.norm>
0

>  <SCORE.heavy>
14

>  <SCORE.norm>
-0.123486

>  <RMSD>
8.011

$$$$
ligand
 OpenBabel11021811393D
libRbt.so/2013.1/901 2013/11/27
 14 13  0  0  0  0  0  0  0  0999 V2000
    6.8553  -11.3412    8.2619 N   0  0  0  0  0  0  0  0  0  0  0  0
    6.3348  -10.4057    9.3536 C   0  0  0  0  0  0  0  0  0  0  0  0
    7.1558   -9.1725    9.2441 C   0  0  0  0  0  0  0  0  0  0  0  0
    6.9065   -8.3576    7.9854 C   0  0  0  0  0  0  0  0  0  0  0  0
    7.8128   -7.1784    7.9696 N   0  0  0  0  0  0  0  0  0  0  0  0
    7.4067   -6.2381    6.8204 C   0  0  0  0  0  0  0  0  0  0  0  0
    6.6435   -5.0644    7.6026 C   0  0  0  0  0  0  0  0  0  0  0  0
    5.4597   -5.4890    7.9729 C   0  0  0  0  0  0  0  0  0  0  0  0
    5.0536   -4.1750    8.8618 C   0  0  0  0  0  0  0  0  0  0  0  0
    3.6451   -4.6619    9.3418 N   0  0  0  0  0  0  0  0  0  0  0  0
    3.0684   -3.8279   10.5546 C   0  0  0  0  0  0  0  0  0  0  0  0
    1.5669   -4.4102   10.8267 C   0  0  0  0  0  0  0  0  0  0  0  0
    1.8163   -5.7584   11.4378 C   0  0  0  0  0  0  0  0  0  0  0  0
    2.1796   -6.6592   10.2808 N   0  0  0  0  0  0  0  0  0  0  0  0
  1  2  1  0  0  0  0
  2  3  1  0  0  0  0
  3  4  1  0  0  0  0
  4  5  1  0  0  0  0
  5  6  1  0  0  0  0
  6  7  1  0  0  0  0
  7  8  1  0  0  0  0
  8  9  1  0  0  0  0
  9 10  1  0  0  0  0
 10 11  1  0  0  0  0
 11 12  1  0  0  0  0
 12 13  1  0  0  0  0
 13 14  1  0  0  0  0
M  END
>  <CHROM.1>
68.70210171,-178.19607221,-170.93779198,103.53264086,-74.96825016,173.48289418
-179.10648853,164.39961142,175.84323046,72.12086783,-77.80239006,5.13607907
-6.62391178,9.03674109,0.60731242,-0.59077149,2.92080746

>  <Name>
ligand

>  <RI>
0

>  <Rbt.Current_Directory>
/home/itssahil/PROJECTS/Mol_Feturizer/New_Systems/rnas/1FUF

>  <Rbt.Executable>
rbdock ($Id: //depot/dev/client3/rdock/2013.1/src/exe/rbdock.cxx#4 $)

>  <Rbt.Library>
libRbt.so (2013.1, Build901 2013/11/27)

>  <Rbt.Parameter_File>
/export/apps/rDock/src/rDock_2013.1_src/data/scripts/dock_solv.prm

>  <Rbt.Receptor>
prm/pocket_docking_8.prm

>  <SCORE>
1.27296

>  <SCORE.INTER>
1.11842

>  <SCORE.INTER.CONST>
1

>  <SCORE.INTER.POLAR>
0

>  <SCORE.INTER.ROT>
11

>  <SCORE.INTER.SOLV>
11.4963

>  <SCORE.INTER.VDW>
-14.0198

>  <SCORE.INTER.norm>
0.0798875

>  <SCORE.INTRA>
0.154531

>  <SCORE.INTRA.DIHEDRAL>
-6.3857

>  <SCORE.INTRA.DIHEDRAL.0>
10.5765

>  <SCORE.INTRA.POLAR>
0

>  <SCORE.INTRA.POLAR.0>
0

>  <SCORE.INTRA.REPUL>
0

>  <SCORE.INTRA.REPUL.0>
0

>  <SCORE.INTRA.SOLV>
4.81133

>  <SCORE.INTRA.SOLV.lig_0>
-50.1861

>  <SCORE.INTRA.VDW>
0.941719

>  <SCORE.INTRA.VDW.0>
-1.36671

>  <SCORE.INTRA.norm>
0.0110379

>  <SCORE.RESTR>
0

>  <SCORE.RESTR.CAVITY>
0

>  <SCORE.RESTR.norm>
0

>  <SCORE.SYSTEM>
0

>  <SCORE.SYSTEM.CONST>
0

>  <SCORE.SYSTEM.DIHEDRAL>
0

>  <SCORE.SYSTEM.SOLV>
0

>  <SCORE.SYSTEM.norm>
0

>  <SCORE.heavy>
14

>  <SCORE.norm>
0.0909254

>  <RMSD>
8.032

$$$$
ligand
 OpenBabel11021811393D
libRbt.so/2013.1/901 2013/11/27
 14 13  0  0  0  0  0  0  0  0999 V2000
    1.7631   -2.5618   11.1769 N   0  0  0  0  0  0  0  0  0  0  0  0
    2.0952   -3.7562   10.2819 C   0  0  0  0  0  0  0  0  0  0  0  0
    2.0303   -4.9465   11.1682 C   0  0  0  0  0  0  0  0  0  0  0  0
    2.3508   -6.2638   10.4807 C   0  0  0  0  0  0  0  0  0  0  0  0
    3.7510   -6.2348    9.9800 N   0  0  0  0  0  0  0  0  0  0  0  0
    3.8075   -6.8832    8.5849 C   0  0  0  0  0  0  0  0  0  0  0  0
    5.3181   -6.5830    8.1376 C   0  0  0  0  0  0  0  0  0  0  0  0
    5.4524   -5.3011    7.8982 C   0  0  0  0  0  0  0  0  0  0  0  0
    7.0594   -5.3315    7.5848 C   0  0  0  0  0  0  0  0  0  0  0  0
    6.9821   -5.7822    6.0874 N   0  0  0  0  0  0  0  0  0  0  0  0
    8.3117   -5.5098    5.2768 C   0  0  0  0  0  0  0  0  0  0  0  0
    9.2112   -6.8656    5.4204 C   0  0  0  0  0  0  0  0  0  0  0  0
    8.4679   -7.8720    4.5910 C   0  0  0  0  0  0  0  0  0  0  0  0
    9.3114   -9.1244    4.6336 N   0  0  0  0  0  0  0  0  0  0  0  0
  1  2  1  0  0  0  0
  2  3  1  0  0  0  0
  3  4  1  0  0  0  0
  4  5  1  0  0  0  0
  5  6  1  0  0  0  0
  6  7  1  0  0  0  0
  7  8  1  0  0  0  0
  8  9  1  0  0  0  0
  9 10  1  0  0  0  0
 10 11  1  0  0  0  0
 11 12  1  0  0  0  0
 12 13  1  0  0  0  0
 13 14  1  0  0  0  0
M  END
>  <CHROM.1>
-179.15916627,62.47586589,-139.07045335,172.65359048,-70.27926577,176.40043742
82.50117167,162.21845632,91.16226668,70.40327813,176.89359822,5.42227467
-5.92969538,7.95016276,-2.78420179,-0.69392458,-3.07732673

>  <Name>
ligand

>  <RI>
0

>  <Rbt.Current_Directory>
/home/itssahil/PROJECTS/Mol_Feturizer/New_Systems/rnas/1FUF

>  <Rbt.Executable>
rbdock ($Id: //depot/dev/client3/rdock/2013.1/src/exe/rbdock.cxx#4 $)

>  <Rbt.Library>
libRbt.so (2013.1, Build901 2013/11/27)

>  <Rbt.Parameter_File>
/export/apps/rDock/src/rDock_2013.1_src/data/scripts/dock_solv.prm

>  <Rbt.Receptor>
prm/pocket_docking_7.prm

>  <SCORE>
-2.88665

>  <SCORE.INTER>
-1.73786

>  <SCORE.INTER.CONST>
1

>  <SCORE.INTER.POLAR>
0

>  <SCORE.INTER.ROT>
11

>  <SCORE.INTER.SOLV>
11.6946

>  <SCORE.INTER.VDW>
-15.9901

>  <SCORE.INTER.norm>
-0.124133

>  <SCORE.INTRA>
-1.14879

>  <SCORE.INTRA.DIHEDRAL>
-6.11937

>  <SCORE.INTRA.DIHEDRAL.0>
10.5765

>  <SCORE.INTRA.POLAR>
0

>  <SCORE.INTRA.POLAR.0>
0

>  <SCORE.INTRA.REPUL>
0

>  <SCORE.INTRA.REPUL.0>
0

>  <SCORE.INTRA.SOLV>
1.58655

>  <SCORE.INTRA.SOLV.lig_0>
-50.1861

>  <SCORE.INTRA.VDW>
1.11762

>  <SCORE.INTRA.VDW.0>
-1.36671

>  <SCORE.INTRA.norm>
-0.0820564

>  <SCORE.RESTR>
0

>  <SCORE.RESTR.CAVITY>
0

>  <SCORE.RESTR.norm>
0

>  <SCORE.SYSTEM>
0

>  <SCORE.SYSTEM.CONST>
0

>  <SCORE.SYSTEM.DIHEDRAL>
0

>  <SCORE.SYSTEM.SOLV>
0

>  <SCORE.SYSTEM.norm>
0

>  <SCORE.heavy>
14

>  <SCORE.norm>
-0.20619

>  <RMSD>
8.034

$$$$
ligand
 OpenBabel11021811393D
libRbt.so/2013.1/901 2013/11/27
 14 13  0  0  0  0  0  0  0  0999 V2000
   10.8689   -7.2842    4.7605 N   0  0  0  0  0  0  0  0  0  0  0  0
    9.5396   -7.5836    4.0668 C   0  0  0  0  0  0  0  0  0  0  0  0
    8.5221   -7.6006    5.1490 C   0  0  0  0  0  0  0  0  0  0  0  0
    8.3395   -6.2722    5.8649 C   0  0  0  0  0  0  0  0  0  0  0  0
    7.2976   -6.4141    6.9168 N   0  0  0  0  0  0  0  0  0  0  0  0
    6.3223   -5.2260    6.8325 C   0  0  0  0  0  0  0  0  0  0  0  0
    4.9741   -5.8571    7.4291 C   0  0  0  0  0  0  0  0  0  0  0  0
    5.0831   -5.9596    8.7315 C   0  0  0  0  0  0  0  0  0  0  0  0
    3.6219   -6.6512    8.9928 C   0  0  0  0  0  0  0  0  0  0  0  0
    3.6050   -6.5442   10.5547 N   0  0  0  0  0  0  0  0  0  0  0  0
    2.1831   -6.1901   11.1478 C   0  0  0  0  0  0  0  0  0  0  0  0
    2.2334   -4.5997   11.5165 C   0  0  0  0  0  0  0  0  0  0  0  0
    2.3963   -3.9327   10.1817 C   0  0  0  0  0  0  0  0  0  0  0  0
    2.4874   -2.4553   10.4830 N   0  0  0  0  0  0  0  0  0  0  0  0
  1  2  1  0  0  0  0
  2  3  1  0  0  0  0
  3  4  1  0  0  0  0
  4  5  1  0  0  0  0
  5  6  1  0  0  0  0
  6  7  1  0  0  0  0
  7  8  1  0  0  0  0
  8  9  1  0  0  0  0
  9 10  1  0  0  0  0
 10 11  1  0  0  0  0
 11 12  1  0  0  0  0
 12 13  1  0  0  0  0
 13 14  1  0  0  0  0
M  END
>  <CHROM.1>
63.48683472,179.79300923,-133.67458127,152.76751997,75.16345511,-178.33641277
-170.01107016,141.65601634,-101.89148701,64.89922649,-178.41682431,5.53365701
-5.89799393,8.04476974,-0.17378872,0.72422320,-0.13872346

>  <Name>
ligand

>  <RI>
0

>  <Rbt.Current_Directory>
/home/itssahil/PROJECTS/Mol_Feturizer/New_Systems/rnas/1FUF

>  <Rbt.Executable>
rbdock ($Id: //depot/dev/client3/rdock/2013.1/src/exe/rbdock.cxx#4 $)

>  <Rbt.Library>
libRbt.so (2013.1, Build901 2013/11/27)

>  <Rbt.Parameter_File>
/export/apps/rDock/src/rDock_2013.1_src/data/scripts/dock_solv.prm

>  <Rbt.Receptor>
prm/pocket_docking_8.prm

>  <SCORE>
-3.72319

>  <SCORE.INTER>
-2.38903

>  <SCORE.INTER.CONST>
1

>  <SCORE.INTER.POLAR>
0

>  <SCORE.INTER.ROT>
11

>  <SCORE.INTER.SOLV>
10.4631

>  <SCORE.INTER.VDW>
-16.0137

>  <SCORE.INTER.norm>
-0.170645

>  <SCORE.INTRA>
-1.33416

>  <SCORE.INTRA.DIHEDRAL>
-5.85511

>  <SCORE.INTRA.DIHEDRAL.0>
10.5765

>  <SCORE.INTRA.POLAR>
0

>  <SCORE.INTRA.POLAR.0>
0

>  <SCORE.INTRA.REPUL>
0

>  <SCORE.INTRA.REPUL.0>
0

>  <SCORE.INTRA.SOLV>
1.84431

>  <SCORE.INTRA.SOLV.lig_0>
-50.1861

>  <SCORE.INTRA.VDW>
0.671243

>  <SCORE.INTRA.VDW.0>
-1.36671

>  <SCORE.INTRA.norm>
-0.0952971

>  <SCORE.RESTR>
0

>  <SCORE.RESTR.CAVITY>
0

>  <SCORE.RESTR.norm>
0

>  <SCORE.SYSTEM>
0

>  <SCORE.SYSTEM.CONST>
0

>  <SCORE.SYSTEM.DIHEDRAL>
0

>  <SCORE.SYSTEM.SOLV>
0

>  <SCORE.SYSTEM.norm>
0

>  <SCORE.heavy>
14

>  <SCORE.norm>
-0.265942

>  <RMSD>
8.079

$$$$
ligand
 OpenBabel11021811393D
libRbt.so/2013.1/901 2013/11/27
 14 13  0  0  0  0  0  0  0  0999 V2000
    1.3816   -1.4741   11.2030 N   0  0  0  0  0  0  0  0  0  0  0  0
    2.5472   -2.4120   11.5189 C   0  0  0  0  0  0  0  0  0  0  0  0
    3.2184   -2.6632   10.2178 C   0  0  0  0  0  0  0  0  0  0  0  0
    4.3907   -3.6284   10.2881 C   0  0  0  0  0  0  0  0  0  0  0  0
    3.8992   -4.9797   10.6684 N   0  0  0  0  0  0  0  0  0  0  0  0
    3.5366   -5.7674    9.3964 C   0  0  0  0  0  0  0  0  0  0  0  0
    4.6493   -6.9223    9.3897 C   0  0  0  0  0  0  0  0  0  0  0  0
    4.5052   -7.6564    8.3132 C   0  0  0  0  0  0  0  0  0  0  0  0
    5.5964   -8.8082    8.7186 C   0  0  0  0  0  0  0  0  0  0  0  0
    5.4394   -9.7144    7.4515 N   0  0  0  0  0  0  0  0  0  0  0  0
    6.4062  -10.9652    7.4463 C   0  0  0  0  0  0  0  0  0  0  0  0
    7.9159  -10.3654    7.2760 C   0  0  0  0  0  0  0  0  0  0  0  0
    7.8944   -9.7366    5.9132 C   0  0  0  0  0  0  0  0  0  0  0  0
    9.2792   -9.1664    5.7156 N   0  0  0  0  0  0  0  0  0  0  0  0
  1  2  1  0  0  0  0
  2  3  1  0  0  0  0
  3  4  1  0  0  0  0
  4  5  1  0  0  0  0
  5  6  1  0  0  0  0
  6  7  1  0  0  0  0
  7  8  1  0  0  0  0
  8  9  1  0  0  0  0
  9 10  1  0  0  0  0
 10 11  1  0  0  0  0
 11 12  1  0  0  0  0
 12 13  1  0  0  0  0
 13 14  1  0  0  0  0
M  END
>  <CHROM.1>
-177.70320642,65.29927071,89.64223099,112.61360128,-177.26281631,-172.37663842
179.51968071,178.09145136,-67.96710431,-64.52616537,179.97735580,5.04714019
-6.73299898,8.82265762,-2.19036067,-0.54677305,-2.98239183

>  <Name>
ligand

>  <RI>
0

>  <Rbt.Current_Directory>
/home/itssahil/PROJECTS/Mol_Feturizer/New_Systems/rnas/1FUF

>  <Rbt.Executable>
rbdock ($Id: //depot/dev/client3/rdock/2013.1/src/exe/rbdock.cxx#4 $)

>  <Rbt.Library>
libRbt.so (2013.1, Build901 2013/11/27)

>  <Rbt.Parameter_File>
/export/apps/rDock/src/rDock_2013.1_src/data/scripts/dock_solv.prm

>  <Rbt.Receptor>
prm/pocket_docking_7.prm

>  <SCORE>
-2.85396

>  <SCORE.INTER>
0.0352392

>  <SCORE.INTER.CONST>
1

>  <SCORE.INTER.POLAR>
0

>  <SCORE.INTER.ROT>
11

>  <SCORE.INTER.SOLV>
13.7738

>  <SCORE.INTER.VDW>
-15.5011

>  <SCORE.INTER.norm>
0.00251708

>  <SCORE.INTRA>
-2.8892

>  <SCORE.INTRA.DIHEDRAL>
-8.30521

>  <SCORE.INTRA.DIHEDRAL.0>
10.5765

>  <SCORE.INTRA.POLAR>
0

>  <SCORE.INTRA.POLAR.0>
0

>  <SCORE.INTRA.REPUL>
0

>  <SCORE.INTRA.REPUL.0>
0

>  <SCORE.INTRA.SOLV>
0.790187

>  <SCORE.INTRA.SOLV.lig_0>
-50.1861

>  <SCORE.INTRA.VDW>
0.868312

>  <SCORE.INTRA.VDW.0>
-1.36671

>  <SCORE.INTRA.norm>
-0.206371

>  <SCORE.RESTR>
0

>  <SCORE.RESTR.CAVITY>
0

>  <SCORE.RESTR.norm>
0

>  <SCORE.SYSTEM>
0

>  <SCORE.SYSTEM.CONST>
0

>  <SCORE.SYSTEM.DIHEDRAL>
0

>  <SCORE.SYSTEM.SOLV>
0

>  <SCORE.SYSTEM.norm>
0

>  <SCORE.heavy>
14

>  <SCORE.norm>
-0.203854

>  <RMSD>
8.090

$$$$
ligand
 OpenBabel11021811393D
libRbt.so/2013.1/901 2013/11/27
 14 13  0  0  0  0  0  0  0  0999 V2000
   11.0949   -7.2847    4.4865 N   0  0  0  0  0  0  0  0  0  0  0  0
    9.5896   -7.0922    4.2993 C   0  0  0  0  0  0  0  0  0  0  0  0
    9.1678   -6.1768    5.3906 C   0  0  0  0  0  0  0  0  0  0  0  0
    7.6878   -5.8305    5.3877 C   0  0  0  0  0  0  0  0  0  0  0  0
    7.3693   -5.0019    6.5811 N   0  0  0  0  0  0  0  0  0  0  0  0
    7.2090   -5.9163    7.8091 C   0  0  0  0  0  0  0  0  0  0  0  0
    5.6260   -6.1722    7.8312 C   0  0  0  0  0  0  0  0  0  0  0  0
    5.3382   -7.0241    8.7851 C   0  0  0  0  0  0  0  0  0  0  0  0
    3.7476   -7.1817    8.4286 C   0  0  0  0  0  0  0  0  0  0  0  0
    3.2372   -5.8737    9.1215 N   0  0  0  0  0  0  0  0  0  0  0  0
    2.8722   -6.0689   10.6472 C   0  0  0  0  0  0  0  0  0  0  0  0
    1.9429   -4.7887   11.0541 C   0  0  0  0  0  0  0  0  0  0  0  0
    2.8710   -3.6180   10.9083 C   0  0  0  0  0  0  0  0  0  0  0  0
    2.0323   -2.4026   11.2263 N   0  0  0  0  0  0  0  0  0  0  0  0
  1  2  1  0  0  0  0
  2  3  1  0  0  0  0
  3  4  1  0  0  0  0
  4  5  1  0  0  0  0
  5  6  1  0  0  0  0
  6  7  1  0  0  0  0
  7  8  1  0  0  0  0
  8  9  1  0  0  0  0
  9 10  1  0  0  0  0
 10 11  1  0  0  0  0
 11 12  1  0  0  0  0
 12 13  1  0  0  0  0
 13 14  1  0  0  0  0
M  END
>  <CHROM.1>
179.32862786,175.52936637,-80.54248400,-93.99968039,175.64693526,-174.07672872
-80.29976847,-88.11596800,-162.49012089,-64.82377034,177.90863220,5.69889398
-5.74542221,7.99695282,-0.34843614,0.63754510,0.18952705

>  <Name>
ligand

>  <RI>
0

>  <Rbt.Current_Directory>
/home/itssahil/PROJECTS/Mol_Feturizer/New_Systems/rnas/1FUF

>  <Rbt.Executable>
rbdock ($Id: //depot/dev/client3/rdock/2013.1/src/exe/rbdock.cxx#4 $)

>  <Rbt.Library>
libRbt.so (2013.1, Build901 2013/11/27)

>  <Rbt.Parameter_File>
/export/apps/rDock/src/rDock_2013.1_src/data/scripts/dock_solv.prm

>  <Rbt.Receptor>
prm/pocket_docking_7.prm

>  <SCORE>
-1.06256

>  <SCORE.INTER>
0.0395571

>  <SCORE.INTER.CONST>
1

>  <SCORE.INTER.POLAR>
0

>  <SCORE.INTER.ROT>
11

>  <SCORE.INTER.SOLV>
12.0419

>  <SCORE.INTER.VDW>
-14.9209

>  <SCORE.INTER.norm>
0.0028255

>  <SCORE.INTRA>
-1.10212

>  <SCORE.INTRA.DIHEDRAL>
-6.94482

>  <SCORE.INTRA.DIHEDRAL.0>
10.5765

>  <SCORE.INTRA.POLAR>
0

>  <SCORE.INTRA.POLAR.0>
0

>  <SCORE.INTRA.REPUL>
0

>  <SCORE.INTRA.REPUL.0>
0

>  <SCORE.INTRA.SOLV>
0.907743

>  <SCORE.INTRA.SOLV.lig_0>
-50.1861

>  <SCORE.INTRA.VDW>
1.91642

>  <SCORE.INTRA.VDW.0>
-1.36671

>  <SCORE.INTRA.norm>
-0.0787228

>  <SCORE.RESTR>
0

>  <SCORE.RESTR.CAVITY>
0

>  <SCORE.RESTR.norm>
0

>  <SCORE.SYSTEM>
0

>  <SCORE.SYSTEM.CONST>
0

>  <SCORE.SYSTEM.DIHEDRAL>
0

>  <SCORE.SYSTEM.SOLV>
0

>  <SCORE.SYSTEM.norm>
0

>  <SCORE.heavy>
14

>  <SCORE.norm>
-0.0758973

>  <RMSD>
8.135

$$$$
ligand
 OpenBabel11021811393D
libRbt.so/2013.1/901 2013/11/27
 14 13  0  0  0  0  0  0  0  0999 V2000
    9.7773   -8.8998    4.4265 N   0  0  0  0  0  0  0  0  0  0  0  0
    9.2117   -8.9487    5.8462 C   0  0  0  0  0  0  0  0  0  0  0  0
    8.0353   -9.8528    5.7739 C   0  0  0  0  0  0  0  0  0  0  0  0
    7.3087  -10.0505    7.0943 C   0  0  0  0  0  0  0  0  0  0  0  0
    6.8112   -8.7388    7.5886 N   0  0  0  0  0  0  0  0  0  0  0  0
    5.7445   -8.9736    8.6734 C   0  0  0  0  0  0  0  0  0  0  0  0
    4.6994   -7.7942    8.3755 C   0  0  0  0  0  0  0  0  0  0  0  0
    5.2504   -6.6421    8.6716 C   0  0  0  0  0  0  0  0  0  0  0  0
    3.9536   -5.7101    8.3090 C   0  0  0  0  0  0  0  0  0  0  0  0
    3.1574   -5.9146    9.6415 N   0  0  0  0  0  0  0  0  0  0  0  0
    3.3467   -4.7354   10.6773 C   0  0  0  0  0  0  0  0  0  0  0  0
    2.2541   -3.5941   10.2634 C   0  0  0  0  0  0  0  0  0  0  0  0
    2.4568   -2.5211   11.2934 C   0  0  0  0  0  0  0  0  0  0  0  0
    1.4406   -1.4537   10.9620 N   0  0  0  0  0  0  0  0  0  0  0  0
  1  2  1  0  0  0  0
  2  3  1  0  0  0  0
  3  4  1  0  0  0  0
  4  5  1  0  0  0  0
  5  6  1  0  0  0  0
  6  7  1  0  0  0  0
  7  8  1  0  0  0  0
  8  9  1  0  0  0  0
  9 10  1  0  0  0  0
 10 11  1  0  0  0  0
 11 12  1  0  0  0  0
 12 13  1  0  0  0  0
 13 14  1  0  0  0  0
M  END
>  <CHROM.1>
179.95811802,60.15612053,163.46413355,-142.87137115,-68.72177281,-178.39894200
81.06280026,98.15171591,85.01844443,178.72163113,-178.86252859,5.24625880
-6.70229986,8.39985532,-0.61400852,0.71991348,-0.10938469

>  <Name>
ligand

>  <RI>
0

>  <Rbt.Current_Directory>
/home/itssahil/PROJECTS/Mol_Feturizer/New_Systems/rnas/1FUF

>  <Rbt.Executable>
rbdock ($Id: //depot/dev/client3/rdock/2013.1/src/exe/rbdock.cxx#4 $)

>  <Rbt.Library>
libRbt.so (2013.1, Build901 2013/11/27)

>  <Rbt.Parameter_File>
/export/apps/rDock/src/rDock_2013.1_src/data/scripts/dock_solv.prm

>  <Rbt.Receptor>
prm/pocket_docking_7.prm

>  <SCORE>
-0.669122

>  <SCORE.INTER>
0.473563

>  <SCORE.INTER.CONST>
1

>  <SCORE.INTER.POLAR>
0

>  <SCORE.INTER.ROT>
11

>  <SCORE.INTER.SOLV>
10.6228

>  <SCORE.INTER.VDW>
-14.1586

>  <SCORE.INTER.norm>
0.0338259

>  <SCORE.INTRA>
-1.14269

>  <SCORE.INTRA.DIHEDRAL>
-6.43301

>  <SCORE.INTRA.DIHEDRAL.0>
10.5765

>  <SCORE.INTRA.POLAR>
0

>  <SCORE.INTRA.POLAR.0>
0

>  <SCORE.INTRA.REPUL>
0

>  <SCORE.INTRA.REPUL.0>
0

>  <SCORE.INTRA.SOLV>
1.19563

>  <SCORE.INTRA.SOLV.lig_0>
-50.1861

>  <SCORE.INTRA.VDW>
1.476

>  <SCORE.INTRA.VDW.0>
-1.36671

>  <SCORE.INTRA.norm>
-0.0816204

>  <SCORE.RESTR>
0

>  <SCORE.RESTR.CAVITY>
0

>  <SCORE.RESTR.norm>
0

>  <SCORE.SYSTEM>
0

>  <SCORE.SYSTEM.CONST>
0

>  <SCORE.SYSTEM.DIHEDRAL>
0

>  <SCORE.SYSTEM.SOLV>
0

>  <SCORE.SYSTEM.norm>
0

>  <SCORE.heavy>
14

>  <SCORE.norm>
-0.0477945

>  <RMSD>
8.146

$$$$
ligand
 OpenBabel11021811393D
libRbt.so/2013.1/901 2013/11/27
 14 13  0  0  0  0  0  0  0  0999 V2000
    1.5159   -7.1299   12.2150 N   0  0  0  0  0  0  0  0  0  0  0  0
    1.3180   -6.7908   10.7372 C   0  0  0  0  0  0  0  0  0  0  0  0
    2.4753   -5.9360   10.3677 C   0  0  0  0  0  0  0  0  0  0  0  0
    2.5814   -4.6412   11.1569 C   0  0  0  0  0  0  0  0  0  0  0  0
    3.4367   -3.6764   10.4153 N   0  0  0  0  0  0  0  0  0  0  0  0
    4.8907   -4.1822   10.4108 C   0  0  0  0  0  0  0  0  0  0  0  0
    5.1329   -4.4900    8.8557 C   0  0  0  0  0  0  0  0  0  0  0  0
    6.3389   -4.9775    8.6932 C   0  0  0  0  0  0  0  0  0  0  0  0
    6.2246   -5.2399    7.0809 C   0  0  0  0  0  0  0  0  0  0  0  0
    7.6472   -5.8543    6.8575 N   0  0  0  0  0  0  0  0  0  0  0  0
    7.9591   -6.1905    5.3446 C   0  0  0  0  0  0  0  0  0  0  0  0
    8.5244   -7.7229    5.3322 C   0  0  0  0  0  0  0  0  0  0  0  0
    8.8965   -7.9504    3.8959 C   0  0  0  0  0  0  0  0  0  0  0  0
    9.3695   -9.3835    3.8291 N   0  0  0  0  0  0  0  0  0  0  0  0
  1  2  1  0  0  0  0
  2  3  1  0  0  0  0
  3  4  1  0  0  0  0
  4  5  1  0  0  0  0
  5  6  1  0  0  0  0
  6  7  1  0  0  0  0
  7  8  1  0  0  0  0
  8  9  1  0  0  0  0
  9 10  1  0  0  0  0
 10 11  1  0  0  0  0
 11 12  1  0  0  0  0
 12 13  1  0  0  0  0
 13 14  1  0  0  0  0
M  END
>  <CHROM.1>
-60.40690945,-160.17138546,-68.49008033,114.09398964,-178.04091194,177.25302926
-178.86726128,-177.16545538,-130.62018099,-175.98051070,-177.58068701,5.45077212
-6.01161584,8.22795494,2.63939291,0.68193070,0.38211120

>  <Name>
ligand

>  <RI>
0

>  <Rbt.Current_Directory>
/home/itssahil/PROJECTS/Mol_Feturizer/New_Systems/rnas/1FUF

>  <Rbt.Executable>
rbdock ($Id: //depot/dev/client3/rdock/2013.1/src/exe/rbdock.cxx#4 $)

>  <Rbt.Library>
libRbt.so (2013.1, Build901 2013/11/27)

>  <Rbt.Parameter_File>
/export/apps/rDock/src/rDock_2013.1_src/data/scripts/dock_solv.prm

>  <Rbt.Receptor>
prm/pocket_docking_8.prm

>  <SCORE>
-3.01666

>  <SCORE.INTER>
-1.28975

>  <SCORE.INTER.CONST>
1

>  <SCORE.INTER.POLAR>
0

>  <SCORE.INTER.ROT>
11

>  <SCORE.INTER.SOLV>
16.0758

>  <SCORE.INTER.VDW>
-17.1518

>  <SCORE.INTER.norm>
-0.0921252

>  <SCORE.INTRA>
-1.7269

>  <SCORE.INTRA.DIHEDRAL>
-6.73721

>  <SCORE.INTRA.DIHEDRAL.0>
10.5765

>  <SCORE.INTRA.POLAR>
0

>  <SCORE.INTRA.POLAR.0>
0

>  <SCORE.INTRA.REPUL>
0

>  <SCORE.INTRA.REPUL.0>
0

>  <SCORE.INTRA.SOLV>
0.710232

>  <SCORE.INTRA.SOLV.lig_0>
-50.1861

>  <SCORE.INTRA.VDW>
1.28659

>  <SCORE.INTRA.VDW.0>
-1.36671

>  <SCORE.INTRA.norm>
-0.12335

>  <SCORE.RESTR>
0

>  <SCORE.RESTR.CAVITY>
0

>  <SCORE.RESTR.norm>
0

>  <SCORE.SYSTEM>
0

>  <SCORE.SYSTEM.CONST>
0

>  <SCORE.SYSTEM.DIHEDRAL>
0

>  <SCORE.SYSTEM.SOLV>
0

>  <SCORE.SYSTEM.norm>
0

>  <SCORE.heavy>
14

>  <SCORE.norm>
-0.215475

>  <RMSD>
8.154

$$$$
ligand
 OpenBabel11021811393D
libRbt.so/2013.1/901 2013/11/27
 14 13  0  0  0  0  0  0  0  0999 V2000
   -1.5695    0.1343   10.5415 N   0  0  0  0  0  0  0  0  0  0  0  0
   -1.8205    0.6675    9.1305 C   0  0  0  0  0  0  0  0  0  0  0  0
   -2.7124    1.8428    9.3032 C   0  0  0  0  0  0  0  0  0  0  0  0
   -4.0377    1.5355    9.9812 C   0  0  0  0  0  0  0  0  0  0  0  0
   -4.8636    2.7712   10.0401 N   0  0  0  0  0  0  0  0  0  0  0  0
   -6.3538    2.3930    9.9632 C   0  0  0  0  0  0  0  0  0  0  0  0
   -6.6314    2.4464    8.3846 C   0  0  0  0  0  0  0  0  0  0  0  0
   -6.5104    3.6825    7.9651 C   0  0  0  0  0  0  0  0  0  0  0  0
   -6.5696    3.3484    6.3631 C   0  0  0  0  0  0  0  0  0  0  0  0
   -8.1257    3.2607    6.2149 N   0  0  0  0  0  0  0  0  0  0  0  0
   -8.8061    4.6455    5.8708 C   0  0  0  0  0  0  0  0  0  0  0  0
  -10.4001    4.4493    6.1684 C   0  0  0  0  0  0  0  0  0  0  0  0
  -10.4592    4.2437    7.6542 C   0  0  0  0  0  0  0  0  0  0  0  0
  -11.9019    3.9105    7.9532 N   0  0  0  0  0  0  0  0  0  0  0  0
  1  2  1  0  0  0  0
  2  3  1  0  0  0  0
  3  4  1  0  0  0  0
  4  5  1  0  0  0  0
  5  6  1  0  0  0  0
  6  7  1  0  0  0  0
  7  8  1  0  0  0  0
  8  9  1  0  0  0  0
  9 10  1  0  0  0  0
 10 11  1  0  0  0  0
 11 12  1  0  0  0  0
 12 13  1  0  0  0  0
 13 14  1  0  0  0  0
M  END
>  <CHROM.1>
-59.11649791,-177.42045943,148.80733614,-90.97369343,-66.10294027,170.21275949
82.35961465,89.61636333,-164.55538421,65.78880093,-174.11159870,-6.48292873
2.80950509,8.25224932,0.44781348,-0.27097265,1.85882445

>  <Name>
ligand

>  <RI>
0

>  <Rbt.Current_Directory>
/home/itssahil/PROJECTS/Mol_Feturizer/New_Systems/rnas/1FUF

>  <Rbt.Executable>
rbdock ($Id: //depot/dev/client3/rdock/2013.1/src/exe/rbdock.cxx#4 $)

>  <Rbt.Library>
libRbt.so (2013.1, Build901 2013/11/27)

>  <Rbt.Parameter_File>
/export/apps/rDock/src/rDock_2013.1_src/data/scripts/dock_solv.prm

>  <Rbt.Receptor>
prm/blind_docking_40.prm

>  <SCORE>
5.13729

>  <SCORE.INTER>
5.10002

>  <SCORE.INTER.CONST>
1

>  <SCORE.INTER.POLAR>
0

>  <SCORE.INTER.ROT>
11

>  <SCORE.INTER.SOLV>
14.1814

>  <SCORE.INTER.VDW>
-12.2604

>  <SCORE.INTER.norm>
0.364287

>  <SCORE.INTRA>
0.0372724

>  <SCORE.INTRA.DIHEDRAL>
-6.03285

>  <SCORE.INTRA.DIHEDRAL.0>
10.5765

>  <SCORE.INTRA.POLAR>
0

>  <SCORE.INTRA.POLAR.0>
0

>  <SCORE.INTRA.REPUL>
0

>  <SCORE.INTRA.REPUL.0>
0

>  <SCORE.INTRA.SOLV>
2.35667

>  <SCORE.INTRA.SOLV.lig_0>
-50.1861

>  <SCORE.INTRA.VDW>
1.87536

>  <SCORE.INTRA.VDW.0>
-1.36671

>  <SCORE.INTRA.norm>
0.00266231

>  <SCORE.RESTR>
0

>  <SCORE.RESTR.CAVITY>
0

>  <SCORE.RESTR.norm>
0

>  <SCORE.SYSTEM>
0

>  <SCORE.SYSTEM.CONST>
0

>  <SCORE.SYSTEM.DIHEDRAL>
0

>  <SCORE.SYSTEM.SOLV>
0

>  <SCORE.SYSTEM.norm>
0

>  <SCORE.heavy>
14

>  <SCORE.norm>
0.366949

>  <RMSD>
8.287

$$$$
ligand
 OpenBabel11021811393D
libRbt.so/2013.1/901 2013/11/27
 14 13  0  0  0  0  0  0  0  0999 V2000
    2.0308   -2.2767   10.4027 N   0  0  0  0  0  0  0  0  0  0  0  0
    2.9406   -2.8621   11.4832 C   0  0  0  0  0  0  0  0  0  0  0  0
    3.7616   -3.8917   10.7958 C   0  0  0  0  0  0  0  0  0  0  0  0
    2.9769   -5.0924   10.2927 C   0  0  0  0  0  0  0  0  0  0  0  0
    3.9102   -6.0720    9.6747 N   0  0  0  0  0  0  0  0  0  0  0  0
    4.0870   -5.7370    8.1827 C   0  0  0  0  0  0  0  0  0  0  0  0
    5.6754   -5.5478    8.0684 C   0  0  0  0  0  0  0  0  0  0  0  0
    5.9916   -5.2817    6.8243 C   0  0  0  0  0  0  0  0  0  0  0  0
    7.6162   -5.3302    7.0243 C   0  0  0  0  0  0  0  0  0  0  0  0
    7.7952   -6.8852    6.9876 N   0  0  0  0  0  0  0  0  0  0  0  0
    9.0706   -7.3549    6.1803 C   0  0  0  0  0  0  0  0  0  0  0  0
    8.5961   -7.4778    4.6222 C   0  0  0  0  0  0  0  0  0  0  0  0
    9.8095   -8.0211    3.9253 C   0  0  0  0  0  0  0  0  0  0  0  0
   10.8091   -6.8886    3.9248 N   0  0  0  0  0  0  0  0  0  0  0  0
  1  2  1  0  0  0  0
  2  3  1  0  0  0  0
  3  4  1  0  0  0  0
  4  5  1  0  0  0  0
  5  6  1  0  0  0  0
  6  7  1  0  0  0  0
  7  8  1  0  0  0  0
  8  9  1  0  0  0  0
  9 10  1  0  0  0  0
 10 11  1  0  0  0  0
 11 12  1  0  0  0  0
 12 13  1  0  0  0  0
 13 14  1  0  0  0  0
M  END
>  <CHROM.1>
-66.49175865,-177.78285488,-88.64415180,123.12431542,178.61051560,-173.69108565
80.15372228,139.56460318,-87.01033442,-175.95347874,-70.66774466,6.07646421
-5.62284029,7.74207014,-2.63385331,-0.65180959,-2.94729040

>  <Name>
ligand

>  <RI>
0

>  <Rbt.Current_Directory>
/home/itssahil/PROJECTS/Mol_Feturizer/New_Systems/rnas/1FUF

>  <Rbt.Executable>
rbdock ($Id: //depot/dev/client3/rdock/2013.1/src/exe/rbdock.cxx#4 $)

>  <Rbt.Library>
libRbt.so (2013.1, Build901 2013/11/27)

>  <Rbt.Parameter_File>
/export/apps/rDock/src/rDock_2013.1_src/data/scripts/dock_solv.prm

>  <Rbt.Receptor>
prm/pocket_docking_7.prm

>  <SCORE>
-0.195806

>  <SCORE.INTER>
-0.147998

>  <SCORE.INTER.CONST>
1

>  <SCORE.INTER.POLAR>
0

>  <SCORE.INTER.ROT>
11

>  <SCORE.INTER.SOLV>
8.90699

>  <SCORE.INTER.VDW>
-14.001

>  <SCORE.INTER.norm>
-0.0105713

>  <SCORE.INTRA>
-0.047808

>  <SCORE.INTRA.DIHEDRAL>
-5.17911

>  <SCORE.INTRA.DIHEDRAL.0>
10.5765

>  <SCORE.INTRA.POLAR>
0

>  <SCORE.INTRA.POLAR.0>
0

>  <SCORE.INTRA.REPUL>
0

>  <SCORE.INTRA.REPUL.0>
0

>  <SCORE.INTRA.SOLV>
2.22581

>  <SCORE.INTRA.SOLV.lig_0>
-50.1861

>  <SCORE.INTRA.VDW>
1.42884

>  <SCORE.INTRA.VDW.0>
-1.36671

>  <SCORE.INTRA.norm>
-0.00341486

>  <SCORE.RESTR>
0

>  <SCORE.RESTR.CAVITY>
0

>  <SCORE.RESTR.norm>
0

>  <SCORE.SYSTEM>
0

>  <SCORE.SYSTEM.CONST>
0

>  <SCORE.SYSTEM.DIHEDRAL>
0

>  <SCORE.SYSTEM.SOLV>
0

>  <SCORE.SYSTEM.norm>
0

>  <SCORE.heavy>
14

>  <SCORE.norm>
-0.0139862

>  <RMSD>
8.319

$$$$
ligand
 OpenBabel11021811393D
libRbt.so/2013.1/901 2013/11/27
 14 13  0  0  0  0  0  0  0  0999 V2000
   -3.3512    2.8518    7.6514 N   0  0  0  0  0  0  0  0  0  0  0  0
   -2.0407    2.1369    7.9822 C   0  0  0  0  0  0  0  0  0  0  0  0
   -2.4308    0.9327    8.7597 C   0  0  0  0  0  0  0  0  0  0  0  0
   -2.8233    1.2117   10.2014 C   0  0  0  0  0  0  0  0  0  0  0  0
   -3.9314    2.2034   10.2313 N   0  0  0  0  0  0  0  0  0  0  0  0
   -5.2350    1.5259    9.7714 C   0  0  0  0  0  0  0  0  0  0  0  0
   -6.1887    2.7861    9.4989 C   0  0  0  0  0  0  0  0  0  0  0  0
   -7.2716    2.3839    8.8791 C   0  0  0  0  0  0  0  0  0  0  0  0
   -7.9476    3.8638    8.6933 C   0  0  0  0  0  0  0  0  0  0  0  0
   -9.0752    3.4643    7.6832 N   0  0  0  0  0  0  0  0  0  0  0  0
  -10.4604    3.1480    8.3763 C   0  0  0  0  0  0  0  0  0  0  0  0
  -11.6051    3.4500    7.2510 C   0  0  0  0  0  0  0  0  0  0  0  0
  -11.3276    2.4324    6.1830 C   0  0  0  0  0  0  0  0  0  0  0  0
  -11.7742    1.1119    6.7651 N   0  0  0  0  0  0  0  0  0  0  0  0
  1  2  1  0  0  0  0
  2  3  1  0  0  0  0
  3  4  1  0  0  0  0
  4  5  1  0  0  0  0
  5  6  1  0  0  0  0
  6  7  1  0  0  0  0
  7  8  1  0  0  0  0
  8  9  1  0  0  0  0
  9 10  1  0  0  0  0
 10 11  1  0  0  0  0
 11 12  1  0  0  0  0
 12 13  1  0  0  0  0
 13 14  1  0  0  0  0
M  END
>  <CHROM.1>
-75.94344932,56.51913323,73.26335069,-165.77505369,169.24142850,-177.14854210
167.98751645,94.75906316,153.99239517,64.45574092,72.49475147,-6.81868559
2.39304342,8.42351528,-0.19407507,0.16667396,-1.82434134

>  <Name>
ligand

>  <RI>
0

>  <Rbt.Current_Directory>
/home/itssahil/PROJECTS/Mol_Feturizer/New_Systems/rnas/1FUF

>  <Rbt.Executable>
rbdock ($Id: //depot/dev/client3/rdock/2013.1/src/exe/rbdock.cxx#4 $)

>  <Rbt.Library>
libRbt.so (2013.1, Build901 2013/11/27)

>  <Rbt.Parameter_File>
/export/apps/rDock/src/rDock_2013.1_src/data/scripts/dock_solv.prm

>  <Rbt.Receptor>
prm/blind_docking_40.prm

>  <SCORE>
6.83122

>  <SCORE.INTER>
5.28911

>  <SCORE.INTER.CONST>
1

>  <SCORE.INTER.POLAR>
0

>  <SCORE.INTER.ROT>
11

>  <SCORE.INTER.SOLV>
12.9197

>  <SCORE.INTER.VDW>
-11.7138

>  <SCORE.INTER.norm>
0.377793

>  <SCORE.INTRA>
1.54211

>  <SCORE.INTRA.DIHEDRAL>
-6.46901

>  <SCORE.INTRA.DIHEDRAL.0>
10.5765

>  <SCORE.INTRA.POLAR>
0

>  <SCORE.INTRA.POLAR.0>
0

>  <SCORE.INTRA.REPUL>
0

>  <SCORE.INTRA.REPUL.0>
0

>  <SCORE.INTRA.SOLV>
6.85911

>  <SCORE.INTRA.SOLV.lig_0>
-50.1861

>  <SCORE.INTRA.VDW>
1.34706

>  <SCORE.INTRA.VDW.0>
-1.36671

>  <SCORE.INTRA.norm>
0.110151

>  <SCORE.RESTR>
0

>  <SCORE.RESTR.CAVITY>
0

>  <SCORE.RESTR.norm>
0

>  <SCORE.SYSTEM>
0

>  <SCORE.SYSTEM.CONST>
0

>  <SCORE.SYSTEM.DIHEDRAL>
0

>  <SCORE.SYSTEM.SOLV>
0

>  <SCORE.SYSTEM.norm>
0

>  <SCORE.heavy>
14

>  <SCORE.norm>
0.487944

>  <RMSD>
8.341

$$$$
ligand
 OpenBabel11021811393D
libRbt.so/2013.1/901 2013/11/27
 14 13  0  0  0  0  0  0  0  0999 V2000
    9.1307   -6.3996    5.2136 N   0  0  0  0  0  0  0  0  0  0  0  0
    8.4637   -7.4643    6.0853 C   0  0  0  0  0  0  0  0  0  0  0  0
    9.3967   -7.6906    7.2189 C   0  0  0  0  0  0  0  0  0  0  0  0
    8.9838   -8.8081    8.1630 C   0  0  0  0  0  0  0  0  0  0  0  0
    7.7253   -8.4298    8.8598 N   0  0  0  0  0  0  0  0  0  0  0  0
    6.5438   -9.1859    8.2256 C   0  0  0  0  0  0  0  0  0  0  0  0
    5.2825   -8.3868    8.8109 C   0  0  0  0  0  0  0  0  0  0  0  0
    5.2779   -7.1691    8.3254 C   0  0  0  0  0  0  0  0  0  0  0  0
    3.7509   -6.7877    8.7776 C   0  0  0  0  0  0  0  0  0  0  0  0
    4.0455   -6.4450   10.2767 N   0  0  0  0  0  0  0  0  0  0  0  0
    2.7415   -6.2905   11.1569 C   0  0  0  0  0  0  0  0  0  0  0  0
    2.0654   -4.8714   10.7131 C   0  0  0  0  0  0  0  0  0  0  0  0
    3.0947   -3.8518   11.1057 C   0  0  0  0  0  0  0  0  0  0  0  0
    2.5278   -2.5230   10.6643 N   0  0  0  0  0  0  0  0  0  0  0  0
  1  2  1  0  0  0  0
  2  3  1  0  0  0  0
  3  4  1  0  0  0  0
  4  5  1  0  0  0  0
  5  6  1  0  0  0  0
  6  7  1  0  0  0  0
  7  8  1  0  0  0  0
  8  9  1  0  0  0  0
  9 10  1  0  0  0  0
 10 11  1  0  0  0  0
 11 12  1  0  0  0  0
 12 13  1  0  0  0  0
 13 14  1  0  0  0  0
M  END
>  <CHROM.1>
-175.13857061,-65.81624250,103.19532536,-165.66392138,66.38335296,166.50137852
80.14026323,-168.57979922,-73.00030675,-63.40948819,177.98143284,5.64492126
-6.73630067,8.82837943,-0.30643662,0.64151131,-0.24393265

>  <Name>
ligand

>  <RI>
0

>  <Rbt.Current_Directory>
/home/itssahil/PROJECTS/Mol_Feturizer/New_Systems/rnas/1FUF

>  <Rbt.Executable>
rbdock ($Id: //depot/dev/client3/rdock/2013.1/src/exe/rbdock.cxx#4 $)

>  <Rbt.Library>
libRbt.so (2013.1, Build901 2013/11/27)

>  <Rbt.Parameter_File>
/export/apps/rDock/src/rDock_2013.1_src/data/scripts/dock_solv.prm

>  <Rbt.Receptor>
prm/pocket_docking_6.prm

>  <SCORE>
-0.11405

>  <SCORE.INTER>
0.594551

>  <SCORE.INTER.CONST>
1

>  <SCORE.INTER.POLAR>
0

>  <SCORE.INTER.ROT>
11

>  <SCORE.INTER.SOLV>
11.5207

>  <SCORE.INTER.VDW>
-14.3772

>  <SCORE.INTER.norm>
0.0424679

>  <SCORE.INTRA>
-0.708601

>  <SCORE.INTRA.DIHEDRAL>
-6.63652

>  <SCORE.INTRA.DIHEDRAL.0>
10.5765

>  <SCORE.INTRA.POLAR>
0

>  <SCORE.INTRA.POLAR.0>
0

>  <SCORE.INTRA.REPUL>
0.00409145

>  <SCORE.INTRA.REPUL.0>
0

>  <SCORE.INTRA.SOLV>
1.64768

>  <SCORE.INTRA.SOLV.lig_0>
-50.1861

>  <SCORE.INTRA.VDW>
1.76536

>  <SCORE.INTRA.VDW.0>
-1.36671

>  <SCORE.INTRA.norm>
-0.0506144

>  <SCORE.RESTR>
0

>  <SCORE.RESTR.CAVITY>
0

>  <SCORE.RESTR.norm>
0

>  <SCORE.SYSTEM>
0

>  <SCORE.SYSTEM.CONST>
0

>  <SCORE.SYSTEM.DIHEDRAL>
0

>  <SCORE.SYSTEM.SOLV>
0

>  <SCORE.SYSTEM.norm>
0

>  <SCORE.heavy>
14

>  <SCORE.norm>
-0.00814644

>  <RMSD>
8.424

$$$$
ligand
 OpenBabel11021811393D
libRbt.so/2013.1/901 2013/11/27
 14 13  0  0  0  0  0  0  0  0999 V2000
    9.6053   -8.7430    4.2684 N   0  0  0  0  0  0  0  0  0  0  0  0
    8.7708   -7.9828    5.2998 C   0  0  0  0  0  0  0  0  0  0  0  0
    9.0312   -6.5439    5.0384 C   0  0  0  0  0  0  0  0  0  0  0  0
    8.3292   -5.5916    5.9927 C   0  0  0  0  0  0  0  0  0  0  0  0
    6.8592   -5.8043    5.9144 N   0  0  0  0  0  0  0  0  0  0  0  0
    6.1573   -4.9000    6.9437 C   0  0  0  0  0  0  0  0  0  0  0  0
    5.2623   -5.9525    7.7582 C   0  0  0  0  0  0  0  0  0  0  0  0
    6.0384   -6.6785    8.5258 C   0  0  0  0  0  0  0  0  0  0  0  0
    4.8663   -7.6627    9.1082 C   0  0  0  0  0  0  0  0  0  0  0  0
    4.3027   -6.7039   10.2102 N   0  0  0  0  0  0  0  0  0  0  0  0
    2.7840   -6.3202    9.9964 C   0  0  0  0  0  0  0  0  0  0  0  0
    2.3687   -5.3984   11.2792 C   0  0  0  0  0  0  0  0  0  0  0  0
    3.2212   -4.1727   11.1242 C   0  0  0  0  0  0  0  0  0  0  0  0
    2.5939   -3.3914    9.9938 N   0  0  0  0  0  0  0  0  0  0  0  0
  1  2  1  0  0  0  0
  2  3  1  0  0  0  0
  3  4  1  0  0  0  0
  4  5  1  0  0  0  0
  5  6  1  0  0  0  0
  6  7  1  0  0  0  0
  7  8  1  0  0  0  0
  8  9  1  0  0  0  0
  9 10  1  0  0  0  0
 10 11  1  0  0  0  0
 11 12  1  0  0  0  0
 12 13  1  0  0  0  0
 13 14  1  0  0  0  0
M  END
>  <CHROM.1>
-178.00524740,-59.03016192,176.55103440,-126.55120622,72.82522306,-176.61992495
-80.84288371,118.82762253,176.82512063,64.77805579,74.39227959,5.72784271
-6.13184018,7.96110404,0.09854831,-0.78457258,2.90764986

>  <Name>
ligand

>  <RI>
0

>  <Rbt.Current_Directory>
/home/itssahil/PROJECTS/Mol_Feturizer/New_Systems/rnas/1FUF

>  <Rbt.Executable>
rbdock ($Id: //depot/dev/client3/rdock/2013.1/src/exe/rbdock.cxx#4 $)

>  <Rbt.Library>
libRbt.so (2013.1, Build901 2013/11/27)

>  <Rbt.Parameter_File>
/export/apps/rDock/src/rDock_2013.1_src/data/scripts/dock_solv.prm

>  <Rbt.Receptor>
prm/pocket_docking_7.prm

>  <SCORE>
0.0945046

>  <SCORE.INTER>
-0.261038

>  <SCORE.INTER.CONST>
1

>  <SCORE.INTER.POLAR>
0

>  <SCORE.INTER.ROT>
11

>  <SCORE.INTER.SOLV>
11.412

>  <SCORE.INTER.VDW>
-14.9114

>  <SCORE.INTER.norm>
-0.0186456

>  <SCORE.INTRA>
0.355543

>  <SCORE.INTRA.DIHEDRAL>
-5.20885

>  <SCORE.INTRA.DIHEDRAL.0>
10.5765

>  <SCORE.INTRA.POLAR>
0

>  <SCORE.INTRA.POLAR.0>
0

>  <SCORE.INTRA.REPUL>
0

>  <SCORE.INTRA.REPUL.0>
0

>  <SCORE.INTRA.SOLV>
3.25742

>  <SCORE.INTRA.SOLV.lig_0>
-50.1861

>  <SCORE.INTRA.VDW>
1.33126

>  <SCORE.INTRA.VDW.0>
-1.36671

>  <SCORE.INTRA.norm>
0.0253959

>  <SCORE.RESTR>
0

>  <SCORE.RESTR.CAVITY>
0

>  <SCORE.RESTR.norm>
0

>  <SCORE.SYSTEM>
0

>  <SCORE.SYSTEM.CONST>
0

>  <SCORE.SYSTEM.DIHEDRAL>
0

>  <SCORE.SYSTEM.SOLV>
0

>  <SCORE.SYSTEM.norm>
0

>  <SCORE.heavy>
14

>  <SCORE.norm>
0.00675033

>  <RMSD>
8.441

$$$$
ligand
 OpenBabel11021811393D
libRbt.so/2013.1/901 2013/11/27
 14 13  0  0  0  0  0  0  0  0999 V2000
    0.8446   -7.2372   10.3824 N   0  0  0  0  0  0  0  0  0  0  0  0
    1.6025   -6.7920   11.6336 C   0  0  0  0  0  0  0  0  0  0  0  0
    2.8570   -6.1701   11.1374 C   0  0  0  0  0  0  0  0  0  0  0  0
    2.6571   -4.8799   10.3590 C   0  0  0  0  0  0  0  0  0  0  0  0
    3.9507   -4.4562    9.7594 N   0  0  0  0  0  0  0  0  0  0  0  0
    4.2637   -5.3442    8.5415 C   0  0  0  0  0  0  0  0  0  0  0  0
    5.7576   -4.8921    8.1730 C   0  0  0  0  0  0  0  0  0  0  0  0
    6.2852   -5.7676    7.3522 C   0  0  0  0  0  0  0  0  0  0  0  0
    7.7590   -5.0626    7.2407 C   0  0  0  0  0  0  0  0  0  0  0  0
    8.5579   -6.3056    6.7230 N   0  0  0  0  0  0  0  0  0  0  0  0
    8.4265   -6.5360    5.1645 C   0  0  0  0  0  0  0  0  0  0  0  0
    9.0898   -7.9991    4.8692 C   0  0  0  0  0  0  0  0  0  0  0  0
    9.0101   -8.1280    3.3758 C   0  0  0  0  0  0  0  0  0  0  0  0
    9.6048   -9.4803    3.0603 N   0  0  0  0  0  0  0  0  0  0  0  0
  1  2  1  0  0  0  0
  2  3  1  0  0  0  0
  3  4  1  0  0  0  0
  4  5  1  0  0  0  0
  5  6  1  0  0  0  0
  6  7  1  0  0  0  0
  7  8  1  0  0  0  0
  8  9  1  0  0  0  0
  9 10  1  0  0  0  0
 10 11  1  0  0  0  0
 11 12  1  0  0  0  0
 12 13  1  0  0  0  0
 13 14  1  0  0  0  0
M  END
>  <CHROM.1>
66.60457637,-172.26770525,75.55497458,-172.08579010,165.46020755,-177.82450625
160.36929149,82.00459410,-170.10319484,-176.82156660,-179.49152999,5.76190932
-6.36056923,7.69807777,2.62373658,0.59918279,0.50068931

>  <Name>
ligand

>  <RI>
0

>  <Rbt.Current_Directory>
/home/itssahil/PROJECTS/Mol_Feturizer/New_Systems/rnas/1FUF

>  <Rbt.Executable>
rbdock ($Id: //depot/dev/client3/rdock/2013.1/src/exe/rbdock.cxx#4 $)

>  <Rbt.Library>
libRbt.so (2013.1, Build901 2013/11/27)

>  <Rbt.Parameter_File>
/export/apps/rDock/src/rDock_2013.1_src/data/scripts/dock_solv.prm

>  <Rbt.Receptor>
prm/pocket_docking_8.prm

>  <SCORE>
-2.44492

>  <SCORE.INTER>
-0.403845

>  <SCORE.INTER.CONST>
1

>  <SCORE.INTER.POLAR>
0

>  <SCORE.INTER.ROT>
11

>  <SCORE.INTER.SOLV>
15.6874

>  <SCORE.INTER.VDW>
-16.4317

>  <SCORE.INTER.norm>
-0.0288461

>  <SCORE.INTRA>
-2.04589

>  <SCORE.INTRA.DIHEDRAL>
-7.36115

>  <SCORE.INTRA.DIHEDRAL.0>
10.5765

>  <SCORE.INTRA.POLAR>
0

>  <SCORE.INTRA.POLAR.0>
0

>  <SCORE.INTRA.REPUL>
0

>  <SCORE.INTRA.REPUL.0>
0

>  <SCORE.INTRA.SOLV>
1.09571

>  <SCORE.INTRA.SOLV.lig_0>
-50.1861

>  <SCORE.INTRA.VDW>
1.08683

>  <SCORE.INTRA.VDW.0>
-1.36671

>  <SCORE.INTRA.norm>
-0.146135

>  <SCORE.RESTR>
0.00481192

>  <SCORE.RESTR.CAVITY>
0.00481192

>  <SCORE.RESTR.norm>
0.000343708

>  <SCORE.SYSTEM>
0

>  <SCORE.SYSTEM.CONST>
0

>  <SCORE.SYSTEM.DIHEDRAL>
0

>  <SCORE.SYSTEM.SOLV>
0

>  <SCORE.SYSTEM.norm>
0

>  <SCORE.heavy>
14

>  <SCORE.norm>
-0.174637

>  <RMSD>
8.644

$$$$
ligand
 OpenBabel11021811393D
libRbt.so/2013.1/901 2013/11/27
 14 13  0  0  0  0  0  0  0  0999 V2000
    2.0827   -2.3184   10.3383 N   0  0  0  0  0  0  0  0  0  0  0  0
    2.5949   -3.0952   11.5517 C   0  0  0  0  0  0  0  0  0  0  0  0
    3.6602   -3.9894   11.0298 C   0  0  0  0  0  0  0  0  0  0  0  0
    3.1670   -5.0772   10.0895 C   0  0  0  0  0  0  0  0  0  0  0  0
    4.3073   -5.9467    9.6947 N   0  0  0  0  0  0  0  0  0  0  0  0
    3.8877   -6.8297    8.5055 C   0  0  0  0  0  0  0  0  0  0  0  0
    4.9828   -8.0003    8.5555 C   0  0  0  0  0  0  0  0  0  0  0  0
    6.1549   -7.5112    8.2306 C   0  0  0  0  0  0  0  0  0  0  0  0
    6.9819   -8.9221    8.3148 C   0  0  0  0  0  0  0  0  0  0  0  0
    8.3316   -8.4220    7.6988 N   0  0  0  0  0  0  0  0  0  0  0  0
    8.3707   -8.4960    6.1202 C   0  0  0  0  0  0  0  0  0  0  0  0
    9.7019   -7.6666    5.6643 C   0  0  0  0  0  0  0  0  0  0  0  0
    9.6378   -7.6922    4.1649 C   0  0  0  0  0  0  0  0  0  0  0  0
   10.8768   -6.9635    3.7005 N   0  0  0  0  0  0  0  0  0  0  0  0
  1  2  1  0  0  0  0
  2  3  1  0  0  0  0
  3  4  1  0  0  0  0
  4  5  1  0  0  0  0
  5  6  1  0  0  0  0
  6  7  1  0  0  0  0
  7  8  1  0  0  0  0
  8  9  1  0  0  0  0
  9 10  1  0  0  0  0
 10 11  1  0  0  0  0
 11 12  1  0  0  0  0
 12 13  1  0  0  0  0
 13 14  1  0  0  0  0
M  END
>  <CHROM.1>
-66.68363793,-176.97840591,-166.86326653,-161.06692360,-68.71133683,-177.69923178
170.93156394,-86.56434621,168.83431122,-176.37108734,-178.54142012,6.05258689
-6.49527644,8.11861314,-2.82515706,-0.73655692,2.96041904

>  <Name>
ligand

>  <RI>
0

>  <Rbt.Current_Directory>
/home/itssahil/PROJECTS/Mol_Feturizer/New_Systems/rnas/1FUF

>  <Rbt.Executable>
rbdock ($Id: //depot/dev/client3/rdock/2013.1/src/exe/rbdock.cxx#4 $)

>  <Rbt.Library>
libRbt.so (2013.1, Build901 2013/11/27)

>  <Rbt.Parameter_File>
/export/apps/rDock/src/rDock_2013.1_src/data/scripts/dock_solv.prm

>  <Rbt.Receptor>
prm/pocket_docking_8.prm

>  <SCORE>
-1.61944

>  <SCORE.INTER>
1.39344

>  <SCORE.INTER.CONST>
1

>  <SCORE.INTER.POLAR>
0

>  <SCORE.INTER.ROT>
11

>  <SCORE.INTER.SOLV>
8.60883

>  <SCORE.INTER.VDW>
-12.874

>  <SCORE.INTER.norm>
0.0995316

>  <SCORE.INTRA>
-3.01289

>  <SCORE.INTRA.DIHEDRAL>
-8.70714

>  <SCORE.INTRA.DIHEDRAL.0>
10.5765

>  <SCORE.INTRA.POLAR>
0

>  <SCORE.INTRA.POLAR.0>
0

>  <SCORE.INTRA.REPUL>
0

>  <SCORE.INTRA.REPUL.0>
0

>  <SCORE.INTRA.SOLV>
1.12169

>  <SCORE.INTRA.SOLV.lig_0>
-50.1861

>  <SCORE.INTRA.VDW>
0.779838

>  <SCORE.INTRA.VDW.0>
-1.36671

>  <SCORE.INTRA.norm>
-0.215206

>  <SCORE.RESTR>
0

>  <SCORE.RESTR.CAVITY>
0

>  <SCORE.RESTR.norm>
0

>  <SCORE.SYSTEM>
0

>  <SCORE.SYSTEM.CONST>
0

>  <SCORE.SYSTEM.DIHEDRAL>
0

>  <SCORE.SYSTEM.SOLV>
0

>  <SCORE.SYSTEM.norm>
0

>  <SCORE.heavy>
14

>  <SCORE.norm>
-0.115675

>  <RMSD>
8.691

$$$$
ligand
 OpenBabel11021811393D
libRbt.so/2013.1/901 2013/11/27
 14 13  0  0  0  0  0  0  0  0999 V2000
   -1.8170    1.0598    9.8242 N   0  0  0  0  0  0  0  0  0  0  0  0
   -2.9304    1.3476    8.8164 C   0  0  0  0  0  0  0  0  0  0  0  0
   -2.4342    2.4767    7.9884 C   0  0  0  0  0  0  0  0  0  0  0  0
   -3.4134    2.9637    6.9327 C   0  0  0  0  0  0  0  0  0  0  0  0
   -4.6456    3.4699    7.5943 N   0  0  0  0  0  0  0  0  0  0  0  0
   -5.8174    3.4199    6.5972 C   0  0  0  0  0  0  0  0  0  0  0  0
   -7.0746    3.7320    7.5427 C   0  0  0  0  0  0  0  0  0  0  0  0
   -7.3107    2.6931    8.3066 C   0  0  0  0  0  0  0  0  0  0  0  0
   -8.7037    3.2499    8.9632 C   0  0  0  0  0  0  0  0  0  0  0  0
   -9.1083    1.9569    9.7478 N   0  0  0  0  0  0  0  0  0  0  0  0
  -10.5725    1.4553    9.4257 C   0  0  0  0  0  0  0  0  0  0  0  0
  -10.7964    0.1130   10.3291 C   0  0  0  0  0  0  0  0  0  0  0  0
  -12.2323   -0.2458   10.0786 C   0  0  0  0  0  0  0  0  0  0  0  0
  -12.2656   -0.7980    8.6730 N   0  0  0  0  0  0  0  0  0  0  0  0
  1  2  1  0  0  0  0
  2  3  1  0  0  0  0
  3  4  1  0  0  0  0
  4  5  1  0  0  0  0
  5  6  1  0  0  0  0
  6  7  1  0  0  0  0
  7  8  1  0  0  0  0
  8  9  1  0  0  0  0
  9 10  1  0  0  0  0
 10 11  1  0  0  0  0
 11 12  1  0  0  0  0
 12 13  1  0  0  0  0
 13 14  1  0  0  0  0
M  END
>  <CHROM.1>
-178.19289270,61.84215330,-157.08365290,170.03057864,-72.11515197,-173.16343661
173.31345065,-126.69216956,179.86168968,175.14012869,73.05505584,-7.08021015
1.92121557,8.62985936,-0.29770147,0.00046567,2.50534146

>  <Name>
ligand

>  <RI>
0

>  <Rbt.Current_Directory>
/home/itssahil/PROJECTS/Mol_Feturizer/New_Systems/rnas/1FUF

>  <Rbt.Executable>
rbdock ($Id: //depot/dev/client3/rdock/2013.1/src/exe/rbdock.cxx#4 $)

>  <Rbt.Library>
libRbt.so (2013.1, Build901 2013/11/27)

>  <Rbt.Parameter_File>
/export/apps/rDock/src/rDock_2013.1_src/data/scripts/dock_solv.prm

>  <Rbt.Receptor>
prm/blind_docking_80.prm

>  <SCORE>
-0.0594892

>  <SCORE.INTER>
2.29185

>  <SCORE.INTER.CONST>
1

>  <SCORE.INTER.POLAR>
0

>  <SCORE.INTER.ROT>
11

>  <SCORE.INTER.SOLV>
15.8

>  <SCORE.INTER.VDW>
-14.6721

>  <SCORE.INTER.norm>
0.163704

>  <SCORE.INTRA>
-2.35134

>  <SCORE.INTRA.DIHEDRAL>
-7.318

>  <SCORE.INTRA.DIHEDRAL.0>
10.5765

>  <SCORE.INTRA.POLAR>
0

>  <SCORE.INTRA.POLAR.0>
0

>  <SCORE.INTRA.REPUL>
0

>  <SCORE.INTRA.REPUL.0>
0

>  <SCORE.INTRA.SOLV>
1.49546

>  <SCORE.INTRA.SOLV.lig_0>
-50.1861

>  <SCORE.INTRA.VDW>
0.559932

>  <SCORE.INTRA.VDW.0>
-1.36671

>  <SCORE.INTRA.norm>
-0.167953

>  <SCORE.RESTR>
0

>  <SCORE.RESTR.CAVITY>
0

>  <SCORE.RESTR.norm>
0

>  <SCORE.SYSTEM>
0

>  <SCORE.SYSTEM.CONST>
0

>  <SCORE.SYSTEM.DIHEDRAL>
0

>  <SCORE.SYSTEM.SOLV>
0

>  <SCORE.SYSTEM.norm>
0

>  <SCORE.heavy>
14

>  <SCORE.norm>
-0.00424923

>  <RMSD>
8.725

$$$$
ligand
 OpenBabel11021811393D
libRbt.so/2013.1/901 2013/11/27
 14 13  0  0  0  0  0  0  0  0999 V2000
    2.1840   -2.1269   10.7036 N   0  0  0  0  0  0  0  0  0  0  0  0
    2.8729   -3.3982   11.2009 C   0  0  0  0  0  0  0  0  0  0  0  0
    2.7777   -4.3663   10.0783 C   0  0  0  0  0  0  0  0  0  0  0  0
    3.3656   -5.7365   10.3744 C   0  0  0  0  0  0  0  0  0  0  0  0
    3.2331   -6.6038    9.1734 N   0  0  0  0  0  0  0  0  0  0  0  0
    4.5777   -6.6482    8.4253 C   0  0  0  0  0  0  0  0  0  0  0  0
    5.1946   -8.0404    8.9285 C   0  0  0  0  0  0  0  0  0  0  0  0
    6.3753   -8.2126    8.3854 C   0  0  0  0  0  0  0  0  0  0  0  0
    6.6657   -9.6931    9.0223 C   0  0  0  0  0  0  0  0  0  0  0  0
    8.0964   -9.9116    8.4252 N   0  0  0  0  0  0  0  0  0  0  0  0
    9.2547   -9.3386    9.3357 C   0  0  0  0  0  0  0  0  0  0  0  0
   10.4808   -8.9674    8.3224 C   0  0  0  0  0  0  0  0  0  0  0  0
    9.9350   -7.8298    7.5094 C   0  0  0  0  0  0  0  0  0  0  0  0
   11.0355   -7.4691    6.5396 N   0  0  0  0  0  0  0  0  0  0  0  0
  1  2  1  0  0  0  0
  2  3  1  0  0  0  0
  3  4  1  0  0  0  0
  4  5  1  0  0  0  0
  5  6  1  0  0  0  0
  6  7  1  0  0  0  0
  7  8  1  0  0  0  0
  8  9  1  0  0  0  0
  9 10  1  0  0  0  0
 10 11  1  0  0  0  0
 11 12  1  0  0  0  0
 12 13  1  0  0  0  0
 13 14  1  0  0  0  0
M  END
>  <CHROM.1>
-177.98910400,-178.99310595,100.26640021,99.32175775,-178.87942125,-177.30917606
-178.36268946,88.13026111,-152.38194446,66.78189330,-179.11452183,6.14635377
-7.02467132,9.03044709,-2.55023545,-0.30529807,-3.09598439

>  <Name>
ligand

>  <RI>
0

>  <Rbt.Current_Directory>
/home/itssahil/PROJECTS/Mol_Feturizer/New_Systems/rnas/1FUF

>  <Rbt.Executable>
rbdock ($Id: //depot/dev/client3/rdock/2013.1/src/exe/rbdock.cxx#4 $)

>  <Rbt.Library>
libRbt.so (2013.1, Build901 2013/11/27)

>  <Rbt.Parameter_File>
/export/apps/rDock/src/rDock_2013.1_src/data/scripts/dock_solv.prm

>  <Rbt.Receptor>
prm/pocket_docking_7.prm

>  <SCORE>
-0.657921

>  <SCORE.INTER>
2.4818

>  <SCORE.INTER.CONST>
1

>  <SCORE.INTER.POLAR>
0

>  <SCORE.INTER.ROT>
11

>  <SCORE.INTER.SOLV>
9.82322

>  <SCORE.INTER.VDW>
-12.5532

>  <SCORE.INTER.norm>
0.177271

>  <SCORE.INTRA>
-3.13972

>  <SCORE.INTRA.DIHEDRAL>
-7.48169

>  <SCORE.INTRA.DIHEDRAL.0>
10.5765

>  <SCORE.INTRA.POLAR>
0

>  <SCORE.INTRA.POLAR.0>
0

>  <SCORE.INTRA.REPUL>
0

>  <SCORE.INTRA.REPUL.0>
0

>  <SCORE.INTRA.SOLV>
0.395144

>  <SCORE.INTRA.SOLV.lig_0>
-50.1861

>  <SCORE.INTRA.VDW>
0.403552

>  <SCORE.INTRA.VDW.0>
-1.36671

>  <SCORE.INTRA.norm>
-0.224266

>  <SCORE.RESTR>
0

>  <SCORE.RESTR.CAVITY>
0

>  <SCORE.RESTR.norm>
0

>  <SCORE.SYSTEM>
0

>  <SCORE.SYSTEM.CONST>
0

>  <SCORE.SYSTEM.DIHEDRAL>
0

>  <SCORE.SYSTEM.SOLV>
0

>  <SCORE.SYSTEM.norm>
0

>  <SCORE.heavy>
14

>  <SCORE.norm>
-0.0469944

>  <RMSD>
8.739

$$$$
ligand
 OpenBabel11021811393D
libRbt.so/2013.1/901 2013/11/27
 14 13  0  0  0  0  0  0  0  0999 V2000
    1.1832   -7.3680   12.1551 N   0  0  0  0  0  0  0  0  0  0  0  0
    1.4433   -6.5157   10.9126 C   0  0  0  0  0  0  0  0  0  0  0  0
    2.8784   -6.1388   10.9831 C   0  0  0  0  0  0  0  0  0  0  0  0
    3.3520   -5.2415    9.8513 C   0  0  0  0  0  0  0  0  0  0  0  0
    4.8186   -5.0242    9.9703 N   0  0  0  0  0  0  0  0  0  0  0  0
    5.3442   -4.3717    8.6789 C   0  0  0  0  0  0  0  0  0  0  0  0
    5.4828   -5.6337    7.6990 C   0  0  0  0  0  0  0  0  0  0  0  0
    6.0894   -5.2625    6.5978 C   0  0  0  0  0  0  0  0  0  0  0  0
    7.6050   -5.6680    7.0672 C   0  0  0  0  0  0  0  0  0  0  0  0
    8.2939   -5.6038    5.6627 N   0  0  0  0  0  0  0  0  0  0  0  0
    9.7392   -6.2440    5.6388 C   0  0  0  0  0  0  0  0  0  0  0  0
    9.9832   -6.7450    4.1034 C   0  0  0  0  0  0  0  0  0  0  0  0
    9.0183   -7.8839    3.9460 C   0  0  0  0  0  0  0  0  0  0  0  0
    9.5730   -8.9974    4.8029 N   0  0  0  0  0  0  0  0  0  0  0  0
  1  2  1  0  0  0  0
  2  3  1  0  0  0  0
  3  4  1  0  0  0  0
  4  5  1  0  0  0  0
  5  6  1  0  0  0  0
  6  7  1  0  0  0  0
  7  8  1  0  0  0  0
  8  9  1  0  0  0  0
  9 10  1  0  0  0  0
 10 11  1  0  0  0  0
 11 12  1  0  0  0  0
 12 13  1  0  0  0  0
 13 14  1  0  0  0  0
M  END
>  <CHROM.1>
-178.24058605,-175.49192729,168.21496029,-80.78480120,-171.88506258,93.72405667
165.58947107,-167.45206734,153.16987681,-68.42899771,-70.41192567,6.05750530
-6.19250469,7.71904228,2.93785165,0.70811725,0.15792083

>  <Name>
ligand

>  <RI>
0

>  <Rbt.Current_Directory>
/home/itssahil/PROJECTS/Mol_Feturizer/New_Systems/rnas/1FUF

>  <Rbt.Executable>
rbdock ($Id: //depot/dev/client3/rdock/2013.1/src/exe/rbdock.cxx#4 $)

>  <Rbt.Library>
libRbt.so (2013.1, Build901 2013/11/27)

>  <Rbt.Parameter_File>
/export/apps/rDock/src/rDock_2013.1_src/data/scripts/dock_solv.prm

>  <Rbt.Receptor>
prm/pocket_docking_8.prm

>  <SCORE>
0.896145

>  <SCORE.INTER>
0.157869

>  <SCORE.INTER.CONST>
1

>  <SCORE.INTER.POLAR>
0

>  <SCORE.INTER.ROT>
11

>  <SCORE.INTER.SOLV>
15.606

>  <SCORE.INTER.VDW>
-16.0301

>  <SCORE.INTER.norm>
0.0112764

>  <SCORE.INTRA>
0.738276

>  <SCORE.INTRA.DIHEDRAL>
-4.11825

>  <SCORE.INTRA.DIHEDRAL.0>
10.5765

>  <SCORE.INTRA.POLAR>
0

>  <SCORE.INTRA.POLAR.0>
0

>  <SCORE.INTRA.REPUL>
0

>  <SCORE.INTRA.REPUL.0>
0

>  <SCORE.INTRA.SOLV>
2.20867

>  <SCORE.INTRA.SOLV.lig_0>
-50.1861

>  <SCORE.INTRA.VDW>
1.69306

>  <SCORE.INTRA.VDW.0>
-1.36671

>  <SCORE.INTRA.norm>
0.052734

>  <SCORE.RESTR>
0

>  <SCORE.RESTR.CAVITY>
0

>  <SCORE.RESTR.norm>
0

>  <SCORE.SYSTEM>
0

>  <SCORE.SYSTEM.CONST>
0

>  <SCORE.SYSTEM.DIHEDRAL>
0

>  <SCORE.SYSTEM.SOLV>
0

>  <SCORE.SYSTEM.norm>
0

>  <SCORE.heavy>
14

>  <SCORE.norm>
0.0640104

>  <RMSD>
8.775

$$$$
ligand
 OpenBabel11021811393D
libRbt.so/2013.1/901 2013/11/27
 14 13  0  0  0  0  0  0  0  0999 V2000
   -2.4569    0.7217   10.4675 N   0  0  0  0  0  0  0  0  0  0  0  0
   -2.9511    0.8627    9.0274 C   0  0  0  0  0  0  0  0  0  0  0  0
   -2.5583    2.2317    8.6052 C   0  0  0  0  0  0  0  0  0  0  0  0
   -2.9080    2.5733    7.1659 C   0  0  0  0  0  0  0  0  0  0  0  0
   -4.3798    2.4749    6.9757 N   0  0  0  0  0  0  0  0  0  0  0  0
   -5.0452    3.7752    7.4618 C   0  0  0  0  0  0  0  0  0  0  0  0
   -6.4228    3.7732    6.6407 C   0  0  0  0  0  0  0  0  0  0  0  0
   -7.2636    2.9421    7.2073 C   0  0  0  0  0  0  0  0  0  0  0  0
   -8.4755    3.1248    6.1213 C   0  0  0  0  0  0  0  0  0  0  0  0
   -9.4901    2.1134    6.7532 N   0  0  0  0  0  0  0  0  0  0  0  0
  -10.9675    2.2832    6.2167 C   0  0  0  0  0  0  0  0  0  0  0  0
  -11.6429    3.4604    7.1256 C   0  0  0  0  0  0  0  0  0  0  0  0
  -11.8382    2.8062    8.4624 C   0  0  0  0  0  0  0  0  0  0  0  0
  -10.4755    2.8169    9.1141 N   0  0  0  0  0  0  0  0  0  0  0  0
  1  2  1  0  0  0  0
  2  3  1  0  0  0  0
  3  4  1  0  0  0  0
  4  5  1  0  0  0  0
  5  6  1  0  0  0  0
  6  7  1  0  0  0  0
  7  8  1  0  0  0  0
  8  9  1  0  0  0  0
  9 10  1  0  0  0  0
 10 11  1  0  0  0  0
 11 12  1  0  0  0  0
 12 13  1  0  0  0  0
 13 14  1  0  0  0  0
M  END
>  <CHROM.1>
177.72342048,60.28819082,82.22065402,156.54087865,78.07930802,-177.43442416
178.71931480,164.02989353,-84.61051455,-71.78173589,78.30946986,-6.91975838
2.56876163,7.66722841,0.19042750,-0.04007808,2.05920721

>  <Name>
ligand

>  <RI>
0

>  <Rbt.Current_Directory>
/home/itssahil/PROJECTS/Mol_Feturizer/New_Systems/rnas/1FUF

>  <Rbt.Executable>
rbdock ($Id: //depot/dev/client3/rdock/2013.1/src/exe/rbdock.cxx#4 $)

>  <Rbt.Library>
libRbt.so (2013.1, Build901 2013/11/27)

>  <Rbt.Parameter_File>
/export/apps/rDock/src/rDock_2013.1_src/data/scripts/dock_solv.prm

>  <Rbt.Receptor>
prm/blind_docking_40.prm

>  <SCORE>
4.39921

>  <SCORE.INTER>
4.17578

>  <SCORE.INTER.CONST>
1

>  <SCORE.INTER.POLAR>
0

>  <SCORE.INTER.ROT>
11

>  <SCORE.INTER.SOLV>
12.4691

>  <SCORE.INTER.VDW>
-12.3058

>  <SCORE.INTER.norm>
0.29827

>  <SCORE.INTRA>
0.223421

>  <SCORE.INTRA.DIHEDRAL>
-6.30142

>  <SCORE.INTRA.DIHEDRAL.0>
10.5765

>  <SCORE.INTRA.POLAR>
0

>  <SCORE.INTRA.POLAR.0>
0

>  <SCORE.INTRA.REPUL>
0

>  <SCORE.INTRA.REPUL.0>
0

>  <SCORE.INTRA.SOLV>
4.91923

>  <SCORE.INTRA.SOLV.lig_0>
-50.1861

>  <SCORE.INTRA.VDW>
0.914514

>  <SCORE.INTRA.VDW.0>
-1.36671

>  <SCORE.INTRA.norm>
0.0159586

>  <SCORE.RESTR>
0

>  <SCORE.RESTR.CAVITY>
0

>  <SCORE.RESTR.norm>
0

>  <SCORE.SYSTEM>
0

>  <SCORE.SYSTEM.CONST>
0

>  <SCORE.SYSTEM.DIHEDRAL>
0

>  <SCORE.SYSTEM.SOLV>
0

>  <SCORE.SYSTEM.norm>
0

>  <SCORE.heavy>
14

>  <SCORE.norm>
0.314229

>  <RMSD>
8.802

$$$$
ligand
 OpenBabel11021811393D
libRbt.so/2013.1/901 2013/11/27
 14 13  0  0  0  0  0  0  0  0999 V2000
  -12.9446    3.3769    8.6169 N   0  0  0  0  0  0  0  0  0  0  0  0
  -11.8348    3.9987    9.4652 C   0  0  0  0  0  0  0  0  0  0  0  0
  -10.5797    3.3390    9.0223 C   0  0  0  0  0  0  0  0  0  0  0  0
  -10.2029    3.6064    7.5741 C   0  0  0  0  0  0  0  0  0  0  0  0
   -8.9163    2.9282    7.2625 N   0  0  0  0  0  0  0  0  0  0  0  0
   -8.6922    2.9342    5.7395 C   0  0  0  0  0  0  0  0  0  0  0  0
   -7.0929    2.9951    5.6370 C   0  0  0  0  0  0  0  0  0  0  0  0
   -6.6764    4.1661    6.0540 C   0  0  0  0  0  0  0  0  0  0  0  0
   -6.0779    3.6567    7.4907 C   0  0  0  0  0  0  0  0  0  0  0  0
   -4.5781    3.5131    7.0647 N   0  0  0  0  0  0  0  0  0  0  0  0
   -3.9024    2.1778    7.5742 C   0  0  0  0  0  0  0  0  0  0  0  0
   -3.9042    2.2672    9.2051 C   0  0  0  0  0  0  0  0  0  0  0  0
   -3.1493    1.0403    9.6269 C   0  0  0  0  0  0  0  0  0  0  0  0
   -4.0465   -0.1216    9.2707 N   0  0  0  0  0  0  0  0  0  0  0  0
  1  2  1  0  0  0  0
  2  3  1  0  0  0  0
  3  4  1  0  0  0  0
  4  5  1  0  0  0  0
  5  6  1  0  0  0  0
  6  7  1  0  0  0  0
  7  8  1  0  0  0  0
  8  9  1  0  0  0  0
  9 10  1  0  0  0  0
 10 11  1  0  0  0  0
 11 12  1  0  0  0  0
 12 13  1  0  0  0  0
 13 14  1  0  0  0  0
M  END
>  <CHROM.1>
63.72592181,178.40478147,167.61234517,148.83470968,-68.79695288,105.96717479
96.97743924,-135.34688543,-63.91625698,-175.23835748,-68.80711656,-7.32833043
2.84860760,7.82874922,3.01780185,0.20352183,-1.12013007

>  <Name>
ligand

>  <RI>
0

>  <Rbt.Current_Directory>
/home/itssahil/PROJECTS/Mol_Feturizer/New_Systems/rnas/1FUF

>  <Rbt.Executable>
rbdock ($Id: //depot/dev/client3/rdock/2013.1/src/exe/rbdock.cxx#4 $)

>  <Rbt.Library>
libRbt.so (2013.1, Build901 2013/11/27)

>  <Rbt.Parameter_File>
/export/apps/rDock/src/rDock_2013.1_src/data/scripts/dock_solv.prm

>  <Rbt.Receptor>
prm/blind_docking_20.prm

>  <SCORE>
9.36663

>  <SCORE.INTER>
5.36965

>  <SCORE.INTER.CONST>
1

>  <SCORE.INTER.POLAR>
0

>  <SCORE.INTER.ROT>
11

>  <SCORE.INTER.SOLV>
17.7993

>  <SCORE.INTER.VDW>
-13.2867

>  <SCORE.INTER.norm>
0.383546

>  <SCORE.INTRA>
3.99698

>  <SCORE.INTRA.DIHEDRAL>
1.01082

>  <SCORE.INTRA.DIHEDRAL.0>
10.5765

>  <SCORE.INTRA.POLAR>
0

>  <SCORE.INTRA.POLAR.0>
0

>  <SCORE.INTRA.REPUL>
0

>  <SCORE.INTRA.REPUL.0>
0

>  <SCORE.INTRA.SOLV>
3.02155

>  <SCORE.INTRA.SOLV.lig_0>
-50.1861

>  <SCORE.INTRA.VDW>
1.98079

>  <SCORE.INTRA.VDW.0>
-1.36671

>  <SCORE.INTRA.norm>
0.285498

>  <SCORE.RESTR>
0

>  <SCORE.RESTR.CAVITY>
0

>  <SCORE.RESTR.norm>
0

>  <SCORE.SYSTEM>
0

>  <SCORE.SYSTEM.CONST>
0

>  <SCORE.SYSTEM.DIHEDRAL>
0

>  <SCORE.SYSTEM.SOLV>
0

>  <SCORE.SYSTEM.norm>
0

>  <SCORE.heavy>
14

>  <SCORE.norm>
0.669045

>  <RMSD>
9.173

$$$$
ligand
 OpenBabel11021811393D
libRbt.so/2013.1/901 2013/11/27
 14 13  0  0  0  0  0  0  0  0999 V2000
    9.5162  -10.2285    5.4861 N   0  0  0  0  0  0  0  0  0  0  0  0
   10.0322   -9.5332    4.2258 C   0  0  0  0  0  0  0  0  0  0  0  0
    9.9348   -8.0779    4.5073 C   0  0  0  0  0  0  0  0  0  0  0  0
    8.5148   -7.5590    4.6655 C   0  0  0  0  0  0  0  0  0  0  0  0
    8.5490   -6.1034    4.9689 N   0  0  0  0  0  0  0  0  0  0  0  0
    7.1145   -5.5978    5.2064 C   0  0  0  0  0  0  0  0  0  0  0  0
    7.0506   -5.5124    6.8066 C   0  0  0  0  0  0  0  0  0  0  0  0
    5.8490   -5.1374    7.1728 C   0  0  0  0  0  0  0  0  0  0  0  0
    6.1479   -5.0792    8.7818 C   0  0  0  0  0  0  0  0  0  0  0  0
    4.7136   -4.6678    9.2563 N   0  0  0  0  0  0  0  0  0  0  0  0
    4.5177   -4.7552   10.8225 C   0  0  0  0  0  0  0  0  0  0  0  0
    3.6964   -6.1404   11.0959 C   0  0  0  0  0  0  0  0  0  0  0  0
    2.3093   -5.8295   10.6139 C   0  0  0  0  0  0  0  0  0  0  0  0
    1.4696   -7.0163   11.0242 N   0  0  0  0  0  0  0  0  0  0  0  0
  1  2  1  0  0  0  0
  2  3  1  0  0  0  0
  3  4  1  0  0  0  0
  4  5  1  0  0  0  0
  5  6  1  0  0  0  0
  6  7  1  0  0  0  0
  7  8  1  0  0  0  0
  8  9  1  0  0  0  0
  9 10  1  0  0  0  0
 10 11  1  0  0  0  0
 11 12  1  0  0  0  0
 12 13  1  0  0  0  0
 13 14  1  0  0  0  0
M  END
>  <CHROM.1>
-65.98119474,178.90137112,-176.84948506,101.60887468,-177.58805430,-177.26835303
-178.60189644,169.64057170,-101.69447136,-72.57944737,-172.34998813,6.38696286
-6.51680885,7.47375380,0.20601778,-0.78989034,3.01663766

>  <Name>
ligand

>  <RI>
0

>  <Rbt.Current_Directory>
/home/itssahil/PROJECTS/Mol_Feturizer/New_Systems/rnas/1FUF

>  <Rbt.Executable>
rbdock ($Id: //depot/dev/client3/rdock/2013.1/src/exe/rbdock.cxx#4 $)

>  <Rbt.Library>
libRbt.so (2013.1, Build901 2013/11/27)

>  <Rbt.Parameter_File>
/export/apps/rDock/src/rDock_2013.1_src/data/scripts/dock_solv.prm

>  <Rbt.Receptor>
prm/pocket_docking_8.prm

>  <SCORE>
-2.44646

>  <SCORE.INTER>
0.49146

>  <SCORE.INTER.CONST>
1

>  <SCORE.INTER.POLAR>
0

>  <SCORE.INTER.ROT>
11

>  <SCORE.INTER.SOLV>
13.4425

>  <SCORE.INTER.VDW>
-15.0865

>  <SCORE.INTER.norm>
0.0351043

>  <SCORE.INTRA>
-2.93792

>  <SCORE.INTRA.DIHEDRAL>
-7.59943

>  <SCORE.INTRA.DIHEDRAL.0>
10.5765

>  <SCORE.INTRA.POLAR>
0

>  <SCORE.INTRA.POLAR.0>
0

>  <SCORE.INTRA.REPUL>
0

>  <SCORE.INTRA.REPUL.0>
0

>  <SCORE.INTRA.SOLV>
1.1051

>  <SCORE.INTRA.SOLV.lig_0>
-50.1861

>  <SCORE.INTRA.VDW>
0.309247

>  <SCORE.INTRA.VDW.0>
-1.36671

>  <SCORE.INTRA.norm>
-0.209852

>  <SCORE.RESTR>
0

>  <SCORE.RESTR.CAVITY>
0

>  <SCORE.RESTR.norm>
0

>  <SCORE.SYSTEM>
0

>  <SCORE.SYSTEM.CONST>
0

>  <SCORE.SYSTEM.DIHEDRAL>
0

>  <SCORE.SYSTEM.SOLV>
0

>  <SCORE.SYSTEM.norm>
0

>  <SCORE.heavy>
14

>  <SCORE.norm>
-0.174747

>  <RMSD>
9.204

$$$$
ligand
 OpenBabel11021811393D
libRbt.so/2013.1/901 2013/11/27
 14 13  0  0  0  0  0  0  0  0999 V2000
   -3.4607    0.6644   10.4791 N   0  0  0  0  0  0  0  0  0  0  0  0
   -3.2484    1.8979    9.6007 C   0  0  0  0  0  0  0  0  0  0  0  0
   -3.6802    1.4937    8.2380 C   0  0  0  0  0  0  0  0  0  0  0  0
   -3.5418    2.5800    7.1837 C   0  0  0  0  0  0  0  0  0  0  0  0
   -4.4202    3.7277    7.5350 N   0  0  0  0  0  0  0  0  0  0  0  0
   -5.7605    3.5911    6.7902 C   0  0  0  0  0  0  0  0  0  0  0  0
   -6.8134    3.5604    7.9994 C   0  0  0  0  0  0  0  0  0  0  0  0
   -8.0311    3.5822    7.5142 C   0  0  0  0  0  0  0  0  0  0  0  0
   -8.8087    3.3458    8.9358 C   0  0  0  0  0  0  0  0  0  0  0  0
  -10.2768    3.4681    8.4054 N   0  0  0  0  0  0  0  0  0  0  0  0
  -10.8463    2.1198    7.8079 C   0  0  0  0  0  0  0  0  0  0  0  0
  -11.1413    2.4173    6.2292 C   0  0  0  0  0  0  0  0  0  0  0  0
  -11.7742    1.1461    5.7426 C   0  0  0  0  0  0  0  0  0  0  0  0
  -12.1105    1.3985    4.2917 N   0  0  0  0  0  0  0  0  0  0  0  0
  1  2  1  0  0  0  0
  2  3  1  0  0  0  0
  3  4  1  0  0  0  0
  4  5  1  0  0  0  0
  5  6  1  0  0  0  0
  6  7  1  0  0  0  0
  7  8  1  0  0  0  0
  8  9  1  0  0  0  0
  9 10  1  0  0  0  0
 10 11  1  0  0  0  0
 11 12  1  0  0  0  0
 12 13  1  0  0  0  0
 13 14  1  0  0  0  0
M  END
>  <CHROM.1>
-179.49759191,-62.67483961,-95.30836638,121.48724353,173.63492658,173.02312356
176.20254147,84.32443408,-117.07043751,-175.81097458,177.97918873,-7.42236968
2.49958690,7.62518916,0.31381262,0.00725828,1.57114815

>  <Name>
ligand

>  <RI>
0

>  <Rbt.Current_Directory>
/home/itssahil/PROJECTS/Mol_Feturizer/New_Systems/rnas/1FUF

>  <Rbt.Executable>
rbdock ($Id: //depot/dev/client3/rdock/2013.1/src/exe/rbdock.cxx#4 $)

>  <Rbt.Library>
libRbt.so (2013.1, Build901 2013/11/27)

>  <Rbt.Parameter_File>
/export/apps/rDock/src/rDock_2013.1_src/data/scripts/dock_solv.prm

>  <Rbt.Receptor>
prm/blind_docking_40.prm

>  <SCORE>
2.17255

>  <SCORE.INTER>
5.07926

>  <SCORE.INTER.CONST>
1

>  <SCORE.INTER.POLAR>
0

>  <SCORE.INTER.ROT>
11

>  <SCORE.INTER.SOLV>
14.3207

>  <SCORE.INTER.VDW>
-12.3207

>  <SCORE.INTER.norm>
0.362804

>  <SCORE.INTRA>
-2.91722

>  <SCORE.INTRA.DIHEDRAL>
-6.47869

>  <SCORE.INTRA.DIHEDRAL.0>
10.5765

>  <SCORE.INTRA.POLAR>
0

>  <SCORE.INTRA.POLAR.0>
0

>  <SCORE.INTRA.REPUL>
0

>  <SCORE.INTRA.REPUL.0>
0

>  <SCORE.INTRA.SOLV>
0.215716

>  <SCORE.INTRA.SOLV.lig_0>
-50.1861

>  <SCORE.INTRA.VDW>
0.214264

>  <SCORE.INTRA.VDW.0>
-1.36671

>  <SCORE.INTRA.norm>
-0.208373

>  <SCORE.RESTR>
0.0105186

>  <SCORE.RESTR.CAVITY>
0.0105186

>  <SCORE.RESTR.norm>
0.000751328

>  <SCORE.SYSTEM>
0

>  <SCORE.SYSTEM.CONST>
0

>  <SCORE.SYSTEM.DIHEDRAL>
0

>  <SCORE.SYSTEM.SOLV>
0

>  <SCORE.SYSTEM.norm>
0

>  <SCORE.heavy>
14

>  <SCORE.norm>
0.155182

>  <RMSD>
9.276

$$$$
ligand
 OpenBabel11021811393D
libRbt.so/2013.1/901 2013/11/27
 14 13  0  0  0  0  0  0  0  0999 V2000
    1.2358   -7.5995   11.7765 N   0  0  0  0  0  0  0  0  0  0  0  0
    1.4140   -6.0809   11.7669 C   0  0  0  0  0  0  0  0  0  0  0  0
    2.2694   -5.7891   10.5881 C   0  0  0  0  0  0  0  0  0  0  0  0
    3.6841   -6.3367   10.6834 C   0  0  0  0  0  0  0  0  0  0  0  0
    4.4354   -5.9893    9.4476 N   0  0  0  0  0  0  0  0  0  0  0  0
    4.2846   -7.1272    8.4218 C   0  0  0  0  0  0  0  0  0  0  0  0
    5.4334   -8.1470    8.8824 C   0  0  0  0  0  0  0  0  0  0  0  0
    5.4139   -9.2017    8.1041 C   0  0  0  0  0  0  0  0  0  0  0  0
    6.7018   -9.9591    8.7745 C   0  0  0  0  0  0  0  0  0  0  0  0
    6.7366  -11.2084    7.8314 N   0  0  0  0  0  0  0  0  0  0  0  0
    8.1434  -11.9283    7.7890 C   0  0  0  0  0  0  0  0  0  0  0  0
    9.1359  -10.9267    6.9647 C   0  0  0  0  0  0  0  0  0  0  0  0
    8.5593  -10.9198    5.5789 C   0  0  0  0  0  0  0  0  0  0  0  0
    9.4470   -9.9927    4.7826 N   0  0  0  0  0  0  0  0  0  0  0  0
  1  2  1  0  0  0  0
  2  3  1  0  0  0  0
  3  4  1  0  0  0  0
  4  5  1  0  0  0  0
  5  6  1  0  0  0  0
  6  7  1  0  0  0  0
  7  8  1  0  0  0  0
  8  9  1  0  0  0  0
  9 10  1  0  0  0  0
 10 11  1  0  0  0  0
 11 12  1  0  0  0  0
 12 13  1  0  0  0  0
 13 14  1  0  0  0  0
M  END
>  <CHROM.1>
-65.69800517,179.65599967,-91.46341439,-84.12443193,178.78951994,177.30332078
-178.19264621,158.32765024,-71.36664757,-65.73966563,179.61383085,5.49246383
-8.65758862,8.67092673,2.85028914,0.75402632,-0.37400804

>  <Name>
ligand

>  <RI>
0

>  <Rbt.Current_Directory>
/home/itssahil/PROJECTS/Mol_Feturizer/New_Systems/rnas/1FUF

>  <Rbt.Executable>
rbdock ($Id: //depot/dev/client3/rdock/2013.1/src/exe/rbdock.cxx#4 $)

>  <Rbt.Library>
libRbt.so (2013.1, Build901 2013/11/27)

>  <Rbt.Parameter_File>
/export/apps/rDock/src/rDock_2013.1_src/data/scripts/dock_solv.prm

>  <Rbt.Receptor>
prm/pocket_docking_8.prm

>  <SCORE>
-1.69174

>  <SCORE.INTER>
0.774787

>  <SCORE.INTER.CONST>
1

>  <SCORE.INTER.POLAR>
0

>  <SCORE.INTER.ROT>
11

>  <SCORE.INTER.SOLV>
14.1603

>  <SCORE.INTER.VDW>
-15.1369

>  <SCORE.INTER.norm>
0.0553419

>  <SCORE.INTRA>
-2.46652

>  <SCORE.INTRA.DIHEDRAL>
-8.76749

>  <SCORE.INTRA.DIHEDRAL.0>
10.5765

>  <SCORE.INTRA.POLAR>
0

>  <SCORE.INTRA.POLAR.0>
0

>  <SCORE.INTRA.REPUL>
0

>  <SCORE.INTRA.REPUL.0>
0

>  <SCORE.INTRA.SOLV>
1.39108

>  <SCORE.INTRA.SOLV.lig_0>
-50.1861

>  <SCORE.INTRA.VDW>
1.22168

>  <SCORE.INTRA.VDW.0>
-1.36671

>  <SCORE.INTRA.norm>
-0.17618

>  <SCORE.RESTR>
0

>  <SCORE.RESTR.CAVITY>
0

>  <SCORE.RESTR.norm>
0

>  <SCORE.SYSTEM>
0

>  <SCORE.SYSTEM.CONST>
0

>  <SCORE.SYSTEM.DIHEDRAL>
0

>  <SCORE.SYSTEM.SOLV>
0

>  <SCORE.SYSTEM.norm>
0

>  <SCORE.heavy>
14

>  <SCORE.norm>
-0.120838

>  <RMSD>
9.605

$$$$
ligand
 OpenBabel11021811393D
libRbt.so/2013.1/901 2013/11/27
 14 13  0  0  0  0  0  0  0  0999 V2000
  -10.9750    9.6797    6.6829 N   0  0  0  0  0  0  0  0  0  0  0  0
  -10.7435    8.3429    5.9776 C   0  0  0  0  0  0  0  0  0  0  0  0
  -10.2196    7.4276    7.0237 C   0  0  0  0  0  0  0  0  0  0  0  0
   -9.9780    6.0027    6.5526 C   0  0  0  0  0  0  0  0  0  0  0  0
   -9.4614    5.1867    7.6838 N   0  0  0  0  0  0  0  0  0  0  0  0
   -9.7059    3.6954    7.3905 C   0  0  0  0  0  0  0  0  0  0  0  0
   -8.9472    2.9856    8.6121 C   0  0  0  0  0  0  0  0  0  0  0  0
   -7.6524    3.1094    8.4486 C   0  0  0  0  0  0  0  0  0  0  0  0
   -7.2081    2.1751    9.7180 C   0  0  0  0  0  0  0  0  0  0  0  0
   -5.6712    2.1224    9.4239 N   0  0  0  0  0  0  0  0  0  0  0  0
   -4.9249    0.9481   10.1743 C   0  0  0  0  0  0  0  0  0  0  0  0
   -3.8684    0.3253    9.0955 C   0  0  0  0  0  0  0  0  0  0  0  0
   -2.8060    1.3807    8.9920 C   0  0  0  0  0  0  0  0  0  0  0  0
   -1.9975    1.2580   10.2621 N   0  0  0  0  0  0  0  0  0  0  0  0
  1  2  1  0  0  0  0
  2  3  1  0  0  0  0
  3  4  1  0  0  0  0
  4  5  1  0  0  0  0
  5  6  1  0  0  0  0
  6  7  1  0  0  0  0
  7  8  1  0  0  0  0
  8  9  1  0  0  0  0
  9 10  1  0  0  0  0
 10 11  1  0  0  0  0
 11 12  1  0  0  0  0
 12 13  1  0  0  0  0
 13 14  1  0  0  0  0
M  END
>  <CHROM.1>
177.20194527,-179.82048814,159.17314812,173.81080990,-71.45732328,-174.24950012
171.83758588,-162.12284785,138.68249091,72.20300472,75.15411647,-7.44011134
3.90256341,8.28831065,-2.33440746,0.12658170,2.83290534

>  <Name>
ligand

>  <RI>
0

>  <Rbt.Current_Directory>
/home/itssahil/PROJECTS/Mol_Feturizer/New_Systems/rnas/1FUF

>  <Rbt.Executable>
rbdock ($Id: //depot/dev/client3/rdock/2013.1/src/exe/rbdock.cxx#4 $)

>  <Rbt.Library>
libRbt.so (2013.1, Build901 2013/11/27)

>  <Rbt.Parameter_File>
/export/apps/rDock/src/rDock_2013.1_src/data/scripts/dock_solv.prm

>  <Rbt.Receptor>
prm/blind_docking_80.prm

>  <SCORE>
3.9053

>  <SCORE.INTER>
5.70786

>  <SCORE.INTER.CONST>
1

>  <SCORE.INTER.POLAR>
0

>  <SCORE.INTER.ROT>
11

>  <SCORE.INTER.SOLV>
10.9248

>  <SCORE.INTER.VDW>
-10.7697

>  <SCORE.INTER.norm>
0.407704

>  <SCORE.INTRA>
-1.80256

>  <SCORE.INTRA.DIHEDRAL>
-6.77694

>  <SCORE.INTRA.DIHEDRAL.0>
10.5765

>  <SCORE.INTRA.POLAR>
0

>  <SCORE.INTRA.POLAR.0>
0

>  <SCORE.INTRA.REPUL>
0

>  <SCORE.INTRA.REPUL.0>
0

>  <SCORE.INTRA.SOLV>
1.91811

>  <SCORE.INTRA.SOLV.lig_0>
-50.1861

>  <SCORE.INTRA.VDW>
0.626858

>  <SCORE.INTRA.VDW.0>
-1.36671

>  <SCORE.INTRA.norm>
-0.128754

>  <SCORE.RESTR>
0

>  <SCORE.RESTR.CAVITY>
0

>  <SCORE.RESTR.norm>
0

>  <SCORE.SYSTEM>
0

>  <SCORE.SYSTEM.CONST>
0

>  <SCORE.SYSTEM.DIHEDRAL>
0

>  <SCORE.SYSTEM.SOLV>
0

>  <SCORE.SYSTEM.norm>
0

>  <SCORE.heavy>
14

>  <SCORE.norm>
0.27895

>  <RMSD>
9.650

$$$$
ligand
 OpenBabel11021811393D
libRbt.so/2013.1/901 2013/11/27
 14 13  0  0  0  0  0  0  0  0999 V2000
  -10.1763    9.2950    5.1805 N   0  0  0  0  0  0  0  0  0  0  0  0
   -8.8983    8.9684    5.9539 C   0  0  0  0  0  0  0  0  0  0  0  0
   -7.8985    8.5848    4.9244 C   0  0  0  0  0  0  0  0  0  0  0  0
   -8.2579    7.3411    4.1277 C   0  0  0  0  0  0  0  0  0  0  0  0
   -8.4207    6.1883    5.0533 N   0  0  0  0  0  0  0  0  0  0  0  0
   -7.1960    5.2630    4.9363 C   0  0  0  0  0  0  0  0  0  0  0  0
   -7.5994    4.0501    5.9048 C   0  0  0  0  0  0  0  0  0  0  0  0
   -6.7216    3.0847    5.7788 C   0  0  0  0  0  0  0  0  0  0  0  0
   -5.7342    3.5628    6.9945 C   0  0  0  0  0  0  0  0  0  0  0  0
   -4.6090    2.4922    6.7968 N   0  0  0  0  0  0  0  0  0  0  0  0
   -3.5753    2.4348    7.9915 C   0  0  0  0  0  0  0  0  0  0  0  0
   -3.8287    1.0035    8.7365 C   0  0  0  0  0  0  0  0  0  0  0  0
   -2.6546    0.8748    9.6628 C   0  0  0  0  0  0  0  0  0  0  0  0
   -2.9174    1.8589   10.7783 N   0  0  0  0  0  0  0  0  0  0  0  0
  1  2  1  0  0  0  0
  2  3  1  0  0  0  0
  3  4  1  0  0  0  0
  4  5  1  0  0  0  0
  5  6  1  0  0  0  0
  6  7  1  0  0  0  0
  7  8  1  0  0  0  0
  8  9  1  0  0  0  0
  9 10  1  0  0  0  0
 10 11  1  0  0  0  0
 11 12  1  0  0  0  0
 12 13  1  0  0  0  0
 13 14  1  0  0  0  0
M  END
>  <CHROM.1>
-62.92797394,-58.85298631,-105.18048794,-175.96602479,171.86777465,92.26696161
-175.68737843,-168.27338985,111.30708156,168.66423083,73.31958688,-6.32047277
4.64290235,6.62987370,-2.80276384,0.91466376,-2.54176913

>  <Name>
ligand

>  <RI>
0

>  <Rbt.Current_Directory>
/home/itssahil/PROJECTS/Mol_Feturizer/New_Systems/rnas/1FUF

>  <Rbt.Executable>
rbdock ($Id: //depot/dev/client3/rdock/2013.1/src/exe/rbdock.cxx#4 $)

>  <Rbt.Library>
libRbt.so (2013.1, Build901 2013/11/27)

>  <Rbt.Parameter_File>
/export/apps/rDock/src/rDock_2013.1_src/data/scripts/dock_solv.prm

>  <Rbt.Receptor>
prm/blind_docking_20.prm

>  <SCORE>
0.236326

>  <SCORE.INTER>
-0.856021

>  <SCORE.INTER.CONST>
1

>  <SCORE.INTER.POLAR>
0

>  <SCORE.INTER.ROT>
11

>  <SCORE.INTER.SOLV>
17.2735

>  <SCORE.INTER.VDW>
-17.2619

>  <SCORE.INTER.norm>
-0.0611444

>  <SCORE.INTRA>
1.09235

>  <SCORE.INTRA.DIHEDRAL>
-3.39366

>  <SCORE.INTRA.DIHEDRAL.0>
10.5765

>  <SCORE.INTRA.POLAR>
0

>  <SCORE.INTRA.POLAR.0>
0

>  <SCORE.INTRA.REPUL>
0

>  <SCORE.INTRA.REPUL.0>
0

>  <SCORE.INTRA.SOLV>
2.93859

>  <SCORE.INTRA.SOLV.lig_0>
-50.1861

>  <SCORE.INTRA.VDW>
1.31988

>  <SCORE.INTRA.VDW.0>
-1.36671

>  <SCORE.INTRA.norm>
0.0780248

>  <SCORE.RESTR>
0

>  <SCORE.RESTR.CAVITY>
0

>  <SCORE.RESTR.norm>
0

>  <SCORE.SYSTEM>
0

>  <SCORE.SYSTEM.CONST>
0

>  <SCORE.SYSTEM.DIHEDRAL>
0

>  <SCORE.SYSTEM.SOLV>
0

>  <SCORE.SYSTEM.norm>
0

>  <SCORE.heavy>
14

>  <SCORE.norm>
0.0168804

>  <RMSD>
9.907

$$$$
ligand
 OpenBabel11021811393D
libRbt.so/2013.1/901 2013/11/27
 14 13  0  0  0  0  0  0  0  0999 V2000
  -14.8159   -1.3363    6.7428 N   0  0  0  0  0  0  0  0  0  0  0  0
  -13.3766   -1.1779    7.2341 C   0  0  0  0  0  0  0  0  0  0  0  0
  -13.4111   -1.5178    8.6798 C   0  0  0  0  0  0  0  0  0  0  0  0
  -12.0645   -1.4351    9.3802 C   0  0  0  0  0  0  0  0  0  0  0  0
  -11.5331   -0.0501    9.2726 N   0  0  0  0  0  0  0  0  0  0  0  0
  -10.6831    0.2684   10.5159 C   0  0  0  0  0  0  0  0  0  0  0  0
   -9.9179    1.6036   10.0649 C   0  0  0  0  0  0  0  0  0  0  0  0
   -8.9624    1.2920    9.2231 C   0  0  0  0  0  0  0  0  0  0  0  0
   -8.2810    2.7791    9.1468 C   0  0  0  0  0  0  0  0  0  0  0  0
   -7.2854    2.5038    7.9702 N   0  0  0  0  0  0  0  0  0  0  0  0
   -7.1014    3.7363    6.9976 C   0  0  0  0  0  0  0  0  0  0  0  0
   -8.5983    4.1166    6.4661 C   0  0  0  0  0  0  0  0  0  0  0  0
   -9.0929    2.8365    5.8578 C   0  0  0  0  0  0  0  0  0  0  0  0
  -10.4710    3.1540    5.3269 N   0  0  0  0  0  0  0  0  0  0  0  0
  1  2  1  0  0  0  0
  2  3  1  0  0  0  0
  3  4  1  0  0  0  0
  4  5  1  0  0  0  0
  5  6  1  0  0  0  0
  6  7  1  0  0  0  0
  7  8  1  0  0  0  0
  8  9  1  0  0  0  0
  9 10  1  0  0  0  0
 10 11  1  0  0  0  0
 11 12  1  0  0  0  0
 12 13  1  0  0  0  0
 13 14  1  0  0  0  0
M  END
>  <CHROM.1>
179.60429143,59.86463329,148.94383138,166.44286079,-75.30010723,-172.35809059
-171.05347446,143.44911363,-56.30612650,-56.28942085,-178.90272697,-10.39935007
1.19813882,8.06306647,2.70828534,0.60497018,2.03049077

>  <Name>
ligand

>  <RI>
0

>  <Rbt.Current_Directory>
/home/itssahil/PROJECTS/Mol_Feturizer/New_Systems/rnas/1FUF

>  <Rbt.Executable>
rbdock ($Id: //depot/dev/client3/rdock/2013.1/src/exe/rbdock.cxx#4 $)

>  <Rbt.Library>
libRbt.so (2013.1, Build901 2013/11/27)

>  <Rbt.Parameter_File>
/export/apps/rDock/src/rDock_2013.1_src/data/scripts/dock_solv.prm

>  <Rbt.Receptor>
prm/blind_docking_80.prm

>  <SCORE>
5.08428

>  <SCORE.INTER>
6.55895

>  <SCORE.INTER.CONST>
1

>  <SCORE.INTER.POLAR>
0

>  <SCORE.INTER.ROT>
11

>  <SCORE.INTER.SOLV>
10.0145

>  <SCORE.INTER.VDW>
-9.89888

>  <SCORE.INTER.norm>
0.468496

>  <SCORE.INTRA>
-1.47466

>  <SCORE.INTRA.DIHEDRAL>
-7.54994

>  <SCORE.INTRA.DIHEDRAL.0>
10.5765

>  <SCORE.INTRA.POLAR>
0

>  <SCORE.INTRA.POLAR.0>
0

>  <SCORE.INTRA.REPUL>
0

>  <SCORE.INTRA.REPUL.0>
0

>  <SCORE.INTRA.SOLV>
1.61147

>  <SCORE.INTRA.SOLV.lig_0>
-50.1861

>  <SCORE.INTRA.VDW>
1.49457

>  <SCORE.INTRA.VDW.0>
-1.36671

>  <SCORE.INTRA.norm>
-0.105333

>  <SCORE.RESTR>
0

>  <SCORE.RESTR.CAVITY>
0

>  <SCORE.RESTR.norm>
0

>  <SCORE.SYSTEM>
0

>  <SCORE.SYSTEM.CONST>
0

>  <SCORE.SYSTEM.DIHEDRAL>
0

>  <SCORE.SYSTEM.SOLV>
0

>  <SCORE.SYSTEM.norm>
0

>  <SCORE.heavy>
14

>  <SCORE.norm>
0.363163

>  <RMSD>
12.030

$$$$
ligand
 OpenBabel11021811393D
libRbt.so/2013.1/901 2013/11/27
 14 13  0  0  0  0  0  0  0  0999 V2000
  -10.0553    5.5979    7.0015 N   0  0  0  0  0  0  0  0  0  0  0  0
   -9.1743    4.4850    6.4329 C   0  0  0  0  0  0  0  0  0  0  0  0
   -9.9966    3.2501    6.5086 C   0  0  0  0  0  0  0  0  0  0  0  0
  -10.2481    2.7445    7.9199 C   0  0  0  0  0  0  0  0  0  0  0  0
  -11.1416    1.5565    7.8698 N   0  0  0  0  0  0  0  0  0  0  0  0
  -11.0477    0.7909    9.2021 C   0  0  0  0  0  0  0  0  0  0  0  0
  -11.9067   -0.5273    8.8915 C   0  0  0  0  0  0  0  0  0  0  0  0
  -11.8098   -1.3557    9.9029 C   0  0  0  0  0  0  0  0  0  0  0  0
  -12.7108   -2.5588    9.2528 C   0  0  0  0  0  0  0  0  0  0  0  0
  -14.1255   -1.9872    9.6037 N   0  0  0  0  0  0  0  0  0  0  0  0
  -14.5845   -2.3027   11.0832 C   0  0  0  0  0  0  0  0  0  0  0  0
  -16.0571   -1.6167   11.2526 C   0  0  0  0  0  0  0  0  0  0  0  0
  -16.5048   -2.0723   12.6111 C   0  0  0  0  0  0  0  0  0  0  0  0
  -16.8628   -3.5303   12.4443 N   0  0  0  0  0  0  0  0  0  0  0  0
  1  2  1  0  0  0  0
  2  3  1  0  0  0  0
  3  4  1  0  0  0  0
  4  5  1  0  0  0  0
  5  6  1  0  0  0  0
  6  7  1  0  0  0  0
  7  8  1  0  0  0  0
  8  9  1  0  0  0  0
  9 10  1  0  0  0  0
 10 11  1  0  0  0  0
 11 12  1  0  0  0  0
 12 13  1  0  0  0  0
 13 14  1  0  0  0  0
M  END
>  <CHROM.1>
-69.33112197,176.78242786,162.49706092,-172.92284566,173.71742294,-177.83556407
-81.75202118,-82.33939873,179.40700222,174.03266683,-73.57213558,-12.58735374
0.17661156,9.28409962,0.79049971,0.57145454,-0.12403838

>  <Name>
ligand

>  <RI>
0

>  <Rbt.Current_Directory>
/home/itssahil/PROJECTS/Mol_Feturizer/New_Systems/rnas/1FUF

>  <Rbt.Executable>
rbdock ($Id: //depot/dev/client3/rdock/2013.1/src/exe/rbdock.cxx#4 $)

>  <Rbt.Library>
libRbt.so (2013.1, Build901 2013/11/27)

>  <Rbt.Parameter_File>
/export/apps/rDock/src/rDock_2013.1_src/data/scripts/dock_solv.prm

>  <Rbt.Receptor>
prm/blind_docking_100.prm

>  <SCORE>
5.47869

>  <SCORE.INTER>
6.45606

>  <SCORE.INTER.CONST>
1

>  <SCORE.INTER.POLAR>
0

>  <SCORE.INTER.ROT>
11

>  <SCORE.INTER.SOLV>
8.47614

>  <SCORE.INTER.VDW>
-9.45468

>  <SCORE.INTER.norm>
0.461147

>  <SCORE.INTRA>
-0.977369

>  <SCORE.INTRA.DIHEDRAL>
-6.99883

>  <SCORE.INTRA.DIHEDRAL.0>
10.5765

>  <SCORE.INTRA.POLAR>
0

>  <SCORE.INTRA.POLAR.0>
0

>  <SCORE.INTRA.REPUL>
0

>  <SCORE.INTRA.REPUL.0>
0

>  <SCORE.INTRA.SOLV>
2.12567

>  <SCORE.INTRA.SOLV.lig_0>
-50.1861

>  <SCORE.INTRA.VDW>
1.45921

>  <SCORE.INTRA.VDW.0>
-1.36671

>  <SCORE.INTRA.norm>
-0.0698121

>  <SCORE.RESTR>
0

>  <SCORE.RESTR.CAVITY>
0

>  <SCORE.RESTR.norm>
0

>  <SCORE.SYSTEM>
0

>  <SCORE.SYSTEM.CONST>
0

>  <SCORE.SYSTEM.DIHEDRAL>
0

>  <SCORE.SYSTEM.SOLV>
0

>  <SCORE.SYSTEM.norm>
0

>  <SCORE.heavy>
14

>  <SCORE.norm>
0.391335

>  <RMSD>
13.981

$$$$
