@<TRIPOS>MOLECULE
1FUF_rdock.pdb
 655 657 0 0 0
SMALL
GASTEIGER

@<TRIPOS>ATOM
      1  C5'       -9.2820   12.6170   11.1880 C.3     1  G1          0.0000
      2  O5'       -9.5610   11.3180   10.6750 O.3     1  G1          0.0000
      3  C4'       -9.5460   12.7350   12.6710 C.3     1  G1          0.0000
      4  O4'      -10.9520   12.5020   12.9280 O.3     1  G1          0.0000
      5  C3'       -8.8140   11.7440   13.5620 C.3     1  G1          0.0000
      6  O3'       -7.5340   12.2540   13.9060 O.3     1  G1          0.0000
      7  C2'       -9.7140   11.6990   14.7880 C.3     1  G1          0.0000
      8  O2'       -9.4940   12.8320   15.5960 O.3     1  G1          0.0000
      9  C1'      -11.1020   11.7720   14.1420 C.3     1  G1          0.0000
     10  N1       -12.7910    7.3050   15.8770 N.ar    1  G1          0.0000
     11  C2       -12.3480    8.4070   16.5750 C.ar    1  G1          0.0000
     12  N2       -12.3610    8.3170   17.9120 N.pl3   1  G1          0.0000
     13  N3       -11.9250    9.5290   16.0020 N.ar    1  G1          0.0000
     14  C4       -11.9930    9.4650   14.6640 C.ar    1  G1          0.0000
     15  C5       -12.4280    8.4250   13.8750 C.ar    1  G1          0.0000
     16  C6       -12.8860    7.2310   14.4950 C.ar    1  G1          0.0000
     17  O6       -13.3460    6.2280   13.9630 O.2     1  G1          0.0000
     18  N7       -12.3200    8.7460   12.5300 N.ar    1  G1          0.0000
     19  C8       -11.8490    9.9600   12.5240 C.ar    1  G1          0.0000
     20  N9       -11.6280   10.4570   13.7940 N.ar    1  G1          0.0000
     21  P         -6.3200   11.2520   14.1710 P.3     2  G2          0.0000
     22  C5'       -6.5040   11.4000   16.7840 C.3     2  G2          0.0000
     23  O5'       -6.6410   10.6360   15.5940 O.3     2  G2          0.0000
     24  C4'       -6.9010   10.5670   17.9760 C.3     2  G2          0.0000
     25  O4'       -8.3070   10.1930   17.8780 O.3     2  G2          0.0000
     26  C3'       -6.2030    9.2300   18.0900 C.3     2  G2          0.0000
     27  O3'       -4.8720    9.3530   18.5810 O.3     2  G2          0.0000
     28  C2'       -7.1470    8.5030   19.0370 C.3     2  G2          0.0000
     29  O2'       -7.1150    9.0380   20.3600 O.3     2  G2          0.0000
     30  C1'       -8.4910    8.8890   18.4180 C.3     2  G2          0.0000
     31  N1       -10.4990    4.3910   17.2390 N.ar    2  G2          0.0000
     32  C2       -10.1980    4.9150   18.4780 C.ar    2  G2          0.0000
     33  N2       -10.4410    4.1260   19.5590 N.pl3   2  G2          0.0000
     34  N3        -9.6770    6.1100   18.6550 N.ar    2  G2          0.0000
     35  C4        -9.4390    6.7420   17.4780 C.ar    2  G2          0.0000
     36  C5        -9.6780    6.2950   16.1910 C.ar    2  G2          0.0000
     37  C6       -10.2610    5.0240   16.0150 C.ar    2  G2          0.0000
     38  O6       -10.5500    4.4580   14.9580 O.2     2  G2          0.0000
     39  N7        -9.2520    7.2340   15.2530 N.ar    2  G2          0.0000
     40  C8        -8.7930    8.2210   15.9720 C.ar    2  G2          0.0000
     41  N9        -8.8850    7.9930   17.3300 N.ar    2  G2          0.0000
     42  OP1       -5.1070   12.1110   14.3050 O.3     2  G2         -0.5000
     43  OP2       -6.3110   10.1210   13.2120 O.co2   2  G2         -0.5000
     44  P         -3.7450    8.3350   18.0540 P.3     3  U3          0.0000
     45  C5'       -4.2880    6.8000   20.0710 C.3     3  U3          0.0000
     46  O5'       -4.1780    6.9420   18.6710 O.3     3  U3          0.0000
     47  C4'       -4.9530    5.5070   20.4050 C.3     3  U3          0.0000
     48  O4'       -6.2130    5.4340   19.7020 O.3     3  U3          0.0000
     49  C3'       -4.2310    4.2510   19.9490 C.3     3  U3          0.0000
     50  O3'       -3.2310    3.9370   20.9110 O.3     3  U3          0.0000
     51  C2'       -5.3680    3.2380   19.9670 C.3     3  U3          0.0000
     52  O2'       -5.7650    2.8360   21.2580 O.3     3  U3          0.0000
     53  C1'       -6.5190    4.0830   19.4310 C.3     3  U3          0.0000
     54  N1        -6.7560    3.9280   17.9900 N.ar    3  U3          0.0000
     55  C2        -7.4690    2.8050   17.5880 C.ar    3  U3          0.0000
     56  O2        -7.8610    1.9600   18.3670 O.2     3  U3          0.0000
     57  N3        -7.7120    2.7210   16.2420 N.ar    3  U3          0.0000
     58  C4        -7.3250    3.6160   15.2870 C.ar    3  U3          0.0000
     59  O4        -7.5940    3.3960   14.1020 O.2     3  U3          0.0000
     60  C5        -6.5840    4.7500   15.7830 C.ar    3  U3          0.0000
     61  C6        -6.3250    4.8530   17.0830 C.ar    3  U3          0.0000
     62  OP1       -2.5040    8.8320   18.7100 O.3     3  U3         -0.5000
     63  OP2       -3.8110    8.2320   16.5720 O.co2   3  U3         -0.5000
     64  P         -2.0290    2.9540   20.5360 P.3     4  A4          0.0000
     65  C5'       -3.3040    0.8410   21.3800 C.3     4  A4          0.0000
     66  O5'       -2.7570    1.5650   20.2840 O.3     4  A4          0.0000
     67  C4'       -3.9410   -0.4430   20.8960 C.3     4  A4          0.0000
     68  O4'       -5.0350   -0.1210   20.0070 O.3     4  A4          0.0000
     69  C3'       -3.0690   -1.3410   20.0490 C.3     4  A4          0.0000
     70  O3'       -2.1700   -2.0800   20.8650 O.3     4  A4          0.0000
     71  C2'       -4.1070   -2.2210   19.3640 C.3     4  A4          0.0000
     72  O2'       -4.6130   -3.2410   20.2160 O.3     4  A4          0.0000
     73  C1'       -5.2140   -1.1960   19.0890 C.3     4  A4          0.0000
     74  N1        -6.7000   -1.9530   14.2670 N.ar    4  A4          0.0000
     75  C2        -6.7800   -2.6970   15.3740 C.ar    4  A4          0.0000
     76  N3        -6.3380   -2.4320   16.5930 N.ar    4  A4          0.0000
     77  C4        -5.7330   -1.2430   16.6300 C.ar    4  A4          0.0000
     78  C5        -5.5560   -0.3600   15.5780 C.ar    4  A4          0.0000
     79  C6        -6.0870   -0.7480   14.3380 C.ar    4  A4          0.0000
     80  N6        -6.0410   -0.0030   13.2430 N.pl3   4  A4          0.0000
     81  N7        -4.8750    0.7770   15.9940 N.ar    4  A4          0.0000
     82  C8        -4.6590    0.5590   17.2830 C.ar    4  A4          0.0000
     83  N9        -5.1800   -0.6390   17.7330 N.ar    4  A4          0.0000
     84  OP1       -1.2370    2.8080   21.8120 O.3     4  A4         -0.5000
     85  OP2       -1.3480    3.3680   19.3070 O.co2   4  A4         -0.5000
     86  P         -0.7010   -2.3950   20.3260 P.3     5  U5          0.0000
     87  C5'       -1.4130   -4.7730   19.4100 C.3     5  U5          0.0000
     88  O5'       -0.9070   -3.4570   19.1480 O.3     5  U5          0.0000
     89  C4'       -1.7950   -5.4480   18.1100 C.3     5  U5          0.0000
     90  O4'       -2.8840   -4.7050   17.5080 O.3     5  U5          0.0000
     91  C3'       -0.7330   -5.4640   17.0310 C.3     5  U5          0.0000
     92  O3'        0.1140   -6.5960   17.2020 O.3     5  U5          0.0000
     93  C2'       -1.5780   -5.6670   15.7720 C.3     5  U5          0.0000
     94  O2'       -1.9750   -7.0100   15.5950 O.3     5  U5          0.0000
     95  C1'       -2.8450   -4.8690   16.1030 C.3     5  U5          0.0000
     96  N1        -2.8420   -3.5560   15.4360 N.ar    5  U5          0.0000
     97  C2        -3.4120   -3.4970   14.1760 C.ar    5  U5          0.0000
     98  O2        -3.9230   -4.4690   13.6310 O.2     5  U5          0.0000
     99  N3        -3.3450   -2.2700   13.5550 N.ar    5  U5          0.0000
    100  C4        -2.7620   -1.1090   14.0380 C.ar    5  U5          0.0000
    101  O4        -2.7480   -0.1000   13.3130 O.2     5  U5          0.0000
    102  C5        -2.1930   -1.2290   15.3670 C.ar    5  U5          0.0000
    103  C6        -2.2590   -2.4240   16.0110 C.ar    5  U5          0.0000
    104  OP1        0.0110   -3.0780   21.4530 O.3     5  U5         -0.5000
    105  OP2       -0.0790   -1.2140   19.6550 O.co2   5  U5         -0.5000
    106  P          1.6530   -6.4080   17.5650 P.3     6  U6          0.0000
    107  C5'        2.4620   -6.1090   15.0060 C.3     6  U6          0.0000
    108  O5'        2.3970   -5.6560   16.3570 O.3     6  U6          0.0000
    109  C4'        3.6590   -5.4440   14.3010 C.3     6  U6          0.0000
    110  O4'        3.6650   -3.9940   14.3590 O.3     6  U6          0.0000
    111  C3'        5.0500   -5.8820   14.7770 C.3     6  U6          0.0000
    112  O3'        5.6730   -6.3480   13.5840 O.3     6  U6          0.0000
    113  C2'        5.8150   -4.5870   15.0540 C.3     6  U6          0.0000
    114  O2'        7.1770   -4.5750   14.6940 O.3     6  U6          0.0000
    115  C1'        5.0060   -3.5870   14.2250 C.3     6  U6          0.0000
    116  N1         5.1700   -2.1680   14.5480 N.ar    6  U6          0.0000
    117  C2         5.5820   -1.3150   13.5190 C.ar    6  U6          0.0000
    118  O2         5.7260   -1.6820   12.3420 O.2     6  U6          0.0000
    119  N3         5.8010   -0.0160   13.9120 N.ar    6  U6          0.0000
    120  C4         5.6340    0.4960   15.1950 C.ar    6  U6          0.0000
    121  O4         5.9150    1.6740   15.4210 O.2     6  U6          0.0000
    122  C5         5.1710   -0.4380   16.1610 C.ar    6  U6          0.0000
    123  C6         4.9550   -1.7000   15.8180 C.ar    6  U6          0.0000
    124  OP1        2.2130   -7.7770   17.8470 O.2     6  U6         -0.5000
    125  OP2        1.7310   -5.3730   18.6110 O.co2   6  U6         -0.5000
    126  P          6.1230   -7.8600   13.4150 P.3     7  U7          0.0000
    127  C5'        3.7900   -9.0880   13.0000 C.3     7  U7          0.0000
    128  O5'        4.8360   -8.6560   13.8950 O.3     7  U7          0.0000
    129  C4'        3.1180  -10.2970   13.6060 C.3     7  U7          0.0000
    130  O4'        4.1760  -11.2110   13.9000 O.3     7  U7          0.0000
    131  C3'        2.3580  -10.0110   14.9040 C.3     7  U7          0.0000
    132  O3'        1.0760  -10.6010   14.7430 O.3     7  U7          0.0000
    133  C2'        3.4780  -10.4670   15.7960 C.3     7  U7          0.0000
    134  O2'        2.7600  -10.3050   17.0170 O.3     7  U7          0.0000
    135  C1'        4.0180  -11.7180   15.1920 C.3     7  U7          0.0000
    136  N1         5.3290  -11.9110   15.8200 N.ar    7  U7          0.0000
    137  C2         5.4260  -12.9510   16.7210 C.ar    7  U7          0.0000
    138  O2         4.4560  -13.6220   17.0620 O.2     7  U7          0.0000
    139  N3         6.6870  -13.1790   17.2070 N.ar    7  U7          0.0000
    140  C4         7.8320  -12.4720   16.8990 C.ar    7  U7          0.0000
    141  O4         8.9200  -12.8950   17.2910 O.2     7  U7          0.0000
    142  C5         7.6340  -11.3710   15.9980 C.ar    7  U7          0.0000
    143  C6         6.4180  -11.1340   15.5040 C.ar    7  U7          0.0000
    144  OP1        7.2110   -8.0800   14.3950 O.3     7  U7         -0.5000
    145  OP2        6.4020   -7.9910   11.9640 O.co2   7  U7         -0.5000
    146  P         -0.2050   -9.7750   14.2740 P.3     8  C8          0.0000
    147  C5'       -0.6270  -11.3170   12.2290 C.3     8  C8          0.0000
    148  O5'       -0.2590  -10.0470   12.7240 O.3     8  C8          0.0000
    149  C4'       -1.0590  -11.1800   10.7990 C.3     8  C8          0.0000
    150  O4'       -2.2890  -10.3980   10.7680 O.3     8  C8          0.0000
    151  C3'       -0.1020  -10.3880    9.9150 C.3     8  C8          0.0000
    152  O3'        0.9980  -11.1820    9.4360 O.3     8  C8          0.0000
    153  C2'       -1.0400   -9.9380    8.8060 C.3     8  C8          0.0000
    154  O2'       -1.3740  -11.0090    7.9290 O.3     8  C8          0.0000
    155  C1'       -2.2880   -9.5630    9.6120 C.3     8  C8          0.0000
    156  N1        -2.2480   -8.1420   10.0260 N.ar    8  C8          0.0000
    157  C2        -2.4650   -7.1620    9.0440 C.ar    8  C8          0.0000
    158  O2        -2.7710   -7.5270    7.8920 O.2     8  C8          0.0000
    159  N3        -2.3180   -5.8590    9.3630 N.ar    8  C8          0.0000
    160  C4        -1.9690   -5.5080   10.5980 C.ar    8  C8          0.0000
    161  N4        -1.7730   -4.2110   10.8470 N.pl3   8  C8          0.0000
    162  C5        -1.7920   -6.4780   11.6380 C.ar    8  C8          0.0000
    163  C6        -1.9500   -7.7740   11.3100 C.ar    8  C8          0.0000
    164  OP1       -0.0230   -8.3080   14.4750 O.2     8  C8         -0.5000
    165  OP2       -1.3430  -10.4540   14.8800 O.co2   8  C8         -0.5000
    166  P          2.3940  -10.4690    9.0680 P.3     9  G9          0.0000
    167  C5'        1.8770  -10.5280    6.4820 C.3     9  G9          0.0000
    168  O5'        2.1850   -9.7720    7.6340 O.3     9  G9          0.0000
    169  C4'        1.4610   -9.6060    5.3490 C.3     9  G9          0.0000
    170  O4'        0.3140   -8.8240    5.7800 O.3     9  G9          0.0000
    171  C3'        2.4410   -8.5190    4.9240 C.3     9  G9          0.0000
    172  O3'        3.4940   -9.0020    4.0920 O.3     9  G9          0.0000
    173  C2'        1.5120   -7.6040    4.1440 C.3     9  G9          0.0000
    174  O2'        1.1430   -8.1920    2.9100 O.3     9  G9          0.0000
    175  C1'        0.2940   -7.5800    5.0660 C.3     9  G9          0.0000
    176  N1         0.3420   -2.5070    5.3960 N.ar    9  G9          0.0000
    177  C2         0.0900   -3.3290    4.3090 C.ar    9  G9          0.0000
    178  N2        -0.1260   -2.7240    3.1060 N.pl3   9  G9          0.0000
    179  N3         0.0560   -4.6600    4.3830 N.ar    9  G9          0.0000
    180  C4         0.3110   -5.1130    5.6270 C.ar    9  G9          0.0000
    181  C5         0.5890   -4.3980    6.7690 C.ar    9  G9          0.0000
    182  C6         0.6310   -2.9710    6.6950 C.ar    9  G9          0.0000
    183  O6         0.9080   -2.1600    7.5930 O.2     9  G9          0.0000
    184  N7         0.8140   -5.2620    7.8490 N.ar    9  G9          0.0000
    185  C8         0.6760   -6.4630    7.3390 C.ar    9  G9          0.0000
    186  N9         0.4040   -6.4500    5.9940 N.ar    9  G9          0.0000
    187  OP1        3.4170  -11.5220    8.9070 O.2     9  G9         -0.5000
    188  OP2        2.6490   -9.3410   10.0100 O.co2   9  G9         -0.5000
    189  P          4.9000   -8.2280    4.0420 P.3    10  G10         0.0000
    190  C5'        4.0530   -6.7320    2.0580 C.3    10  G10         0.0000
    191  O5'        4.5430   -6.8210    3.3820 O.3    10  G10         0.0000
    192  C4'        3.9500   -5.2800    1.6390 C.3    10  G10         0.0000
    193  O4'        2.9620   -4.5960    2.4540 O.3    10  G10         0.0000
    194  C3'        5.1970   -4.4330    1.8150 C.3    10  G10         0.0000
    195  O3'        6.0910   -4.6280    0.7210 O.3    10  G10         0.0000
    196  C2'        4.6030   -3.0300    1.7860 C.3    10  G10         0.0000
    197  O2'        4.1890   -2.6160    0.4990 O.3    10  G10         0.0000
    198  C1'        3.3260   -3.2340    2.5830 C.3    10  G10         0.0000
    199  N1         3.8800    0.5320    5.9220 N.ar   10  G10         0.0000
    200  C2         3.7480    0.5920    4.5420 C.ar   10  G10         0.0000
    201  N2         3.7570    1.8290    3.9760 N.pl3  10  G10         0.0000
    202  N3         3.6200   -0.4820    3.7720 N.ar   10  G10         0.0000
    203  C4         3.6540   -1.6350    4.4950 C.ar   10  G10         0.0000
    204  C5         3.7890   -1.7990    5.8530 C.ar   10  G10         0.0000
    205  C6         3.8940   -0.6590    6.6730 C.ar   10  G10         0.0000
    206  O6         3.9630   -0.6220    7.9120 O.2    10  G10         0.0000
    207  N7         3.7740   -3.1490    6.1960 N.ar   10  G10         0.0000
    208  C8         3.6270   -3.7680    5.0520 C.ar   10  G10         0.0000
    209  N9         3.5300   -2.9120    3.9860 N.ar   10  G10         0.0000
    210  OP1        5.7800   -8.9790    3.1130 O.2    10  G10        -0.5000
    211  OP2        5.3820   -7.9230    5.4020 O.co2  10  G10        -0.5000
    212  P          7.6630   -4.7470    0.9920 P.3    11  U11         0.0000
    213  C5'        8.0700   -2.3090    0.1710 C.3    11  U11         0.0000
    214  O5'        8.1520   -3.2490    1.2400 O.3    11  U11         0.0000
    215  C4'        8.1060   -0.9110    0.6940 C.3    11  U11         0.0000
    216  O4'        6.9570   -0.6920    1.5480 O.3    11  U11         0.0000
    217  C3'        9.2680   -0.5640    1.5860 C.3    11  U11         0.0000
    218  O3'       10.4410   -0.3800    0.8090 O.3    11  U11         0.0000
    219  C2'        8.7310    0.6850    2.2680 C.3    11  U11         0.0000
    220  O2'        8.7040    1.7940    1.3760 O.3    11  U11         0.0000
    221  C1'        7.2910    0.2530    2.5520 C.3    11  U11         0.0000
    222  N1         7.1690   -0.4080    3.8580 N.ar   11  U11         0.0000
    223  C2         7.1260    0.4020    4.9730 C.ar   11  U11         0.0000
    224  O2         7.1780    1.6100    4.9010 O.2    11  U11         0.0000
    225  N3         7.0460   -0.2630    6.1790 N.ar   11  U11         0.0000
    226  C4         7.0390   -1.6290    6.3610 C.ar   11  U11         0.0000
    227  O4         6.9200   -2.0790    7.4870 O.2    11  U11         0.0000
    228  C5         7.0990   -2.3970    5.1580 C.ar   11  U11         0.0000
    229  C6         7.1410   -1.7710    3.9710 C.ar   11  U11         0.0000
    230  OP1        8.2570   -5.1840   -0.3180 O.2    11  U11        -0.5000
    231  OP2        7.8750   -5.5770    2.2370 O.co2  11  U11        -0.5000
    232  P         11.8790   -0.7960    1.4210 P.3    12  A12         0.0000
    233  C5'       12.1790    1.7490    1.9510 C.3    12  A12         0.0000
    234  O5'       12.1890    0.4070    2.4090 O.3    12  A12         0.0000
    235  C4'       12.1770    2.7070    3.1280 C.3    12  A12         0.0000
    236  O4'       10.9380    2.5480    3.8570 O.3    12  A12         0.0000
    237  C3'       13.2440    2.4840    4.1870 C.3    12  A12         0.0000
    238  O3'       14.4800    3.0450    3.7800 O.3    12  A12         0.0000
    239  C2'       12.6280    3.1870    5.3920 C.3    12  A12         0.0000
    240  O2'       12.7030    4.6010    5.3280 O.3    12  A12         0.0000
    241  C1'       11.1600    2.7810    5.2460 C.3    12  A12         0.0000
    242  N1        10.0640    0.7650    9.8210 N.ar   12  A12         0.0000
    243  C2        10.4000    2.0100    9.4410 C.ar   12  A12         0.0000
    244  N3        10.6770    2.4660    8.2220 N.ar   12  A12         0.0000
    245  C4        10.5900    1.4720    7.3230 C.ar   12  A12         0.0000
    246  C5        10.2690    0.1490    7.5700 C.ar   12  A12         0.0000
    247  C6         9.9790   -0.2000    8.8850 C.ar   12  A12         0.0000
    248  N6         9.6040   -1.4290    9.2560 N.pl3  12  A12         0.0000
    249  N7        10.3010   -0.5930    6.4000 N.ar   12  A12         0.0000
    250  C8        10.6270    0.2870    5.4830 C.ar   12  A12         0.0000
    251  N9        10.8100    1.5580    5.9740 N.ar   12  A12         0.0000
    252  OP1       12.8730   -0.7440    0.3280 O.2    12  A12        -0.5000
    253  OP2       11.7360   -2.0610    2.2210 O.co2  12  A12        -0.5000
    254  P         15.8620    2.5070    4.4110 P.3    13  CBR13       0.0000
    255  C5'       16.0230    4.4290    6.1680 C.3    13  CBR13       0.0000
    256  O5'       15.8230    3.0670    5.8990 O.3    13  CBR13       0.0000
    257  C4'       15.9280    4.6830    7.6540 C.3    13  CBR13       0.0000
    258  O4'       14.6010    4.3540    8.1220 O.3    13  CBR13       0.0000
    259  C3'       16.8330    3.8410    8.5430 C.3    13  CBR13       0.0000
    260  O3'       18.1770    4.3180    8.5520 O.3    13  CBR13       0.0000
    261  C2'       16.1620    4.0240    9.8830 C.3    13  CBR13       0.0000
    262  C1'       14.6860    3.9310    9.4950 C.3    13  CBR13       0.0000
    263  N1        14.1950    2.5380    9.5860 N.ar   13  CBR13       0.0000
    264  C2        13.7680    2.0390   10.8450 C.ar   13  CBR13       0.0000
    265  O2        13.7980    2.7880   11.8350 O.2    13  CBR13       0.0000
    266  N3        13.3390    0.7480   10.9350 N.ar   13  CBR13       0.0000
    267  C4        13.3400   -0.0260    9.8470 C.ar   13  CBR13       0.0000
    268  N4        12.9440   -1.2990    9.9650 N.pl3  13  CBR13       0.0000
    269  C5        13.7540    0.4660    8.5820 C.ar   13  CBR13       0.0000
    270  C6        14.1640    1.7350    8.4900 C.ar   13  CBR13       0.0000
    271  OP1       16.9750    3.1700    3.6630 O.co2  13  CBR13      -0.5000
    272  OP2       15.8650    1.0340    4.5590 O.3    13  CBR13      -0.5000
    273 BR         13.7420   -0.6470    7.0770 Br     13  CBR13       0.0000
    274  P         19.3820    3.2850    8.7920 P.3    14  C14         0.0000
    275  C5'       19.2870    3.7990   11.3560 C.3    14  C14         0.0000
    276  O5'       19.1600    2.8440   10.3030 O.3    14  C14         0.0000
    277  C4'       19.0220    3.1460   12.6930 C.3    14  C14         0.0000
    278  O4'       17.6340    2.7400   12.7720 O.3    14  C14         0.0000
    279  C3'       19.7660    1.8610   13.0090 C.3    14  C14         0.0000
    280  O3'       21.1400    2.0710   13.3120 O.3    14  C14         0.0000
    281  C2'       18.9170    1.3100   14.1470 C.3    14  C14         0.0000
    282  O2'       19.1000    2.0540   15.3320 O.3    14  C14         0.0000
    283  C1'       17.5090    1.6130   13.6350 C.3    14  C14         0.0000
    284  N1        16.9420    0.4820   12.8710 N.ar   14  C14         0.0000
    285  C2        16.3670   -0.5990   13.5770 C.ar   14  C14         0.0000
    286  O2        16.3150   -0.5520   14.8130 O.2    14  C14         0.0000
    287  N3        15.9040   -1.6660   12.8810 N.ar   14  C14         0.0000
    288  C4        16.0290   -1.6930   11.5410 C.ar   14  C14         0.0000
    289  N4        15.6470   -2.7860   10.9010 N.pl3  14  C14         0.0000
    290  C5        16.5770   -0.5950   10.8070 C.ar   14  C14         0.0000
    291  C6        17.0040    0.4630   11.5050 C.ar   14  C14         0.0000
    292  OP1       20.6380    4.0780    8.7210 O.3    14  C14        -0.5000
    293  OP2       19.2340    2.0790    7.9480 O.co2  14  C14        -0.5000
    294  C5'       10.8860   -9.5650   18.1500 C.3    15  G15         0.0000
    295  O5'       10.6210   -9.3300   16.7580 O.3    15  G15         0.0000
    296  C4'       11.7600   -8.5320   18.8250 C.3    15  G15         0.0000
    297  O4'       13.1140   -8.6100   18.3120 O.3    15  G15         0.0000
    298  C3'       11.3580   -7.0780   18.6600 C.3    15  G15         0.0000
    299  O3'       10.3850   -6.7140   19.6270 O.3    15  G15         0.0000
    300  C2'       12.6820   -6.3590   18.8910 C.3    15  G15         0.0000
    301  O2'       13.0480   -6.2980   20.2590 O.3    15  G15         0.0000
    302  C1'       13.6500   -7.2940   18.1760 C.3    15  G15         0.0000
    303  N1        15.0210   -3.8600   14.6600 N.ar   15  G15         0.0000
    304  C2        15.1240   -3.7920   16.0310 C.ar   15  G15         0.0000
    305  N2        15.6770   -2.6630   16.5150 N.pl3  15  G15         0.0000
    306  N3        14.7230   -4.7500   16.8510 N.ar   15  G15         0.0000
    307  C4        14.2100   -5.8110   16.1850 C.ar   15  G15         0.0000
    308  C5        14.0600   -5.9780   14.8270 C.ar   15  G15         0.0000
    309  C6        14.4900   -4.9350   13.9530 C.ar   15  G15         0.0000
    310  O6        14.4470   -4.8920   12.7310 O.2    15  G15         0.0000
    311  N7        13.4830   -7.2130   14.5390 N.ar   15  G15         0.0000
    312  C8        13.3060   -7.7680   15.7080 C.ar   15  G15         0.0000
    313  N9        13.7210   -6.9750   16.7510 N.ar   15  G15         0.0000
    314  P          9.3450   -5.5320   19.3090 P.3    16  G16         0.0000
    315  C5'       10.6820   -3.6410   20.5660 C.3    16  G16         0.0000
    316  O5'       10.2240   -4.2080   19.3540 O.3    16  G16         0.0000
    317  C4'       11.3220   -2.3090   20.2740 C.3    16  G16         0.0000
    318  O4'       12.4820   -2.5280   19.4180 O.3    16  G16         0.0000
    319  C3'       10.4630   -1.3570   19.4490 C.3    16  G16         0.0000
    320  O3'        9.4820   -0.6720   20.2180 O.3    16  G16         0.0000
    321  C2'       11.5190   -0.4410   18.8590 C.3    16  G16         0.0000
    322  O2'       12.0070    0.4600   19.8340 O.3    16  G16         0.0000
    323  C1'       12.5960   -1.4570   18.4920 C.3    16  G16         0.0000
    324  N1        12.8590   -0.3050   13.5910 N.ar   16  G16         0.0000
    325  C2        13.2630    0.4200   14.6910 C.ar   16  G16         0.0000
    326  N2        13.7710    1.6420   14.4530 N.pl3  16  G16         0.0000
    327  N3        13.1760   -0.0260   15.9420 N.ar   16  G16         0.0000
    328  C4        12.6270   -1.2570   15.9990 C.ar   16  G16         0.0000
    329  C5        12.1930   -2.0560   14.9690 C.ar   16  G16         0.0000
    330  C6        12.3150   -1.5780   13.6310 C.ar   16  G16         0.0000
    331  O6        12.0210   -2.1510   12.5840 O.2    16  G16         0.0000
    332  N7        11.6890   -3.2630   15.4550 N.ar   16  G16         0.0000
    333  C8        11.8100   -3.1580   16.7540 C.ar   16  G16         0.0000
    334  N9        12.3630   -1.9580   17.1460 N.ar   16  G16         0.0000
    335  OP1        8.3240   -5.5340   20.3740 O.3    16  G16        -0.5000
    336  OP2        8.9160   -5.6920   17.8800 O.co2  16  G16        -0.5000
    337  P          8.0650   -0.2800   19.5340 P.3    17  U17         0.0000
    338  C5'        9.0680    2.0460   18.9110 C.3    17  U17         0.0000
    339  O5'        8.4900    0.8310   18.4740 O.3    17  U17         0.0000
    340  C4'        9.5870    2.8400   17.7360 C.3    17  U17         0.0000
    341  O4'       10.4430    2.0100   16.9160 O.3    17  U17         0.0000
    342  C3'        8.5960    3.4400   16.7490 C.3    17  U17         0.0000
    343  O3'        8.0910    4.6400   17.3230 O.3    17  U17         0.0000
    344  C2'        9.4970    3.7020   15.5470 C.3    17  U17         0.0000
    345  O2'       10.4070    4.7700   15.7650 O.3    17  U17         0.0000
    346  C1'       10.3820    2.4560   15.5690 C.3    17  U17         0.0000
    347  N1         9.9170    1.3550   14.7180 N.ar   17  U17         0.0000
    348  C2        10.0730    1.5330   13.3530 C.ar   17  U17         0.0000
    349  O2        10.5540    2.5390   12.8830 O.2    17  U17         0.0000
    350  N3         9.6610    0.4740   12.5800 N.ar   17  U17         0.0000
    351  C4         9.1570   -0.7290   13.0360 C.ar   17  U17         0.0000
    352  O4         8.9110   -1.6200   12.2310 O.2    17  U17         0.0000
    353  C5         9.0320   -0.8320   14.4670 C.ar   17  U17         0.0000
    354  C6         9.3860    0.1990   15.2310 C.ar   17  U17         0.0000
    355  OP1        7.2260    0.3140   20.5930 O.3    17  U17        -0.5000
    356  OP2        7.5400   -1.4270   18.7560 O.co2  17  U17        -0.5000
    357  P          6.6400    5.1910   16.9090 P.3    18  A18         0.0000
    358  C5'        7.5410    6.6830   14.9610 C.3    18  A18         0.0000
    359  O5'        6.8020    5.5490   15.3710 O.3    18  A18         0.0000
    360  C4'        7.5190    6.7830   13.4630 C.3    18  A18         0.0000
    361  O4'        8.2500    5.6790   12.8820 O.3    18  A18         0.0000
    362  C3'        6.1570    6.6570   12.8070 C.3    18  A18         0.0000
    363  O3'        5.4300    7.8810   12.9240 O.3    18  A18         0.0000
    364  C2'        6.5650    6.3750   11.3690 C.3    18  A18         0.0000
    365  O2'        7.0680    7.5430   10.7300 O.3    18  A18         0.0000
    366  C1'        7.7310    5.4130   11.5890 C.3    18  A18         0.0000
    367  N1         7.0590    1.4990    8.4250 N.ar   18  A18         0.0000
    368  C2         7.4100    2.7830    8.2410 C.ar   18  A18         0.0000
    369  N3         7.5280    3.7580    9.1330 N.ar   18  A18         0.0000
    370  C4         7.2520    3.3040   10.3650 C.ar   18  A18         0.0000
    371  C5         6.8800    2.0240   10.7210 C.ar   18  A18         0.0000
    372  C6         6.7790    1.0810    9.6860 C.ar   18  A18         0.0000
    373  N6         6.4270   -0.1850    9.8920 N.pl3  18  A18         0.0000
    374  N7         6.6870    1.9270   12.0900 N.ar   18  A18         0.0000
    375  C8         6.9490    3.1390   12.5290 C.ar   18  A18         0.0000
    376  N9         7.3160    4.0140   11.5310 N.ar   18  A18         0.0000
    377  OP1        6.5310    6.4420   17.7090 O.3    18  A18        -0.5000
    378  OP2        5.5550    4.2010   16.9860 O.co2  18  A18        -0.5000
    379  P          3.8500    7.8480   13.0860 P.3    19  U19         0.0000
    380  C5'        3.5020    8.2760   10.5210 C.3    19  U19         0.0000
    381  O5'        3.3470    7.4150   11.6380 O.3    19  U19         0.0000
    382  C4'        3.2320    7.5060    9.2560 C.3    19  U19         0.0000
    383  O4'        4.1720    6.4060    9.2080 O.3    19  U19         0.0000
    384  C3'        1.8770    6.8310    9.1520 C.3    19  U19         0.0000
    385  O3'        0.9030    7.7510    8.6590 O.3    19  U19         0.0000
    386  C2'        2.1580    5.7260    8.1270 C.3    19  U19         0.0000
    387  O2'        2.2360    6.1840    6.7910 O.3    19  U19         0.0000
    388  C1'        3.5870    5.3150    8.5050 C.3    19  U19         0.0000
    389  N1         3.6530    4.0890    9.3210 N.ar   19  U19         0.0000
    390  C2         3.7000    2.9010    8.6290 C.ar   19  U19         0.0000
    391  O2         3.7370    2.8670    7.4150 O.2    19  U19         0.0000
    392  N3         3.7040    1.7620    9.4110 N.ar   19  U19         0.0000
    393  C4         3.6570    1.7090   10.7990 C.ar   19  U19         0.0000
    394  O4         3.6080    0.6120   11.3720 O.2    19  U19         0.0000
    395  C5         3.6370    2.9920   11.4440 C.ar   19  U19         0.0000
    396  C6         3.6420    4.1100   10.6990 C.ar   19  U19         0.0000
    397  OP1        3.3640    9.2410   13.3260 O.2    19  U19        -0.5000
    398  OP2        3.4070    6.7680   14.0090 O.co2  19  U19        -0.5000
    399  P         -0.3510    8.1570    9.5630 P.3    20  U20         0.0000
    400  C5'       -1.7450    5.9540    8.9710 C.3    20  U20         0.0000
    401  O5'       -1.1020    6.7980    9.9410 O.3    20  U20         0.0000
    402  C4'       -3.0360    5.4340    9.5590 C.3    20  U20         0.0000
    403  O4'       -2.7730    4.7830   10.8150 O.3    20  U20         0.0000
    404  C3'       -4.0380    6.5480    9.8620 C.3    20  U20         0.0000
    405  O3'       -5.2090    6.2220    9.1050 O.3    20  U20         0.0000
    406  C2'       -4.3790    6.3920   11.3490 C.3    20  U20         0.0000
    407  O2'       -5.7140    6.5790   11.7670 O.3    20  U20         0.0000
    408  C1'       -3.8880    4.9690   11.6240 C.3    20  U20         0.0000
    409  N1        -3.5780    4.5630   12.9940 N.ar   20  U20         0.0000
    410  C2        -4.1590    3.3880   13.4500 C.ar   20  U20         0.0000
    411  O2        -4.8290    2.6460   12.7450 O.2    20  U20         0.0000
    412  N3        -3.9100    3.0930   14.7600 N.ar   20  U20         0.0000
    413  C4        -3.1470    3.8230   15.6450 C.ar   20  U20         0.0000
    414  O4        -3.1870    3.5310   16.8510 O.2    20  U20         0.0000
    415  C5        -2.5330    4.9870   15.0810 C.ar   20  U20         0.0000
    416  C6        -2.7650    5.3110   13.8070 C.ar   20  U20         0.0000
    417  OP1       -1.2680    9.0120    8.7500 O.2    20  U20        -0.5000
    418  OP2        0.1930    8.7210   10.8630 O.co2  20  U20        -0.5000
    419  P         -5.9020    7.3120    8.1720 P.3    21  U21         0.0000
    420  C5'       -4.4020    6.6600    6.0640 C.3    21  U21         0.0000
    421  O5'       -4.7910    7.6100    7.0800 O.3    21  U21         0.0000
    422  C4'       -3.7680    7.4360    4.9390 C.3    21  U21         0.0000
    423  O4'       -4.7570    8.3770    4.4920 O.3    21  U21         0.0000
    424  C3'       -2.5580    8.2160    5.4450 C.3    21  U21         0.0000
    425  O3'       -1.5230    8.1200    4.4860 O.3    21  U21         0.0000
    426  C2'       -3.0140    9.6820    5.4630 C.3    21  U21         0.0000
    427  O2'       -1.9960   10.5890    5.1280 O.3    21  U21         0.0000
    428  C1'       -4.2660    9.6860    4.5890 C.3    21  U21         0.0000
    429  N1        -5.3210   10.5460    5.1430 N.ar   21  U21         0.0000
    430  C2        -5.9060   11.4750    4.2910 C.ar   21  U21         0.0000
    431  O2        -5.5870   11.5970    3.1090 O.2    21  U21         0.0000
    432  N3        -6.8800   12.2560    4.8730 N.ar   21  U21         0.0000
    433  C4        -7.3140   12.2070    6.1980 C.ar   21  U21         0.0000
    434  O4        -8.1720   13.0080    6.5920 O.2    21  U21         0.0000
    435  C5        -6.6580   11.2170    7.0070 C.ar   21  U21         0.0000
    436  C6        -5.7110   10.4410    6.4660 C.ar   21  U21         0.0000
    437  OP1       -6.0120    8.5690    8.9620 O.3    21  U21        -0.5000
    438  OP2       -7.1210    6.6780    7.6220 O.co2  21  U21        -0.5000
    439  P         -0.4370    6.9430    4.5030 P.3    22  C22         0.0000
    440  C5'       -1.0960    5.8990    2.1770 C.3    22  C22         0.0000
    441  O5'       -1.1220    5.8140    3.6010 O.3    22  C22         0.0000
    442  C4'       -1.1910    4.5180    1.5690 C.3    22  C22         0.0000
    443  O4'        0.0720    3.8190    1.7680 O.3    22  C22         0.0000
    444  C3'       -2.2120    3.6000    2.2060 C.3    22  C22         0.0000
    445  O3'       -3.5270    3.8540    1.7450 O.3    22  C22         0.0000
    446  C2'       -1.6910    2.2330    1.7990 C.3    22  C22         0.0000
    447  O2'       -1.9480    1.9340    0.4210 O.3    22  C22         0.0000
    448  C1'       -0.1830    2.4430    1.9880 C.3    22  C22         0.0000
    449  N1         0.1990    2.0620    3.3720 N.ar   22  C22         0.0000
    450  C2         0.2540    0.6960    3.6650 C.ar   22  C22         0.0000
    451  O2         0.0680   -0.1220    2.7390 O.2    22  C22         0.0000
    452  N3         0.5050    0.2970    4.9380 N.ar   22  C22         0.0000
    453  C4         0.7120    1.2080    5.8970 C.ar   22  C22         0.0000
    454  N4         0.9100    0.7610    7.1700 N.pl3  22  C22         0.0000
    455  C5         0.7160    2.6120    5.6190 C.ar   22  C22         0.0000
    456  C6         0.4580    2.9940    4.3450 C.ar   22  C22         0.0000
    457  OP1       -0.3330    6.3470    5.8800 O.3    22  C22        -0.5000
    458  OP2        0.7500    7.4560    3.8200 O.co2  22  C22        -0.5000
    459  P         -4.7770    3.6460    2.7200 P.3    23  G23         0.0000
    460  C5'       -5.2540    1.3780    1.5170 C.3    23  G23         0.0000
    461  O5'       -5.0330    2.0780    2.7300 O.3    23  G23         0.0000
    462  C4'       -5.1200   -0.1050    1.7460 C.3    23  G23         0.0000
    463  O4'       -3.7600   -0.3980    2.1550 O.3    23  G23         0.0000
    464  C3'       -5.9340   -0.7480    2.8600 C.3    23  G23         0.0000
    465  O3'       -7.3010   -0.9220    2.5030 O.3    23  G23         0.0000
    466  C2'       -5.2070   -2.0790    2.9820 C.3    23  G23         0.0000
    467  O2'       -5.4610   -2.9430    1.8940 O.3    23  G23         0.0000
    468  C1'       -3.7540   -1.6130    2.9080 C.3    23  G23         0.0000
    469  N1        -2.6270   -3.9390    7.1750 N.ar   23  G23         0.0000
    470  C2        -2.9470   -4.4550    5.9480 C.ar   23  G23         0.0000
    471  N2        -2.9920   -5.8030    5.8380 N.pl3  23  G23         0.0000
    472  N3        -3.1910   -3.7100    4.8950 N.ar   23  G23         0.0000
    473  C4        -3.0600   -2.3990    5.1670 C.ar   23  G23         0.0000
    474  C5        -2.7260   -1.7850    6.3520 C.ar   23  G23         0.0000
    475  C6        -2.4880   -2.5840    7.4740 C.ar   23  G23         0.0000
    476  O6        -2.2010   -2.2330    8.6080 O.2    23  G23         0.0000
    477  N7        -2.7110   -0.4070    6.2060 N.ar   23  G23         0.0000
    478  C8        -3.0330   -0.2150    4.9470 C.ar   23  G23         0.0000
    479  N9        -3.2840   -1.3800    4.2720 N.ar   23  G23         0.0000
    480  OP1       -5.9540    4.3120    2.0960 O.2    23  G23        -0.5000
    481  OP2       -4.3780    4.0460    4.1120 O.co2  23  G23        -0.5000
    482  P         -8.4530   -0.9920    3.6400 P.3    24  G24         0.0000
    483  C5'       -8.2730   -3.5930    3.5990 C.3    24  G24         0.0000
    484  O5'       -8.1970   -2.3870    4.3400 O.3    24  G24         0.0000
    485  C4'       -7.9790   -4.7680    4.4890 C.3    24  G24         0.0000
    486  O4'       -6.6370   -4.6610    5.0140 O.3    24  G24         0.0000
    487  C3'       -8.8260   -4.8690    5.7380 C.3    24  G24         0.0000
    488  O3'      -10.0990   -5.3980    5.4180 O.3    24  G24         0.0000
    489  C2'       -7.9920   -5.8210    6.5800 C.3    24  G24         0.0000
    490  O2'       -8.0740   -7.1450    6.0760 O.3    24  G24         0.0000
    491  C1'       -6.5840   -5.2870    6.2990 C.3    24  G24         0.0000
    492  N1        -5.0560   -4.4910   11.0550 N.ar   24  G24         0.0000
    493  C2        -5.4380   -5.6610   10.4390 C.ar   24  G24         0.0000
    494  N2        -5.3900   -6.7820   11.1990 N.pl3  24  G24         0.0000
    495  N3        -5.8280   -5.7410    9.1820 N.ar   24  G24         0.0000
    496  C4        -5.8040   -4.5430    8.5790 C.ar   24  G24         0.0000
    497  C5        -5.4360   -3.3170    9.1030 C.ar   24  G24         0.0000
    498  C6        -5.0060   -3.2450   10.4330 C.ar   24  G24         0.0000
    499  O6        -4.5940   -2.2600   11.0460 O.2    24  G24         0.0000
    500  N7        -5.5510   -2.3190    8.1550 N.ar   24  G24         0.0000
    501  C8        -5.9760   -2.9430    7.0820 C.ar   24  G24         0.0000
    502  N9        -6.1490   -4.2940    7.2740 N.ar   24  G24         0.0000
    503  OP1       -9.7480   -1.0290    2.8870 O.2    24  G24        -0.5000
    504  OP2       -8.2470    0.0640    4.7100 O.co2  24  G24        -0.5000
    505  P        -11.3880   -4.8870    6.2070 P.3    25  U25         0.0000
    506  C5'      -11.0850   -6.8470    7.8990 C.3    25  U25         0.0000
    507  O5'      -11.1830   -5.4570    7.6770 O.3    25  U25         0.0000
    508  C4'      -10.6510   -7.1120    9.3200 C.3    25  U25         0.0000
    509  O4'       -9.2910   -6.6310    9.5220 O.3    25  U25         0.0000
    510  C3'      -11.4470   -6.3770   10.3890 C.3    25  U25         0.0000
    511  O3'      -12.6430   -7.0750   10.6770 O.3    25  U25         0.0000
    512  C2'      -10.4870   -6.4500   11.5590 C.3    25  U25         0.0000
    513  O2'      -10.4580   -7.7550   12.1120 O.3    25  U25         0.0000
    514  C1'       -9.1570   -6.1720   10.8540 C.3    25  U25         0.0000
    515  N1        -8.8160   -4.7410   10.8400 N.ar   25  U25         0.0000
    516  C2        -8.2250   -4.2430   11.9810 C.ar   25  U25         0.0000
    517  O2        -8.0130   -4.9500   12.9540 O.2    25  U25         0.0000
    518  N3        -7.9020   -2.8960   11.9460 N.ar   25  U25         0.0000
    519  C4        -8.1180   -2.0250   10.8980 C.ar   25  U25         0.0000
    520  O4        -7.6680   -0.8650   10.9670 O.2    25  U25         0.0000
    521  C5        -8.7650   -2.6180    9.7470 C.ar   25  U25         0.0000
    522  C6        -9.0740   -3.9200    9.7540 C.ar   25  U25         0.0000
    523  OP1      -12.5330   -5.6500    5.6450 O.2    25  U25        -0.5000
    524  OP2      -11.4650   -3.4070    6.3010 O.co2  25  U25        -0.5000
    525  P        -13.9580   -6.2650   11.1300 P.3    26  A26         0.0000
    526  C5'      -13.5150   -6.5610   13.6990 C.3    26  A26         0.0000
    527  O5'      -13.6100   -5.7060   12.5820 O.3    26  A26         0.0000
    528  C4'      -12.8490   -5.8520   14.8590 C.3    26  A26         0.0000
    529  O4'      -11.5520   -5.3480   14.4420 O.3    26  A26         0.0000
    530  C3'      -13.5140   -4.6120   15.4450 C.3    26  A26         0.0000
    531  O3'      -14.5990   -4.9750   16.2910 O.3    26  A26         0.0000
    532  C2'      -12.3510   -4.0400   16.2440 C.3    26  A26         0.0000
    533  O2'      -12.0770   -4.8370   17.3700 O.3    26  A26         0.0000
    534  C1'      -11.1940   -4.2510   15.2690 C.3    26  A26         0.0000
    535  N1        -9.0440    0.3740   15.3360 N.ar   26  A26         0.0000
    536  C2        -9.2070   -0.5650   16.2610 C.ar   26  A26         0.0000
    537  N3        -9.8000   -1.7600   16.1610 N.ar   26  A26         0.0000
    538  C4       -10.2770   -1.9490   14.9210 C.ar   26  A26         0.0000
    539  C5       -10.2010   -1.0770   13.8610 C.ar   26  A26         0.0000
    540  C6        -9.5310    0.1560   14.0940 C.ar   26  A26         0.0000
    541  N6        -9.3490    1.1060   13.1760 N.pl3  26  A26         0.0000
    542  N7       -10.8200   -1.6210   12.7360 N.ar   26  A26         0.0000
    543  C8       -11.2330   -2.8020   13.1420 C.ar   26  A26         0.0000
    544  N9       -10.9320   -3.0700   14.4500 N.ar   26  A26         0.0000
    545  OP1      -15.0210   -7.2730   11.1280 O.3    26  A26        -0.5000
    546  OP2      -14.1300   -5.0420   10.3100 O.co2  26  A26        -0.5000
    547  P        -15.7370   -3.9040   16.6690 P.3    27  CBR27       0.0000
    548  C5'      -14.6320   -3.6220   19.0420 C.3    27  CBR27       0.0000
    549  O5'      -15.0700   -3.0200   17.8200 O.3    27  CBR27       0.0000
    550  C4'      -13.8940   -2.6110   19.8920 C.3    27  CBR27       0.0000
    551  O4'      -12.6910   -2.2090   19.2070 O.3    27  CBR27       0.0000
    552  C3'      -14.6360   -1.3030   20.1370 C.3    27  CBR27       0.0000
    553  O3'      -15.5600   -1.4270   21.2200 O.3    27  CBR27       0.0000
    554  C2'      -13.5000   -0.3570   20.4740 C.3    27  CBR27       0.0000
    555  C1'      -12.3960   -0.8280   19.5160 C.3    27  CBR27       0.0000
    556  N1       -12.3590   -0.0530   18.2490 N.ar   27  CBR27       0.0000
    557  C2       -11.6990    1.1790   18.2280 C.ar   27  CBR27       0.0000
    558  O2       -11.1830    1.5760   19.2510 O.2    27  CBR27       0.0000
    559  N3       -11.6440    1.9020   17.0850 N.ar   27  CBR27       0.0000
    560  C4       -12.2190    1.4180   15.9880 C.ar   27  CBR27       0.0000
    561  N4       -12.1130    2.1190   14.8610 N.pl3  27  CBR27       0.0000
    562  C5       -12.9170    0.1810   15.9970 C.ar   27  CBR27       0.0000
    563  C6       -12.9610   -0.5170   17.1210 C.ar   27  CBR27       0.0000
    564  OP1      -16.7890   -4.7020   17.3490 O.co2  27  CBR27      -0.5000
    565  OP2      -16.1200   -2.9850   15.5930 O.3    27  CBR27      -0.5000
    566 BR        -13.7730   -0.4430   14.4410 Br     27  CBR27       0.0000
    567  P        -16.9390   -0.6220   21.1720 P.3    28  C28         0.0000
    568  C5'      -15.9720    1.3740   22.5880 C.3    28  C28         0.0000
    569  O5'      -16.4950    0.9010   21.3500 O.3    28  C28         0.0000
    570  C4'      -15.4560    2.7830   22.4230 C.3    28  C28         0.0000
    571  O4'      -14.4170    2.7940   21.4220 O.3    28  C28         0.0000
    572  C3'      -16.4460    3.8000   21.8780 C.3    28  C28         0.0000
    573  O3'      -17.3570    4.2660   22.8930 O.3    28  C28         0.0000
    574  C2'      -15.5020    4.8970   21.4030 C.3    28  C28         0.0000
    575  O2'      -15.0070    5.6030   22.5130 O.3    28  C28         0.0000
    576  C1'      -14.3470    4.0800   20.8210 C.3    28  C28         0.0000
    577  N1       -14.4100    3.9460   19.3490 N.ar   28  C28         0.0000
    578  C2       -13.8720    4.9840   18.5640 C.ar   28  C28         0.0000
    579  O2       -13.3270    5.9790   19.1340 O.2    28  C28         0.0000
    580  N3       -13.9600    4.9060   17.2170 N.ar   28  C28         0.0000
    581  C4       -14.5760    3.8670   16.6520 C.ar   28  C28         0.0000
    582  N4       -14.6890    3.8690   15.3250 N.pl3  28  C28         0.0000
    583  C5       -15.1180    2.7870   17.4210 C.ar   28  C28         0.0000
    584  C6       -15.0040    2.8630   18.7590 C.ar   28  C28         0.0000
    585  OP1      -17.7100   -1.0170   22.3860 O.3    28  C28        -0.5000
    586  OP2      -17.5870   -0.7110   19.8270 O.co2  28  C28        -0.5000
    587 MG          9.8710   -5.7060   11.4810 Mg     97  MG97        0.0000
    588  O          8.2680   -3.2260   16.7610 O.3    30  HOH30       0.0000
    589  O          3.6370    4.5440    4.7080 O.3    31  HOH31       0.0000
    590  O        -11.6790   10.8170   19.3880 O.3    34  HOH34       0.0000
    591  O        -12.2390    7.3050   10.3710 O.3    35  HOH35       0.0000
    592  O          3.3310    3.2840    1.4880 O.3    36  HOH36       0.0000
    593  O          7.9340    4.0420    2.2170 O.3    38  HOH38       0.0000
    594  O        -10.6970   12.8920   18.0320 O.3    39  HOH39       0.0000
    595  O         -0.1840   -3.7200   13.2560 O.3    40  HOH40       0.0000
    596  O         14.4760    5.0280   12.8380 O.3    43  HOH43       0.0000
    597  O        -10.3040    7.3230   21.0900 O.3    44  HOH44       0.0000
    598  O          1.5450   -2.0710   14.7530 O.3    48  HOH48       0.0000
    599  O         -3.9260  -10.1630   13.8450 O.3    50  HOH50       0.0000
    600  O         -7.9240    7.4060   22.5610 O.3    53  HOH53       0.0000
    601  O         -8.0690   15.0580   15.6410 O.3    54  HOH54       0.0000
    602  O         -8.8830    7.7290   12.5920 O.3    56  HOH56       0.0000
    603  O         -6.4820   -4.3610   18.4980 O.3    57  HOH57       0.0000
    604  O         -1.3260   -3.6540    0.5400 O.3    58  HOH58       0.0000
    605  O          8.4780   -7.9150   16.5500 O.3    62  HOH62       0.0000
    606  O         -9.7100    7.0900   10.2730 O.3    63  HOH63       0.0000
    607  O         -6.7680    4.3480   23.4790 O.3    64  HOH64       0.0000
    608  O         11.4680    5.1270    7.6800 O.3    65  HOH65       0.0000
    609  O         10.4310   -3.1820    6.3160 O.3    66  HOH66       0.0000
    610  O        -10.5220    5.1170   12.4100 O.3    67  HOH67       0.0000
    611  O         16.2910   -2.9930    8.2420 O.3    69  HOH69       0.0000
    612  O          1.6750    3.4430   18.7490 O.3    70  HOH70       0.0000
    613  O         -5.5130    7.7590   14.3280 O.3    71  HOH71       0.0000
    614  O          6.5350    4.2080    4.8810 O.3    72  HOH72       0.0000
    615  O         12.5190   -3.8440    8.4820 O.3    73  HOH73       0.0000
    616  O         -8.6020    0.1360   20.1330 O.3    74  HOH74       0.0000
    617  O         19.9590    3.9040    4.4620 O.3    78  HOH78       0.0000
    618  O         -0.7900    1.7580   13.8870 O.3    79  HOH79       0.0000
    619  O         -8.2310   11.7790   21.5070 O.3    80  HOH80       0.0000
    620  O        -10.5070   10.7040   21.7660 O.3    84  HOH84       0.0000
    621  O          2.9740   -0.2750    0.7000 O.3    86  HOH86       0.0000
    622  O          2.5090    1.8130   16.8400 O.3    88  HOH88       0.0000
    623  O          8.1860   -4.1250   12.3540 O.3    92  HOH92       0.0000
    624  O          8.2660   -6.3890   10.7260 O.3    93  HOH93       0.0000
    625  O          9.9670   -6.9260   13.2990 O.3    96  HOH96       0.0000
    626  O         -6.8830   -6.7140   14.6940 O.3    29  HOH29       0.0000
    627  O          2.5470    5.7790    2.5680 O.3    32  HOH32       0.0000
    628  O          0.4870    2.9090    9.1610 O.3    33  HOH33       0.0000
    629  O         12.7110   -8.4850   12.5240 O.3    37  HOH37       0.0000
    630  O        -11.6860   -2.7520    1.7470 O.3    41  HOH41       0.0000
    631  O         -4.4490   -7.3590   13.8930 O.3    42  HOH42       0.0000
    632  O        -13.0350    2.1190   12.0280 O.3    45  HOH45       0.0000
    633  O          2.3330    0.4420   13.8680 O.3    46  HOH46       0.0000
    634  O        -13.2660    7.9810   21.2560 O.3    47  HOH47       0.0000
    635  O         -5.6980    4.5730   -0.7550 O.3    49  HOH49       0.0000
    636  O        -16.7880   -0.1020   16.7890 O.3    51  HOH51       0.0000
    637  O          3.8820    4.1610   14.6490 O.3    52  HOH52       0.0000
    638  O         -9.9280    1.5890    1.4770 O.3    55  HOH55       0.0000
    639  O         -6.2460    0.3050    6.5940 O.3    59  HOH59       0.0000
    640  O        -14.8730   -6.5300    6.7480 O.3    60  HOH60       0.0000
    641  O        -16.2800    1.8770   14.0460 O.3    61  HOH61       0.0000
    642  O         -7.5350    4.7040   11.7100 O.3    68  HOH68       0.0000
    643  O         15.7950   -2.6410   19.3280 O.3    75  HOH75       0.0000
    644  O         -7.2780    9.8230   10.8140 O.3    76  HOH76       0.0000
    645  O         14.8230   -4.5600   20.9610 O.3    77  HOH77       0.0000
    646  O         15.1610   -6.5810   10.8910 O.3    81  HOH81       0.0000
    647  O          4.7260    2.2530   18.5210 O.3    82  HOH82       0.0000
    648  O         15.1640    0.9240   17.8850 O.3    83  HOH83       0.0000
    649  O         10.5290    6.4830   17.9990 O.3    85  HOH85       0.0000
    650  O        -17.1640   -7.8410    9.6600 O.3    87  HOH87       0.0000
    651  O         -9.7370   -0.9830    6.9310 O.3    89  HOH89       0.0000
    652  O         -8.8340    3.7670    2.8970 O.3    90  HOH90       0.0000
    653  O          4.9040    6.9780    1.6430 O.3    91  HOH91       0.0000
    654  O         11.4470   -6.9360   10.9890 O.3    94  HOH94       0.0000
    655  O         11.2770   -4.5550   12.1730 O.3    95  HOH95       0.0000
@<TRIPOS>BOND
     1   238   254    1
     2   254   256    1
     3   254   271    2
     4   254   272    1
     5   255   257    1
     6   255   256    1
     7   257   258    1
     8   257   259    1
     9   258   262    1
    10   259   260    1
    11   259   261    1
    12   260   274    1
    13   261   262    1
    14   262   263    1
    15   263   264   ar
    16   263   270   ar
    17   264   265    2
    18   264   266   ar
    19   266   267   ar
    20   267   268    1
    21   267   269   ar
    22   269   270   ar
    23   269   273    1
    24   531   547    1
    25   547   549    1
    26   547   564    2
    27   547   565    1
    28   548   550    1
    29   548   549    1
    30   550   551    1
    31   550   552    1
    32   551   555    1
    33   552   553    1
    34   552   554    1
    35   553   567    1
    36   554   555    1
    37   555   556    1
    38   556   557   ar
    39   556   563   ar
    40   557   558    2
    41   557   559   ar
    42   559   560   ar
    43   560   561    1
    44   560   562   ar
    45   562   563   ar
    46   562   566    1
    47   587   623    1
    48   587   624    1
    49   587   625    1
    50   587   654    1
    51   587   655    1
    52   230   212    2
    53   213   215    1
    54   213   214    1
    55   252   232    2
    56   447   446    1
    57   197   196    1
    58   215   216    1
    59   215   217    1
    60   195   212    1
    61   195   194    1
    62   218   232    1
    63   218   217    1
    64   212   214    1
    65   212   231    1
    66   220   219    1
    67   232   253    1
    68   232   234    1
    69   460   462    1
    70   460   461    1
    71   216   221    1
    72   442   443    1
    73   442   440    1
    74   442   444    1
    75   217   219    1
    76   192   194    1
    77   192   190    1
    78   192   193    1
    79   445   444    1
    80   445   459    1
    81   462   463    1
    82   462   464    1
    83   443   448    1
    84   196   194    1
    85   196   198    1
    86   446   448    1
    87   446   444    1
    88   467   466    1
    89   233   234    1
    90   233   235    1
    91   448   449    1
    92   190   191    1
    93   480   459    2
    94   463   468    1
    95   440   441    1
    96   219   221    1
    97   193   198    1
    98   465   464    1
    99   465   482    1
   100   221   222    1
   101   198   209    1
   102   459   461    1
   103   459   481    1
   104   451   450    2
   105   464   466    1
   106   503   482    2
   107   468   466    1
   108   468   479    1
   109   174   173    1
   110   178   177    1
   111   431   430    2
   112   210   189    2
   113   235   236    1
   114   235   237    1
   115   449   450   ar
   116   449   456   ar
   117   191   189    1
   118   483   484    1
   119   483   485    1
   120   441   439    1
   121   482   484    1
   122   482   504    1
   123   450   452   ar
   124   202   203   ar
   125   202   200   ar
   126   238   237    1
   127   458   439    2
   128   236   241    1
   129   222   229   ar
   130   222   223   ar
   131   229   228   ar
   132   201   200    1
   133   209   203   ar
   134   209   208   ar
   135   189   172    1
   136   189   211    1
   137   172   171    1
   138   173   171    1
   139   173   175    1
   140   237   239    1
   141   479   478   ar
   142   479   473   ar
   143   430   432   ar
   144   430   429   ar
   145   177   179   ar
   146   177   176   ar
   147   456   455   ar
   148   179   180   ar
   149   425   439    1
   150   425   424    1
   151   485   486    1
   152   485   487    1
   153   423   428    1
   154   423   422    1
   155   203   204   ar
   156   439   457    1
   157   200   199   ar
   158   428   429    1
   159   428   426    1
   160   432   433   ar
   161   472   473   ar
   162   472   470   ar
   163   224   223    2
   164   171   169    1
   165   452   453   ar
   166   422   424    1
   167   422   420    1
   168   478   477   ar
   169   223   225   ar
   170   486   491    1
   171   208   207   ar
   172   175   170    1
   173   175   186    1
   174   427   426    1
   175   429   436   ar
   176   228   226   ar
   177   473   474   ar
   178   241   239    1
   179   241   251    1
   180   240   239    1
   181   169   170    1
   182   169   167    1
   183   176   182   ar
   184   488   487    1
   185   488   505    1
   186   424   426    1
   187   250   251   ar
   188   250   249   ar
   189   455   453   ar
   190   180   186   ar
   191   180   181   ar
   192   523   505    2
   193   487   489    1
   194   471   470    1
   195   204   207   ar
   196   204   205   ar
   197   453   454    1
   198   199   205   ar
   199   470   469   ar
   200   251   245   ar
   201   186   185   ar
   202   420   421    1
   203   490   489    1
   204   225   226   ar
   205   433   434    2
   206   433   435   ar
   207   477   474   ar
   208   505   524    1
   209   505   507    1
   210   491   489    1
   211   491   502    1
   212   474   475   ar
   213   226   227    2
   214   249   246   ar
   215   436   435   ar
   216   167   168    1
   217   205   206    2
   218   182   181   ar
   219   182   183    2
   220   181   184   ar
   221   387   386    1
   222   421   419    1
   223   501   502   ar
   224   501   500   ar
   225   469   475   ar
   226   502   496   ar
   227   245   246   ar
   228   245   244   ar
   229   185   184   ar
   230   391   390    2
   231   475   476    2
   232   246   247   ar
   233   438   419    2
   234   168   166    1
   235   507   506    1
   236   158   157    2
   237   506   508    1
   238   154   153    1
   239   293   274    2
   240   386   388    1
   241   386   384    1
   242   500   497   ar
   243   419   437    1
   244   419   405    1
   245   244   243   ar
   246   368   367   ar
   247   368   369   ar
   248   367   372   ar
   249   388   383    1
   250   388   389    1
   251   496   497   ar
   252   496   495   ar
   253   390   389   ar
   254   390   392   ar
   255   385   384    1
   256   385   399    1
   257   292   274    1
   258   417   399    2
   259   274   276    1
   260   153   155    1
   261   153   151    1
   262   247   248    1
   263   247   242   ar
   264   187   166    2
   265   400   402    1
   266   400   401    1
   267   157   159   ar
   268   157   156   ar
   269   166   152    1
   270   166   188    1
   271   497   498   ar
   272   405   404    1
   273   369   370   ar
   274   384   382    1
   275   495   493   ar
   276   383   382    1
   277   382   380    1
   278   508   509    1
   279   508   510    1
   280   389   396   ar
   281   159   160   ar
   282   392   393   ar
   283   152   151    1
   284   243   242   ar
   285   509   514    1
   286   402   404    1
   287   402   403    1
   288   399   401    1
   289   399   418    1
   290   155   156    1
   291   155   150    1
   292   372   373    1
   293   372   371   ar
   294   521   522   ar
   295   521   519   ar
   296   522   515   ar
   297   404   406    1
   298   151   149    1
   299   156   163   ar
   300   276   275    1
   301   546   525    2
   302   370   371   ar
   303   370   376   ar
   304   510   511    1
   305   510   512    1
   306   498   499    2
   307   498   492   ar
   308   493   492   ar
   309   493   494    1
   310   380   381    1
   311   160   161    1
   312   160   162   ar
   313     2     1    1
   314   511   525    1
   315   396   395   ar
   316   371   374   ar
   317   365   364    1
   318   150   149    1
   319   149   147    1
   320   393   394    2
   321   393   395   ar
   322   290   291   ar
   323   290   288   ar
   324   403   408    1
   325   515   514    1
   326   515   516   ar
   327   514   512    1
   328   519   520    2
   329   519   518   ar
   330   289   288    1
   331   545   525    1
   332   525   527    1
   333     1     3    1
   334   163   162   ar
   335   406   408    1
   336   406   407    1
   337   275   277    1
   338   364   366    1
   339   364   362    1
   340   291   284   ar
   341   376   366    1
   342   376   375   ar
   343   288   287   ar
   344   512   513    1
   345   366   361    1
   346   408   409    1
   347   381   379    1
   348   518   516   ar
   349   145   126    2
   350   516   517    2
   351   374   375   ar
   352   147   148    1
   353   352   351    2
   354   118   117    2
   355    19    18   ar
   356    19    20   ar
   357    18    15   ar
   358   350   351   ar
   359   350   348   ar
   360   527   526    1
   361   331   330    2
   362     3     4    1
   363     3     5    1
   364   277   278    1
   365   277   279    1
   366   148   146    1
   367   310   309    2
   368   542   543   ar
   369   542   539   ar
   370   411   410    2
   371   278   283    1
   372   362   363    1
   373   362   360    1
   374   284   285   ar
   375   284   283    1
   376   287   285   ar
   377   361   360    1
   378   349   348    2
   379   363   379    1
   380     4     9    1
   381   409   410   ar
   382   409   416   ar
   383   127   129    1
   384   127   128    1
   385   279   280    1
   386   279   281    1
   387   351   353   ar
   388   379   397    2
   389   379   398    1
   390   543   544   ar
   391   541   540    1
   392    43    21    2
   393    80    79    1
   394   101   100    2
   395   348   347   ar
   396   126   112    1
   397   126   128    1
   398   126   144    1
   399   410   412   ar
   400   360   358    1
   401   117   119   ar
   402   117   116   ar
   403    99   100   ar
   404    99    97   ar
   405     5     6    1
   406     5     7    1
   407   285   286    2
   408   112   111    1
   409   324   330   ar
   410   324   325   ar
   411   129   130    1
   412   129   131    1
   413    98    97    2
   414   330   329   ar
   415   283   281    1
   416   526   528    1
   417    20     9    1
   418    20    14   ar
   419   416   415   ar
   420   539   540   ar
   421   539   538   ar
   422    15    16   ar
   423    15    14   ar
   424   130   135    1
   425     6    21    1
   426   119   120   ar
   427   309   303   ar
   428   309   308   ar
   429    17    16    2
   430   100   102   ar
   431   540   535   ar
   432    59    58    2
   433     9     7    1
   434   281   282    1
   435    21    42    1
   436    21    23    1
   437    97    96   ar
   438   115   110    1
   439   115   116    1
   440   115   113    1
   441    74    79   ar
   442    74    75   ar
   443   146   164    2
   444   146   132    1
   445   146   165    1
   446   109   110    1
   447   109   111    1
   448   109   107    1
   449    79    78   ar
   450   529   528    1
   451   529   534    1
   452   544   538   ar
   453   544   534    1
   454   326   325    1
   455   353   354   ar
   456    16    10   ar
   457   311   308   ar
   458   311   312   ar
   459   116   123   ar
   460   303   304   ar
   461    14    13   ar
   462   325   327   ar
   463   114   113    1
   464   347   354   ar
   465   347   346    1
   466   132   131    1
   467   412   413   ar
   468   111   113    1
   469     7     8    1
   470   308   307   ar
   471   528   530    1
   472   131   133    1
   473   538   537   ar
   474    38    37    2
   475   358   359    1
   476   329   332   ar
   477   329   328   ar
   478   107   108    1
   479   415   413   ar
   480   135   133    1
   481   135   136    1
   482   120   121    2
   483   120   122   ar
   484    39    40   ar
   485    39    36   ar
   486   534   532    1
   487    58    60   ar
   488    58    57   ar
   489   582   581    1
   490   535   536   ar
   491   102   103   ar
   492   359   357    1
   493    75    76   ar
   494    96   103   ar
   495    96    95    1
   496   530   532    1
   497   530   531    1
   498   332   333   ar
   499   143   136   ar
   500   143   142   ar
   501   344   346    1
   502   344   345    1
   503   344   342    1
   504   346   341    1
   505    78    81   ar
   506    78    77   ar
   507    23    22    1
   508    94    93    1
   509   413   414    2
   510   312   313   ar
   511    93    95    1
   512    93    91    1
   513    60    61   ar
   514   133   134    1
   515   123   122   ar
   516   136   137   ar
   517    10    11   ar
   518   327   328   ar
   519    40    41   ar
   520    81    82   ar
   521   142   140   ar
   522   328   334   ar
   523    13    11   ar
   524    37    36   ar
   525    37    31   ar
   526   304   305    1
   527   304   306   ar
   528    95    90    1
   529   537   536   ar
   530   307   313   ar
   531   307   306   ar
   532    36    35   ar
   533    57    55   ar
   534   532   533    1
   535   108   106    1
   536    63    44    2
   537    11    12    1
   538    76    77   ar
   539    77    83   ar
   540   581   580   ar
   541   581   583   ar
   542   137   138    2
   543   137   139   ar
   544   342   343    1
   545   342   340    1
   546   313   302    1
   547   333   334   ar
   548   295   294    1
   549    22    24    1
   550   140   139   ar
   551   140   141    2
   552   357   378    2
   553   357   343    1
   554   357   377    1
   555   341   340    1
   556    91    92    1
   557    91    89    1
   558    61    54   ar
   559   334   323    1
   560    92   106    1
   561   580   578   ar
   562    31    32   ar
   563    82    83   ar
   564    41    35   ar
   565    41    30    1
   566   583   584   ar
   567    35    34   ar
   568    90    89    1
   569   106   124    2
   570   106   125    1
   571    55    54   ar
   572    55    56    2
   573    83    73    1
   574   340   338    1
   575    25    24    1
   576    25    30    1
   577   336   314    2
   578    24    26    1
   579    54    53    1
   580    44    27    1
   581    44    46    1
   582    44    62    1
   583    26    27    1
   584    26    28    1
   585    89    87    1
   586   294   296    1
   587   302   297    1
   588   302   300    1
   589   297   296    1
   590    30    28    1
   591   339   338    1
   592   339   337    1
   593    32    34   ar
   594    32    33    1
   595   323   321    1
   596   323   318    1
   597   578   579    2
   598   578   577   ar
   599   298   296    1
   600   298   300    1
   601   298   299    1
   602    46    45    1
   603   356   337    2
   604   584   577   ar
   605   321   319    1
   606   321   322    1
   607   300   301    1
   608    28    29    1
   609    73    71    1
   610    73    68    1
   611    88    87    1
   612    88    86    1
   613    85    64    2
   614   314   316    1
   615   314   299    1
   616   314   335    1
   617   577   576    1
   618   316   315    1
   619    71    69    1
   620    71    72    1
   621   318   317    1
   622    53    48    1
   623    53    51    1
   624   319   320    1
   625   319   317    1
   626   337   320    1
   627   337   355    1
   628   105    86    2
   629    48    47    1
   630   586   567    2
   631    49    51    1
   632    49    47    1
   633    49    50    1
   634    51    52    1
   635    68    67    1
   636    69    70    1
   637    69    67    1
   638    45    47    1
   639   317   315    1
   640    66    64    1
   641    66    65    1
   642    86    70    1
   643    86   104    1
   644    64    50    1
   645    64    84    1
   646   576   574    1
   647   576   571    1
   648    67    65    1
   649   567   569    1
   650   567   585    1
   651   569   568    1
   652   574   572    1
   653   574   575    1
   654   571   570    1
   655   572   570    1
   656   572   573    1
   657   570   568    1
