ligand
  PyMOL2.2          3D                             0

 13 12  0  0  0  0  0  0  0  0999 V2000
   30.7570   33.6880   47.0230 O   0  0  0  0  0  0  0  0  0  0  0  0
   30.5840   36.6560   46.1790 O   0  0  0  0  0  0  0  0  0  0  0  0
   34.1140   31.3750   44.9850 P   0  0  0  0  0  0  0  0  0  0  0  0
   35.6020   31.4180   44.8880 O   0  5  0  0  0  0  0  0  0  0  0  0
   33.2970   31.9750   43.8990 O   0  0  0  0  0  0  0  0  0  0  0  0
   33.6700   32.0610   46.3450 O   0  0  0  0  0  0  0  0  0  0  0  0
   27.8190   37.0900   48.4060 O   0  0  0  0  0  0  0  0  0  0  0  0
   32.3560   31.8540   46.8830 C   0  0  0  0  0  0  0  0  0  0  0  0
   30.1500   35.4920   45.4300 C   0  0  0  0  0  0  0  0  0  0  0  0
   28.7620   37.6260   47.4890 C   0  0  0  0  0  0  0  0  0  0  0  0
   31.9060   33.1010   47.6630 C   0  0  0  0  0  0  0  0  0  0  0  0
   31.0410   34.2580   45.7150 C   0  0  0  0  0  0  0  0  0  0  0  0
   30.0090   36.7240   47.5050 C   0  0  0  0  0  0  0  0  0  0  0  0
  1 12  1  0  0  0  0
  2 13  1  0  0  0  0
  3  4  1  0  0  0  0
  3  5  2  0  0  0  0
  3  6  1  0  0  0  0
  6  8  1  0  0  0  0
  8 11  1  0  0  0  0
  2  9  1  0  0  0  0
  9 12  1  0  0  0  0
  7 10  1  0  0  0  0
 10 13  1  0  0  0  0
  1 11  1  0  0  0  0
M  END
$$$$
