ligand
 OpenBabel11021811453D
libRbt.so/2013.1/901 2013/11/27
 13 12  0  0  0  0  0  0  0  0999 V2000
   30.2379   33.7902   45.9051 O   0  0  0  0  0  0  0  0  0  0  0  0
   28.9526   36.3107   45.6307 O   0  0  0  0  0  0  0  0  0  0  0  0
   33.7377   33.1745   46.4058 P   0  0  2  0  0  0  0  0  0  0  0  0
   33.2529   33.1610   44.9950 O   0  5  0  0  0  0  0  0  0  0  0  0
   34.5743   32.0499   46.8978 O   0  0  0  0  0  0  0  0  0  0  0  0
   32.4873   33.2932   47.3752 O   0  0  0  0  0  0  0  0  0  0  0  0
   29.3563   38.6995   47.1121 O   0  0  0  0  0  0  0  0  0  0  0  0
   31.4617   32.2898   47.3853 C   0  0  0  0  0  0  0  0  0  0  0  0
   29.1564   35.4883   44.4533 C   0  0  0  0  0  0  0  0  0  0  0  0
   29.8784   37.4634   47.5778 C   0  0  0  0  0  0  0  0  0  0  0  0
   30.5959   32.4118   46.1197 C   0  0  0  0  0  0  0  0  0  0  0  0
   29.2957   33.9889   44.8145 C   0  0  0  0  0  0  0  0  0  0  0  0
   30.1769   36.5799   46.3533 C   0  0  0  0  0  0  0  0  0  0  0  0
  1 12  1  0  0  0  0
  1 11  1  0  0  0  0
  2 13  1  0  0  0  0
  2  9  1  0  0  0  0
  3  4  1  6  0  0  0
  3  5  2  0  0  0  0
  3  6  1  0  0  0  0
  6  8  1  0  0  0  0
  7 10  1  0  0  0  0
  8 11  1  0  0  0  0
  9 12  1  0  0  0  0
 10 13  1  0  0  0  0
M  CHG  1   4  -1
M  END
>  <CHROM.1>
-169.10978488,179.57369004,60.61080243,-73.48622625,-46.57547210,79.30871940
-48.17773321,-62.10935854,-173.54698913,31.25738919,34.40982535,46.25147908
2.43308006,-0.46381397,0.42886335

>  <Name>
ligand

>  <RI>
0

>  <Rbt.Current_Directory>
/home/itssahil/PROJECTS/Mol_Feturizer/New_Systems/rnas/2NPY

>  <Rbt.Executable>
rbdock ($Id: //depot/dev/client3/rdock/2013.1/src/exe/rbdock.cxx#4 $)

>  <Rbt.Library>
libRbt.so (2013.1, Build901 2013/11/27)

>  <Rbt.Parameter_File>
/export/apps/rDock/src/rDock_2013.1_src/data/scripts/dock_solv.prm

>  <Rbt.Receptor>
prm/pocket_docking_2.prm

>  <SCORE>
0.577

>  <SCORE.INTER>
10.4292

>  <SCORE.INTER.CONST>
1

>  <SCORE.INTER.POLAR>
0

>  <SCORE.INTER.ROT>
9

>  <SCORE.INTER.SOLV>
8.66903

>  <SCORE.INTER.VDW>
-5.5369

>  <SCORE.INTER.norm>
0.802244

>  <SCORE.INTRA>
-9.85217

>  <SCORE.INTRA.DIHEDRAL>
-21.125

>  <SCORE.INTRA.DIHEDRAL.0>
25.6828

>  <SCORE.INTRA.POLAR>
0

>  <SCORE.INTRA.POLAR.0>
0

>  <SCORE.INTRA.REPUL>
0

>  <SCORE.INTRA.REPUL.0>
0

>  <SCORE.INTRA.SOLV>
2.6564

>  <SCORE.INTRA.SOLV.lig_0>
-48.5059

>  <SCORE.INTRA.VDW>
-0.617877

>  <SCORE.INTRA.VDW.0>
-0.363643

>  <SCORE.INTRA.norm>
-0.757859

>  <SCORE.RESTR>
0

>  <SCORE.RESTR.CAVITY>
0

>  <SCORE.RESTR.norm>
0

>  <SCORE.SYSTEM>
0

>  <SCORE.SYSTEM.CONST>
0

>  <SCORE.SYSTEM.DIHEDRAL>
0

>  <SCORE.SYSTEM.SOLV>
0

>  <SCORE.SYSTEM.norm>
0

>  <SCORE.heavy>
13

>  <SCORE.norm>
0.0443846

>  <RMSD>
2.041

$$$$
ligand
 OpenBabel11021811453D
libRbt.so/2013.1/901 2013/11/27
 13 12  0  0  0  0  0  0  0  0999 V2000
   29.8445   33.9013   46.2014 O   0  0  0  0  0  0  0  0  0  0  0  0
   30.1818   36.7814   45.4883 O   0  0  0  0  0  0  0  0  0  0  0  0
   33.1544   33.3089   46.0210 P   0  0  2  0  0  0  0  0  0  0  0  0
   32.9717   32.3632   44.8819 O   0  5  0  0  0  0  0  0  0  0  0  0
   34.5101   33.4988   46.5981 O   0  0  0  0  0  0  0  0  0  0  0  0
   32.1927   32.8744   47.2058 O   0  0  0  0  0  0  0  0  0  0  0  0
   30.0960   38.5684   47.6714 O   0  0  0  0  0  0  0  0  0  0  0  0
   31.1051   31.9661   46.9800 C   0  0  0  0  0  0  0  0  0  0  0  0
   28.9128   36.0791   45.4602 C   0  0  0  0  0  0  0  0  0  0  0  0
   30.2034   37.1710   47.9017 C   0  0  0  0  0  0  0  0  0  0  0  0
   30.1661   32.5301   45.9001 C   0  0  0  0  0  0  0  0  0  0  0  0
   29.0944   34.5727   45.1512 C   0  0  0  0  0  0  0  0  0  0  0  0
   30.9345   36.5443   46.7010 C   0  0  0  0  0  0  0  0  0  0  0  0
  1 12  1  0  0  0  0
  1 11  1  0  0  0  0
  2 13  1  0  0  0  0
  2  9  1  0  0  0  0
  3  4  1  6  0  0  0
  3  5  2  0  0  0  0
  3  6  1  0  0  0  0
  6  8  1  0  0  0  0
  7 10  1  0  0  0  0
  8 11  1  0  0  0  0
  9 12  1  0  0  0  0
 10 13  1  0  0  0  0
M  CHG  1   4  -1
M  END
>  <CHROM.1>
-173.76854618,-67.10261909,-15.85289234,-57.70669812,-48.87402816,-76.51576003
64.08422162,-60.38441526,172.82337639,31.23282083,34.52389516,46.29731904
2.18465536,-0.24053142,0.29458929

>  <Name>
ligand

>  <RI>
0

>  <Rbt.Current_Directory>
/home/itssahil/PROJECTS/Mol_Feturizer/New_Systems/rnas/2NPY

>  <Rbt.Executable>
rbdock ($Id: //depot/dev/client3/rdock/2013.1/src/exe/rbdock.cxx#4 $)

>  <Rbt.Library>
libRbt.so (2013.1, Build901 2013/11/27)

>  <Rbt.Parameter_File>
/export/apps/rDock/src/rDock_2013.1_src/data/scripts/dock_solv.prm

>  <Rbt.Receptor>
prm/pocket_docking_2.prm

>  <SCORE>
1.61267

>  <SCORE.INTER>
10.0266

>  <SCORE.INTER.CONST>
1

>  <SCORE.INTER.POLAR>
0

>  <SCORE.INTER.ROT>
9

>  <SCORE.INTER.SOLV>
6.87168

>  <SCORE.INTER.VDW>
-5.20614

>  <SCORE.INTER.norm>
0.771279

>  <SCORE.INTRA>
-8.43885

>  <SCORE.INTRA.DIHEDRAL>
-22.0387

>  <SCORE.INTRA.DIHEDRAL.0>
25.6828

>  <SCORE.INTRA.POLAR>
0

>  <SCORE.INTRA.POLAR.0>
0

>  <SCORE.INTRA.REPUL>
0

>  <SCORE.INTRA.REPUL.0>
0

>  <SCORE.INTRA.SOLV>
3.31783

>  <SCORE.INTRA.SOLV.lig_0>
-48.5059

>  <SCORE.INTRA.VDW>
0.92158

>  <SCORE.INTRA.VDW.0>
-0.363643

>  <SCORE.INTRA.norm>
-0.649143

>  <SCORE.RESTR>
0.0248924

>  <SCORE.RESTR.CAVITY>
0.0248924

>  <SCORE.RESTR.norm>
0.0019148

>  <SCORE.SYSTEM>
0

>  <SCORE.SYSTEM.CONST>
0

>  <SCORE.SYSTEM.DIHEDRAL>
0

>  <SCORE.SYSTEM.SOLV>
0

>  <SCORE.SYSTEM.norm>
0

>  <SCORE.heavy>
13

>  <SCORE.norm>
0.124051

>  <RMSD>
2.084

$$$$
ligand
 OpenBabel11021811453D
libRbt.so/2013.1/901 2013/11/27
 13 12  0  0  0  0  0  0  0  0999 V2000
   29.0808   34.0022   44.8775 O   0  0  0  0  0  0  0  0  0  0  0  0
   29.4616   36.7476   45.8791 O   0  0  0  0  0  0  0  0  0  0  0  0
   33.1533   32.7683   46.0916 P   0  0  2  0  0  0  0  0  0  0  0  0
   33.9993   33.5134   47.0686 O   0  5  0  0  0  0  0  0  0  0  0  0
   33.6545   32.5563   44.7093 O   0  0  0  0  0  0  0  0  0  0  0  0
   31.7453   33.4909   45.9786 O   0  0  0  0  0  0  0  0  0  0  0  0
   30.0367   38.5064   48.0418 O   0  0  0  0  0  0  0  0  0  0  0  0
   30.5482   32.8554   46.4496 C   0  0  0  0  0  0  0  0  0  0  0  0
   29.5096   36.4125   44.4685 C   0  0  0  0  0  0  0  0  0  0  0  0
   30.6366   37.2209   47.9700 C   0  0  0  0  0  0  0  0  0  0  0  0
   29.3489   33.8032   46.2785 C   0  0  0  0  0  0  0  0  0  0  0  0
   29.9761   34.9540   44.2380 C   0  0  0  0  0  0  0  0  0  0  0  0
   30.7723   36.8400   46.4850 C   0  0  0  0  0  0  0  0  0  0  0  0
  1 12  1  0  0  0  0
  1 11  1  0  0  0  0
  2 13  1  0  0  0  0
  2  9  1  0  0  0  0
  3  4  1  1  0  0  0
  3  5  2  0  0  0  0
  3  6  1  0  0  0  0
  6  8  1  0  0  0  0
  7 10  1  0  0  0  0
  8 11  1  0  0  0  0
  9 12  1  0  0  0  0
 10 13  1  0  0  0  0
M  CHG  1   4  -1
M  END
>  <CHROM.1>
-82.85329007,179.04184576,-112.71159543,177.28506346,67.34558655,69.68739038
59.94929215,-62.76941696,-78.99459597,31.11977782,34.72152968,46.04814945
2.31804099,-0.49296939,0.57916348

>  <Name>
ligand

>  <RI>
0

>  <Rbt.Current_Directory>
/home/itssahil/PROJECTS/Mol_Feturizer/New_Systems/rnas/2NPY

>  <Rbt.Executable>
rbdock ($Id: //depot/dev/client3/rdock/2013.1/src/exe/rbdock.cxx#4 $)

>  <Rbt.Library>
libRbt.so (2013.1, Build901 2013/11/27)

>  <Rbt.Parameter_File>
/export/apps/rDock/src/rDock_2013.1_src/data/scripts/dock_solv.prm

>  <Rbt.Receptor>
prm/pocket_docking_2.prm

>  <SCORE>
1.53317

>  <SCORE.INTER>
11.3709

>  <SCORE.INTER.CONST>
1

>  <SCORE.INTER.POLAR>
0

>  <SCORE.INTER.ROT>
9

>  <SCORE.INTER.SOLV>
7.13149

>  <SCORE.INTER.VDW>
-4.39653

>  <SCORE.INTER.norm>
0.874688

>  <SCORE.INTRA>
-9.86302

>  <SCORE.INTRA.DIHEDRAL>
-19.4696

>  <SCORE.INTRA.DIHEDRAL.0>
25.6828

>  <SCORE.INTRA.POLAR>
0

>  <SCORE.INTRA.POLAR.0>
0

>  <SCORE.INTRA.REPUL>
0

>  <SCORE.INTRA.REPUL.0>
0

>  <SCORE.INTRA.SOLV>
-0.269173

>  <SCORE.INTRA.SOLV.lig_0>
-48.5059

>  <SCORE.INTRA.VDW>
0.00638118

>  <SCORE.INTRA.VDW.0>
-0.363643

>  <SCORE.INTRA.norm>
-0.758694

>  <SCORE.RESTR>
0.025242

>  <SCORE.RESTR.CAVITY>
0.025242

>  <SCORE.RESTR.norm>
0.00194169

>  <SCORE.SYSTEM>
0

>  <SCORE.SYSTEM.CONST>
0

>  <SCORE.SYSTEM.DIHEDRAL>
0

>  <SCORE.SYSTEM.SOLV>
0

>  <SCORE.SYSTEM.norm>
0

>  <SCORE.heavy>
13

>  <SCORE.norm>
0.117936

>  <RMSD>
2.213

$$$$
ligand
 OpenBabel11021811453D
libRbt.so/2013.1/901 2013/11/27
 13 12  0  0  0  0  0  0  0  0999 V2000
   29.6332   34.2565   46.2633 O   0  0  0  0  0  0  0  0  0  0  0  0
   30.3215   37.0059   45.5378 O   0  0  0  0  0  0  0  0  0  0  0  0
   33.2399   32.3123   47.5756 P   0  0  2  0  0  0  0  0  0  0  0  0
   32.9802   32.6597   49.0029 O   0  5  0  0  0  0  0  0  0  0  0  0
   34.4490   32.8542   46.9039 O   0  0  0  0  0  0  0  0  0  0  0  0
   31.9836   32.7431   46.7076 O   0  0  0  0  0  0  0  0  0  0  0  0
   29.2001   37.8323   48.0516 O   0  0  0  0  0  0  0  0  0  0  0  0
   30.6901   32.1682   46.9428 C   0  0  0  0  0  0  0  0  0  0  0  0
   28.9513   36.5298   45.5369 C   0  0  0  0  0  0  0  0  0  0  0  0
   30.5877   37.9558   47.7747 C   0  0  0  0  0  0  0  0  0  0  0  0
   29.6459   32.8351   46.0313 C   0  0  0  0  0  0  0  0  0  0  0  0
   28.8708   35.0055   45.2763 C   0  0  0  0  0  0  0  0  0  0  0  0
   30.9846   36.8234   46.8108 C   0  0  0  0  0  0  0  0  0  0  0  0
  1 12  1  0  0  0  0
  1 11  1  0  0  0  0
  2 13  1  0  0  0  0
  2  9  1  0  0  0  0
  3  4  1  1  0  0  0
  3  5  2  0  0  0  0
  3  6  1  0  0  0  0
  6  8  1  0  0  0  0
  7 10  1  0  0  0  0
  8 11  1  0  0  0  0
  9 12  1  0  0  0  0
 10 13  1  0  0  0  0
M  CHG  1   4  -1
M  END
>  <CHROM.1>
-177.18761477,-81.02559475,-61.54030968,176.03654296,-57.40095915,-83.39428768
57.63515368,65.51293911,168.75587301,31.10663349,34.49259096,46.87885572
2.33026186,-0.53765806,0.24886960

>  <Name>
ligand

>  <RI>
0

>  <Rbt.Current_Directory>
/home/itssahil/PROJECTS/Mol_Feturizer/New_Systems/rnas/2NPY

>  <Rbt.Executable>
rbdock ($Id: //depot/dev/client3/rdock/2013.1/src/exe/rbdock.cxx#4 $)

>  <Rbt.Library>
libRbt.so (2013.1, Build901 2013/11/27)

>  <Rbt.Parameter_File>
/export/apps/rDock/src/rDock_2013.1_src/data/scripts/dock_solv.prm

>  <Rbt.Receptor>
prm/pocket_docking_2.prm

>  <SCORE>
-0.12916

>  <SCORE.INTER>
10.3962

>  <SCORE.INTER.CONST>
1

>  <SCORE.INTER.POLAR>
0

>  <SCORE.INTER.ROT>
9

>  <SCORE.INTER.SOLV>
10.2739

>  <SCORE.INTER.VDW>
-6.09386

>  <SCORE.INTER.norm>
0.799706

>  <SCORE.INTRA>
-10.5475

>  <SCORE.INTRA.DIHEDRAL>
-20.3734

>  <SCORE.INTRA.DIHEDRAL.0>
25.6828

>  <SCORE.INTRA.POLAR>
0

>  <SCORE.INTRA.POLAR.0>
0

>  <SCORE.INTRA.REPUL>
0

>  <SCORE.INTRA.REPUL.0>
0

>  <SCORE.INTRA.SOLV>
-0.481566

>  <SCORE.INTRA.SOLV.lig_0>
-48.5059

>  <SCORE.INTRA.VDW>
-0.119974

>  <SCORE.INTRA.VDW.0>
-0.363643

>  <SCORE.INTRA.norm>
-0.811343

>  <SCORE.RESTR>
0.0221244

>  <SCORE.RESTR.CAVITY>
0.0221244

>  <SCORE.RESTR.norm>
0.00170188

>  <SCORE.SYSTEM>
0

>  <SCORE.SYSTEM.CONST>
0

>  <SCORE.SYSTEM.DIHEDRAL>
0

>  <SCORE.SYSTEM.SOLV>
0

>  <SCORE.SYSTEM.norm>
0

>  <SCORE.heavy>
13

>  <SCORE.norm>
-0.00993536

>  <RMSD>
2.438

$$$$
ligand
 OpenBabel11021811453D
libRbt.so/2013.1/901 2013/11/27
 13 12  0  0  0  0  0  0  0  0999 V2000
   30.9906   34.3247   47.0599 O   0  0  0  0  0  0  0  0  0  0  0  0
   31.2115   37.1544   46.4647 O   0  0  0  0  0  0  0  0  0  0  0  0
   33.3275   32.4710   46.8950 P   0  0  2  0  0  0  0  0  0  0  0  0
   33.1331   33.2194   48.1708 O   0  5  0  0  0  0  0  0  0  0  0  0
   33.5920   33.2252   45.6427 O   0  0  0  0  0  0  0  0  0  0  0  0
   32.0549   31.5590   46.6380 O   0  0  0  0  0  0  0  0  0  0  0  0
   29.5381   35.9132   44.5589 O   0  0  0  0  0  0  0  0  0  0  0  0
   30.8583   32.1042   46.0639 C   0  0  0  0  0  0  0  0  0  0  0  0
   31.2351   36.6708   47.8321 C   0  0  0  0  0  0  0  0  0  0  0  0
   28.9692   36.5940   45.6681 C   0  0  0  0  0  0  0  0  0  0  0  0
   30.2194   33.1085   47.0381 C   0  0  0  0  0  0  0  0  0  0  0  0
   30.4795   35.3275   47.9816 C   0  0  0  0  0  0  0  0  0  0  0  0
   29.9345   37.7182   46.0843 C   0  0  0  0  0  0  0  0  0  0  0  0
  1 12  1  0  0  0  0
  1 11  1  0  0  0  0
  2 13  1  0  0  0  0
  2  9  1  0  0  0  0
  3  4  1  1  0  0  0
  3  5  2  0  0  0  0
  3  6  1  0  0  0  0
  6  8  1  0  0  0  0
  7 10  1  0  0  0  0
  8 11  1  0  0  0  0
  9 12  1  0  0  0  0
 10 13  1  0  0  0  0
M  CHG  1   4  -1
M  END
>  <CHROM.1>
-172.76853538,-82.58132731,81.26222344,-66.55486498,73.76992428,75.53999673
54.82060572,-60.48639262,-178.59210492,31.39804927,34.38128157,46.63353529
2.26035134,-0.59632775,0.28264258

>  <Name>
ligand

>  <RI>
0

>  <Rbt.Current_Directory>
/home/itssahil/PROJECTS/Mol_Feturizer/New_Systems/rnas/2NPY

>  <Rbt.Executable>
rbdock ($Id: //depot/dev/client3/rdock/2013.1/src/exe/rbdock.cxx#4 $)

>  <Rbt.Library>
libRbt.so (2013.1, Build901 2013/11/27)

>  <Rbt.Parameter_File>
/export/apps/rDock/src/rDock_2013.1_src/data/scripts/dock_solv.prm

>  <Rbt.Receptor>
prm/pocket_docking_2.prm

>  <SCORE>
2.46816

>  <SCORE.INTER>
9.87651

>  <SCORE.INTER.CONST>
1

>  <SCORE.INTER.POLAR>
0

>  <SCORE.INTER.ROT>
9

>  <SCORE.INTER.SOLV>
7.40649

>  <SCORE.INTER.VDW>
-5.48449

>  <SCORE.INTER.norm>
0.759732

>  <SCORE.INTRA>
-7.40835

>  <SCORE.INTRA.DIHEDRAL>
-20.7692

>  <SCORE.INTRA.DIHEDRAL.0>
25.6828

>  <SCORE.INTRA.POLAR>
0

>  <SCORE.INTRA.POLAR.0>
0

>  <SCORE.INTRA.REPUL>
0

>  <SCORE.INTRA.REPUL.0>
0

>  <SCORE.INTRA.SOLV>
5.99975

>  <SCORE.INTRA.SOLV.lig_0>
-48.5059

>  <SCORE.INTRA.VDW>
-0.023616

>  <SCORE.INTRA.VDW.0>
-0.363643

>  <SCORE.INTRA.norm>
-0.569873

>  <SCORE.RESTR>
0

>  <SCORE.RESTR.CAVITY>
0

>  <SCORE.RESTR.norm>
0

>  <SCORE.SYSTEM>
0

>  <SCORE.SYSTEM.CONST>
0

>  <SCORE.SYSTEM.DIHEDRAL>
0

>  <SCORE.SYSTEM.SOLV>
0

>  <SCORE.SYSTEM.norm>
0

>  <SCORE.heavy>
13

>  <SCORE.norm>
0.189858

>  <RMSD>
2.513

$$$$
ligand
 OpenBabel11021811453D
libRbt.so/2013.1/901 2013/11/27
 13 12  0  0  0  0  0  0  0  0999 V2000
   31.3411   34.3157   44.6169 O   0  0  0  0  0  0  0  0  0  0  0  0
   30.3711   36.7956   45.5363 O   0  0  0  0  0  0  0  0  0  0  0  0
   32.8229   33.1392   47.4633 P   0  0  2  0  0  0  0  0  0  0  0  0
   34.0779   33.5130   46.7487 O   0  5  0  0  0  0  0  0  0  0  0  0
   32.8877   32.7670   48.9000 O   0  0  0  0  0  0  0  0  0  0  0  0
   32.1351   31.9346   46.6932 O   0  0  0  0  0  0  0  0  0  0  0  0
   30.0937   38.5479   47.8030 O   0  0  0  0  0  0  0  0  0  0  0  0
   31.0877   32.1678   45.7405 C   0  0  0  0  0  0  0  0  0  0  0  0
   29.6826   36.1530   44.4330 C   0  0  0  0  0  0  0  0  0  0  0  0
   30.5484   37.2092   47.9392 C   0  0  0  0  0  0  0  0  0  0  0  0
   31.6481   32.9121   44.5166 C   0  0  0  0  0  0  0  0  0  0  0  0
   29.9353   34.6255   44.4070 C   0  0  0  0  0  0  0  0  0  0  0  0
   29.8904   36.3667   46.8318 C   0  0  0  0  0  0  0  0  0  0  0  0
  1 12  1  0  0  0  0
  1 11  1  0  0  0  0
  2 13  1  0  0  0  0
  2  9  1  0  0  0  0
  3  4  1  6  0  0  0
  3  5  2  0  0  0  0
  3  6  1  0  0  0  0
  6  8  1  0  0  0  0
  7 10  1  0  0  0  0
  8 11  1  0  0  0  0
  9 12  1  0  0  0  0
 10 13  1  0  0  0  0
M  CHG  1   4  -1
M  END
>  <CHROM.1>
-176.20652226,-173.33911626,-96.30431400,66.99560686,-99.91220995,-64.38515247
-45.07527759,65.95196011,-71.67375671,31.42614376,34.52831481,46.39876186
2.59201517,-0.94147651,0.80233409

>  <Name>
ligand

>  <RI>
0

>  <Rbt.Current_Directory>
/home/itssahil/PROJECTS/Mol_Feturizer/New_Systems/rnas/2NPY

>  <Rbt.Executable>
rbdock ($Id: //depot/dev/client3/rdock/2013.1/src/exe/rbdock.cxx#4 $)

>  <Rbt.Library>
libRbt.so (2013.1, Build901 2013/11/27)

>  <Rbt.Parameter_File>
/export/apps/rDock/src/rDock_2013.1_src/data/scripts/dock_solv.prm

>  <Rbt.Receptor>
prm/pocket_docking_2.prm

>  <SCORE>
1.62394

>  <SCORE.INTER>
9.35373

>  <SCORE.INTER.CONST>
1

>  <SCORE.INTER.POLAR>
0

>  <SCORE.INTER.ROT>
9

>  <SCORE.INTER.SOLV>
4.85537

>  <SCORE.INTER.VDW>
-4.98264

>  <SCORE.INTER.norm>
0.719518

>  <SCORE.INTRA>
-7.73126

>  <SCORE.INTRA.DIHEDRAL>
-18.1111

>  <SCORE.INTRA.DIHEDRAL.0>
25.6828

>  <SCORE.INTRA.POLAR>
0

>  <SCORE.INTRA.POLAR.0>
0

>  <SCORE.INTRA.REPUL>
0

>  <SCORE.INTRA.REPUL.0>
0

>  <SCORE.INTRA.SOLV>
2.26716

>  <SCORE.INTRA.SOLV.lig_0>
-48.5059

>  <SCORE.INTRA.VDW>
0.190719

>  <SCORE.INTRA.VDW.0>
-0.363643

>  <SCORE.INTRA.norm>
-0.594712

>  <SCORE.RESTR>
0.00146716

>  <SCORE.RESTR.CAVITY>
0.00146716

>  <SCORE.RESTR.norm>
0.000112859

>  <SCORE.SYSTEM>
0

>  <SCORE.SYSTEM.CONST>
0

>  <SCORE.SYSTEM.DIHEDRAL>
0

>  <SCORE.SYSTEM.SOLV>
0

>  <SCORE.SYSTEM.norm>
0

>  <SCORE.heavy>
13

>  <SCORE.norm>
0.124918

>  <RMSD>
2.571

$$$$
ligand
 OpenBabel11021811453D
libRbt.so/2013.1/901 2013/11/27
 13 12  0  0  0  0  0  0  0  0999 V2000
   29.6803   33.8110   46.3123 O   0  0  0  0  0  0  0  0  0  0  0  0
   30.4213   36.4524   45.8928 O   0  0  0  0  0  0  0  0  0  0  0  0
   32.3777   33.4308   47.6348 P   0  0  2  0  0  0  0  0  0  0  0  0
   33.3807   33.5856   46.5415 O   0  5  0  0  0  0  0  0  0  0  0  0
   32.8121   33.5844   49.0471 O   0  0  0  0  0  0  0  0  0  0  0  0
   31.6931   32.0055   47.5029 O   0  0  0  0  0  0  0  0  0  0  0  0
   29.5679   38.1225   48.0509 O   0  0  0  0  0  0  0  0  0  0  0  0
   30.8675   31.6835   46.3743 C   0  0  0  0  0  0  0  0  0  0  0  0
   29.9328   35.7166   44.7421 C   0  0  0  0  0  0  0  0  0  0  0  0
   30.5386   38.5670   47.1141 C   0  0  0  0  0  0  0  0  0  0  0  0
   29.5086   32.3933   46.4988 C   0  0  0  0  0  0  0  0  0  0  0  0
   30.0334   34.1856   44.9517 C   0  0  0  0  0  0  0  0  0  0  0  0
   30.2487   37.8834   45.7659 C   0  0  0  0  0  0  0  0  0  0  0  0
  1 12  1  0  0  0  0
  1 11  1  0  0  0  0
  2 13  1  0  0  0  0
  2  9  1  0  0  0  0
  3  4  1  6  0  0  0
  3  5  2  0  0  0  0
  3  6  1  0  0  0  0
  6  8  1  0  0  0  0
  7 10  1  0  0  0  0
  8 11  1  0  0  0  0
  9 12  1  0  0  0  0
 10 13  1  0  0  0  0
M  CHG  1   4  -1
M  END
>  <CHROM.1>
168.82897647,169.36536062,-65.81322369,-74.46283057,69.95634041,-175.72064455
39.60823428,-64.04887145,69.04512302,30.99640667,34.61351230,46.75987791
1.09728740,0.77072547,-2.94373751

>  <Name>
ligand

>  <RI>
0

>  <Rbt.Current_Directory>
/home/itssahil/PROJECTS/Mol_Feturizer/New_Systems/rnas/2NPY

>  <Rbt.Executable>
rbdock ($Id: //depot/dev/client3/rdock/2013.1/src/exe/rbdock.cxx#4 $)

>  <Rbt.Library>
libRbt.so (2013.1, Build901 2013/11/27)

>  <Rbt.Parameter_File>
/export/apps/rDock/src/rDock_2013.1_src/data/scripts/dock_solv.prm

>  <Rbt.Receptor>
prm/pocket_docking_2.prm

>  <SCORE>
-0.391374

>  <SCORE.INTER>
9.02271

>  <SCORE.INTER.CONST>
1

>  <SCORE.INTER.POLAR>
0

>  <SCORE.INTER.ROT>
9

>  <SCORE.INTER.SOLV>
2.60077

>  <SCORE.INTER.VDW>
-4.45178

>  <SCORE.INTER.norm>
0.694055

>  <SCORE.INTRA>
-9.42438

>  <SCORE.INTRA.DIHEDRAL>
-21.0588

>  <SCORE.INTRA.DIHEDRAL.0>
25.6828

>  <SCORE.INTRA.POLAR>
0

>  <SCORE.INTRA.POLAR.0>
0

>  <SCORE.INTRA.REPUL>
0

>  <SCORE.INTRA.REPUL.0>
0

>  <SCORE.INTRA.SOLV>
3.77778

>  <SCORE.INTRA.SOLV.lig_0>
-48.5059

>  <SCORE.INTRA.VDW>
-0.78386

>  <SCORE.INTRA.VDW.0>
-0.363643

>  <SCORE.INTRA.norm>
-0.724953

>  <SCORE.RESTR>
0.0102961

>  <SCORE.RESTR.CAVITY>
0.0102961

>  <SCORE.RESTR.norm>
0.000792009

>  <SCORE.SYSTEM>
0

>  <SCORE.SYSTEM.CONST>
0

>  <SCORE.SYSTEM.DIHEDRAL>
0

>  <SCORE.SYSTEM.SOLV>
0

>  <SCORE.SYSTEM.norm>
0

>  <SCORE.heavy>
13

>  <SCORE.norm>
-0.0301057

>  <RMSD>
2.604

$$$$
ligand
 OpenBabel11021811453D
libRbt.so/2013.1/901 2013/11/27
 13 12  0  0  0  0  0  0  0  0999 V2000
   29.1332   33.9040   45.9652 O   0  0  0  0  0  0  0  0  0  0  0  0
   29.6481   36.5538   44.7014 O   0  0  0  0  0  0  0  0  0  0  0  0
   32.9293   33.5445   47.9841 P   0  0  2  0  0  0  0  0  0  0  0  0
   33.8196   33.5282   46.7872 O   0  5  0  0  0  0  0  0  0  0  0  0
   33.0822   32.4891   49.0183 O   0  0  0  0  0  0  0  0  0  0  0  0
   31.4190   33.5158   47.4987 O   0  0  0  0  0  0  0  0  0  0  0  0
   28.8449   38.4493   47.7313 O   0  0  0  0  0  0  0  0  0  0  0  0
   30.9128   32.4207   46.7219 C   0  0  0  0  0  0  0  0  0  0  0  0
   30.4044   35.3528   44.4014 C   0  0  0  0  0  0  0  0  0  0  0  0
   28.7550   38.1198   46.3526 C   0  0  0  0  0  0  0  0  0  0  0  0
   29.4010   32.5923   46.4962 C   0  0  0  0  0  0  0  0  0  0  0  0
   29.5505   34.0737   44.5819 C   0  0  0  0  0  0  0  0  0  0  0  0
   29.5463   36.8204   46.1198 C   0  0  0  0  0  0  0  0  0  0  0  0
  1 12  1  0  0  0  0
  1 11  1  0  0  0  0
  2 13  1  0  0  0  0
  2  9  1  0  0  0  0
  3  4  1  6  0  0  0
  3  5  2  0  0  0  0
  3  6  1  0  0  0  0
  6  8  1  0  0  0  0
  7 10  1  0  0  0  0
  8 11  1  0  0  0  0
  9 12  1  0  0  0  0
 10 13  1  0  0  0  0
M  CHG  1   4  -1
M  END
>  <CHROM.1>
-129.81094112,178.95561389,60.60083488,175.10614315,51.93591177,80.10036967
-63.48986493,-171.58703972,72.01024607,30.78538824,34.62706922,46.63505953
2.58926322,-0.75012941,0.41349402

>  <Name>
ligand

>  <RI>
0

>  <Rbt.Current_Directory>
/home/itssahil/PROJECTS/Mol_Feturizer/New_Systems/rnas/2NPY

>  <Rbt.Executable>
rbdock ($Id: //depot/dev/client3/rdock/2013.1/src/exe/rbdock.cxx#4 $)

>  <Rbt.Library>
libRbt.so (2013.1, Build901 2013/11/27)

>  <Rbt.Parameter_File>
/export/apps/rDock/src/rDock_2013.1_src/data/scripts/dock_solv.prm

>  <Rbt.Receptor>
prm/pocket_docking_2.prm

>  <SCORE>
1.78863

>  <SCORE.INTER>
10.0947

>  <SCORE.INTER.CONST>
1

>  <SCORE.INTER.POLAR>
0

>  <SCORE.INTER.ROT>
9

>  <SCORE.INTER.SOLV>
5.76298

>  <SCORE.INTER.VDW>
-4.79123

>  <SCORE.INTER.norm>
0.776512

>  <SCORE.INTRA>
-8.31617

>  <SCORE.INTRA.DIHEDRAL>
-15.7161

>  <SCORE.INTRA.DIHEDRAL.0>
25.6828

>  <SCORE.INTRA.POLAR>
0

>  <SCORE.INTRA.POLAR.0>
0

>  <SCORE.INTRA.REPUL>
0

>  <SCORE.INTRA.REPUL.0>
0

>  <SCORE.INTRA.SOLV>
-0.41493

>  <SCORE.INTRA.SOLV.lig_0>
-48.5059

>  <SCORE.INTRA.VDW>
-0.250674

>  <SCORE.INTRA.VDW.0>
-0.363643

>  <SCORE.INTRA.norm>
-0.639705

>  <SCORE.RESTR>
0.0101482

>  <SCORE.RESTR.CAVITY>
0.0101482

>  <SCORE.RESTR.norm>
0.00078063

>  <SCORE.SYSTEM>
0

>  <SCORE.SYSTEM.CONST>
0

>  <SCORE.SYSTEM.DIHEDRAL>
0

>  <SCORE.SYSTEM.SOLV>
0

>  <SCORE.SYSTEM.norm>
0

>  <SCORE.heavy>
13

>  <SCORE.norm>
0.137587

>  <RMSD>
2.635

$$$$
ligand
 OpenBabel11021811453D
libRbt.so/2013.1/901 2013/11/27
 13 12  0  0  0  0  0  0  0  0999 V2000
   31.0515   33.9529   48.3140 O   0  0  0  0  0  0  0  0  0  0  0  0
   30.0751   36.7832   48.5429 O   0  0  0  0  0  0  0  0  0  0  0  0
   31.2553   32.4941   44.3128 P   0  0  2  0  0  0  0  0  0  0  0  0
   32.7469   32.4683   44.3187 O   0  5  0  0  0  0  0  0  0  0  0  0
   30.5483   33.4586   43.4314 O   0  0  0  0  0  0  0  0  0  0  0  0
   30.7421   32.7424   45.7934 O   0  0  0  0  0  0  0  0  0  0  0  0
   28.1133   38.6120   47.6633 O   0  0  0  0  0  0  0  0  0  0  0  0
   31.2639   31.9836   46.8938 C   0  0  0  0  0  0  0  0  0  0  0  0
   30.8719   36.1008   49.5447 C   0  0  0  0  0  0  0  0  0  0  0  0
   29.4839   38.8475   47.3743 C   0  0  0  0  0  0  0  0  0  0  0  0
   30.7330   32.5514   48.2211 C   0  0  0  0  0  0  0  0  0  0  0  0
   30.6065   34.5752   49.5514 C   0  0  0  0  0  0  0  0  0  0  0  0
   30.3244   38.2076   48.4936 C   0  0  0  0  0  0  0  0  0  0  0  0
  1 12  1  0  0  0  0
  1 11  1  0  0  0  0
  2 13  1  0  0  0  0
  2  9  1  0  0  0  0
  3  4  1  1  0  0  0
  3  5  2  0  0  0  0
  3  6  1  0  0  0  0
  6  8  1  0  0  0  0
  7 10  1  0  0  0  0
  8 11  1  0  0  0  0
  9 12  1  0  0  0  0
 10 13  1  0  0  0  0
M  CHG  1   4  -1
M  END
>  <CHROM.1>
-175.33454210,177.85125536,-48.08969213,172.61581307,-55.56518436,-178.71114295
65.79705588,60.38789894,-179.04225077,30.65064806,34.63269782,46.84421887
-2.44838873,1.21606100,-1.69039716

>  <Name>
ligand

>  <RI>
0

>  <Rbt.Current_Directory>
/home/itssahil/PROJECTS/Mol_Feturizer/New_Systems/rnas/2NPY

>  <Rbt.Executable>
rbdock ($Id: //depot/dev/client3/rdock/2013.1/src/exe/rbdock.cxx#4 $)

>  <Rbt.Library>
libRbt.so (2013.1, Build901 2013/11/27)

>  <Rbt.Parameter_File>
/export/apps/rDock/src/rDock_2013.1_src/data/scripts/dock_solv.prm

>  <Rbt.Receptor>
prm/pocket_docking_3.prm

>  <SCORE>
-4.89423

>  <SCORE.INTER>
9.10119

>  <SCORE.INTER.CONST>
1

>  <SCORE.INTER.POLAR>
0

>  <SCORE.INTER.ROT>
9

>  <SCORE.INTER.SOLV>
13.7971

>  <SCORE.INTER.VDW>
-8.13158

>  <SCORE.INTER.norm>
0.700092

>  <SCORE.INTRA>
-13.9957

>  <SCORE.INTRA.DIHEDRAL>
-24.9974

>  <SCORE.INTRA.DIHEDRAL.0>
25.6828

>  <SCORE.INTRA.POLAR>
0

>  <SCORE.INTRA.POLAR.0>
0

>  <SCORE.INTRA.REPUL>
0

>  <SCORE.INTRA.REPUL.0>
0

>  <SCORE.INTRA.SOLV>
-0.908023

>  <SCORE.INTRA.SOLV.lig_0>
-48.5059

>  <SCORE.INTRA.VDW>
-1.04303

>  <SCORE.INTRA.VDW.0>
-0.363643

>  <SCORE.INTRA.norm>
-1.07659

>  <SCORE.RESTR>
0.000305651

>  <SCORE.RESTR.CAVITY>
0.000305651

>  <SCORE.RESTR.norm>
2.35116e-05

>  <SCORE.SYSTEM>
0

>  <SCORE.SYSTEM.CONST>
0

>  <SCORE.SYSTEM.DIHEDRAL>
0

>  <SCORE.SYSTEM.SOLV>
0

>  <SCORE.SYSTEM.norm>
0

>  <SCORE.heavy>
13

>  <SCORE.norm>
-0.376479

>  <RMSD>
2.642

$$$$
ligand
 OpenBabel11021811453D
libRbt.so/2013.1/901 2013/11/27
 13 12  0  0  0  0  0  0  0  0999 V2000
   30.2988   34.0213   44.5783 O   0  0  0  0  0  0  0  0  0  0  0  0
   30.7537   36.4944   46.2826 O   0  0  0  0  0  0  0  0  0  0  0  0
   31.5330   32.6090   47.5745 P   0  0  2  0  0  0  0  0  0  0  0  0
   32.6405   31.9819   48.3525 O   0  5  0  0  0  0  0  0  0  0  0  0
   30.1363   32.4789   48.0637 O   0  0  0  0  0  0  0  0  0  0  0  0
   31.5685   32.0479   46.0908 O   0  0  0  0  0  0  0  0  0  0  0  0
   28.7316   38.4710   47.0141 O   0  0  0  0  0  0  0  0  0  0  0  0
   32.3050   32.7245   45.0619 C   0  0  0  0  0  0  0  0  0  0  0  0
   29.4778   36.0439   45.7597 C   0  0  0  0  0  0  0  0  0  0  0  0
   30.0948   38.5657   47.4016 C   0  0  0  0  0  0  0  0  0  0  0  0
   31.7135   34.1250   44.8279 C   0  0  0  0  0  0  0  0  0  0  0  0
   29.6372   35.3056   44.4079 C   0  0  0  0  0  0  0  0  0  0  0  0
   30.6422   37.1376   47.5739 C   0  0  0  0  0  0  0  0  0  0  0  0
  1 12  1  0  0  0  0
  1 11  1  0  0  0  0
  2 13  1  0  0  0  0
  2  9  1  0  0  0  0
  3  4  1  1  0  0  0
  3  5  2  0  0  0  0
  3  6  1  0  0  0  0
  6  8  1  0  0  0  0
  7 10  1  0  0  0  0
  8 11  1  0  0  0  0
  9 12  1  0  0  0  0
 10 13  1  0  0  0  0
M  CHG  1   4  -1
M  END
>  <CHROM.1>
-74.19670856,-76.74735865,-91.77201712,-63.12767364,-53.24657097,-177.50073015
69.38818008,70.08214180,177.21827589,30.79496641,34.56713143,46.49880081
0.20072356,1.19623846,-1.84287434

>  <Name>
ligand

>  <RI>
0

>  <Rbt.Current_Directory>
/home/itssahil/PROJECTS/Mol_Feturizer/New_Systems/rnas/2NPY

>  <Rbt.Executable>
rbdock ($Id: //depot/dev/client3/rdock/2013.1/src/exe/rbdock.cxx#4 $)

>  <Rbt.Library>
libRbt.so (2013.1, Build901 2013/11/27)

>  <Rbt.Parameter_File>
/export/apps/rDock/src/rDock_2013.1_src/data/scripts/dock_solv.prm

>  <Rbt.Receptor>
prm/pocket_docking_2.prm

>  <SCORE>
1.45255

>  <SCORE.INTER>
10.4808

>  <SCORE.INTER.CONST>
1

>  <SCORE.INTER.POLAR>
0

>  <SCORE.INTER.ROT>
9

>  <SCORE.INTER.SOLV>
6.88111

>  <SCORE.INTER.VDW>
-4.90651

>  <SCORE.INTER.norm>
0.806214

>  <SCORE.INTRA>
-9.02823

>  <SCORE.INTRA.DIHEDRAL>
-21.3703

>  <SCORE.INTRA.DIHEDRAL.0>
25.6828

>  <SCORE.INTRA.POLAR>
0

>  <SCORE.INTRA.POLAR.0>
0

>  <SCORE.INTRA.REPUL>
0

>  <SCORE.INTRA.REPUL.0>
0

>  <SCORE.INTRA.SOLV>
2.82698

>  <SCORE.INTRA.SOLV.lig_0>
-48.5059

>  <SCORE.INTRA.VDW>
0.243432

>  <SCORE.INTRA.VDW.0>
-0.363643

>  <SCORE.INTRA.norm>
-0.694479

>  <SCORE.RESTR>
0

>  <SCORE.RESTR.CAVITY>
0

>  <SCORE.RESTR.norm>
0

>  <SCORE.SYSTEM>
0

>  <SCORE.SYSTEM.CONST>
0

>  <SCORE.SYSTEM.DIHEDRAL>
0

>  <SCORE.SYSTEM.SOLV>
0

>  <SCORE.SYSTEM.norm>
0

>  <SCORE.heavy>
13

>  <SCORE.norm>
0.111735

>  <RMSD>
2.790

$$$$
ligand
 OpenBabel11021811453D
libRbt.so/2013.1/901 2013/11/27
 13 12  0  0  0  0  0  0  0  0999 V2000
   30.2478   33.8628   45.3733 O   0  0  0  0  0  0  0  0  0  0  0  0
   29.4251   37.5169   45.1974 O   0  0  0  0  0  0  0  0  0  0  0  0
   31.8031   32.9156   47.7134 P   0  0  2  0  0  0  0  0  0  0  0  0
   32.9975   33.5557   48.3369 O   0  5  0  0  0  0  0  0  0  0  0  0
   30.9297   32.0445   48.5412 O   0  0  0  0  0  0  0  0  0  0  0  0
   32.2751   32.0606   46.4630 O   0  0  0  0  0  0  0  0  0  0  0  0
   29.7369   37.4052   48.1040 O   0  0  0  0  0  0  0  0  0  0  0  0
   31.3515   31.6906   45.4291 C   0  0  0  0  0  0  0  0  0  0  0  0
   29.3232   36.1476   45.6652 C   0  0  0  0  0  0  0  0  0  0  0  0
   29.8284   38.6049   47.3491 C   0  0  0  0  0  0  0  0  0  0  0  0
   30.9947   32.9218   44.5790 C   0  0  0  0  0  0  0  0  0  0  0  0
   30.0900   35.1657   44.7455 C   0  0  0  0  0  0  0  0  0  0  0  0
   28.8893   38.4785   46.1364 C   0  0  0  0  0  0  0  0  0  0  0  0
  1 12  1  0  0  0  0
  1 11  1  0  0  0  0
  2 13  1  0  0  0  0
  2  9  1  0  0  0  0
  3  4  1  1  0  0  0
  3  5  2  0  0  0  0
  3  6  1  0  0  0  0
  6  8  1  0  0  0  0
  7 10  1  0  0  0  0
  8 11  1  0  0  0  0
  9 12  1  0  0  0  0
 10 13  1  0  0  0  0
M  CHG  1   4  -1
M  END
>  <CHROM.1>
-178.02246913,72.02556271,-159.75469751,72.62888245,-66.86718650,-171.42441502
166.73260487,-70.53103889,168.58120484,30.72150974,34.62480041,46.56799737
0.53358501,1.08706474,-2.28015419

>  <Name>
ligand

>  <RI>
0

>  <Rbt.Current_Directory>
/home/itssahil/PROJECTS/Mol_Feturizer/New_Systems/rnas/2NPY

>  <Rbt.Executable>
rbdock ($Id: //depot/dev/client3/rdock/2013.1/src/exe/rbdock.cxx#4 $)

>  <Rbt.Library>
libRbt.so (2013.1, Build901 2013/11/27)

>  <Rbt.Parameter_File>
/export/apps/rDock/src/rDock_2013.1_src/data/scripts/dock_solv.prm

>  <Rbt.Receptor>
prm/pocket_docking_2.prm

>  <SCORE>
0.157244

>  <SCORE.INTER>
9.51227

>  <SCORE.INTER.CONST>
1

>  <SCORE.INTER.POLAR>
0

>  <SCORE.INTER.ROT>
9

>  <SCORE.INTER.SOLV>
6.42259

>  <SCORE.INTER.VDW>
-5.39935

>  <SCORE.INTER.norm>
0.731713

>  <SCORE.INTRA>
-9.35973

>  <SCORE.INTRA.DIHEDRAL>
-21.7513

>  <SCORE.INTRA.DIHEDRAL.0>
25.6828

>  <SCORE.INTRA.POLAR>
0

>  <SCORE.INTRA.POLAR.0>
0

>  <SCORE.INTRA.REPUL>
0

>  <SCORE.INTRA.REPUL.0>
0

>  <SCORE.INTRA.SOLV>
2.51411

>  <SCORE.INTRA.SOLV.lig_0>
-48.5059

>  <SCORE.INTRA.VDW>
0.258881

>  <SCORE.INTRA.VDW.0>
-0.363643

>  <SCORE.INTRA.norm>
-0.71998

>  <SCORE.RESTR>
0.00471263

>  <SCORE.RESTR.CAVITY>
0.00471263

>  <SCORE.RESTR.norm>
0.00036251

>  <SCORE.SYSTEM>
0

>  <SCORE.SYSTEM.CONST>
0

>  <SCORE.SYSTEM.DIHEDRAL>
0

>  <SCORE.SYSTEM.SOLV>
0

>  <SCORE.SYSTEM.norm>
0

>  <SCORE.heavy>
13

>  <SCORE.norm>
0.0120957

>  <RMSD>
2.817

$$$$
ligand
 OpenBabel11021811453D
libRbt.so/2013.1/901 2013/11/27
 13 12  0  0  0  0  0  0  0  0999 V2000
   30.4658   33.9405   44.3782 O   0  0  0  0  0  0  0  0  0  0  0  0
   29.6027   36.1623   46.0665 O   0  0  0  0  0  0  0  0  0  0  0  0
   32.1197   33.0086   48.2049 P   0  0  2  0  0  0  0  0  0  0  0  0
   33.5990   33.0202   48.0123 O   0  5  0  0  0  0  0  0  0  0  0  0
   31.5126   32.0010   49.1121 O   0  0  0  0  0  0  0  0  0  0  0  0
   31.4207   32.8525   46.7892 O   0  0  0  0  0  0  0  0  0  0  0  0
   29.5201   39.6806   47.0973 O   0  0  0  0  0  0  0  0  0  0  0  0
   32.1988   32.7288   45.5900 C   0  0  0  0  0  0  0  0  0  0  0  0
   28.6561   35.2305   45.4833 C   0  0  0  0  0  0  0  0  0  0  0  0
   30.1250   38.4210   46.8425 C   0  0  0  0  0  0  0  0  0  0  0  0
   31.2747   32.7490   44.3605 C   0  0  0  0  0  0  0  0  0  0  0  0
   29.2936   33.8415   45.2340 C   0  0  0  0  0  0  0  0  0  0  0  0
   29.0535   37.4883   46.2500 C   0  0  0  0  0  0  0  0  0  0  0  0
  1 12  1  0  0  0  0
  1 11  1  0  0  0  0
  2 13  1  0  0  0  0
  2  9  1  0  0  0  0
  3  4  1  6  0  0  0
  3  5  2  0  0  0  0
  3  6  1  0  0  0  0
  6  8  1  0  0  0  0
  7 10  1  0  0  0  0
  8 11  1  0  0  0  0
  9 12  1  0  0  0  0
 10 13  1  0  0  0  0
M  CHG  1   4  -1
M  END
>  <CHROM.1>
166.39852760,-178.78549748,0.92823762,-173.77307847,55.45659210,177.14392722
-57.12014594,-175.80932309,-81.74828687,30.81479273,34.56082503,46.58809138
0.64681588,0.97519589,-2.50020709

>  <Name>
ligand

>  <RI>
0

>  <Rbt.Current_Directory>
/home/itssahil/PROJECTS/Mol_Feturizer/New_Systems/rnas/2NPY

>  <Rbt.Executable>
rbdock ($Id: //depot/dev/client3/rdock/2013.1/src/exe/rbdock.cxx#4 $)

>  <Rbt.Library>
libRbt.so (2013.1, Build901 2013/11/27)

>  <Rbt.Parameter_File>
/export/apps/rDock/src/rDock_2013.1_src/data/scripts/dock_solv.prm

>  <Rbt.Receptor>
prm/pocket_docking_2.prm

>  <SCORE>
0.519222

>  <SCORE.INTER>
10.104

>  <SCORE.INTER.CONST>
1

>  <SCORE.INTER.POLAR>
0

>  <SCORE.INTER.ROT>
9

>  <SCORE.INTER.SOLV>
7.01341

>  <SCORE.INTER.VDW>
-5.20183

>  <SCORE.INTER.norm>
0.777228

>  <SCORE.INTRA>
-10.6436

>  <SCORE.INTRA.DIHEDRAL>
-20.7515

>  <SCORE.INTRA.DIHEDRAL.0>
25.6828

>  <SCORE.INTRA.POLAR>
0

>  <SCORE.INTRA.POLAR.0>
0

>  <SCORE.INTRA.REPUL>
0

>  <SCORE.INTRA.REPUL.0>
0

>  <SCORE.INTRA.SOLV>
-0.401385

>  <SCORE.INTRA.SOLV.lig_0>
-48.5059

>  <SCORE.INTRA.VDW>
-0.0671186

>  <SCORE.INTRA.VDW.0>
-0.363643

>  <SCORE.INTRA.norm>
-0.818737

>  <SCORE.RESTR>
1.05884

>  <SCORE.RESTR.CAVITY>
1.05884

>  <SCORE.RESTR.norm>
0.0814493

>  <SCORE.SYSTEM>
0

>  <SCORE.SYSTEM.CONST>
0

>  <SCORE.SYSTEM.DIHEDRAL>
0

>  <SCORE.SYSTEM.SOLV>
0

>  <SCORE.SYSTEM.norm>
0

>  <SCORE.heavy>
13

>  <SCORE.norm>
0.0399401

>  <RMSD>
2.973

$$$$
ligand
 OpenBabel11021811453D
libRbt.so/2013.1/901 2013/11/27
 13 12  0  0  0  0  0  0  0  0999 V2000
   31.1178   34.4977   44.8185 O   0  0  0  0  0  0  0  0  0  0  0  0
   29.5012   36.7305   45.8353 O   0  0  0  0  0  0  0  0  0  0  0  0
   31.8172   32.2099   47.7264 P   0  0  2  0  0  0  0  0  0  0  0  0
   30.3889   32.5968   47.5380 O   0  5  0  0  0  0  0  0  0  0  0  0
   32.4194   32.2895   49.0821 O   0  0  0  0  0  0  0  0  0  0  0  0
   32.7168   33.0866   46.7571 O   0  0  0  0  0  0  0  0  0  0  0  0
   30.5033   38.0111   48.0799 O   0  0  0  0  0  0  0  0  0  0  0  0
   32.7848   32.8018   45.3524 C   0  0  0  0  0  0  0  0  0  0  0  0
   29.5465   36.3791   44.4286 C   0  0  0  0  0  0  0  0  0  0  0  0
   29.2471   38.4344   47.5699 C   0  0  0  0  0  0  0  0  0  0  0  0
   31.4279   33.0970   44.6910 C   0  0  0  0  0  0  0  0  0  0  0  0
   29.8466   34.8743   44.2197 C   0  0  0  0  0  0  0  0  0  0  0  0
   29.2179   38.1313   46.0612 C   0  0  0  0  0  0  0  0  0  0  0  0
  1 12  1  0  0  0  0
  1 11  1  0  0  0  0
  2 13  1  0  0  0  0
  2  9  1  0  0  0  0
  3  4  1  1  0  0  0
  3  5  2  0  0  0  0
  3  6  1  0  0  0  0
  6  8  1  0  0  0  0
  7 10  1  0  0  0  0
  8 11  1  0  0  0  0
  9 12  1  0  0  0  0
 10 13  1  0  0  0  0
M  CHG  1   4  -1
M  END
>  <CHROM.1>
178.12783120,-177.57193299,-76.24508055,67.58425717,62.72528458,-179.80856210
-58.98389906,55.13510127,179.99580343,30.90791121,34.62642483,46.47206440
3.02980413,-1.12433157,1.26097361

>  <Name>
ligand

>  <RI>
0

>  <Rbt.Current_Directory>
/home/itssahil/PROJECTS/Mol_Feturizer/New_Systems/rnas/2NPY

>  <Rbt.Executable>
rbdock ($Id: //depot/dev/client3/rdock/2013.1/src/exe/rbdock.cxx#4 $)

>  <Rbt.Library>
libRbt.so (2013.1, Build901 2013/11/27)

>  <Rbt.Parameter_File>
/export/apps/rDock/src/rDock_2013.1_src/data/scripts/dock_solv.prm

>  <Rbt.Receptor>
prm/pocket_docking_2.prm

>  <SCORE>
-2.19997

>  <SCORE.INTER>
10.4513

>  <SCORE.INTER.CONST>
1

>  <SCORE.INTER.POLAR>
0

>  <SCORE.INTER.ROT>
9

>  <SCORE.INTER.SOLV>
6.99919

>  <SCORE.INTER.VDW>
-4.96555

>  <SCORE.INTER.norm>
0.803944

>  <SCORE.INTRA>
-12.6861

>  <SCORE.INTRA.DIHEDRAL>
-24.7691

>  <SCORE.INTRA.DIHEDRAL.0>
25.6828

>  <SCORE.INTRA.POLAR>
0

>  <SCORE.INTRA.POLAR.0>
0

>  <SCORE.INTRA.REPUL>
0

>  <SCORE.INTRA.REPUL.0>
0

>  <SCORE.INTRA.SOLV>
1.63715

>  <SCORE.INTRA.SOLV.lig_0>
-48.5059

>  <SCORE.INTRA.VDW>
-1.12009

>  <SCORE.INTRA.VDW.0>
-0.363643

>  <SCORE.INTRA.norm>
-0.975851

>  <SCORE.RESTR>
0.0348222

>  <SCORE.RESTR.CAVITY>
0.0348222

>  <SCORE.RESTR.norm>
0.00267863

>  <SCORE.SYSTEM>
0

>  <SCORE.SYSTEM.CONST>
0

>  <SCORE.SYSTEM.DIHEDRAL>
0

>  <SCORE.SYSTEM.SOLV>
0

>  <SCORE.SYSTEM.norm>
0

>  <SCORE.heavy>
13

>  <SCORE.norm>
-0.169229

>  <RMSD>
3.017

$$$$
ligand
 OpenBabel11021811453D
libRbt.so/2013.1/901 2013/11/27
 13 12  0  0  0  0  0  0  0  0999 V2000
   29.7983   33.4750   45.3631 O   0  0  0  0  0  0  0  0  0  0  0  0
   29.9238   36.3259   44.5956 O   0  0  0  0  0  0  0  0  0  0  0  0
   32.6079   32.2988   48.4569 P   0  0  2  0  0  0  0  0  0  0  0  0
   31.6404   32.6046   49.5504 O   0  5  0  0  0  0  0  0  0  0  0  0
   33.8981   33.0330   48.4013 O   0  0  0  0  0  0  0  0  0  0  0  0
   31.8843   32.5076   47.0604 O   0  0  0  0  0  0  0  0  0  0  0  0
   29.5995   37.4745   47.1534 O   0  0  0  0  0  0  0  0  0  0  0  0
   30.7923   31.6671   46.6605 C   0  0  0  0  0  0  0  0  0  0  0  0
   28.8151   35.4596   44.2426 C   0  0  0  0  0  0  0  0  0  0  0  0
   28.7492   37.8675   46.0857 C   0  0  0  0  0  0  0  0  0  0  0  0
   30.2621   32.1136   45.2874 C   0  0  0  0  0  0  0  0  0  0  0  0
   29.2577   33.9815   44.1110 C   0  0  0  0  0  0  0  0  0  0  0  0
   29.5308   37.7075   44.7695 C   0  0  0  0  0  0  0  0  0  0  0  0
  1 12  1  0  0  0  0
  1 11  1  0  0  0  0
  2 13  1  0  0  0  0
  2  9  1  0  0  0  0
  3  4  1  1  0  0  0
  3  5  2  0  0  0  0
  3  6  1  0  0  0  0
  6  8  1  0  0  0  0
  7 10  1  0  0  0  0
  8 11  1  0  0  0  0
  9 12  1  0  0  0  0
 10 13  1  0  0  0  0
M  CHG  1   4  -1
M  END
>  <CHROM.1>
-178.31087422,73.11819107,-65.58921081,178.57865268,-60.26154211,-178.04531894
60.79920491,60.38936455,-179.14639736,30.72141854,34.17676572,46.50274548
2.64685659,-0.95564966,0.36989998

>  <Name>
ligand

>  <RI>
0

>  <Rbt.Current_Directory>
/home/itssahil/PROJECTS/Mol_Feturizer/New_Systems/rnas/2NPY

>  <Rbt.Executable>
rbdock ($Id: //depot/dev/client3/rdock/2013.1/src/exe/rbdock.cxx#4 $)

>  <Rbt.Library>
libRbt.so (2013.1, Build901 2013/11/27)

>  <Rbt.Parameter_File>
/export/apps/rDock/src/rDock_2013.1_src/data/scripts/dock_solv.prm

>  <Rbt.Receptor>
prm/pocket_docking_3.prm

>  <SCORE>
-4.93964

>  <SCORE.INTER>
8.29343

>  <SCORE.INTER.CONST>
1

>  <SCORE.INTER.POLAR>
0

>  <SCORE.INTER.ROT>
9

>  <SCORE.INTER.SOLV>
6.4897

>  <SCORE.INTER.VDW>
-6.23428

>  <SCORE.INTER.norm>
0.637956

>  <SCORE.INTRA>
-13.2331

>  <SCORE.INTRA.DIHEDRAL>
-24.6677

>  <SCORE.INTRA.DIHEDRAL.0>
25.6828

>  <SCORE.INTRA.POLAR>
0

>  <SCORE.INTRA.POLAR.0>
0

>  <SCORE.INTRA.REPUL>
0

>  <SCORE.INTRA.REPUL.0>
0

>  <SCORE.INTRA.SOLV>
-0.962004

>  <SCORE.INTRA.SOLV.lig_0>
-48.5059

>  <SCORE.INTRA.VDW>
-0.41819

>  <SCORE.INTRA.VDW.0>
-0.363643

>  <SCORE.INTRA.norm>
-1.01793

>  <SCORE.RESTR>
0

>  <SCORE.RESTR.CAVITY>
0

>  <SCORE.RESTR.norm>
0

>  <SCORE.SYSTEM>
0

>  <SCORE.SYSTEM.CONST>
0

>  <SCORE.SYSTEM.DIHEDRAL>
0

>  <SCORE.SYSTEM.SOLV>
0

>  <SCORE.SYSTEM.norm>
0

>  <SCORE.heavy>
13

>  <SCORE.norm>
-0.379972

>  <RMSD>
3.075

$$$$
ligand
 OpenBabel11021811453D
libRbt.so/2013.1/901 2013/11/27
 13 12  0  0  0  0  0  0  0  0999 V2000
   29.8512   33.2580   45.1601 O   0  0  0  0  0  0  0  0  0  0  0  0
   29.2265   36.0659   44.7110 O   0  0  0  0  0  0  0  0  0  0  0  0
   32.8633   32.6321   48.2469 P   0  0  2  0  0  0  0  0  0  0  0  0
   32.6840   33.2958   49.5709 O   0  5  0  0  0  0  0  0  0  0  0  0
   33.9176   33.1249   47.3235 O   0  0  0  0  0  0  0  0  0  0  0  0
   31.4861   32.6791   47.4605 O   0  0  0  0  0  0  0  0  0  0  0  0
   29.1024   38.5375   46.0951 O   0  0  0  0  0  0  0  0  0  0  0  0
   31.1595   31.6824   46.4814 C   0  0  0  0  0  0  0  0  0  0  0  0
   28.7106   35.0251   43.8422 C   0  0  0  0  0  0  0  0  0  0  0  0
   29.9988   38.3665   45.0067 C   0  0  0  0  0  0  0  0  0  0  0  0
   29.7921   31.9952   45.8502 C   0  0  0  0  0  0  0  0  0  0  0  0
   28.5823   33.6695   44.5797 C   0  0  0  0  0  0  0  0  0  0  0  0
   29.3850   37.3380   44.0401 C   0  0  0  0  0  0  0  0  0  0  0  0
  1 12  1  0  0  0  0
  1 11  1  0  0  0  0
  2 13  1  0  0  0  0
  2  9  1  0  0  0  0
  3  4  1  1  0  0  0
  3  5  2  0  0  0  0
  3  6  1  0  0  0  0
  6  8  1  0  0  0  0
  7 10  1  0  0  0  0
  8 11  1  0  0  0  0
  9 12  1  0  0  0  0
 10 13  1  0  0  0  0
M  CHG  1   4  -1
M  END
>  <CHROM.1>
-179.50689447,-177.23910929,-152.73908693,-178.31750524,62.61644281,178.71809372
-56.07359239,-61.68989311,-177.35547926,30.73746713,34.29455596,46.24521070
2.42133251,-0.78898121,0.03506830

>  <Name>
ligand

>  <RI>
0

>  <Rbt.Current_Directory>
/home/itssahil/PROJECTS/Mol_Feturizer/New_Systems/rnas/2NPY

>  <Rbt.Executable>
rbdock ($Id: //depot/dev/client3/rdock/2013.1/src/exe/rbdock.cxx#4 $)

>  <Rbt.Library>
libRbt.so (2013.1, Build901 2013/11/27)

>  <Rbt.Parameter_File>
/export/apps/rDock/src/rDock_2013.1_src/data/scripts/dock_solv.prm

>  <Rbt.Receptor>
prm/pocket_docking_3.prm

>  <SCORE>
-5.78586

>  <SCORE.INTER>
8.49605

>  <SCORE.INTER.CONST>
1

>  <SCORE.INTER.POLAR>
0

>  <SCORE.INTER.ROT>
9

>  <SCORE.INTER.SOLV>
3.88341

>  <SCORE.INTER.VDW>
-5.23044

>  <SCORE.INTER.norm>
0.653542

>  <SCORE.INTRA>
-14.2819

>  <SCORE.INTRA.DIHEDRAL>
-25.0038

>  <SCORE.INTRA.DIHEDRAL.0>
25.6828

>  <SCORE.INTRA.POLAR>
0

>  <SCORE.INTRA.POLAR.0>
0

>  <SCORE.INTRA.REPUL>
0

>  <SCORE.INTRA.REPUL.0>
0

>  <SCORE.INTRA.SOLV>
-1.12876

>  <SCORE.INTRA.SOLV.lig_0>
-48.5059

>  <SCORE.INTRA.VDW>
-1.21564

>  <SCORE.INTRA.VDW.0>
-0.363643

>  <SCORE.INTRA.norm>
-1.09861

>  <SCORE.RESTR>
0

>  <SCORE.RESTR.CAVITY>
0

>  <SCORE.RESTR.norm>
0

>  <SCORE.SYSTEM>
0

>  <SCORE.SYSTEM.CONST>
0

>  <SCORE.SYSTEM.DIHEDRAL>
0

>  <SCORE.SYSTEM.SOLV>
0

>  <SCORE.SYSTEM.norm>
0

>  <SCORE.heavy>
13

>  <SCORE.norm>
-0.445067

>  <RMSD>
3.157

$$$$
ligand
 OpenBabel11021811453D
libRbt.so/2013.1/901 2013/11/27
 13 12  0  0  0  0  0  0  0  0999 V2000
   31.6905   34.8129   44.6162 O   0  0  0  0  0  0  0  0  0  0  0  0
   30.0823   36.8358   45.8705 O   0  0  0  0  0  0  0  0  0  0  0  0
   31.4128   32.3976   48.1162 P   0  0  2  0  0  0  0  0  0  0  0  0
   29.9285   32.5059   48.0131 O   0  5  0  0  0  0  0  0  0  0  0  0
   32.1055   32.9922   49.2882 O   0  0  0  0  0  0  0  0  0  0  0  0
   32.0633   33.0268   46.8130 O   0  0  0  0  0  0  0  0  0  0  0  0
   29.5590   37.5387   48.5065 O   0  0  0  0  0  0  0  0  0  0  0  0
   31.7167   32.5444   45.5069 C   0  0  0  0  0  0  0  0  0  0  0  0
   29.7060   36.3031   44.5748 C   0  0  0  0  0  0  0  0  0  0  0  0
   29.8566   38.5712   47.5776 C   0  0  0  0  0  0  0  0  0  0  0  0
   32.2591   33.5024   44.4327 C   0  0  0  0  0  0  0  0  0  0  0  0
   30.2605   34.8739   44.3559 C   0  0  0  0  0  0  0  0  0  0  0  0
   29.4320   38.0911   46.1783 C   0  0  0  0  0  0  0  0  0  0  0  0
  1 12  1  0  0  0  0
  1 11  1  0  0  0  0
  2 13  1  0  0  0  0
  2  9  1  0  0  0  0
  3  4  1  1  0  0  0
  3  5  2  0  0  0  0
  3  6  1  0  0  0  0
  6  8  1  0  0  0  0
  7 10  1  0  0  0  0
  8 11  1  0  0  0  0
  9 12  1  0  0  0  0
 10 13  1  0  0  0  0
M  CHG  1   4  -1
M  END
>  <CHROM.1>
179.76774049,178.67380498,-56.73400890,168.49368933,-60.02383464,-172.13372734
-51.70230300,-55.78217728,-67.30631445,30.83331654,34.70304854,46.62491741
-2.69789834,-1.18466882,1.84118852

>  <Name>
ligand

>  <RI>
0

>  <Rbt.Current_Directory>
/home/itssahil/PROJECTS/Mol_Feturizer/New_Systems/rnas/2NPY

>  <Rbt.Executable>
rbdock ($Id: //depot/dev/client3/rdock/2013.1/src/exe/rbdock.cxx#4 $)

>  <Rbt.Library>
libRbt.so (2013.1, Build901 2013/11/27)

>  <Rbt.Parameter_File>
/export/apps/rDock/src/rDock_2013.1_src/data/scripts/dock_solv.prm

>  <Rbt.Receptor>
prm/pocket_docking_2.prm

>  <SCORE>
-2.03502

>  <SCORE.INTER>
10.5638

>  <SCORE.INTER.CONST>
1

>  <SCORE.INTER.POLAR>
0

>  <SCORE.INTER.ROT>
9

>  <SCORE.INTER.SOLV>
5.62515

>  <SCORE.INTER.VDW>
-4.43251

>  <SCORE.INTER.norm>
0.8126

>  <SCORE.INTRA>
-12.5988

>  <SCORE.INTRA.DIHEDRAL>
-24.122

>  <SCORE.INTRA.DIHEDRAL.0>
25.6828

>  <SCORE.INTRA.POLAR>
0

>  <SCORE.INTRA.POLAR.0>
0

>  <SCORE.INTRA.REPUL>
0

>  <SCORE.INTRA.REPUL.0>
0

>  <SCORE.INTRA.SOLV>
-0.495011

>  <SCORE.INTRA.SOLV.lig_0>
-48.5059

>  <SCORE.INTRA.VDW>
-0.290322

>  <SCORE.INTRA.VDW.0>
-0.363643

>  <SCORE.INTRA.norm>
-0.96914

>  <SCORE.RESTR>
0

>  <SCORE.RESTR.CAVITY>
0

>  <SCORE.RESTR.norm>
0

>  <SCORE.SYSTEM>
0

>  <SCORE.SYSTEM.CONST>
0

>  <SCORE.SYSTEM.DIHEDRAL>
0

>  <SCORE.SYSTEM.SOLV>
0

>  <SCORE.SYSTEM.norm>
0

>  <SCORE.heavy>
13

>  <SCORE.norm>
-0.15654

>  <RMSD>
3.187

$$$$
ligand
 OpenBabel11021811453D
libRbt.so/2013.1/901 2013/11/27
 13 12  0  0  0  0  0  0  0  0999 V2000
   30.6415   32.0203   46.6411 O   0  0  0  0  0  0  0  0  0  0  0  0
   30.6983   32.8806   49.5990 O   0  0  0  0  0  0  0  0  0  0  0  0
   32.7725   32.2100   42.8124 P   0  0  2  0  0  0  0  0  0  0  0  0
   33.7720   31.1188   42.6237 O   0  5  0  0  0  0  0  0  0  0  0  0
   33.2466   33.5897   43.0927 O   0  0  0  0  0  0  0  0  0  0  0  0
   31.7849   31.8019   43.9852 O   0  0  0  0  0  0  0  0  0  0  0  0
   31.5621   36.2765   48.5157 O   0  0  0  0  0  0  0  0  0  0  0  0
   30.6128   32.5794   44.2690 C   0  0  0  0  0  0  0  0  0  0  0  0
   30.8853   31.5449   49.0649 C   0  0  0  0  0  0  0  0  0  0  0  0
   31.0255   35.2944   49.3903 C   0  0  0  0  0  0  0  0  0  0  0  0
   29.8418   31.9560   45.4450 C   0  0  0  0  0  0  0  0  0  0  0  0
   30.0591   31.3190   47.7749 C   0  0  0  0  0  0  0  0  0  0  0  0
   31.2981   33.9093   48.7770 C   0  0  0  0  0  0  0  0  0  0  0  0
  1 12  1  0  0  0  0
  1 11  1  0  0  0  0
  2 13  1  0  0  0  0
  2  9  1  0  0  0  0
  3  4  1  1  0  0  0
  3  5  2  0  0  0  0
  3  6  1  0  0  0  0
  6  8  1  0  0  0  0
  7 10  1  0  0  0  0
  8 11  1  0  0  0  0
  9 12  1  0  0  0  0
 10 13  1  0  0  0  0
M  CHG  1   4  -1
M  END
>  <CHROM.1>
-174.09524953,178.55333490,-171.61213815,179.81693776,64.51812491,-69.83663943
73.78081240,-176.68553622,-173.40136385,31.54108625,32.76764062,45.99486700
2.16162208,1.03036627,0.77242884

>  <Name>
ligand

>  <RI>
0

>  <Rbt.Current_Directory>
/home/itssahil/PROJECTS/Mol_Feturizer/New_Systems/rnas/2NPY

>  <Rbt.Executable>
rbdock ($Id: //depot/dev/client3/rdock/2013.1/src/exe/rbdock.cxx#4 $)

>  <Rbt.Library>
libRbt.so (2013.1, Build901 2013/11/27)

>  <Rbt.Parameter_File>
/export/apps/rDock/src/rDock_2013.1_src/data/scripts/dock_solv.prm

>  <Rbt.Receptor>
prm/pocket_docking_3.prm

>  <SCORE>
-6.98262

>  <SCORE.INTER>
5.77592

>  <SCORE.INTER.CONST>
1

>  <SCORE.INTER.POLAR>
0

>  <SCORE.INTER.ROT>
9

>  <SCORE.INTER.SOLV>
9.96522

>  <SCORE.INTER.VDW>
-9.07113

>  <SCORE.INTER.norm>
0.444302

>  <SCORE.INTRA>
-12.7585

>  <SCORE.INTRA.DIHEDRAL>
-23.9755

>  <SCORE.INTRA.DIHEDRAL.0>
25.6828

>  <SCORE.INTRA.POLAR>
0

>  <SCORE.INTRA.POLAR.0>
0

>  <SCORE.INTRA.REPUL>
0

>  <SCORE.INTRA.REPUL.0>
0

>  <SCORE.INTRA.SOLV>
-1.1624

>  <SCORE.INTRA.SOLV.lig_0>
-48.5059

>  <SCORE.INTRA.VDW>
-0.189566

>  <SCORE.INTRA.VDW.0>
-0.363643

>  <SCORE.INTRA.norm>
-0.981426

>  <SCORE.RESTR>
0

>  <SCORE.RESTR.CAVITY>
0

>  <SCORE.RESTR.norm>
0

>  <SCORE.SYSTEM>
0

>  <SCORE.SYSTEM.CONST>
0

>  <SCORE.SYSTEM.DIHEDRAL>
0

>  <SCORE.SYSTEM.SOLV>
0

>  <SCORE.SYSTEM.norm>
0

>  <SCORE.heavy>
13

>  <SCORE.norm>
-0.537125

>  <RMSD>
3.522

$$$$
ligand
 OpenBabel11021811453D
libRbt.so/2013.1/901 2013/11/27
 13 12  0  0  0  0  0  0  0  0999 V2000
   29.0811   36.1977   44.3222 O   0  0  0  0  0  0  0  0  0  0  0  0
   29.8066   38.4878   45.9928 O   0  0  0  0  0  0  0  0  0  0  0  0
   31.9449   32.9763   44.6214 P   0  0  2  0  0  0  0  0  0  0  0  0
   31.5559   31.5697   44.3125 O   0  5  0  0  0  0  0  0  0  0  0  0
   32.7989   33.2512   45.8054 O   0  0  0  0  0  0  0  0  0  0  0  0
   30.6287   33.8491   44.7747 O   0  0  0  0  0  0  0  0  0  0  0  0
   31.2506   36.9347   47.8970 O   0  0  0  0  0  0  0  0  0  0  0  0
   29.6521   33.9049   43.7250 C   0  0  0  0  0  0  0  0  0  0  0  0
   28.7557   38.5644   44.9959 C   0  0  0  0  0  0  0  0  0  0  0  0
   30.4851   38.0603   48.3023 C   0  0  0  0  0  0  0  0  0  0  0  0
   28.5293   34.8853   44.1045 C   0  0  0  0  0  0  0  0  0  0  0  0
   28.0990   37.1849   44.7435 C   0  0  0  0  0  0  0  0  0  0  0  0
   29.3076   38.2142   47.3231 C   0  0  0  0  0  0  0  0  0  0  0  0
  1 12  1  0  0  0  0
  1 11  1  0  0  0  0
  2 13  1  0  0  0  0
  2  9  1  0  0  0  0
  3  4  1  1  0  0  0
  3  5  2  0  0  0  0
  3  6  1  0  0  0  0
  6  8  1  0  0  0  0
  7 10  1  0  0  0  0
  8 11  1  0  0  0  0
  9 12  1  0  0  0  0
 10 13  1  0  0  0  0
M  CHG  1   4  -1
M  END
>  <CHROM.1>
178.56709119,176.42829882,-55.59576259,-176.59572523,59.32040483,-68.65456445
-57.68134965,-63.15509973,-177.50175792,30.32990461,35.44355710,45.39194508
2.04613184,-0.69842758,0.65721567

>  <Name>
ligand

>  <RI>
0

>  <Rbt.Current_Directory>
/home/itssahil/PROJECTS/Mol_Feturizer/New_Systems/rnas/2NPY

>  <Rbt.Executable>
rbdock ($Id: //depot/dev/client3/rdock/2013.1/src/exe/rbdock.cxx#4 $)

>  <Rbt.Library>
libRbt.so (2013.1, Build901 2013/11/27)

>  <Rbt.Parameter_File>
/export/apps/rDock/src/rDock_2013.1_src/data/scripts/dock_solv.prm

>  <Rbt.Receptor>
prm/pocket_docking_3.prm

>  <SCORE>
-2.98134

>  <SCORE.INTER>
10.5419

>  <SCORE.INTER.CONST>
1

>  <SCORE.INTER.POLAR>
0

>  <SCORE.INTER.ROT>
9

>  <SCORE.INTER.SOLV>
10.0241

>  <SCORE.INTER.VDW>
-5.91347

>  <SCORE.INTER.norm>
0.810912

>  <SCORE.INTRA>
-13.5232

>  <SCORE.INTRA.DIHEDRAL>
-25.0691

>  <SCORE.INTRA.DIHEDRAL.0>
25.6828

>  <SCORE.INTRA.POLAR>
0

>  <SCORE.INTRA.POLAR.0>
0

>  <SCORE.INTRA.REPUL>
0

>  <SCORE.INTRA.REPUL.0>
0

>  <SCORE.INTRA.SOLV>
-0.913314

>  <SCORE.INTRA.SOLV.lig_0>
-48.5059

>  <SCORE.INTRA.VDW>
-0.531989

>  <SCORE.INTRA.VDW.0>
-0.363643

>  <SCORE.INTRA.norm>
-1.04025

>  <SCORE.RESTR>
0

>  <SCORE.RESTR.CAVITY>
0

>  <SCORE.RESTR.norm>
0

>  <SCORE.SYSTEM>
0

>  <SCORE.SYSTEM.CONST>
0

>  <SCORE.SYSTEM.DIHEDRAL>
0

>  <SCORE.SYSTEM.SOLV>
0

>  <SCORE.SYSTEM.norm>
0

>  <SCORE.heavy>
13

>  <SCORE.norm>
-0.229334

>  <RMSD>
3.531

$$$$
ligand
 OpenBabel11021811453D
libRbt.so/2013.1/901 2013/11/27
 13 12  0  0  0  0  0  0  0  0999 V2000
   30.7878   32.0011   47.3029 O   0  0  0  0  0  0  0  0  0  0  0  0
   29.0324   33.4233   45.3780 O   0  0  0  0  0  0  0  0  0  0  0  0
   35.0291   32.2326   48.2599 P   0  0  2  0  0  0  0  0  0  0  0  0
   35.8024   31.8274   47.0503 O   0  5  0  0  0  0  0  0  0  0  0  0
   35.4781   31.7705   49.5985 O   0  0  0  0  0  0  0  0  0  0  0  0
   33.5215   31.7711   48.0815 O   0  0  0  0  0  0  0  0  0  0  0  0
   29.7527   36.0247   44.6202 O   0  0  0  0  0  0  0  0  0  0  0  0
   32.5106   32.1694   49.0186 C   0  0  0  0  0  0  0  0  0  0  0  0
   29.1741   31.9802   45.4171 C   0  0  0  0  0  0  0  0  0  0  0  0
   28.5569   35.4562   44.1060 C   0  0  0  0  0  0  0  0  0  0  0  0
   31.1568   31.5562   48.6221 C   0  0  0  0  0  0  0  0  0  0  0  0
   29.5139   31.4727   46.8401 C   0  0  0  0  0  0  0  0  0  0  0  0
   28.7385   33.9287   44.0545 C   0  0  0  0  0  0  0  0  0  0  0  0
  1 12  1  0  0  0  0
  1 11  1  0  0  0  0
  2 13  1  0  0  0  0
  2  9  1  0  0  0  0
  3  4  1  6  0  0  0
  3  5  2  0  0  0  0
  3  6  1  0  0  0  0
  6  8  1  0  0  0  0
  7 10  1  0  0  0  0
  8 11  1  0  0  0  0
  9 12  1  0  0  0  0
 10 13  1  0  0  0  0
M  CHG  1   4  -1
M  END
>  <CHROM.1>
-179.77174482,178.10846281,-172.37758895,-178.68904856,-59.61375580,178.94245881
-62.17687517,58.45428930,-179.88828447,31.80391690,32.70241664,46.92535620
2.53806384,-0.21924474,-0.71565704

>  <Name>
ligand

>  <RI>
0

>  <Rbt.Current_Directory>
/home/itssahil/PROJECTS/Mol_Feturizer/New_Systems/rnas/2NPY

>  <Rbt.Executable>
rbdock ($Id: //depot/dev/client3/rdock/2013.1/src/exe/rbdock.cxx#4 $)

>  <Rbt.Library>
libRbt.so (2013.1, Build901 2013/11/27)

>  <Rbt.Parameter_File>
/export/apps/rDock/src/rDock_2013.1_src/data/scripts/dock_solv.prm

>  <Rbt.Receptor>
prm/pocket_docking_4.prm

>  <SCORE>
-8.01052

>  <SCORE.INTER>
6.36606

>  <SCORE.INTER.CONST>
1

>  <SCORE.INTER.POLAR>
0

>  <SCORE.INTER.ROT>
9

>  <SCORE.INTER.SOLV>
7.46158

>  <SCORE.INTER.VDW>
-7.84315

>  <SCORE.INTER.norm>
0.489697

>  <SCORE.INTRA>
-14.3766

>  <SCORE.INTRA.DIHEDRAL>
-25.5878

>  <SCORE.INTRA.DIHEDRAL.0>
25.6828

>  <SCORE.INTRA.POLAR>
0

>  <SCORE.INTRA.POLAR.0>
0

>  <SCORE.INTRA.REPUL>
0

>  <SCORE.INTRA.REPUL.0>
0

>  <SCORE.INTRA.SOLV>
-1.02243

>  <SCORE.INTRA.SOLV.lig_0>
-48.5059

>  <SCORE.INTRA.VDW>
-1.0715

>  <SCORE.INTRA.VDW.0>
-0.363643

>  <SCORE.INTRA.norm>
-1.10589

>  <SCORE.RESTR>
0

>  <SCORE.RESTR.CAVITY>
0

>  <SCORE.RESTR.norm>
0

>  <SCORE.SYSTEM>
0

>  <SCORE.SYSTEM.CONST>
0

>  <SCORE.SYSTEM.DIHEDRAL>
0

>  <SCORE.SYSTEM.SOLV>
0

>  <SCORE.SYSTEM.norm>
0

>  <SCORE.heavy>
13

>  <SCORE.norm>
-0.616194

>  <RMSD>
3.551

$$$$
ligand
 OpenBabel11021811453D
libRbt.so/2013.1/901 2013/11/27
 13 12  0  0  0  0  0  0  0  0999 V2000
   29.9127   32.4964   46.7298 O   0  0  0  0  0  0  0  0  0  0  0  0
   29.9268   33.6149   43.9107 O   0  0  0  0  0  0  0  0  0  0  0  0
   33.8264   32.2977   48.6043 P   0  0  2  0  0  0  0  0  0  0  0  0
   33.5758   33.4888   49.4668 O   0  5  0  0  0  0  0  0  0  0  0  0
   34.9044   32.3529   47.5837 O   0  0  0  0  0  0  0  0  0  0  0  0
   32.4818   31.9190   47.8520 O   0  0  0  0  0  0  0  0  0  0  0  0
   32.1603   35.8173   45.8131 O   0  0  0  0  0  0  0  0  0  0  0  0
   31.2698   31.6767   48.5808 C   0  0  0  0  0  0  0  0  0  0  0  0
   28.7620   33.4853   44.7655 C   0  0  0  0  0  0  0  0  0  0  0  0
   30.9779   35.4699   45.1069 C   0  0  0  0  0  0  0  0  0  0  0  0
   30.1221   31.3707   47.6035 C   0  0  0  0  0  0  0  0  0  0  0  0
   28.8832   32.2765   45.7257 C   0  0  0  0  0  0  0  0  0  0  0  0
   31.1171   34.0130   44.6306 C   0  0  0  0  0  0  0  0  0  0  0  0
  1 12  1  0  0  0  0
  1 11  1  0  0  0  0
  2 13  1  0  0  0  0
  2  9  1  0  0  0  0
  3  4  1  6  0  0  0
  3  5  2  0  0  0  0
  3  6  1  0  0  0  0
  6  8  1  0  0  0  0
  7 10  1  0  0  0  0
  8 11  1  0  0  0  0
  9 12  1  0  0  0  0
 10 13  1  0  0  0  0
M  CHG  1   4  -1
M  END
>  <CHROM.1>
-176.60652830,-69.44933681,-54.87145299,178.42944380,-60.71054458,-69.13906058
68.89605354,179.67440465,177.33150678,31.61879818,33.04438093,46.81539661
2.46789214,-0.44461469,-0.73437164

>  <Name>
ligand

>  <RI>
0

>  <Rbt.Current_Directory>
/home/itssahil/PROJECTS/Mol_Feturizer/New_Systems/rnas/2NPY

>  <Rbt.Executable>
rbdock ($Id: //depot/dev/client3/rdock/2013.1/src/exe/rbdock.cxx#4 $)

>  <Rbt.Library>
libRbt.so (2013.1, Build901 2013/11/27)

>  <Rbt.Parameter_File>
/export/apps/rDock/src/rDock_2013.1_src/data/scripts/dock_solv.prm

>  <Rbt.Receptor>
prm/pocket_docking_3.prm

>  <SCORE>
-4.74934

>  <SCORE.INTER>
7.42092

>  <SCORE.INTER.CONST>
1

>  <SCORE.INTER.POLAR>
0

>  <SCORE.INTER.ROT>
9

>  <SCORE.INTER.SOLV>
5.18813

>  <SCORE.INTER.VDW>
-6.3821

>  <SCORE.INTER.norm>
0.57084

>  <SCORE.INTRA>
-12.1703

>  <SCORE.INTRA.DIHEDRAL>
-24.4171

>  <SCORE.INTRA.DIHEDRAL.0>
25.6828

>  <SCORE.INTRA.POLAR>
0

>  <SCORE.INTRA.POLAR.0>
0

>  <SCORE.INTRA.REPUL>
0

>  <SCORE.INTRA.REPUL.0>
0

>  <SCORE.INTRA.SOLV>
-0.965268

>  <SCORE.INTRA.SOLV.lig_0>
-48.5059

>  <SCORE.INTRA.VDW>
0.520915

>  <SCORE.INTRA.VDW.0>
-0.363643

>  <SCORE.INTRA.norm>
-0.936174

>  <SCORE.RESTR>
0

>  <SCORE.RESTR.CAVITY>
0

>  <SCORE.RESTR.norm>
0

>  <SCORE.SYSTEM>
0

>  <SCORE.SYSTEM.CONST>
0

>  <SCORE.SYSTEM.DIHEDRAL>
0

>  <SCORE.SYSTEM.SOLV>
0

>  <SCORE.SYSTEM.norm>
0

>  <SCORE.heavy>
13

>  <SCORE.norm>
-0.365334

>  <RMSD>
3.562

$$$$
ligand
 OpenBabel11021811453D
libRbt.so/2013.1/901 2013/11/27
 13 12  0  0  0  0  0  0  0  0999 V2000
   29.1753   33.3993   44.7734 O   0  0  0  0  0  0  0  0  0  0  0  0
   29.6905   36.2850   44.7182 O   0  0  0  0  0  0  0  0  0  0  0  0
   30.8604   32.5592   48.6611 P   0  0  2  0  0  0  0  0  0  0  0  0
   32.1093   31.7659   48.8520 O   0  5  0  0  0  0  0  0  0  0  0  0
   29.5543   31.9612   49.0398 O   0  0  0  0  0  0  0  0  0  0  0  0
   30.7580   32.9936   47.1386 O   0  0  0  0  0  0  0  0  0  0  0  0
   30.7715   37.4819   47.0620 O   0  0  0  0  0  0  0  0  0  0  0  0
   30.6841   32.0133   46.0934 C   0  0  0  0  0  0  0  0  0  0  0  0
   29.8477   35.4479   43.5440 C   0  0  0  0  0  0  0  0  0  0  0  0
   30.3241   38.2824   45.9774 C   0  0  0  0  0  0  0  0  0  0  0  0
   30.4367   32.7049   44.7420 C   0  0  0  0  0  0  0  0  0  0  0  0
   28.9209   34.2083   43.5914 C   0  0  0  0  0  0  0  0  0  0  0  0
   30.5113   37.4759   44.6799 C   0  0  0  0  0  0  0  0  0  0  0  0
  1 12  1  0  0  0  0
  1 11  1  0  0  0  0
  2 13  1  0  0  0  0
  2  9  1  0  0  0  0
  3  4  1  6  0  0  0
  3  5  2  0  0  0  0
  3  6  1  0  0  0  0
  6  8  1  0  0  0  0
  7 10  1  0  0  0  0
  8 11  1  0  0  0  0
  9 12  1  0  0  0  0
 10 13  1  0  0  0  0
M  CHG  1   4  -1
M  END
>  <CHROM.1>
-70.35947025,-178.07265578,61.01830285,173.76536641,-61.97204364,-177.99661101
-58.29989258,62.64458779,173.52507385,30.33042225,34.18749101,46.32378932
2.04019699,-1.25085446,-0.20689965

>  <Name>
ligand

>  <RI>
0

>  <Rbt.Current_Directory>
/home/itssahil/PROJECTS/Mol_Feturizer/New_Systems/rnas/2NPY

>  <Rbt.Executable>
rbdock ($Id: //depot/dev/client3/rdock/2013.1/src/exe/rbdock.cxx#4 $)

>  <Rbt.Library>
libRbt.so (2013.1, Build901 2013/11/27)

>  <Rbt.Parameter_File>
/export/apps/rDock/src/rDock_2013.1_src/data/scripts/dock_solv.prm

>  <Rbt.Receptor>
prm/pocket_docking_3.prm

>  <SCORE>
-4.37424

>  <SCORE.INTER>
8.80954

>  <SCORE.INTER.CONST>
1

>  <SCORE.INTER.POLAR>
0

>  <SCORE.INTER.ROT>
9

>  <SCORE.INTER.SOLV>
3.84358

>  <SCORE.INTER.VDW>
-5.00817

>  <SCORE.INTER.norm>
0.677657

>  <SCORE.INTRA>
-13.1838

>  <SCORE.INTRA.DIHEDRAL>
-24.6332

>  <SCORE.INTRA.DIHEDRAL.0>
25.6828

>  <SCORE.INTRA.POLAR>
0

>  <SCORE.INTRA.POLAR.0>
0

>  <SCORE.INTRA.REPUL>
0

>  <SCORE.INTRA.REPUL.0>
0

>  <SCORE.INTRA.SOLV>
-0.497352

>  <SCORE.INTRA.SOLV.lig_0>
-48.5059

>  <SCORE.INTRA.VDW>
-0.618518

>  <SCORE.INTRA.VDW.0>
-0.363643

>  <SCORE.INTRA.norm>
-1.01414

>  <SCORE.RESTR>
0

>  <SCORE.RESTR.CAVITY>
0

>  <SCORE.RESTR.norm>
0

>  <SCORE.SYSTEM>
0

>  <SCORE.SYSTEM.CONST>
0

>  <SCORE.SYSTEM.DIHEDRAL>
0

>  <SCORE.SYSTEM.SOLV>
0

>  <SCORE.SYSTEM.norm>
0

>  <SCORE.heavy>
13

>  <SCORE.norm>
-0.33648

>  <RMSD>
3.576

$$$$
ligand
 OpenBabel11021811453D
libRbt.so/2013.1/901 2013/11/27
 13 12  0  0  0  0  0  0  0  0999 V2000
   31.6403   33.3371   44.6681 O   0  0  0  0  0  0  0  0  0  0  0  0
   30.3703   36.0503   44.0592 O   0  0  0  0  0  0  0  0  0  0  0  0
   31.8969   31.9207   48.3830 P   0  0  2  0  0  0  0  0  0  0  0  0
   31.0612   30.8934   49.0698 O   0  5  0  0  0  0  0  0  0  0  0  0
   31.6518   33.3598   48.6584 O   0  0  0  0  0  0  0  0  0  0  0  0
   31.7776   31.7122   46.8147 O   0  0  0  0  0  0  0  0  0  0  0  0
   30.2597   38.9433   44.4039 O   0  0  0  0  0  0  0  0  0  0  0  0
   30.5048   31.7753   46.1552 C   0  0  0  0  0  0  0  0  0  0  0  0
   30.4000   34.8933   43.1847 C   0  0  0  0  0  0  0  0  0  0  0  0
   29.2316   38.0668   44.8424 C   0  0  0  0  0  0  0  0  0  0  0  0
   30.6882   32.2571   44.7060 C   0  0  0  0  0  0  0  0  0  0  0  0
   31.6768   34.0431   43.3966 C   0  0  0  0  0  0  0  0  0  0  0  0
   29.1876   36.8648   43.8823 C   0  0  0  0  0  0  0  0  0  0  0  0
  1 12  1  0  0  0  0
  1 11  1  0  0  0  0
  2 13  1  0  0  0  0
  2  9  1  0  0  0  0
  3  4  1  1  0  0  0
  3  5  2  0  0  0  0
  3  6  1  0  0  0  0
  6  8  1  0  0  0  0
  7 10  1  0  0  0  0
  8 11  1  0  0  0  0
  9 12  1  0  0  0  0
 10 13  1  0  0  0  0
M  CHG  1   4  -1
M  END
>  <CHROM.1>
71.00233794,179.98223834,58.72586669,151.11737773,-42.05269033,179.95692211
71.35157189,69.57505593,-167.90444718,30.90282515,33.97653203,45.82320136
-0.40546185,1.32614679,-1.78672893

>  <Name>
ligand

>  <RI>
0

>  <Rbt.Current_Directory>
/home/itssahil/PROJECTS/Mol_Feturizer/New_Systems/rnas/2NPY

>  <Rbt.Executable>
rbdock ($Id: //depot/dev/client3/rdock/2013.1/src/exe/rbdock.cxx#4 $)

>  <Rbt.Library>
libRbt.so (2013.1, Build901 2013/11/27)

>  <Rbt.Parameter_File>
/export/apps/rDock/src/rDock_2013.1_src/data/scripts/dock_solv.prm

>  <Rbt.Receptor>
prm/pocket_docking_3.prm

>  <SCORE>
-1.36948

>  <SCORE.INTER>
8.60763

>  <SCORE.INTER.CONST>
1

>  <SCORE.INTER.POLAR>
0

>  <SCORE.INTER.ROT>
9

>  <SCORE.INTER.SOLV>
5.5004

>  <SCORE.INTER.VDW>
-5.69505

>  <SCORE.INTER.norm>
0.662125

>  <SCORE.INTRA>
-9.97711

>  <SCORE.INTRA.DIHEDRAL>
-18.9964

>  <SCORE.INTRA.DIHEDRAL.0>
25.6828

>  <SCORE.INTRA.POLAR>
0

>  <SCORE.INTRA.POLAR.0>
0

>  <SCORE.INTRA.REPUL>
0

>  <SCORE.INTRA.REPUL.0>
0

>  <SCORE.INTRA.SOLV>
0.0513321

>  <SCORE.INTRA.SOLV.lig_0>
-48.5059

>  <SCORE.INTRA.VDW>
-0.504576

>  <SCORE.INTRA.VDW.0>
-0.363643

>  <SCORE.INTRA.norm>
-0.76747

>  <SCORE.RESTR>
0

>  <SCORE.RESTR.CAVITY>
0

>  <SCORE.RESTR.norm>
0

>  <SCORE.SYSTEM>
0

>  <SCORE.SYSTEM.CONST>
0

>  <SCORE.SYSTEM.DIHEDRAL>
0

>  <SCORE.SYSTEM.SOLV>
0

>  <SCORE.SYSTEM.norm>
0

>  <SCORE.heavy>
13

>  <SCORE.norm>
-0.105345

>  <RMSD>
3.622

$$$$
ligand
 OpenBabel11021811453D
libRbt.so/2013.1/901 2013/11/27
 13 12  0  0  0  0  0  0  0  0999 V2000
   30.3598   34.4652   43.9434 O   0  0  0  0  0  0  0  0  0  0  0  0
   29.8172   37.2367   44.8715 O   0  0  0  0  0  0  0  0  0  0  0  0
   29.9423   31.7337   47.1364 P   0  0  2  0  0  0  0  0  0  0  0  0
   28.4772   31.9189   46.9250 O   0  5  0  0  0  0  0  0  0  0  0  0
   30.5316   32.0527   48.4622 O   0  0  0  0  0  0  0  0  0  0  0  0
   30.7273   32.5859   46.0524 O   0  0  0  0  0  0  0  0  0  0  0  0
   28.0376   39.7506   46.8644 O   0  0  0  0  0  0  0  0  0  0  0  0
   30.7669   32.1771   44.6775 C   0  0  0  0  0  0  0  0  0  0  0  0
   29.8349   36.8454   43.4748 C   0  0  0  0  0  0  0  0  0  0  0  0
   28.9331   38.6704   46.6434 C   0  0  0  0  0  0  0  0  0  0  0  0
   31.2501   33.3425   43.7975 C   0  0  0  0  0  0  0  0  0  0  0  0
   30.7902   35.6531   43.2223 C   0  0  0  0  0  0  0  0  0  0  0  0
   28.9183   38.3381   45.1407 C   0  0  0  0  0  0  0  0  0  0  0  0
  1 12  1  0  0  0  0
  1 11  1  0  0  0  0
  2 13  1  0  0  0  0
  2  9  1  0  0  0  0
  3  4  1  1  0  0  0
  3  5  2  0  0  0  0
  3  6  1  0  0  0  0
  6  8  1  0  0  0  0
  7 10  1  0  0  0  0
  8 11  1  0  0  0  0
  9 12  1  0  0  0  0
 10 13  1  0  0  0  0
M  CHG  1   4  -1
M  END
>  <CHROM.1>
-177.08253075,178.71859970,-72.83684897,164.80265533,-59.29574845,-179.20361031
62.67239340,-179.83469467,175.74037092,29.86901971,34.70397649,45.65065486
-1.15844988,1.13772125,-0.55928158

>  <Name>
ligand

>  <RI>
0

>  <Rbt.Current_Directory>
/home/itssahil/PROJECTS/Mol_Feturizer/New_Systems/rnas/2NPY

>  <Rbt.Executable>
rbdock ($Id: //depot/dev/client3/rdock/2013.1/src/exe/rbdock.cxx#4 $)

>  <Rbt.Library>
libRbt.so (2013.1, Build901 2013/11/27)

>  <Rbt.Parameter_File>
/export/apps/rDock/src/rDock_2013.1_src/data/scripts/dock_solv.prm

>  <Rbt.Receptor>
prm/pocket_docking_3.prm

>  <SCORE>
-5.07382

>  <SCORE.INTER>
8.70451

>  <SCORE.INTER.CONST>
1

>  <SCORE.INTER.POLAR>
0

>  <SCORE.INTER.ROT>
9

>  <SCORE.INTER.SOLV>
7.44502

>  <SCORE.INTER.VDW>
-6.27867

>  <SCORE.INTER.norm>
0.669578

>  <SCORE.INTRA>
-13.78

>  <SCORE.INTRA.DIHEDRAL>
-24.0826

>  <SCORE.INTRA.DIHEDRAL.0>
25.6828

>  <SCORE.INTRA.POLAR>
0

>  <SCORE.INTRA.POLAR.0>
0

>  <SCORE.INTRA.REPUL>
0

>  <SCORE.INTRA.REPUL.0>
0

>  <SCORE.INTRA.SOLV>
-1.17851

>  <SCORE.INTRA.SOLV.lig_0>
-48.5059

>  <SCORE.INTRA.VDW>
-1.14949

>  <SCORE.INTRA.VDW.0>
-0.363643

>  <SCORE.INTRA.norm>
-1.06

>  <SCORE.RESTR>
0.00172144

>  <SCORE.RESTR.CAVITY>
0.00172144

>  <SCORE.RESTR.norm>
0.000132418

>  <SCORE.SYSTEM>
0

>  <SCORE.SYSTEM.CONST>
0

>  <SCORE.SYSTEM.DIHEDRAL>
0

>  <SCORE.SYSTEM.SOLV>
0

>  <SCORE.SYSTEM.norm>
0

>  <SCORE.heavy>
13

>  <SCORE.norm>
-0.390294

>  <RMSD>
3.776

$$$$
ligand
 OpenBabel11021811453D
libRbt.so/2013.1/901 2013/11/27
 13 12  0  0  0  0  0  0  0  0999 V2000
   29.7337   31.7765   46.1154 O   0  0  0  0  0  0  0  0  0  0  0  0
   29.3013   34.2514   44.5815 O   0  0  0  0  0  0  0  0  0  0  0  0
   33.1224   33.5227   48.2584 P   0  0  2  0  0  0  0  0  0  0  0  0
   32.3905   34.7868   48.5615 O   0  5  0  0  0  0  0  0  0  0  0  0
   34.3623   33.5783   47.4421 O   0  0  0  0  0  0  0  0  0  0  0  0
   32.1284   32.5156   47.5407 O   0  0  0  0  0  0  0  0  0  0  0  0
   30.5190   36.7325   43.9299 O   0  0  0  0  0  0  0  0  0  0  0  0
   30.9540   32.0333   48.2094 C   0  0  0  0  0  0  0  0  0  0  0  0
   28.2083   33.4377   45.0790 C   0  0  0  0  0  0  0  0  0  0  0  0
   30.1740   35.8067   42.9094 C   0  0  0  0  0  0  0  0  0  0  0  0
   30.1833   31.0722   47.2885 C   0  0  0  0  0  0  0  0  0  0  0  0
   28.6042   32.6606   46.3586 C   0  0  0  0  0  0  0  0  0  0  0  0
   28.9565   34.9976   43.3907 C   0  0  0  0  0  0  0  0  0  0  0  0
  1 12  1  0  0  0  0
  1 11  1  0  0  0  0
  2 13  1  0  0  0  0
  2  9  1  0  0  0  0
  3  4  1  6  0  0  0
  3  5  2  0  0  0  0
  3  6  1  0  0  0  0
  6  8  1  0  0  0  0
  7 10  1  0  0  0  0
  8 11  1  0  0  0  0
  9 12  1  0  0  0  0
 10 13  1  0  0  0  0
M  CHG  1   4  -1
M  END
>  <CHROM.1>
177.36788729,-178.69821095,-62.26379472,-179.68487375,-62.83624350,-179.56220742
-59.58518376,-62.09169920,-74.68395242,30.90331268,33.63758094,46.31216854
2.34445011,-0.52848773,-0.70381330

>  <Name>
ligand

>  <RI>
0

>  <Rbt.Current_Directory>
/home/itssahil/PROJECTS/Mol_Feturizer/New_Systems/rnas/2NPY

>  <Rbt.Executable>
rbdock ($Id: //depot/dev/client3/rdock/2013.1/src/exe/rbdock.cxx#4 $)

>  <Rbt.Library>
libRbt.so (2013.1, Build901 2013/11/27)

>  <Rbt.Parameter_File>
/export/apps/rDock/src/rDock_2013.1_src/data/scripts/dock_solv.prm

>  <Rbt.Receptor>
prm/pocket_docking_3.prm

>  <SCORE>
-5.10078

>  <SCORE.INTER>
8.28032

>  <SCORE.INTER.CONST>
1

>  <SCORE.INTER.POLAR>
0

>  <SCORE.INTER.ROT>
9

>  <SCORE.INTER.SOLV>
2.71194

>  <SCORE.INTER.VDW>
-4.98377

>  <SCORE.INTER.norm>
0.636947

>  <SCORE.INTRA>
-13.3811

>  <SCORE.INTRA.DIHEDRAL>
-24.4913

>  <SCORE.INTRA.DIHEDRAL.0>
25.6828

>  <SCORE.INTRA.POLAR>
0

>  <SCORE.INTRA.POLAR.0>
0

>  <SCORE.INTRA.REPUL>
0

>  <SCORE.INTRA.REPUL.0>
0

>  <SCORE.INTRA.SOLV>
-1.09552

>  <SCORE.INTRA.SOLV.lig_0>
-48.5059

>  <SCORE.INTRA.VDW>
-0.587699

>  <SCORE.INTRA.VDW.0>
-0.363643

>  <SCORE.INTRA.norm>
-1.02931

>  <SCORE.RESTR>
0

>  <SCORE.RESTR.CAVITY>
0

>  <SCORE.RESTR.norm>
0

>  <SCORE.SYSTEM>
0

>  <SCORE.SYSTEM.CONST>
0

>  <SCORE.SYSTEM.DIHEDRAL>
0

>  <SCORE.SYSTEM.SOLV>
0

>  <SCORE.SYSTEM.norm>
0

>  <SCORE.heavy>
13

>  <SCORE.norm>
-0.392368

>  <RMSD>
3.823

$$$$
ligand
 OpenBabel11021811453D
libRbt.so/2013.1/901 2013/11/27
 13 12  0  0  0  0  0  0  0  0999 V2000
   30.7683   31.6660   47.9761 O   0  0  0  0  0  0  0  0  0  0  0  0
   29.3244   33.3875   46.0788 O   0  0  0  0  0  0  0  0  0  0  0  0
   34.7328   32.0374   49.6904 P   0  0  2  0  0  0  0  0  0  0  0  0
   34.5311   33.3513   50.3676 O   0  5  0  0  0  0  0  0  0  0  0  0
   35.7026   31.9386   48.5694 O   0  0  0  0  0  0  0  0  0  0  0  0
   33.3332   31.5193   49.1520 O   0  0  0  0  0  0  0  0  0  0  0  0
   30.2369   36.0759   45.7546 O   0  0  0  0  0  0  0  0  0  0  0  0
   32.1591   31.5712   49.9752 C   0  0  0  0  0  0  0  0  0  0  0  0
   29.4849   31.9607   45.8722 C   0  0  0  0  0  0  0  0  0  0  0  0
   29.0337   35.6287   45.1464 C   0  0  0  0  0  0  0  0  0  0  0  0
   30.9622   30.9678   49.2208 C   0  0  0  0  0  0  0  0  0  0  0  0
   29.6232   31.1962   47.2117 C   0  0  0  0  0  0  0  0  0  0  0  0
   29.1818   34.1270   44.8433 C   0  0  0  0  0  0  0  0  0  0  0  0
  1 12  1  0  0  0  0
  1 11  1  0  0  0  0
  2 13  1  0  0  0  0
  2  9  1  0  0  0  0
  3  4  1  6  0  0  0
  3  5  2  0  0  0  0
  3  6  1  0  0  0  0
  6  8  1  0  0  0  0
  7 10  1  0  0  0  0
  8 11  1  0  0  0  0
  9 12  1  0  0  0  0
 10 13  1  0  0  0  0
M  CHG  1   4  -1
M  END
>  <CHROM.1>
-178.71542157,-179.32883010,-45.45172358,-178.25778289,-56.85845386,-179.53162314
-59.27353065,63.88039220,-177.85502966,31.77694490,32.68483547,47.85959847
2.55088070,-0.46323629,-0.49696022

>  <Name>
ligand

>  <RI>
0

>  <Rbt.Current_Directory>
/home/itssahil/PROJECTS/Mol_Feturizer/New_Systems/rnas/2NPY

>  <Rbt.Executable>
rbdock ($Id: //depot/dev/client3/rdock/2013.1/src/exe/rbdock.cxx#4 $)

>  <Rbt.Library>
libRbt.so (2013.1, Build901 2013/11/27)

>  <Rbt.Parameter_File>
/export/apps/rDock/src/rDock_2013.1_src/data/scripts/dock_solv.prm

>  <Rbt.Receptor>
prm/pocket_docking_4.prm

>  <SCORE>
-8.53987

>  <SCORE.INTER>
5.68201

>  <SCORE.INTER.CONST>
1

>  <SCORE.INTER.POLAR>
0

>  <SCORE.INTER.ROT>
9

>  <SCORE.INTER.SOLV>
6.68739

>  <SCORE.INTER.VDW>
-8.04112

>  <SCORE.INTER.norm>
0.437078

>  <SCORE.INTRA>
-14.2219

>  <SCORE.INTRA.DIHEDRAL>
-25.4177

>  <SCORE.INTRA.DIHEDRAL.0>
25.6828

>  <SCORE.INTRA.POLAR>
0

>  <SCORE.INTRA.POLAR.0>
0

>  <SCORE.INTRA.REPUL>
0

>  <SCORE.INTRA.REPUL.0>
0

>  <SCORE.INTRA.SOLV>
-0.978899

>  <SCORE.INTRA.SOLV.lig_0>
-48.5059

>  <SCORE.INTRA.VDW>
-1.02356

>  <SCORE.INTRA.VDW.0>
-0.363643

>  <SCORE.INTRA.norm>
-1.09399

>  <SCORE.RESTR>
0

>  <SCORE.RESTR.CAVITY>
0

>  <SCORE.RESTR.norm>
0

>  <SCORE.SYSTEM>
0

>  <SCORE.SYSTEM.CONST>
0

>  <SCORE.SYSTEM.DIHEDRAL>
0

>  <SCORE.SYSTEM.SOLV>
0

>  <SCORE.SYSTEM.norm>
0

>  <SCORE.heavy>
13

>  <SCORE.norm>
-0.656913

>  <RMSD>
3.856

$$$$
ligand
 OpenBabel11021811453D
libRbt.so/2013.1/901 2013/11/27
 13 12  0  0  0  0  0  0  0  0999 V2000
   30.7482   32.1267   45.6834 O   0  0  0  0  0  0  0  0  0  0  0  0
   30.2574   32.7091   48.5877 O   0  0  0  0  0  0  0  0  0  0  0  0
   33.9704   31.9510   42.6116 P   0  0  2  0  0  0  0  0  0  0  0  0
   33.7440   32.6641   41.3210 O   0  5  0  0  0  0  0  0  0  0  0  0
   34.6168   30.6135   42.5996 O   0  0  0  0  0  0  0  0  0  0  0  0
   32.5810   31.7981   43.3621 O   0  0  0  0  0  0  0  0  0  0  0  0
   31.1497   33.7085   52.0028 O   0  0  0  0  0  0  0  0  0  0  0  0
   31.7472   32.9384   43.6138 C   0  0  0  0  0  0  0  0  0  0  0  0
   29.9231   31.4613   47.9277 C   0  0  0  0  0  0  0  0  0  0  0  0
   30.8649   33.9137   50.6265 C   0  0  0  0  0  0  0  0  0  0  0  0
   30.4553   32.4975   44.3229 C   0  0  0  0  0  0  0  0  0  0  0  0
   29.5858   31.6730   46.4313 C   0  0  0  0  0  0  0  0  0  0  0  0
   30.5447   32.5464   49.9964 C   0  0  0  0  0  0  0  0  0  0  0  0
  1 12  1  0  0  0  0
  1 11  1  0  0  0  0
  2 13  1  0  0  0  0
  2  9  1  0  0  0  0
  3  4  1  6  0  0  0
  3  5  2  0  0  0  0
  3  6  1  0  0  0  0
  6  8  1  0  0  0  0
  7 10  1  0  0  0  0
  8 11  1  0  0  0  0
  9 12  1  0  0  0  0
 10 13  1  0  0  0  0
M  CHG  1   4  -1
M  END
>  <CHROM.1>
-172.76390033,-179.02296264,-53.51153042,178.71570851,72.05372489,178.53397951
65.77665590,-179.57420244,-179.07120594,31.78232355,32.31690638,45.77740155
1.94606457,0.12277042,1.37668486

>  <Name>
ligand

>  <RI>
0

>  <Rbt.Current_Directory>
/home/itssahil/PROJECTS/Mol_Feturizer/New_Systems/rnas/2NPY

>  <Rbt.Executable>
rbdock ($Id: //depot/dev/client3/rdock/2013.1/src/exe/rbdock.cxx#4 $)

>  <Rbt.Library>
libRbt.so (2013.1, Build901 2013/11/27)

>  <Rbt.Parameter_File>
/export/apps/rDock/src/rDock_2013.1_src/data/scripts/dock_solv.prm

>  <Rbt.Receptor>
prm/pocket_docking_5.prm

>  <SCORE>
-8.23161

>  <SCORE.INTER>
5.81939

>  <SCORE.INTER.CONST>
1

>  <SCORE.INTER.POLAR>
0

>  <SCORE.INTER.ROT>
9

>  <SCORE.INTER.SOLV>
7.23625

>  <SCORE.INTER.VDW>
-8.13249

>  <SCORE.INTER.norm>
0.447645

>  <SCORE.INTRA>
-14.051

>  <SCORE.INTRA.DIHEDRAL>
-24.711

>  <SCORE.INTRA.DIHEDRAL.0>
25.6828

>  <SCORE.INTRA.POLAR>
0

>  <SCORE.INTRA.POLAR.0>
0

>  <SCORE.INTRA.REPUL>
0

>  <SCORE.INTRA.REPUL.0>
0

>  <SCORE.INTRA.SOLV>
-1.37225

>  <SCORE.INTRA.SOLV.lig_0>
-48.5059

>  <SCORE.INTRA.VDW>
-1.00938

>  <SCORE.INTRA.VDW.0>
-0.363643

>  <SCORE.INTRA.norm>
-1.08085

>  <SCORE.RESTR>
0

>  <SCORE.RESTR.CAVITY>
0

>  <SCORE.RESTR.norm>
0

>  <SCORE.SYSTEM>
0

>  <SCORE.SYSTEM.CONST>
0

>  <SCORE.SYSTEM.DIHEDRAL>
0

>  <SCORE.SYSTEM.SOLV>
0

>  <SCORE.SYSTEM.norm>
0

>  <SCORE.heavy>
13

>  <SCORE.norm>
-0.633201

>  <RMSD>
4.020

$$$$
ligand
 OpenBabel11021811453D
libRbt.so/2013.1/901 2013/11/27
 13 12  0  0  0  0  0  0  0  0999 V2000
   29.6199   31.9748   47.2403 O   0  0  0  0  0  0  0  0  0  0  0  0
   29.2174   33.0052   44.5302 O   0  0  0  0  0  0  0  0  0  0  0  0
   33.6497   32.6384   48.7999 P   0  0  2  0  0  0  0  0  0  0  0  0
   34.3752   33.3895   47.7347 O   0  5  0  0  0  0  0  0  0  0  0  0
   34.3525   31.5531   49.5314 O   0  0  0  0  0  0  0  0  0  0  0  0
   32.3316   32.0123   48.1771 O   0  0  0  0  0  0  0  0  0  0  0  0
   31.0885   34.9267   43.7141 O   0  0  0  0  0  0  0  0  0  0  0  0
   31.2456   31.5913   49.0151 C   0  0  0  0  0  0  0  0  0  0  0  0
   28.1113   32.5693   45.3612 C   0  0  0  0  0  0  0  0  0  0  0  0
   30.0883   34.4981   42.8011 C   0  0  0  0  0  0  0  0  0  0  0  0
   30.1245   30.9834   48.1552 C   0  0  0  0  0  0  0  0  0  0  0  0
   28.5482   31.4914   46.3835 C   0  0  0  0  0  0  0  0  0  0  0  0
   28.8551   34.0644   43.6134 C   0  0  0  0  0  0  0  0  0  0  0  0
  1 12  1  0  0  0  0
  1 11  1  0  0  0  0
  2 13  1  0  0  0  0
  2  9  1  0  0  0  0
  3  4  1  6  0  0  0
  3  5  2  0  0  0  0
  3  6  1  0  0  0  0
  6  8  1  0  0  0  0
  7 10  1  0  0  0  0
  8 11  1  0  0  0  0
  9 12  1  0  0  0  0
 10 13  1  0  0  0  0
M  CHG  1   4  -1
M  END
>  <CHROM.1>
-176.25879015,178.29787249,-160.93547847,-178.11222183,-61.41085134,-176.86788089
57.81319626,-58.42807915,-179.82747109,31.16677374,32.67453228,46.73964431
2.32960405,-0.34293335,-0.97049584

>  <Name>
ligand

>  <RI>
0

>  <Rbt.Current_Directory>
/home/itssahil/PROJECTS/Mol_Feturizer/New_Systems/rnas/2NPY

>  <Rbt.Executable>
rbdock ($Id: //depot/dev/client3/rdock/2013.1/src/exe/rbdock.cxx#4 $)

>  <Rbt.Library>
libRbt.so (2013.1, Build901 2013/11/27)

>  <Rbt.Parameter_File>
/export/apps/rDock/src/rDock_2013.1_src/data/scripts/dock_solv.prm

>  <Rbt.Receptor>
prm/pocket_docking_4.prm

>  <SCORE>
-7.81562

>  <SCORE.INTER>
6.542

>  <SCORE.INTER.CONST>
1

>  <SCORE.INTER.POLAR>
0

>  <SCORE.INTER.ROT>
9

>  <SCORE.INTER.SOLV>
6.80848

>  <SCORE.INTER.VDW>
-7.50816

>  <SCORE.INTER.norm>
0.503231

>  <SCORE.INTRA>
-14.3576

>  <SCORE.INTRA.DIHEDRAL>
-25.2749

>  <SCORE.INTRA.DIHEDRAL.0>
25.6828

>  <SCORE.INTRA.POLAR>
0

>  <SCORE.INTRA.POLAR.0>
0

>  <SCORE.INTRA.REPUL>
0

>  <SCORE.INTRA.REPUL.0>
0

>  <SCORE.INTRA.SOLV>
-1.08072

>  <SCORE.INTRA.SOLV.lig_0>
-48.5059

>  <SCORE.INTRA.VDW>
-1.17981

>  <SCORE.INTRA.VDW.0>
-0.363643

>  <SCORE.INTRA.norm>
-1.10443

>  <SCORE.RESTR>
0

>  <SCORE.RESTR.CAVITY>
0

>  <SCORE.RESTR.norm>
0

>  <SCORE.SYSTEM>
0

>  <SCORE.SYSTEM.CONST>
0

>  <SCORE.SYSTEM.DIHEDRAL>
0

>  <SCORE.SYSTEM.SOLV>
0

>  <SCORE.SYSTEM.norm>
0

>  <SCORE.heavy>
13

>  <SCORE.norm>
-0.601202

>  <RMSD>
4.164

$$$$
ligand
 OpenBabel11021811453D
libRbt.so/2013.1/901 2013/11/27
 13 12  0  0  0  0  0  0  0  0999 V2000
   30.4695   32.9430   43.6054 O   0  0  0  0  0  0  0  0  0  0  0  0
   27.9857   32.5069   46.3903 O   0  0  0  0  0  0  0  0  0  0  0  0
   35.1556   31.4258   42.4486 P   0  0  2  0  0  0  0  0  0  0  0  0
   34.7708   30.1790   41.7256 O   0  5  0  0  0  0  0  0  0  0  0  0
   36.4211   31.4541   43.2262 O   0  0  0  0  0  0  0  0  0  0  0  0
   33.9826   31.8252   43.4395 O   0  0  0  0  0  0  0  0  0  0  0  0
   25.2782   32.0711   47.1781 O   0  0  0  0  0  0  0  0  0  0  0  0
   32.6677   32.1212   42.9474 C   0  0  0  0  0  0  0  0  0  0  0  0
   29.0679   32.1483   45.4934 C   0  0  0  0  0  0  0  0  0  0  0  0
   26.3506   31.8358   48.0793 C   0  0  0  0  0  0  0  0  0  0  0  0
   31.7469   32.5151   44.1149 C   0  0  0  0  0  0  0  0  0  0  0  0
   29.5327   33.3538   44.6398 C   0  0  0  0  0  0  0  0  0  0  0  0
   27.5829   31.4200   47.2563 C   0  0  0  0  0  0  0  0  0  0  0  0
  1 12  1  0  0  0  0
  1 11  1  0  0  0  0
  2 13  1  0  0  0  0
  2  9  1  0  0  0  0
  3  4  1  1  0  0  0
  3  5  2  0  0  0  0
  3  6  1  0  0  0  0
  6  8  1  0  0  0  0
  7 10  1  0  0  0  0
  8 11  1  0  0  0  0
  9 12  1  0  0  0  0
 10 13  1  0  0  0  0
M  CHG  1   4  -1
M  END
>  <CHROM.1>
-68.83925235,-174.71078597,-60.74970253,-178.34180765,174.14316458,-176.60051350
-171.22762496,63.46733722,-179.24757460,31.22867789,31.93102987,44.45777094
2.84114472,-0.40107490,2.29085656

>  <Name>
ligand

>  <RI>
0

>  <Rbt.Current_Directory>
/home/itssahil/PROJECTS/Mol_Feturizer/New_Systems/rnas/2NPY

>  <Rbt.Executable>
rbdock ($Id: //depot/dev/client3/rdock/2013.1/src/exe/rbdock.cxx#4 $)

>  <Rbt.Library>
libRbt.so (2013.1, Build901 2013/11/27)

>  <Rbt.Parameter_File>
/export/apps/rDock/src/rDock_2013.1_src/data/scripts/dock_solv.prm

>  <Rbt.Receptor>
prm/pocket_docking_6.prm

>  <SCORE>
-7.6302

>  <SCORE.INTER>
5.39035

>  <SCORE.INTER.CONST>
1

>  <SCORE.INTER.POLAR>
0

>  <SCORE.INTER.ROT>
9

>  <SCORE.INTER.SOLV>
9.72056

>  <SCORE.INTER.VDW>
-9.24662

>  <SCORE.INTER.norm>
0.414642

>  <SCORE.INTRA>
-13.0206

>  <SCORE.INTRA.DIHEDRAL>
-24.5671

>  <SCORE.INTRA.DIHEDRAL.0>
25.6828

>  <SCORE.INTRA.POLAR>
0

>  <SCORE.INTRA.POLAR.0>
0

>  <SCORE.INTRA.REPUL>
0

>  <SCORE.INTRA.REPUL.0>
0

>  <SCORE.INTRA.SOLV>
-1.33434

>  <SCORE.INTRA.SOLV.lig_0>
-48.5059

>  <SCORE.INTRA.VDW>
-0.069848

>  <SCORE.INTRA.VDW.0>
-0.363643

>  <SCORE.INTRA.norm>
-1.00158

>  <SCORE.RESTR>
0

>  <SCORE.RESTR.CAVITY>
0

>  <SCORE.RESTR.norm>
0

>  <SCORE.SYSTEM>
0

>  <SCORE.SYSTEM.CONST>
0

>  <SCORE.SYSTEM.DIHEDRAL>
0

>  <SCORE.SYSTEM.SOLV>
0

>  <SCORE.SYSTEM.norm>
0

>  <SCORE.heavy>
13

>  <SCORE.norm>
-0.586939

>  <RMSD>
4.181

$$$$
ligand
 OpenBabel11021811453D
libRbt.so/2013.1/901 2013/11/27
 13 12  0  0  0  0  0  0  0  0999 V2000
   32.8165   32.8861   43.4722 O   0  0  0  0  0  0  0  0  0  0  0  0
   31.1009   32.2602   45.8788 O   0  0  0  0  0  0  0  0  0  0  0  0
   36.8896   31.5243   43.9968 P   0  0  2  0  0  0  0  0  0  0  0  0
   37.4586   30.5616   43.0095 O   0  5  0  0  0  0  0  0  0  0  0  0
   37.2030   31.3568   45.4393 O   0  0  0  0  0  0  0  0  0  0  0  0
   35.3095   31.5299   43.8537 O   0  0  0  0  0  0  0  0  0  0  0  0
   30.5300   32.9182   48.5776 O   0  0  0  0  0  0  0  0  0  0  0  0
   34.6842   31.6101   42.5647 C   0  0  0  0  0  0  0  0  0  0  0  0
   30.6977   32.0956   44.4951 C   0  0  0  0  0  0  0  0  0  0  0  0
   30.8994   31.5936   48.2222 C   0  0  0  0  0  0  0  0  0  0  0  0
   33.1574   31.7016   42.7271 C   0  0  0  0  0  0  0  0  0  0  0  0
   31.3851   33.1278   43.5678 C   0  0  0  0  0  0  0  0  0  0  0  0
   30.4360   31.3406   46.7765 C   0  0  0  0  0  0  0  0  0  0  0  0
  1 12  1  0  0  0  0
  1 11  1  0  0  0  0
  2 13  1  0  0  0  0
  2  9  1  0  0  0  0
  3  4  1  6  0  0  0
  3  5  2  0  0  0  0
  3  6  1  0  0  0  0
  6  8  1  0  0  0  0
  7 10  1  0  0  0  0
  8 11  1  0  0  0  0
  9 12  1  0  0  0  0
 10 13  1  0  0  0  0
M  CHG  1   4  -1
M  END
>  <CHROM.1>
70.75755015,-179.09559033,-46.50297148,-175.83852802,60.83061891,177.84426528
67.69098959,61.73080519,174.42933780,33.60921018,31.85803430,44.76095191
2.68519773,-0.20265721,1.66301189

>  <Name>
ligand

>  <RI>
0

>  <Rbt.Current_Directory>
/home/itssahil/PROJECTS/Mol_Feturizer/New_Systems/rnas/2NPY

>  <Rbt.Executable>
rbdock ($Id: //depot/dev/client3/rdock/2013.1/src/exe/rbdock.cxx#4 $)

>  <Rbt.Library>
libRbt.so (2013.1, Build901 2013/11/27)

>  <Rbt.Parameter_File>
/export/apps/rDock/src/rDock_2013.1_src/data/scripts/dock_solv.prm

>  <Rbt.Receptor>
prm/pocket_docking_4.prm

>  <SCORE>
-7.87503

>  <SCORE.INTER>
5.2294

>  <SCORE.INTER.CONST>
1

>  <SCORE.INTER.POLAR>
0

>  <SCORE.INTER.ROT>
9

>  <SCORE.INTER.SOLV>
7.8735

>  <SCORE.INTER.VDW>
-8.73823

>  <SCORE.INTER.norm>
0.402262

>  <SCORE.INTRA>
-13.1044

>  <SCORE.INTRA.DIHEDRAL>
-24.5268

>  <SCORE.INTRA.DIHEDRAL.0>
25.6828

>  <SCORE.INTRA.POLAR>
0

>  <SCORE.INTRA.POLAR.0>
0

>  <SCORE.INTRA.REPUL>
0

>  <SCORE.INTRA.REPUL.0>
0

>  <SCORE.INTRA.SOLV>
-0.928813

>  <SCORE.INTRA.SOLV.lig_0>
-48.5059

>  <SCORE.INTRA.VDW>
-0.376634

>  <SCORE.INTRA.VDW.0>
-0.363643

>  <SCORE.INTRA.norm>
-1.00803

>  <SCORE.RESTR>
0

>  <SCORE.RESTR.CAVITY>
0

>  <SCORE.RESTR.norm>
0

>  <SCORE.SYSTEM>
0

>  <SCORE.SYSTEM.CONST>
0

>  <SCORE.SYSTEM.DIHEDRAL>
0

>  <SCORE.SYSTEM.SOLV>
0

>  <SCORE.SYSTEM.norm>
0

>  <SCORE.heavy>
13

>  <SCORE.norm>
-0.605772

>  <RMSD>
4.363

$$$$
ligand
 OpenBabel11021811453D
libRbt.so/2013.1/901 2013/11/27
 13 12  0  0  0  0  0  0  0  0999 V2000
   32.3787   32.3256   44.2567 O   0  0  0  0  0  0  0  0  0  0  0  0
   31.1651   31.9557   46.9168 O   0  0  0  0  0  0  0  0  0  0  0  0
   36.7115   31.7825   44.1070 P   0  0  2  0  0  0  0  0  0  0  0  0
   37.3622   31.2079   42.8938 O   0  5  0  0  0  0  0  0  0  0  0  0
   37.0963   31.2734   45.4485 O   0  0  0  0  0  0  0  0  0  0  0  0
   35.1394   31.6167   43.9713 O   0  0  0  0  0  0  0  0  0  0  0  0
   31.2636   30.5164   49.3949 O   0  0  0  0  0  0  0  0  0  0  0  0
   34.4151   32.2700   42.9189 C   0  0  0  0  0  0  0  0  0  0  0  0
   30.4349   32.5043   45.7898 C   0  0  0  0  0  0  0  0  0  0  0  0
   31.5852   31.8980   49.3244 C   0  0  0  0  0  0  0  0  0  0  0  0
   32.9254   31.8948   42.9958 C   0  0  0  0  0  0  0  0  0  0  0  0
   30.9782   31.9767   44.4390 C   0  0  0  0  0  0  0  0  0  0  0  0
   30.7602   32.5225   48.1850 C   0  0  0  0  0  0  0  0  0  0  0  0
  1 12  1  0  0  0  0
  1 11  1  0  0  0  0
  2 13  1  0  0  0  0
  2  9  1  0  0  0  0
  3  4  1  6  0  0  0
  3  5  2  0  0  0  0
  3  6  1  0  0  0  0
  6  8  1  0  0  0  0
  7 10  1  0  0  0  0
  8 11  1  0  0  0  0
  9 12  1  0  0  0  0
 10 13  1  0  0  0  0
M  CHG  1   4  -1
M  END
>  <CHROM.1>
-178.17578609,-179.60479525,-63.09577859,177.89303808,60.93250591,174.73212237
-59.96141621,-64.87540552,-178.22078347,33.57140242,31.80368089,45.33008398
2.50771525,-0.15878004,1.73275916

>  <Name>
ligand

>  <RI>
0

>  <Rbt.Current_Directory>
/home/itssahil/PROJECTS/Mol_Feturizer/New_Systems/rnas/2NPY

>  <Rbt.Executable>
rbdock ($Id: //depot/dev/client3/rdock/2013.1/src/exe/rbdock.cxx#4 $)

>  <Rbt.Library>
libRbt.so (2013.1, Build901 2013/11/27)

>  <Rbt.Parameter_File>
/export/apps/rDock/src/rDock_2013.1_src/data/scripts/dock_solv.prm

>  <Rbt.Receptor>
prm/pocket_docking_4.prm

>  <SCORE>
-8.42434

>  <SCORE.INTER>
5.90843

>  <SCORE.INTER.CONST>
1

>  <SCORE.INTER.POLAR>
0

>  <SCORE.INTER.ROT>
9

>  <SCORE.INTER.SOLV>
5.9905

>  <SCORE.INTER.VDW>
-7.65788

>  <SCORE.INTER.norm>
0.454495

>  <SCORE.INTRA>
-14.3328

>  <SCORE.INTRA.DIHEDRAL>
-25.2985

>  <SCORE.INTRA.DIHEDRAL.0>
25.6828

>  <SCORE.INTRA.POLAR>
0

>  <SCORE.INTRA.POLAR.0>
0

>  <SCORE.INTRA.REPUL>
0

>  <SCORE.INTRA.REPUL.0>
0

>  <SCORE.INTRA.SOLV>
-1.09817

>  <SCORE.INTRA.SOLV.lig_0>
-48.5059

>  <SCORE.INTRA.VDW>
-1.13445

>  <SCORE.INTRA.VDW.0>
-0.363643

>  <SCORE.INTRA.norm>
-1.10252

>  <SCORE.RESTR>
0

>  <SCORE.RESTR.CAVITY>
0

>  <SCORE.RESTR.norm>
0

>  <SCORE.SYSTEM>
0

>  <SCORE.SYSTEM.CONST>
0

>  <SCORE.SYSTEM.DIHEDRAL>
0

>  <SCORE.SYSTEM.SOLV>
0

>  <SCORE.SYSTEM.norm>
0

>  <SCORE.heavy>
13

>  <SCORE.norm>
-0.648026

>  <RMSD>
4.425

$$$$
ligand
 OpenBabel11021811453D
libRbt.so/2013.1/901 2013/11/27
 13 12  0  0  0  0  0  0  0  0999 V2000
   32.4773   31.5840   43.5705 O   0  0  0  0  0  0  0  0  0  0  0  0
   31.3678   32.1669   46.2133 O   0  0  0  0  0  0  0  0  0  0  0  0
   36.7437   30.4801   43.5964 P   0  0  2  0  0  0  0  0  0  0  0  0
   37.2915   30.7954   44.9476 O   0  5  0  0  0  0  0  0  0  0  0  0
   37.5563   30.7901   42.3920 O   0  0  0  0  0  0  0  0  0  0  0  0
   35.3473   31.2138   43.4264 O   0  0  0  0  0  0  0  0  0  0  0  0
   32.0730   33.2041   48.7508 O   0  0  0  0  0  0  0  0  0  0  0  0
   34.4638   30.8809   42.3459 C   0  0  0  0  0  0  0  0  0  0  0  0
   30.5490   32.1779   45.0160 C   0  0  0  0  0  0  0  0  0  0  0  0
   31.5490   31.8890   48.6354 C   0  0  0  0  0  0  0  0  0  0  0  0
   33.2364   31.8077   42.3671 C   0  0  0  0  0  0  0  0  0  0  0  0
   31.3783   32.5194   43.7536 C   0  0  0  0  0  0  0  0  0  0  0  0
   30.6183   31.8520   47.4102 C   0  0  0  0  0  0  0  0  0  0  0  0
  1 12  1  0  0  0  0
  1 11  1  0  0  0  0
  2 13  1  0  0  0  0
  2  9  1  0  0  0  0
  3  4  1  1  0  0  0
  3  5  2  0  0  0  0
  3  6  1  0  0  0  0
  6  8  1  0  0  0  0
  7 10  1  0  0  0  0
  8 11  1  0  0  0  0
  9 12  1  0  0  0  0
 10 13  1  0  0  0  0
M  CHG  1   4  -1
M  END
>  <CHROM.1>
176.58036981,-178.83344815,-167.19772465,-176.07145800,-64.26878869,179.92804376
57.55791712,61.18972407,173.49414709,33.75179369,31.54883633,44.70974980
2.51032922,-0.22686424,1.48800334

>  <Name>
ligand

>  <RI>
0

>  <Rbt.Current_Directory>
/home/itssahil/PROJECTS/Mol_Feturizer/New_Systems/rnas/2NPY

>  <Rbt.Executable>
rbdock ($Id: //depot/dev/client3/rdock/2013.1/src/exe/rbdock.cxx#4 $)

>  <Rbt.Library>
libRbt.so (2013.1, Build901 2013/11/27)

>  <Rbt.Parameter_File>
/export/apps/rDock/src/rDock_2013.1_src/data/scripts/dock_solv.prm

>  <Rbt.Receptor>
prm/pocket_docking_5.prm

>  <SCORE>
-9.99026

>  <SCORE.INTER>
4.24906

>  <SCORE.INTER.CONST>
1

>  <SCORE.INTER.POLAR>
0

>  <SCORE.INTER.ROT>
9

>  <SCORE.INTER.SOLV>
12.6279

>  <SCORE.INTER.VDW>
-10.9766

>  <SCORE.INTER.norm>
0.326851

>  <SCORE.INTRA>
-14.2393

>  <SCORE.INTRA.DIHEDRAL>
-25.1495

>  <SCORE.INTRA.DIHEDRAL.0>
25.6828

>  <SCORE.INTRA.POLAR>
0

>  <SCORE.INTRA.POLAR.0>
0

>  <SCORE.INTRA.REPUL>
0

>  <SCORE.INTRA.REPUL.0>
0

>  <SCORE.INTRA.SOLV>
-1.08312

>  <SCORE.INTRA.SOLV.lig_0>
-48.5059

>  <SCORE.INTRA.VDW>
-1.12299

>  <SCORE.INTRA.VDW.0>
-0.363643

>  <SCORE.INTRA.norm>
-1.09533

>  <SCORE.RESTR>
0

>  <SCORE.RESTR.CAVITY>
0

>  <SCORE.RESTR.norm>
0

>  <SCORE.SYSTEM>
0

>  <SCORE.SYSTEM.CONST>
0

>  <SCORE.SYSTEM.DIHEDRAL>
0

>  <SCORE.SYSTEM.SOLV>
0

>  <SCORE.SYSTEM.norm>
0

>  <SCORE.heavy>
13

>  <SCORE.norm>
-0.768481

>  <RMSD>
4.489

$$$$
ligand
 OpenBabel11021811453D
libRbt.so/2013.1/901 2013/11/27
 13 12  0  0  0  0  0  0  0  0999 V2000
   31.8798   32.0539   44.6480 O   0  0  0  0  0  0  0  0  0  0  0  0
   29.2781   31.6143   47.3301 O   0  0  0  0  0  0  0  0  0  0  0  0
   35.0913   30.5581   42.0890 P   0  0  2  0  0  0  0  0  0  0  0  0
   36.1667   31.1797   42.9153 O   0  5  0  0  0  0  0  0  0  0  0  0
   35.0783   30.7870   40.6212 O   0  0  0  0  0  0  0  0  0  0  0  0
   33.6819   31.0200   42.6522 O   0  0  0  0  0  0  0  0  0  0  0  0
   27.8866   30.6828   50.5938 O   0  0  0  0  0  0  0  0  0  0  0  0
   33.3343   32.4103   42.7252 C   0  0  0  0  0  0  0  0  0  0  0  0
   30.5924   31.5824   46.7170 C   0  0  0  0  0  0  0  0  0  0  0  0
   27.8406   31.1396   49.2497 C   0  0  0  0  0  0  0  0  0  0  0  0
   31.9175   32.5673   43.3029 C   0  0  0  0  0  0  0  0  0  0  0  0
   30.5667   32.1317   45.2695 C   0  0  0  0  0  0  0  0  0  0  0  0
   29.2729   31.1122   48.6871 C   0  0  0  0  0  0  0  0  0  0  0  0
  1 12  1  0  0  0  0
  1 11  1  0  0  0  0
  2 13  1  0  0  0  0
  2  9  1  0  0  0  0
  3  4  1  1  0  0  0
  3  5  2  0  0  0  0
  3  6  1  0  0  0  0
  6  8  1  0  0  0  0
  7 10  1  0  0  0  0
  8 11  1  0  0  0  0
  9 12  1  0  0  0  0
 10 13  1  0  0  0  0
M  CHG  1   4  -1
M  END
>  <CHROM.1>
-179.30781544,-178.30254488,58.53980267,179.83992868,62.60555692,-179.72564130
-178.08570892,-178.06983854,-178.66678540,32.03981016,31.36497856,44.87441644
0.69586418,0.50576093,-1.06422213

>  <Name>
ligand

>  <RI>
0

>  <Rbt.Current_Directory>
/home/itssahil/PROJECTS/Mol_Feturizer/New_Systems/rnas/2NPY

>  <Rbt.Executable>
rbdock ($Id: //depot/dev/client3/rdock/2013.1/src/exe/rbdock.cxx#4 $)

>  <Rbt.Library>
libRbt.so (2013.1, Build901 2013/11/27)

>  <Rbt.Parameter_File>
/export/apps/rDock/src/rDock_2013.1_src/data/scripts/dock_solv.prm

>  <Rbt.Receptor>
prm/pocket_docking_6.prm

>  <SCORE>
-10.3822

>  <SCORE.INTER>
3.81627

>  <SCORE.INTER.CONST>
1

>  <SCORE.INTER.POLAR>
0

>  <SCORE.INTER.ROT>
9

>  <SCORE.INTER.SOLV>
7.85384

>  <SCORE.INTER.VDW>
-9.67377

>  <SCORE.INTER.norm>
0.293559

>  <SCORE.INTRA>
-14.1985

>  <SCORE.INTRA.DIHEDRAL>
-25.5277

>  <SCORE.INTRA.DIHEDRAL.0>
25.6828

>  <SCORE.INTRA.POLAR>
0

>  <SCORE.INTRA.POLAR.0>
0

>  <SCORE.INTRA.REPUL>
0

>  <SCORE.INTRA.REPUL.0>
0

>  <SCORE.INTRA.SOLV>
-1.04158

>  <SCORE.INTRA.SOLV.lig_0>
-48.5059

>  <SCORE.INTRA.VDW>
-0.913828

>  <SCORE.INTRA.VDW.0>
-0.363643

>  <SCORE.INTRA.norm>
-1.09219

>  <SCORE.RESTR>
0

>  <SCORE.RESTR.CAVITY>
0

>  <SCORE.RESTR.norm>
0

>  <SCORE.SYSTEM>
0

>  <SCORE.SYSTEM.CONST>
0

>  <SCORE.SYSTEM.DIHEDRAL>
0

>  <SCORE.SYSTEM.SOLV>
0

>  <SCORE.SYSTEM.norm>
0

>  <SCORE.heavy>
13

>  <SCORE.norm>
-0.79863

>  <RMSD>
4.537

$$$$
ligand
 OpenBabel11021811453D
libRbt.so/2013.1/901 2013/11/27
 13 12  0  0  0  0  0  0  0  0999 V2000
   31.3173   31.7712   45.0758 O   0  0  0  0  0  0  0  0  0  0  0  0
   31.2068   31.5244   48.0157 O   0  0  0  0  0  0  0  0  0  0  0  0
   35.2116   31.4206   42.9924 P   0  0  2  0  0  0  0  0  0  0  0  0
   36.3359   31.6296   43.9504 O   0  5  0  0  0  0  0  0  0  0  0  0
   35.3331   31.9372   41.6049 O   0  0  0  0  0  0  0  0  0  0  0  0
   33.8889   32.0390   43.6132 O   0  0  0  0  0  0  0  0  0  0  0  0
   32.6648   32.2876   50.3084 O   0  0  0  0  0  0  0  0  0  0  0  0
   32.6087   31.8042   43.0091 C   0  0  0  0  0  0  0  0  0  0  0  0
   30.0302   31.4376   47.1717 C   0  0  0  0  0  0  0  0  0  0  0  0
   32.3581   30.9188   50.0856 C   0  0  0  0  0  0  0  0  0  0  0  0
   31.5051   32.4831   43.8380 C   0  0  0  0  0  0  0  0  0  0  0  0
   30.1956   32.2541   45.8664 C   0  0  0  0  0  0  0  0  0  0  0  0
   31.0457   30.8481   49.2846 C   0  0  0  0  0  0  0  0  0  0  0  0
  1 12  1  0  0  0  0
  1 11  1  0  0  0  0
  2 13  1  0  0  0  0
  2  9  1  0  0  0  0
  3  4  1  1  0  0  0
  3  5  2  0  0  0  0
  3  6  1  0  0  0  0
  6  8  1  0  0  0  0
  7 10  1  0  0  0  0
  8 11  1  0  0  0  0
  9 12  1  0  0  0  0
 10 13  1  0  0  0  0
M  CHG  1   4  -1
M  END
>  <CHROM.1>
179.09379491,176.87295809,-170.24694085,178.31192995,-71.54285458,175.92793284
60.50504188,60.35137064,-173.83355846,32.85119688,31.70378876,45.51500854
2.08980545,-0.08135477,1.65711732

>  <Name>
ligand

>  <RI>
0

>  <Rbt.Current_Directory>
/home/itssahil/PROJECTS/Mol_Feturizer/New_Systems/rnas/2NPY

>  <Rbt.Executable>
rbdock ($Id: //depot/dev/client3/rdock/2013.1/src/exe/rbdock.cxx#4 $)

>  <Rbt.Library>
libRbt.so (2013.1, Build901 2013/11/27)

>  <Rbt.Parameter_File>
/export/apps/rDock/src/rDock_2013.1_src/data/scripts/dock_solv.prm

>  <Rbt.Receptor>
prm/pocket_docking_4.prm

>  <SCORE>
-9.52158

>  <SCORE.INTER>
4.49787

>  <SCORE.INTER.CONST>
1

>  <SCORE.INTER.POLAR>
0

>  <SCORE.INTER.ROT>
9

>  <SCORE.INTER.SOLV>
7.19396

>  <SCORE.INTER.VDW>
-8.99941

>  <SCORE.INTER.norm>
0.34599

>  <SCORE.INTRA>
-14.0194

>  <SCORE.INTRA.DIHEDRAL>
-24.8074

>  <SCORE.INTRA.DIHEDRAL.0>
25.6828

>  <SCORE.INTRA.POLAR>
0

>  <SCORE.INTRA.POLAR.0>
0

>  <SCORE.INTRA.REPUL>
0

>  <SCORE.INTRA.REPUL.0>
0

>  <SCORE.INTRA.SOLV>
-1.10841

>  <SCORE.INTRA.SOLV.lig_0>
-48.5059

>  <SCORE.INTRA.VDW>
-1.06152

>  <SCORE.INTRA.VDW.0>
-0.363643

>  <SCORE.INTRA.norm>
-1.07842

>  <SCORE.RESTR>
0

>  <SCORE.RESTR.CAVITY>
0

>  <SCORE.RESTR.norm>
0

>  <SCORE.SYSTEM>
0

>  <SCORE.SYSTEM.CONST>
0

>  <SCORE.SYSTEM.DIHEDRAL>
0

>  <SCORE.SYSTEM.SOLV>
0

>  <SCORE.SYSTEM.norm>
0

>  <SCORE.heavy>
13

>  <SCORE.norm>
-0.732429

>  <RMSD>
4.553

$$$$
ligand
 OpenBabel11021811453D
libRbt.so/2013.1/901 2013/11/27
 13 12  0  0  0  0  0  0  0  0999 V2000
   30.9423   32.4271   45.5424 O   0  0  0  0  0  0  0  0  0  0  0  0
   30.8362   32.8319   48.3729 O   0  0  0  0  0  0  0  0  0  0  0  0
   34.2581   31.8785   41.7666 P   0  0  2  0  0  0  0  0  0  0  0  0
   34.2303   31.1564   40.4615 O   0  5  0  0  0  0  0  0  0  0  0  0
   35.4014   31.6658   42.6910 O   0  0  0  0  0  0  0  0  0  0  0  0
   32.9320   31.5376   42.5682 O   0  0  0  0  0  0  0  0  0  0  0  0
   33.2973   30.7958   50.1765 O   0  0  0  0  0  0  0  0  0  0  0  0
   32.5142   32.3402   43.6818 C   0  0  0  0  0  0  0  0  0  0  0  0
   29.6153   32.5684   47.6351 C   0  0  0  0  0  0  0  0  0  0  0  0
   32.7209   31.9986   49.6883 C   0  0  0  0  0  0  0  0  0  0  0  0
   31.2432   31.7441   44.3105 C   0  0  0  0  0  0  0  0  0  0  0  0
   29.8906   31.7938   46.3229 C   0  0  0  0  0  0  0  0  0  0  0  0
   31.4333   31.6361   48.9271 C   0  0  0  0  0  0  0  0  0  0  0  0
  1 12  1  0  0  0  0
  1 11  1  0  0  0  0
  2 13  1  0  0  0  0
  2  9  1  0  0  0  0
  3  4  1  6  0  0  0
  3  5  2  0  0  0  0
  3  6  1  0  0  0  0
  6  8  1  0  0  0  0
  7 10  1  0  0  0  0
  8 11  1  0  0  0  0
  9 12  1  0  0  0  0
 10 13  1  0  0  0  0
M  CHG  1   4  -1
M  END
>  <CHROM.1>
179.80388078,179.84708990,-163.57920175,-177.17394078,171.31570398,-68.84336386
-50.40619177,-178.08087328,-170.34510139,32.45419226,31.86742354,45.21339318
1.93938765,-0.22348929,1.61680691

>  <Name>
ligand

>  <RI>
0

>  <Rbt.Current_Directory>
/home/itssahil/PROJECTS/Mol_Feturizer/New_Systems/rnas/2NPY

>  <Rbt.Executable>
rbdock ($Id: //depot/dev/client3/rdock/2013.1/src/exe/rbdock.cxx#4 $)

>  <Rbt.Library>
libRbt.so (2013.1, Build901 2013/11/27)

>  <Rbt.Parameter_File>
/export/apps/rDock/src/rDock_2013.1_src/data/scripts/dock_solv.prm

>  <Rbt.Receptor>
prm/pocket_docking_4.prm

>  <SCORE>
-7.30913

>  <SCORE.INTER>
5.61434

>  <SCORE.INTER.CONST>
1

>  <SCORE.INTER.POLAR>
0

>  <SCORE.INTER.ROT>
9

>  <SCORE.INTER.SOLV>
7.12591

>  <SCORE.INTER.VDW>
-8.23241

>  <SCORE.INTER.norm>
0.431872

>  <SCORE.INTRA>
-12.9235

>  <SCORE.INTRA.DIHEDRAL>
-24.0198

>  <SCORE.INTRA.DIHEDRAL.0>
25.6828

>  <SCORE.INTRA.POLAR>
0

>  <SCORE.INTRA.POLAR.0>
0

>  <SCORE.INTRA.REPUL>
0

>  <SCORE.INTRA.REPUL.0>
0

>  <SCORE.INTRA.SOLV>
-1.3354

>  <SCORE.INTRA.SOLV.lig_0>
-48.5059

>  <SCORE.INTRA.VDW>
-0.245888

>  <SCORE.INTRA.VDW.0>
-0.363643

>  <SCORE.INTRA.norm>
-0.994113

>  <SCORE.RESTR>
0

>  <SCORE.RESTR.CAVITY>
0

>  <SCORE.RESTR.norm>
0

>  <SCORE.SYSTEM>
0

>  <SCORE.SYSTEM.CONST>
0

>  <SCORE.SYSTEM.DIHEDRAL>
0

>  <SCORE.SYSTEM.SOLV>
0

>  <SCORE.SYSTEM.norm>
0

>  <SCORE.heavy>
13

>  <SCORE.norm>
-0.56224

>  <RMSD>
4.615

$$$$
ligand
 OpenBabel11021811453D
libRbt.so/2013.1/901 2013/11/27
 13 12  0  0  0  0  0  0  0  0999 V2000
   31.3134   31.8226   45.3553 O   0  0  0  0  0  0  0  0  0  0  0  0
   31.4217   31.6081   48.2709 O   0  0  0  0  0  0  0  0  0  0  0  0
   34.0801   30.5718   42.1583 P   0  0  2  0  0  0  0  0  0  0  0  0
   35.2854   30.8780   42.9821 O   0  5  0  0  0  0  0  0  0  0  0  0
   33.9680   31.1455   40.7926 O   0  0  0  0  0  0  0  0  0  0  0  0
   32.7852   31.0106   42.9633 O   0  0  0  0  0  0  0  0  0  0  0  0
   32.8718   32.6810   50.4407 O   0  0  0  0  0  0  0  0  0  0  0  0
   32.5831   32.3775   43.3504 C   0  0  0  0  0  0  0  0  0  0  0  0
   30.2525   31.2055   47.5127 C   0  0  0  0  0  0  0  0  0  0  0  0
   32.8844   31.2809   50.2023 C   0  0  0  0  0  0  0  0  0  0  0  0
   31.2456   32.5192   44.0965 C   0  0  0  0  0  0  0  0  0  0  0  0
   30.1291   31.9902   46.1834 C   0  0  0  0  0  0  0  0  0  0  0  0
   31.5555   30.9001   49.5257 C   0  0  0  0  0  0  0  0  0  0  0  0
  1 12  1  0  0  0  0
  1 11  1  0  0  0  0
  2 13  1  0  0  0  0
  2  9  1  0  0  0  0
  3  4  1  1  0  0  0
  3  5  2  0  0  0  0
  3  6  1  0  0  0  0
  6  8  1  0  0  0  0
  7 10  1  0  0  0  0
  8 11  1  0  0  0  0
  9 12  1  0  0  0  0
 10 13  1  0  0  0  0
M  CHG  1   4  -1
M  END
>  <CHROM.1>
179.26869505,174.49315288,60.71433182,179.22337455,66.89879873,179.41258244
57.62083531,60.30122927,175.29694687,32.51042332,31.45947165,45.36634026
1.85511603,-0.22060567,1.54519519

>  <Name>
ligand

>  <RI>
0

>  <Rbt.Current_Directory>
/home/itssahil/PROJECTS/Mol_Feturizer/New_Systems/rnas/2NPY

>  <Rbt.Executable>
rbdock ($Id: //depot/dev/client3/rdock/2013.1/src/exe/rbdock.cxx#4 $)

>  <Rbt.Library>
libRbt.so (2013.1, Build901 2013/11/27)

>  <Rbt.Parameter_File>
/export/apps/rDock/src/rDock_2013.1_src/data/scripts/dock_solv.prm

>  <Rbt.Receptor>
prm/pocket_docking_4.prm

>  <SCORE>
-10.8335

>  <SCORE.INTER>
3.21553

>  <SCORE.INTER.CONST>
1

>  <SCORE.INTER.POLAR>
0

>  <SCORE.INTER.ROT>
9

>  <SCORE.INTER.SOLV>
12.2522

>  <SCORE.INTER.VDW>
-11.5404

>  <SCORE.INTER.norm>
0.247348

>  <SCORE.INTRA>
-14.049

>  <SCORE.INTRA.DIHEDRAL>
-25.1679

>  <SCORE.INTRA.DIHEDRAL.0>
25.6828

>  <SCORE.INTRA.POLAR>
0

>  <SCORE.INTRA.POLAR.0>
0

>  <SCORE.INTRA.REPUL>
0

>  <SCORE.INTRA.REPUL.0>
0

>  <SCORE.INTRA.SOLV>
-0.640623

>  <SCORE.INTRA.SOLV.lig_0>
-48.5059

>  <SCORE.INTRA.VDW>
-1.14475

>  <SCORE.INTRA.VDW.0>
-0.363643

>  <SCORE.INTRA.norm>
-1.0807

>  <SCORE.RESTR>
0

>  <SCORE.RESTR.CAVITY>
0

>  <SCORE.RESTR.norm>
0

>  <SCORE.SYSTEM>
0

>  <SCORE.SYSTEM.CONST>
0

>  <SCORE.SYSTEM.DIHEDRAL>
0

>  <SCORE.SYSTEM.SOLV>
0

>  <SCORE.SYSTEM.norm>
0

>  <SCORE.heavy>
13

>  <SCORE.norm>
-0.833347

>  <RMSD>
4.668

$$$$
ligand
 OpenBabel11021811453D
libRbt.so/2013.1/901 2013/11/27
 13 12  0  0  0  0  0  0  0  0999 V2000
   30.6592   31.8238   44.4720 O   0  0  0  0  0  0  0  0  0  0  0  0
   29.2772   30.9608   46.9180 O   0  0  0  0  0  0  0  0  0  0  0  0
   34.6246   31.6079   41.3403 P   0  0  2  0  0  0  0  0  0  0  0  0
   35.6144   30.9698   42.2560 O   0  5  0  0  0  0  0  0  0  0  0  0
   35.0999   32.5687   40.3118 O   0  0  0  0  0  0  0  0  0  0  0  0
   33.5272   32.3521   42.2116 O   0  0  0  0  0  0  0  0  0  0  0  0
   29.5006   29.8147   49.4889 O   0  0  0  0  0  0  0  0  0  0  0  0
   32.6426   31.6183   43.0706 C   0  0  0  0  0  0  0  0  0  0  0  0
   28.6371   31.7853   45.9107 C   0  0  0  0  0  0  0  0  0  0  0  0
   30.4469   30.7820   49.0573 C   0  0  0  0  0  0  0  0  0  0  0  0
   31.6391   32.5775   43.7330 C   0  0  0  0  0  0  0  0  0  0  0  0
   29.6624   32.6494   45.1362 C   0  0  0  0  0  0  0  0  0  0  0  0
   29.7484   31.7195   48.0564 C   0  0  0  0  0  0  0  0  0  0  0  0
  1 12  1  0  0  0  0
  1 11  1  0  0  0  0
  2 13  1  0  0  0  0
  2  9  1  0  0  0  0
  3  4  1  1  0  0  0
  3  5  2  0  0  0  0
  3  6  1  0  0  0  0
  6  8  1  0  0  0  0
  7 10  1  0  0  0  0
  8 11  1  0  0  0  0
  9 12  1  0  0  0  0
 10 13  1  0  0  0  0
M  CHG  1   4  -1
M  END
>  <CHROM.1>
179.90259677,-178.43333077,-64.96179211,-176.97678556,173.45441560,72.21874579
59.08793196,-60.48705276,-179.97696553,31.89947008,31.61881914,44.46388006
2.29371220,-0.37030115,2.01068074

>  <Name>
ligand

>  <RI>
0

>  <Rbt.Current_Directory>
/home/itssahil/PROJECTS/Mol_Feturizer/New_Systems/rnas/2NPY

>  <Rbt.Executable>
rbdock ($Id: //depot/dev/client3/rdock/2013.1/src/exe/rbdock.cxx#4 $)

>  <Rbt.Library>
libRbt.so (2013.1, Build901 2013/11/27)

>  <Rbt.Parameter_File>
/export/apps/rDock/src/rDock_2013.1_src/data/scripts/dock_solv.prm

>  <Rbt.Receptor>
prm/pocket_docking_5.prm

>  <SCORE>
-8.98473

>  <SCORE.INTER>
4.26971

>  <SCORE.INTER.CONST>
1

>  <SCORE.INTER.POLAR>
0

>  <SCORE.INTER.ROT>
9

>  <SCORE.INTER.SOLV>
7.00971

>  <SCORE.INTER.VDW>
-9.0901

>  <SCORE.INTER.norm>
0.328439

>  <SCORE.INTRA>
-13.2544

>  <SCORE.INTRA.DIHEDRAL>
-24.6133

>  <SCORE.INTRA.DIHEDRAL.0>
25.6828

>  <SCORE.INTRA.POLAR>
0

>  <SCORE.INTRA.POLAR.0>
0

>  <SCORE.INTRA.REPUL>
0

>  <SCORE.INTRA.REPUL.0>
0

>  <SCORE.INTRA.SOLV>
-1.15368

>  <SCORE.INTRA.SOLV.lig_0>
-48.5059

>  <SCORE.INTRA.VDW>
-0.370939

>  <SCORE.INTRA.VDW.0>
-0.363643

>  <SCORE.INTRA.norm>
-1.01957

>  <SCORE.RESTR>
0

>  <SCORE.RESTR.CAVITY>
0

>  <SCORE.RESTR.norm>
0

>  <SCORE.SYSTEM>
0

>  <SCORE.SYSTEM.CONST>
0

>  <SCORE.SYSTEM.DIHEDRAL>
0

>  <SCORE.SYSTEM.SOLV>
0

>  <SCORE.SYSTEM.norm>
0

>  <SCORE.heavy>
13

>  <SCORE.norm>
-0.691133

>  <RMSD>
4.683

$$$$
ligand
 OpenBabel11021811453D
libRbt.so/2013.1/901 2013/11/27
 13 12  0  0  0  0  0  0  0  0999 V2000
   28.4879   32.0590   47.6708 O   0  0  0  0  0  0  0  0  0  0  0  0
   29.7327   32.6421   50.1948 O   0  0  0  0  0  0  0  0  0  0  0  0
   30.6461   33.4656   44.0680 P   0  0  2  0  0  0  0  0  0  0  0  0
   32.1282   33.3340   44.1754 O   0  5  0  0  0  0  0  0  0  0  0  0
   30.0288   34.8149   44.1420 O   0  0  0  0  0  0  0  0  0  0  0  0
   29.9705   32.5741   45.1932 O   0  0  0  0  0  0  0  0  0  0  0  0
   31.0745   35.1421   50.2955 O   0  0  0  0  0  0  0  0  0  0  0  0
   28.5450   32.4253   45.2619 C   0  0  0  0  0  0  0  0  0  0  0  0
   28.4791   31.9136   50.1485 C   0  0  0  0  0  0  0  0  0  0  0  0
   31.2112   34.2058   51.3547 C   0  0  0  0  0  0  0  0  0  0  0  0
   28.1726   31.4596   46.3997 C   0  0  0  0  0  0  0  0  0  0  0  0
   28.2952   31.1675   48.8042 C   0  0  0  0  0  0  0  0  0  0  0  0
   29.9171   33.3759   51.4281 C   0  0  0  0  0  0  0  0  0  0  0  0
  1 12  1  0  0  0  0
  1 11  1  0  0  0  0
  2 13  1  0  0  0  0
  2  9  1  0  0  0  0
  3  4  1  1  0  0  0
  3  5  2  0  0  0  0
  3  6  1  0  0  0  0
  6  8  1  0  0  0  0
  7 10  1  0  0  0  0
  8 11  1  0  0  0  0
  9 12  1  0  0  0  0
 10 13  1  0  0  0  0
M  CHG  1   4  -1
M  END
>  <CHROM.1>
-172.95895255,-175.59012547,-175.06996942,177.29790287,67.82494396,178.59631505
-51.87213893,62.05520344,-174.17659146,29.84516700,33.03341375,47.30216127
1.68549201,0.75950288,1.51616613

>  <Name>
ligand

>  <RI>
0

>  <Rbt.Current_Directory>
/home/itssahil/PROJECTS/Mol_Feturizer/New_Systems/rnas/2NPY

>  <Rbt.Executable>
rbdock ($Id: //depot/dev/client3/rdock/2013.1/src/exe/rbdock.cxx#4 $)

>  <Rbt.Library>
libRbt.so (2013.1, Build901 2013/11/27)

>  <Rbt.Parameter_File>
/export/apps/rDock/src/rDock_2013.1_src/data/scripts/dock_solv.prm

>  <Rbt.Receptor>
prm/pocket_docking_5.prm

>  <SCORE>
-7.88194

>  <SCORE.INTER>
6.04685

>  <SCORE.INTER.CONST>
1

>  <SCORE.INTER.POLAR>
0

>  <SCORE.INTER.ROT>
9

>  <SCORE.INTER.SOLV>
4.94754

>  <SCORE.INTER.VDW>
-7.21795

>  <SCORE.INTER.norm>
0.465142

>  <SCORE.INTRA>
-13.9288

>  <SCORE.INTRA.DIHEDRAL>
-24.6136

>  <SCORE.INTRA.DIHEDRAL.0>
25.6828

>  <SCORE.INTRA.POLAR>
0

>  <SCORE.INTRA.POLAR.0>
0

>  <SCORE.INTRA.REPUL>
0

>  <SCORE.INTRA.REPUL.0>
0

>  <SCORE.INTRA.SOLV>
-1.06391

>  <SCORE.INTRA.SOLV.lig_0>
-48.5059

>  <SCORE.INTRA.VDW>
-1.09003

>  <SCORE.INTRA.VDW.0>
-0.363643

>  <SCORE.INTRA.norm>
-1.07144

>  <SCORE.RESTR>
0

>  <SCORE.RESTR.CAVITY>
0

>  <SCORE.RESTR.norm>
0

>  <SCORE.SYSTEM>
0

>  <SCORE.SYSTEM.CONST>
0

>  <SCORE.SYSTEM.DIHEDRAL>
0

>  <SCORE.SYSTEM.SOLV>
0

>  <SCORE.SYSTEM.norm>
0

>  <SCORE.heavy>
13

>  <SCORE.norm>
-0.606303

>  <RMSD>
4.692

$$$$
ligand
 OpenBabel11021811453D
libRbt.so/2013.1/901 2013/11/27
 13 12  0  0  0  0  0  0  0  0999 V2000
   30.1082   31.4095   47.8636 O   0  0  0  0  0  0  0  0  0  0  0  0
   29.4309   32.4175   45.1422 O   0  0  0  0  0  0  0  0  0  0  0  0
   34.2660   31.9009   49.2057 P   0  0  2  0  0  0  0  0  0  0  0  0
   34.5106   32.5294   50.5364 O   0  5  0  0  0  0  0  0  0  0  0  0
   34.9766   32.4266   48.0118 O   0  0  0  0  0  0  0  0  0  0  0  0
   32.7115   31.9545   48.8926 O   0  0  0  0  0  0  0  0  0  0  0  0
   32.9491   32.3032   44.1100 O   0  0  0  0  0  0  0  0  0  0  0  0
   31.7836   31.1289   49.6112 C   0  0  0  0  0  0  0  0  0  0  0  0
   28.5584   31.5690   45.9315 C   0  0  0  0  0  0  0  0  0  0  0  0
   31.6288   32.8253   44.1524 C   0  0  0  0  0  0  0  0  0  0  0  0
   30.3416   31.5478   49.2781 C   0  0  0  0  0  0  0  0  0  0  0  0
   28.7646   31.7848   47.4509 C   0  0  0  0  0  0  0  0  0  0  0  0
   30.7980   31.9454   45.1034 C   0  0  0  0  0  0  0  0  0  0  0  0
  1 12  1  0  0  0  0
  1 11  1  0  0  0  0
  2 13  1  0  0  0  0
  2  9  1  0  0  0  0
  3  4  1  1  0  0  0
  3  5  2  0  0  0  0
  3  6  1  0  0  0  0
  6  8  1  0  0  0  0
  7 10  1  0  0  0  0
  8 11  1  0  0  0  0
  9 12  1  0  0  0  0
 10 13  1  0  0  0  0
M  CHG  1   4  -1
M  END
>  <CHROM.1>
-178.02938353,175.10521965,-70.97922727,170.56061498,59.63017390,76.45491012
-63.44187360,-178.14274380,-179.97800503,31.86337719,31.98469242,47.48593242
2.38694965,-0.14735083,-1.42005367

>  <Name>
ligand

>  <RI>
0

>  <Rbt.Current_Directory>
/home/itssahil/PROJECTS/Mol_Feturizer/New_Systems/rnas/2NPY

>  <Rbt.Executable>
rbdock ($Id: //depot/dev/client3/rdock/2013.1/src/exe/rbdock.cxx#4 $)

>  <Rbt.Library>
libRbt.so (2013.1, Build901 2013/11/27)

>  <Rbt.Parameter_File>
/export/apps/rDock/src/rDock_2013.1_src/data/scripts/dock_solv.prm

>  <Rbt.Receptor>
prm/pocket_docking_4.prm

>  <SCORE>
-8.33092

>  <SCORE.INTER>
4.66951

>  <SCORE.INTER.CONST>
1

>  <SCORE.INTER.POLAR>
0

>  <SCORE.INTER.ROT>
9

>  <SCORE.INTER.SOLV>
8.43889

>  <SCORE.INTER.VDW>
-9.29996

>  <SCORE.INTER.norm>
0.359193

>  <SCORE.INTRA>
-13.0004

>  <SCORE.INTRA.DIHEDRAL>
-23.5119

>  <SCORE.INTRA.DIHEDRAL.0>
25.6828

>  <SCORE.INTRA.POLAR>
0

>  <SCORE.INTRA.POLAR.0>
0

>  <SCORE.INTRA.REPUL>
0

>  <SCORE.INTRA.REPUL.0>
0

>  <SCORE.INTRA.SOLV>
-1.20647

>  <SCORE.INTRA.SOLV.lig_0>
-48.5059

>  <SCORE.INTRA.VDW>
-0.641252

>  <SCORE.INTRA.VDW.0>
-0.363643

>  <SCORE.INTRA.norm>
-1.00003

>  <SCORE.RESTR>
0

>  <SCORE.RESTR.CAVITY>
0

>  <SCORE.RESTR.norm>
0

>  <SCORE.SYSTEM>
0

>  <SCORE.SYSTEM.CONST>
0

>  <SCORE.SYSTEM.DIHEDRAL>
0

>  <SCORE.SYSTEM.SOLV>
0

>  <SCORE.SYSTEM.norm>
0

>  <SCORE.heavy>
13

>  <SCORE.norm>
-0.64084

>  <RMSD>
4.756

$$$$
ligand
 OpenBabel11021811453D
libRbt.so/2013.1/901 2013/11/27
 13 12  0  0  0  0  0  0  0  0999 V2000
   33.8541   31.8001   48.4730 O   0  0  0  0  0  0  0  0  0  0  0  0
   30.2426   31.9117   47.4294 O   0  0  0  0  0  0  0  0  0  0  0  0
   37.8456   30.4279   47.6683 P   0  0  2  0  0  0  0  0  0  0  0  0
   38.8134   30.0832   48.7500 O   0  5  0  0  0  0  0  0  0  0  0  0
   38.0567   31.6630   46.8703 O   0  0  0  0  0  0  0  0  0  0  0  0
   36.3893   30.5113   48.2925 O   0  0  0  0  0  0  0  0  0  0  0  0
   27.3755   32.1640   45.1548 O   0  0  0  0  0  0  0  0  0  0  0  0
   36.0932   31.4241   49.3592 C   0  0  0  0  0  0  0  0  0  0  0  0
   31.6802   32.0585   47.3034 C   0  0  0  0  0  0  0  0  0  0  0  0
   28.0278   31.9289   46.3944 C   0  0  0  0  0  0  0  0  0  0  0  0
   34.5835   31.4149   49.6537 C   0  0  0  0  0  0  0  0  0  0  0  0
   32.4091   31.7609   48.6369 C   0  0  0  0  0  0  0  0  0  0  0  0
   29.5377   32.1440   46.1874 C   0  0  0  0  0  0  0  0  0  0  0  0
  1 12  1  0  0  0  0
  1 11  1  0  0  0  0
  2 13  1  0  0  0  0
  2  9  1  0  0  0  0
  3  4  1  1  0  0  0
  3  5  2  0  0  0  0
  3  6  1  0  0  0  0
  6  8  1  0  0  0  0
  7 10  1  0  0  0  0
  8 11  1  0  0  0  0
  9 12  1  0  0  0  0
 10 13  1  0  0  0  0
M  CHG  1   4  -1
M  END
>  <CHROM.1>
-174.82201468,178.33204584,58.46655162,173.30132753,-59.40159962,-178.22495721
175.17171634,-179.90680299,177.31129304,33.84439193,31.39206976,47.69084063
0.19406118,-0.15983927,1.53334901

>  <Name>
ligand

>  <RI>
0

>  <Rbt.Current_Directory>
/home/itssahil/PROJECTS/Mol_Feturizer/New_Systems/rnas/2NPY

>  <Rbt.Executable>
rbdock ($Id: //depot/dev/client3/rdock/2013.1/src/exe/rbdock.cxx#4 $)

>  <Rbt.Library>
libRbt.so (2013.1, Build901 2013/11/27)

>  <Rbt.Parameter_File>
/export/apps/rDock/src/rDock_2013.1_src/data/scripts/dock_solv.prm

>  <Rbt.Receptor>
prm/pocket_docking_7.prm

>  <SCORE>
-12.348

>  <SCORE.INTER>
1.64468

>  <SCORE.INTER.CONST>
1

>  <SCORE.INTER.POLAR>
0

>  <SCORE.INTER.ROT>
9

>  <SCORE.INTER.SOLV>
9.32344

>  <SCORE.INTER.VDW>
-11.6114

>  <SCORE.INTER.norm>
0.126514

>  <SCORE.INTRA>
-13.9927

>  <SCORE.INTRA.DIHEDRAL>
-25.1014

>  <SCORE.INTRA.DIHEDRAL.0>
25.6828

>  <SCORE.INTRA.POLAR>
0

>  <SCORE.INTRA.POLAR.0>
0

>  <SCORE.INTRA.REPUL>
0

>  <SCORE.INTRA.REPUL.0>
0

>  <SCORE.INTRA.SOLV>
-0.972385

>  <SCORE.INTRA.SOLV.lig_0>
-48.5059

>  <SCORE.INTRA.VDW>
-0.955786

>  <SCORE.INTRA.VDW.0>
-0.363643

>  <SCORE.INTRA.norm>
-1.07636

>  <SCORE.RESTR>
0

>  <SCORE.RESTR.CAVITY>
0

>  <SCORE.RESTR.norm>
0

>  <SCORE.SYSTEM>
0

>  <SCORE.SYSTEM.CONST>
0

>  <SCORE.SYSTEM.DIHEDRAL>
0

>  <SCORE.SYSTEM.SOLV>
0

>  <SCORE.SYSTEM.norm>
0

>  <SCORE.heavy>
13

>  <SCORE.norm>
-0.949847

>  <RMSD>
4.758

$$$$
ligand
 OpenBabel11021811453D
libRbt.so/2013.1/901 2013/11/27
 13 12  0  0  0  0  0  0  0  0999 V2000
   31.0156   31.9214   45.0047 O   0  0  0  0  0  0  0  0  0  0  0  0
   30.5625   31.3738   47.8574 O   0  0  0  0  0  0  0  0  0  0  0  0
   34.0985   30.5789   42.1756 P   0  0  2  0  0  0  0  0  0  0  0  0
   35.2487   30.7908   43.1017 O   0  5  0  0  0  0  0  0  0  0  0  0
   34.1533   31.1508   40.8056 O   0  0  0  0  0  0  0  0  0  0  0  0
   32.7790   31.1278   42.8648 O   0  0  0  0  0  0  0  0  0  0  0  0
   31.2931   29.7919   51.0856 O   0  0  0  0  0  0  0  0  0  0  0  0
   32.6976   32.4819   43.3324 C   0  0  0  0  0  0  0  0  0  0  0  0
   29.5107   31.2612   46.8648 C   0  0  0  0  0  0  0  0  0  0  0  0
   31.5389   30.6450   49.9769 C   0  0  0  0  0  0  0  0  0  0  0  0
   31.2851   32.7671   43.8705 C   0  0  0  0  0  0  0  0  0  0  0  0
   29.7495   32.2067   45.6620 C   0  0  0  0  0  0  0  0  0  0  0  0
   30.3438   30.5319   49.0136 C   0  0  0  0  0  0  0  0  0  0  0  0
  1 12  1  0  0  0  0
  1 11  1  0  0  0  0
  2 13  1  0  0  0  0
  2  9  1  0  0  0  0
  3  4  1  1  0  0  0
  3  5  2  0  0  0  0
  3  6  1  0  0  0  0
  6  8  1  0  0  0  0
  7 10  1  0  0  0  0
  8 11  1  0  0  0  0
  9 12  1  0  0  0  0
 10 13  1  0  0  0  0
M  CHG  1   4  -1
M  END
>  <CHROM.1>
179.58439973,176.65459539,55.57131170,176.37865839,62.94784033,178.16529660
59.17908197,-179.21616155,174.50293935,32.08245143,31.20876711,45.21954164
2.04927348,-0.46546543,1.86050985

>  <Name>
ligand

>  <RI>
0

>  <Rbt.Current_Directory>
/home/itssahil/PROJECTS/Mol_Feturizer/New_Systems/rnas/2NPY

>  <Rbt.Executable>
rbdock ($Id: //depot/dev/client3/rdock/2013.1/src/exe/rbdock.cxx#4 $)

>  <Rbt.Library>
libRbt.so (2013.1, Build901 2013/11/27)

>  <Rbt.Parameter_File>
/export/apps/rDock/src/rDock_2013.1_src/data/scripts/dock_solv.prm

>  <Rbt.Receptor>
prm/pocket_docking_6.prm

>  <SCORE>
-11.1047

>  <SCORE.INTER>
3.00116

>  <SCORE.INTER.CONST>
1

>  <SCORE.INTER.POLAR>
0

>  <SCORE.INTER.ROT>
9

>  <SCORE.INTER.SOLV>
13.1208

>  <SCORE.INTER.VDW>
-11.9728

>  <SCORE.INTER.norm>
0.230858

>  <SCORE.INTRA>
-14.1058

>  <SCORE.INTRA.DIHEDRAL>
-25.2348

>  <SCORE.INTRA.DIHEDRAL.0>
25.6828

>  <SCORE.INTRA.POLAR>
0

>  <SCORE.INTRA.POLAR.0>
0

>  <SCORE.INTRA.REPUL>
0

>  <SCORE.INTRA.REPUL.0>
0

>  <SCORE.INTRA.SOLV>
-0.88703

>  <SCORE.INTRA.SOLV.lig_0>
-48.5059

>  <SCORE.INTRA.VDW>
-1.04491

>  <SCORE.INTRA.VDW.0>
-0.363643

>  <SCORE.INTRA.norm>
-1.08506

>  <SCORE.RESTR>
0

>  <SCORE.RESTR.CAVITY>
0

>  <SCORE.RESTR.norm>
0

>  <SCORE.SYSTEM>
0

>  <SCORE.SYSTEM.CONST>
0

>  <SCORE.SYSTEM.DIHEDRAL>
0

>  <SCORE.SYSTEM.SOLV>
0

>  <SCORE.SYSTEM.norm>
0

>  <SCORE.heavy>
13

>  <SCORE.norm>
-0.854206

>  <RMSD>
4.844

$$$$
ligand
 OpenBabel11021811453D
libRbt.so/2013.1/901 2013/11/27
 13 12  0  0  0  0  0  0  0  0999 V2000
   32.3510   31.5430   48.4291 O   0  0  0  0  0  0  0  0  0  0  0  0
   29.7080   31.8890   47.2615 O   0  0  0  0  0  0  0  0  0  0  0  0
   36.5875   31.4080   49.9898 P   0  0  2  0  0  0  0  0  0  0  0  0
   37.1100   32.0373   51.2373 O   0  5  0  0  0  0  0  0  0  0  0  0
   37.5283   30.7019   49.0825 O   0  0  0  0  0  0  0  0  0  0  0  0
   35.8437   32.5156   49.1310 O   0  0  0  0  0  0  0  0  0  0  0  0
   28.3053   33.8571   45.8484 O   0  0  0  0  0  0  0  0  0  0  0  0
   34.6999   32.1855   48.3300 C   0  0  0  0  0  0  0  0  0  0  0  0
   29.9601   30.8923   48.2849 C   0  0  0  0  0  0  0  0  0  0  0  0
   28.4864   32.5775   45.2589 C   0  0  0  0  0  0  0  0  0  0  0  0
   33.5010   31.8588   49.2366 C   0  0  0  0  0  0  0  0  0  0  0  0
   31.1432   31.2925   49.2003 C   0  0  0  0  0  0  0  0  0  0  0  0
   28.6046   31.5426   46.3920 C   0  0  0  0  0  0  0  0  0  0  0  0
  1 12  1  0  0  0  0
  1 11  1  0  0  0  0
  2 13  1  0  0  0  0
  2  9  1  0  0  0  0
  3  4  1  1  0  0  0
  3  5  2  0  0  0  0
  3  6  1  0  0  0  0
  6  8  1  0  0  0  0
  7 10  1  0  0  0  0
  8 11  1  0  0  0  0
  9 12  1  0  0  0  0
 10 13  1  0  0  0  0
M  CHG  1   4  -1
M  END
>  <CHROM.1>
-177.25567944,-174.68789611,-146.56556537,69.83773080,179.34699047,-179.86950039
-55.92492535,-58.04352843,-176.72326514,32.97101298,31.84470452,48.43228924
2.76685868,-0.19489557,-0.90202683

>  <Name>
ligand

>  <RI>
0

>  <Rbt.Current_Directory>
/home/itssahil/PROJECTS/Mol_Feturizer/New_Systems/rnas/2NPY

>  <Rbt.Executable>
rbdock ($Id: //depot/dev/client3/rdock/2013.1/src/exe/rbdock.cxx#4 $)

>  <Rbt.Library>
libRbt.so (2013.1, Build901 2013/11/27)

>  <Rbt.Parameter_File>
/export/apps/rDock/src/rDock_2013.1_src/data/scripts/dock_solv.prm

>  <Rbt.Receptor>
prm/pocket_docking_7.prm

>  <SCORE>
-8.34983

>  <SCORE.INTER>
4.69558

>  <SCORE.INTER.CONST>
1

>  <SCORE.INTER.POLAR>
0

>  <SCORE.INTER.ROT>
9

>  <SCORE.INTER.SOLV>
13.1767

>  <SCORE.INTER.VDW>
-10.8618

>  <SCORE.INTER.norm>
0.361198

>  <SCORE.INTRA>
-13.0454

>  <SCORE.INTRA.DIHEDRAL>
-24.1796

>  <SCORE.INTRA.DIHEDRAL.0>
25.6828

>  <SCORE.INTRA.POLAR>
0

>  <SCORE.INTRA.POLAR.0>
0

>  <SCORE.INTRA.REPUL>
0

>  <SCORE.INTRA.REPUL.0>
0

>  <SCORE.INTRA.SOLV>
-0.140557

>  <SCORE.INTRA.SOLV.lig_0>
-48.5059

>  <SCORE.INTRA.VDW>
-0.885332

>  <SCORE.INTRA.VDW.0>
-0.363643

>  <SCORE.INTRA.norm>
-1.00349

>  <SCORE.RESTR>
0

>  <SCORE.RESTR.CAVITY>
0

>  <SCORE.RESTR.norm>
0

>  <SCORE.SYSTEM>
0

>  <SCORE.SYSTEM.CONST>
0

>  <SCORE.SYSTEM.DIHEDRAL>
0

>  <SCORE.SYSTEM.SOLV>
0

>  <SCORE.SYSTEM.norm>
0

>  <SCORE.heavy>
13

>  <SCORE.norm>
-0.642294

>  <RMSD>
4.878

$$$$
ligand
 OpenBabel11021811453D
libRbt.so/2013.1/901 2013/11/27
 13 12  0  0  0  0  0  0  0  0999 V2000
   32.9435   30.5709   49.9054 O   0  0  0  0  0  0  0  0  0  0  0  0
   29.7593   31.4102   48.1012 O   0  0  0  0  0  0  0  0  0  0  0  0
   37.1147   30.7833   48.4745 P   0  0  2  0  0  0  0  0  0  0  0  0
   37.9637   31.8879   49.0078 O   0  5  0  0  0  0  0  0  0  0  0  0
   37.2064   30.4257   47.0355 O   0  0  0  0  0  0  0  0  0  0  0  0
   35.5937   31.1121   48.7841 O   0  0  0  0  0  0  0  0  0  0  0  0
   27.6587   32.2869   45.2247 O   0  0  0  0  0  0  0  0  0  0  0  0
   35.1783   31.5248   50.0940 C   0  0  0  0  0  0  0  0  0  0  0  0
   31.1805   31.4408   48.3902 C   0  0  0  0  0  0  0  0  0  0  0  0
   27.9266   31.7919   46.5288 C   0  0  0  0  0  0  0  0  0  0  0  0
   33.6653   31.8017   50.1017 C   0  0  0  0  0  0  0  0  0  0  0  0
   31.5098   30.7516   49.7373 C   0  0  0  0  0  0  0  0  0  0  0  0
   29.4335   31.9507   46.7992 C   0  0  0  0  0  0  0  0  0  0  0  0
  1 12  1  0  0  0  0
  1 11  1  0  0  0  0
  2 13  1  0  0  0  0
  2  9  1  0  0  0  0
  3  4  1  6  0  0  0
  3  5  2  0  0  0  0
  3  6  1  0  0  0  0
  6  8  1  0  0  0  0
  7 10  1  0  0  0  0
  8 11  1  0  0  0  0
  9 12  1  0  0  0  0
 10 13  1  0  0  0  0
M  CHG  1   4  -1
M  END
>  <CHROM.1>
69.18717204,176.02738673,-48.20140037,178.90416804,67.35437676,-175.31435753
169.65012524,-177.81851127,-173.02604365,33.23548522,31.31324968,48.31661473
0.22947202,-0.07180161,1.64508268

>  <Name>
ligand

>  <RI>
0

>  <Rbt.Current_Directory>
/home/itssahil/PROJECTS/Mol_Feturizer/New_Systems/rnas/2NPY

>  <Rbt.Executable>
rbdock ($Id: //depot/dev/client3/rdock/2013.1/src/exe/rbdock.cxx#4 $)

>  <Rbt.Library>
libRbt.so (2013.1, Build901 2013/11/27)

>  <Rbt.Parameter_File>
/export/apps/rDock/src/rDock_2013.1_src/data/scripts/dock_solv.prm

>  <Rbt.Receptor>
prm/pocket_docking_8.prm

>  <SCORE>
-10.5544

>  <SCORE.INTER>
2.35498

>  <SCORE.INTER.CONST>
1

>  <SCORE.INTER.POLAR>
0

>  <SCORE.INTER.ROT>
9

>  <SCORE.INTER.SOLV>
12.1389

>  <SCORE.INTER.VDW>
-12.0763

>  <SCORE.INTER.norm>
0.181152

>  <SCORE.INTRA>
-12.9094

>  <SCORE.INTRA.DIHEDRAL>
-24.1551

>  <SCORE.INTRA.DIHEDRAL.0>
25.6828

>  <SCORE.INTRA.POLAR>
0

>  <SCORE.INTRA.POLAR.0>
0

>  <SCORE.INTRA.REPUL>
0

>  <SCORE.INTRA.REPUL.0>
0

>  <SCORE.INTRA.SOLV>
-1.4388

>  <SCORE.INTRA.SOLV.lig_0>
-48.5059

>  <SCORE.INTRA.VDW>
-0.112433

>  <SCORE.INTRA.VDW.0>
-0.363643

>  <SCORE.INTRA.norm>
-0.993028

>  <SCORE.RESTR>
0

>  <SCORE.RESTR.CAVITY>
0

>  <SCORE.RESTR.norm>
0

>  <SCORE.SYSTEM>
0

>  <SCORE.SYSTEM.CONST>
0

>  <SCORE.SYSTEM.DIHEDRAL>
0

>  <SCORE.SYSTEM.SOLV>
0

>  <SCORE.SYSTEM.norm>
0

>  <SCORE.heavy>
13

>  <SCORE.norm>
-0.811876

>  <RMSD>
4.912

$$$$
ligand
 OpenBabel11021811453D
libRbt.so/2013.1/901 2013/11/27
 13 12  0  0  0  0  0  0  0  0999 V2000
   29.9612   31.5427   47.2412 O   0  0  0  0  0  0  0  0  0  0  0  0
   32.5483   32.0798   48.6553 O   0  0  0  0  0  0  0  0  0  0  0  0
   32.7317   33.0468   43.9992 P   0  0  2  0  0  0  0  0  0  0  0  0
   33.1069   34.4550   43.6804 O   0  5  0  0  0  0  0  0  0  0  0  0
   33.2344   31.9473   43.1359 O   0  0  0  0  0  0  0  0  0  0  0  0
   31.1495   32.9344   44.0347 O   0  0  0  0  0  0  0  0  0  0  0  0
   34.9642   32.0611   47.1695 O   0  0  0  0  0  0  0  0  0  0  0  0
   30.4938   32.0037   44.9080 C   0  0  0  0  0  0  0  0  0  0  0  0
   31.4156   31.3932   49.2469 C   0  0  0  0  0  0  0  0  0  0  0  0
   34.9636   32.4391   48.5386 C   0  0  0  0  0  0  0  0  0  0  0  0
   30.6895   32.4312   46.3726 C   0  0  0  0  0  0  0  0  0  0  0  0
   30.0714   31.8801   48.6520 C   0  0  0  0  0  0  0  0  0  0  0  0
   33.8143   31.6928   49.2392 C   0  0  0  0  0  0  0  0  0  0  0  0
  1 12  1  0  0  0  0
  1 11  1  0  0  0  0
  2 13  1  0  0  0  0
  2  9  1  0  0  0  0
  3  4  1  6  0  0  0
  3  5  2  0  0  0  0
  3  6  1  0  0  0  0
  6  8  1  0  0  0  0
  7 10  1  0  0  0  0
  8 11  1  0  0  0  0
  9 12  1  0  0  0  0
 10 13  1  0  0  0  0
M  CHG  1   4  -1
M  END
>  <CHROM.1>
-79.12659477,178.74755493,-148.42441400,68.06417581,176.44817591,177.10890219
65.18575601,-61.77712363,-179.19467693,32.29533409,32.37181620,46.27658770
1.57759612,0.12424010,1.80895330

>  <Name>
ligand

>  <RI>
0

>  <Rbt.Current_Directory>
/home/itssahil/PROJECTS/Mol_Feturizer/New_Systems/rnas/2NPY

>  <Rbt.Executable>
rbdock ($Id: //depot/dev/client3/rdock/2013.1/src/exe/rbdock.cxx#4 $)

>  <Rbt.Library>
libRbt.so (2013.1, Build901 2013/11/27)

>  <Rbt.Parameter_File>
/export/apps/rDock/src/rDock_2013.1_src/data/scripts/dock_solv.prm

>  <Rbt.Receptor>
prm/pocket_docking_3.prm

>  <SCORE>
-6.01601

>  <SCORE.INTER>
5.84714

>  <SCORE.INTER.CONST>
1

>  <SCORE.INTER.POLAR>
0

>  <SCORE.INTER.ROT>
9

>  <SCORE.INTER.SOLV>
6.09015

>  <SCORE.INTER.VDW>
-7.73196

>  <SCORE.INTER.norm>
0.44978

>  <SCORE.INTRA>
-11.8693

>  <SCORE.INTRA.DIHEDRAL>
-22.8397

>  <SCORE.INTRA.DIHEDRAL.0>
25.6828

>  <SCORE.INTRA.POLAR>
0

>  <SCORE.INTRA.POLAR.0>
0

>  <SCORE.INTRA.REPUL>
0

>  <SCORE.INTRA.REPUL.0>
0

>  <SCORE.INTRA.SOLV>
0.535123

>  <SCORE.INTRA.SOLV.lig_0>
-48.5059

>  <SCORE.INTRA.VDW>
-0.717011

>  <SCORE.INTRA.VDW.0>
-0.363643

>  <SCORE.INTRA.norm>
-0.913024

>  <SCORE.RESTR>
0.00616282

>  <SCORE.RESTR.CAVITY>
0.00616282

>  <SCORE.RESTR.norm>
0.000474063

>  <SCORE.SYSTEM>
0

>  <SCORE.SYSTEM.CONST>
0

>  <SCORE.SYSTEM.DIHEDRAL>
0

>  <SCORE.SYSTEM.SOLV>
0

>  <SCORE.SYSTEM.norm>
0

>  <SCORE.heavy>
13

>  <SCORE.norm>
-0.46277

>  <RMSD>
4.947

$$$$
ligand
 OpenBabel11021811453D
libRbt.so/2013.1/901 2013/11/27
 13 12  0  0  0  0  0  0  0  0999 V2000
   33.6918   31.6356   43.0672 O   0  0  0  0  0  0  0  0  0  0  0  0
   31.0654   32.1936   44.3343 O   0  0  0  0  0  0  0  0  0  0  0  0
   37.4952   30.3570   44.7182 P   0  0  2  0  0  0  0  0  0  0  0  0
   37.6608   31.1892   45.9451 O   0  5  0  0  0  0  0  0  0  0  0  0
   38.6598   30.1454   43.8205 O   0  0  0  0  0  0  0  0  0  0  0  0
   36.3253   30.9694   43.8387 O   0  0  0  0  0  0  0  0  0  0  0  0
   30.5649   31.1284   46.9379 O   0  0  0  0  0  0  0  0  0  0  0  0
   35.6279   30.1678   42.8744 C   0  0  0  0  0  0  0  0  0  0  0  0
   31.7774   33.1519   43.5104 C   0  0  0  0  0  0  0  0  0  0  0  0
   29.5307   31.7439   46.1834 C   0  0  0  0  0  0  0  0  0  0  0  0
   34.5959   31.0278   42.1251 C   0  0  0  0  0  0  0  0  0  0  0  0
   32.6611   32.4540   42.4474 C   0  0  0  0  0  0  0  0  0  0  0  0
   30.1700   32.8172   45.2845 C   0  0  0  0  0  0  0  0  0  0  0  0
  1 12  1  0  0  0  0
  1 11  1  0  0  0  0
  2 13  1  0  0  0  0
  2  9  1  0  0  0  0
  3  4  1  1  0  0  0
  3  5  2  0  0  0  0
  3  6  1  0  0  0  0
  6  8  1  0  0  0  0
  7 10  1  0  0  0  0
  8 11  1  0  0  0  0
  9 12  1  0  0  0  0
 10 13  1  0  0  0  0
M  CHG  1   4  -1
M  END
>  <CHROM.1>
-176.36516846,-176.01372935,-158.00940958,-177.39076476,-56.69724122,-176.52351029
-62.27350591,63.85810517,-179.01933767,34.17322142,31.35754611,44.29959295
3.06236558,-0.25175510,1.74470259

>  <Name>
ligand

>  <RI>
0

>  <Rbt.Current_Directory>
/home/itssahil/PROJECTS/Mol_Feturizer/New_Systems/rnas/2NPY

>  <Rbt.Executable>
rbdock ($Id: //depot/dev/client3/rdock/2013.1/src/exe/rbdock.cxx#4 $)

>  <Rbt.Library>
libRbt.so (2013.1, Build901 2013/11/27)

>  <Rbt.Parameter_File>
/export/apps/rDock/src/rDock_2013.1_src/data/scripts/dock_solv.prm

>  <Rbt.Receptor>
prm/pocket_docking_5.prm

>  <SCORE>
-11.0646

>  <SCORE.INTER>
3.13178

>  <SCORE.INTER.CONST>
1

>  <SCORE.INTER.POLAR>
0

>  <SCORE.INTER.ROT>
9

>  <SCORE.INTER.SOLV>
13.153

>  <SCORE.INTER.VDW>
-11.8965

>  <SCORE.INTER.norm>
0.240906

>  <SCORE.INTRA>
-14.1964

>  <SCORE.INTRA.DIHEDRAL>
-25.0165

>  <SCORE.INTRA.DIHEDRAL.0>
25.6828

>  <SCORE.INTRA.POLAR>
0

>  <SCORE.INTRA.POLAR.0>
0

>  <SCORE.INTRA.REPUL>
0

>  <SCORE.INTRA.REPUL.0>
0

>  <SCORE.INTRA.SOLV>
-1.10008

>  <SCORE.INTRA.SOLV.lig_0>
-48.5059

>  <SCORE.INTRA.VDW>
-1.13809

>  <SCORE.INTRA.VDW.0>
-0.363643

>  <SCORE.INTRA.norm>
-1.09203

>  <SCORE.RESTR>
0

>  <SCORE.RESTR.CAVITY>
0

>  <SCORE.RESTR.norm>
0

>  <SCORE.SYSTEM>
0

>  <SCORE.SYSTEM.CONST>
0

>  <SCORE.SYSTEM.DIHEDRAL>
0

>  <SCORE.SYSTEM.SOLV>
0

>  <SCORE.SYSTEM.norm>
0

>  <SCORE.heavy>
13

>  <SCORE.norm>
-0.851121

>  <RMSD>
4.955

$$$$
ligand
 OpenBabel11021811453D
libRbt.so/2013.1/901 2013/11/27
 13 12  0  0  0  0  0  0  0  0999 V2000
   31.4030   31.4192   48.8943 O   0  0  0  0  0  0  0  0  0  0  0  0
   30.7037   31.5022   46.0937 O   0  0  0  0  0  0  0  0  0  0  0  0
   35.6642   31.8674   49.2140 P   0  0  2  0  0  0  0  0  0  0  0  0
   36.5118   30.9882   50.0707 O   0  5  0  0  0  0  0  0  0  0  0  0
   35.5642   33.3150   49.5325 O   0  0  0  0  0  0  0  0  0  0  0  0
   34.1882   31.2860   49.1871 O   0  0  0  0  0  0  0  0  0  0  0  0
   32.6415   32.7986   44.5240 O   0  0  0  0  0  0  0  0  0  0  0  0
   33.3534   31.3335   50.3532 C   0  0  0  0  0  0  0  0  0  0  0  0
   29.6741   31.5063   47.1155 C   0  0  0  0  0  0  0  0  0  0  0  0
   31.4940   32.2397   43.9010 C   0  0  0  0  0  0  0  0  0  0  0  0
   31.9699   30.7428   50.0324 C   0  0  0  0  0  0  0  0  0  0  0  0
   30.1575   30.8330   48.4236 C   0  0  0  0  0  0  0  0  0  0  0  0
   30.3394   32.2634   44.9184 C   0  0  0  0  0  0  0  0  0  0  0  0
  1 12  1  0  0  0  0
  1 11  1  0  0  0  0
  2 13  1  0  0  0  0
  2  9  1  0  0  0  0
  3  4  1  1  0  0  0
  3  5  2  0  0  0  0
  3  6  1  0  0  0  0
  6  8  1  0  0  0  0
  7 10  1  0  0  0  0
  8 11  1  0  0  0  0
  9 12  1  0  0  0  0
 10 13  1  0  0  0  0
M  CHG  1   4  -1
M  END
>  <CHROM.1>
-174.06698685,178.55779186,69.59981922,178.28920482,-54.54147503,-173.04076070
53.43681859,-59.17507711,173.65334590,32.88756128,31.72348340,47.98469680
2.43460396,-0.21808054,-1.27529787

>  <Name>
ligand

>  <RI>
0

>  <Rbt.Current_Directory>
/home/itssahil/PROJECTS/Mol_Feturizer/New_Systems/rnas/2NPY

>  <Rbt.Executable>
rbdock ($Id: //depot/dev/client3/rdock/2013.1/src/exe/rbdock.cxx#4 $)

>  <Rbt.Library>
libRbt.so (2013.1, Build901 2013/11/27)

>  <Rbt.Parameter_File>
/export/apps/rDock/src/rDock_2013.1_src/data/scripts/dock_solv.prm

>  <Rbt.Receptor>
prm/pocket_docking_5.prm

>  <SCORE>
-10.827

>  <SCORE.INTER>
2.94843

>  <SCORE.INTER.CONST>
1

>  <SCORE.INTER.POLAR>
0

>  <SCORE.INTER.ROT>
9

>  <SCORE.INTER.SOLV>
11.1771

>  <SCORE.INTER.VDW>
-11.3601

>  <SCORE.INTER.norm>
0.226802

>  <SCORE.INTRA>
-13.7754

>  <SCORE.INTRA.DIHEDRAL>
-24.7268

>  <SCORE.INTRA.DIHEDRAL.0>
25.6828

>  <SCORE.INTRA.POLAR>
0

>  <SCORE.INTRA.POLAR.0>
0

>  <SCORE.INTRA.REPUL>
0

>  <SCORE.INTRA.REPUL.0>
0

>  <SCORE.INTRA.SOLV>
-0.526269

>  <SCORE.INTRA.SOLV.lig_0>
-48.5059

>  <SCORE.INTRA.VDW>
-1.14888

>  <SCORE.INTRA.VDW.0>
-0.363643

>  <SCORE.INTRA.norm>
-1.05965

>  <SCORE.RESTR>
0

>  <SCORE.RESTR.CAVITY>
0

>  <SCORE.RESTR.norm>
0

>  <SCORE.SYSTEM>
0

>  <SCORE.SYSTEM.CONST>
0

>  <SCORE.SYSTEM.DIHEDRAL>
0

>  <SCORE.SYSTEM.SOLV>
0

>  <SCORE.SYSTEM.norm>
0

>  <SCORE.heavy>
13

>  <SCORE.norm>
-0.832845

>  <RMSD>
5.021

$$$$
ligand
 OpenBabel11021811453D
libRbt.so/2013.1/901 2013/11/27
 13 12  0  0  0  0  0  0  0  0999 V2000
   34.8611   31.1630   49.1029 O   0  0  0  0  0  0  0  0  0  0  0  0
   32.4641   32.6940   48.1183 O   0  0  0  0  0  0  0  0  0  0  0  0
   38.0240   30.7569   46.2381 P   0  0  2  0  0  0  0  0  0  0  0  0
   37.6733   31.5264   45.0091 O   0  5  0  0  0  0  0  0  0  0  0  0
   38.0050   29.2721   46.1963 O   0  0  0  0  0  0  0  0  0  0  0  0
   37.0628   31.2093   47.4165 O   0  0  0  0  0  0  0  0  0  0  0  0
   29.6961   31.7716   45.8947 O   0  0  0  0  0  0  0  0  0  0  0  0
   37.2245   30.6884   48.7437 C   0  0  0  0  0  0  0  0  0  0  0  0
   32.4423   31.7134   49.1870 C   0  0  0  0  0  0  0  0  0  0  0  0
   30.9379   31.5901   46.5598 C   0  0  0  0  0  0  0  0  0  0  0  0
   36.1725   31.3052   49.6812 C   0  0  0  0  0  0  0  0  0  0  0  0
   33.7888   31.6622   49.9500 C   0  0  0  0  0  0  0  0  0  0  0  0
   31.1914   32.8251   47.4427 C   0  0  0  0  0  0  0  0  0  0  0  0
  1 12  1  0  0  0  0
  1 11  1  0  0  0  0
  2 13  1  0  0  0  0
  2  9  1  0  0  0  0
  3  4  1  6  0  0  0
  3  5  2  0  0  0  0
  3  6  1  0  0  0  0
  6  8  1  0  0  0  0
  7 10  1  0  0  0  0
  8 11  1  0  0  0  0
  9 12  1  0  0  0  0
 10 13  1  0  0  0  0
M  CHG  1   4  -1
M  END
>  <CHROM.1>
170.04393271,-72.81863212,-176.31943261,179.43507411,51.25681444,-176.26963724
-66.52166530,-178.77262138,177.22790470,34.87801314,31.33975276,47.50376392
-3.01308442,0.20804383,-1.63515824

>  <Name>
ligand

>  <RI>
0

>  <Rbt.Current_Directory>
/home/itssahil/PROJECTS/Mol_Feturizer/New_Systems/rnas/2NPY

>  <Rbt.Executable>
rbdock ($Id: //depot/dev/client3/rdock/2013.1/src/exe/rbdock.cxx#4 $)

>  <Rbt.Library>
libRbt.so (2013.1, Build901 2013/11/27)

>  <Rbt.Parameter_File>
/export/apps/rDock/src/rDock_2013.1_src/data/scripts/dock_solv.prm

>  <Rbt.Receptor>
prm/pocket_docking_6.prm

>  <SCORE>
-10.1594

>  <SCORE.INTER>
2.476

>  <SCORE.INTER.CONST>
1

>  <SCORE.INTER.POLAR>
0

>  <SCORE.INTER.ROT>
9

>  <SCORE.INTER.SOLV>
9.01816

>  <SCORE.INTER.VDW>
-10.9554

>  <SCORE.INTER.norm>
0.190461

>  <SCORE.INTRA>
-12.6354

>  <SCORE.INTRA.DIHEDRAL>
-23.8348

>  <SCORE.INTRA.DIHEDRAL.0>
25.6828

>  <SCORE.INTRA.POLAR>
0

>  <SCORE.INTRA.POLAR.0>
0

>  <SCORE.INTRA.REPUL>
0

>  <SCORE.INTRA.REPUL.0>
0

>  <SCORE.INTRA.SOLV>
-1.14403

>  <SCORE.INTRA.SOLV.lig_0>
-48.5059

>  <SCORE.INTRA.VDW>
-0.145962

>  <SCORE.INTRA.VDW.0>
-0.363643

>  <SCORE.INTRA.norm>
-0.971953

>  <SCORE.RESTR>
0

>  <SCORE.RESTR.CAVITY>
0

>  <SCORE.RESTR.norm>
0

>  <SCORE.SYSTEM>
0

>  <SCORE.SYSTEM.CONST>
0

>  <SCORE.SYSTEM.DIHEDRAL>
0

>  <SCORE.SYSTEM.SOLV>
0

>  <SCORE.SYSTEM.norm>
0

>  <SCORE.heavy>
13

>  <SCORE.norm>
-0.781491

>  <RMSD>
5.091

$$$$
ligand
 OpenBabel11021811453D
libRbt.so/2013.1/901 2013/11/27
 13 12  0  0  0  0  0  0  0  0999 V2000
   34.7248   30.9210   49.3130 O   0  0  0  0  0  0  0  0  0  0  0  0
   31.8862   31.5027   48.6775 O   0  0  0  0  0  0  0  0  0  0  0  0
   37.4450   30.5381   45.9210 P   0  0  2  0  0  0  0  0  0  0  0  0
   38.9078   30.6400   46.1954 O   0  5  0  0  0  0  0  0  0  0  0  0
   36.8809   31.2146   44.7247 O   0  0  0  0  0  0  0  0  0  0  0  0
   36.6489   31.0717   47.1855 O   0  0  0  0  0  0  0  0  0  0  0  0
   30.2753   33.1428   47.0525 O   0  0  0  0  0  0  0  0  0  0  0  0
   37.0130   30.6671   48.5131 C   0  0  0  0  0  0  0  0  0  0  0  0
   32.3313   31.0033   49.9646 C   0  0  0  0  0  0  0  0  0  0  0  0
   30.1153   31.7322   47.0078 C   0  0  0  0  0  0  0  0  0  0  0  0
   36.0846   31.3386   49.5393 C   0  0  0  0  0  0  0  0  0  0  0  0
   33.7796   31.4472   50.2857 C   0  0  0  0  0  0  0  0  0  0  0  0
   30.5111   31.1633   48.3820 C   0  0  0  0  0  0  0  0  0  0  0  0
  1 12  1  0  0  0  0
  1 11  1  0  0  0  0
  2 13  1  0  0  0  0
  2  9  1  0  0  0  0
  3  4  1  1  0  0  0
  3  5  2  0  0  0  0
  3  6  1  0  0  0  0
  6  8  1  0  0  0  0
  7 10  1  0  0  0  0
  8 11  1  0  0  0  0
  9 12  1  0  0  0  0
 10 13  1  0  0  0  0
M  CHG  1   4  -1
M  END
>  <CHROM.1>
178.13127193,179.75256589,-45.76928389,179.64983671,61.75214832,-176.90490583
-62.01456353,-59.63587144,176.71634535,34.63212806,31.21095735,47.70555574
-2.87598596,0.18360929,-1.47025279

>  <Name>
ligand

>  <RI>
0

>  <Rbt.Current_Directory>
/home/itssahil/PROJECTS/Mol_Feturizer/New_Systems/rnas/2NPY

>  <Rbt.Executable>
rbdock ($Id: //depot/dev/client3/rdock/2013.1/src/exe/rbdock.cxx#4 $)

>  <Rbt.Library>
libRbt.so (2013.1, Build901 2013/11/27)

>  <Rbt.Parameter_File>
/export/apps/rDock/src/rDock_2013.1_src/data/scripts/dock_solv.prm

>  <Rbt.Receptor>
prm/pocket_docking_6.prm

>  <SCORE>
-13.273

>  <SCORE.INTER>
0.939772

>  <SCORE.INTER.CONST>
1

>  <SCORE.INTER.POLAR>
0

>  <SCORE.INTER.ROT>
9

>  <SCORE.INTER.SOLV>
9.14874

>  <SCORE.INTER.VDW>
-12.0231

>  <SCORE.INTER.norm>
0.0722902

>  <SCORE.INTRA>
-14.2128

>  <SCORE.INTRA.DIHEDRAL>
-25.423

>  <SCORE.INTRA.DIHEDRAL.0>
25.6828

>  <SCORE.INTRA.POLAR>
0

>  <SCORE.INTRA.POLAR.0>
0

>  <SCORE.INTRA.REPUL>
0

>  <SCORE.INTRA.REPUL.0>
0

>  <SCORE.INTRA.SOLV>
-0.990948

>  <SCORE.INTRA.SOLV.lig_0>
-48.5059

>  <SCORE.INTRA.VDW>
-1.00583

>  <SCORE.INTRA.VDW.0>
-0.363643

>  <SCORE.INTRA.norm>
-1.09329

>  <SCORE.RESTR>
0

>  <SCORE.RESTR.CAVITY>
0

>  <SCORE.RESTR.norm>
0

>  <SCORE.SYSTEM>
0

>  <SCORE.SYSTEM.CONST>
0

>  <SCORE.SYSTEM.DIHEDRAL>
0

>  <SCORE.SYSTEM.SOLV>
0

>  <SCORE.SYSTEM.norm>
0

>  <SCORE.heavy>
13

>  <SCORE.norm>
-1.021

>  <RMSD>
5.095

$$$$
ligand
 OpenBabel11021811453D
libRbt.so/2013.1/901 2013/11/27
 13 12  0  0  0  0  0  0  0  0999 V2000
   31.5126   31.4307   48.8342 O   0  0  0  0  0  0  0  0  0  0  0  0
   30.9148   31.5708   46.0015 O   0  0  0  0  0  0  0  0  0  0  0  0
   35.7888   31.4062   49.7550 P   0  0  2  0  0  0  0  0  0  0  0  0
   35.8937   32.7296   50.4355 O   0  5  0  0  0  0  0  0  0  0  0  0
   36.5053   31.1897   48.4718 O   0  0  0  0  0  0  0  0  0  0  0  0
   34.2566   31.0812   49.5018 O   0  0  0  0  0  0  0  0  0  0  0  0
   32.9582   32.6305   44.3531 O   0  0  0  0  0  0  0  0  0  0  0  0
   33.2720   31.3225   50.5173 C   0  0  0  0  0  0  0  0  0  0  0  0
   29.8667   31.6998   46.9960 C   0  0  0  0  0  0  0  0  0  0  0  0
   31.7777   32.0928   43.7745 C   0  0  0  0  0  0  0  0  0  0  0  0
   31.9049   30.7855   50.0606 C   0  0  0  0  0  0  0  0  0  0  0  0
   30.2317   30.9761   48.3154 C   0  0  0  0  0  0  0  0  0  0  0  0
   30.6252   32.2842   44.7764 C   0  0  0  0  0  0  0  0  0  0  0  0
  1 12  1  0  0  0  0
  1 11  1  0  0  0  0
  2 13  1  0  0  0  0
  2  9  1  0  0  0  0
  3  4  1  6  0  0  0
  3  5  2  0  0  0  0
  3  6  1  0  0  0  0
  6  8  1  0  0  0  0
  7 10  1  0  0  0  0
  8 11  1  0  0  0  0
  9 12  1  0  0  0  0
 10 13  1  0  0  0  0
M  CHG  1   4  -1
M  END
>  <CHROM.1>
-179.78393347,-179.73573250,-43.35498010,-174.16582592,-58.97574637,-177.59515213
54.64551239,-61.25606214,179.44907829,33.02961755,31.62064554,47.99047355
2.34893451,-0.11245948,-1.37464519

>  <Name>
ligand

>  <RI>
0

>  <Rbt.Current_Directory>
/home/itssahil/PROJECTS/Mol_Feturizer/New_Systems/rnas/2NPY

>  <Rbt.Executable>
rbdock ($Id: //depot/dev/client3/rdock/2013.1/src/exe/rbdock.cxx#4 $)

>  <Rbt.Library>
libRbt.so (2013.1, Build901 2013/11/27)

>  <Rbt.Parameter_File>
/export/apps/rDock/src/rDock_2013.1_src/data/scripts/dock_solv.prm

>  <Rbt.Receptor>
prm/pocket_docking_6.prm

>  <SCORE>
-12.1762

>  <SCORE.INTER>
1.95701

>  <SCORE.INTER.CONST>
1

>  <SCORE.INTER.POLAR>
0

>  <SCORE.INTER.ROT>
9

>  <SCORE.INTER.SOLV>
12.548

>  <SCORE.INTER.VDW>
-12.478

>  <SCORE.INTER.norm>
0.150539

>  <SCORE.INTRA>
-14.1332

>  <SCORE.INTRA.DIHEDRAL>
-25.2041

>  <SCORE.INTRA.DIHEDRAL.0>
25.6828

>  <SCORE.INTRA.POLAR>
0

>  <SCORE.INTRA.POLAR.0>
0

>  <SCORE.INTRA.REPUL>
0

>  <SCORE.INTRA.REPUL.0>
0

>  <SCORE.INTRA.SOLV>
-0.985289

>  <SCORE.INTRA.SOLV.lig_0>
-48.5059

>  <SCORE.INTRA.VDW>
-1.03846

>  <SCORE.INTRA.VDW.0>
-0.363643

>  <SCORE.INTRA.norm>
-1.08717

>  <SCORE.RESTR>
0

>  <SCORE.RESTR.CAVITY>
0

>  <SCORE.RESTR.norm>
0

>  <SCORE.SYSTEM>
0

>  <SCORE.SYSTEM.CONST>
0

>  <SCORE.SYSTEM.DIHEDRAL>
0

>  <SCORE.SYSTEM.SOLV>
0

>  <SCORE.SYSTEM.norm>
0

>  <SCORE.heavy>
13

>  <SCORE.norm>
-0.936627

>  <RMSD>
5.118

$$$$
ligand
 OpenBabel11021811453D
libRbt.so/2013.1/901 2013/11/27
 13 12  0  0  0  0  0  0  0  0999 V2000
   34.8608   31.7751   48.4761 O   0  0  0  0  0  0  0  0  0  0  0  0
   32.3406   31.9928   46.9685 O   0  0  0  0  0  0  0  0  0  0  0  0
   38.0959   29.9890   46.1977 P   0  0  2  0  0  0  0  0  0  0  0  0
   37.5454   29.9905   44.8112 O   0  5  0  0  0  0  0  0  0  0  0  0
   38.8425   28.7996   46.6822 O   0  0  0  0  0  0  0  0  0  0  0  0
   36.9104   30.2516   47.2191 O   0  0  0  0  0  0  0  0  0  0  0  0
   30.3847   32.6590   43.9383 O   0  0  0  0  0  0  0  0  0  0  0  0
   37.1437   30.9219   48.4661 C   0  0  0  0  0  0  0  0  0  0  0  0
   32.5602   32.6737   48.2305 C   0  0  0  0  0  0  0  0  0  0  0  0
   31.2304   31.9021   44.7923 C   0  0  0  0  0  0  0  0  0  0  0  0
   35.8269   31.0411   49.2521 C   0  0  0  0  0  0  0  0  0  0  0  0
   33.5675   31.9136   49.1279 C   0  0  0  0  0  0  0  0  0  0  0  0
   31.4190   32.6922   46.0996 C   0  0  0  0  0  0  0  0  0  0  0  0
  1 12  1  0  0  0  0
  1 11  1  0  0  0  0
  2 13  1  0  0  0  0
  2  9  1  0  0  0  0
  3  4  1  6  0  0  0
  3  5  2  0  0  0  0
  3  6  1  0  0  0  0
  6  8  1  0  0  0  0
  7 10  1  0  0  0  0
  8 11  1  0  0  0  0
  9 12  1  0  0  0  0
 10 13  1  0  0  0  0
M  CHG  1   4  -1
M  END
>  <CHROM.1>
-178.32848013,-179.48739811,-149.80176173,179.95615356,-59.06658108,-179.06629672
59.70363109,-176.58344416,178.67516877,34.97293948,31.15320544,46.85006680
3.09210675,0.38911093,-1.75272073

>  <Name>
ligand

>  <RI>
0

>  <Rbt.Current_Directory>
/home/itssahil/PROJECTS/Mol_Feturizer/New_Systems/rnas/2NPY

>  <Rbt.Executable>
rbdock ($Id: //depot/dev/client3/rdock/2013.1/src/exe/rbdock.cxx#4 $)

>  <Rbt.Library>
libRbt.so (2013.1, Build901 2013/11/27)

>  <Rbt.Parameter_File>
/export/apps/rDock/src/rDock_2013.1_src/data/scripts/dock_solv.prm

>  <Rbt.Receptor>
prm/pocket_docking_7.prm

>  <SCORE>
-12.2735

>  <SCORE.INTER>
2.0371

>  <SCORE.INTER.CONST>
1

>  <SCORE.INTER.POLAR>
0

>  <SCORE.INTER.ROT>
9

>  <SCORE.INTER.SOLV>
15.5751

>  <SCORE.INTER.VDW>
-13.4336

>  <SCORE.INTER.norm>
0.1567

>  <SCORE.INTRA>
-14.3106

>  <SCORE.INTRA.DIHEDRAL>
-25.0064

>  <SCORE.INTRA.DIHEDRAL.0>
25.6828

>  <SCORE.INTRA.POLAR>
0

>  <SCORE.INTRA.POLAR.0>
0

>  <SCORE.INTRA.REPUL>
0

>  <SCORE.INTRA.REPUL.0>
0

>  <SCORE.INTRA.SOLV>
-1.39579

>  <SCORE.INTRA.SOLV.lig_0>
-48.5059

>  <SCORE.INTRA.VDW>
-1.10948

>  <SCORE.INTRA.VDW.0>
-0.363643

>  <SCORE.INTRA.norm>
-1.10082

>  <SCORE.RESTR>
0

>  <SCORE.RESTR.CAVITY>
0

>  <SCORE.RESTR.norm>
0

>  <SCORE.SYSTEM>
0

>  <SCORE.SYSTEM.CONST>
0

>  <SCORE.SYSTEM.DIHEDRAL>
0

>  <SCORE.SYSTEM.SOLV>
0

>  <SCORE.SYSTEM.norm>
0

>  <SCORE.heavy>
13

>  <SCORE.norm>
-0.944115

>  <RMSD>
5.132

$$$$
ligand
 OpenBabel11021811453D
libRbt.so/2013.1/901 2013/11/27
 13 12  0  0  0  0  0  0  0  0999 V2000
   34.8238   31.0129   49.2225 O   0  0  0  0  0  0  0  0  0  0  0  0
   32.1511   31.7292   48.3530 O   0  0  0  0  0  0  0  0  0  0  0  0
   37.5833   30.4508   45.9489 P   0  0  2  0  0  0  0  0  0  0  0  0
   39.0506   30.4467   46.2178 O   0  5  0  0  0  0  0  0  0  0  0  0
   37.0667   31.1510   44.7449 O   0  0  0  0  0  0  0  0  0  0  0  0
   36.8342   31.0598   47.2081 O   0  0  0  0  0  0  0  0  0  0  0  0
   29.2262   31.7799   46.1398 O   0  0  0  0  0  0  0  0  0  0  0  0
   37.1254   30.5996   48.5356 C   0  0  0  0  0  0  0  0  0  0  0  0
   32.4102   31.3119   49.7179 C   0  0  0  0  0  0  0  0  0  0  0  0
   30.5919   31.9627   46.4846 C   0  0  0  0  0  0  0  0  0  0  0  0
   36.1984   31.2949   49.5470 C   0  0  0  0  0  0  0  0  0  0  0  0
   33.8689   31.6085   50.1444 C   0  0  0  0  0  0  0  0  0  0  0  0
   30.7780   31.5208   47.9471 C   0  0  0  0  0  0  0  0  0  0  0  0
  1 12  1  0  0  0  0
  1 11  1  0  0  0  0
  2 13  1  0  0  0  0
  2  9  1  0  0  0  0
  3  4  1  1  0  0  0
  3  5  2  0  0  0  0
  3  6  1  0  0  0  0
  6  8  1  0  0  0  0
  7 10  1  0  0  0  0
  8 11  1  0  0  0  0
  9 12  1  0  0  0  0
 10 13  1  0  0  0  0
M  CHG  1   4  -1
M  END
>  <CHROM.1>
178.06352550,-178.95878636,-48.89866216,-176.52593735,59.05884505,-177.31004954
-54.85885994,-178.27378890,178.80102731,34.71502783,31.16151363,47.52655233
-2.97084385,0.14378721,-1.59285693

>  <Name>
ligand

>  <RI>
0

>  <Rbt.Current_Directory>
/home/itssahil/PROJECTS/Mol_Feturizer/New_Systems/rnas/2NPY

>  <Rbt.Executable>
rbdock ($Id: //depot/dev/client3/rdock/2013.1/src/exe/rbdock.cxx#4 $)

>  <Rbt.Library>
libRbt.so (2013.1, Build901 2013/11/27)

>  <Rbt.Parameter_File>
/export/apps/rDock/src/rDock_2013.1_src/data/scripts/dock_solv.prm

>  <Rbt.Receptor>
prm/pocket_docking_6.prm

>  <SCORE>
-13.473

>  <SCORE.INTER>
0.846322

>  <SCORE.INTER.CONST>
1

>  <SCORE.INTER.POLAR>
0

>  <SCORE.INTER.ROT>
9

>  <SCORE.INTER.SOLV>
9.45505

>  <SCORE.INTER.VDW>
-12.1875

>  <SCORE.INTER.norm>
0.0651017

>  <SCORE.INTRA>
-14.3193

>  <SCORE.INTRA.DIHEDRAL>
-25.3769

>  <SCORE.INTRA.DIHEDRAL.0>
25.6828

>  <SCORE.INTRA.POLAR>
0

>  <SCORE.INTRA.POLAR.0>
0

>  <SCORE.INTRA.REPUL>
0

>  <SCORE.INTRA.REPUL.0>
0

>  <SCORE.INTRA.SOLV>
-1.22586

>  <SCORE.INTRA.SOLV.lig_0>
-48.5059

>  <SCORE.INTRA.VDW>
-1.01791

>  <SCORE.INTRA.VDW.0>
-0.363643

>  <SCORE.INTRA.norm>
-1.10148

>  <SCORE.RESTR>
0

>  <SCORE.RESTR.CAVITY>
0

>  <SCORE.RESTR.norm>
0

>  <SCORE.SYSTEM>
0

>  <SCORE.SYSTEM.CONST>
0

>  <SCORE.SYSTEM.DIHEDRAL>
0

>  <SCORE.SYSTEM.SOLV>
0

>  <SCORE.SYSTEM.norm>
0

>  <SCORE.heavy>
13

>  <SCORE.norm>
-1.03638

>  <RMSD>
5.139

$$$$
ligand
 OpenBabel11021811453D
libRbt.so/2013.1/901 2013/11/27
 13 12  0  0  0  0  0  0  0  0999 V2000
   34.8451   30.9503   49.2675 O   0  0  0  0  0  0  0  0  0  0  0  0
   32.0594   31.5667   48.5257 O   0  0  0  0  0  0  0  0  0  0  0  0
   37.5689   30.4222   45.9096 P   0  0  2  0  0  0  0  0  0  0  0  0
   39.0333   30.4722   46.1898 O   0  5  0  0  0  0  0  0  0  0  0  0
   37.0350   31.1105   44.7063 O   0  0  0  0  0  0  0  0  0  0  0  0
   36.7878   30.9934   47.1669 O   0  0  0  0  0  0  0  0  0  0  0  0
   30.5353   33.1139   46.7169 O   0  0  0  0  0  0  0  0  0  0  0  0
   37.1283   30.5816   48.4986 C   0  0  0  0  0  0  0  0  0  0  0  0
   32.4472   31.1748   49.8675 C   0  0  0  0  0  0  0  0  0  0  0  0
   30.3461   31.7079   46.7876 C   0  0  0  0  0  0  0  0  0  0  0  0
   36.2214   31.2943   49.5162 C   0  0  0  0  0  0  0  0  0  0  0  0
   33.9079   31.5778   50.1863 C   0  0  0  0  0  0  0  0  0  0  0  0
   30.6806   31.2528   48.2193 C   0  0  0  0  0  0  0  0  0  0  0  0
  1 12  1  0  0  0  0
  1 11  1  0  0  0  0
  2 13  1  0  0  0  0
  2  9  1  0  0  0  0
  3  4  1  1  0  0  0
  3  5  2  0  0  0  0
  3  6  1  0  0  0  0
  6  8  1  0  0  0  0
  7 10  1  0  0  0  0
  8 11  1  0  0  0  0
  9 12  1  0  0  0  0
 10 13  1  0  0  0  0
M  CHG  1   4  -1
M  END
>  <CHROM.1>
179.82697436,179.56635062,-45.98317828,179.66555380,60.62302559,-177.55986529
-60.03622044,-60.77591582,179.88564875,34.78351478,31.18806025,47.61928156
-2.89675381,0.19912317,-1.50299047

>  <Name>
ligand

>  <RI>
0

>  <Rbt.Current_Directory>
/home/itssahil/PROJECTS/Mol_Feturizer/New_Systems/rnas/2NPY

>  <Rbt.Executable>
rbdock ($Id: //depot/dev/client3/rdock/2013.1/src/exe/rbdock.cxx#4 $)

>  <Rbt.Library>
libRbt.so (2013.1, Build901 2013/11/27)

>  <Rbt.Parameter_File>
/export/apps/rDock/src/rDock_2013.1_src/data/scripts/dock_solv.prm

>  <Rbt.Receptor>
prm/pocket_docking_7.prm

>  <SCORE>
-13.2588

>  <SCORE.INTER>
1.03225

>  <SCORE.INTER.CONST>
1

>  <SCORE.INTER.POLAR>
0

>  <SCORE.INTER.ROT>
9

>  <SCORE.INTER.SOLV>
9.47472

>  <SCORE.INTER.VDW>
-12.0701

>  <SCORE.INTER.norm>
0.0794039

>  <SCORE.INTRA>
-14.2911

>  <SCORE.INTRA.DIHEDRAL>
-25.5379

>  <SCORE.INTRA.DIHEDRAL.0>
25.6828

>  <SCORE.INTRA.POLAR>
0

>  <SCORE.INTRA.POLAR.0>
0

>  <SCORE.INTRA.REPUL>
0

>  <SCORE.INTRA.REPUL.0>
0

>  <SCORE.INTRA.SOLV>
-0.98545

>  <SCORE.INTRA.SOLV.lig_0>
-48.5059

>  <SCORE.INTRA.VDW>
-1.02942

>  <SCORE.INTRA.VDW.0>
-0.363643

>  <SCORE.INTRA.norm>
-1.09931

>  <SCORE.RESTR>
0

>  <SCORE.RESTR.CAVITY>
0

>  <SCORE.RESTR.norm>
0

>  <SCORE.SYSTEM>
0

>  <SCORE.SYSTEM.CONST>
0

>  <SCORE.SYSTEM.DIHEDRAL>
0

>  <SCORE.SYSTEM.SOLV>
0

>  <SCORE.SYSTEM.norm>
0

>  <SCORE.heavy>
13

>  <SCORE.norm>
-1.01991

>  <RMSD>
5.145

$$$$
ligand
 OpenBabel11021811453D
libRbt.so/2013.1/901 2013/11/27
 13 12  0  0  0  0  0  0  0  0999 V2000
   30.2427   32.4046   48.0776 O   0  0  0  0  0  0  0  0  0  0  0  0
   31.0448   33.0325   45.2970 O   0  0  0  0  0  0  0  0  0  0  0  0
   31.1520   36.5934   48.6796 P   0  0  2  0  0  0  0  0  0  0  0  0
   30.0541   37.5814   48.4700 O   0  5  0  0  0  0  0  0  0  0  0  0
   32.2569   36.5136   47.6899 O   0  0  0  0  0  0  0  0  0  0  0  0
   30.5192   35.1434   48.8001 O   0  0  0  0  0  0  0  0  0  0  0  0
   29.3179   34.6682   43.7584 O   0  0  0  0  0  0  0  0  0  0  0  0
   31.1763   34.1097   49.5475 C   0  0  0  0  0  0  0  0  0  0  0  0
   31.3541   31.7744   45.9496 C   0  0  0  0  0  0  0  0  0  0  0  0
   30.5848   34.2809   43.2460 C   0  0  0  0  0  0  0  0  0  0  0  0
   30.3704   32.8028   49.4558 C   0  0  0  0  0  0  0  0  0  0  0  0
   31.4861   31.9381   47.4838 C   0  0  0  0  0  0  0  0  0  0  0  0
   30.9501   32.9167   43.8578 C   0  0  0  0  0  0  0  0  0  0  0  0
  1 12  1  0  0  0  0
  1 11  1  0  0  0  0
  2 13  1  0  0  0  0
  2  9  1  0  0  0  0
  3  4  1  6  0  0  0
  3  5  2  0  0  0  0
  3  6  1  0  0  0  0
  6  8  1  0  0  0  0
  7 10  1  0  0  0  0
  8 11  1  0  0  0  0
  9 12  1  0  0  0  0
 10 13  1  0  0  0  0
M  CHG  1   4  -1
M  END
>  <CHROM.1>
-169.47685611,178.53513385,-152.74660049,-178.05229884,59.02282033,178.46807711
61.46489927,-61.42200035,70.48542579,30.82277326,34.37500392,47.09004361
-2.17218303,-1.47108709,0.38625917

>  <Name>
ligand

>  <RI>
0

>  <Rbt.Current_Directory>
/home/itssahil/PROJECTS/Mol_Feturizer/New_Systems/rnas/2NPY

>  <Rbt.Executable>
rbdock ($Id: //depot/dev/client3/rdock/2013.1/src/exe/rbdock.cxx#4 $)

>  <Rbt.Library>
libRbt.so (2013.1, Build901 2013/11/27)

>  <Rbt.Parameter_File>
/export/apps/rDock/src/rDock_2013.1_src/data/scripts/dock_solv.prm

>  <Rbt.Receptor>
prm/pocket_docking_3.prm

>  <SCORE>
-4.74943

>  <SCORE.INTER>
8.34766

>  <SCORE.INTER.CONST>
1

>  <SCORE.INTER.POLAR>
0

>  <SCORE.INTER.ROT>
9

>  <SCORE.INTER.SOLV>
5.81707

>  <SCORE.INTER.VDW>
-5.97392

>  <SCORE.INTER.norm>
0.642128

>  <SCORE.INTRA>
-13.0971

>  <SCORE.INTRA.DIHEDRAL>
-24.072

>  <SCORE.INTRA.DIHEDRAL.0>
25.6828

>  <SCORE.INTRA.POLAR>
0

>  <SCORE.INTRA.POLAR.0>
0

>  <SCORE.INTRA.REPUL>
0

>  <SCORE.INTRA.REPUL.0>
0

>  <SCORE.INTRA.SOLV>
-0.948049

>  <SCORE.INTRA.SOLV.lig_0>
-48.5059

>  <SCORE.INTRA.VDW>
-0.587041

>  <SCORE.INTRA.VDW.0>
-0.363643

>  <SCORE.INTRA.norm>
-1.00747

>  <SCORE.RESTR>
0

>  <SCORE.RESTR.CAVITY>
0

>  <SCORE.RESTR.norm>
0

>  <SCORE.SYSTEM>
0

>  <SCORE.SYSTEM.CONST>
0

>  <SCORE.SYSTEM.DIHEDRAL>
0

>  <SCORE.SYSTEM.SOLV>
0

>  <SCORE.SYSTEM.norm>
0

>  <SCORE.heavy>
13

>  <SCORE.norm>
-0.365341

>  <RMSD>
5.146

$$$$
ligand
 OpenBabel11021811453D
libRbt.so/2013.1/901 2013/11/27
 13 12  0  0  0  0  0  0  0  0999 V2000
   34.9916   30.9937   49.1538 O   0  0  0  0  0  0  0  0  0  0  0  0
   32.4006   31.8445   47.9574 O   0  0  0  0  0  0  0  0  0  0  0  0
   37.6069   30.1969   45.9929 P   0  0  2  0  0  0  0  0  0  0  0  0
   39.0891   30.3038   46.1235 O   0  5  0  0  0  0  0  0  0  0  0  0
   36.9478   30.6971   44.7591 O   0  0  0  0  0  0  0  0  0  0  0  0
   36.9303   30.9356   47.2233 O   0  0  0  0  0  0  0  0  0  0  0  0
   29.6293   31.9006   45.5547 O   0  0  0  0  0  0  0  0  0  0  0  0
   37.3326   30.6484   48.5704 C   0  0  0  0  0  0  0  0  0  0  0  0
   32.5603   31.4549   49.3455 C   0  0  0  0  0  0  0  0  0  0  0  0
   30.9748   32.0550   45.9826 C   0  0  0  0  0  0  0  0  0  0  0  0
   36.3423   31.2845   49.5606 C   0  0  0  0  0  0  0  0  0  0  0  0
   33.9847   31.7615   49.8700 C   0  0  0  0  0  0  0  0  0  0  0  0
   31.0510   31.6621   47.4688 C   0  0  0  0  0  0  0  0  0  0  0  0
  1 12  1  0  0  0  0
  1 11  1  0  0  0  0
  2 13  1  0  0  0  0
  2  9  1  0  0  0  0
  3  4  1  6  0  0  0
  3  5  2  0  0  0  0
  3  6  1  0  0  0  0
  6  8  1  0  0  0  0
  7 10  1  0  0  0  0
  8 11  1  0  0  0  0
  9 12  1  0  0  0  0
 10 13  1  0  0  0  0
M  CHG  1   4  -1
M  END
>  <CHROM.1>
177.36504220,-178.24805048,-50.81821315,-168.90646759,47.01102440,-175.66919280
-63.22676764,-178.24830544,-168.69318399,34.86641614,31.12379687,47.34368970
-0.09816984,-0.19214463,1.48602232

>  <Name>
ligand

>  <RI>
0

>  <Rbt.Current_Directory>
/home/itssahil/PROJECTS/Mol_Feturizer/New_Systems/rnas/2NPY

>  <Rbt.Executable>
rbdock ($Id: //depot/dev/client3/rdock/2013.1/src/exe/rbdock.cxx#4 $)

>  <Rbt.Library>
libRbt.so (2013.1, Build901 2013/11/27)

>  <Rbt.Parameter_File>
/export/apps/rDock/src/rDock_2013.1_src/data/scripts/dock_solv.prm

>  <Rbt.Receptor>
prm/pocket_docking_5.prm

>  <SCORE>
-12.4728

>  <SCORE.INTER>
0.916842

>  <SCORE.INTER.CONST>
1

>  <SCORE.INTER.POLAR>
0

>  <SCORE.INTER.ROT>
9

>  <SCORE.INTER.SOLV>
12.1869

>  <SCORE.INTER.VDW>
-13.0511

>  <SCORE.INTER.norm>
0.0705263

>  <SCORE.INTRA>
-13.3896

>  <SCORE.INTRA.DIHEDRAL>
-23.6271

>  <SCORE.INTRA.DIHEDRAL.0>
25.6828

>  <SCORE.INTRA.POLAR>
0

>  <SCORE.INTRA.POLAR.0>
0

>  <SCORE.INTRA.REPUL>
0

>  <SCORE.INTRA.REPUL.0>
0

>  <SCORE.INTRA.SOLV>
-1.15835

>  <SCORE.INTRA.SOLV.lig_0>
-48.5059

>  <SCORE.INTRA.VDW>
-0.996879

>  <SCORE.INTRA.VDW.0>
-0.363643

>  <SCORE.INTRA.norm>
-1.02997

>  <SCORE.RESTR>
0

>  <SCORE.RESTR.CAVITY>
0

>  <SCORE.RESTR.norm>
0

>  <SCORE.SYSTEM>
0

>  <SCORE.SYSTEM.CONST>
0

>  <SCORE.SYSTEM.DIHEDRAL>
0

>  <SCORE.SYSTEM.SOLV>
0

>  <SCORE.SYSTEM.norm>
0

>  <SCORE.heavy>
13

>  <SCORE.norm>
-0.959444

>  <RMSD>
5.157

$$$$
ligand
 OpenBabel11021811453D
libRbt.so/2013.1/901 2013/11/27
 13 12  0  0  0  0  0  0  0  0999 V2000
   33.6711   31.6426   41.9637 O   0  0  0  0  0  0  0  0  0  0  0  0
   32.4830   32.4125   44.6169 O   0  0  0  0  0  0  0  0  0  0  0  0
   37.7004   31.0968   43.9060 P   0  0  2  0  0  0  0  0  0  0  0  0
   38.5601   31.1720   42.6892 O   0  5  0  0  0  0  0  0  0  0  0  0
   38.3197   30.7625   45.2142 O   0  0  0  0  0  0  0  0  0  0  0  0
   36.5410   30.0446   43.6489 O   0  0  0  0  0  0  0  0  0  0  0  0
   33.0633   33.3547   47.2083 O   0  0  0  0  0  0  0  0  0  0  0  0
   35.5659   30.2561   42.6177 C   0  0  0  0  0  0  0  0  0  0  0  0
   31.8132   32.5488   43.3374 C   0  0  0  0  0  0  0  0  0  0  0  0
   32.3484   32.1386   47.0425 C   0  0  0  0  0  0  0  0  0  0  0  0
   34.7063   31.4869   42.9529 C   0  0  0  0  0  0  0  0  0  0  0  0
   32.8168   32.7991   42.1851 C   0  0  0  0  0  0  0  0  0  0  0  0
   31.5660   32.2216   45.7197 C   0  0  0  0  0  0  0  0  0  0  0  0
  1 12  1  0  0  0  0
  1 11  1  0  0  0  0
  2 13  1  0  0  0  0
  2  9  1  0  0  0  0
  3  4  1  6  0  0  0
  3  5  2  0  0  0  0
  3  6  1  0  0  0  0
  6  8  1  0  0  0  0
  7 10  1  0  0  0  0
  8 11  1  0  0  0  0
  9 12  1  0  0  0  0
 10 13  1  0  0  0  0
M  CHG  1   4  -1
M  END
>  <CHROM.1>
-75.71484446,-177.90298482,-63.01568235,-65.55950031,-176.10615862,178.07885788
66.27410266,59.90252053,-179.02074703,34.85308594,31.63314858,44.07822443
2.84310915,-0.27049540,1.44213447

>  <Name>
ligand

>  <RI>
0

>  <Rbt.Current_Directory>
/home/itssahil/PROJECTS/Mol_Feturizer/New_Systems/rnas/2NPY

>  <Rbt.Executable>
rbdock ($Id: //depot/dev/client3/rdock/2013.1/src/exe/rbdock.cxx#4 $)

>  <Rbt.Library>
libRbt.so (2013.1, Build901 2013/11/27)

>  <Rbt.Parameter_File>
/export/apps/rDock/src/rDock_2013.1_src/data/scripts/dock_solv.prm

>  <Rbt.Receptor>
prm/pocket_docking_5.prm

>  <SCORE>
-7.23233

>  <SCORE.INTER>
4.86102

>  <SCORE.INTER.CONST>
1

>  <SCORE.INTER.POLAR>
0

>  <SCORE.INTER.ROT>
9

>  <SCORE.INTER.SOLV>
7.18741

>  <SCORE.INTER.VDW>
-8.75512

>  <SCORE.INTER.norm>
0.373924

>  <SCORE.INTRA>
-12.0934

>  <SCORE.INTRA.DIHEDRAL>
-24.031

>  <SCORE.INTRA.DIHEDRAL.0>
25.6828

>  <SCORE.INTRA.POLAR>
0

>  <SCORE.INTRA.POLAR.0>
0

>  <SCORE.INTRA.REPUL>
0

>  <SCORE.INTRA.REPUL.0>
0

>  <SCORE.INTRA.SOLV>
0.170716

>  <SCORE.INTRA.SOLV.lig_0>
-48.5059

>  <SCORE.INTRA.VDW>
-0.163208

>  <SCORE.INTRA.VDW.0>
-0.363643

>  <SCORE.INTRA.norm>
-0.930258

>  <SCORE.RESTR>
0

>  <SCORE.RESTR.CAVITY>
0

>  <SCORE.RESTR.norm>
0

>  <SCORE.SYSTEM>
0

>  <SCORE.SYSTEM.CONST>
0

>  <SCORE.SYSTEM.DIHEDRAL>
0

>  <SCORE.SYSTEM.SOLV>
0

>  <SCORE.SYSTEM.norm>
0

>  <SCORE.heavy>
13

>  <SCORE.norm>
-0.556333

>  <RMSD>
5.168

$$$$
ligand
 OpenBabel11021811453D
libRbt.so/2013.1/901 2013/11/27
 13 12  0  0  0  0  0  0  0  0999 V2000
   34.8109   30.9551   49.5084 O   0  0  0  0  0  0  0  0  0  0  0  0
   31.8999   30.9122   49.1474 O   0  0  0  0  0  0  0  0  0  0  0  0
   37.4588   30.4282   45.9677 P   0  0  2  0  0  0  0  0  0  0  0  0
   38.9239   30.5138   46.2354 O   0  5  0  0  0  0  0  0  0  0  0  0
   36.9030   31.0750   44.7513 O   0  0  0  0  0  0  0  0  0  0  0  0
   36.6756   31.0164   47.2160 O   0  0  0  0  0  0  0  0  0  0  0  0
   30.4312   33.3216   46.8032 O   0  0  0  0  0  0  0  0  0  0  0  0
   37.0322   30.6440   48.5550 C   0  0  0  0  0  0  0  0  0  0  0  0
   32.5178   30.9874   50.4577 C   0  0  0  0  0  0  0  0  0  0  0  0
   30.7935   32.0327   47.2774 C   0  0  0  0  0  0  0  0  0  0  0  0
   36.1716   31.4240   49.5633 C   0  0  0  0  0  0  0  0  0  0  0  0
   33.9086   31.6659   50.4011 C   0  0  0  0  0  0  0  0  0  0  0  0
   31.4996   32.2044   48.6341 C   0  0  0  0  0  0  0  0  0  0  0  0
  1 12  1  0  0  0  0
  1 11  1  0  0  0  0
  2 13  1  0  0  0  0
  2  9  1  0  0  0  0
  3  4  1  1  0  0  0
  3  5  2  0  0  0  0
  3  6  1  0  0  0  0
  6  8  1  0  0  0  0
  7 10  1  0  0  0  0
  8 11  1  0  0  0  0
  9 12  1  0  0  0  0
 10 13  1  0  0  0  0
M  CHG  1   4  -1
M  END
>  <CHROM.1>
-171.49577386,-177.24769582,-46.07512917,176.54278104,70.08003837,-69.30117048
-58.50080925,-179.37654646,-178.16102706,34.79717943,31.24862108,47.83076175
-2.82673403,0.25637518,-1.44066548

>  <Name>
ligand

>  <RI>
0

>  <Rbt.Current_Directory>
/home/itssahil/PROJECTS/Mol_Feturizer/New_Systems/rnas/2NPY

>  <Rbt.Executable>
rbdock ($Id: //depot/dev/client3/rdock/2013.1/src/exe/rbdock.cxx#4 $)

>  <Rbt.Library>
libRbt.so (2013.1, Build901 2013/11/27)

>  <Rbt.Parameter_File>
/export/apps/rDock/src/rDock_2013.1_src/data/scripts/dock_solv.prm

>  <Rbt.Receptor>
prm/pocket_docking_6.prm

>  <SCORE>
-11.3062

>  <SCORE.INTER>
1.67949

>  <SCORE.INTER.CONST>
1

>  <SCORE.INTER.POLAR>
0

>  <SCORE.INTER.ROT>
9

>  <SCORE.INTER.SOLV>
9.88244

>  <SCORE.INTER.VDW>
-11.7745

>  <SCORE.INTER.norm>
0.129192

>  <SCORE.INTRA>
-12.9856

>  <SCORE.INTRA.DIHEDRAL>
-24.3064

>  <SCORE.INTRA.DIHEDRAL.0>
25.6828

>  <SCORE.INTRA.POLAR>
0

>  <SCORE.INTRA.POLAR.0>
0

>  <SCORE.INTRA.REPUL>
0

>  <SCORE.INTRA.REPUL.0>
0

>  <SCORE.INTRA.SOLV>
-1.2349

>  <SCORE.INTRA.SOLV.lig_0>
-48.5059

>  <SCORE.INTRA.VDW>
-0.215006

>  <SCORE.INTRA.VDW.0>
-0.363643

>  <SCORE.INTRA.norm>
-0.998896

>  <SCORE.RESTR>
0

>  <SCORE.RESTR.CAVITY>
0

>  <SCORE.RESTR.norm>
0

>  <SCORE.SYSTEM>
0

>  <SCORE.SYSTEM.CONST>
0

>  <SCORE.SYSTEM.DIHEDRAL>
0

>  <SCORE.SYSTEM.SOLV>
0

>  <SCORE.SYSTEM.norm>
0

>  <SCORE.heavy>
13

>  <SCORE.norm>
-0.869704

>  <RMSD>
5.171

$$$$
ligand
 OpenBabel11021811453D
libRbt.so/2013.1/901 2013/11/27
 13 12  0  0  0  0  0  0  0  0999 V2000
   31.5398   31.8562   48.3484 O   0  0  0  0  0  0  0  0  0  0  0  0
   31.3314   31.6824   45.3930 O   0  0  0  0  0  0  0  0  0  0  0  0
   31.7522   35.8775   46.6482 P   0  0  2  0  0  0  0  0  0  0  0  0
   30.5751   35.7281   45.7441 O   0  5  0  0  0  0  0  0  0  0  0  0
   33.0928   36.1313   46.0605 O   0  0  0  0  0  0  0  0  0  0  0  0
   31.8704   34.5795   47.5529 O   0  0  0  0  0  0  0  0  0  0  0  0
   33.5662   32.4998   43.8607 O   0  0  0  0  0  0  0  0  0  0  0  0
   30.7934   34.1754   48.4106 C   0  0  0  0  0  0  0  0  0  0  0  0
   30.1971   31.9319   46.2622 C   0  0  0  0  0  0  0  0  0  0  0  0
   32.4185   31.9601   43.2210 C   0  0  0  0  0  0  0  0  0  0  0  0
   31.2110   32.9444   49.2327 C   0  0  0  0  0  0  0  0  0  0  0  0
   30.3896   31.2920   47.6591 C   0  0  0  0  0  0  0  0  0  0  0  0
   31.1900   32.2899   44.0875 C   0  0  0  0  0  0  0  0  0  0  0  0
  1 12  1  0  0  0  0
  1 11  1  0  0  0  0
  2 13  1  0  0  0  0
  2  9  1  0  0  0  0
  3  4  1  6  0  0  0
  3  5  2  0  0  0  0
  3  6  1  0  0  0  0
  6  8  1  0  0  0  0
  7 10  1  0  0  0  0
  8 11  1  0  0  0  0
  9 12  1  0  0  0  0
 10 13  1  0  0  0  0
M  CHG  1   4  -1
M  END
>  <CHROM.1>
94.43616627,-179.04891347,-58.45818731,-176.40934043,-60.09107151,-178.94374109
62.14678251,-61.16131833,-70.02814018,31.57646216,33.53512352,46.35869043
1.80790258,1.20305514,0.51886519

>  <Name>
ligand

>  <RI>
0

>  <Rbt.Current_Directory>
/home/itssahil/PROJECTS/Mol_Feturizer/New_Systems/rnas/2NPY

>  <Rbt.Executable>
rbdock ($Id: //depot/dev/client3/rdock/2013.1/src/exe/rbdock.cxx#4 $)

>  <Rbt.Library>
libRbt.so (2013.1, Build901 2013/11/27)

>  <Rbt.Parameter_File>
/export/apps/rDock/src/rDock_2013.1_src/data/scripts/dock_solv.prm

>  <Rbt.Receptor>
prm/pocket_docking_3.prm

>  <SCORE>
-3.70361

>  <SCORE.INTER>
6.85802

>  <SCORE.INTER.CONST>
1

>  <SCORE.INTER.POLAR>
0

>  <SCORE.INTER.ROT>
9

>  <SCORE.INTER.SOLV>
4.33619

>  <SCORE.INTER.VDW>
-6.47339

>  <SCORE.INTER.norm>
0.52754

>  <SCORE.INTRA>
-10.5616

>  <SCORE.INTRA.DIHEDRAL>
-20.6298

>  <SCORE.INTRA.DIHEDRAL.0>
25.6828

>  <SCORE.INTRA.POLAR>
0

>  <SCORE.INTRA.POLAR.0>
0

>  <SCORE.INTRA.REPUL>
0

>  <SCORE.INTRA.REPUL.0>
0

>  <SCORE.INTRA.SOLV>
1.02981

>  <SCORE.INTRA.SOLV.lig_0>
-48.5059

>  <SCORE.INTRA.VDW>
-0.761648

>  <SCORE.INTRA.VDW.0>
-0.363643

>  <SCORE.INTRA.norm>
-0.812433

>  <SCORE.RESTR>
0

>  <SCORE.RESTR.CAVITY>
0

>  <SCORE.RESTR.norm>
0

>  <SCORE.SYSTEM>
0

>  <SCORE.SYSTEM.CONST>
0

>  <SCORE.SYSTEM.DIHEDRAL>
0

>  <SCORE.SYSTEM.SOLV>
0

>  <SCORE.SYSTEM.norm>
0

>  <SCORE.heavy>
13

>  <SCORE.norm>
-0.284893

>  <RMSD>
5.178

$$$$
ligand
 OpenBabel11021811453D
libRbt.so/2013.1/901 2013/11/27
 13 12  0  0  0  0  0  0  0  0999 V2000
   34.1780   31.8410   48.6321 O   0  0  0  0  0  0  0  0  0  0  0  0
   32.0046   31.8332   46.7065 O   0  0  0  0  0  0  0  0  0  0  0  0
   37.8518   30.4382   46.7779 P   0  0  2  0  0  0  0  0  0  0  0  0
   37.4836   29.9513   45.4167 O   0  5  0  0  0  0  0  0  0  0  0  0
   38.8743   29.6993   47.5624 O   0  0  0  0  0  0  0  0  0  0  0  0
   36.5392   30.5154   47.6659 O   0  0  0  0  0  0  0  0  0  0  0  0
   32.7747   32.2536   43.9899 O   0  0  0  0  0  0  0  0  0  0  0  0
   36.5251   31.2426   48.9028 C   0  0  0  0  0  0  0  0  0  0  0  0
   31.8279   32.3766   48.0398 C   0  0  0  0  0  0  0  0  0  0  0  0
   31.4460   31.8815   44.3269 C   0  0  0  0  0  0  0  0  0  0  0  0
   35.1163   31.2026   49.5189 C   0  0  0  0  0  0  0  0  0  0  0  0
   32.7927   31.7245   49.0605 C   0  0  0  0  0  0  0  0  0  0  0  0
   31.1333   32.4431   45.7254 C   0  0  0  0  0  0  0  0  0  0  0  0
  1 12  1  0  0  0  0
  1 11  1  0  0  0  0
  2 13  1  0  0  0  0
  2  9  1  0  0  0  0
  3  4  1  6  0  0  0
  3  5  2  0  0  0  0
  3  6  1  0  0  0  0
  6  8  1  0  0  0  0
  7 10  1  0  0  0  0
  8 11  1  0  0  0  0
  9 12  1  0  0  0  0
 10 13  1  0  0  0  0
M  CHG  1   4  -1
M  END
>  <CHROM.1>
-177.60836299,176.25427420,-164.93682686,177.49797106,-62.00962992,-178.86710669
55.22692674,-63.60718982,173.64473573,34.81755356,31.24828563,47.05131598
2.97097994,0.31680458,-1.62841041

>  <Name>
ligand

>  <RI>
0

>  <Rbt.Current_Directory>
/home/itssahil/PROJECTS/Mol_Feturizer/New_Systems/rnas/2NPY

>  <Rbt.Executable>
rbdock ($Id: //depot/dev/client3/rdock/2013.1/src/exe/rbdock.cxx#4 $)

>  <Rbt.Library>
libRbt.so (2013.1, Build901 2013/11/27)

>  <Rbt.Parameter_File>
/export/apps/rDock/src/rDock_2013.1_src/data/scripts/dock_solv.prm

>  <Rbt.Receptor>
prm/pocket_docking_5.prm

>  <SCORE>
-12.1612

>  <SCORE.INTER>
2.09144

>  <SCORE.INTER.CONST>
1

>  <SCORE.INTER.POLAR>
0

>  <SCORE.INTER.ROT>
9

>  <SCORE.INTER.SOLV>
12.6671

>  <SCORE.INTER.VDW>
-12.4281

>  <SCORE.INTER.norm>
0.16088

>  <SCORE.INTRA>
-14.2527

>  <SCORE.INTRA.DIHEDRAL>
-25.0709

>  <SCORE.INTRA.DIHEDRAL.0>
25.6828

>  <SCORE.INTRA.POLAR>
0

>  <SCORE.INTRA.POLAR.0>
0

>  <SCORE.INTRA.REPUL>
0

>  <SCORE.INTRA.REPUL.0>
0

>  <SCORE.INTRA.SOLV>
-1.06605

>  <SCORE.INTRA.SOLV.lig_0>
-48.5059

>  <SCORE.INTRA.VDW>
-1.1842

>  <SCORE.INTRA.VDW.0>
-0.363643

>  <SCORE.INTRA.norm>
-1.09636

>  <SCORE.RESTR>
0

>  <SCORE.RESTR.CAVITY>
0

>  <SCORE.RESTR.norm>
0

>  <SCORE.SYSTEM>
0

>  <SCORE.SYSTEM.CONST>
0

>  <SCORE.SYSTEM.DIHEDRAL>
0

>  <SCORE.SYSTEM.SOLV>
0

>  <SCORE.SYSTEM.norm>
0

>  <SCORE.heavy>
13

>  <SCORE.norm>
-0.935479

>  <RMSD>
5.181

$$$$
ligand
 OpenBabel11021811453D
libRbt.so/2013.1/901 2013/11/27
 13 12  0  0  0  0  0  0  0  0999 V2000
   34.9346   31.0370   49.1715 O   0  0  0  0  0  0  0  0  0  0  0  0
   32.3384   31.8528   48.0893 O   0  0  0  0  0  0  0  0  0  0  0  0
   37.7726   30.1827   46.0497 P   0  0  2  0  0  0  0  0  0  0  0  0
   39.2342   30.3651   46.2863 O   0  5  0  0  0  0  0  0  0  0  0  0
   37.1785   30.6538   44.7722 O   0  0  0  0  0  0  0  0  0  0  0  0
   36.9726   30.8804   47.2290 O   0  0  0  0  0  0  0  0  0  0  0  0
   29.5701   31.8040   45.6826 O   0  0  0  0  0  0  0  0  0  0  0  0
   37.2575   30.5700   48.6007 C   0  0  0  0  0  0  0  0  0  0  0  0
   32.5096   31.4688   49.4776 C   0  0  0  0  0  0  0  0  0  0  0  0
   30.9067   32.0155   46.1144 C   0  0  0  0  0  0  0  0  0  0  0  0
   36.2979   31.3406   49.5232 C   0  0  0  0  0  0  0  0  0  0  0  0
   33.9496   31.7414   49.9777 C   0  0  0  0  0  0  0  0  0  0  0  0
   30.9882   31.6549   47.6084 C   0  0  0  0  0  0  0  0  0  0  0  0
  1 12  1  0  0  0  0
  1 11  1  0  0  0  0
  2 13  1  0  0  0  0
  2  9  1  0  0  0  0
  3  4  1  6  0  0  0
  3  5  2  0  0  0  0
  3  6  1  0  0  0  0
  6  8  1  0  0  0  0
  7 10  1  0  0  0  0
  8 11  1  0  0  0  0
  9 12  1  0  0  0  0
 10 13  1  0  0  0  0
M  CHG  1   4  -1
M  END
>  <CHROM.1>
175.19180608,-177.09499679,-53.21463986,-177.57374781,56.26629275,-177.86609419
-57.96400050,179.82305072,-178.95268733,34.88655787,31.11048072,47.42028882
-3.01840775,0.18188556,-1.66095903

>  <Name>
ligand

>  <RI>
0

>  <Rbt.Current_Directory>
/home/itssahil/PROJECTS/Mol_Feturizer/New_Systems/rnas/2NPY

>  <Rbt.Executable>
rbdock ($Id: //depot/dev/client3/rdock/2013.1/src/exe/rbdock.cxx#4 $)

>  <Rbt.Library>
libRbt.so (2013.1, Build901 2013/11/27)

>  <Rbt.Parameter_File>
/export/apps/rDock/src/rDock_2013.1_src/data/scripts/dock_solv.prm

>  <Rbt.Receptor>
prm/pocket_docking_6.prm

>  <SCORE>
-13.5237

>  <SCORE.INTER>
0.812362

>  <SCORE.INTER.CONST>
1

>  <SCORE.INTER.POLAR>
0

>  <SCORE.INTER.ROT>
9

>  <SCORE.INTER.SOLV>
11.2045

>  <SCORE.INTER.VDW>
-12.7933

>  <SCORE.INTER.norm>
0.0624894

>  <SCORE.INTRA>
-14.3361

>  <SCORE.INTRA.DIHEDRAL>
-25.3705

>  <SCORE.INTRA.DIHEDRAL.0>
25.6828

>  <SCORE.INTRA.POLAR>
0

>  <SCORE.INTRA.POLAR.0>
0

>  <SCORE.INTRA.REPUL>
0

>  <SCORE.INTRA.REPUL.0>
0

>  <SCORE.INTRA.SOLV>
-1.24395

>  <SCORE.INTRA.SOLV.lig_0>
-48.5059

>  <SCORE.INTRA.VDW>
-1.02889

>  <SCORE.INTRA.VDW.0>
-0.363643

>  <SCORE.INTRA.norm>
-1.10278

>  <SCORE.RESTR>
0

>  <SCORE.RESTR.CAVITY>
0

>  <SCORE.RESTR.norm>
0

>  <SCORE.SYSTEM>
0

>  <SCORE.SYSTEM.CONST>
0

>  <SCORE.SYSTEM.DIHEDRAL>
0

>  <SCORE.SYSTEM.SOLV>
0

>  <SCORE.SYSTEM.norm>
0

>  <SCORE.heavy>
13

>  <SCORE.norm>
-1.04029

>  <RMSD>
5.192

$$$$
ligand
 OpenBabel11021811453D
libRbt.so/2013.1/901 2013/11/27
 13 12  0  0  0  0  0  0  0  0999 V2000
   34.8819   31.0398   49.0882 O   0  0  0  0  0  0  0  0  0  0  0  0
   32.3907   31.8829   47.8837 O   0  0  0  0  0  0  0  0  0  0  0  0
   37.9779   30.6345   46.0610 P   0  0  2  0  0  0  0  0  0  0  0  0
   37.5816   31.3586   44.8184 O   0  5  0  0  0  0  0  0  0  0  0  0
   38.0048   29.1492   46.0596 O   0  0  0  0  0  0  0  0  0  0  0  0
   37.0238   31.0892   47.2443 O   0  0  0  0  0  0  0  0  0  0  0  0
   29.7835   31.9668   45.3043 O   0  0  0  0  0  0  0  0  0  0  0  0
   37.2277   30.6136   48.5827 C   0  0  0  0  0  0  0  0  0  0  0  0
   32.4515   31.5045   49.2827 C   0  0  0  0  0  0  0  0  0  0  0  0
   31.0986   32.1120   45.8210 C   0  0  0  0  0  0  0  0  0  0  0  0
   36.2277   31.2881   49.5371 C   0  0  0  0  0  0  0  0  0  0  0  0
   33.8653   31.7187   49.8770 C   0  0  0  0  0  0  0  0  0  0  0  0
   31.0692   31.7358   47.3131 C   0  0  0  0  0  0  0  0  0  0  0  0
  1 12  1  0  0  0  0
  1 11  1  0  0  0  0
  2 13  1  0  0  0  0
  2  9  1  0  0  0  0
  3  4  1  6  0  0  0
  3  5  2  0  0  0  0
  3  6  1  0  0  0  0
  6  8  1  0  0  0  0
  7 10  1  0  0  0  0
  8 11  1  0  0  0  0
  9 12  1  0  0  0  0
 10 13  1  0  0  0  0
M  CHG  1   4  -1
M  END
>  <CHROM.1>
175.55931350,-178.16864753,-176.11785307,175.99226245,56.99998180,-178.04391192
-53.99195816,-179.44286732,-175.90547201,34.87610153,31.18073724,47.29985501
-3.05969778,0.20287661,-1.59998379

>  <Name>
ligand

>  <RI>
0

>  <Rbt.Current_Directory>
/home/itssahil/PROJECTS/Mol_Feturizer/New_Systems/rnas/2NPY

>  <Rbt.Executable>
rbdock ($Id: //depot/dev/client3/rdock/2013.1/src/exe/rbdock.cxx#4 $)

>  <Rbt.Library>
libRbt.so (2013.1, Build901 2013/11/27)

>  <Rbt.Parameter_File>
/export/apps/rDock/src/rDock_2013.1_src/data/scripts/dock_solv.prm

>  <Rbt.Receptor>
prm/pocket_docking_5.prm

>  <SCORE>
-12.3949

>  <SCORE.INTER>
1.8421

>  <SCORE.INTER.CONST>
1

>  <SCORE.INTER.POLAR>
0

>  <SCORE.INTER.ROT>
9

>  <SCORE.INTER.SOLV>
10.8523

>  <SCORE.INTER.VDW>
-11.9894

>  <SCORE.INTER.norm>
0.1417

>  <SCORE.INTRA>
-14.237

>  <SCORE.INTRA.DIHEDRAL>
-25.1873

>  <SCORE.INTRA.DIHEDRAL.0>
25.6828

>  <SCORE.INTRA.POLAR>
0

>  <SCORE.INTRA.POLAR.0>
0

>  <SCORE.INTRA.REPUL>
0

>  <SCORE.INTRA.REPUL.0>
0

>  <SCORE.INTRA.SOLV>
-1.2565

>  <SCORE.INTRA.SOLV.lig_0>
-48.5059

>  <SCORE.INTRA.VDW>
-1.01512

>  <SCORE.INTRA.VDW.0>
-0.363643

>  <SCORE.INTRA.norm>
-1.09516

>  <SCORE.RESTR>
0

>  <SCORE.RESTR.CAVITY>
0

>  <SCORE.RESTR.norm>
0

>  <SCORE.SYSTEM>
0

>  <SCORE.SYSTEM.CONST>
0

>  <SCORE.SYSTEM.DIHEDRAL>
0

>  <SCORE.SYSTEM.SOLV>
0

>  <SCORE.SYSTEM.norm>
0

>  <SCORE.heavy>
13

>  <SCORE.norm>
-0.953457

>  <RMSD>
5.200

$$$$
ligand
 OpenBabel11021811453D
libRbt.so/2013.1/901 2013/11/27
 13 12  0  0  0  0  0  0  0  0999 V2000
   31.0371   32.0077   45.4821 O   0  0  0  0  0  0  0  0  0  0  0  0
   30.4191   30.9729   48.2123 O   0  0  0  0  0  0  0  0  0  0  0  0
   33.6627   31.1906   41.9510 P   0  0  2  0  0  0  0  0  0  0  0  0
   33.1518   31.3736   40.5614 O   0  5  0  0  0  0  0  0  0  0  0  0
   34.1236   29.8467   42.3851 O   0  0  0  0  0  0  0  0  0  0  0  0
   32.5437   31.6599   42.9733 O   0  0  0  0  0  0  0  0  0  0  0  0
   30.7643   28.7581   51.1164 O   0  0  0  0  0  0  0  0  0  0  0  0
   32.8154   32.6719   43.9536 C   0  0  0  0  0  0  0  0  0  0  0  0
   29.4255   31.1710   47.1742 C   0  0  0  0  0  0  0  0  0  0  0  0
   31.1772   29.7533   50.1909 C   0  0  0  0  0  0  0  0  0  0  0  0
   31.5106   33.0870   44.6545 C   0  0  0  0  0  0  0  0  0  0  0  0
   29.8179   32.3192   46.2122 C   0  0  0  0  0  0  0  0  0  0  0  0
   30.0403   29.9607   49.1744 C   0  0  0  0  0  0  0  0  0  0  0  0
  1 12  1  0  0  0  0
  1 11  1  0  0  0  0
  2 13  1  0  0  0  0
  2  9  1  0  0  0  0
  3  4  1  6  0  0  0
  3  5  2  0  0  0  0
  3  6  1  0  0  0  0
  6  8  1  0  0  0  0
  7 10  1  0  0  0  0
  8 11  1  0  0  0  0
  9 12  1  0  0  0  0
 10 13  1  0  0  0  0
M  CHG  1   4  -1
M  END
>  <CHROM.1>
-175.10485881,176.73375471,-123.56790993,171.08129879,69.23100728,176.44727757
63.89444907,179.83156144,178.69031627,31.76770130,31.12014958,45.36276481
2.10547189,-0.78879336,2.13958882

>  <Name>
ligand

>  <RI>
0

>  <Rbt.Current_Directory>
/home/itssahil/PROJECTS/Mol_Feturizer/New_Systems/rnas/2NPY

>  <Rbt.Executable>
rbdock ($Id: //depot/dev/client3/rdock/2013.1/src/exe/rbdock.cxx#4 $)

>  <Rbt.Library>
libRbt.so (2013.1, Build901 2013/11/27)

>  <Rbt.Parameter_File>
/export/apps/rDock/src/rDock_2013.1_src/data/scripts/dock_solv.prm

>  <Rbt.Receptor>
prm/pocket_docking_6.prm

>  <SCORE>
-9.15015

>  <SCORE.INTER>
4.36848

>  <SCORE.INTER.CONST>
1

>  <SCORE.INTER.POLAR>
0

>  <SCORE.INTER.ROT>
9

>  <SCORE.INTER.SOLV>
16.5531

>  <SCORE.INTER.VDW>
-12.2054

>  <SCORE.INTER.norm>
0.336037

>  <SCORE.INTRA>
-13.5186

>  <SCORE.INTRA.DIHEDRAL>
-23.1924

>  <SCORE.INTRA.DIHEDRAL.0>
25.6828

>  <SCORE.INTRA.POLAR>
0

>  <SCORE.INTRA.POLAR.0>
0

>  <SCORE.INTRA.REPUL>
0

>  <SCORE.INTRA.REPUL.0>
0

>  <SCORE.INTRA.SOLV>
-1.60801

>  <SCORE.INTRA.SOLV.lig_0>
-48.5059

>  <SCORE.INTRA.VDW>
-1.11844

>  <SCORE.INTRA.VDW.0>
-0.363643

>  <SCORE.INTRA.norm>
-1.03989

>  <SCORE.RESTR>
0

>  <SCORE.RESTR.CAVITY>
0

>  <SCORE.RESTR.norm>
0

>  <SCORE.SYSTEM>
0

>  <SCORE.SYSTEM.CONST>
0

>  <SCORE.SYSTEM.DIHEDRAL>
0

>  <SCORE.SYSTEM.SOLV>
0

>  <SCORE.SYSTEM.norm>
0

>  <SCORE.heavy>
13

>  <SCORE.norm>
-0.703858

>  <RMSD>
5.201

$$$$
ligand
 OpenBabel11021811453D
libRbt.so/2013.1/901 2013/11/27
 13 12  0  0  0  0  0  0  0  0999 V2000
   34.8857   31.6027   48.8556 O   0  0  0  0  0  0  0  0  0  0  0  0
   32.1909   31.8013   47.8058 O   0  0  0  0  0  0  0  0  0  0  0  0
   37.8001   29.9148   46.0507 P   0  0  2  0  0  0  0  0  0  0  0  0
   39.0563   29.2637   46.5235 O   0  5  0  0  0  0  0  0  0  0  0  0
   37.8796   31.2137   45.3342 O   0  0  0  0  0  0  0  0  0  0  0  0
   36.8309   30.1171   47.2904 O   0  0  0  0  0  0  0  0  0  0  0  0
   31.8867   32.0978   44.9960 O   0  0  0  0  0  0  0  0  0  0  0  0
   37.1930   30.9786   48.3792 C   0  0  0  0  0  0  0  0  0  0  0  0
   32.5261   32.3272   49.1155 C   0  0  0  0  0  0  0  0  0  0  0  0
   30.7603   31.8458   45.8238 C   0  0  0  0  0  0  0  0  0  0  0  0
   36.0655   31.0044   49.4252 C   0  0  0  0  0  0  0  0  0  0  0  0
   33.7327   31.5866   49.7426 C   0  0  0  0  0  0  0  0  0  0  0  0
   31.0427   32.4503   47.2108 C   0  0  0  0  0  0  0  0  0  0  0  0
  1 12  1  0  0  0  0
  1 11  1  0  0  0  0
  2 13  1  0  0  0  0
  2  9  1  0  0  0  0
  3  4  1  1  0  0  0
  3  5  2  0  0  0  0
  3  6  1  0  0  0  0
  6  8  1  0  0  0  0
  7 10  1  0  0  0  0
  8 11  1  0  0  0  0
  9 12  1  0  0  0  0
 10 13  1  0  0  0  0
M  CHG  1   4  -1
M  END
>  <CHROM.1>
176.10331685,179.54122619,63.88306703,179.09129152,-65.06388781,178.39221096
54.68964158,-62.31451568,175.92033279,35.04103241,31.12665779,47.28156081
-3.02060517,0.29845772,-1.65758248

>  <Name>
ligand

>  <RI>
0

>  <Rbt.Current_Directory>
/home/itssahil/PROJECTS/Mol_Feturizer/New_Systems/rnas/2NPY

>  <Rbt.Executable>
rbdock ($Id: //depot/dev/client3/rdock/2013.1/src/exe/rbdock.cxx#4 $)

>  <Rbt.Library>
libRbt.so (2013.1, Build901 2013/11/27)

>  <Rbt.Parameter_File>
/export/apps/rDock/src/rDock_2013.1_src/data/scripts/dock_solv.prm

>  <Rbt.Receptor>
prm/pocket_docking_6.prm

>  <SCORE>
-13.4552

>  <SCORE.INTER>
0.635544

>  <SCORE.INTER.CONST>
1

>  <SCORE.INTER.POLAR>
0

>  <SCORE.INTER.ROT>
9

>  <SCORE.INTER.SOLV>
11.3575

>  <SCORE.INTER.VDW>
-12.9621

>  <SCORE.INTER.norm>
0.048888

>  <SCORE.INTRA>
-14.0908

>  <SCORE.INTRA.DIHEDRAL>
-25.2546

>  <SCORE.INTRA.DIHEDRAL.0>
25.6828

>  <SCORE.INTRA.POLAR>
0

>  <SCORE.INTRA.POLAR.0>
0

>  <SCORE.INTRA.REPUL>
0

>  <SCORE.INTRA.REPUL.0>
0

>  <SCORE.INTRA.SOLV>
-0.617566

>  <SCORE.INTRA.SOLV.lig_0>
-48.5059

>  <SCORE.INTRA.VDW>
-1.1547

>  <SCORE.INTRA.VDW.0>
-0.363643

>  <SCORE.INTRA.norm>
-1.0839

>  <SCORE.RESTR>
0

>  <SCORE.RESTR.CAVITY>
0

>  <SCORE.RESTR.norm>
0

>  <SCORE.SYSTEM>
0

>  <SCORE.SYSTEM.CONST>
0

>  <SCORE.SYSTEM.DIHEDRAL>
0

>  <SCORE.SYSTEM.SOLV>
0

>  <SCORE.SYSTEM.norm>
0

>  <SCORE.heavy>
13

>  <SCORE.norm>
-1.03502

>  <RMSD>
5.201

$$$$
ligand
 OpenBabel11021811453D
libRbt.so/2013.1/901 2013/11/27
 13 12  0  0  0  0  0  0  0  0999 V2000
   34.8635   30.9699   49.3881 O   0  0  0  0  0  0  0  0  0  0  0  0
   31.9530   31.4255   48.9097 O   0  0  0  0  0  0  0  0  0  0  0  0
   37.5174   30.4490   45.9280 P   0  0  2  0  0  0  0  0  0  0  0  0
   38.9849   30.5871   46.1574 O   0  5  0  0  0  0  0  0  0  0  0  0
   36.9074   31.0743   44.7264 O   0  0  0  0  0  0  0  0  0  0  0  0
   36.7463   31.0099   47.1961 O   0  0  0  0  0  0  0  0  0  0  0  0
   30.1285   32.8359   47.2440 O   0  0  0  0  0  0  0  0  0  0  0  0
   37.1126   30.6047   48.5230 C   0  0  0  0  0  0  0  0  0  0  0  0
   32.5183   31.0632   50.1955 C   0  0  0  0  0  0  0  0  0  0  0  0
   30.0526   31.4233   47.3717 C   0  0  0  0  0  0  0  0  0  0  0  0
   36.2443   31.3436   49.5556 C   0  0  0  0  0  0  0  0  0  0  0  0
   33.9676   31.5845   50.3556 C   0  0  0  0  0  0  0  0  0  0  0  0
   30.5644   31.0427   48.7725 C   0  0  0  0  0  0  0  0  0  0  0  0
  1 12  1  0  0  0  0
  1 11  1  0  0  0  0
  2 13  1  0  0  0  0
  2  9  1  0  0  0  0
  3  4  1  1  0  0  0
  3  5  2  0  0  0  0
  3  6  1  0  0  0  0
  6  8  1  0  0  0  0
  7 10  1  0  0  0  0
  8 11  1  0  0  0  0
  9 12  1  0  0  0  0
 10 13  1  0  0  0  0
M  CHG  1   4  -1
M  END
>  <CHROM.1>
-175.63215278,-178.34847545,-48.90049709,177.61760946,63.52159980,-175.45186128
-63.91116455,-62.61451555,177.92770373,34.70394092,31.13388960,47.81427656
-2.83013981,0.15462638,-1.53744538

>  <Name>
ligand

>  <RI>
0

>  <Rbt.Current_Directory>
/home/itssahil/PROJECTS/Mol_Feturizer/New_Systems/rnas/2NPY

>  <Rbt.Executable>
rbdock ($Id: //depot/dev/client3/rdock/2013.1/src/exe/rbdock.cxx#4 $)

>  <Rbt.Library>
libRbt.so (2013.1, Build901 2013/11/27)

>  <Rbt.Parameter_File>
/export/apps/rDock/src/rDock_2013.1_src/data/scripts/dock_solv.prm

>  <Rbt.Receptor>
prm/pocket_docking_6.prm

>  <SCORE>
-13.3789

>  <SCORE.INTER>
0.779779

>  <SCORE.INTER.CONST>
1

>  <SCORE.INTER.POLAR>
0

>  <SCORE.INTER.ROT>
9

>  <SCORE.INTER.SOLV>
9.74127

>  <SCORE.INTER.VDW>
-12.3272

>  <SCORE.INTER.norm>
0.059983

>  <SCORE.INTRA>
-14.1587

>  <SCORE.INTRA.DIHEDRAL>
-25.2287

>  <SCORE.INTRA.DIHEDRAL.0>
25.6828

>  <SCORE.INTRA.POLAR>
0

>  <SCORE.INTRA.POLAR.0>
0

>  <SCORE.INTRA.REPUL>
0

>  <SCORE.INTRA.REPUL.0>
0

>  <SCORE.INTRA.SOLV>
-1.04443

>  <SCORE.INTRA.SOLV.lig_0>
-48.5059

>  <SCORE.INTRA.VDW>
-1.02211

>  <SCORE.INTRA.VDW.0>
-0.363643

>  <SCORE.INTRA.norm>
-1.08913

>  <SCORE.RESTR>
0

>  <SCORE.RESTR.CAVITY>
0

>  <SCORE.RESTR.norm>
0

>  <SCORE.SYSTEM>
0

>  <SCORE.SYSTEM.CONST>
0

>  <SCORE.SYSTEM.DIHEDRAL>
0

>  <SCORE.SYSTEM.SOLV>
0

>  <SCORE.SYSTEM.norm>
0

>  <SCORE.heavy>
13

>  <SCORE.norm>
-1.02915

>  <RMSD>
5.234

$$$$
ligand
 OpenBabel11021811453D
libRbt.so/2013.1/901 2013/11/27
 13 12  0  0  0  0  0  0  0  0999 V2000
   30.4343   31.8622   45.8864 O   0  0  0  0  0  0  0  0  0  0  0  0
   29.9641   30.5160   48.3677 O   0  0  0  0  0  0  0  0  0  0  0  0
   33.6212   32.3605   41.9858 P   0  0  2  0  0  0  0  0  0  0  0  0
   33.4587   32.8889   40.6003 O   0  5  0  0  0  0  0  0  0  0  0  0
   34.3101   31.0606   42.1921 O   0  0  0  0  0  0  0  0  0  0  0  0
   32.1903   32.2499   42.6623 O   0  0  0  0  0  0  0  0  0  0  0  0
   32.2041   30.1451   50.1091 O   0  0  0  0  0  0  0  0  0  0  0  0
   32.0509   32.1654   44.0878 C   0  0  0  0  0  0  0  0  0  0  0  0
   28.9876   31.4627   47.8632 C   0  0  0  0  0  0  0  0  0  0  0  0
   31.0061   29.4008   50.2774 C   0  0  0  0  0  0  0  0  0  0  0  0
   30.5644   32.0413   44.4632 C   0  0  0  0  0  0  0  0  0  0  0  0
   29.0699   31.6107   46.3240 C   0  0  0  0  0  0  0  0  0  0  0  0
   29.8327   30.2677   49.7871 C   0  0  0  0  0  0  0  0  0  0  0  0
  1 12  1  0  0  0  0
  1 11  1  0  0  0  0
  2 13  1  0  0  0  0
  2  9  1  0  0  0  0
  3  4  1  6  0  0  0
  3  5  2  0  0  0  0
  3  6  1  0  0  0  0
  6  8  1  0  0  0  0
  7 10  1  0  0  0  0
  8 11  1  0  0  0  0
  9 12  1  0  0  0  0
 10 13  1  0  0  0  0
M  CHG  1   4  -1
M  END
>  <CHROM.1>
-178.55169756,-172.79403081,-160.97362163,-178.93494967,175.97972061,-174.84635148
-50.46648442,64.27153269,-174.60152647,31.58357241,31.46893228,45.39457102
1.96320534,-0.27557151,1.93252004

>  <Name>
ligand

>  <RI>
0

>  <Rbt.Current_Directory>
/home/itssahil/PROJECTS/Mol_Feturizer/New_Systems/rnas/2NPY

>  <Rbt.Executable>
rbdock ($Id: //depot/dev/client3/rdock/2013.1/src/exe/rbdock.cxx#4 $)

>  <Rbt.Library>
libRbt.so (2013.1, Build901 2013/11/27)

>  <Rbt.Parameter_File>
/export/apps/rDock/src/rDock_2013.1_src/data/scripts/dock_solv.prm

>  <Rbt.Receptor>
prm/pocket_docking_5.prm

>  <SCORE>
-10.7442

>  <SCORE.INTER>
3.1222

>  <SCORE.INTER.CONST>
1

>  <SCORE.INTER.POLAR>
0

>  <SCORE.INTER.ROT>
9

>  <SCORE.INTER.SOLV>
9.77597

>  <SCORE.INTER.VDW>
-10.7772

>  <SCORE.INTER.norm>
0.24017

>  <SCORE.INTRA>
-13.8664

>  <SCORE.INTRA.DIHEDRAL>
-24.4513

>  <SCORE.INTRA.DIHEDRAL.0>
25.6828

>  <SCORE.INTRA.POLAR>
0

>  <SCORE.INTRA.POLAR.0>
0

>  <SCORE.INTRA.REPUL>
0

>  <SCORE.INTRA.REPUL.0>
0

>  <SCORE.INTRA.SOLV>
-1.20098

>  <SCORE.INTRA.SOLV.lig_0>
-48.5059

>  <SCORE.INTRA.VDW>
-1.04029

>  <SCORE.INTRA.VDW.0>
-0.363643

>  <SCORE.INTRA.norm>
-1.06665

>  <SCORE.RESTR>
0

>  <SCORE.RESTR.CAVITY>
0

>  <SCORE.RESTR.norm>
0

>  <SCORE.SYSTEM>
0

>  <SCORE.SYSTEM.CONST>
0

>  <SCORE.SYSTEM.DIHEDRAL>
0

>  <SCORE.SYSTEM.SOLV>
0

>  <SCORE.SYSTEM.norm>
0

>  <SCORE.heavy>
13

>  <SCORE.norm>
-0.826478

>  <RMSD>
5.242

$$$$
ligand
 OpenBabel11021811453D
libRbt.so/2013.1/901 2013/11/27
 13 12  0  0  0  0  0  0  0  0999 V2000
   34.3766   32.3075   49.7119 O   0  0  0  0  0  0  0  0  0  0  0  0
   31.6860   32.0705   48.5622 O   0  0  0  0  0  0  0  0  0  0  0  0
   38.1879   30.3641   47.0048 P   0  0  2  0  0  0  0  0  0  0  0  0
   38.4039   29.0129   46.4108 O   0  5  0  0  0  0  0  0  0  0  0  0
   39.3044   31.0286   47.7251 O   0  0  0  0  0  0  0  0  0  0  0  0
   36.9568   30.2932   48.0031 O   0  0  0  0  0  0  0  0  0  0  0  0
   29.2194   31.6129   45.8859 O   0  0  0  0  0  0  0  0  0  0  0  0
   36.2556   31.4813   48.3978 C   0  0  0  0  0  0  0  0  0  0  0  0
   32.1025   31.3131   49.7272 C   0  0  0  0  0  0  0  0  0  0  0  0
   30.2437   32.2893   46.6005 C   0  0  0  0  0  0  0  0  0  0  0  0
   35.1132   31.1202   49.3625 C   0  0  0  0  0  0  0  0  0  0  0  0
   33.2021   32.0498   50.5309 C   0  0  0  0  0  0  0  0  0  0  0  0
   30.6164   31.4339   47.8245 C   0  0  0  0  0  0  0  0  0  0  0  0
  1 12  1  0  0  0  0
  1 11  1  0  0  0  0
  2 13  1  0  0  0  0
  2  9  1  0  0  0  0
  3  4  1  1  0  0  0
  3  5  2  0  0  0  0
  3  6  1  0  0  0  0
  6  8  1  0  0  0  0
  7 10  1  0  0  0  0
  8 11  1  0  0  0  0
  9 12  1  0  0  0  0
 10 13  1  0  0  0  0
M  CHG  1   4  -1
M  END
>  <CHROM.1>
-69.20365661,-179.42067742,-160.37455457,179.89349215,-177.58092230,-177.39827422
-58.70533224,178.40925544,174.93329260,34.63543774,31.17636961,48.02029933
-3.03689193,0.17676779,-1.87547737

>  <Name>
ligand

>  <RI>
0

>  <Rbt.Current_Directory>
/home/itssahil/PROJECTS/Mol_Feturizer/New_Systems/rnas/2NPY

>  <Rbt.Executable>
rbdock ($Id: //depot/dev/client3/rdock/2013.1/src/exe/rbdock.cxx#4 $)

>  <Rbt.Library>
libRbt.so (2013.1, Build901 2013/11/27)

>  <Rbt.Parameter_File>
/export/apps/rDock/src/rDock_2013.1_src/data/scripts/dock_solv.prm

>  <Rbt.Receptor>
prm/pocket_docking_6.prm

>  <SCORE>
-10.3403

>  <SCORE.INTER>
3.01796

>  <SCORE.INTER.CONST>
1

>  <SCORE.INTER.POLAR>
0

>  <SCORE.INTER.ROT>
9

>  <SCORE.INTER.SOLV>
9.33535

>  <SCORE.INTER.VDW>
-10.6998

>  <SCORE.INTER.norm>
0.232151

>  <SCORE.INTRA>
-13.3583

>  <SCORE.INTRA.DIHEDRAL>
-24.8347

>  <SCORE.INTRA.DIHEDRAL.0>
25.6828

>  <SCORE.INTRA.POLAR>
0

>  <SCORE.INTRA.POLAR.0>
0

>  <SCORE.INTRA.REPUL>
0

>  <SCORE.INTRA.REPUL.0>
0

>  <SCORE.INTRA.SOLV>
-1.40124

>  <SCORE.INTRA.SOLV.lig_0>
-48.5059

>  <SCORE.INTRA.VDW>
-0.240304

>  <SCORE.INTRA.VDW.0>
-0.363643

>  <SCORE.INTRA.norm>
-1.02756

>  <SCORE.RESTR>
0

>  <SCORE.RESTR.CAVITY>
0

>  <SCORE.RESTR.norm>
0

>  <SCORE.SYSTEM>
0

>  <SCORE.SYSTEM.CONST>
0

>  <SCORE.SYSTEM.DIHEDRAL>
0

>  <SCORE.SYSTEM.SOLV>
0

>  <SCORE.SYSTEM.norm>
0

>  <SCORE.heavy>
13

>  <SCORE.norm>
-0.79541

>  <RMSD>
5.274

$$$$
ligand
 OpenBabel11021811453D
libRbt.so/2013.1/901 2013/11/27
 13 12  0  0  0  0  0  0  0  0999 V2000
   35.6701   31.5231   48.1034 O   0  0  0  0  0  0  0  0  0  0  0  0
   32.7483   31.5995   48.0618 O   0  0  0  0  0  0  0  0  0  0  0  0
   37.3636   31.1491   44.1950 P   0  0  2  0  0  0  0  0  0  0  0  0
   36.1974   31.2932   43.2760 O   0  5  0  0  0  0  0  0  0  0  0  0
   38.4204   30.1542   43.8782 O   0  0  0  0  0  0  0  0  0  0  0  0
   36.8289   30.8231   45.6528 O   0  0  0  0  0  0  0  0  0  0  0  0
   31.5075   31.9208   45.5526 O   0  0  0  0  0  0  0  0  0  0  0  0
   37.6656   31.0025   46.8046 C   0  0  0  0  0  0  0  0  0  0  0  0
   33.5131   32.0916   49.1919 C   0  0  0  0  0  0  0  0  0  0  0  0
   30.7157   31.6721   46.7053 C   0  0  0  0  0  0  0  0  0  0  0  0
   36.8634   30.7168   48.0855 C   0  0  0  0  0  0  0  0  0  0  0  0
   34.8812   31.3771   49.3170 C   0  0  0  0  0  0  0  0  0  0  0  0
   31.4588   32.2419   47.9268 C   0  0  0  0  0  0  0  0  0  0  0  0
  1 12  1  0  0  0  0
  1 11  1  0  0  0  0
  2 13  1  0  0  0  0
  2  9  1  0  0  0  0
  3  4  1  6  0  0  0
  3  5  2  0  0  0  0
  3  6  1  0  0  0  0
  6  8  1  0  0  0  0
  7 10  1  0  0  0  0
  8 11  1  0  0  0  0
  9 12  1  0  0  0  0
 10 13  1  0  0  0  0
M  CHG  1   4  -1
M  END
>  <CHROM.1>
-171.27664301,179.69370970,-162.14214821,175.66845227,-54.10807632,179.49999489
57.36843868,-59.87532497,-176.72097850,35.12508017,31.32753225,46.42272054
-2.60812010,0.17226030,-1.60297957

>  <Name>
ligand

>  <RI>
0

>  <Rbt.Current_Directory>
/home/itssahil/PROJECTS/Mol_Feturizer/New_Systems/rnas/2NPY

>  <Rbt.Executable>
rbdock ($Id: //depot/dev/client3/rdock/2013.1/src/exe/rbdock.cxx#4 $)

>  <Rbt.Library>
libRbt.so (2013.1, Build901 2013/11/27)

>  <Rbt.Parameter_File>
/export/apps/rDock/src/rDock_2013.1_src/data/scripts/dock_solv.prm

>  <Rbt.Receptor>
prm/pocket_docking_4.prm

>  <SCORE>
-10.6838

>  <SCORE.INTER>
3.3801

>  <SCORE.INTER.CONST>
1

>  <SCORE.INTER.POLAR>
0

>  <SCORE.INTER.ROT>
9

>  <SCORE.INTER.SOLV>
8.81679

>  <SCORE.INTER.VDW>
-10.2855

>  <SCORE.INTER.norm>
0.260008

>  <SCORE.INTRA>
-14.0639

>  <SCORE.INTRA.DIHEDRAL>
-24.8178

>  <SCORE.INTRA.DIHEDRAL.0>
25.6828

>  <SCORE.INTRA.POLAR>
0

>  <SCORE.INTRA.POLAR.0>
0

>  <SCORE.INTRA.REPUL>
0

>  <SCORE.INTRA.REPUL.0>
0

>  <SCORE.INTRA.SOLV>
-1.01991

>  <SCORE.INTRA.SOLV.lig_0>
-48.5059

>  <SCORE.INTRA.VDW>
-1.14508

>  <SCORE.INTRA.VDW.0>
-0.363643

>  <SCORE.INTRA.norm>
-1.08184

>  <SCORE.RESTR>
0

>  <SCORE.RESTR.CAVITY>
0

>  <SCORE.RESTR.norm>
0

>  <SCORE.SYSTEM>
0

>  <SCORE.SYSTEM.CONST>
0

>  <SCORE.SYSTEM.DIHEDRAL>
0

>  <SCORE.SYSTEM.SOLV>
0

>  <SCORE.SYSTEM.norm>
0

>  <SCORE.heavy>
13

>  <SCORE.norm>
-0.821833

>  <RMSD>
5.282

$$$$
ligand
 OpenBabel11021811453D
libRbt.so/2013.1/901 2013/11/27
 13 12  0  0  0  0  0  0  0  0999 V2000
   32.8938   31.9007   48.4528 O   0  0  0  0  0  0  0  0  0  0  0  0
   29.3676   31.7038   47.1594 O   0  0  0  0  0  0  0  0  0  0  0  0
   37.3943   31.3666   50.7086 P   0  0  2  0  0  0  0  0  0  0  0  0
   37.6328   32.7669   51.1643 O   0  5  0  0  0  0  0  0  0  0  0  0
   38.0393   30.8891   49.4584 O   0  0  0  0  0  0  0  0  0  0  0  0
   35.8320   31.1388   50.5516 O   0  0  0  0  0  0  0  0  0  0  0  0
   26.6347   31.9115   44.7210 O   0  0  0  0  0  0  0  0  0  0  0  0
   35.1047   31.7268   49.4635 C   0  0  0  0  0  0  0  0  0  0  0  0
   30.7746   32.0566   47.1701 C   0  0  0  0  0  0  0  0  0  0  0  0
   27.2398   31.5784   45.9621 C   0  0  0  0  0  0  0  0  0  0  0  0
   33.6034   31.4277   49.6134 C   0  0  0  0  0  0  0  0  0  0  0  0
   31.4628   31.6420   48.4939 C   0  0  0  0  0  0  0  0  0  0  0  0
   28.7117   32.0253   45.9104 C   0  0  0  0  0  0  0  0  0  0  0  0
  1 12  1  0  0  0  0
  1 11  1  0  0  0  0
  2 13  1  0  0  0  0
  2  9  1  0  0  0  0
  3  4  1  6  0  0  0
  3  5  2  0  0  0  0
  3  6  1  0  0  0  0
  6  8  1  0  0  0  0
  7 10  1  0  0  0  0
  8 11  1  0  0  0  0
  9 12  1  0  0  0  0
 10 13  1  0  0  0  0
M  CHG  1   4  -1
M  END
>  <CHROM.1>
-174.91151623,178.08718615,72.93006950,-175.95480753,-174.19441618,-177.39722516
175.35090134,179.99620721,179.06936229,33.08890642,31.67655392,48.57104517
2.71223875,0.17428500,-1.87235921

>  <Name>
ligand

>  <RI>
0

>  <Rbt.Current_Directory>
/home/itssahil/PROJECTS/Mol_Feturizer/New_Systems/rnas/2NPY

>  <Rbt.Executable>
rbdock ($Id: //depot/dev/client3/rdock/2013.1/src/exe/rbdock.cxx#4 $)

>  <Rbt.Library>
libRbt.so (2013.1, Build901 2013/11/27)

>  <Rbt.Parameter_File>
/export/apps/rDock/src/rDock_2013.1_src/data/scripts/dock_solv.prm

>  <Rbt.Receptor>
prm/pocket_docking_8.prm

>  <SCORE>
-11.0928

>  <SCORE.INTER>
2.80822

>  <SCORE.INTER.CONST>
1

>  <SCORE.INTER.POLAR>
0

>  <SCORE.INTER.ROT>
9

>  <SCORE.INTER.SOLV>
10.6406

>  <SCORE.INTER.VDW>
-11.2747

>  <SCORE.INTER.norm>
0.216017

>  <SCORE.INTRA>
-13.901

>  <SCORE.INTRA.DIHEDRAL>
-25.12

>  <SCORE.INTRA.DIHEDRAL.0>
25.6828

>  <SCORE.INTRA.POLAR>
0

>  <SCORE.INTRA.POLAR.0>
0

>  <SCORE.INTRA.REPUL>
0

>  <SCORE.INTRA.REPUL.0>
0

>  <SCORE.INTRA.SOLV>
-1.15636

>  <SCORE.INTRA.SOLV.lig_0>
-48.5059

>  <SCORE.INTRA.VDW>
-0.762808

>  <SCORE.INTRA.VDW.0>
-0.363643

>  <SCORE.INTRA.norm>
-1.06931

>  <SCORE.RESTR>
0

>  <SCORE.RESTR.CAVITY>
0

>  <SCORE.RESTR.norm>
0

>  <SCORE.SYSTEM>
0

>  <SCORE.SYSTEM.CONST>
0

>  <SCORE.SYSTEM.DIHEDRAL>
0

>  <SCORE.SYSTEM.SOLV>
0

>  <SCORE.SYSTEM.norm>
0

>  <SCORE.heavy>
13

>  <SCORE.norm>
-0.853291

>  <RMSD>
5.309

$$$$
ligand
 OpenBabel11021811453D
libRbt.so/2013.1/901 2013/11/27
 13 12  0  0  0  0  0  0  0  0999 V2000
   35.0033   30.9627   49.3975 O   0  0  0  0  0  0  0  0  0  0  0  0
   32.1279   31.5409   48.8098 O   0  0  0  0  0  0  0  0  0  0  0  0
   37.5472   30.2393   45.9415 P   0  0  2  0  0  0  0  0  0  0  0  0
   38.2959   29.0131   46.3431 O   0  5  0  0  0  0  0  0  0  0  0  0
   38.2905   31.3881   45.3630 O   0  0  0  0  0  0  0  0  0  0  0  0
   36.7417   30.7809   47.1966 O   0  0  0  0  0  0  0  0  0  0  0  0
   30.4454   33.0443   47.1174 O   0  0  0  0  0  0  0  0  0  0  0  0
   37.2548   30.6256   48.5276 C   0  0  0  0  0  0  0  0  0  0  0  0
   32.6332   31.1465   50.1111 C   0  0  0  0  0  0  0  0  0  0  0  0
   30.2814   31.6365   47.2105 C   0  0  0  0  0  0  0  0  0  0  0  0
   36.3712   31.3956   49.5237 C   0  0  0  0  0  0  0  0  0  0  0  0
   34.0937   31.6132   50.3281 C   0  0  0  0  0  0  0  0  0  0  0  0
   30.7369   31.1947   48.6127 C   0  0  0  0  0  0  0  0  0  0  0  0
  1 12  1  0  0  0  0
  1 11  1  0  0  0  0
  2 13  1  0  0  0  0
  2  9  1  0  0  0  0
  3  4  1  1  0  0  0
  3  5  2  0  0  0  0
  3  6  1  0  0  0  0
  6  8  1  0  0  0  0
  7 10  1  0  0  0  0
  8 11  1  0  0  0  0
  9 12  1  0  0  0  0
 10 13  1  0  0  0  0
M  CHG  1   4  -1
M  END
>  <CHROM.1>
177.93928712,-179.62694181,32.49297235,172.66951141,55.28384440,-176.20511479
-64.60571759,-60.17833432,178.48350088,34.86896944,31.05082987,47.83158453
-2.86124980,0.22742322,-1.55458604

>  <Name>
ligand

>  <RI>
0

>  <Rbt.Current_Directory>
/home/itssahil/PROJECTS/Mol_Feturizer/New_Systems/rnas/2NPY

>  <Rbt.Executable>
rbdock ($Id: //depot/dev/client3/rdock/2013.1/src/exe/rbdock.cxx#4 $)

>  <Rbt.Library>
libRbt.so (2013.1, Build901 2013/11/27)

>  <Rbt.Parameter_File>
/export/apps/rDock/src/rDock_2013.1_src/data/scripts/dock_solv.prm

>  <Rbt.Receptor>
prm/pocket_docking_6.prm

>  <SCORE>
-12.3346

>  <SCORE.INTER>
0.997425

>  <SCORE.INTER.CONST>
1

>  <SCORE.INTER.POLAR>
0

>  <SCORE.INTER.ROT>
9

>  <SCORE.INTER.SOLV>
12.4552

>  <SCORE.INTER.VDW>
-13.0868

>  <SCORE.INTER.norm>
0.076725

>  <SCORE.INTRA>
-13.3321

>  <SCORE.INTRA.DIHEDRAL>
-24.2447

>  <SCORE.INTRA.DIHEDRAL.0>
25.6828

>  <SCORE.INTRA.POLAR>
0

>  <SCORE.INTRA.POLAR.0>
0

>  <SCORE.INTRA.REPUL>
0

>  <SCORE.INTRA.REPUL.0>
0

>  <SCORE.INTRA.SOLV>
-0.630323

>  <SCORE.INTRA.SOLV.lig_0>
-48.5059

>  <SCORE.INTRA.VDW>
-0.894539

>  <SCORE.INTRA.VDW.0>
-0.363643

>  <SCORE.INTRA.norm>
-1.02554

>  <SCORE.RESTR>
0

>  <SCORE.RESTR.CAVITY>
0

>  <SCORE.RESTR.norm>
0

>  <SCORE.SYSTEM>
0

>  <SCORE.SYSTEM.CONST>
0

>  <SCORE.SYSTEM.DIHEDRAL>
0

>  <SCORE.SYSTEM.SOLV>
0

>  <SCORE.SYSTEM.norm>
0

>  <SCORE.heavy>
13

>  <SCORE.norm>
-0.948819

>  <RMSD>
5.332

$$$$
ligand
 OpenBabel11021811453D
libRbt.so/2013.1/901 2013/11/27
 13 12  0  0  0  0  0  0  0  0999 V2000
   34.4228   31.4835   49.3300 O   0  0  0  0  0  0  0  0  0  0  0  0
   30.6954   31.2915   49.8067 O   0  0  0  0  0  0  0  0  0  0  0  0
   38.0557   30.5803   47.1542 P   0  0  2  0  0  0  0  0  0  0  0  0
   38.1287   31.9348   46.5335 O   0  5  0  0  0  0  0  0  0  0  0  0
   37.8735   29.3904   46.2836 O   0  0  0  0  0  0  0  0  0  0  0  0
   36.8819   30.5694   48.2217 O   0  0  0  0  0  0  0  0  0  0  0  0
   27.1479   31.2981   48.8733 O   0  0  0  0  0  0  0  0  0  0  0  0
   36.8598   31.5091   49.3058 C   0  0  0  0  0  0  0  0  0  0  0  0
   31.9508   31.4911   49.1078 C   0  0  0  0  0  0  0  0  0  0  0  0
   28.2524   31.2098   49.7619 C   0  0  0  0  0  0  0  0  0  0  0  0
   35.5918   31.3040   50.1520 C   0  0  0  0  0  0  0  0  0  0  0  0
   33.1692   31.2848   50.0409 C   0  0  0  0  0  0  0  0  0  0  0  0
   29.5401   31.4174   48.9448 C   0  0  0  0  0  0  0  0  0  0  0  0
  1 12  1  0  0  0  0
  1 11  1  0  0  0  0
  2 13  1  0  0  0  0
  2  9  1  0  0  0  0
  3  4  1  6  0  0  0
  3  5  2  0  0  0  0
  3  6  1  0  0  0  0
  6  8  1  0  0  0  0
  7 10  1  0  0  0  0
  8 11  1  0  0  0  0
  9 12  1  0  0  0  0
 10 13  1  0  0  0  0
M  CHG  1   4  -1
M  END
>  <CHROM.1>
179.98287169,-179.31475009,-56.68101899,178.02439728,-59.23057710,-177.32071922
179.84732107,-178.14334487,178.95325266,34.10840073,31.08321124,48.57412621
-0.23522570,0.00471708,1.26527483

>  <Name>
ligand

>  <RI>
0

>  <Rbt.Current_Directory>
/home/itssahil/PROJECTS/Mol_Feturizer/New_Systems/rnas/2NPY

>  <Rbt.Executable>
rbdock ($Id: //depot/dev/client3/rdock/2013.1/src/exe/rbdock.cxx#4 $)

>  <Rbt.Library>
libRbt.so (2013.1, Build901 2013/11/27)

>  <Rbt.Parameter_File>
/export/apps/rDock/src/rDock_2013.1_src/data/scripts/dock_solv.prm

>  <Rbt.Receptor>
prm/pocket_docking_6.prm

>  <SCORE>
-11.4777

>  <SCORE.INTER>
2.94393

>  <SCORE.INTER.CONST>
1

>  <SCORE.INTER.POLAR>
0

>  <SCORE.INTER.ROT>
9

>  <SCORE.INTER.SOLV>
9.11724

>  <SCORE.INTER.VDW>
-10.6765

>  <SCORE.INTER.norm>
0.226456

>  <SCORE.INTRA>
-14.4216

>  <SCORE.INTRA.DIHEDRAL>
-25.572

>  <SCORE.INTRA.DIHEDRAL.0>
25.6828

>  <SCORE.INTRA.POLAR>
0

>  <SCORE.INTRA.POLAR.0>
0

>  <SCORE.INTRA.REPUL>
0

>  <SCORE.INTRA.REPUL.0>
0

>  <SCORE.INTRA.SOLV>
-1.4464

>  <SCORE.INTRA.SOLV.lig_0>
-48.5059

>  <SCORE.INTRA.VDW>
-0.912411

>  <SCORE.INTRA.VDW.0>
-0.363643

>  <SCORE.INTRA.norm>
-1.10936

>  <SCORE.RESTR>
0

>  <SCORE.RESTR.CAVITY>
0

>  <SCORE.RESTR.norm>
0

>  <SCORE.SYSTEM>
0

>  <SCORE.SYSTEM.CONST>
0

>  <SCORE.SYSTEM.DIHEDRAL>
0

>  <SCORE.SYSTEM.SOLV>
0

>  <SCORE.SYSTEM.norm>
0

>  <SCORE.heavy>
13

>  <SCORE.norm>
-0.882899

>  <RMSD>
5.339

$$$$
ligand
 OpenBabel11021811453D
libRbt.so/2013.1/901 2013/11/27
 13 12  0  0  0  0  0  0  0  0999 V2000
   34.5560   31.4418   48.8916 O   0  0  0  0  0  0  0  0  0  0  0  0
   30.8877   31.3729   49.6963 O   0  0  0  0  0  0  0  0  0  0  0  0
   37.7122   29.9406   46.3710 P   0  0  2  0  0  0  0  0  0  0  0  0
   39.0420   29.5110   46.8932 O   0  5  0  0  0  0  0  0  0  0  0  0
   37.6204   31.1658   45.5360 O   0  0  0  0  0  0  0  0  0  0  0  0
   36.7182   30.1260   47.5937 O   0  0  0  0  0  0  0  0  0  0  0  0
   28.5441   29.8464   50.1005 O   0  0  0  0  0  0  0  0  0  0  0  0
   36.9544   31.1278   48.5934 C   0  0  0  0  0  0  0  0  0  0  0  0
   32.0828   31.6495   48.9222 C   0  0  0  0  0  0  0  0  0  0  0  0
   28.4500   31.2360   49.8217 C   0  0  0  0  0  0  0  0  0  0  0  0
   35.7836   31.1605   49.5904 C   0  0  0  0  0  0  0  0  0  0  0  0
   33.3722   31.3753   49.7347 C   0  0  0  0  0  0  0  0  0  0  0  0
   29.6660   31.6346   48.9665 C   0  0  0  0  0  0  0  0  0  0  0  0
  1 12  1  0  0  0  0
  1 11  1  0  0  0  0
  2 13  1  0  0  0  0
  2  9  1  0  0  0  0
  3  4  1  1  0  0  0
  3  5  2  0  0  0  0
  3  6  1  0  0  0  0
  6  8  1  0  0  0  0
  7 10  1  0  0  0  0
  8 11  1  0  0  0  0
  9 12  1  0  0  0  0
 10 13  1  0  0  0  0
M  CHG  1   4  -1
M  END
>  <CHROM.1>
-178.50276617,176.53235331,63.99859496,175.47706191,-58.85967568,179.35458153
170.60872280,-60.71782297,174.81014372,34.28889390,30.79747670,48.32175403
-0.34802091,0.02371400,1.24072092

>  <Name>
ligand

>  <RI>
0

>  <Rbt.Current_Directory>
/home/itssahil/PROJECTS/Mol_Feturizer/New_Systems/rnas/2NPY

>  <Rbt.Executable>
rbdock ($Id: //depot/dev/client3/rdock/2013.1/src/exe/rbdock.cxx#4 $)

>  <Rbt.Library>
libRbt.so (2013.1, Build901 2013/11/27)

>  <Rbt.Parameter_File>
/export/apps/rDock/src/rDock_2013.1_src/data/scripts/dock_solv.prm

>  <Rbt.Receptor>
prm/pocket_docking_7.prm

>  <SCORE>
-12.3959

>  <SCORE.INTER>
1.49934

>  <SCORE.INTER.CONST>
1

>  <SCORE.INTER.POLAR>
0

>  <SCORE.INTER.ROT>
9

>  <SCORE.INTER.SOLV>
10.6037

>  <SCORE.INTER.VDW>
-12.135

>  <SCORE.INTER.norm>
0.115334

>  <SCORE.INTRA>
-13.8952

>  <SCORE.INTRA.DIHEDRAL>
-25.0132

>  <SCORE.INTRA.DIHEDRAL.0>
25.6828

>  <SCORE.INTRA.POLAR>
0

>  <SCORE.INTRA.POLAR.0>
0

>  <SCORE.INTRA.REPUL>
0

>  <SCORE.INTRA.REPUL.0>
0

>  <SCORE.INTRA.SOLV>
-0.721527

>  <SCORE.INTRA.SOLV.lig_0>
-48.5059

>  <SCORE.INTRA.VDW>
-1.02788

>  <SCORE.INTRA.VDW.0>
-0.363643

>  <SCORE.INTRA.norm>
-1.06886

>  <SCORE.RESTR>
0

>  <SCORE.RESTR.CAVITY>
0

>  <SCORE.RESTR.norm>
0

>  <SCORE.SYSTEM>
0

>  <SCORE.SYSTEM.CONST>
0

>  <SCORE.SYSTEM.DIHEDRAL>
0

>  <SCORE.SYSTEM.SOLV>
0

>  <SCORE.SYSTEM.norm>
0

>  <SCORE.heavy>
13

>  <SCORE.norm>
-0.95353

>  <RMSD>
5.367

$$$$
ligand
 OpenBabel11021811453D
libRbt.so/2013.1/901 2013/11/27
 13 12  0  0  0  0  0  0  0  0999 V2000
   34.1525   31.2120   49.5766 O   0  0  0  0  0  0  0  0  0  0  0  0
   31.5175   31.6488   48.4839 O   0  0  0  0  0  0  0  0  0  0  0  0
   37.8015   30.4247   47.3246 P   0  0  2  0  0  0  0  0  0  0  0  0
   37.3878   29.4431   46.2802 O   0  5  0  0  0  0  0  0  0  0  0  0
   39.0950   30.2340   48.0298 O   0  0  0  0  0  0  0  0  0  0  0  0
   36.6668   30.5034   48.4307 O   0  0  0  0  0  0  0  0  0  0  0  0
   29.1045   31.7846   45.7240 O   0  0  0  0  0  0  0  0  0  0  0  0
   36.5277   31.6618   49.2660 C   0  0  0  0  0  0  0  0  0  0  0  0
   31.7040   30.8134   49.6551 C   0  0  0  0  0  0  0  0  0  0  0  0
   30.2601   32.1717   46.4536 C   0  0  0  0  0  0  0  0  0  0  0  0
   35.3890   31.4457   50.2773 C   0  0  0  0  0  0  0  0  0  0  0  0
   32.9819   31.1984   50.4402 C   0  0  0  0  0  0  0  0  0  0  0  0
   30.3440   31.2942   47.7153 C   0  0  0  0  0  0  0  0  0  0  0  0
  1 12  1  0  0  0  0
  1 11  1  0  0  0  0
  2 13  1  0  0  0  0
  2  9  1  0  0  0  0
  3  4  1  6  0  0  0
  3  5  2  0  0  0  0
  3  6  1  0  0  0  0
  6  8  1  0  0  0  0
  7 10  1  0  0  0  0
  8 11  1  0  0  0  0
  9 12  1  0  0  0  0
 10 13  1  0  0  0  0
M  CHG  1   4  -1
M  END
>  <CHROM.1>
-174.70005773,-176.90004346,-156.80680609,-177.85814366,-59.69358236,178.85235435
-53.21824331,179.49589534,-171.14683285,34.40374550,30.99836404,48.17496952
3.11630576,0.17115324,-1.69950824

>  <Name>
ligand

>  <RI>
0

>  <Rbt.Current_Directory>
/home/itssahil/PROJECTS/Mol_Feturizer/New_Systems/rnas/2NPY

>  <Rbt.Executable>
rbdock ($Id: //depot/dev/client3/rdock/2013.1/src/exe/rbdock.cxx#4 $)

>  <Rbt.Library>
libRbt.so (2013.1, Build901 2013/11/27)

>  <Rbt.Parameter_File>
/export/apps/rDock/src/rDock_2013.1_src/data/scripts/dock_solv.prm

>  <Rbt.Receptor>
prm/pocket_docking_7.prm

>  <SCORE>
-11.8029

>  <SCORE.INTER>
2.27721

>  <SCORE.INTER.CONST>
1

>  <SCORE.INTER.POLAR>
0

>  <SCORE.INTER.ROT>
9

>  <SCORE.INTER.SOLV>
14.1011

>  <SCORE.INTER.VDW>
-12.7822

>  <SCORE.INTER.norm>
0.17517

>  <SCORE.INTRA>
-14.0801

>  <SCORE.INTRA.DIHEDRAL>
-24.5683

>  <SCORE.INTRA.DIHEDRAL.0>
25.6828

>  <SCORE.INTRA.POLAR>
0

>  <SCORE.INTRA.POLAR.0>
0

>  <SCORE.INTRA.REPUL>
0

>  <SCORE.INTRA.REPUL.0>
0

>  <SCORE.INTRA.SOLV>
-1.35217

>  <SCORE.INTRA.SOLV.lig_0>
-48.5059

>  <SCORE.INTRA.VDW>
-1.11984

>  <SCORE.INTRA.VDW.0>
-0.363643

>  <SCORE.INTRA.norm>
-1.08308

>  <SCORE.RESTR>
0

>  <SCORE.RESTR.CAVITY>
0

>  <SCORE.RESTR.norm>
0

>  <SCORE.SYSTEM>
0

>  <SCORE.SYSTEM.CONST>
0

>  <SCORE.SYSTEM.DIHEDRAL>
0

>  <SCORE.SYSTEM.SOLV>
0

>  <SCORE.SYSTEM.norm>
0

>  <SCORE.heavy>
13

>  <SCORE.norm>
-0.907912

>  <RMSD>
5.378

$$$$
ligand
 OpenBabel11021811453D
libRbt.so/2013.1/901 2013/11/27
 13 12  0  0  0  0  0  0  0  0999 V2000
   29.6579   31.8418   45.9329 O   0  0  0  0  0  0  0  0  0  0  0  0
   30.7487   30.3601   49.2143 O   0  0  0  0  0  0  0  0  0  0  0  0
   33.0411   32.2257   42.1864 P   0  0  2  0  0  0  0  0  0  0  0  0
   34.1913   31.7682   43.0189 O   0  5  0  0  0  0  0  0  0  0  0  0
   33.2650   33.2578   41.1416 O   0  0  0  0  0  0  0  0  0  0  0  0
   31.8976   32.7640   43.1455 O   0  0  0  0  0  0  0  0  0  0  0  0
   31.5236   30.2858   51.9389 O   0  0  0  0  0  0  0  0  0  0  0  0
   31.3445   31.9325   44.1758 C   0  0  0  0  0  0  0  0  0  0  0  0
   29.8549   30.6799   48.1173 C   0  0  0  0  0  0  0  0  0  0  0  0
   31.2077   29.0851   51.2490 C   0  0  0  0  0  0  0  0  0  0  0  0
   30.2379   32.6930   44.9262 C   0  0  0  0  0  0  0  0  0  0  0  0
   30.5376   31.5855   47.0629 C   0  0  0  0  0  0  0  0  0  0  0  0
   30.1785   29.4200   50.1548 C   0  0  0  0  0  0  0  0  0  0  0  0
  1 12  1  0  0  0  0
  1 11  1  0  0  0  0
  2 13  1  0  0  0  0
  2  9  1  0  0  0  0
  3  4  1  1  0  0  0
  3  5  2  0  0  0  0
  3  6  1  0  0  0  0
  6  8  1  0  0  0  0
  7 10  1  0  0  0  0
  8 11  1  0  0  0  0
  9 12  1  0  0  0  0
 10 13  1  0  0  0  0
M  CHG  1   4  -1
M  END
>  <CHROM.1>
179.34890800,177.45555788,-56.53278604,-178.64336115,178.28939124,-174.84833740
176.94192312,61.50540635,71.04014687,31.52453322,31.46386270,45.96218657
1.82242132,-0.23334096,1.93653013

>  <Name>
ligand

>  <RI>
0

>  <Rbt.Current_Directory>
/home/itssahil/PROJECTS/Mol_Feturizer/New_Systems/rnas/2NPY

>  <Rbt.Executable>
rbdock ($Id: //depot/dev/client3/rdock/2013.1/src/exe/rbdock.cxx#4 $)

>  <Rbt.Library>
libRbt.so (2013.1, Build901 2013/11/27)

>  <Rbt.Parameter_File>
/export/apps/rDock/src/rDock_2013.1_src/data/scripts/dock_solv.prm

>  <Rbt.Receptor>
prm/pocket_docking_8.prm

>  <SCORE>
-10.5467

>  <SCORE.INTER>
2.48866

>  <SCORE.INTER.CONST>
1

>  <SCORE.INTER.POLAR>
0

>  <SCORE.INTER.ROT>
9

>  <SCORE.INTER.SOLV>
10.7048

>  <SCORE.INTER.VDW>
-11.5091

>  <SCORE.INTER.norm>
0.191435

>  <SCORE.INTRA>
-13.0354

>  <SCORE.INTRA.DIHEDRAL>
-24.8372

>  <SCORE.INTRA.DIHEDRAL.0>
25.6828

>  <SCORE.INTRA.POLAR>
0

>  <SCORE.INTRA.POLAR.0>
0

>  <SCORE.INTRA.REPUL>
0

>  <SCORE.INTRA.REPUL.0>
0

>  <SCORE.INTRA.SOLV>
-1.3462

>  <SCORE.INTRA.SOLV.lig_0>
-48.5059

>  <SCORE.INTRA.VDW>
0.0563244

>  <SCORE.INTRA.VDW.0>
-0.363643

>  <SCORE.INTRA.norm>
-1.00272

>  <SCORE.RESTR>
0

>  <SCORE.RESTR.CAVITY>
0

>  <SCORE.RESTR.norm>
0

>  <SCORE.SYSTEM>
0

>  <SCORE.SYSTEM.CONST>
0

>  <SCORE.SYSTEM.DIHEDRAL>
0

>  <SCORE.SYSTEM.SOLV>
0

>  <SCORE.SYSTEM.norm>
0

>  <SCORE.heavy>
13

>  <SCORE.norm>
-0.811285

>  <RMSD>
5.389

$$$$
ligand
 OpenBabel11021811453D
libRbt.so/2013.1/901 2013/11/27
 13 12  0  0  0  0  0  0  0  0999 V2000
   35.0312   30.8894   49.2910 O   0  0  0  0  0  0  0  0  0  0  0  0
   31.6176   31.8777   50.5217 O   0  0  0  0  0  0  0  0  0  0  0  0
   37.7908   30.0349   46.0118 P   0  0  2  0  0  0  0  0  0  0  0  0
   39.2401   30.3294   46.2074 O   0  5  0  0  0  0  0  0  0  0  0  0
   37.1432   30.3943   44.7240 O   0  0  0  0  0  0  0  0  0  0  0  0
   36.9650   30.7391   47.1692 O   0  0  0  0  0  0  0  0  0  0  0  0
   27.9528   31.9142   50.6688 O   0  0  0  0  0  0  0  0  0  0  0  0
   37.3297   30.5691   48.5465 C   0  0  0  0  0  0  0  0  0  0  0  0
   32.6173   31.0813   49.8356 C   0  0  0  0  0  0  0  0  0  0  0  0
   29.2653   32.3546   50.9862 C   0  0  0  0  0  0  0  0  0  0  0  0
   36.3777   31.3769   49.4449 C   0  0  0  0  0  0  0  0  0  0  0  0
   34.0484   31.6230   50.0735 C   0  0  0  0  0  0  0  0  0  0  0  0
   30.2654   31.4255   50.2754 C   0  0  0  0  0  0  0  0  0  0  0  0
  1 12  1  0  0  0  0
  1 11  1  0  0  0  0
  2 13  1  0  0  0  0
  2  9  1  0  0  0  0
  3  4  1  6  0  0  0
  3  5  2  0  0  0  0
  3  6  1  0  0  0  0
  6  8  1  0  0  0  0
  7 10  1  0  0  0  0
  8 11  1  0  0  0  0
  9 12  1  0  0  0  0
 10 13  1  0  0  0  0
M  CHG  1   4  -1
M  END
>  <CHROM.1>
178.32851755,-177.58020295,-50.54007314,179.09564876,61.97709294,177.74815524
-175.08793742,177.32455404,-178.16446743,34.58329886,31.03078963,48.49400739
-0.51075601,-0.07877475,1.37142777

>  <Name>
ligand

>  <RI>
0

>  <Rbt.Current_Directory>
/home/itssahil/PROJECTS/Mol_Feturizer/New_Systems/rnas/2NPY

>  <Rbt.Executable>
rbdock ($Id: //depot/dev/client3/rdock/2013.1/src/exe/rbdock.cxx#4 $)

>  <Rbt.Library>
libRbt.so (2013.1, Build901 2013/11/27)

>  <Rbt.Parameter_File>
/export/apps/rDock/src/rDock_2013.1_src/data/scripts/dock_solv.prm

>  <Rbt.Receptor>
prm/pocket_docking_7.prm

>  <SCORE>
-12.4355

>  <SCORE.INTER>
1.87081

>  <SCORE.INTER.CONST>
1

>  <SCORE.INTER.POLAR>
0

>  <SCORE.INTER.ROT>
9

>  <SCORE.INTER.SOLV>
11.6829

>  <SCORE.INTER.VDW>
-12.2471

>  <SCORE.INTER.norm>
0.143908

>  <SCORE.INTRA>
-14.3063

>  <SCORE.INTRA.DIHEDRAL>
-25.4134

>  <SCORE.INTRA.DIHEDRAL.0>
25.6828

>  <SCORE.INTRA.POLAR>
0

>  <SCORE.INTRA.POLAR.0>
0

>  <SCORE.INTRA.REPUL>
0

>  <SCORE.INTRA.REPUL.0>
0

>  <SCORE.INTRA.SOLV>
-1.44792

>  <SCORE.INTRA.SOLV.lig_0>
-48.5059

>  <SCORE.INTRA.VDW>
-0.875591

>  <SCORE.INTRA.VDW.0>
-0.363643

>  <SCORE.INTRA.norm>
-1.10048

>  <SCORE.RESTR>
0

>  <SCORE.RESTR.CAVITY>
0

>  <SCORE.RESTR.norm>
0

>  <SCORE.SYSTEM>
0

>  <SCORE.SYSTEM.CONST>
0

>  <SCORE.SYSTEM.DIHEDRAL>
0

>  <SCORE.SYSTEM.SOLV>
0

>  <SCORE.SYSTEM.norm>
0

>  <SCORE.heavy>
13

>  <SCORE.norm>
-0.956574

>  <RMSD>
5.414

$$$$
ligand
 OpenBabel11021811453D
libRbt.so/2013.1/901 2013/11/27
 13 12  0  0  0  0  0  0  0  0999 V2000
   34.6617   30.9317   49.4483 O   0  0  0  0  0  0  0  0  0  0  0  0
   31.7242   31.2567   48.9039 O   0  0  0  0  0  0  0  0  0  0  0  0
   37.3577   30.6290   46.0150 P   0  0  2  0  0  0  0  0  0  0  0  0
   37.9385   29.2723   46.2331 O   0  5  0  0  0  0  0  0  0  0  0  0
   38.2656   31.7742   45.7482 O   0  0  0  0  0  0  0  0  0  0  0  0
   36.4689   31.0129   47.2720 O   0  0  0  0  0  0  0  0  0  0  0  0
   29.5615   31.3274   50.8613 O   0  0  0  0  0  0  0  0  0  0  0  0
   36.9456   30.7976   48.6081 C   0  0  0  0  0  0  0  0  0  0  0  0
   32.2901   30.8495   50.1760 C   0  0  0  0  0  0  0  0  0  0  0  0
   29.3715   31.5901   49.4784 C   0  0  0  0  0  0  0  0  0  0  0  0
   35.9917   31.4577   49.6182 C   0  0  0  0  0  0  0  0  0  0  0  0
   33.6966   31.4566   50.4020 C   0  0  0  0  0  0  0  0  0  0  0  0
   30.3876   30.7463   48.6883 C   0  0  0  0  0  0  0  0  0  0  0  0
  1 12  1  0  0  0  0
  1 11  1  0  0  0  0
  2 13  1  0  0  0  0
  2  9  1  0  0  0  0
  3  4  1  1  0  0  0
  3  5  2  0  0  0  0
  3  6  1  0  0  0  0
  6  8  1  0  0  0  0
  7 10  1  0  0  0  0
  8 11  1  0  0  0  0
  9 12  1  0  0  0  0
 10 13  1  0  0  0  0
M  CHG  1   4  -1
M  END
>  <CHROM.1>
-179.64855323,78.53665126,45.55746263,171.01999466,57.34884638,-177.73230641
-66.04595307,-69.79409945,177.50377094,34.48948940,30.97303381,48.34018019
-2.68712890,0.00687942,-1.71786947

>  <Name>
ligand

>  <RI>
0

>  <Rbt.Current_Directory>
/home/itssahil/PROJECTS/Mol_Feturizer/New_Systems/rnas/2NPY

>  <Rbt.Executable>
rbdock ($Id: //depot/dev/client3/rdock/2013.1/src/exe/rbdock.cxx#4 $)

>  <Rbt.Library>
libRbt.so (2013.1, Build901 2013/11/27)

>  <Rbt.Parameter_File>
/export/apps/rDock/src/rDock_2013.1_src/data/scripts/dock_solv.prm

>  <Rbt.Receptor>
prm/pocket_docking_6.prm

>  <SCORE>
-9.47918

>  <SCORE.INTER>
2.16262

>  <SCORE.INTER.CONST>
1

>  <SCORE.INTER.POLAR>
0

>  <SCORE.INTER.ROT>
9

>  <SCORE.INTER.SOLV>
11.5444

>  <SCORE.INTER.VDW>
-12.0064

>  <SCORE.INTER.norm>
0.166356

>  <SCORE.INTRA>
-11.6418

>  <SCORE.INTRA.DIHEDRAL>
-22.748

>  <SCORE.INTRA.DIHEDRAL.0>
25.6828

>  <SCORE.INTRA.POLAR>
0

>  <SCORE.INTRA.POLAR.0>
0

>  <SCORE.INTRA.REPUL>
0

>  <SCORE.INTRA.REPUL.0>
0

>  <SCORE.INTRA.SOLV>
-0.332781

>  <SCORE.INTRA.SOLV.lig_0>
-48.5059

>  <SCORE.INTRA.VDW>
-0.101392

>  <SCORE.INTRA.VDW.0>
-0.363643

>  <SCORE.INTRA.norm>
-0.895523

>  <SCORE.RESTR>
0

>  <SCORE.RESTR.CAVITY>
0

>  <SCORE.RESTR.norm>
0

>  <SCORE.SYSTEM>
0

>  <SCORE.SYSTEM.CONST>
0

>  <SCORE.SYSTEM.DIHEDRAL>
0

>  <SCORE.SYSTEM.SOLV>
0

>  <SCORE.SYSTEM.norm>
0

>  <SCORE.heavy>
13

>  <SCORE.norm>
-0.729168

>  <RMSD>
5.426

$$$$
ligand
 OpenBabel11021811453D
libRbt.so/2013.1/901 2013/11/27
 13 12  0  0  0  0  0  0  0  0999 V2000
   29.7397   33.0027   44.4524 O   0  0  0  0  0  0  0  0  0  0  0  0
   31.0322   33.0173   47.0772 O   0  0  0  0  0  0  0  0  0  0  0  0
   30.5850   37.0600   45.9691 P   0  0  2  0  0  0  0  0  0  0  0  0
   31.6395   37.8065   45.2232 O   0  5  0  0  0  0  0  0  0  0  0  0
   30.8654   36.5918   47.3508 O   0  0  0  0  0  0  0  0  0  0  0  0
   30.1570   35.7916   45.1176 O   0  0  0  0  0  0  0  0  0  0  0  0
   33.6917   33.4607   46.2047 O   0  0  0  0  0  0  0  0  0  0  0  0
   28.9267   35.1029   45.3842 C   0  0  0  0  0  0  0  0  0  0  0  0
   29.6819   32.5225   46.8869 C   0  0  0  0  0  0  0  0  0  0  0  0
   33.4273   32.5714   47.2801 C   0  0  0  0  0  0  0  0  0  0  0  0
   28.7058   33.9987   44.3365 C   0  0  0  0  0  0  0  0  0  0  0  0
   29.4626   31.9828   45.4521 C   0  0  0  0  0  0  0  0  0  0  0  0
   32.0277   31.9675   47.0668 C   0  0  0  0  0  0  0  0  0  0  0  0
  1 12  1  0  0  0  0
  1 11  1  0  0  0  0
  2 13  1  0  0  0  0
  2  9  1  0  0  0  0
  3  4  1  6  0  0  0
  3  5  2  0  0  0  0
  3  6  1  0  0  0  0
  6  8  1  0  0  0  0
  7 10  1  0  0  0  0
  8 11  1  0  0  0  0
  9 12  1  0  0  0  0
 10 13  1  0  0  0  0
M  CHG  1   4  -1
M  END
>  <CHROM.1>
-75.57495000,-179.75287670,-162.32707506,174.96164708,64.26596606,-68.85142881
-57.65092907,-61.53033372,85.06818978,30.77407800,34.48971608,45.97897947
1.37843754,0.46339520,3.06743130

>  <Name>
ligand

>  <RI>
0

>  <Rbt.Current_Directory>
/home/itssahil/PROJECTS/Mol_Feturizer/New_Systems/rnas/2NPY

>  <Rbt.Executable>
rbdock ($Id: //depot/dev/client3/rdock/2013.1/src/exe/rbdock.cxx#4 $)

>  <Rbt.Library>
libRbt.so (2013.1, Build901 2013/11/27)

>  <Rbt.Parameter_File>
/export/apps/rDock/src/rDock_2013.1_src/data/scripts/dock_solv.prm

>  <Rbt.Receptor>
prm/pocket_docking_3.prm

>  <SCORE>
-2.41341

>  <SCORE.INTER>
7.85828

>  <SCORE.INTER.CONST>
1

>  <SCORE.INTER.POLAR>
0

>  <SCORE.INTER.ROT>
9

>  <SCORE.INTER.SOLV>
4.51389

>  <SCORE.INTER.VDW>
-5.86578

>  <SCORE.INTER.norm>
0.604483

>  <SCORE.INTRA>
-10.2717

>  <SCORE.INTRA.DIHEDRAL>
-21.079

>  <SCORE.INTRA.DIHEDRAL.0>
25.6828

>  <SCORE.INTRA.POLAR>
0

>  <SCORE.INTRA.POLAR.0>
0

>  <SCORE.INTRA.REPUL>
0

>  <SCORE.INTRA.REPUL.0>
0

>  <SCORE.INTRA.SOLV>
0.159777

>  <SCORE.INTRA.SOLV.lig_0>
-48.5059

>  <SCORE.INTRA.VDW>
0.187923

>  <SCORE.INTRA.VDW.0>
-0.363643

>  <SCORE.INTRA.norm>
-0.79013

>  <SCORE.RESTR>
0

>  <SCORE.RESTR.CAVITY>
0

>  <SCORE.RESTR.norm>
0

>  <SCORE.SYSTEM>
0

>  <SCORE.SYSTEM.CONST>
0

>  <SCORE.SYSTEM.DIHEDRAL>
0

>  <SCORE.SYSTEM.SOLV>
0

>  <SCORE.SYSTEM.norm>
0

>  <SCORE.heavy>
13

>  <SCORE.norm>
-0.185647

>  <RMSD>
5.435

$$$$
ligand
 OpenBabel11021811453D
libRbt.so/2013.1/901 2013/11/27
 13 12  0  0  0  0  0  0  0  0999 V2000
   30.0743   33.8576   45.1770 O   0  0  0  0  0  0  0  0  0  0  0  0
   31.4422   32.1969   47.0437 O   0  0  0  0  0  0  0  0  0  0  0  0
   30.3852   37.6031   46.4545 P   0  0  2  0  0  0  0  0  0  0  0  0
   31.5993   37.2885   45.6467 O   0  5  0  0  0  0  0  0  0  0  0  0
   30.5298   37.8788   47.9071 O   0  0  0  0  0  0  0  0  0  0  0  0
   29.3458   36.4145   46.2999 O   0  0  0  0  0  0  0  0  0  0  0  0
   31.9983   32.9899   49.5664 O   0  0  0  0  0  0  0  0  0  0  0  0
   28.8997   35.9861   45.0051 C   0  0  0  0  0  0  0  0  0  0  0  0
   31.2870   31.7494   45.6726 C   0  0  0  0  0  0  0  0  0  0  0  0
   32.5563   33.7857   48.5307 C   0  0  0  0  0  0  0  0  0  0  0  0
   29.9422   35.0467   44.3753 C   0  0  0  0  0  0  0  0  0  0  0  0
   31.0930   32.9364   44.6973 C   0  0  0  0  0  0  0  0  0  0  0  0
   32.6802   32.9107   47.2706 C   0  0  0  0  0  0  0  0  0  0  0  0
  1 12  1  0  0  0  0
  1 11  1  0  0  0  0
  2 13  1  0  0  0  0
  2  9  1  0  0  0  0
  3  4  1  1  0  0  0
  3  5  2  0  0  0  0
  3  6  1  0  0  0  0
  6  8  1  0  0  0  0
  7 10  1  0  0  0  0
  8 11  1  0  0  0  0
  9 12  1  0  0  0  0
 10 13  1  0  0  0  0
M  CHG  1   4  -1
M  END
>  <CHROM.1>
174.34908783,158.93145837,-55.05443684,81.26390964,63.13254398,-68.12326261
-48.88922581,47.53501517,-176.93357700,30.86369995,34.92542354,46.46433971
0.84961303,1.06385075,-2.68992532

>  <Name>
ligand

>  <RI>
0

>  <Rbt.Current_Directory>
/home/itssahil/PROJECTS/Mol_Feturizer/New_Systems/rnas/2NPY

>  <Rbt.Executable>
rbdock ($Id: //depot/dev/client3/rdock/2013.1/src/exe/rbdock.cxx#4 $)

>  <Rbt.Library>
libRbt.so (2013.1, Build901 2013/11/27)

>  <Rbt.Parameter_File>
/export/apps/rDock/src/rDock_2013.1_src/data/scripts/dock_solv.prm

>  <Rbt.Receptor>
prm/pocket_docking_2.prm

>  <SCORE>
-0.566875

>  <SCORE.INTER>
9.47482

>  <SCORE.INTER.CONST>
1

>  <SCORE.INTER.POLAR>
0

>  <SCORE.INTER.ROT>
9

>  <SCORE.INTER.SOLV>
4.49881

>  <SCORE.INTER.VDW>
-4.78306

>  <SCORE.INTER.norm>
0.728832

>  <SCORE.INTRA>
-10.042

>  <SCORE.INTRA.DIHEDRAL>
-20.0843

>  <SCORE.INTRA.DIHEDRAL.0>
25.6828

>  <SCORE.INTRA.POLAR>
0

>  <SCORE.INTRA.POLAR.0>
0

>  <SCORE.INTRA.REPUL>
0

>  <SCORE.INTRA.REPUL.0>
0

>  <SCORE.INTRA.SOLV>
1.37302

>  <SCORE.INTRA.SOLV.lig_0>
-48.5059

>  <SCORE.INTRA.VDW>
-0.686387

>  <SCORE.INTRA.VDW.0>
-0.363643

>  <SCORE.INTRA.norm>
-0.772462

>  <SCORE.RESTR>
0.000315265

>  <SCORE.RESTR.CAVITY>
0.000315265

>  <SCORE.RESTR.norm>
2.42511e-05

>  <SCORE.SYSTEM>
0

>  <SCORE.SYSTEM.CONST>
0

>  <SCORE.SYSTEM.DIHEDRAL>
0

>  <SCORE.SYSTEM.SOLV>
0

>  <SCORE.SYSTEM.norm>
0

>  <SCORE.heavy>
13

>  <SCORE.norm>
-0.0436058

>  <RMSD>
5.436

$$$$
ligand
 OpenBabel11021811453D
libRbt.so/2013.1/901 2013/11/27
 13 12  0  0  0  0  0  0  0  0999 V2000
   30.7489   32.6537   45.6746 O   0  0  0  0  0  0  0  0  0  0  0  0
   33.5301   31.7952   48.0589 O   0  0  0  0  0  0  0  0  0  0  0  0
   34.0972   31.5632   42.0448 P   0  0  2  0  0  0  0  0  0  0  0  0
   34.4060   32.9873   41.7256 O   0  5  0  0  0  0  0  0  0  0  0  0
   34.1003   30.5561   40.9527 O   0  0  0  0  0  0  0  0  0  0  0  0
   32.6771   31.4931   42.7488 O   0  0  0  0  0  0  0  0  0  0  0  0
   36.9689   31.5768   49.3170 O   0  0  0  0  0  0  0  0  0  0  0  0
   32.3841   32.2926   43.9037 C   0  0  0  0  0  0  0  0  0  0  0  0
   32.8861   32.4079   46.9126 C   0  0  0  0  0  0  0  0  0  0  0  0
   35.5739   31.3101   49.3097 C   0  0  0  0  0  0  0  0  0  0  0  0
   30.9929   31.9324   44.4521 C   0  0  0  0  0  0  0  0  0  0  0  0
   31.3791   32.0586   46.8430 C   0  0  0  0  0  0  0  0  0  0  0  0
   34.9484   32.0732   48.1285 C   0  0  0  0  0  0  0  0  0  0  0  0
  1 12  1  0  0  0  0
  1 11  1  0  0  0  0
  2 13  1  0  0  0  0
  2  9  1  0  0  0  0
  3  4  1  6  0  0  0
  3  5  2  0  0  0  0
  3  6  1  0  0  0  0
  6  8  1  0  0  0  0
  7 10  1  0  0  0  0
  8 11  1  0  0  0  0
  9 12  1  0  0  0  0
 10 13  1  0  0  0  0
M  CHG  1   4  -1
M  END
>  <CHROM.1>
79.09717542,-176.01072797,-53.41605314,-174.81625056,175.15897735,178.33435415
-178.75686579,178.21974291,-80.21910324,33.50769906,31.86981820,45.08553310
1.35908305,-0.16248348,1.52257335

>  <Name>
ligand

>  <RI>
0

>  <Rbt.Current_Directory>
/home/itssahil/PROJECTS/Mol_Feturizer/New_Systems/rnas/2NPY

>  <Rbt.Executable>
rbdock ($Id: //depot/dev/client3/rdock/2013.1/src/exe/rbdock.cxx#4 $)

>  <Rbt.Library>
libRbt.so (2013.1, Build901 2013/11/27)

>  <Rbt.Parameter_File>
/export/apps/rDock/src/rDock_2013.1_src/data/scripts/dock_solv.prm

>  <Rbt.Receptor>
prm/pocket_docking_6.prm

>  <SCORE>
-7.50327

>  <SCORE.INTER>
3.42934

>  <SCORE.INTER.CONST>
1

>  <SCORE.INTER.POLAR>
0

>  <SCORE.INTER.ROT>
9

>  <SCORE.INTER.SOLV>
7.63974

>  <SCORE.INTER.VDW>
-9.86035

>  <SCORE.INTER.norm>
0.263796

>  <SCORE.INTRA>
-10.9326

>  <SCORE.INTRA.DIHEDRAL>
-21.8311

>  <SCORE.INTRA.DIHEDRAL.0>
25.6828

>  <SCORE.INTRA.POLAR>
0

>  <SCORE.INTRA.POLAR.0>
0

>  <SCORE.INTRA.REPUL>
0

>  <SCORE.INTRA.REPUL.0>
0

>  <SCORE.INTRA.SOLV>
-1.53565

>  <SCORE.INTRA.SOLV.lig_0>
-48.5059

>  <SCORE.INTRA.VDW>
0.75075

>  <SCORE.INTRA.VDW.0>
-0.363643

>  <SCORE.INTRA.norm>
-0.840971

>  <SCORE.RESTR>
0

>  <SCORE.RESTR.CAVITY>
0

>  <SCORE.RESTR.norm>
0

>  <SCORE.SYSTEM>
0

>  <SCORE.SYSTEM.CONST>
0

>  <SCORE.SYSTEM.DIHEDRAL>
0

>  <SCORE.SYSTEM.SOLV>
0

>  <SCORE.SYSTEM.norm>
0

>  <SCORE.heavy>
13

>  <SCORE.norm>
-0.577175

>  <RMSD>
5.441

$$$$
ligand
 OpenBabel11021811453D
libRbt.so/2013.1/901 2013/11/27
 13 12  0  0  0  0  0  0  0  0999 V2000
   29.8613   33.3391   45.8038 O   0  0  0  0  0  0  0  0  0  0  0  0
   32.7617   33.4565   46.7522 O   0  0  0  0  0  0  0  0  0  0  0  0
   30.2204   37.6123   46.0906 P   0  0  2  0  0  0  0  0  0  0  0  0
   31.5484   37.5469   45.4142 O   0  5  0  0  0  0  0  0  0  0  0  0
   30.1448   38.0729   47.5010 O   0  0  0  0  0  0  0  0  0  0  0  0
   29.5411   36.1800   46.0238 O   0  0  0  0  0  0  0  0  0  0  0  0
   31.5048   31.8883   48.7377 O   0  0  0  0  0  0  0  0  0  0  0  0
   29.3818   35.4949   44.7731 C   0  0  0  0  0  0  0  0  0  0  0  0
   32.1484   32.3914   45.9816 C   0  0  0  0  0  0  0  0  0  0  0  0
   32.5044   32.8296   49.1011 C   0  0  0  0  0  0  0  0  0  0  0  0
   28.8902   34.0586   45.0206 C   0  0  0  0  0  0  0  0  0  0  0  0
   31.0332   32.9236   45.0485 C   0  0  0  0  0  0  0  0  0  0  0  0
   33.4751   32.9764   47.9158 C   0  0  0  0  0  0  0  0  0  0  0  0
  1 12  1  0  0  0  0
  1 11  1  0  0  0  0
  2 13  1  0  0  0  0
  2  9  1  0  0  0  0
  3  4  1  1  0  0  0
  3  5  2  0  0  0  0
  3  6  1  0  0  0  0
  6  8  1  0  0  0  0
  7 10  1  0  0  0  0
  8 11  1  0  0  0  0
  9 12  1  0  0  0  0
 10 13  1  0  0  0  0
M  CHG  1   4  -1
M  END
>  <CHROM.1>
169.56242773,-85.96808513,-53.41854655,171.73931462,-61.22827768,161.11649631
-71.01841158,60.64585412,-75.82058629,30.93249744,34.80033337,46.45634989
0.94765959,0.84759388,-2.97051265

>  <Name>
ligand

>  <RI>
0

>  <Rbt.Current_Directory>
/home/itssahil/PROJECTS/Mol_Feturizer/New_Systems/rnas/2NPY

>  <Rbt.Executable>
rbdock ($Id: //depot/dev/client3/rdock/2013.1/src/exe/rbdock.cxx#4 $)

>  <Rbt.Library>
libRbt.so (2013.1, Build901 2013/11/27)

>  <Rbt.Parameter_File>
/export/apps/rDock/src/rDock_2013.1_src/data/scripts/dock_solv.prm

>  <Rbt.Receptor>
prm/pocket_docking_2.prm

>  <SCORE>
0.0541441

>  <SCORE.INTER>
9.8025

>  <SCORE.INTER.CONST>
1

>  <SCORE.INTER.POLAR>
0

>  <SCORE.INTER.ROT>
9

>  <SCORE.INTER.SOLV>
4.10385

>  <SCORE.INTER.VDW>
-4.43295

>  <SCORE.INTER.norm>
0.754039

>  <SCORE.INTRA>
-9.77109

>  <SCORE.INTRA.DIHEDRAL>
-18.7088

>  <SCORE.INTRA.DIHEDRAL.0>
25.6828

>  <SCORE.INTRA.POLAR>
0

>  <SCORE.INTRA.POLAR.0>
0

>  <SCORE.INTRA.REPUL>
0

>  <SCORE.INTRA.REPUL.0>
0

>  <SCORE.INTRA.SOLV>
-0.36676

>  <SCORE.INTRA.SOLV.lig_0>
-48.5059

>  <SCORE.INTRA.VDW>
-0.233282

>  <SCORE.INTRA.VDW.0>
-0.363643

>  <SCORE.INTRA.norm>
-0.751622

>  <SCORE.RESTR>
0.0227283

>  <SCORE.RESTR.CAVITY>
0.0227283

>  <SCORE.RESTR.norm>
0.00174833

>  <SCORE.SYSTEM>
0

>  <SCORE.SYSTEM.CONST>
0

>  <SCORE.SYSTEM.DIHEDRAL>
0

>  <SCORE.SYSTEM.SOLV>
0

>  <SCORE.SYSTEM.norm>
0

>  <SCORE.heavy>
13

>  <SCORE.norm>
0.00416493

>  <RMSD>
5.461

$$$$
ligand
 OpenBabel11021811453D
libRbt.so/2013.1/901 2013/11/27
 13 12  0  0  0  0  0  0  0  0999 V2000
   30.1616   31.5095   46.4324 O   0  0  0  0  0  0  0  0  0  0  0  0
   30.0553   30.5572   49.1821 O   0  0  0  0  0  0  0  0  0  0  0  0
   32.9249   32.4122   42.2881 P   0  0  2  0  0  0  0  0  0  0  0  0
   33.1461   30.9509   42.0851 O   0  5  0  0  0  0  0  0  0  0  0  0
   34.0344   33.2495   42.8124 O   0  0  0  0  0  0  0  0  0  0  0  0
   31.6836   32.6121   43.2558 O   0  0  0  0  0  0  0  0  0  0  0  0
   31.8505   28.4551   50.0413 O   0  0  0  0  0  0  0  0  0  0  0  0
   31.5484   31.8358   44.4550 C   0  0  0  0  0  0  0  0  0  0  0  0
   28.8596   30.9804   48.4783 C   0  0  0  0  0  0  0  0  0  0  0  0
   31.0956   29.2360   50.9566 C   0  0  0  0  0  0  0  0  0  0  0  0
   30.3699   32.3630   45.2911 C   0  0  0  0  0  0  0  0  0  0  0  0
   29.1774   32.0193   47.3748 C   0  0  0  0  0  0  0  0  0  0  0  0
   29.7803   29.6405   50.2672 C   0  0  0  0  0  0  0  0  0  0  0  0
  1 12  1  0  0  0  0
  1 11  1  0  0  0  0
  2 13  1  0  0  0  0
  2  9  1  0  0  0  0
  3  4  1  1  0  0  0
  3  5  2  0  0  0  0
  3  6  1  0  0  0  0
  6  8  1  0  0  0  0
  7 10  1  0  0  0  0
  8 11  1  0  0  0  0
  9 12  1  0  0  0  0
 10 13  1  0  0  0  0
M  CHG  1   4  -1
M  END
>  <CHROM.1>
172.52947711,179.75882999,45.52709193,172.33245490,174.87330973,176.86602221
56.12271217,-67.55411143,172.67527103,31.31271158,31.31327355,46.00846093
1.94008561,-0.47978821,2.08648490

>  <Name>
ligand

>  <RI>
0

>  <Rbt.Current_Directory>
/home/itssahil/PROJECTS/Mol_Feturizer/New_Systems/rnas/2NPY

>  <Rbt.Executable>
rbdock ($Id: //depot/dev/client3/rdock/2013.1/src/exe/rbdock.cxx#4 $)

>  <Rbt.Library>
libRbt.so (2013.1, Build901 2013/11/27)

>  <Rbt.Parameter_File>
/export/apps/rDock/src/rDock_2013.1_src/data/scripts/dock_solv.prm

>  <Rbt.Receptor>
prm/pocket_docking_8.prm

>  <SCORE>
-9.68293

>  <SCORE.INTER>
3.61475

>  <SCORE.INTER.CONST>
1

>  <SCORE.INTER.POLAR>
0

>  <SCORE.INTER.ROT>
9

>  <SCORE.INTER.SOLV>
13.6909

>  <SCORE.INTER.VDW>
-11.7538

>  <SCORE.INTER.norm>
0.278057

>  <SCORE.INTRA>
-13.2977

>  <SCORE.INTRA.DIHEDRAL>
-24.0427

>  <SCORE.INTRA.DIHEDRAL.0>
25.6828

>  <SCORE.INTRA.POLAR>
0

>  <SCORE.INTRA.POLAR.0>
0

>  <SCORE.INTRA.REPUL>
0

>  <SCORE.INTRA.REPUL.0>
0

>  <SCORE.INTRA.SOLV>
-0.745312

>  <SCORE.INTRA.SOLV.lig_0>
-48.5059

>  <SCORE.INTRA.VDW>
-0.903656

>  <SCORE.INTRA.VDW.0>
-0.363643

>  <SCORE.INTRA.norm>
-1.0229

>  <SCORE.RESTR>
0

>  <SCORE.RESTR.CAVITY>
0

>  <SCORE.RESTR.norm>
0

>  <SCORE.SYSTEM>
0

>  <SCORE.SYSTEM.CONST>
0

>  <SCORE.SYSTEM.DIHEDRAL>
0

>  <SCORE.SYSTEM.SOLV>
0

>  <SCORE.SYSTEM.norm>
0

>  <SCORE.heavy>
13

>  <SCORE.norm>
-0.744841

>  <RMSD>
5.476

$$$$
ligand
 OpenBabel11021811453D
libRbt.so/2013.1/901 2013/11/27
 13 12  0  0  0  0  0  0  0  0999 V2000
   36.2516   30.5806   48.1501 O   0  0  0  0  0  0  0  0  0  0  0  0
   33.8074   32.0203   48.7867 O   0  0  0  0  0  0  0  0  0  0  0  0
   37.0229   30.4588   43.8460 P   0  0  2  0  0  0  0  0  0  0  0  0
   38.4287   30.3890   43.3516 O   0  5  0  0  0  0  0  0  0  0  0  0
   36.0782   31.4180   43.2182 O   0  0  0  0  0  0  0  0  0  0  0  0
   37.0427   30.7647   45.4027 O   0  0  0  0  0  0  0  0  0  0  0  0
   32.1508   34.1592   47.8868 O   0  0  0  0  0  0  0  0  0  0  0  0
   37.7035   29.8823   46.3213 C   0  0  0  0  0  0  0  0  0  0  0  0
   34.5762   31.3443   49.8144 C   0  0  0  0  0  0  0  0  0  0  0  0
   31.6536   32.8308   47.9615 C   0  0  0  0  0  0  0  0  0  0  0  0
   37.6286   30.4564   47.7463 C   0  0  0  0  0  0  0  0  0  0  0  0
   36.0740   31.2363   49.4365 C   0  0  0  0  0  0  0  0  0  0  0  0
   32.3969   32.1062   49.0978 C   0  0  0  0  0  0  0  0  0  0  0  0
  1 12  1  0  0  0  0
  1 11  1  0  0  0  0
  2 13  1  0  0  0  0
  2  9  1  0  0  0  0
  3  4  1  6  0  0  0
  3  5  2  0  0  0  0
  3  6  1  0  0  0  0
  6  8  1  0  0  0  0
  7 10  1  0  0  0  0
  8 11  1  0  0  0  0
  9 12  1  0  0  0  0
 10 13  1  0  0  0  0
M  CHG  1   4  -1
M  END
>  <CHROM.1>
179.83029678,-179.85970763,-59.09549050,177.09099072,60.97068668,178.54001173
-55.62851981,-63.25032780,-174.38614254,35.58383163,31.29641395,46.69953868
-2.42648713,0.50843902,-1.46768674

>  <Name>
ligand

>  <RI>
0

>  <Rbt.Current_Directory>
/home/itssahil/PROJECTS/Mol_Feturizer/New_Systems/rnas/2NPY

>  <Rbt.Executable>
rbdock ($Id: //depot/dev/client3/rdock/2013.1/src/exe/rbdock.cxx#4 $)

>  <Rbt.Library>
libRbt.so (2013.1, Build901 2013/11/27)

>  <Rbt.Parameter_File>
/export/apps/rDock/src/rDock_2013.1_src/data/scripts/dock_solv.prm

>  <Rbt.Receptor>
prm/pocket_docking_8.prm

>  <SCORE>
-12.6748

>  <SCORE.INTER>
1.66207

>  <SCORE.INTER.CONST>
1

>  <SCORE.INTER.POLAR>
0

>  <SCORE.INTER.ROT>
9

>  <SCORE.INTER.SOLV>
11.2007

>  <SCORE.INTER.VDW>
-12.2255

>  <SCORE.INTER.norm>
0.127852

>  <SCORE.INTRA>
-14.3369

>  <SCORE.INTRA.DIHEDRAL>
-25.3118

>  <SCORE.INTRA.DIHEDRAL.0>
25.6828

>  <SCORE.INTRA.POLAR>
0

>  <SCORE.INTRA.POLAR.0>
0

>  <SCORE.INTRA.REPUL>
0

>  <SCORE.INTRA.REPUL.0>
0

>  <SCORE.INTRA.SOLV>
-1.06406

>  <SCORE.INTRA.SOLV.lig_0>
-48.5059

>  <SCORE.INTRA.VDW>
-1.14892

>  <SCORE.INTRA.VDW.0>
-0.363643

>  <SCORE.INTRA.norm>
-1.10284

>  <SCORE.RESTR>
0

>  <SCORE.RESTR.CAVITY>
0

>  <SCORE.RESTR.norm>
0

>  <SCORE.SYSTEM>
0

>  <SCORE.SYSTEM.CONST>
0

>  <SCORE.SYSTEM.DIHEDRAL>
0

>  <SCORE.SYSTEM.SOLV>
0

>  <SCORE.SYSTEM.norm>
0

>  <SCORE.heavy>
13

>  <SCORE.norm>
-0.974983

>  <RMSD>
5.477

$$$$
ligand
 OpenBabel11021811453D
libRbt.so/2013.1/901 2013/11/27
 13 12  0  0  0  0  0  0  0  0999 V2000
   30.2788   33.6959   45.3161 O   0  0  0  0  0  0  0  0  0  0  0  0
   31.6935   31.7465   47.3370 O   0  0  0  0  0  0  0  0  0  0  0  0
   30.0403   37.2686   46.5985 P   0  0  2  0  0  0  0  0  0  0  0  0
   30.1632   37.2060   48.0839 O   0  5  0  0  0  0  0  0  0  0  0  0
   29.6478   38.5486   45.9548 O   0  0  0  0  0  0  0  0  0  0  0  0
   29.0055   36.1636   46.1238 O   0  0  0  0  0  0  0  0  0  0  0  0
   32.3030   34.0333   48.8982 O   0  0  0  0  0  0  0  0  0  0  0  0
   28.9953   35.6939   44.7680 C   0  0  0  0  0  0  0  0  0  0  0  0
   31.3489   31.5457   45.9423 C   0  0  0  0  0  0  0  0  0  0  0  0
   31.0792   33.9571   48.1812 C   0  0  0  0  0  0  0  0  0  0  0  0
   30.2658   34.8737   44.4873 C   0  0  0  0  0  0  0  0  0  0  0  0
   31.4535   32.8586   45.1279 C   0  0  0  0  0  0  0  0  0  0  0  0
   30.6817   32.4742   48.0721 C   0  0  0  0  0  0  0  0  0  0  0  0
  1 12  1  0  0  0  0
  1 11  1  0  0  0  0
  2 13  1  0  0  0  0
  2  9  1  0  0  0  0
  3  4  1  1  0  0  0
  3  5  2  0  0  0  0
  3  6  1  0  0  0  0
  6  8  1  0  0  0  0
  7 10  1  0  0  0  0
  8 11  1  0  0  0  0
  9 12  1  0  0  0  0
 10 13  1  0  0  0  0
M  CHG  1   4  -1
M  END
>  <CHROM.1>
-174.61848933,-98.61349267,-159.84432066,69.01111024,63.72314848,72.42029959
-80.11941755,-61.66410236,-179.53548547,30.49428347,34.86728886,46.55923909
0.69488278,1.13497372,-2.44765632

>  <Name>
ligand

>  <RI>
0

>  <Rbt.Current_Directory>
/home/itssahil/PROJECTS/Mol_Feturizer/New_Systems/rnas/2NPY

>  <Rbt.Executable>
rbdock ($Id: //depot/dev/client3/rdock/2013.1/src/exe/rbdock.cxx#4 $)

>  <Rbt.Library>
libRbt.so (2013.1, Build901 2013/11/27)

>  <Rbt.Parameter_File>
/export/apps/rDock/src/rDock_2013.1_src/data/scripts/dock_solv.prm

>  <Rbt.Receptor>
prm/pocket_docking_2.prm

>  <SCORE>
1.12472

>  <SCORE.INTER>
9.37118

>  <SCORE.INTER.CONST>
1

>  <SCORE.INTER.POLAR>
0

>  <SCORE.INTER.ROT>
9

>  <SCORE.INTER.SOLV>
6.5

>  <SCORE.INTER.VDW>
-5.51921

>  <SCORE.INTER.norm>
0.72086

>  <SCORE.INTRA>
-8.2517

>  <SCORE.INTRA.DIHEDRAL>
-17.5308

>  <SCORE.INTRA.DIHEDRAL.0>
25.6828

>  <SCORE.INTRA.POLAR>
0

>  <SCORE.INTRA.POLAR.0>
0

>  <SCORE.INTRA.REPUL>
0

>  <SCORE.INTRA.REPUL.0>
0

>  <SCORE.INTRA.SOLV>
2.63155

>  <SCORE.INTRA.SOLV.lig_0>
-48.5059

>  <SCORE.INTRA.VDW>
-0.80206

>  <SCORE.INTRA.VDW.0>
-0.363643

>  <SCORE.INTRA.norm>
-0.634746

>  <SCORE.RESTR>
0.00524611

>  <SCORE.RESTR.CAVITY>
0.00524611

>  <SCORE.RESTR.norm>
0.000403547

>  <SCORE.SYSTEM>
0

>  <SCORE.SYSTEM.CONST>
0

>  <SCORE.SYSTEM.DIHEDRAL>
0

>  <SCORE.SYSTEM.SOLV>
0

>  <SCORE.SYSTEM.norm>
0

>  <SCORE.heavy>
13

>  <SCORE.norm>
0.0865171

>  <RMSD>
5.480

$$$$
ligand
 OpenBabel11021811453D
libRbt.so/2013.1/901 2013/11/27
 13 12  0  0  0  0  0  0  0  0999 V2000
   30.1477   33.6089   45.4333 O   0  0  0  0  0  0  0  0  0  0  0  0
   32.0737   31.4416   47.5710 O   0  0  0  0  0  0  0  0  0  0  0  0
   30.2044   37.9993   45.8373 P   0  0  2  0  0  0  0  0  0  0  0  0
   31.5967   37.4861   45.9904 O   0  5  0  0  0  0  0  0  0  0  0  0
   29.3091   38.0374   47.0221 O   0  0  0  0  0  0  0  0  0  0  0  0
   29.4679   37.1535   44.7150 O   0  0  0  0  0  0  0  0  0  0  0  0
   30.6811   34.0761   48.1444 O   0  0  0  0  0  0  0  0  0  0  0  0
   29.1451   35.7711   44.9234 C   0  0  0  0  0  0  0  0  0  0  0  0
   31.0474   31.5865   46.5561 C   0  0  0  0  0  0  0  0  0  0  0  0
   31.8400   33.5543   48.7786 C   0  0  0  0  0  0  0  0  0  0  0  0
   30.4307   34.9266   44.9251 C   0  0  0  0  0  0  0  0  0  0  0  0
   31.3316   32.7834   45.6157 C   0  0  0  0  0  0  0  0  0  0  0  0
   31.7004   32.0229   48.8423 C   0  0  0  0  0  0  0  0  0  0  0  0
  1 12  1  0  0  0  0
  1 11  1  0  0  0  0
  2 13  1  0  0  0  0
  2  9  1  0  0  0  0
  3  4  1  1  0  0  0
  3  5  2  0  0  0  0
  3  6  1  0  0  0  0
  6  8  1  0  0  0  0
  7 10  1  0  0  0  0
  8 11  1  0  0  0  0
  9 12  1  0  0  0  0
 10 13  1  0  0  0  0
M  CHG  1   4  -1
M  END
>  <CHROM.1>
161.99896923,-76.80475544,68.10151421,-70.28297937,166.87294942,98.38435952
-132.54314041,81.01705789,-173.41441112,30.64332827,34.95516235,46.43598645
0.76725065,1.19810441,-2.70359446

>  <Name>
ligand

>  <RI>
0

>  <Rbt.Current_Directory>
/home/itssahil/PROJECTS/Mol_Feturizer/New_Systems/rnas/2NPY

>  <Rbt.Executable>
rbdock ($Id: //depot/dev/client3/rdock/2013.1/src/exe/rbdock.cxx#4 $)

>  <Rbt.Library>
libRbt.so (2013.1, Build901 2013/11/27)

>  <Rbt.Parameter_File>
/export/apps/rDock/src/rDock_2013.1_src/data/scripts/dock_solv.prm

>  <Rbt.Receptor>
prm/pocket_docking_2.prm

>  <SCORE>
6.12877

>  <SCORE.INTER>
9.9932

>  <SCORE.INTER.CONST>
1

>  <SCORE.INTER.POLAR>
0

>  <SCORE.INTER.ROT>
9

>  <SCORE.INTER.SOLV>
4.2176

>  <SCORE.INTER.VDW>
-4.34373

>  <SCORE.INTER.norm>
0.768708

>  <SCORE.INTRA>
-3.88076

>  <SCORE.INTRA.DIHEDRAL>
-9.92135

>  <SCORE.INTRA.DIHEDRAL.0>
25.6828

>  <SCORE.INTRA.POLAR>
0

>  <SCORE.INTRA.POLAR.0>
0

>  <SCORE.INTRA.REPUL>
0

>  <SCORE.INTRA.REPUL.0>
0

>  <SCORE.INTRA.SOLV>
2.28219

>  <SCORE.INTRA.SOLV.lig_0>
-48.5059

>  <SCORE.INTRA.VDW>
-0.0611836

>  <SCORE.INTRA.VDW.0>
-0.363643

>  <SCORE.INTRA.norm>
-0.29852

>  <SCORE.RESTR>
0.0163351

>  <SCORE.RESTR.CAVITY>
0.0163351

>  <SCORE.RESTR.norm>
0.00125655

>  <SCORE.SYSTEM>
0

>  <SCORE.SYSTEM.CONST>
0

>  <SCORE.SYSTEM.DIHEDRAL>
0

>  <SCORE.SYSTEM.SOLV>
0

>  <SCORE.SYSTEM.norm>
0

>  <SCORE.heavy>
13

>  <SCORE.norm>
0.471444

>  <RMSD>
5.483

$$$$
ligand
 OpenBabel11021811453D
libRbt.so/2013.1/901 2013/11/27
 13 12  0  0  0  0  0  0  0  0999 V2000
   27.5604   31.4789   47.6568 O   0  0  0  0  0  0  0  0  0  0  0  0
   27.4896   32.2732   50.5185 O   0  0  0  0  0  0  0  0  0  0  0  0
   30.4045   33.6462   45.1306 P   0  0  2  0  0  0  0  0  0  0  0  0
   30.0591   34.0644   43.7409 O   0  5  0  0  0  0  0  0  0  0  0  0
   31.4780   32.6413   45.3418 O   0  0  0  0  0  0  0  0  0  0  0  0
   29.0958   33.0964   45.8394 O   0  0  0  0  0  0  0  0  0  0  0  0
   27.8202   34.3956   52.4360 O   0  0  0  0  0  0  0  0  0  0  0  0
   28.5081   31.8492   45.4421 C   0  0  0  0  0  0  0  0  0  0  0  0
   26.8270   31.0931   49.9964 C   0  0  0  0  0  0  0  0  0  0  0  0
   28.7711   33.3492   52.3008 C   0  0  0  0  0  0  0  0  0  0  0  0
   27.2313   31.5871   46.2588 C   0  0  0  0  0  0  0  0  0  0  0  0
   26.4054   31.2755   48.5176 C   0  0  0  0  0  0  0  0  0  0  0  0
   28.0246   32.0814   51.8491 C   0  0  0  0  0  0  0  0  0  0  0  0
  1 12  1  0  0  0  0
  1 11  1  0  0  0  0
  2 13  1  0  0  0  0
  2  9  1  0  0  0  0
  3  4  1  6  0  0  0
  3  5  2  0  0  0  0
  3  6  1  0  0  0  0
  6  8  1  0  0  0  0
  7 10  1  0  0  0  0
  8 11  1  0  0  0  0
  9 12  1  0  0  0  0
 10 13  1  0  0  0  0
M  CHG  1   4  -1
M  END
>  <CHROM.1>
177.03585230,177.11325056,70.16711680,-178.10533708,-62.20422387,-173.64242067
62.46284660,66.04215762,178.00359409,28.62144674,32.64158506,47.81497055
2.02774807,0.69391443,1.34877175

>  <Name>
ligand

>  <RI>
0

>  <Rbt.Current_Directory>
/home/itssahil/PROJECTS/Mol_Feturizer/New_Systems/rnas/2NPY

>  <Rbt.Executable>
rbdock ($Id: //depot/dev/client3/rdock/2013.1/src/exe/rbdock.cxx#4 $)

>  <Rbt.Library>
libRbt.so (2013.1, Build901 2013/11/27)

>  <Rbt.Parameter_File>
/export/apps/rDock/src/rDock_2013.1_src/data/scripts/dock_solv.prm

>  <Rbt.Receptor>
prm/pocket_docking_7.prm

>  <SCORE>
-9.95166

>  <SCORE.INTER>
4.03074

>  <SCORE.INTER.CONST>
1

>  <SCORE.INTER.POLAR>
0

>  <SCORE.INTER.ROT>
9

>  <SCORE.INTER.SOLV>
8.33683

>  <SCORE.INTER.VDW>
-9.69179

>  <SCORE.INTER.norm>
0.310057

>  <SCORE.INTRA>
-13.9824

>  <SCORE.INTRA.DIHEDRAL>
-25.1299

>  <SCORE.INTRA.DIHEDRAL.0>
25.6828

>  <SCORE.INTRA.POLAR>
0

>  <SCORE.INTRA.POLAR.0>
0

>  <SCORE.INTRA.REPUL>
0

>  <SCORE.INTRA.REPUL.0>
0

>  <SCORE.INTRA.SOLV>
-0.642455

>  <SCORE.INTRA.SOLV.lig_0>
-48.5059

>  <SCORE.INTRA.VDW>
-1.0962

>  <SCORE.INTRA.VDW.0>
-0.363643

>  <SCORE.INTRA.norm>
-1.07557

>  <SCORE.RESTR>
0

>  <SCORE.RESTR.CAVITY>
0

>  <SCORE.RESTR.norm>
0

>  <SCORE.SYSTEM>
0

>  <SCORE.SYSTEM.CONST>
0

>  <SCORE.SYSTEM.DIHEDRAL>
0

>  <SCORE.SYSTEM.SOLV>
0

>  <SCORE.SYSTEM.norm>
0

>  <SCORE.heavy>
13

>  <SCORE.norm>
-0.765512

>  <RMSD>
5.484

$$$$
ligand
 OpenBabel11021811453D
libRbt.so/2013.1/901 2013/11/27
 13 12  0  0  0  0  0  0  0  0999 V2000
   30.0473   32.8924   44.1987 O   0  0  0  0  0  0  0  0  0  0  0  0
   31.0087   32.6491   47.0228 O   0  0  0  0  0  0  0  0  0  0  0  0
   29.3343   37.3181   44.6596 P   0  0  2  0  0  0  0  0  0  0  0  0
   30.6768   37.0587   45.2559 O   0  5  0  0  0  0  0  0  0  0  0  0
   28.6030   38.5580   45.0267 O   0  0  0  0  0  0  0  0  0  0  0  0
   28.3824   36.0924   44.9898 O   0  0  0  0  0  0  0  0  0  0  0  0
   31.9192   34.0922   49.2741 O   0  0  0  0  0  0  0  0  0  0  0  0
   28.5651   34.8211   44.3499 C   0  0  0  0  0  0  0  0  0  0  0  0
   31.1474   31.6119   46.0182 C   0  0  0  0  0  0  0  0  0  0  0  0
   30.7549   33.2844   49.3698 C   0  0  0  0  0  0  0  0  0  0  0  0
   29.8666   34.1672   44.8442 C   0  0  0  0  0  0  0  0  0  0  0  0
   31.2665   32.2030   44.5919 C   0  0  0  0  0  0  0  0  0  0  0  0
   30.8943   32.1254   48.3667 C   0  0  0  0  0  0  0  0  0  0  0  0
  1 12  1  0  0  0  0
  1 11  1  0  0  0  0
  2 13  1  0  0  0  0
  2  9  1  0  0  0  0
  3  4  1  1  0  0  0
  3  5  2  0  0  0  0
  3  6  1  0  0  0  0
  6  8  1  0  0  0  0
  7 10  1  0  0  0  0
  8 11  1  0  0  0  0
  9 12  1  0  0  0  0
 10 13  1  0  0  0  0
M  CHG  1   4  -1
M  END
>  <CHROM.1>
74.19319808,179.85678211,-71.56872218,69.05080131,-179.93251727,179.96165332
-64.80133493,-60.61814285,179.25253321,30.11639393,34.65875239,45.88815458
0.32219603,1.18844201,-2.46034503

>  <Name>
ligand

>  <RI>
0

>  <Rbt.Current_Directory>
/home/itssahil/PROJECTS/Mol_Feturizer/New_Systems/rnas/2NPY

>  <Rbt.Executable>
rbdock ($Id: //depot/dev/client3/rdock/2013.1/src/exe/rbdock.cxx#4 $)

>  <Rbt.Library>
libRbt.so (2013.1, Build901 2013/11/27)

>  <Rbt.Parameter_File>
/export/apps/rDock/src/rDock_2013.1_src/data/scripts/dock_solv.prm

>  <Rbt.Receptor>
prm/pocket_docking_3.prm

>  <SCORE>
-4.37034

>  <SCORE.INTER>
7.50802

>  <SCORE.INTER.CONST>
1

>  <SCORE.INTER.POLAR>
0

>  <SCORE.INTER.ROT>
9

>  <SCORE.INTER.SOLV>
3.1427

>  <SCORE.INTER.VDW>
-5.64222

>  <SCORE.INTER.norm>
0.57754

>  <SCORE.INTRA>
-11.8784

>  <SCORE.INTRA.DIHEDRAL>
-23.9382

>  <SCORE.INTRA.DIHEDRAL.0>
25.6828

>  <SCORE.INTRA.POLAR>
0

>  <SCORE.INTRA.POLAR.0>
0

>  <SCORE.INTRA.REPUL>
0

>  <SCORE.INTRA.REPUL.0>
0

>  <SCORE.INTRA.SOLV>
0.438596

>  <SCORE.INTRA.SOLV.lig_0>
-48.5059

>  <SCORE.INTRA.VDW>
-0.128574

>  <SCORE.INTRA.VDW.0>
-0.363643

>  <SCORE.INTRA.norm>
-0.91372

>  <SCORE.RESTR>
0

>  <SCORE.RESTR.CAVITY>
0

>  <SCORE.RESTR.norm>
0

>  <SCORE.SYSTEM>
0

>  <SCORE.SYSTEM.CONST>
0

>  <SCORE.SYSTEM.DIHEDRAL>
0

>  <SCORE.SYSTEM.SOLV>
0

>  <SCORE.SYSTEM.norm>
0

>  <SCORE.heavy>
13

>  <SCORE.norm>
-0.33618

>  <RMSD>
5.502

$$$$
ligand
 OpenBabel11021811453D
libRbt.so/2013.1/901 2013/11/27
 13 12  0  0  0  0  0  0  0  0999 V2000
   31.4480   33.8528   45.0665 O   0  0  0  0  0  0  0  0  0  0  0  0
   33.3532   32.6704   47.2514 O   0  0  0  0  0  0  0  0  0  0  0  0
   29.9508   37.7708   46.6264 P   0  0  2  0  0  0  0  0  0  0  0  0
   30.2631   38.0404   48.0600 O   0  5  0  0  0  0  0  0  0  0  0  0
   28.5452   37.5043   46.2262 O   0  0  0  0  0  0  0  0  0  0  0  0
   30.8238   36.5404   46.1353 O   0  0  0  0  0  0  0  0  0  0  0  0
   30.9174   32.0027   48.4700 O   0  0  0  0  0  0  0  0  0  0  0  0
   30.9172   36.2093   44.7422 C   0  0  0  0  0  0  0  0  0  0  0  0
   33.6282   32.9701   45.8590 C   0  0  0  0  0  0  0  0  0  0  0  0
   31.0537   33.2640   47.8314 C   0  0  0  0  0  0  0  0  0  0  0  0
   31.9548   35.0926   44.5368 C   0  0  0  0  0  0  0  0  0  0  0  0
   32.3846   32.7444   44.9643 C   0  0  0  0  0  0  0  0  0  0  0  0
   32.5356   33.6745   47.8970 C   0  0  0  0  0  0  0  0  0  0  0  0
  1 12  1  0  0  0  0
  1 11  1  0  0  0  0
  2 13  1  0  0  0  0
  2  9  1  0  0  0  0
  3  4  1  1  0  0  0
  3  5  2  0  0  0  0
  3  6  1  0  0  0  0
  6  8  1  0  0  0  0
  7 10  1  0  0  0  0
  8 11  1  0  0  0  0
  9 12  1  0  0  0  0
 10 13  1  0  0  0  0
M  CHG  1   4  -1
M  END
>  <CHROM.1>
66.25195559,94.20564288,-168.47899464,173.10682154,70.39901482,-73.62258717
78.78310836,58.51914758,-177.73861659,31.22699833,35.05117035,46.47541427
-0.47961999,1.00009656,-1.05078548

>  <Name>
ligand

>  <RI>
0

>  <Rbt.Current_Directory>
/home/itssahil/PROJECTS/Mol_Feturizer/New_Systems/rnas/2NPY

>  <Rbt.Executable>
rbdock ($Id: //depot/dev/client3/rdock/2013.1/src/exe/rbdock.cxx#4 $)

>  <Rbt.Library>
libRbt.so (2013.1, Build901 2013/11/27)

>  <Rbt.Parameter_File>
/export/apps/rDock/src/rDock_2013.1_src/data/scripts/dock_solv.prm

>  <Rbt.Receptor>
prm/pocket_docking_2.prm

>  <SCORE>
2.65595

>  <SCORE.INTER>
11.5353

>  <SCORE.INTER.CONST>
1

>  <SCORE.INTER.POLAR>
0

>  <SCORE.INTER.ROT>
9

>  <SCORE.INTER.SOLV>
5.67391

>  <SCORE.INTER.VDW>
-3.80108

>  <SCORE.INTER.norm>
0.887333

>  <SCORE.INTRA>
-8.87938

>  <SCORE.INTRA.DIHEDRAL>
-18.2612

>  <SCORE.INTRA.DIHEDRAL.0>
25.6828

>  <SCORE.INTRA.POLAR>
0

>  <SCORE.INTRA.POLAR.0>
0

>  <SCORE.INTRA.REPUL>
0

>  <SCORE.INTRA.REPUL.0>
0

>  <SCORE.INTRA.SOLV>
-0.547869

>  <SCORE.INTRA.SOLV.lig_0>
-48.5059

>  <SCORE.INTRA.VDW>
0.525179

>  <SCORE.INTRA.VDW.0>
-0.363643

>  <SCORE.INTRA.norm>
-0.683029

>  <SCORE.RESTR>
0

>  <SCORE.RESTR.CAVITY>
0

>  <SCORE.RESTR.norm>
0

>  <SCORE.SYSTEM>
0

>  <SCORE.SYSTEM.CONST>
0

>  <SCORE.SYSTEM.DIHEDRAL>
0

>  <SCORE.SYSTEM.SOLV>
0

>  <SCORE.SYSTEM.norm>
0

>  <SCORE.heavy>
13

>  <SCORE.norm>
0.204304

>  <RMSD>
5.530

$$$$
ligand
 OpenBabel11021811453D
libRbt.so/2013.1/901 2013/11/27
 13 12  0  0  0  0  0  0  0  0999 V2000
   30.2433   33.3034   45.5012 O   0  0  0  0  0  0  0  0  0  0  0  0
   32.9618   32.9749   46.3376 O   0  0  0  0  0  0  0  0  0  0  0  0
   29.7109   37.4377   46.6980 P   0  0  2  0  0  0  0  0  0  0  0  0
   30.4791   38.0632   45.5827 O   0  5  0  0  0  0  0  0  0  0  0  0
   30.2185   37.5603   48.0888 O   0  0  0  0  0  0  0  0  0  0  0  0
   29.5349   35.8906   46.3934 O   0  0  0  0  0  0  0  0  0  0  0  0
   32.3270   33.9095   48.9823 O   0  0  0  0  0  0  0  0  0  0  0  0
   29.1320   35.4340   45.0942 C   0  0  0  0  0  0  0  0  0  0  0  0
   32.5902   32.7018   44.9622 C   0  0  0  0  0  0  0  0  0  0  0  0
   32.6504   32.5506   48.7250 C   0  0  0  0  0  0  0  0  0  0  0  0
   28.9977   33.9017   45.0949 C   0  0  0  0  0  0  0  0  0  0  0  0
   31.3217   33.4839   44.5416 C   0  0  0  0  0  0  0  0  0  0  0  0
   32.1902   32.2130   47.2956 C   0  0  0  0  0  0  0  0  0  0  0  0
  1 12  1  0  0  0  0
  1 11  1  0  0  0  0
  2 13  1  0  0  0  0
  2  9  1  0  0  0  0
  3  4  1  6  0  0  0
  3  5  2  0  0  0  0
  3  6  1  0  0  0  0
  6  8  1  0  0  0  0
  7 10  1  0  0  0  0
  8 11  1  0  0  0  0
  9 12  1  0  0  0  0
 10 13  1  0  0  0  0
M  CHG  1   4  -1
M  END
>  <CHROM.1>
-174.26137951,179.57381108,-45.84992904,-178.18398216,-57.01845691,80.77434801
-50.61752931,65.70313242,-67.80948229,30.85165212,34.84118395,46.45361087
0.62478998,0.92828085,-2.38634963

>  <Name>
ligand

>  <RI>
0

>  <Rbt.Current_Directory>
/home/itssahil/PROJECTS/Mol_Feturizer/New_Systems/rnas/2NPY

>  <Rbt.Executable>
rbdock ($Id: //depot/dev/client3/rdock/2013.1/src/exe/rbdock.cxx#4 $)

>  <Rbt.Library>
libRbt.so (2013.1, Build901 2013/11/27)

>  <Rbt.Parameter_File>
/export/apps/rDock/src/rDock_2013.1_src/data/scripts/dock_solv.prm

>  <Rbt.Receptor>
prm/pocket_docking_2.prm

>  <SCORE>
-2.02278

>  <SCORE.INTER>
9.37096

>  <SCORE.INTER.CONST>
1

>  <SCORE.INTER.POLAR>
0

>  <SCORE.INTER.ROT>
9

>  <SCORE.INTER.SOLV>
7.07787

>  <SCORE.INTER.VDW>
-5.71198

>  <SCORE.INTER.norm>
0.720843

>  <SCORE.INTRA>
-11.3947

>  <SCORE.INTRA.DIHEDRAL>
-22.6851

>  <SCORE.INTRA.DIHEDRAL.0>
25.6828

>  <SCORE.INTRA.POLAR>
0

>  <SCORE.INTRA.POLAR.0>
0

>  <SCORE.INTRA.REPUL>
0

>  <SCORE.INTRA.REPUL.0>
0

>  <SCORE.INTRA.SOLV>
-0.594779

>  <SCORE.INTRA.SOLV.lig_0>
-48.5059

>  <SCORE.INTRA.VDW>
0.245205

>  <SCORE.INTRA.VDW.0>
-0.363643

>  <SCORE.INTRA.norm>
-0.876516

>  <SCORE.RESTR>
0.000975042

>  <SCORE.RESTR.CAVITY>
0.000975042

>  <SCORE.RESTR.norm>
7.50032e-05

>  <SCORE.SYSTEM>
0

>  <SCORE.SYSTEM.CONST>
0

>  <SCORE.SYSTEM.DIHEDRAL>
0

>  <SCORE.SYSTEM.SOLV>
0

>  <SCORE.SYSTEM.norm>
0

>  <SCORE.heavy>
13

>  <SCORE.norm>
-0.155598

>  <RMSD>
5.536

$$$$
ligand
 OpenBabel11021811453D
libRbt.so/2013.1/901 2013/11/27
 13 12  0  0  0  0  0  0  0  0999 V2000
   36.2128   30.5722   48.2175 O   0  0  0  0  0  0  0  0  0  0  0  0
   33.6729   31.8306   48.7418 O   0  0  0  0  0  0  0  0  0  0  0  0
   37.0839   30.3616   43.9354 P   0  0  2  0  0  0  0  0  0  0  0  0
   38.4943   30.2348   43.4665 O   0  5  0  0  0  0  0  0  0  0  0  0
   36.1762   31.3230   43.2581 O   0  0  0  0  0  0  0  0  0  0  0  0
   37.0891   30.7240   45.4801 O   0  0  0  0  0  0  0  0  0  0  0  0
   30.0791   32.2137   48.1131 O   0  0  0  0  0  0  0  0  0  0  0  0
   37.7216   29.8643   46.4391 C   0  0  0  0  0  0  0  0  0  0  0  0
   34.4848   31.3248   49.8324 C   0  0  0  0  0  0  0  0  0  0  0  0
   31.4620   32.2648   47.7932 C   0  0  0  0  0  0  0  0  0  0  0  0
   37.6011   30.4709   47.8474 C   0  0  0  0  0  0  0  0  0  0  0  0
   35.9882   31.2890   49.4633 C   0  0  0  0  0  0  0  0  0  0  0  0
   32.2543   31.7860   49.0228 C   0  0  0  0  0  0  0  0  0  0  0  0
  1 12  1  0  0  0  0
  1 11  1  0  0  0  0
  2 13  1  0  0  0  0
  2  9  1  0  0  0  0
  3  4  1  6  0  0  0
  3  5  2  0  0  0  0
  3  6  1  0  0  0  0
  6  8  1  0  0  0  0
  7 10  1  0  0  0  0
  8 11  1  0  0  0  0
  9 12  1  0  0  0  0
 10 13  1  0  0  0  0
M  CHG  1   4  -1
M  END
>  <CHROM.1>
-178.11745183,-176.90258449,-58.51073625,178.80572037,62.33105493,175.84440423
-52.85820524,-179.63967526,-172.67584786,35.40397168,31.04083113,46.75046196
-2.46577557,0.27377818,-1.56882643

>  <Name>
ligand

>  <RI>
0

>  <Rbt.Current_Directory>
/home/itssahil/PROJECTS/Mol_Feturizer/New_Systems/rnas/2NPY

>  <Rbt.Executable>
rbdock ($Id: //depot/dev/client3/rdock/2013.1/src/exe/rbdock.cxx#4 $)

>  <Rbt.Library>
libRbt.so (2013.1, Build901 2013/11/27)

>  <Rbt.Parameter_File>
/export/apps/rDock/src/rDock_2013.1_src/data/scripts/dock_solv.prm

>  <Rbt.Receptor>
prm/pocket_docking_5.prm

>  <SCORE>
-13.1442

>  <SCORE.INTER>
1.10677

>  <SCORE.INTER.CONST>
1

>  <SCORE.INTER.POLAR>
0

>  <SCORE.INTER.ROT>
9

>  <SCORE.INTER.SOLV>
12.3461

>  <SCORE.INTER.VDW>
-12.9775

>  <SCORE.INTER.norm>
0.0851359

>  <SCORE.INTRA>
-14.251

>  <SCORE.INTRA.DIHEDRAL>
-25.0091

>  <SCORE.INTRA.DIHEDRAL.0>
25.6828

>  <SCORE.INTRA.POLAR>
0

>  <SCORE.INTRA.POLAR.0>
0

>  <SCORE.INTRA.REPUL>
0

>  <SCORE.INTRA.REPUL.0>
0

>  <SCORE.INTRA.SOLV>
-1.31051

>  <SCORE.INTRA.SOLV.lig_0>
-48.5059

>  <SCORE.INTRA.VDW>
-1.0912

>  <SCORE.INTRA.VDW.0>
-0.363643

>  <SCORE.INTRA.norm>
-1.09623

>  <SCORE.RESTR>
0

>  <SCORE.RESTR.CAVITY>
0

>  <SCORE.RESTR.norm>
0

>  <SCORE.SYSTEM>
0

>  <SCORE.SYSTEM.CONST>
0

>  <SCORE.SYSTEM.DIHEDRAL>
0

>  <SCORE.SYSTEM.SOLV>
0

>  <SCORE.SYSTEM.norm>
0

>  <SCORE.heavy>
13

>  <SCORE.norm>
-1.01109

>  <RMSD>
5.536

$$$$
ligand
 OpenBabel11021811453D
libRbt.so/2013.1/901 2013/11/27
 13 12  0  0  0  0  0  0  0  0999 V2000
   30.3990   33.4971   44.8984 O   0  0  0  0  0  0  0  0  0  0  0  0
   32.8492   32.7078   46.3630 O   0  0  0  0  0  0  0  0  0  0  0  0
   30.0684   36.8828   47.5315 P   0  0  2  0  0  0  0  0  0  0  0  0
   29.2160   38.0664   47.2186 O   0  5  0  0  0  0  0  0  0  0  0  0
   31.5465   37.0119   47.4590 O   0  0  0  0  0  0  0  0  0  0  0  0
   29.6508   35.6853   46.5782 O   0  0  0  0  0  0  0  0  0  0  0  0
   31.9344   33.3764   48.9723 O   0  0  0  0  0  0  0  0  0  0  0  0
   29.7101   35.8212   45.1510 C   0  0  0  0  0  0  0  0  0  0  0  0
   32.7551   32.7169   44.9155 C   0  0  0  0  0  0  0  0  0  0  0  0
   31.9348   32.0279   48.5260 C   0  0  0  0  0  0  0  0  0  0  0  0
   29.4188   34.4669   44.4824 C   0  0  0  0  0  0  0  0  0  0  0  0
   31.7414   33.7728   44.4103 C   0  0  0  0  0  0  0  0  0  0  0  0
   31.7401   32.0305   46.9993 C   0  0  0  0  0  0  0  0  0  0  0  0
  1 12  1  0  0  0  0
  1 11  1  0  0  0  0
  2 13  1  0  0  0  0
  2  9  1  0  0  0  0
  3  4  1  6  0  0  0
  3  5  2  0  0  0  0
  3  6  1  0  0  0  0
  6  8  1  0  0  0  0
  7 10  1  0  0  0  0
  8 11  1  0  0  0  0
  9 12  1  0  0  0  0
 10 13  1  0  0  0  0
M  CHG  1   4  -1
M  END
>  <CHROM.1>
178.69440826,178.33114200,58.29117959,173.10910917,-60.28740211,77.47969108
-61.50685457,62.60378332,-67.29167485,30.91910293,34.69353424,46.53999935
0.53017438,1.02424865,-2.05886560

>  <Name>
ligand

>  <RI>
0

>  <Rbt.Current_Directory>
/home/itssahil/PROJECTS/Mol_Feturizer/New_Systems/rnas/2NPY

>  <Rbt.Executable>
rbdock ($Id: //depot/dev/client3/rdock/2013.1/src/exe/rbdock.cxx#4 $)

>  <Rbt.Library>
libRbt.so (2013.1, Build901 2013/11/27)

>  <Rbt.Parameter_File>
/export/apps/rDock/src/rDock_2013.1_src/data/scripts/dock_solv.prm

>  <Rbt.Receptor>
prm/pocket_docking_2.prm

>  <SCORE>
-2.27379

>  <SCORE.INTER>
9.44125

>  <SCORE.INTER.CONST>
1

>  <SCORE.INTER.POLAR>
0

>  <SCORE.INTER.ROT>
9

>  <SCORE.INTER.SOLV>
7.65248

>  <SCORE.INTER.VDW>
-5.85666

>  <SCORE.INTER.norm>
0.72625

>  <SCORE.INTRA>
-11.7166

>  <SCORE.INTRA.DIHEDRAL>
-23.6506

>  <SCORE.INTRA.DIHEDRAL.0>
25.6828

>  <SCORE.INTRA.POLAR>
0

>  <SCORE.INTRA.POLAR.0>
0

>  <SCORE.INTRA.REPUL>
0

>  <SCORE.INTRA.REPUL.0>
0

>  <SCORE.INTRA.SOLV>
0.444834

>  <SCORE.INTRA.SOLV.lig_0>
-48.5059

>  <SCORE.INTRA.VDW>
-0.113718

>  <SCORE.INTRA.VDW.0>
-0.363643

>  <SCORE.INTRA.norm>
-0.901275

>  <SCORE.RESTR>
0.00154564

>  <SCORE.RESTR.CAVITY>
0.00154564

>  <SCORE.RESTR.norm>
0.000118895

>  <SCORE.SYSTEM>
0

>  <SCORE.SYSTEM.CONST>
0

>  <SCORE.SYSTEM.DIHEDRAL>
0

>  <SCORE.SYSTEM.SOLV>
0

>  <SCORE.SYSTEM.norm>
0

>  <SCORE.heavy>
13

>  <SCORE.norm>
-0.174907

>  <RMSD>
5.543

$$$$
ligand
 OpenBabel11021811453D
libRbt.so/2013.1/901 2013/11/27
 13 12  0  0  0  0  0  0  0  0999 V2000
   31.1541   34.2083   45.3132 O   0  0  0  0  0  0  0  0  0  0  0  0
   33.3481   33.4616   46.8814 O   0  0  0  0  0  0  0  0  0  0  0  0
   29.5048   37.3666   45.1193 P   0  0  2  0  0  0  0  0  0  0  0  0
   30.8064   37.2071   44.4080 O   0  5  0  0  0  0  0  0  0  0  0  0
   29.2902   38.5546   45.9850 O   0  0  0  0  0  0  0  0  0  0  0  0
   29.2477   36.0793   46.0103 O   0  0  0  0  0  0  0  0  0  0  0  0
   31.6790   33.0887   49.1282 O   0  0  0  0  0  0  0  0  0  0  0  0
   28.8049   34.8484   45.4207 C   0  0  0  0  0  0  0  0  0  0  0  0
   33.5488   33.5699   45.4489 C   0  0  0  0  0  0  0  0  0  0  0  0
   32.6764   32.1268   48.8163 C   0  0  0  0  0  0  0  0  0  0  0  0
   29.9276   34.2456   44.5592 C   0  0  0  0  0  0  0  0  0  0  0  0
   32.2161   33.4506   44.6694 C   0  0  0  0  0  0  0  0  0  0  0  0
   32.9011   32.1487   47.2939 C   0  0  0  0  0  0  0  0  0  0  0  0
  1 12  1  0  0  0  0
  1 11  1  0  0  0  0
  2 13  1  0  0  0  0
  2  9  1  0  0  0  0
  3  4  1  1  0  0  0
  3  5  2  0  0  0  0
  3  6  1  0  0  0  0
  6  8  1  0  0  0  0
  7 10  1  0  0  0  0
  8 11  1  0  0  0  0
  9 12  1  0  0  0  0
 10 13  1  0  0  0  0
M  CHG  1   4  -1
M  END
>  <CHROM.1>
173.98466865,-178.50798362,-76.85553698,68.85164849,49.78303990,66.66756775
42.67145287,60.48822619,170.12075523,31.01541997,34.90573572,46.01545415
-0.63483538,0.83196509,-1.24718976

>  <Name>
ligand

>  <RI>
0

>  <Rbt.Current_Directory>
/home/itssahil/PROJECTS/Mol_Feturizer/New_Systems/rnas/2NPY

>  <Rbt.Executable>
rbdock ($Id: //depot/dev/client3/rdock/2013.1/src/exe/rbdock.cxx#4 $)

>  <Rbt.Library>
libRbt.so (2013.1, Build901 2013/11/27)

>  <Rbt.Parameter_File>
/export/apps/rDock/src/rDock_2013.1_src/data/scripts/dock_solv.prm

>  <Rbt.Receptor>
prm/pocket_docking_2.prm

>  <SCORE>
-0.465901

>  <SCORE.INTER>
10.2059

>  <SCORE.INTER.CONST>
1

>  <SCORE.INTER.POLAR>
0

>  <SCORE.INTER.ROT>
9

>  <SCORE.INTER.SOLV>
3.88792

>  <SCORE.INTER.VDW>
-4.09201

>  <SCORE.INTER.norm>
0.785072

>  <SCORE.INTRA>
-10.6718

>  <SCORE.INTRA.DIHEDRAL>
-22.4917

>  <SCORE.INTRA.DIHEDRAL.0>
25.6828

>  <SCORE.INTRA.POLAR>
0

>  <SCORE.INTRA.POLAR.0>
0

>  <SCORE.INTRA.REPUL>
0

>  <SCORE.INTRA.REPUL.0>
0

>  <SCORE.INTRA.SOLV>
2.15166

>  <SCORE.INTRA.SOLV.lig_0>
-48.5059

>  <SCORE.INTRA.VDW>
-0.501835

>  <SCORE.INTRA.VDW.0>
-0.363643

>  <SCORE.INTRA.norm>
-0.820911

>  <SCORE.RESTR>
0

>  <SCORE.RESTR.CAVITY>
0

>  <SCORE.RESTR.norm>
0

>  <SCORE.SYSTEM>
0

>  <SCORE.SYSTEM.CONST>
0

>  <SCORE.SYSTEM.DIHEDRAL>
0

>  <SCORE.SYSTEM.SOLV>
0

>  <SCORE.SYSTEM.norm>
0

>  <SCORE.heavy>
13

>  <SCORE.norm>
-0.0358386

>  <RMSD>
5.548

$$$$
ligand
 OpenBabel11021811453D
libRbt.so/2013.1/901 2013/11/27
 13 12  0  0  0  0  0  0  0  0999 V2000
   29.9049   33.6473   45.8694 O   0  0  0  0  0  0  0  0  0  0  0  0
   31.2106   32.5907   48.3966 O   0  0  0  0  0  0  0  0  0  0  0  0
   30.3724   36.4429   46.6002 P   0  0  2  0  0  0  0  0  0  0  0  0
   29.8303   37.0656   47.8427 O   0  5  0  0  0  0  0  0  0  0  0  0
   31.6052   36.9996   45.9862 O   0  0  0  0  0  0  0  0  0  0  0  0
   29.2422   36.4554   45.4867 O   0  0  0  0  0  0  0  0  0  0  0  0
   33.6784   32.2919   46.7839 O   0  0  0  0  0  0  0  0  0  0  0  0
   29.2422   35.4931   44.4224 C   0  0  0  0  0  0  0  0  0  0  0  0
   30.8415   31.8003   47.2376 C   0  0  0  0  0  0  0  0  0  0  0  0
   33.5870   33.0109   48.0054 C   0  0  0  0  0  0  0  0  0  0  0  0
   28.8756   34.1038   44.9713 C   0  0  0  0  0  0  0  0  0  0  0  0
   29.6002   32.3802   46.5160 C   0  0  0  0  0  0  0  0  0  0  0  0
   32.1778   33.6235   48.0942 C   0  0  0  0  0  0  0  0  0  0  0  0
  1 12  1  0  0  0  0
  1 11  1  0  0  0  0
  2 13  1  0  0  0  0
  2  9  1  0  0  0  0
  3  4  1  1  0  0  0
  3  5  2  0  0  0  0
  3  6  1  0  0  0  0
  6  8  1  0  0  0  0
  7 10  1  0  0  0  0
  8 11  1  0  0  0  0
  9 12  1  0  0  0  0
 10 13  1  0  0  0  0
M  CHG  1   4  -1
M  END
>  <CHROM.1>
168.53478583,-79.12369264,-154.40164087,70.90234465,-65.59749784,-91.69120760
69.05927001,74.16756870,175.78837935,30.75654272,34.50273354,46.63457988
2.22510143,-0.58788025,0.01134235

>  <Name>
ligand

>  <RI>
0

>  <Rbt.Current_Directory>
/home/itssahil/PROJECTS/Mol_Feturizer/New_Systems/rnas/2NPY

>  <Rbt.Executable>
rbdock ($Id: //depot/dev/client3/rdock/2013.1/src/exe/rbdock.cxx#4 $)

>  <Rbt.Library>
libRbt.so (2013.1, Build901 2013/11/27)

>  <Rbt.Parameter_File>
/export/apps/rDock/src/rDock_2013.1_src/data/scripts/dock_solv.prm

>  <Rbt.Receptor>
prm/pocket_docking_2.prm

>  <SCORE>
2.00572

>  <SCORE.INTER>
9.25669

>  <SCORE.INTER.CONST>
1

>  <SCORE.INTER.POLAR>
0

>  <SCORE.INTER.ROT>
9

>  <SCORE.INTER.SOLV>
6.53815

>  <SCORE.INTER.VDW>
-5.60825

>  <SCORE.INTER.norm>
0.712053

>  <SCORE.INTRA>
-7.32982

>  <SCORE.INTRA.DIHEDRAL>
-17.2417

>  <SCORE.INTRA.DIHEDRAL.0>
25.6828

>  <SCORE.INTRA.POLAR>
0

>  <SCORE.INTRA.POLAR.0>
0

>  <SCORE.INTRA.REPUL>
0

>  <SCORE.INTRA.REPUL.0>
0

>  <SCORE.INTRA.SOLV>
4.30196

>  <SCORE.INTRA.SOLV.lig_0>
-48.5059

>  <SCORE.INTRA.VDW>
-0.859967

>  <SCORE.INTRA.VDW.0>
-0.363643

>  <SCORE.INTRA.norm>
-0.563832

>  <SCORE.RESTR>
0.0788483

>  <SCORE.RESTR.CAVITY>
0.0788483

>  <SCORE.RESTR.norm>
0.00606526

>  <SCORE.SYSTEM>
0

>  <SCORE.SYSTEM.CONST>
0

>  <SCORE.SYSTEM.DIHEDRAL>
0

>  <SCORE.SYSTEM.SOLV>
0

>  <SCORE.SYSTEM.norm>
0

>  <SCORE.heavy>
13

>  <SCORE.norm>
0.154287

>  <RMSD>
5.559

$$$$
ligand
 OpenBabel11021811453D
libRbt.so/2013.1/901 2013/11/27
 13 12  0  0  0  0  0  0  0  0999 V2000
   30.4153   34.0004   45.2609 O   0  0  0  0  0  0  0  0  0  0  0  0
   31.9454   31.9027   46.6334 O   0  0  0  0  0  0  0  0  0  0  0  0
   30.6328   37.2259   47.6562 P   0  0  2  0  0  0  0  0  0  0  0  0
   30.4550   36.0320   48.5328 O   0  5  0  0  0  0  0  0  0  0  0  0
   29.5802   38.2739   47.6329 O   0  0  0  0  0  0  0  0  0  0  0  0
   30.8459   36.7363   46.1622 O   0  0  0  0  0  0  0  0  0  0  0  0
   33.0960   33.4936   48.6495 O   0  0  0  0  0  0  0  0  0  0  0  0
   29.7329   36.3385   45.3485 C   0  0  0  0  0  0  0  0  0  0  0  0
   31.2024   31.6514   45.4131 C   0  0  0  0  0  0  0  0  0  0  0  0
   31.9781   32.6718   48.9538 C   0  0  0  0  0  0  0  0  0  0  0  0
   30.1359   35.1572   44.4496 C   0  0  0  0  0  0  0  0  0  0  0  0
   31.0792   32.9248   44.5407 C   0  0  0  0  0  0  0  0  0  0  0  0
   31.1417   32.5103   47.6719 C   0  0  0  0  0  0  0  0  0  0  0  0
  1 12  1  0  0  0  0
  1 11  1  0  0  0  0
  2 13  1  0  0  0  0
  2  9  1  0  0  0  0
  3  4  1  1  0  0  0
  3  5  2  0  0  0  0
  3  6  1  0  0  0  0
  6  8  1  0  0  0  0
  7 10  1  0  0  0  0
  8 11  1  0  0  0  0
  9 12  1  0  0  0  0
 10 13  1  0  0  0  0
M  CHG  1   4  -1
M  END
>  <CHROM.1>
-173.26541826,176.87063619,79.54623902,-143.39652460,65.79302303,81.17024748
-58.85619276,59.53013826,-167.36559966,30.92323592,34.77874011,46.78880145
0.86153838,1.12447806,-2.37640700

>  <Name>
ligand

>  <RI>
0

>  <Rbt.Current_Directory>
/home/itssahil/PROJECTS/Mol_Feturizer/New_Systems/rnas/2NPY

>  <Rbt.Executable>
rbdock ($Id: //depot/dev/client3/rdock/2013.1/src/exe/rbdock.cxx#4 $)

>  <Rbt.Library>
libRbt.so (2013.1, Build901 2013/11/27)

>  <Rbt.Parameter_File>
/export/apps/rDock/src/rDock_2013.1_src/data/scripts/dock_solv.prm

>  <Rbt.Receptor>
prm/pocket_docking_2.prm

>  <SCORE>
0.544584

>  <SCORE.INTER>
9.73232

>  <SCORE.INTER.CONST>
1

>  <SCORE.INTER.POLAR>
0

>  <SCORE.INTER.ROT>
9

>  <SCORE.INTER.SOLV>
7.11116

>  <SCORE.INTER.VDW>
-5.48218

>  <SCORE.INTER.norm>
0.74864

>  <SCORE.INTRA>
-9.19188

>  <SCORE.INTRA.DIHEDRAL>
-17.4706

>  <SCORE.INTRA.DIHEDRAL.0>
25.6828

>  <SCORE.INTRA.POLAR>
0

>  <SCORE.INTRA.POLAR.0>
0

>  <SCORE.INTRA.REPUL>
0

>  <SCORE.INTRA.REPUL.0>
0

>  <SCORE.INTRA.SOLV>
1.8092

>  <SCORE.INTRA.SOLV.lig_0>
-48.5059

>  <SCORE.INTRA.VDW>
-1.36116

>  <SCORE.INTRA.VDW.0>
-0.363643

>  <SCORE.INTRA.norm>
-0.707067

>  <SCORE.RESTR>
0.00414386

>  <SCORE.RESTR.CAVITY>
0.00414386

>  <SCORE.RESTR.norm>
0.000318758

>  <SCORE.SYSTEM>
0

>  <SCORE.SYSTEM.CONST>
0

>  <SCORE.SYSTEM.DIHEDRAL>
0

>  <SCORE.SYSTEM.SOLV>
0

>  <SCORE.SYSTEM.norm>
0

>  <SCORE.heavy>
13

>  <SCORE.norm>
0.0418911

>  <RMSD>
5.566

$$$$
ligand
 OpenBabel11021811453D
libRbt.so/2013.1/901 2013/11/27
 13 12  0  0  0  0  0  0  0  0999 V2000
   31.6771   32.6385   47.1413 O   0  0  0  0  0  0  0  0  0  0  0  0
   34.0330   32.4910   45.3939 O   0  0  0  0  0  0  0  0  0  0  0  0
   28.7083   34.1482   44.3531 P   0  0  2  0  0  0  0  0  0  0  0  0
   29.1851   35.2830   43.5102 O   0  5  0  0  0  0  0  0  0  0  0  0
   27.7672   34.4179   45.4705 O   0  0  0  0  0  0  0  0  0  0  0  0
   29.9673   33.4013   44.9649 O   0  0  0  0  0  0  0  0  0  0  0  0
   32.4788   31.5474   43.1744 O   0  0  0  0  0  0  0  0  0  0  0  0
   29.8250   32.1415   45.6371 C   0  0  0  0  0  0  0  0  0  0  0  0
   34.1093   32.9598   46.7646 C   0  0  0  0  0  0  0  0  0  0  0  0
   33.1891   32.7761   43.1172 C   0  0  0  0  0  0  0  0  0  0  0  0
   31.1874   31.6814   46.1830 C   0  0  0  0  0  0  0  0  0  0  0  0
   33.0050   32.3325   47.6506 C   0  0  0  0  0  0  0  0  0  0  0  0
   33.2503   33.3586   44.5405 C   0  0  0  0  0  0  0  0  0  0  0  0
  1 12  1  0  0  0  0
  1 11  1  0  0  0  0
  2 13  1  0  0  0  0
  2  9  1  0  0  0  0
  3  4  1  1  0  0  0
  3  5  2  0  0  0  0
  3  6  1  0  0  0  0
  6  8  1  0  0  0  0
  7 10  1  0  0  0  0
  8 11  1  0  0  0  0
  9 12  1  0  0  0  0
 10 13  1  0  0  0  0
M  CHG  1   4  -1
M  END
>  <CHROM.1>
88.89007084,-178.61019166,-169.63958791,-177.39071184,61.58380153,93.26845860
-58.85462106,65.04012973,-176.22151623,31.16534716,33.12056479,45.13761554
0.28695164,-0.32244795,1.75160967

>  <Name>
ligand

>  <RI>
0

>  <Rbt.Current_Directory>
/home/itssahil/PROJECTS/Mol_Feturizer/New_Systems/rnas/2NPY

>  <Rbt.Executable>
rbdock ($Id: //depot/dev/client3/rdock/2013.1/src/exe/rbdock.cxx#4 $)

>  <Rbt.Library>
libRbt.so (2013.1, Build901 2013/11/27)

>  <Rbt.Parameter_File>
/export/apps/rDock/src/rDock_2013.1_src/data/scripts/dock_solv.prm

>  <Rbt.Receptor>
prm/pocket_docking_3.prm

>  <SCORE>
-3.257

>  <SCORE.INTER>
7.03881

>  <SCORE.INTER.CONST>
1

>  <SCORE.INTER.POLAR>
0

>  <SCORE.INTER.ROT>
9

>  <SCORE.INTER.SOLV>
7.89794

>  <SCORE.INTER.VDW>
-7.5401

>  <SCORE.INTER.norm>
0.541447

>  <SCORE.INTRA>
-10.2958

>  <SCORE.INTRA.DIHEDRAL>
-17.7981

>  <SCORE.INTRA.DIHEDRAL.0>
25.6828

>  <SCORE.INTRA.POLAR>
0

>  <SCORE.INTRA.POLAR.0>
0

>  <SCORE.INTRA.REPUL>
0

>  <SCORE.INTRA.REPUL.0>
0

>  <SCORE.INTRA.SOLV>
0.0398445

>  <SCORE.INTRA.SOLV.lig_0>
-48.5059

>  <SCORE.INTRA.VDW>
-1.41667

>  <SCORE.INTRA.VDW.0>
-0.363643

>  <SCORE.INTRA.norm>
-0.791986

>  <SCORE.RESTR>
0

>  <SCORE.RESTR.CAVITY>
0

>  <SCORE.RESTR.norm>
0

>  <SCORE.SYSTEM>
0

>  <SCORE.SYSTEM.CONST>
0

>  <SCORE.SYSTEM.DIHEDRAL>
0

>  <SCORE.SYSTEM.SOLV>
0

>  <SCORE.SYSTEM.norm>
0

>  <SCORE.heavy>
13

>  <SCORE.norm>
-0.250538

>  <RMSD>
5.576

$$$$
ligand
 OpenBabel11021811453D
libRbt.so/2013.1/901 2013/11/27
 13 12  0  0  0  0  0  0  0  0999 V2000
   36.4160   30.5128   47.9782 O   0  0  0  0  0  0  0  0  0  0  0  0
   34.0002   31.9553   48.6780 O   0  0  0  0  0  0  0  0  0  0  0  0
   37.1157   30.4232   43.6544 P   0  0  2  0  0  0  0  0  0  0  0  0
   38.5037   30.2247   43.1450 O   0  5  0  0  0  0  0  0  0  0  0  0
   36.2606   31.4736   43.0443 O   0  0  0  0  0  0  0  0  0  0  0  0
   37.1794   30.7116   45.2133 O   0  0  0  0  0  0  0  0  0  0  0  0
   30.4692   32.8879   48.3344 O   0  0  0  0  0  0  0  0  0  0  0  0
   37.8035   29.7833   46.1121 C   0  0  0  0  0  0  0  0  0  0  0  0
   34.8053   31.3032   49.6933 C   0  0  0  0  0  0  0  0  0  0  0  0
   31.8160   32.7388   47.9087 C   0  0  0  0  0  0  0  0  0  0  0  0
   37.7788   30.3428   47.5446 C   0  0  0  0  0  0  0  0  0  0  0  0
   36.2880   31.1822   49.2635 C   0  0  0  0  0  0  0  0  0  0  0  0
   32.6100   32.0894   49.0561 C   0  0  0  0  0  0  0  0  0  0  0  0
  1 12  1  0  0  0  0
  1 11  1  0  0  0  0
  2 13  1  0  0  0  0
  2  9  1  0  0  0  0
  3  4  1  6  0  0  0
  3  5  2  0  0  0  0
  3  6  1  0  0  0  0
  6  8  1  0  0  0  0
  7 10  1  0  0  0  0
  8 11  1  0  0  0  0
  9 12  1  0  0  0  0
 10 13  1  0  0  0  0
M  CHG  1   4  -1
M  END
>  <CHROM.1>
-178.52482313,-177.83454799,-56.90513783,177.40348648,62.03206585,-179.65867118
-54.73737682,-178.30495501,-173.27210874,35.59796312,31.14485808,46.58778046
-2.42847887,0.38273364,-1.52784191

>  <Name>
ligand

>  <RI>
0

>  <Rbt.Current_Directory>
/home/itssahil/PROJECTS/Mol_Feturizer/New_Systems/rnas/2NPY

>  <Rbt.Executable>
rbdock ($Id: //depot/dev/client3/rdock/2013.1/src/exe/rbdock.cxx#4 $)

>  <Rbt.Library>
libRbt.so (2013.1, Build901 2013/11/27)

>  <Rbt.Parameter_File>
/export/apps/rDock/src/rDock_2013.1_src/data/scripts/dock_solv.prm

>  <Rbt.Receptor>
prm/pocket_docking_5.prm

>  <SCORE>
-12.9583

>  <SCORE.INTER>
1.3902

>  <SCORE.INTER.CONST>
1

>  <SCORE.INTER.POLAR>
0

>  <SCORE.INTER.ROT>
9

>  <SCORE.INTER.SOLV>
11.1301

>  <SCORE.INTER.VDW>
-12.3832

>  <SCORE.INTER.norm>
0.106939

>  <SCORE.INTRA>
-14.3485

>  <SCORE.INTRA.DIHEDRAL>
-25.2295

>  <SCORE.INTRA.DIHEDRAL.0>
25.6828

>  <SCORE.INTRA.POLAR>
0

>  <SCORE.INTRA.POLAR.0>
0

>  <SCORE.INTRA.REPUL>
0

>  <SCORE.INTRA.REPUL.0>
0

>  <SCORE.INTRA.SOLV>
-1.30789

>  <SCORE.INTRA.SOLV.lig_0>
-48.5059

>  <SCORE.INTRA.VDW>
-1.07983

>  <SCORE.INTRA.VDW.0>
-0.363643

>  <SCORE.INTRA.norm>
-1.10373

>  <SCORE.RESTR>
0

>  <SCORE.RESTR.CAVITY>
0

>  <SCORE.RESTR.norm>
0

>  <SCORE.SYSTEM>
0

>  <SCORE.SYSTEM.CONST>
0

>  <SCORE.SYSTEM.DIHEDRAL>
0

>  <SCORE.SYSTEM.SOLV>
0

>  <SCORE.SYSTEM.norm>
0

>  <SCORE.heavy>
13

>  <SCORE.norm>
-0.996793

>  <RMSD>
5.583

$$$$
ligand
 OpenBabel11021811453D
libRbt.so/2013.1/901 2013/11/27
 13 12  0  0  0  0  0  0  0  0999 V2000
   36.3401   30.5279   47.9738 O   0  0  0  0  0  0  0  0  0  0  0  0
   33.8324   31.8273   48.5996 O   0  0  0  0  0  0  0  0  0  0  0  0
   37.1044   30.4294   43.6639 P   0  0  2  0  0  0  0  0  0  0  0  0
   38.5005   30.2614   43.1658 O   0  5  0  0  0  0  0  0  0  0  0  0
   36.2225   31.4417   43.0280 O   0  0  0  0  0  0  0  0  0  0  0  0
   37.1506   30.7512   45.2169 O   0  0  0  0  0  0  0  0  0  0  0  0
   30.2397   32.3812   48.1068 O   0  0  0  0  0  0  0  0  0  0  0  0
   37.7970   29.8605   46.1376 C   0  0  0  0  0  0  0  0  0  0  0  0
   34.6581   31.2569   49.6471 C   0  0  0  0  0  0  0  0  0  0  0  0
   31.6131   32.3932   47.7448 C   0  0  0  0  0  0  0  0  0  0  0  0
   37.7173   30.4315   47.5636 C   0  0  0  0  0  0  0  0  0  0  0  0
   36.1524   31.2127   49.2435 C   0  0  0  0  0  0  0  0  0  0  0  0
   32.4223   31.8239   48.9237 C   0  0  0  0  0  0  0  0  0  0  0  0
  1 12  1  0  0  0  0
  1 11  1  0  0  0  0
  2 13  1  0  0  0  0
  2  9  1  0  0  0  0
  3  4  1  6  0  0  0
  3  5  2  0  0  0  0
  3  6  1  0  0  0  0
  6  8  1  0  0  0  0
  7 10  1  0  0  0  0
  8 11  1  0  0  0  0
  9 12  1  0  0  0  0
 10 13  1  0  0  0  0
M  CHG  1   4  -1
M  END
>  <CHROM.1>
-178.70139588,-177.85043874,-56.86645377,178.78598076,62.74639060,177.27715054
-54.00306968,-179.58133886,-172.71267662,35.50587019,31.07154730,46.54514229
-2.44255708,0.30450981,-1.54250377

>  <Name>
ligand

>  <RI>
0

>  <Rbt.Current_Directory>
/home/itssahil/PROJECTS/Mol_Feturizer/New_Systems/rnas/2NPY

>  <Rbt.Executable>
rbdock ($Id: //depot/dev/client3/rdock/2013.1/src/exe/rbdock.cxx#4 $)

>  <Rbt.Library>
libRbt.so (2013.1, Build901 2013/11/27)

>  <Rbt.Parameter_File>
/export/apps/rDock/src/rDock_2013.1_src/data/scripts/dock_solv.prm

>  <Rbt.Receptor>
prm/pocket_docking_8.prm

>  <SCORE>
-12.9692

>  <SCORE.INTER>
1.34258

>  <SCORE.INTER.CONST>
1

>  <SCORE.INTER.POLAR>
0

>  <SCORE.INTER.ROT>
9

>  <SCORE.INTER.SOLV>
11.3658

>  <SCORE.INTER.VDW>
-12.4935

>  <SCORE.INTER.norm>
0.103276

>  <SCORE.INTRA>
-14.3117

>  <SCORE.INTRA.DIHEDRAL>
-25.1511

>  <SCORE.INTRA.DIHEDRAL.0>
25.6828

>  <SCORE.INTRA.POLAR>
0

>  <SCORE.INTRA.POLAR.0>
0

>  <SCORE.INTRA.REPUL>
0

>  <SCORE.INTRA.REPUL.0>
0

>  <SCORE.INTRA.SOLV>
-1.30709

>  <SCORE.INTRA.SOLV.lig_0>
-48.5059

>  <SCORE.INTRA.VDW>
-1.08266

>  <SCORE.INTRA.VDW.0>
-0.363643

>  <SCORE.INTRA.norm>
-1.1009

>  <SCORE.RESTR>
0

>  <SCORE.RESTR.CAVITY>
0

>  <SCORE.RESTR.norm>
0

>  <SCORE.SYSTEM>
0

>  <SCORE.SYSTEM.CONST>
0

>  <SCORE.SYSTEM.DIHEDRAL>
0

>  <SCORE.SYSTEM.SOLV>
0

>  <SCORE.SYSTEM.norm>
0

>  <SCORE.heavy>
13

>  <SCORE.norm>
-0.997627

>  <RMSD>
5.583

$$$$
ligand
 OpenBabel11021811453D
libRbt.so/2013.1/901 2013/11/27
 13 12  0  0  0  0  0  0  0  0999 V2000
   31.1887   34.0969   44.3628 O   0  0  0  0  0  0  0  0  0  0  0  0
   32.8613   33.4585   46.8744 O   0  0  0  0  0  0  0  0  0  0  0  0
   30.1075   37.3049   47.2161 P   0  0  2  0  0  0  0  0  0  0  0  0
   29.4967   37.5319   48.5581 O   0  5  0  0  0  0  0  0  0  0  0  0
   30.4870   38.4747   46.3828 O   0  0  0  0  0  0  0  0  0  0  0  0
   29.1249   36.4075   46.3521 O   0  0  0  0  0  0  0  0  0  0  0  0
   30.9018   33.3365   48.9452 O   0  0  0  0  0  0  0  0  0  0  0  0
   29.5813   35.7442   45.1644 C   0  0  0  0  0  0  0  0  0  0  0  0
   33.2383   33.2631   45.4873 C   0  0  0  0  0  0  0  0  0  0  0  0
   32.0667   32.5250   48.9895 C   0  0  0  0  0  0  0  0  0  0  0  0
   30.5114   34.5779   45.5394 C   0  0  0  0  0  0  0  0  0  0  0  0
   32.0155   32.9236   44.5999 C   0  0  0  0  0  0  0  0  0  0  0  0
   32.4964   32.2277   47.5418 C   0  0  0  0  0  0  0  0  0  0  0  0
  1 12  1  0  0  0  0
  1 11  1  0  0  0  0
  2 13  1  0  0  0  0
  2  9  1  0  0  0  0
  3  4  1  1  0  0  0
  3  5  2  0  0  0  0
  3  6  1  0  0  0  0
  6  8  1  0  0  0  0
  7 10  1  0  0  0  0
  8 11  1  0  0  0  0
  9 12  1  0  0  0  0
 10 13  1  0  0  0  0
M  CHG  1   4  -1
M  END
>  <CHROM.1>
-68.12047612,-178.14442770,-163.79153014,71.60766722,-167.82958109,71.76312118
74.11112940,63.49628654,-175.51140787,30.98182971,35.00809767,46.68119334
-0.01463836,1.06982028,-1.49297096

>  <Name>
ligand

>  <RI>
0

>  <Rbt.Current_Directory>
/home/itssahil/PROJECTS/Mol_Feturizer/New_Systems/rnas/2NPY

>  <Rbt.Executable>
rbdock ($Id: //depot/dev/client3/rdock/2013.1/src/exe/rbdock.cxx#4 $)

>  <Rbt.Library>
libRbt.so (2013.1, Build901 2013/11/27)

>  <Rbt.Parameter_File>
/export/apps/rDock/src/rDock_2013.1_src/data/scripts/dock_solv.prm

>  <Rbt.Receptor>
prm/pocket_docking_2.prm

>  <SCORE>
-0.234925

>  <SCORE.INTER>
10.5194

>  <SCORE.INTER.CONST>
1

>  <SCORE.INTER.POLAR>
0

>  <SCORE.INTER.ROT>
9

>  <SCORE.INTER.SOLV>
7.9145

>  <SCORE.INTER.VDW>
-5.22526

>  <SCORE.INTER.norm>
0.809181

>  <SCORE.INTRA>
-10.7626

>  <SCORE.INTRA.DIHEDRAL>
-22.4786

>  <SCORE.INTRA.DIHEDRAL.0>
25.6828

>  <SCORE.INTRA.POLAR>
0

>  <SCORE.INTRA.POLAR.0>
0

>  <SCORE.INTRA.REPUL>
0

>  <SCORE.INTRA.REPUL.0>
0

>  <SCORE.INTRA.SOLV>
0.434266

>  <SCORE.INTRA.SOLV.lig_0>
-48.5059

>  <SCORE.INTRA.VDW>
0.259561

>  <SCORE.INTRA.VDW.0>
-0.363643

>  <SCORE.INTRA.norm>
-0.827894

>  <SCORE.RESTR>
0.0083452

>  <SCORE.RESTR.CAVITY>
0.0083452

>  <SCORE.RESTR.norm>
0.000641939

>  <SCORE.SYSTEM>
0

>  <SCORE.SYSTEM.CONST>
0

>  <SCORE.SYSTEM.DIHEDRAL>
0

>  <SCORE.SYSTEM.SOLV>
0

>  <SCORE.SYSTEM.norm>
0

>  <SCORE.heavy>
13

>  <SCORE.norm>
-0.0180711

>  <RMSD>
5.588

$$$$
ligand
 OpenBabel11021811453D
libRbt.so/2013.1/901 2013/11/27
 13 12  0  0  0  0  0  0  0  0999 V2000
   30.9530   33.8354   48.7471 O   0  0  0  0  0  0  0  0  0  0  0  0
   30.0480   31.3910   47.3202 O   0  0  0  0  0  0  0  0  0  0  0  0
   30.4911   37.5395   46.4751 P   0  0  2  0  0  0  0  0  0  0  0  0
   30.2752   38.8319   47.1880 O   0  5  0  0  0  0  0  0  0  0  0  0
   29.6595   37.2167   45.2872 O   0  0  0  0  0  0  0  0  0  0  0  0
   30.3194   36.3494   47.5102 O   0  0  0  0  0  0  0  0  0  0  0  0
   28.4231   32.8911   45.5219 O   0  0  0  0  0  0  0  0  0  0  0  0
   31.1428   36.2644   48.6823 C   0  0  0  0  0  0  0  0  0  0  0  0
   30.7979   31.3652   48.5617 C   0  0  0  0  0  0  0  0  0  0  0  0
   29.6792   32.3707   45.1109 C   0  0  0  0  0  0  0  0  0  0  0  0
   30.7432   35.0351   49.5160 C   0  0  0  0  0  0  0  0  0  0  0  0
   30.5263   32.6213   49.4255 C   0  0  0  0  0  0  0  0  0  0  0  0
   30.5967   32.3083   46.3451 C   0  0  0  0  0  0  0  0  0  0  0  0
  1 12  1  0  0  0  0
  1 11  1  0  0  0  0
  2 13  1  0  0  0  0
  2  9  1  0  0  0  0
  3  4  1  1  0  0  0
  3  5  2  0  0  0  0
  3  6  1  0  0  0  0
  6  8  1  0  0  0  0
  7 10  1  0  0  0  0
  8 11  1  0  0  0  0
  9 12  1  0  0  0  0
 10 13  1  0  0  0  0
M  CHG  1   4  -1
M  END
>  <CHROM.1>
-179.05117833,-175.00729688,-58.64440922,178.85898518,61.75502132,75.23039812
-62.54496497,63.17244597,-176.49867032,30.27927224,34.74492249,47.26555871
-1.64623198,-1.19883299,-0.17862709

>  <Name>
ligand

>  <RI>
0

>  <Rbt.Current_Directory>
/home/itssahil/PROJECTS/Mol_Feturizer/New_Systems/rnas/2NPY

>  <Rbt.Executable>
rbdock ($Id: //depot/dev/client3/rdock/2013.1/src/exe/rbdock.cxx#4 $)

>  <Rbt.Library>
libRbt.so (2013.1, Build901 2013/11/27)

>  <Rbt.Parameter_File>
/export/apps/rDock/src/rDock_2013.1_src/data/scripts/dock_solv.prm

>  <Rbt.Receptor>
prm/pocket_docking_3.prm

>  <SCORE>
-5.79006

>  <SCORE.INTER>
7.55417

>  <SCORE.INTER.CONST>
1

>  <SCORE.INTER.POLAR>
0

>  <SCORE.INTER.ROT>
9

>  <SCORE.INTER.SOLV>
3.87319

>  <SCORE.INTER.VDW>
-5.85495

>  <SCORE.INTER.norm>
0.58109

>  <SCORE.INTRA>
-13.3449

>  <SCORE.INTRA.DIHEDRAL>
-24.285

>  <SCORE.INTRA.DIHEDRAL.0>
25.6828

>  <SCORE.INTRA.POLAR>
0

>  <SCORE.INTRA.POLAR.0>
0

>  <SCORE.INTRA.REPUL>
0

>  <SCORE.INTRA.REPUL.0>
0

>  <SCORE.INTRA.SOLV>
-0.861946

>  <SCORE.INTRA.SOLV.lig_0>
-48.5059

>  <SCORE.INTRA.VDW>
-0.771398

>  <SCORE.INTRA.VDW.0>
-0.363643

>  <SCORE.INTRA.norm>
-1.02653

>  <SCORE.RESTR>
0.000633321

>  <SCORE.RESTR.CAVITY>
0.000633321

>  <SCORE.RESTR.norm>
4.8717e-05

>  <SCORE.SYSTEM>
0

>  <SCORE.SYSTEM.CONST>
0

>  <SCORE.SYSTEM.DIHEDRAL>
0

>  <SCORE.SYSTEM.SOLV>
0

>  <SCORE.SYSTEM.norm>
0

>  <SCORE.heavy>
13

>  <SCORE.norm>
-0.445389

>  <RMSD>
5.590

$$$$
ligand
 OpenBabel11021811453D
libRbt.so/2013.1/901 2013/11/27
 13 12  0  0  0  0  0  0  0  0999 V2000
   30.9568   33.7235   48.6850 O   0  0  0  0  0  0  0  0  0  0  0  0
   32.1944   32.1969   46.3772 O   0  0  0  0  0  0  0  0  0  0  0  0
   29.7212   37.4414   46.8339 P   0  0  2  0  0  0  0  0  0  0  0  0
   30.4505   38.0185   45.6675 O   0  5  0  0  0  0  0  0  0  0  0  0
   29.6282   38.2243   48.0930 O   0  0  0  0  0  0  0  0  0  0  0  0
   30.3653   36.0375   47.1964 O   0  0  0  0  0  0  0  0  0  0  0  0
   31.4902   34.3502   44.5929 O   0  0  0  0  0  0  0  0  0  0  0  0
   31.5901   35.9558   47.9394 C   0  0  0  0  0  0  0  0  0  0  0  0
   31.0788   31.7473   47.1882 C   0  0  0  0  0  0  0  0  0  0  0  0
   30.9246   33.0530   44.4715 C   0  0  0  0  0  0  0  0  0  0  0  0
   32.0199   34.4858   48.0824 C   0  0  0  0  0  0  0  0  0  0  0  0
   31.1666   32.2847   48.6378 C   0  0  0  0  0  0  0  0  0  0  0  0
   31.9671   32.0305   44.9579 C   0  0  0  0  0  0  0  0  0  0  0  0
  1 12  1  0  0  0  0
  1 11  1  0  0  0  0
  2 13  1  0  0  0  0
  2  9  1  0  0  0  0
  3  4  1  6  0  0  0
  3  5  2  0  0  0  0
  3  6  1  0  0  0  0
  6  8  1  0  0  0  0
  7 10  1  0  0  0  0
  8 11  1  0  0  0  0
  9 12  1  0  0  0  0
 10 13  1  0  0  0  0
M  CHG  1   4  -1
M  END
>  <CHROM.1>
-68.39743352,71.70649685,78.87182290,-177.02757586,-55.68103099,-164.08381692
68.72179934,66.48217803,169.25114915,30.92560169,34.85769239,46.82242516
0.03589651,-1.28337656,1.72534730

>  <Name>
ligand

>  <RI>
0

>  <Rbt.Current_Directory>
/home/itssahil/PROJECTS/Mol_Feturizer/New_Systems/rnas/2NPY

>  <Rbt.Executable>
rbdock ($Id: //depot/dev/client3/rdock/2013.1/src/exe/rbdock.cxx#4 $)

>  <Rbt.Library>
libRbt.so (2013.1, Build901 2013/11/27)

>  <Rbt.Parameter_File>
/export/apps/rDock/src/rDock_2013.1_src/data/scripts/dock_solv.prm

>  <Rbt.Receptor>
prm/pocket_docking_2.prm

>  <SCORE>
-1.28308

>  <SCORE.INTER>
9.56978

>  <SCORE.INTER.CONST>
1

>  <SCORE.INTER.POLAR>
0

>  <SCORE.INTER.ROT>
9

>  <SCORE.INTER.SOLV>
6.72385

>  <SCORE.INTER.VDW>
-5.46143

>  <SCORE.INTER.norm>
0.736137

>  <SCORE.INTRA>
-10.8595

>  <SCORE.INTRA.DIHEDRAL>
-22.1776

>  <SCORE.INTRA.DIHEDRAL.0>
25.6828

>  <SCORE.INTRA.POLAR>
0

>  <SCORE.INTRA.POLAR.0>
0

>  <SCORE.INTRA.REPUL>
0

>  <SCORE.INTRA.REPUL.0>
0

>  <SCORE.INTRA.SOLV>
0.621343

>  <SCORE.INTRA.SOLV.lig_0>
-48.5059

>  <SCORE.INTRA.VDW>
-0.0813521

>  <SCORE.INTRA.VDW.0>
-0.363643

>  <SCORE.INTRA.norm>
-0.835345

>  <SCORE.RESTR>
0.00663111

>  <SCORE.RESTR.CAVITY>
0.00663111

>  <SCORE.RESTR.norm>
0.000510085

>  <SCORE.SYSTEM>
0

>  <SCORE.SYSTEM.CONST>
0

>  <SCORE.SYSTEM.DIHEDRAL>
0

>  <SCORE.SYSTEM.SOLV>
0

>  <SCORE.SYSTEM.norm>
0

>  <SCORE.heavy>
13

>  <SCORE.norm>
-0.0986987

>  <RMSD>
5.594

$$$$
ligand
 OpenBabel11021811453D
libRbt.so/2013.1/901 2013/11/27
 13 12  0  0  0  0  0  0  0  0999 V2000
   30.9117   32.6020   45.1463 O   0  0  0  0  0  0  0  0  0  0  0  0
   30.5732   30.9327   47.5600 O   0  0  0  0  0  0  0  0  0  0  0  0
   29.9952   36.7831   44.9849 P   0  0  2  0  0  0  0  0  0  0  0  0
   29.9419   37.5146   43.6858 O   0  5  0  0  0  0  0  0  0  0  0  0
   30.6922   37.4038   46.1407 O   0  0  0  0  0  0  0  0  0  0  0  0
   30.6538   35.3600   44.7440 O   0  0  0  0  0  0  0  0  0  0  0  0
   32.7631   32.0503   48.9678 O   0  0  0  0  0  0  0  0  0  0  0  0
   30.1159   34.4512   43.7726 C   0  0  0  0  0  0  0  0  0  0  0  0
   29.6018   31.9261   47.1433 C   0  0  0  0  0  0  0  0  0  0  0  0
   31.4642   32.0515   49.5427 C   0  0  0  0  0  0  0  0  0  0  0  0
   30.8965   33.1262   43.8049 C   0  0  0  0  0  0  0  0  0  0  0  0
   29.6136   32.1359   45.6091 C   0  0  0  0  0  0  0  0  0  0  0  0
   30.7001   30.8317   48.9978 C   0  0  0  0  0  0  0  0  0  0  0  0
  1 12  1  0  0  0  0
  1 11  1  0  0  0  0
  2 13  1  0  0  0  0
  2  9  1  0  0  0  0
  3  4  1  6  0  0  0
  3  5  2  0  0  0  0
  3  6  1  0  0  0  0
  6  8  1  0  0  0  0
  7 10  1  0  0  0  0
  8 11  1  0  0  0  0
  9 12  1  0  0  0  0
 10 13  1  0  0  0  0
M  CHG  1   4  -1
M  END
>  <CHROM.1>
-165.48523235,-73.76920629,-55.58221754,-176.84446079,54.04113620,172.93980576
-60.69782710,-61.44814244,69.13053942,30.57774162,33.91984895,46.06031404
1.07422496,1.27484833,2.98778371

>  <Name>
ligand

>  <RI>
0

>  <Rbt.Current_Directory>
/home/itssahil/PROJECTS/Mol_Feturizer/New_Systems/rnas/2NPY

>  <Rbt.Executable>
rbdock ($Id: //depot/dev/client3/rdock/2013.1/src/exe/rbdock.cxx#4 $)

>  <Rbt.Library>
libRbt.so (2013.1, Build901 2013/11/27)

>  <Rbt.Parameter_File>
/export/apps/rDock/src/rDock_2013.1_src/data/scripts/dock_solv.prm

>  <Rbt.Receptor>
prm/pocket_docking_3.prm

>  <SCORE>
-4.16178

>  <SCORE.INTER>
7.2414

>  <SCORE.INTER.CONST>
1

>  <SCORE.INTER.POLAR>
0

>  <SCORE.INTER.ROT>
9

>  <SCORE.INTER.SOLV>
2.90719

>  <SCORE.INTER.VDW>
-5.74146

>  <SCORE.INTER.norm>
0.557031

>  <SCORE.INTRA>
-11.4037

>  <SCORE.INTRA.DIHEDRAL>
-22.9276

>  <SCORE.INTRA.DIHEDRAL.0>
25.6828

>  <SCORE.INTRA.POLAR>
0

>  <SCORE.INTRA.POLAR.0>
0

>  <SCORE.INTRA.REPUL>
0

>  <SCORE.INTRA.REPUL.0>
0

>  <SCORE.INTRA.SOLV>
-0.73537

>  <SCORE.INTRA.SOLV.lig_0>
-48.5059

>  <SCORE.INTRA.VDW>
0.427783

>  <SCORE.INTRA.VDW.0>
-0.363643

>  <SCORE.INTRA.norm>
-0.877208

>  <SCORE.RESTR>
0.000516136

>  <SCORE.RESTR.CAVITY>
0.000516136

>  <SCORE.RESTR.norm>
3.97028e-05

>  <SCORE.SYSTEM>
0

>  <SCORE.SYSTEM.CONST>
0

>  <SCORE.SYSTEM.DIHEDRAL>
0

>  <SCORE.SYSTEM.SOLV>
0

>  <SCORE.SYSTEM.norm>
0

>  <SCORE.heavy>
13

>  <SCORE.norm>
-0.320137

>  <RMSD>
5.617

$$$$
ligand
 OpenBabel11021811453D
libRbt.so/2013.1/901 2013/11/27
 13 12  0  0  0  0  0  0  0  0999 V2000
   32.5933   30.6473   49.9768 O   0  0  0  0  0  0  0  0  0  0  0  0
   29.6231   30.0620   49.3891 O   0  0  0  0  0  0  0  0  0  0  0  0
   36.6213   31.2466   48.2174 P   0  0  2  0  0  0  0  0  0  0  0  0
   36.0573   31.5728   46.8755 O   0  5  0  0  0  0  0  0  0  0  0  0
   37.5787   30.1183   48.3490 O   0  0  0  0  0  0  0  0  0  0  0  0
   35.4245   30.9709   49.2220 O   0  0  0  0  0  0  0  0  0  0  0  0
   26.9763   30.7437   48.6432 O   0  0  0  0  0  0  0  0  0  0  0  0
   34.5720   32.0361   49.6664 C   0  0  0  0  0  0  0  0  0  0  0  0
   30.5799   29.1980   50.0542 C   0  0  0  0  0  0  0  0  0  0  0  0
   27.7126   31.5814   49.5227 C   0  0  0  0  0  0  0  0  0  0  0  0
   33.5332   31.4953   50.6637 C   0  0  0  0  0  0  0  0  0  0  0  0
   31.6273   30.0081   50.8569 C   0  0  0  0  0  0  0  0  0  0  0  0
   28.7021   30.6995   50.3050 C   0  0  0  0  0  0  0  0  0  0  0  0
  1 12  1  0  0  0  0
  1 11  1  0  0  0  0
  2 13  1  0  0  0  0
  2  9  1  0  0  0  0
  3  4  1  6  0  0  0
  3  5  2  0  0  0  0
  3  6  1  0  0  0  0
  6  8  1  0  0  0  0
  7 10  1  0  0  0  0
  8 11  1  0  0  0  0
  9 12  1  0  0  0  0
 10 13  1  0  0  0  0
M  CHG  1   4  -1
M  END
>  <CHROM.1>
175.65497636,-179.28574821,-70.22543561,-178.14335670,-69.30974932,-71.28200522
-74.06790755,61.45134601,175.71287499,32.80150115,30.82811182,49.23778313
-2.97248254,-0.00872810,-1.26193600

>  <Name>
ligand

>  <RI>
0

>  <Rbt.Current_Directory>
/home/itssahil/PROJECTS/Mol_Feturizer/New_Systems/rnas/2NPY

>  <Rbt.Executable>
rbdock ($Id: //depot/dev/client3/rdock/2013.1/src/exe/rbdock.cxx#4 $)

>  <Rbt.Library>
libRbt.so (2013.1, Build901 2013/11/27)

>  <Rbt.Parameter_File>
/export/apps/rDock/src/rDock_2013.1_src/data/scripts/dock_solv.prm

>  <Rbt.Receptor>
prm/pocket_docking_7.prm

>  <SCORE>
-9.18117

>  <SCORE.INTER>
3.63987

>  <SCORE.INTER.CONST>
1

>  <SCORE.INTER.POLAR>
0

>  <SCORE.INTER.ROT>
9

>  <SCORE.INTER.SOLV>
13.3304

>  <SCORE.INTER.VDW>
-11.6169

>  <SCORE.INTER.norm>
0.27999

>  <SCORE.INTRA>
-12.821

>  <SCORE.INTRA.DIHEDRAL>
-23.558

>  <SCORE.INTRA.DIHEDRAL.0>
25.6828

>  <SCORE.INTRA.POLAR>
0

>  <SCORE.INTRA.POLAR.0>
0

>  <SCORE.INTRA.REPUL>
0

>  <SCORE.INTRA.REPUL.0>
0

>  <SCORE.INTRA.SOLV>
-1.16304

>  <SCORE.INTRA.SOLV.lig_0>
-48.5059

>  <SCORE.INTRA.VDW>
-0.460523

>  <SCORE.INTRA.VDW.0>
-0.363643

>  <SCORE.INTRA.norm>
-0.986234

>  <SCORE.RESTR>
0

>  <SCORE.RESTR.CAVITY>
0

>  <SCORE.RESTR.norm>
0

>  <SCORE.SYSTEM>
0

>  <SCORE.SYSTEM.CONST>
0

>  <SCORE.SYSTEM.DIHEDRAL>
0

>  <SCORE.SYSTEM.SOLV>
0

>  <SCORE.SYSTEM.norm>
0

>  <SCORE.heavy>
13

>  <SCORE.norm>
-0.706244

>  <RMSD>
5.634

$$$$
ligand
 OpenBabel11021811453D
libRbt.so/2013.1/901 2013/11/27
 13 12  0  0  0  0  0  0  0  0999 V2000
   31.7918   34.2966   45.1480 O   0  0  0  0  0  0  0  0  0  0  0  0
   30.5373   32.3328   46.6908 O   0  0  0  0  0  0  0  0  0  0  0  0
   29.8686   37.8541   46.6856 P   0  0  2  0  0  0  0  0  0  0  0  0
   30.3816   37.9348   48.0841 O   0  5  0  0  0  0  0  0  0  0  0  0
   28.4299   38.1148   46.4229 O   0  0  0  0  0  0  0  0  0  0  0  0
   30.2038   36.4182   46.0999 O   0  0  0  0  0  0  0  0  0  0  0  0
   31.9919   33.0055   49.9856 O   0  0  0  0  0  0  0  0  0  0  0  0
   30.3583   36.2132   44.6881 C   0  0  0  0  0  0  0  0  0  0  0  0
   31.0701   31.9354   45.4015 C   0  0  0  0  0  0  0  0  0  0  0  0
   30.9452   32.9153   49.0298 C   0  0  0  0  0  0  0  0  0  0  0  0
   30.6385   34.7283   44.4011 C   0  0  0  0  0  0  0  0  0  0  0  0
   32.1644   32.9116   44.9041 C   0  0  0  0  0  0  0  0  0  0  0  0
   31.5198   32.2790   47.7516 C   0  0  0  0  0  0  0  0  0  0  0  0
  1 12  1  0  0  0  0
  1 11  1  0  0  0  0
  2 13  1  0  0  0  0
  2  9  1  0  0  0  0
  3  4  1  1  0  0  0
  3  5  2  0  0  0  0
  3  6  1  0  0  0  0
  6  8  1  0  0  0  0
  7 10  1  0  0  0  0
  8 11  1  0  0  0  0
  9 12  1  0  0  0  0
 10 13  1  0  0  0  0
M  CHG  1   4  -1
M  END
>  <CHROM.1>
-65.16301183,171.33754429,-153.63894429,-178.41671589,-55.84268425,-64.55282457
-42.20427587,-172.30175495,-177.94746202,30.67842653,34.97898771,46.59965471
-0.04862817,1.24395822,-1.63958964

>  <Name>
ligand

>  <RI>
0

>  <Rbt.Current_Directory>
/home/itssahil/PROJECTS/Mol_Feturizer/New_Systems/rnas/2NPY

>  <Rbt.Executable>
rbdock ($Id: //depot/dev/client3/rdock/2013.1/src/exe/rbdock.cxx#4 $)

>  <Rbt.Library>
libRbt.so (2013.1, Build901 2013/11/27)

>  <Rbt.Parameter_File>
/export/apps/rDock/src/rDock_2013.1_src/data/scripts/dock_solv.prm

>  <Rbt.Receptor>
prm/pocket_docking_2.prm

>  <SCORE>
-1.39614

>  <SCORE.INTER>
9.77605

>  <SCORE.INTER.CONST>
1

>  <SCORE.INTER.POLAR>
0

>  <SCORE.INTER.ROT>
9

>  <SCORE.INTER.SOLV>
5.65718

>  <SCORE.INTER.VDW>
-4.96836

>  <SCORE.INTER.norm>
0.752004

>  <SCORE.INTRA>
-11.5637

>  <SCORE.INTRA.DIHEDRAL>
-23.1968

>  <SCORE.INTRA.DIHEDRAL.0>
25.6828

>  <SCORE.INTRA.POLAR>
0

>  <SCORE.INTRA.POLAR.0>
0

>  <SCORE.INTRA.REPUL>
0

>  <SCORE.INTRA.REPUL.0>
0

>  <SCORE.INTRA.SOLV>
-1.06532

>  <SCORE.INTRA.SOLV.lig_0>
-48.5059

>  <SCORE.INTRA.VDW>
0.567357

>  <SCORE.INTRA.VDW.0>
-0.363643

>  <SCORE.INTRA.norm>
-0.889515

>  <SCORE.RESTR>
0.391495

>  <SCORE.RESTR.CAVITY>
0.391495

>  <SCORE.RESTR.norm>
0.030115

>  <SCORE.SYSTEM>
0

>  <SCORE.SYSTEM.CONST>
0

>  <SCORE.SYSTEM.DIHEDRAL>
0

>  <SCORE.SYSTEM.SOLV>
0

>  <SCORE.SYSTEM.norm>
0

>  <SCORE.heavy>
13

>  <SCORE.norm>
-0.107396

>  <RMSD>
5.640

$$$$
ligand
 OpenBabel11021811453D
libRbt.so/2013.1/901 2013/11/27
 13 12  0  0  0  0  0  0  0  0999 V2000
   31.9222   33.2485   48.7336 O   0  0  0  0  0  0  0  0  0  0  0  0
   31.7411   32.0960   46.0003 O   0  0  0  0  0  0  0  0  0  0  0  0
   31.8450   37.5178   47.6841 P   0  0  2  0  0  0  0  0  0  0  0  0
   30.6867   38.3700   48.0808 O   0  5  0  0  0  0  0  0  0  0  0  0
   32.4174   37.6579   46.3204 O   0  0  0  0  0  0  0  0  0  0  0  0
   31.4482   35.9936   47.8761 O   0  0  0  0  0  0  0  0  0  0  0  0
   32.2450   33.8087   43.7926 O   0  0  0  0  0  0  0  0  0  0  0  0
   31.0588   35.4872   49.1610 C   0  0  0  0  0  0  0  0  0  0  0  0
   30.9510   31.6284   47.1234 C   0  0  0  0  0  0  0  0  0  0  0  0
   31.9804   32.4280   43.5900 C   0  0  0  0  0  0  0  0  0  0  0  0
   30.7294   33.9884   49.0563 C   0  0  0  0  0  0  0  0  0  0  0  0
   31.6846   31.8374   48.4710 C   0  0  0  0  0  0  0  0  0  0  0  0
   31.0655   31.9452   44.7297 C   0  0  0  0  0  0  0  0  0  0  0  0
  1 12  1  0  0  0  0
  1 11  1  0  0  0  0
  2 13  1  0  0  0  0
  2  9  1  0  0  0  0
  3  4  1  6  0  0  0
  3  5  2  0  0  0  0
  3  6  1  0  0  0  0
  6  8  1  0  0  0  0
  7 10  1  0  0  0  0
  8 11  1  0  0  0  0
  9 12  1  0  0  0  0
 10 13  1  0  0  0  0
M  CHG  1   4  -1
M  END
>  <CHROM.1>
71.13008291,-178.53029807,-59.36965804,179.95958845,66.02248942,-178.48263703
62.58312554,-62.05941184,-173.71278037,31.55964577,34.61561425,47.01843973
1.47666525,-1.39458427,-2.82539273

>  <Name>
ligand

>  <RI>
0

>  <Rbt.Current_Directory>
/home/itssahil/PROJECTS/Mol_Feturizer/New_Systems/rnas/2NPY

>  <Rbt.Executable>
rbdock ($Id: //depot/dev/client3/rdock/2013.1/src/exe/rbdock.cxx#4 $)

>  <Rbt.Library>
libRbt.so (2013.1, Build901 2013/11/27)

>  <Rbt.Parameter_File>
/export/apps/rDock/src/rDock_2013.1_src/data/scripts/dock_solv.prm

>  <Rbt.Receptor>
prm/pocket_docking_3.prm

>  <SCORE>
-5.55777

>  <SCORE.INTER>
7.85526

>  <SCORE.INTER.CONST>
1

>  <SCORE.INTER.POLAR>
0

>  <SCORE.INTER.ROT>
9

>  <SCORE.INTER.SOLV>
3.891

>  <SCORE.INTER.VDW>
-5.66016

>  <SCORE.INTER.norm>
0.604251

>  <SCORE.INTRA>
-13.413

>  <SCORE.INTRA.DIHEDRAL>
-24.6447

>  <SCORE.INTRA.DIHEDRAL.0>
25.6828

>  <SCORE.INTRA.POLAR>
0

>  <SCORE.INTRA.POLAR.0>
0

>  <SCORE.INTRA.REPUL>
0

>  <SCORE.INTRA.REPUL.0>
0

>  <SCORE.INTRA.SOLV>
-1.04367

>  <SCORE.INTRA.SOLV.lig_0>
-48.5059

>  <SCORE.INTRA.VDW>
-0.568863

>  <SCORE.INTRA.VDW.0>
-0.363643

>  <SCORE.INTRA.norm>
-1.03177

>  <SCORE.RESTR>
0

>  <SCORE.RESTR.CAVITY>
0

>  <SCORE.RESTR.norm>
0

>  <SCORE.SYSTEM>
0

>  <SCORE.SYSTEM.CONST>
0

>  <SCORE.SYSTEM.DIHEDRAL>
0

>  <SCORE.SYSTEM.SOLV>
0

>  <SCORE.SYSTEM.norm>
0

>  <SCORE.heavy>
13

>  <SCORE.norm>
-0.42752

>  <RMSD>
5.640

$$$$
ligand
 OpenBabel11021811453D
libRbt.so/2013.1/901 2013/11/27
 13 12  0  0  0  0  0  0  0  0999 V2000
   30.0410   31.7946   47.5013 O   0  0  0  0  0  0  0  0  0  0  0  0
   32.8398   31.5096   48.6080 O   0  0  0  0  0  0  0  0  0  0  0  0
   29.8774   34.8754   44.4278 P   0  0  2  0  0  0  0  0  0  0  0  0
   30.8090   34.8328   43.2634 O   0  5  0  0  0  0  0  0  0  0  0  0
   29.6614   36.1614   45.1394 O   0  0  0  0  0  0  0  0  0  0  0  0
   30.3559   33.8133   45.5049 O   0  0  0  0  0  0  0  0  0  0  0  0
   35.0697   32.5356   47.1870 O   0  0  0  0  0  0  0  0  0  0  0  0
   30.4433   32.4185   45.1799 C   0  0  0  0  0  0  0  0  0  0  0  0
   31.6315   31.6382   49.4003 C   0  0  0  0  0  0  0  0  0  0  0  0
   35.2565   31.8105   48.3939 C   0  0  0  0  0  0  0  0  0  0  0  0
   30.9506   31.6268   46.3972 C   0  0  0  0  0  0  0  0  0  0  0  0
   30.4035   31.0264   48.6823 C   0  0  0  0  0  0  0  0  0  0  0  0
   34.0144   32.0256   49.2770 C   0  0  0  0  0  0  0  0  0  0  0  0
  1 12  1  0  0  0  0
  1 11  1  0  0  0  0
  2 13  1  0  0  0  0
  2  9  1  0  0  0  0
  3  4  1  6  0  0  0
  3  5  2  0  0  0  0
  3  6  1  0  0  0  0
  6  8  1  0  0  0  0
  7 10  1  0  0  0  0
  8 11  1  0  0  0  0
  9 12  1  0  0  0  0
 10 13  1  0  0  0  0
M  CHG  1   4  -1
M  END
>  <CHROM.1>
73.15556663,178.13091118,-59.74744338,179.18739171,60.11258370,-177.70188176
-67.89608225,61.76658608,177.10634056,31.49084093,32.98050904,46.61335314
0.99009138,0.10166347,2.28553866

>  <Name>
ligand

>  <RI>
0

>  <Rbt.Current_Directory>
/home/itssahil/PROJECTS/Mol_Feturizer/New_Systems/rnas/2NPY

>  <Rbt.Executable>
rbdock ($Id: //depot/dev/client3/rdock/2013.1/src/exe/rbdock.cxx#4 $)

>  <Rbt.Library>
libRbt.so (2013.1, Build901 2013/11/27)

>  <Rbt.Parameter_File>
/export/apps/rDock/src/rDock_2013.1_src/data/scripts/dock_solv.prm

>  <Rbt.Receptor>
prm/pocket_docking_3.prm

>  <SCORE>
-7.51352

>  <SCORE.INTER>
5.64973

>  <SCORE.INTER.CONST>
1

>  <SCORE.INTER.POLAR>
0

>  <SCORE.INTER.ROT>
9

>  <SCORE.INTER.SOLV>
3.74606

>  <SCORE.INTER.VDW>
-7.0822

>  <SCORE.INTER.norm>
0.434595

>  <SCORE.INTRA>
-13.1632

>  <SCORE.INTRA.DIHEDRAL>
-24.4748

>  <SCORE.INTRA.DIHEDRAL.0>
25.6828

>  <SCORE.INTRA.POLAR>
0

>  <SCORE.INTRA.POLAR.0>
0

>  <SCORE.INTRA.REPUL>
0

>  <SCORE.INTRA.REPUL.0>
0

>  <SCORE.INTRA.SOLV>
-0.852346

>  <SCORE.INTRA.SOLV.lig_0>
-48.5059

>  <SCORE.INTRA.VDW>
-0.499672

>  <SCORE.INTRA.VDW.0>
-0.363643

>  <SCORE.INTRA.norm>
-1.01256

>  <SCORE.RESTR>
0

>  <SCORE.RESTR.CAVITY>
0

>  <SCORE.RESTR.norm>
0

>  <SCORE.SYSTEM>
0

>  <SCORE.SYSTEM.CONST>
0

>  <SCORE.SYSTEM.DIHEDRAL>
0

>  <SCORE.SYSTEM.SOLV>
0

>  <SCORE.SYSTEM.norm>
0

>  <SCORE.heavy>
13

>  <SCORE.norm>
-0.577963

>  <RMSD>
5.640

$$$$
ligand
 OpenBabel11021811453D
libRbt.so/2013.1/901 2013/11/27
 13 12  0  0  0  0  0  0  0  0999 V2000
   29.8373   33.4523   45.0348 O   0  0  0  0  0  0  0  0  0  0  0  0
   31.4718   32.6457   47.3135 O   0  0  0  0  0  0  0  0  0  0  0  0
   29.2147   37.7406   44.7475 P   0  0  2  0  0  0  0  0  0  0  0  0
   29.9468   38.3049   45.9184 O   0  5  0  0  0  0  0  0  0  0  0  0
   27.8953   38.3104   44.3716 O   0  0  0  0  0  0  0  0  0  0  0  0
   29.0102   36.1836   44.9741 O   0  0  0  0  0  0  0  0  0  0  0  0
   30.8685   34.8903   48.9288 O   0  0  0  0  0  0  0  0  0  0  0  0
   28.7602   35.3023   43.8697 C   0  0  0  0  0  0  0  0  0  0  0  0
   31.1298   31.7179   46.2521 C   0  0  0  0  0  0  0  0  0  0  0  0
   30.9847   33.6000   49.5109 C   0  0  0  0  0  0  0  0  0  0  0  0
   28.6230   33.8555   44.3736 C   0  0  0  0  0  0  0  0  0  0  0  0
   29.7963   32.0972   45.5624 C   0  0  0  0  0  0  0  0  0  0  0  0
   30.5811   32.5600   48.4505 C   0  0  0  0  0  0  0  0  0  0  0  0
  1 12  1  0  0  0  0
  1 11  1  0  0  0  0
  2 13  1  0  0  0  0
  2  9  1  0  0  0  0
  3  4  1  1  0  0  0
  3  5  2  0  0  0  0
  3  6  1  0  0  0  0
  6  8  1  0  0  0  0
  7 10  1  0  0  0  0
  8 11  1  0  0  0  0
  9 12  1  0  0  0  0
 10 13  1  0  0  0  0
M  CHG  1   4  -1
M  END
>  <CHROM.1>
179.62370249,-178.36092345,-158.69698627,179.18871170,-59.89044872,68.59968717
56.79766017,61.18450464,179.28426402,29.80297354,34.96706730,45.99141114
0.66468106,1.14018109,-2.82439502

>  <Name>
ligand

>  <RI>
0

>  <Rbt.Current_Directory>
/home/itssahil/PROJECTS/Mol_Feturizer/New_Systems/rnas/2NPY

>  <Rbt.Executable>
rbdock ($Id: //depot/dev/client3/rdock/2013.1/src/exe/rbdock.cxx#4 $)

>  <Rbt.Library>
libRbt.so (2013.1, Build901 2013/11/27)

>  <Rbt.Parameter_File>
/export/apps/rDock/src/rDock_2013.1_src/data/scripts/dock_solv.prm

>  <Rbt.Receptor>
prm/pocket_docking_4.prm

>  <SCORE>
-6.2241

>  <SCORE.INTER>
7.28199

>  <SCORE.INTER.CONST>
1

>  <SCORE.INTER.POLAR>
0

>  <SCORE.INTER.ROT>
9

>  <SCORE.INTER.SOLV>
2.09161

>  <SCORE.INTER.VDW>
-5.44254

>  <SCORE.INTER.norm>
0.560153

>  <SCORE.INTRA>
-13.5061

>  <SCORE.INTRA.DIHEDRAL>
-24.9726

>  <SCORE.INTRA.DIHEDRAL.0>
25.6828

>  <SCORE.INTRA.POLAR>
0

>  <SCORE.INTRA.POLAR.0>
0

>  <SCORE.INTRA.REPUL>
0

>  <SCORE.INTRA.REPUL.0>
0

>  <SCORE.INTRA.SOLV>
-0.990369

>  <SCORE.INTRA.SOLV.lig_0>
-48.5059

>  <SCORE.INTRA.VDW>
-0.524594

>  <SCORE.INTRA.VDW.0>
-0.363643

>  <SCORE.INTRA.norm>
-1.03893

>  <SCORE.RESTR>
0

>  <SCORE.RESTR.CAVITY>
0

>  <SCORE.RESTR.norm>
0

>  <SCORE.SYSTEM>
0

>  <SCORE.SYSTEM.CONST>
0

>  <SCORE.SYSTEM.DIHEDRAL>
0

>  <SCORE.SYSTEM.SOLV>
0

>  <SCORE.SYSTEM.norm>
0

>  <SCORE.heavy>
13

>  <SCORE.norm>
-0.478777

>  <RMSD>
5.647

$$$$
ligand
 OpenBabel11021811453D
libRbt.so/2013.1/901 2013/11/27
 13 12  0  0  0  0  0  0  0  0999 V2000
   29.1473   33.5017   46.8578 O   0  0  0  0  0  0  0  0  0  0  0  0
   32.0743   33.3440   47.2346 O   0  0  0  0  0  0  0  0  0  0  0  0
   30.2422   37.0151   46.0072 P   0  0  2  0  0  0  0  0  0  0  0  0
   30.9570   36.4936   47.2082 O   0  5  0  0  0  0  0  0  0  0  0  0
   29.8296   38.4417   45.9692 O   0  0  0  0  0  0  0  0  0  0  0  0
   28.9409   36.1399   45.7663 O   0  0  0  0  0  0  0  0  0  0  0  0
   34.6027   33.4833   45.9521 O   0  0  0  0  0  0  0  0  0  0  0  0
   28.9769   34.9775   44.9257 C   0  0  0  0  0  0  0  0  0  0  0  0
   31.1227   32.8512   48.2124 C   0  0  0  0  0  0  0  0  0  0  0  0
   33.4807   32.9321   45.2778 C   0  0  0  0  0  0  0  0  0  0  0  0
   29.7773   33.8579   45.6125 C   0  0  0  0  0  0  0  0  0  0  0  0
   29.7975   32.4000   47.5505 C   0  0  0  0  0  0  0  0  0  0  0  0
   32.5456   32.3150   46.3332 C   0  0  0  0  0  0  0  0  0  0  0  0
  1 12  1  0  0  0  0
  1 11  1  0  0  0  0
  2 13  1  0  0  0  0
  2  9  1  0  0  0  0
  3  4  1  1  0  0  0
  3  5  2  0  0  0  0
  3  6  1  0  0  0  0
  6  8  1  0  0  0  0
  7 10  1  0  0  0  0
  8 11  1  0  0  0  0
  9 12  1  0  0  0  0
 10 13  1  0  0  0  0
M  CHG  1   4  -1
M  END
>  <CHROM.1>
74.73464960,176.56994730,-90.72686986,70.51120493,60.72205771,-66.48768706
-60.83226019,61.99322615,177.08225767,30.83497754,34.69341889,46.35452906
0.95882147,-0.12479573,2.91676742

>  <Name>
ligand

>  <RI>
0

>  <Rbt.Current_Directory>
/home/itssahil/PROJECTS/Mol_Feturizer/New_Systems/rnas/2NPY

>  <Rbt.Executable>
rbdock ($Id: //depot/dev/client3/rdock/2013.1/src/exe/rbdock.cxx#4 $)

>  <Rbt.Library>
libRbt.so (2013.1, Build901 2013/11/27)

>  <Rbt.Parameter_File>
/export/apps/rDock/src/rDock_2013.1_src/data/scripts/dock_solv.prm

>  <Rbt.Receptor>
prm/pocket_docking_2.prm

>  <SCORE>
0.0837078

>  <SCORE.INTER>
10.0415

>  <SCORE.INTER.CONST>
1

>  <SCORE.INTER.POLAR>
0

>  <SCORE.INTER.ROT>
9

>  <SCORE.INTER.SOLV>
4.98267

>  <SCORE.INTER.VDW>
-4.56654

>  <SCORE.INTER.norm>
0.772425

>  <SCORE.INTRA>
-9.97978

>  <SCORE.INTRA.DIHEDRAL>
-22.7717

>  <SCORE.INTRA.DIHEDRAL.0>
25.6828

>  <SCORE.INTRA.POLAR>
0

>  <SCORE.INTRA.POLAR.0>
0

>  <SCORE.INTRA.REPUL>
0

>  <SCORE.INTRA.REPUL.0>
0

>  <SCORE.INTRA.SOLV>
2.78548

>  <SCORE.INTRA.SOLV.lig_0>
-48.5059

>  <SCORE.INTRA.VDW>
0.0133161

>  <SCORE.INTRA.VDW.0>
-0.363643

>  <SCORE.INTRA.norm>
-0.767675

>  <SCORE.RESTR>
0.0219558

>  <SCORE.RESTR.CAVITY>
0.0219558

>  <SCORE.RESTR.norm>
0.00168891

>  <SCORE.SYSTEM>
0

>  <SCORE.SYSTEM.CONST>
0

>  <SCORE.SYSTEM.DIHEDRAL>
0

>  <SCORE.SYSTEM.SOLV>
0

>  <SCORE.SYSTEM.norm>
0

>  <SCORE.heavy>
13

>  <SCORE.norm>
0.00643906

>  <RMSD>
5.649

$$$$
ligand
 OpenBabel11021811453D
libRbt.so/2013.1/901 2013/11/27
 13 12  0  0  0  0  0  0  0  0999 V2000
   27.2920   31.3917   48.0637 O   0  0  0  0  0  0  0  0  0  0  0  0
   27.6203   32.4516   50.8423 O   0  0  0  0  0  0  0  0  0  0  0  0
   29.7427   33.1843   44.8993 P   0  0  2  0  0  0  0  0  0  0  0  0
   30.9450   32.4160   45.3347 O   0  5  0  0  0  0  0  0  0  0  0  0
   29.8040   34.6680   44.8573 O   0  0  0  0  0  0  0  0  0  0  0  0
   28.5185   32.7876   45.8273 O   0  0  0  0  0  0  0  0  0  0  0  0
   27.8737   34.6763   52.6780 O   0  0  0  0  0  0  0  0  0  0  0  0
   27.8787   31.5095   45.7011 C   0  0  0  0  0  0  0  0  0  0  0  0
   26.9433   31.2112   50.5144 C   0  0  0  0  0  0  0  0  0  0  0  0
   28.9385   33.7717   52.4223 C   0  0  0  0  0  0  0  0  0  0  0  0
   26.7437   31.3868   46.7319 C   0  0  0  0  0  0  0  0  0  0  0  0
   26.2906   31.2642   49.1112 C   0  0  0  0  0  0  0  0  0  0  0  0
   28.3288   32.3951   52.1026 C   0  0  0  0  0  0  0  0  0  0  0  0
  1 12  1  0  0  0  0
  1 11  1  0  0  0  0
  2 13  1  0  0  0  0
  2  9  1  0  0  0  0
  3  4  1  1  0  0  0
  3  5  2  0  0  0  0
  3  6  1  0  0  0  0
  6  8  1  0  0  0  0
  7 10  1  0  0  0  0
  8 11  1  0  0  0  0
  9 12  1  0  0  0  0
 10 13  1  0  0  0  0
M  CHG  1   4  -1
M  END
>  <CHROM.1>
177.42645854,-176.23718202,-72.80051221,179.18691184,-65.30150704,-175.42044467
64.68188183,67.61136685,-179.34847138,28.37174962,32.62742163,48.08531156
1.92265452,0.77983485,1.32432383

>  <Name>
ligand

>  <RI>
0

>  <Rbt.Current_Directory>
/home/itssahil/PROJECTS/Mol_Feturizer/New_Systems/rnas/2NPY

>  <Rbt.Executable>
rbdock ($Id: //depot/dev/client3/rdock/2013.1/src/exe/rbdock.cxx#4 $)

>  <Rbt.Library>
libRbt.so (2013.1, Build901 2013/11/27)

>  <Rbt.Parameter_File>
/export/apps/rDock/src/rDock_2013.1_src/data/scripts/dock_solv.prm

>  <Rbt.Receptor>
prm/pocket_docking_7.prm

>  <SCORE>
-10.6342

>  <SCORE.INTER>
3.47766

>  <SCORE.INTER.CONST>
1

>  <SCORE.INTER.POLAR>
0

>  <SCORE.INTER.ROT>
9

>  <SCORE.INTER.SOLV>
9.24936

>  <SCORE.INTER.VDW>
-10.3647

>  <SCORE.INTER.norm>
0.267512

>  <SCORE.INTRA>
-14.1119

>  <SCORE.INTRA.DIHEDRAL>
-24.7208

>  <SCORE.INTRA.DIHEDRAL.0>
25.6828

>  <SCORE.INTRA.POLAR>
0

>  <SCORE.INTRA.POLAR.0>
0

>  <SCORE.INTRA.REPUL>
0

>  <SCORE.INTRA.REPUL.0>
0

>  <SCORE.INTRA.SOLV>
-1.18285

>  <SCORE.INTRA.SOLV.lig_0>
-48.5059

>  <SCORE.INTRA.VDW>
-1.16007

>  <SCORE.INTRA.VDW.0>
-0.363643

>  <SCORE.INTRA.norm>
-1.08553

>  <SCORE.RESTR>
0

>  <SCORE.RESTR.CAVITY>
0

>  <SCORE.RESTR.norm>
0

>  <SCORE.SYSTEM>
0

>  <SCORE.SYSTEM.CONST>
0

>  <SCORE.SYSTEM.DIHEDRAL>
0

>  <SCORE.SYSTEM.SOLV>
0

>  <SCORE.SYSTEM.norm>
0

>  <SCORE.heavy>
13

>  <SCORE.norm>
-0.818019

>  <RMSD>
5.651

$$$$
ligand
 OpenBabel11021811453D
libRbt.so/2013.1/901 2013/11/27
 13 12  0  0  0  0  0  0  0  0999 V2000
   35.1863   31.0373   43.1764 O   0  0  0  0  0  0  0  0  0  0  0  0
   32.3017   31.5580   43.7236 O   0  0  0  0  0  0  0  0  0  0  0  0
   37.8902   30.0762   46.5205 P   0  0  2  0  0  0  0  0  0  0  0  0
   37.9476   31.5068   46.9395 O   0  5  0  0  0  0  0  0  0  0  0  0
   39.1560   29.3438   46.2593 O   0  0  0  0  0  0  0  0  0  0  0  0
   36.9989   29.9616   45.2129 O   0  0  0  0  0  0  0  0  0  0  0  0
   29.5233   33.0042   45.6329 O   0  0  0  0  0  0  0  0  0  0  0  0
   37.4343   30.5295   43.9692 C   0  0  0  0  0  0  0  0  0  0  0  0
   32.9528   31.8495   42.4605 C   0  0  0  0  0  0  0  0  0  0  0  0
   30.5692   32.0806   45.3674 C   0  0  0  0  0  0  0  0  0  0  0  0
   36.3763   30.2819   42.8805 C   0  0  0  0  0  0  0  0  0  0  0  0
   34.1330   30.8858   42.1844 C   0  0  0  0  0  0  0  0  0  0  0  0
   31.2056   32.4558   44.0171 C   0  0  0  0  0  0  0  0  0  0  0  0
  1 12  1  0  0  0  0
  1 11  1  0  0  0  0
  2 13  1  0  0  0  0
  2  9  1  0  0  0  0
  3  4  1  6  0  0  0
  3  5  2  0  0  0  0
  3  6  1  0  0  0  0
  6  8  1  0  0  0  0
  7 10  1  0  0  0  0
  8 11  1  0  0  0  0
  9 12  1  0  0  0  0
 10 13  1  0  0  0  0
M  CHG  1   4  -1
M  END
>  <CHROM.1>
-172.99016830,179.93841756,67.23313070,-179.50439722,67.62997335,179.18071662
-63.62279676,178.54104629,178.92164372,35.02150986,31.03407902,44.68870437
-2.96309785,-0.31620845,1.45355335

>  <Name>
ligand

>  <RI>
0

>  <Rbt.Current_Directory>
/home/itssahil/PROJECTS/Mol_Feturizer/New_Systems/rnas/2NPY

>  <Rbt.Executable>
rbdock ($Id: //depot/dev/client3/rdock/2013.1/src/exe/rbdock.cxx#4 $)

>  <Rbt.Library>
libRbt.so (2013.1, Build901 2013/11/27)

>  <Rbt.Parameter_File>
/export/apps/rDock/src/rDock_2013.1_src/data/scripts/dock_solv.prm

>  <Rbt.Receptor>
prm/pocket_docking_6.prm

>  <SCORE>
-13.0423

>  <SCORE.INTER>
0.998241

>  <SCORE.INTER.CONST>
1

>  <SCORE.INTER.POLAR>
0

>  <SCORE.INTER.ROT>
9

>  <SCORE.INTER.SOLV>
12.8516

>  <SCORE.INTER.VDW>
-13.2184

>  <SCORE.INTER.norm>
0.0767877

>  <SCORE.INTRA>
-14.0405

>  <SCORE.INTRA.DIHEDRAL>
-25.1241

>  <SCORE.INTRA.DIHEDRAL.0>
25.6828

>  <SCORE.INTRA.POLAR>
0

>  <SCORE.INTRA.POLAR.0>
0

>  <SCORE.INTRA.REPUL>
0

>  <SCORE.INTRA.REPUL.0>
0

>  <SCORE.INTRA.SOLV>
-0.909393

>  <SCORE.INTRA.SOLV.lig_0>
-48.5059

>  <SCORE.INTRA.VDW>
-1.02376

>  <SCORE.INTRA.VDW.0>
-0.363643

>  <SCORE.INTRA.norm>
-1.08004

>  <SCORE.RESTR>
0

>  <SCORE.RESTR.CAVITY>
0

>  <SCORE.RESTR.norm>
0

>  <SCORE.SYSTEM>
0

>  <SCORE.SYSTEM.CONST>
0

>  <SCORE.SYSTEM.DIHEDRAL>
0

>  <SCORE.SYSTEM.SOLV>
0

>  <SCORE.SYSTEM.norm>
0

>  <SCORE.heavy>
13

>  <SCORE.norm>
-1.00325

>  <RMSD>
5.656

$$$$
ligand
 OpenBabel11021811453D
libRbt.so/2013.1/901 2013/11/27
 13 12  0  0  0  0  0  0  0  0999 V2000
   34.9485   31.5294   48.7293 O   0  0  0  0  0  0  0  0  0  0  0  0
   32.0305   31.5970   48.6607 O   0  0  0  0  0  0  0  0  0  0  0  0
   39.0183   29.4608   46.5570 P   0  0  2  0  0  0  0  0  0  0  0  0
   40.0445   28.4949   47.0463 O   0  5  0  0  0  0  0  0  0  0  0  0
   39.4544   30.6696   45.8118 O   0  0  0  0  0  0  0  0  0  0  0  0
   38.1502   29.9532   47.7904 O   0  0  0  0  0  0  0  0  0  0  0  0
   30.8559   31.4823   46.0873 O   0  0  0  0  0  0  0  0  0  0  0  0
   36.9317   30.6844   47.5920 C   0  0  0  0  0  0  0  0  0  0  0  0
   32.7900   32.3361   49.6513 C   0  0  0  0  0  0  0  0  0  0  0  0
   30.0432   31.4067   47.2497 C   0  0  0  0  0  0  0  0  0  0  0  0
   36.2385   30.9257   48.9438 C   0  0  0  0  0  0  0  0  0  0  0  0
   34.1581   31.6717   49.9422 C   0  0  0  0  0  0  0  0  0  0  0  0
   30.7432   32.1918   48.3732 C   0  0  0  0  0  0  0  0  0  0  0  0
  1 12  1  0  0  0  0
  1 11  1  0  0  0  0
  2 13  1  0  0  0  0
  2  9  1  0  0  0  0
  3  4  1  1  0  0  0
  3  5  2  0  0  0  0
  3  6  1  0  0  0  0
  6  8  1  0  0  0  0
  7 10  1  0  0  0  0
  8 11  1  0  0  0  0
  9 12  1  0  0  0  0
 10 13  1  0  0  0  0
M  CHG  1   4  -1
M  END
>  <CHROM.1>
179.51705808,176.19398575,-167.94864665,175.08514582,-173.76861880,179.72131823
56.97965589,-61.25722411,174.07442900,35.40081378,30.81559046,47.74400760
-2.91865538,0.21991405,-1.85280808

>  <Name>
ligand

>  <RI>
0

>  <Rbt.Current_Directory>
/home/itssahil/PROJECTS/Mol_Feturizer/New_Systems/rnas/2NPY

>  <Rbt.Executable>
rbdock ($Id: //depot/dev/client3/rdock/2013.1/src/exe/rbdock.cxx#4 $)

>  <Rbt.Library>
libRbt.so (2013.1, Build901 2013/11/27)

>  <Rbt.Parameter_File>
/export/apps/rDock/src/rDock_2013.1_src/data/scripts/dock_solv.prm

>  <Rbt.Receptor>
prm/pocket_docking_7.prm

>  <SCORE>
-12.5522

>  <SCORE.INTER>
1.57068

>  <SCORE.INTER.CONST>
1

>  <SCORE.INTER.POLAR>
0

>  <SCORE.INTER.ROT>
9

>  <SCORE.INTER.SOLV>
8.60232

>  <SCORE.INTER.VDW>
-11.4203

>  <SCORE.INTER.norm>
0.120822

>  <SCORE.INTRA>
-14.1229

>  <SCORE.INTRA.DIHEDRAL>
-25.0551

>  <SCORE.INTRA.DIHEDRAL.0>
25.6828

>  <SCORE.INTRA.POLAR>
0

>  <SCORE.INTRA.POLAR.0>
0

>  <SCORE.INTRA.REPUL>
0

>  <SCORE.INTRA.REPUL.0>
0

>  <SCORE.INTRA.SOLV>
-1.18575

>  <SCORE.INTRA.SOLV.lig_0>
-48.5059

>  <SCORE.INTRA.VDW>
-1.00252

>  <SCORE.INTRA.VDW.0>
-0.363643

>  <SCORE.INTRA.norm>
-1.08638

>  <SCORE.RESTR>
0

>  <SCORE.RESTR.CAVITY>
0

>  <SCORE.RESTR.norm>
0

>  <SCORE.SYSTEM>
0

>  <SCORE.SYSTEM.CONST>
0

>  <SCORE.SYSTEM.DIHEDRAL>
0

>  <SCORE.SYSTEM.SOLV>
0

>  <SCORE.SYSTEM.norm>
0

>  <SCORE.heavy>
13

>  <SCORE.norm>
-0.965557

>  <RMSD>
5.665

$$$$
ligand
 OpenBabel11021811453D
libRbt.so/2013.1/901 2013/11/27
 13 12  0  0  0  0  0  0  0  0999 V2000
   31.1034   34.1337   44.5043 O   0  0  0  0  0  0  0  0  0  0  0  0
   30.3545   32.1562   46.6514 O   0  0  0  0  0  0  0  0  0  0  0  0
   30.1344   37.7542   47.0344 P   0  0  2  0  0  0  0  0  0  0  0  0
   31.2066   36.9295   47.6634 O   0  5  0  0  0  0  0  0  0  0  0  0
   29.2638   38.5946   47.8961 O   0  0  0  0  0  0  0  0  0  0  0  0
   29.1867   36.8028   46.1893 O   0  0  0  0  0  0  0  0  0  0  0  0
   32.9977   32.8658   49.0938 O   0  0  0  0  0  0  0  0  0  0  0  0
   29.6985   36.0375   45.0888 C   0  0  0  0  0  0  0  0  0  0  0  0
   31.0281   31.8242   45.4104 C   0  0  0  0  0  0  0  0  0  0  0  0
   32.1715   33.1263   47.9682 C   0  0  0  0  0  0  0  0  0  0  0  0
   30.5818   34.8921   45.6120 C   0  0  0  0  0  0  0  0  0  0  0  0
   31.9107   32.9912   44.9035 C   0  0  0  0  0  0  0  0  0  0  0  0
   31.1848   31.9545   47.8191 C   0  0  0  0  0  0  0  0  0  0  0  0
  1 12  1  0  0  0  0
  1 11  1  0  0  0  0
  2 13  1  0  0  0  0
  2  9  1  0  0  0  0
  3  4  1  1  0  0  0
  3  5  2  0  0  0  0
  3  6  1  0  0  0  0
  6  8  1  0  0  0  0
  7 10  1  0  0  0  0
  8 11  1  0  0  0  0
  9 12  1  0  0  0  0
 10 13  1  0  0  0  0
M  CHG  1   4  -1
M  END
>  <CHROM.1>
75.81082777,78.40721606,-60.94945073,71.66418691,-179.47856798,-83.01432995
-66.92000735,-177.89790604,-177.64644755,30.76823281,34.90688770,46.65957906
0.80445640,1.09848146,-2.38876932

>  <Name>
ligand

>  <RI>
0

>  <Rbt.Current_Directory>
/home/itssahil/PROJECTS/Mol_Feturizer/New_Systems/rnas/2NPY

>  <Rbt.Executable>
rbdock ($Id: //depot/dev/client3/rdock/2013.1/src/exe/rbdock.cxx#4 $)

>  <Rbt.Library>
libRbt.so (2013.1, Build901 2013/11/27)

>  <Rbt.Parameter_File>
/export/apps/rDock/src/rDock_2013.1_src/data/scripts/dock_solv.prm

>  <Rbt.Receptor>
prm/pocket_docking_2.prm

>  <SCORE>
1.05322

>  <SCORE.INTER>
9.24199

>  <SCORE.INTER.CONST>
1

>  <SCORE.INTER.POLAR>
0

>  <SCORE.INTER.ROT>
9

>  <SCORE.INTER.SOLV>
5.73058

>  <SCORE.INTER.VDW>
-5.34887

>  <SCORE.INTER.norm>
0.710922

>  <SCORE.INTRA>
-8.18884

>  <SCORE.INTRA.DIHEDRAL>
-19.7152

>  <SCORE.INTRA.DIHEDRAL.0>
25.6828

>  <SCORE.INTRA.POLAR>
0

>  <SCORE.INTRA.POLAR.0>
0

>  <SCORE.INTRA.REPUL>
0

>  <SCORE.INTRA.REPUL.0>
0

>  <SCORE.INTRA.SOLV>
0.936725

>  <SCORE.INTRA.SOLV.lig_0>
-48.5059

>  <SCORE.INTRA.VDW>
1.20039

>  <SCORE.INTRA.VDW.0>
-0.363643

>  <SCORE.INTRA.norm>
-0.629911

>  <SCORE.RESTR>
7.66452e-05

>  <SCORE.RESTR.CAVITY>
7.66452e-05

>  <SCORE.RESTR.norm>
5.89579e-06

>  <SCORE.SYSTEM>
0

>  <SCORE.SYSTEM.CONST>
0

>  <SCORE.SYSTEM.DIHEDRAL>
0

>  <SCORE.SYSTEM.SOLV>
0

>  <SCORE.SYSTEM.norm>
0

>  <SCORE.heavy>
13

>  <SCORE.norm>
0.0810172

>  <RMSD>
5.682

$$$$
ligand
 OpenBabel11021811453D
libRbt.so/2013.1/901 2013/11/27
 13 12  0  0  0  0  0  0  0  0999 V2000
   30.0790   33.9114   44.3873 O   0  0  0  0  0  0  0  0  0  0  0  0
   31.3963   32.8404   46.8976 O   0  0  0  0  0  0  0  0  0  0  0  0
   30.0877   37.7461   46.7184 P   0  0  2  0  0  0  0  0  0  0  0  0
   30.9692   37.1062   47.7377 O   0  5  0  0  0  0  0  0  0  0  0  0
   29.5069   39.0847   46.9970 O   0  0  0  0  0  0  0  0  0  0  0  0
   28.8828   36.7654   46.3962 O   0  0  0  0  0  0  0  0  0  0  0  0
   33.0544   33.4628   49.0442 O   0  0  0  0  0  0  0  0  0  0  0  0
   28.9358   35.8727   45.2740 C   0  0  0  0  0  0  0  0  0  0  0  0
   31.1357   32.0814   45.6892 C   0  0  0  0  0  0  0  0  0  0  0  0
   31.7882   32.8770   49.3104 C   0  0  0  0  0  0  0  0  0  0  0  0
   30.1213   34.9050   45.4291 C   0  0  0  0  0  0  0  0  0  0  0  0
   31.1907   32.9738   44.4249 C   0  0  0  0  0  0  0  0  0  0  0  0
   31.3913   32.0241   48.0922 C   0  0  0  0  0  0  0  0  0  0  0  0
  1 12  1  0  0  0  0
  1 11  1  0  0  0  0
  2 13  1  0  0  0  0
  2  9  1  0  0  0  0
  3  4  1  1  0  0  0
  3  5  2  0  0  0  0
  3  6  1  0  0  0  0
  6  8  1  0  0  0  0
  7 10  1  0  0  0  0
  8 11  1  0  0  0  0
  9 12  1  0  0  0  0
 10 13  1  0  0  0  0
M  CHG  1   4  -1
M  END
>  <CHROM.1>
66.51365478,175.35903431,-95.62509226,60.82755441,173.20725736,-178.24583363
-68.65670121,-56.30909790,178.04935426,30.61069214,35.02755961,46.66662346
0.78510514,1.04733336,-2.54688444

>  <Name>
ligand

>  <RI>
0

>  <Rbt.Current_Directory>
/home/itssahil/PROJECTS/Mol_Feturizer/New_Systems/rnas/2NPY

>  <Rbt.Executable>
rbdock ($Id: //depot/dev/client3/rdock/2013.1/src/exe/rbdock.cxx#4 $)

>  <Rbt.Library>
libRbt.so (2013.1, Build901 2013/11/27)

>  <Rbt.Parameter_File>
/export/apps/rDock/src/rDock_2013.1_src/data/scripts/dock_solv.prm

>  <Rbt.Receptor>
prm/pocket_docking_2.prm

>  <SCORE>
-1.76882

>  <SCORE.INTER>
9.24955

>  <SCORE.INTER.CONST>
1

>  <SCORE.INTER.POLAR>
0

>  <SCORE.INTER.ROT>
9

>  <SCORE.INTER.SOLV>
5.80316

>  <SCORE.INTER.VDW>
-5.36802

>  <SCORE.INTER.norm>
0.711504

>  <SCORE.INTRA>
-11.1714

>  <SCORE.INTRA.DIHEDRAL>
-23.616

>  <SCORE.INTRA.DIHEDRAL.0>
25.6828

>  <SCORE.INTRA.POLAR>
0

>  <SCORE.INTRA.POLAR.0>
0

>  <SCORE.INTRA.REPUL>
0

>  <SCORE.INTRA.REPUL.0>
0

>  <SCORE.INTRA.SOLV>
0.489889

>  <SCORE.INTRA.SOLV.lig_0>
-48.5059

>  <SCORE.INTRA.VDW>
0.391675

>  <SCORE.INTRA.VDW.0>
-0.363643

>  <SCORE.INTRA.norm>
-0.859337

>  <SCORE.RESTR>
0.153019

>  <SCORE.RESTR.CAVITY>
0.153019

>  <SCORE.RESTR.norm>
0.0117707

>  <SCORE.SYSTEM>
0

>  <SCORE.SYSTEM.CONST>
0

>  <SCORE.SYSTEM.DIHEDRAL>
0

>  <SCORE.SYSTEM.SOLV>
0

>  <SCORE.SYSTEM.norm>
0

>  <SCORE.heavy>
13

>  <SCORE.norm>
-0.136063

>  <RMSD>
5.702

$$$$
ligand
 OpenBabel11021811453D
libRbt.so/2013.1/901 2013/11/27
 13 12  0  0  0  0  0  0  0  0999 V2000
   29.8542   31.3175   46.5180 O   0  0  0  0  0  0  0  0  0  0  0  0
   32.1895   32.8369   44.0147 O   0  0  0  0  0  0  0  0  0  0  0  0
   31.6872   34.7023   48.5686 P   0  0  2  0  0  0  0  0  0  0  0  0
   32.8582   33.8695   48.9694 O   0  5  0  0  0  0  0  0  0  0  0  0
   30.9656   35.4877   49.6027 O   0  0  0  0  0  0  0  0  0  0  0  0
   30.6204   33.7729   47.8507 O   0  0  0  0  0  0  0  0  0  0  0  0
   32.6577   31.9036   41.3907 O   0  0  0  0  0  0  0  0  0  0  0  0
   30.0196   32.6674   48.5405 C   0  0  0  0  0  0  0  0  0  0  0  0
   31.5346   31.7707   44.7485 C   0  0  0  0  0  0  0  0  0  0  0  0
   33.4137   31.3847   42.4755 C   0  0  0  0  0  0  0  0  0  0  0  0
   29.0866   31.8995   47.5887 C   0  0  0  0  0  0  0  0  0  0  0  0
   30.2915   32.2800   45.5187 C   0  0  0  0  0  0  0  0  0  0  0  0
   33.5133   32.4783   43.5539 C   0  0  0  0  0  0  0  0  0  0  0  0
  1 12  1  0  0  0  0
  1 11  1  0  0  0  0
  2 13  1  0  0  0  0
  2  9  1  0  0  0  0
  3  4  1  1  0  0  0
  3  5  2  0  0  0  0
  3  6  1  0  0  0  0
  6  8  1  0  0  0  0
  7 10  1  0  0  0  0
  8 11  1  0  0  0  0
  9 12  1  0  0  0  0
 10 13  1  0  0  0  0
M  CHG  1   4  -1
M  END
>  <CHROM.1>
156.83852338,67.55472474,60.72337998,-176.98009055,64.22804059,166.00263565
-164.75080340,60.54546164,-74.90802776,31.46270914,32.97307862,46.31716801
1.86121286,0.57087474,1.04986905

>  <Name>
ligand

>  <RI>
0

>  <Rbt.Current_Directory>
/home/itssahil/PROJECTS/Mol_Feturizer/New_Systems/rnas/2NPY

>  <Rbt.Executable>
rbdock ($Id: //depot/dev/client3/rdock/2013.1/src/exe/rbdock.cxx#4 $)

>  <Rbt.Library>
libRbt.so (2013.1, Build901 2013/11/27)

>  <Rbt.Parameter_File>
/export/apps/rDock/src/rDock_2013.1_src/data/scripts/dock_solv.prm

>  <Rbt.Receptor>
prm/pocket_docking_3.prm

>  <SCORE>
-2.0905

>  <SCORE.INTER>
6.92849

>  <SCORE.INTER.CONST>
1

>  <SCORE.INTER.POLAR>
0

>  <SCORE.INTER.ROT>
9

>  <SCORE.INTER.SOLV>
6.48655

>  <SCORE.INTER.VDW>
-7.14319

>  <SCORE.INTER.norm>
0.53296

>  <SCORE.INTRA>
-9.02878

>  <SCORE.INTRA.DIHEDRAL>
-20.1021

>  <SCORE.INTRA.DIHEDRAL.0>
25.6828

>  <SCORE.INTRA.POLAR>
0

>  <SCORE.INTRA.POLAR.0>
0

>  <SCORE.INTRA.REPUL>
0

>  <SCORE.INTRA.REPUL.0>
0

>  <SCORE.INTRA.SOLV>
0.0592042

>  <SCORE.INTRA.SOLV.lig_0>
-48.5059

>  <SCORE.INTRA.VDW>
0.992687

>  <SCORE.INTRA.VDW.0>
-0.363643

>  <SCORE.INTRA.norm>
-0.694521

>  <SCORE.RESTR>
0.00978959

>  <SCORE.RESTR.CAVITY>
0.00978959

>  <SCORE.RESTR.norm>
0.000753046

>  <SCORE.SYSTEM>
0

>  <SCORE.SYSTEM.CONST>
0

>  <SCORE.SYSTEM.DIHEDRAL>
0

>  <SCORE.SYSTEM.SOLV>
0

>  <SCORE.SYSTEM.norm>
0

>  <SCORE.heavy>
13

>  <SCORE.norm>
-0.160808

>  <RMSD>
5.708

$$$$
ligand
 OpenBabel11021811453D
libRbt.so/2013.1/901 2013/11/27
 13 12  0  0  0  0  0  0  0  0999 V2000
   31.9214   33.9741   44.9660 O   0  0  0  0  0  0  0  0  0  0  0  0
   31.5352   31.5748   46.8480 O   0  0  0  0  0  0  0  0  0  0  0  0
   29.4867   37.4146   46.4725 P   0  0  2  0  0  0  0  0  0  0  0  0
   29.4743   37.5061   44.9836 O   0  5  0  0  0  0  0  0  0  0  0  0
   29.1417   38.6145   47.2776 O   0  0  0  0  0  0  0  0  0  0  0  0
   30.9209   36.9258   46.9430 O   0  0  0  0  0  0  0  0  0  0  0  0
   31.9405   32.9776   49.2732 O   0  0  0  0  0  0  0  0  0  0  0  0
   31.3555   35.5780   46.7115 C   0  0  0  0  0  0  0  0  0  0  0  0
   31.1821   31.6533   45.4432 C   0  0  0  0  0  0  0  0  0  0  0  0
   33.0066   32.2508   48.6795 C   0  0  0  0  0  0  0  0  0  0  0  0
   31.6048   35.3578   45.2098 C   0  0  0  0  0  0  0  0  0  0  0  0
   30.7695   33.0880   45.0318 C   0  0  0  0  0  0  0  0  0  0  0  0
   32.7845   32.2362   47.1566 C   0  0  0  0  0  0  0  0  0  0  0  0
  1 12  1  0  0  0  0
  1 11  1  0  0  0  0
  2 13  1  0  0  0  0
  2  9  1  0  0  0  0
  3  4  1  6  0  0  0
  3  5  2  0  0  0  0
  3  6  1  0  0  0  0
  6  8  1  0  0  0  0
  7 10  1  0  0  0  0
  8 11  1  0  0  0  0
  9 12  1  0  0  0  0
 10 13  1  0  0  0  0
M  CHG  1   4  -1
M  END
>  <CHROM.1>
-152.61834383,173.48544728,-70.78270589,70.06609661,-174.75488724,-70.66152202
73.04206150,-61.22250927,75.06680791,31.00965601,34.81996309,46.54283564
0.31946060,1.13586223,-2.06073993

>  <Name>
ligand

>  <RI>
0

>  <Rbt.Current_Directory>
/home/itssahil/PROJECTS/Mol_Feturizer/New_Systems/rnas/2NPY

>  <Rbt.Executable>
rbdock ($Id: //depot/dev/client3/rdock/2013.1/src/exe/rbdock.cxx#4 $)

>  <Rbt.Library>
libRbt.so (2013.1, Build901 2013/11/27)

>  <Rbt.Parameter_File>
/export/apps/rDock/src/rDock_2013.1_src/data/scripts/dock_solv.prm

>  <Rbt.Receptor>
prm/pocket_docking_2.prm

>  <SCORE>
0.259441

>  <SCORE.INTER>
9.25042

>  <SCORE.INTER.CONST>
1

>  <SCORE.INTER.POLAR>
0

>  <SCORE.INTER.ROT>
9

>  <SCORE.INTER.SOLV>
6.09037

>  <SCORE.INTER.VDW>
-5.46318

>  <SCORE.INTER.norm>
0.711571

>  <SCORE.INTRA>
-8.99104

>  <SCORE.INTRA.DIHEDRAL>
-19.2573

>  <SCORE.INTRA.DIHEDRAL.0>
25.6828

>  <SCORE.INTRA.POLAR>
0

>  <SCORE.INTRA.POLAR.0>
0

>  <SCORE.INTRA.REPUL>
0

>  <SCORE.INTRA.REPUL.0>
0

>  <SCORE.INTRA.SOLV>
0.975306

>  <SCORE.INTRA.SOLV.lig_0>
-48.5059

>  <SCORE.INTRA.VDW>
0.149968

>  <SCORE.INTRA.VDW.0>
-0.363643

>  <SCORE.INTRA.norm>
-0.691619

>  <SCORE.RESTR>
6.68621e-05

>  <SCORE.RESTR.CAVITY>
6.68621e-05

>  <SCORE.RESTR.norm>
5.14324e-06

>  <SCORE.SYSTEM>
0

>  <SCORE.SYSTEM.CONST>
0

>  <SCORE.SYSTEM.DIHEDRAL>
0

>  <SCORE.SYSTEM.SOLV>
0

>  <SCORE.SYSTEM.norm>
0

>  <SCORE.heavy>
13

>  <SCORE.norm>
0.019957

>  <RMSD>
5.729

$$$$
ligand
 OpenBabel11021811453D
libRbt.so/2013.1/901 2013/11/27
 13 12  0  0  0  0  0  0  0  0999 V2000
   30.3245   33.8779   45.0509 O   0  0  0  0  0  0  0  0  0  0  0  0
   31.6973   32.0874   46.9005 O   0  0  0  0  0  0  0  0  0  0  0  0
   29.4642   37.6334   47.0026 P   0  0  2  0  0  0  0  0  0  0  0  0
   28.9614   38.7621   46.1668 O   0  5  0  0  0  0  0  0  0  0  0  0
   30.4781   37.9030   48.0544 O   0  0  0  0  0  0  0  0  0  0  0  0
   30.0595   36.5151   46.0474 O   0  0  0  0  0  0  0  0  0  0  0  0
   32.0079   33.9913   48.9674 O   0  0  0  0  0  0  0  0  0  0  0  0
   29.3629   36.1092   44.8604 C   0  0  0  0  0  0  0  0  0  0  0  0
   31.3786   31.6855   45.5436 C   0  0  0  0  0  0  0  0  0  0  0  0
   30.9761   33.0181   49.0431 C   0  0  0  0  0  0  0  0  0  0  0  0
   30.1424   34.9884   44.1520 C   0  0  0  0  0  0  0  0  0  0  0  0
   31.2967   32.9002   44.5867 C   0  0  0  0  0  0  0  0  0  0  0  0
   30.5650   32.6459   47.6073 C   0  0  0  0  0  0  0  0  0  0  0  0
  1 12  1  0  0  0  0
  1 11  1  0  0  0  0
  2 13  1  0  0  0  0
  2  9  1  0  0  0  0
  3  4  1  6  0  0  0
  3  5  2  0  0  0  0
  3  6  1  0  0  0  0
  6  8  1  0  0  0  0
  7 10  1  0  0  0  0
  8 11  1  0  0  0  0
  9 12  1  0  0  0  0
 10 13  1  0  0  0  0
M  CHG  1   4  -1
M  END
>  <CHROM.1>
-176.11497595,178.80109047,-44.44177719,-178.32717861,57.52016495,77.26256799
-56.73517263,60.85529608,-166.95958940,30.43605231,35.04918862,46.52644407
0.53882560,1.19460466,-2.15680774

>  <Name>
ligand

>  <RI>
0

>  <Rbt.Current_Directory>
/home/itssahil/PROJECTS/Mol_Feturizer/New_Systems/rnas/2NPY

>  <Rbt.Executable>
rbdock ($Id: //depot/dev/client3/rdock/2013.1/src/exe/rbdock.cxx#4 $)

>  <Rbt.Library>
libRbt.so (2013.1, Build901 2013/11/27)

>  <Rbt.Parameter_File>
/export/apps/rDock/src/rDock_2013.1_src/data/scripts/dock_solv.prm

>  <Rbt.Receptor>
prm/pocket_docking_2.prm

>  <SCORE>
-3.32783

>  <SCORE.INTER>
9.12683

>  <SCORE.INTER.CONST>
1

>  <SCORE.INTER.POLAR>
0

>  <SCORE.INTER.ROT>
9

>  <SCORE.INTER.SOLV>
6.5371

>  <SCORE.INTER.VDW>
-5.69448

>  <SCORE.INTER.norm>
0.702064

>  <SCORE.INTRA>
-12.6395

>  <SCORE.INTRA.DIHEDRAL>
-23.2012

>  <SCORE.INTRA.DIHEDRAL.0>
25.6828

>  <SCORE.INTRA.POLAR>
0

>  <SCORE.INTRA.POLAR.0>
0

>  <SCORE.INTRA.REPUL>
0

>  <SCORE.INTRA.REPUL.0>
0

>  <SCORE.INTRA.SOLV>
-0.70158

>  <SCORE.INTRA.SOLV.lig_0>
-48.5059

>  <SCORE.INTRA.VDW>
-0.688144

>  <SCORE.INTRA.VDW.0>
-0.363643

>  <SCORE.INTRA.norm>
-0.972272

>  <SCORE.RESTR>
0.184876

>  <SCORE.RESTR.CAVITY>
0.184876

>  <SCORE.RESTR.norm>
0.0142212

>  <SCORE.SYSTEM>
0

>  <SCORE.SYSTEM.CONST>
0

>  <SCORE.SYSTEM.DIHEDRAL>
0

>  <SCORE.SYSTEM.SOLV>
0

>  <SCORE.SYSTEM.norm>
0

>  <SCORE.heavy>
13

>  <SCORE.norm>
-0.255987

>  <RMSD>
5.731

$$$$
ligand
 OpenBabel11021811453D
libRbt.so/2013.1/901 2013/11/27
 13 12  0  0  0  0  0  0  0  0999 V2000
   30.2036   32.8115   47.6959 O   0  0  0  0  0  0  0  0  0  0  0  0
   33.1174   33.2385   47.9276 O   0  0  0  0  0  0  0  0  0  0  0  0
   29.2846   36.7258   45.9440 P   0  0  2  0  0  0  0  0  0  0  0  0
   29.4612   36.9155   44.4749 O   0  5  0  0  0  0  0  0  0  0  0  0
   29.7285   37.7960   46.8738 O   0  0  0  0  0  0  0  0  0  0  0  0
   30.0177   35.3875   46.3787 O   0  0  0  0  0  0  0  0  0  0  0  0
   33.5868   33.5634   45.0907 O   0  0  0  0  0  0  0  0  0  0  0  0
   29.7513   34.1472   45.7081 C   0  0  0  0  0  0  0  0  0  0  0  0
   32.3182   32.6498   48.9854 C   0  0  0  0  0  0  0  0  0  0  0  0
   34.5337   32.9527   45.9555 C   0  0  0  0  0  0  0  0  0  0  0  0
   30.5994   33.0233   46.3274 C   0  0  0  0  0  0  0  0  0  0  0  0
   31.0789   31.9082   48.4270 C   0  0  0  0  0  0  0  0  0  0  0  0
   33.7628   32.2521   47.0885 C   0  0  0  0  0  0  0  0  0  0  0  0
  1 12  1  0  0  0  0
  1 11  1  0  0  0  0
  2 13  1  0  0  0  0
  2  9  1  0  0  0  0
  3  4  1  6  0  0  0
  3  5  2  0  0  0  0
  3  6  1  0  0  0  0
  6  8  1  0  0  0  0
  7 10  1  0  0  0  0
  8 11  1  0  0  0  0
  9 12  1  0  0  0  0
 10 13  1  0  0  0  0
M  CHG  1   4  -1
M  END
>  <CHROM.1>
83.58951036,177.33383862,-52.44764734,179.75094139,64.46008234,-67.65463724
-60.68705433,-67.45563320,-171.33417486,31.15863136,34.36328661,46.60809875
0.80443107,-0.44685712,2.40299716

>  <Name>
ligand

>  <RI>
0

>  <Rbt.Current_Directory>
/home/itssahil/PROJECTS/Mol_Feturizer/New_Systems/rnas/2NPY

>  <Rbt.Executable>
rbdock ($Id: //depot/dev/client3/rdock/2013.1/src/exe/rbdock.cxx#4 $)

>  <Rbt.Library>
libRbt.so (2013.1, Build901 2013/11/27)

>  <Rbt.Parameter_File>
/export/apps/rDock/src/rDock_2013.1_src/data/scripts/dock_solv.prm

>  <Rbt.Receptor>
prm/pocket_docking_2.prm

>  <SCORE>
-1.87301

>  <SCORE.INTER>
9.83995

>  <SCORE.INTER.CONST>
1

>  <SCORE.INTER.POLAR>
0

>  <SCORE.INTER.ROT>
9

>  <SCORE.INTER.SOLV>
6.26411

>  <SCORE.INTER.VDW>
-5.12807

>  <SCORE.INTER.norm>
0.756919

>  <SCORE.INTRA>
-11.713

>  <SCORE.INTRA.DIHEDRAL>
-22.2641

>  <SCORE.INTRA.DIHEDRAL.0>
25.6828

>  <SCORE.INTRA.POLAR>
0

>  <SCORE.INTRA.POLAR.0>
0

>  <SCORE.INTRA.REPUL>
0

>  <SCORE.INTRA.REPUL.0>
0

>  <SCORE.INTRA.SOLV>
-0.446073

>  <SCORE.INTRA.SOLV.lig_0>
-48.5059

>  <SCORE.INTRA.VDW>
-0.357872

>  <SCORE.INTRA.VDW.0>
-0.363643

>  <SCORE.INTRA.norm>
-0.900997

>  <SCORE.RESTR>
0

>  <SCORE.RESTR.CAVITY>
0

>  <SCORE.RESTR.norm>
0

>  <SCORE.SYSTEM>
0

>  <SCORE.SYSTEM.CONST>
0

>  <SCORE.SYSTEM.DIHEDRAL>
0

>  <SCORE.SYSTEM.SOLV>
0

>  <SCORE.SYSTEM.norm>
0

>  <SCORE.heavy>
13

>  <SCORE.norm>
-0.144078

>  <RMSD>
5.733

$$$$
ligand
 OpenBabel11021811453D
libRbt.so/2013.1/901 2013/11/27
 13 12  0  0  0  0  0  0  0  0999 V2000
   31.7823   33.9886   45.6694 O   0  0  0  0  0  0  0  0  0  0  0  0
   33.8342   32.0785   46.9350 O   0  0  0  0  0  0  0  0  0  0  0  0
   29.6244   37.5325   46.8933 P   0  0  2  0  0  0  0  0  0  0  0  0
   29.0449   38.5221   45.9393 O   0  5  0  0  0  0  0  0  0  0  0  0
   30.5881   37.9953   47.9249 O   0  0  0  0  0  0  0  0  0  0  0  0
   30.3345   36.3797   46.0660 O   0  0  0  0  0  0  0  0  0  0  0  0
   30.9305   32.9418   49.0008 O   0  0  0  0  0  0  0  0  0  0  0  0
   29.6462   35.1588   45.7585 C   0  0  0  0  0  0  0  0  0  0  0  0
   34.0264   32.9339   45.7792 C   0  0  0  0  0  0  0  0  0  0  0  0
   31.6468   32.2065   48.0192 C   0  0  0  0  0  0  0  0  0  0  0  0
   30.5626   34.2311   44.9427 C   0  0  0  0  0  0  0  0  0  0  0  0
   32.7167   33.1172   44.9737 C   0  0  0  0  0  0  0  0  0  0  0  0
   33.0969   32.7221   48.0006 C   0  0  0  0  0  0  0  0  0  0  0  0
  1 12  1  0  0  0  0
  1 11  1  0  0  0  0
  2 13  1  0  0  0  0
  2  9  1  0  0  0  0
  3  4  1  6  0  0  0
  3  5  2  0  0  0  0
  3  6  1  0  0  0  0
  6  8  1  0  0  0  0
  7 10  1  0  0  0  0
  8 11  1  0  0  0  0
  9 12  1  0  0  0  0
 10 13  1  0  0  0  0
M  CHG  1   4  -1
M  END
>  <CHROM.1>
177.99810256,103.27512072,-95.30293586,179.53305332,56.63386524,-73.22066314
73.25237435,-175.15415439,-179.99781642,31.21557565,34.87616855,46.64843652
-0.25146828,0.98186498,-1.32593186

>  <Name>
ligand

>  <RI>
0

>  <Rbt.Current_Directory>
/home/itssahil/PROJECTS/Mol_Feturizer/New_Systems/rnas/2NPY

>  <Rbt.Executable>
rbdock ($Id: //depot/dev/client3/rdock/2013.1/src/exe/rbdock.cxx#4 $)

>  <Rbt.Library>
libRbt.so (2013.1, Build901 2013/11/27)

>  <Rbt.Parameter_File>
/export/apps/rDock/src/rDock_2013.1_src/data/scripts/dock_solv.prm

>  <Rbt.Receptor>
prm/pocket_docking_2.prm

>  <SCORE>
0.447294

>  <SCORE.INTER>
9.90882

>  <SCORE.INTER.CONST>
1

>  <SCORE.INTER.POLAR>
0

>  <SCORE.INTER.ROT>
9

>  <SCORE.INTER.SOLV>
6.27674

>  <SCORE.INTER.VDW>
-5.08636

>  <SCORE.INTER.norm>
0.762217

>  <SCORE.INTRA>
-9.46153

>  <SCORE.INTRA.DIHEDRAL>
-16.9559

>  <SCORE.INTRA.DIHEDRAL.0>
25.6828

>  <SCORE.INTRA.POLAR>
0

>  <SCORE.INTRA.POLAR.0>
0

>  <SCORE.INTRA.REPUL>
0

>  <SCORE.INTRA.REPUL.0>
0

>  <SCORE.INTRA.SOLV>
-0.83959

>  <SCORE.INTRA.SOLV.lig_0>
-48.5059

>  <SCORE.INTRA.VDW>
-0.563808

>  <SCORE.INTRA.VDW.0>
-0.363643

>  <SCORE.INTRA.norm>
-0.72781

>  <SCORE.RESTR>
0

>  <SCORE.RESTR.CAVITY>
0

>  <SCORE.RESTR.norm>
0

>  <SCORE.SYSTEM>
0

>  <SCORE.SYSTEM.CONST>
0

>  <SCORE.SYSTEM.DIHEDRAL>
0

>  <SCORE.SYSTEM.SOLV>
0

>  <SCORE.SYSTEM.norm>
0

>  <SCORE.heavy>
13

>  <SCORE.norm>
0.0344072

>  <RMSD>
5.740

$$$$
ligand
 OpenBabel11021811453D
libRbt.so/2013.1/901 2013/11/27
 13 12  0  0  0  0  0  0  0  0999 V2000
   30.8293   34.3717   44.7807 O   0  0  0  0  0  0  0  0  0  0  0  0
   32.3447   32.3183   46.4450 O   0  0  0  0  0  0  0  0  0  0  0  0
   29.8035   38.0171   46.7607 P   0  0  2  0  0  0  0  0  0  0  0  0
   30.5435   37.9679   48.0551 O   0  5  0  0  0  0  0  0  0  0  0  0
   28.4080   38.5261   46.7399 O   0  0  0  0  0  0  0  0  0  0  0  0
   29.7861   36.5631   46.1259 O   0  0  0  0  0  0  0  0  0  0  0  0
   31.0861   32.6648   48.9567 O   0  0  0  0  0  0  0  0  0  0  0  0
   29.4201   36.3599   44.7534 C   0  0  0  0  0  0  0  0  0  0  0  0
   32.3929   32.4567   45.0018 C   0  0  0  0  0  0  0  0  0  0  0  0
   32.2900   33.3567   48.6575 C   0  0  0  0  0  0  0  0  0  0  0  0
   29.5335   34.8683   44.3955 C   0  0  0  0  0  0  0  0  0  0  0  0
   31.0526   32.9781   44.4276 C   0  0  0  0  0  0  0  0  0  0  0  0
   32.3415   33.5890   47.1369 C   0  0  0  0  0  0  0  0  0  0  0  0
  1 12  1  0  0  0  0
  1 11  1  0  0  0  0
  2 13  1  0  0  0  0
  2  9  1  0  0  0  0
  3  4  1  1  0  0  0
  3  5  2  0  0  0  0
  3  6  1  0  0  0  0
  6  8  1  0  0  0  0
  7 10  1  0  0  0  0
  8 11  1  0  0  0  0
  9 12  1  0  0  0  0
 10 13  1  0  0  0  0
M  CHG  1   4  -1
M  END
>  <CHROM.1>
-173.72465623,-179.97951222,-165.56697535,178.17245142,-51.39158817,-71.83135887
70.30690454,-61.21205238,-177.45113019,30.66542810,35.20076860,46.39022670
0.46947218,1.06216673,-2.07678898

>  <Name>
ligand

>  <RI>
0

>  <Rbt.Current_Directory>
/home/itssahil/PROJECTS/Mol_Feturizer/New_Systems/rnas/2NPY

>  <Rbt.Executable>
rbdock ($Id: //depot/dev/client3/rdock/2013.1/src/exe/rbdock.cxx#4 $)

>  <Rbt.Library>
libRbt.so (2013.1, Build901 2013/11/27)

>  <Rbt.Parameter_File>
/export/apps/rDock/src/rDock_2013.1_src/data/scripts/dock_solv.prm

>  <Rbt.Receptor>
prm/pocket_docking_2.prm

>  <SCORE>
-2.50817

>  <SCORE.INTER>
10.4631

>  <SCORE.INTER.CONST>
1

>  <SCORE.INTER.POLAR>
0

>  <SCORE.INTER.ROT>
9

>  <SCORE.INTER.SOLV>
6.06682

>  <SCORE.INTER.VDW>
-4.64689

>  <SCORE.INTER.norm>
0.804852

>  <SCORE.INTRA>
-12.9865

>  <SCORE.INTRA.DIHEDRAL>
-23.9815

>  <SCORE.INTRA.DIHEDRAL.0>
25.6828

>  <SCORE.INTRA.POLAR>
0

>  <SCORE.INTRA.POLAR.0>
0

>  <SCORE.INTRA.REPUL>
0

>  <SCORE.INTRA.REPUL.0>
0

>  <SCORE.INTRA.SOLV>
-0.856842

>  <SCORE.INTRA.SOLV.lig_0>
-48.5059

>  <SCORE.INTRA.VDW>
-0.567324

>  <SCORE.INTRA.VDW.0>
-0.363643

>  <SCORE.INTRA.norm>
-0.998962

>  <SCORE.RESTR>
0.0152664

>  <SCORE.RESTR.CAVITY>
0.0152664

>  <SCORE.RESTR.norm>
0.00117434

>  <SCORE.SYSTEM>
0

>  <SCORE.SYSTEM.CONST>
0

>  <SCORE.SYSTEM.DIHEDRAL>
0

>  <SCORE.SYSTEM.SOLV>
0

>  <SCORE.SYSTEM.norm>
0

>  <SCORE.heavy>
13

>  <SCORE.norm>
-0.192936

>  <RMSD>
5.756

$$$$
ligand
 OpenBabel11021811453D
libRbt.so/2013.1/901 2013/11/27
 13 12  0  0  0  0  0  0  0  0999 V2000
   29.5270   31.3858   45.6620 O   0  0  0  0  0  0  0  0  0  0  0  0
   32.1959   32.8934   43.4867 O   0  0  0  0  0  0  0  0  0  0  0  0
   30.7878   30.8316   49.8283 P   0  0  2  0  0  0  0  0  0  0  0  0
   31.9632   31.7459   49.7384 O   0  5  0  0  0  0  0  0  0  0  0  0
   31.0041   29.4002   50.1618 O   0  0  0  0  0  0  0  0  0  0  0  0
   29.9938   30.8827   48.4557 O   0  0  0  0  0  0  0  0  0  0  0  0
   34.6388   34.1847   42.9016 O   0  0  0  0  0  0  0  0  0  0  0  0
   29.4040   32.1042   47.9877 C   0  0  0  0  0  0  0  0  0  0  0  0
   31.4217   31.8465   44.1262 C   0  0  0  0  0  0  0  0  0  0  0  0
   33.8993   33.5573   41.8638 C   0  0  0  0  0  0  0  0  0  0  0  0
   28.6254   31.8461   46.6865 C   0  0  0  0  0  0  0  0  0  0  0  0
   30.4158   32.4198   45.1545 C   0  0  0  0  0  0  0  0  0  0  0  0
   33.1064   32.3913   42.4806 C   0  0  0  0  0  0  0  0  0  0  0  0
  1 12  1  0  0  0  0
  1 11  1  0  0  0  0
  2 13  1  0  0  0  0
  2  9  1  0  0  0  0
  3  4  1  6  0  0  0
  3  5  2  0  0  0  0
  3  6  1  0  0  0  0
  6  8  1  0  0  0  0
  7 10  1  0  0  0  0
  8 11  1  0  0  0  0
  9 12  1  0  0  0  0
 10 13  1  0  0  0  0
M  CHG  1   4  -1
M  END
>  <CHROM.1>
176.24963757,-179.32781484,-61.77490594,-176.40250270,-62.17770292,-177.61989094
172.57533967,60.58023591,-71.72757348,31.27863817,31.85821912,46.38391861
1.94249379,0.16567781,1.85481444

>  <Name>
ligand

>  <RI>
0

>  <Rbt.Current_Directory>
/home/itssahil/PROJECTS/Mol_Feturizer/New_Systems/rnas/2NPY

>  <Rbt.Executable>
rbdock ($Id: //depot/dev/client3/rdock/2013.1/src/exe/rbdock.cxx#4 $)

>  <Rbt.Library>
libRbt.so (2013.1, Build901 2013/11/27)

>  <Rbt.Parameter_File>
/export/apps/rDock/src/rDock_2013.1_src/data/scripts/dock_solv.prm

>  <Rbt.Receptor>
prm/pocket_docking_5.prm

>  <SCORE>
-6.97235

>  <SCORE.INTER>
6.20829

>  <SCORE.INTER.CONST>
1

>  <SCORE.INTER.POLAR>
0

>  <SCORE.INTER.ROT>
9

>  <SCORE.INTER.SOLV>
9.16748

>  <SCORE.INTER.VDW>
-8.51697

>  <SCORE.INTER.norm>
0.47756

>  <SCORE.INTRA>
-13.1806

>  <SCORE.INTRA.DIHEDRAL>
-24.5569

>  <SCORE.INTRA.DIHEDRAL.0>
25.6828

>  <SCORE.INTRA.POLAR>
0

>  <SCORE.INTRA.POLAR.0>
0

>  <SCORE.INTRA.REPUL>
0

>  <SCORE.INTRA.REPUL.0>
0

>  <SCORE.INTRA.SOLV>
-1.28094

>  <SCORE.INTRA.SOLV.lig_0>
-48.5059

>  <SCORE.INTRA.VDW>
-0.261729

>  <SCORE.INTRA.VDW.0>
-0.363643

>  <SCORE.INTRA.norm>
-1.01389

>  <SCORE.RESTR>
0

>  <SCORE.RESTR.CAVITY>
0

>  <SCORE.RESTR.norm>
0

>  <SCORE.SYSTEM>
0

>  <SCORE.SYSTEM.CONST>
0

>  <SCORE.SYSTEM.DIHEDRAL>
0

>  <SCORE.SYSTEM.SOLV>
0

>  <SCORE.SYSTEM.norm>
0

>  <SCORE.heavy>
13

>  <SCORE.norm>
-0.536334

>  <RMSD>
5.766

$$$$
ligand
 OpenBabel11021811453D
libRbt.so/2013.1/901 2013/11/27
 13 12  0  0  0  0  0  0  0  0999 V2000
   30.7812   34.2426   44.6682 O   0  0  0  0  0  0  0  0  0  0  0  0
   32.7560   33.1037   46.5422 O   0  0  0  0  0  0  0  0  0  0  0  0
   29.4673   37.6586   47.1030 P   0  0  2  0  0  0  0  0  0  0  0  0
   29.1389   38.5952   45.9892 O   0  5  0  0  0  0  0  0  0  0  0  0
   30.5469   38.0159   48.0589 O   0  0  0  0  0  0  0  0  0  0  0  0
   29.8290   36.2409   46.4893 O   0  0  0  0  0  0  0  0  0  0  0  0
   30.9145   31.9843   48.4510 O   0  0  0  0  0  0  0  0  0  0  0  0
   28.9570   35.5983   45.5482 C   0  0  0  0  0  0  0  0  0  0  0  0
   31.8003   32.2909   45.8140 C   0  0  0  0  0  0  0  0  0  0  0  0
   32.0569   32.7257   48.8541 C   0  0  0  0  0  0  0  0  0  0  0  0
   29.4645   34.1776   45.2482 C   0  0  0  0  0  0  0  0  0  0  0  0
   31.3989   32.9409   44.4670 C   0  0  0  0  0  0  0  0  0  0  0  0
   33.1590   32.5145   47.8008 C   0  0  0  0  0  0  0  0  0  0  0  0
  1 12  1  0  0  0  0
  1 11  1  0  0  0  0
  2 13  1  0  0  0  0
  2  9  1  0  0  0  0
  3  4  1  6  0  0  0
  3  5  2  0  0  0  0
  3  6  1  0  0  0  0
  6  8  1  0  0  0  0
  7 10  1  0  0  0  0
  8 11  1  0  0  0  0
  9 12  1  0  0  0  0
 10 13  1  0  0  0  0
M  CHG  1   4  -1
M  END
>  <CHROM.1>
-70.83614865,-77.68407294,-51.19299777,-173.35952532,-61.12588609,-179.47007580
-60.37510465,65.99038182,174.43177947,30.67663116,34.90751809,46.59507428
0.54256546,1.03973742,-2.23232932

>  <Name>
ligand

>  <RI>
0

>  <Rbt.Current_Directory>
/home/itssahil/PROJECTS/Mol_Feturizer/New_Systems/rnas/2NPY

>  <Rbt.Executable>
rbdock ($Id: //depot/dev/client3/rdock/2013.1/src/exe/rbdock.cxx#4 $)

>  <Rbt.Library>
libRbt.so (2013.1, Build901 2013/11/27)

>  <Rbt.Parameter_File>
/export/apps/rDock/src/rDock_2013.1_src/data/scripts/dock_solv.prm

>  <Rbt.Receptor>
prm/pocket_docking_2.prm

>  <SCORE>
-2.34143

>  <SCORE.INTER>
9.1035

>  <SCORE.INTER.CONST>
1

>  <SCORE.INTER.POLAR>
0

>  <SCORE.INTER.ROT>
9

>  <SCORE.INTER.SOLV>
7.86315

>  <SCORE.INTER.VDW>
-6.15205

>  <SCORE.INTER.norm>
0.700269

>  <SCORE.INTRA>
-11.4662

>  <SCORE.INTRA.DIHEDRAL>
-23.1308

>  <SCORE.INTRA.DIHEDRAL.0>
25.6828

>  <SCORE.INTRA.POLAR>
0

>  <SCORE.INTRA.POLAR.0>
0

>  <SCORE.INTRA.REPUL>
0

>  <SCORE.INTRA.REPUL.0>
0

>  <SCORE.INTRA.SOLV>
-0.607397

>  <SCORE.INTRA.SOLV.lig_0>
-48.5059

>  <SCORE.INTRA.VDW>
0.402953

>  <SCORE.INTRA.VDW.0>
-0.363643

>  <SCORE.INTRA.norm>
-0.882012

>  <SCORE.RESTR>
0.0212255

>  <SCORE.RESTR.CAVITY>
0.0212255

>  <SCORE.RESTR.norm>
0.00163273

>  <SCORE.SYSTEM>
0

>  <SCORE.SYSTEM.CONST>
0

>  <SCORE.SYSTEM.DIHEDRAL>
0

>  <SCORE.SYSTEM.SOLV>
0

>  <SCORE.SYSTEM.norm>
0

>  <SCORE.heavy>
13

>  <SCORE.norm>
-0.18011

>  <RMSD>
5.778

$$$$
ligand
 OpenBabel11021811453D
libRbt.so/2013.1/901 2013/11/27
 13 12  0  0  0  0  0  0  0  0999 V2000
   30.2011   33.8491   44.8926 O   0  0  0  0  0  0  0  0  0  0  0  0
   31.1502   32.7288   47.5251 O   0  0  0  0  0  0  0  0  0  0  0  0
   29.9088   37.3118   47.3221 P   0  0  2  0  0  0  0  0  0  0  0  0
   29.6599   38.7317   46.9383 O   0  5  0  0  0  0  0  0  0  0  0  0
   31.0583   36.9883   48.2059 O   0  0  0  0  0  0  0  0  0  0  0  0
   30.0685   36.4456   46.0024 O   0  0  0  0  0  0  0  0  0  0  0  0
   33.4045   33.9913   48.4276 O   0  0  0  0  0  0  0  0  0  0  0  0
   28.9251   35.8746   45.3499 C   0  0  0  0  0  0  0  0  0  0  0  0
   30.4066   31.9890   46.5230 C   0  0  0  0  0  0  0  0  0  0  0  0
   32.9951   32.8245   49.1263 C   0  0  0  0  0  0  0  0  0  0  0  0
   29.3801   34.8637   44.2836 C   0  0  0  0  0  0  0  0  0  0  0  0
   29.4572   32.9075   45.7150 C   0  0  0  0  0  0  0  0  0  0  0  0
   32.1903   31.9437   48.1539 C   0  0  0  0  0  0  0  0  0  0  0  0
  1 12  1  0  0  0  0
  1 11  1  0  0  0  0
  2 13  1  0  0  0  0
  2  9  1  0  0  0  0
  3  4  1  6  0  0  0
  3  5  2  0  0  0  0
  3  6  1  0  0  0  0
  6  8  1  0  0  0  0
  7 10  1  0  0  0  0
  8 11  1  0  0  0  0
  9 12  1  0  0  0  0
 10 13  1  0  0  0  0
M  CHG  1   4  -1
M  END
>  <CHROM.1>
-170.71055578,175.94125455,-87.36291758,-168.48404270,57.00826605,-171.02743810
66.98877907,-51.41060707,72.82518313,30.62948957,34.90879893,46.85742354
0.90490234,0.85864094,-2.84162017

>  <Name>
ligand

>  <RI>
0

>  <Rbt.Current_Directory>
/home/itssahil/PROJECTS/Mol_Feturizer/New_Systems/rnas/2NPY

>  <Rbt.Executable>
rbdock ($Id: //depot/dev/client3/rdock/2013.1/src/exe/rbdock.cxx#4 $)

>  <Rbt.Library>
libRbt.so (2013.1, Build901 2013/11/27)

>  <Rbt.Parameter_File>
/export/apps/rDock/src/rDock_2013.1_src/data/scripts/dock_solv.prm

>  <Rbt.Receptor>
prm/pocket_docking_2.prm

>  <SCORE>
-2.48986

>  <SCORE.INTER>
8.66432

>  <SCORE.INTER.CONST>
1

>  <SCORE.INTER.POLAR>
0

>  <SCORE.INTER.ROT>
9

>  <SCORE.INTER.SOLV>
6.03645

>  <SCORE.INTER.VDW>
-5.83594

>  <SCORE.INTER.norm>
0.666486

>  <SCORE.INTRA>
-12.0263

>  <SCORE.INTRA.DIHEDRAL>
-21.9839

>  <SCORE.INTRA.DIHEDRAL.0>
25.6828

>  <SCORE.INTRA.POLAR>
0

>  <SCORE.INTRA.POLAR.0>
0

>  <SCORE.INTRA.REPUL>
0

>  <SCORE.INTRA.REPUL.0>
0

>  <SCORE.INTRA.SOLV>
-0.488007

>  <SCORE.INTRA.SOLV.lig_0>
-48.5059

>  <SCORE.INTRA.VDW>
-0.790332

>  <SCORE.INTRA.VDW.0>
-0.363643

>  <SCORE.INTRA.norm>
-0.9251

>  <SCORE.RESTR>
0.872121

>  <SCORE.RESTR.CAVITY>
0.872121

>  <SCORE.RESTR.norm>
0.0670862

>  <SCORE.SYSTEM>
0

>  <SCORE.SYSTEM.CONST>
0

>  <SCORE.SYSTEM.DIHEDRAL>
0

>  <SCORE.SYSTEM.SOLV>
0

>  <SCORE.SYSTEM.norm>
0

>  <SCORE.heavy>
13

>  <SCORE.norm>
-0.191528

>  <RMSD>
5.794

$$$$
ligand
 OpenBabel11021811453D
libRbt.so/2013.1/901 2013/11/27
 13 12  0  0  0  0  0  0  0  0999 V2000
   30.0764   33.9682   45.2430 O   0  0  0  0  0  0  0  0  0  0  0  0
   31.7226   31.4995   45.9941 O   0  0  0  0  0  0  0  0  0  0  0  0
   30.2630   37.5014   47.7955 P   0  0  2  0  0  0  0  0  0  0  0  0
   30.9812   38.3952   46.8411 O   0  5  0  0  0  0  0  0  0  0  0  0
   30.9151   37.1343   49.0788 O   0  0  0  0  0  0  0  0  0  0  0  0
   29.8912   36.1509   47.0505 O   0  0  0  0  0  0  0  0  0  0  0  0
   31.8052   31.6266   48.8265 O   0  0  0  0  0  0  0  0  0  0  0  0
   29.1829   36.1656   45.8027 C   0  0  0  0  0  0  0  0  0  0  0  0
   31.2144   31.8361   44.6777 C   0  0  0  0  0  0  0  0  0  0  0  0
   32.8534   32.1878   48.0494 C   0  0  0  0  0  0  0  0  0  0  0  0
   28.8583   34.7267   45.3667 C   0  0  0  0  0  0  0  0  0  0  0  0
   29.8764   32.6116   44.7573 C   0  0  0  0  0  0  0  0  0  0  0  0
   32.2598   32.6405   46.7034 C   0  0  0  0  0  0  0  0  0  0  0  0
  1 12  1  0  0  0  0
  1 11  1  0  0  0  0
  2 13  1  0  0  0  0
  2  9  1  0  0  0  0
  3  4  1  6  0  0  0
  3  5  2  0  0  0  0
  3  6  1  0  0  0  0
  6  8  1  0  0  0  0
  7 10  1  0  0  0  0
  8 11  1  0  0  0  0
  9 12  1  0  0  0  0
 10 13  1  0  0  0  0
M  CHG  1   4  -1
M  END
>  <CHROM.1>
-178.62829142,-176.58906677,-52.75847061,-175.47027058,-58.38898463,-73.30838682
71.73708402,-61.78423697,-176.58715052,30.72919899,34.62091718,46.75374400
1.18873937,0.95387812,-2.62394284

>  <Name>
ligand

>  <RI>
0

>  <Rbt.Current_Directory>
/home/itssahil/PROJECTS/Mol_Feturizer/New_Systems/rnas/2NPY

>  <Rbt.Executable>
rbdock ($Id: //depot/dev/client3/rdock/2013.1/src/exe/rbdock.cxx#4 $)

>  <Rbt.Library>
libRbt.so (2013.1, Build901 2013/11/27)

>  <Rbt.Parameter_File>
/export/apps/rDock/src/rDock_2013.1_src/data/scripts/dock_solv.prm

>  <Rbt.Receptor>
prm/pocket_docking_3.prm

>  <SCORE>
-5.66831

>  <SCORE.INTER>
7.35818

>  <SCORE.INTER.CONST>
1

>  <SCORE.INTER.POLAR>
0

>  <SCORE.INTER.ROT>
9

>  <SCORE.INTER.SOLV>
8.82279

>  <SCORE.INTER.VDW>
-7.63548

>  <SCORE.INTER.norm>
0.566014

>  <SCORE.INTRA>
-13.0265

>  <SCORE.INTRA.DIHEDRAL>
-24.0583

>  <SCORE.INTRA.DIHEDRAL.0>
25.6828

>  <SCORE.INTRA.POLAR>
0

>  <SCORE.INTRA.POLAR.0>
0

>  <SCORE.INTRA.REPUL>
0

>  <SCORE.INTRA.REPUL.0>
0

>  <SCORE.INTRA.SOLV>
-0.913255

>  <SCORE.INTRA.SOLV.lig_0>
-48.5059

>  <SCORE.INTRA.VDW>
-0.540715

>  <SCORE.INTRA.VDW.0>
-0.363643

>  <SCORE.INTRA.norm>
-1.00204

>  <SCORE.RESTR>
0

>  <SCORE.RESTR.CAVITY>
0

>  <SCORE.RESTR.norm>
0

>  <SCORE.SYSTEM>
0

>  <SCORE.SYSTEM.CONST>
0

>  <SCORE.SYSTEM.DIHEDRAL>
0

>  <SCORE.SYSTEM.SOLV>
0

>  <SCORE.SYSTEM.norm>
0

>  <SCORE.heavy>
13

>  <SCORE.norm>
-0.436024

>  <RMSD>
5.807

$$$$
ligand
 OpenBabel11021811453D
libRbt.so/2013.1/901 2013/11/27
 13 12  0  0  0  0  0  0  0  0999 V2000
   30.8935   34.3677   44.7516 O   0  0  0  0  0  0  0  0  0  0  0  0
   32.3124   32.5726   46.5734 O   0  0  0  0  0  0  0  0  0  0  0  0
   29.8484   38.0470   46.7500 P   0  0  2  0  0  0  0  0  0  0  0  0
   30.5754   38.0010   48.0518 O   0  5  0  0  0  0  0  0  0  0  0  0
   28.4452   38.5336   46.7177 O   0  0  0  0  0  0  0  0  0  0  0  0
   29.8612   36.5973   46.1054 O   0  0  0  0  0  0  0  0  0  0  0  0
   31.0214   33.4440   48.9521 O   0  0  0  0  0  0  0  0  0  0  0  0
   29.5520   36.4023   44.7179 C   0  0  0  0  0  0  0  0  0  0  0  0
   32.3140   32.3692   45.1371 C   0  0  0  0  0  0  0  0  0  0  0  0
   31.3545   32.0757   48.7671 C   0  0  0  0  0  0  0  0  0  0  0  0
   29.6119   34.9046   44.3725 C   0  0  0  0  0  0  0  0  0  0  0  0
   31.0411   32.9478   44.4716 C   0  0  0  0  0  0  0  0  0  0  0  0
   31.3177   31.7755   47.2580 C   0  0  0  0  0  0  0  0  0  0  0  0
  1 12  1  0  0  0  0
  1 11  1  0  0  0  0
  2 13  1  0  0  0  0
  2  9  1  0  0  0  0
  3  4  1  1  0  0  0
  3  5  2  0  0  0  0
  3  6  1  0  0  0  0
  6  8  1  0  0  0  0
  7 10  1  0  0  0  0
  8 11  1  0  0  0  0
  9 12  1  0  0  0  0
 10 13  1  0  0  0  0
M  CHG  1   4  -1
M  END
>  <CHROM.1>
-169.11707568,-178.47788170,-163.67669285,-178.85384290,-54.70755203,69.29416749
57.55619515,62.47097694,179.56197995,30.55826394,35.08066762,46.41570065
0.25783244,1.19571515,-1.85857357

>  <Name>
ligand

>  <RI>
0

>  <Rbt.Current_Directory>
/home/itssahil/PROJECTS/Mol_Feturizer/New_Systems/rnas/2NPY

>  <Rbt.Executable>
rbdock ($Id: //depot/dev/client3/rdock/2013.1/src/exe/rbdock.cxx#4 $)

>  <Rbt.Library>
libRbt.so (2013.1, Build901 2013/11/27)

>  <Rbt.Parameter_File>
/export/apps/rDock/src/rDock_2013.1_src/data/scripts/dock_solv.prm

>  <Rbt.Receptor>
prm/pocket_docking_2.prm

>  <SCORE>
-3.61226

>  <SCORE.INTER>
9.58255

>  <SCORE.INTER.CONST>
1

>  <SCORE.INTER.POLAR>
0

>  <SCORE.INTER.ROT>
9

>  <SCORE.INTER.SOLV>
5.9665

>  <SCORE.INTER.VDW>
-5.20046

>  <SCORE.INTER.norm>
0.73712

>  <SCORE.INTRA>
-13.2227

>  <SCORE.INTRA.DIHEDRAL>
-24.3697

>  <SCORE.INTRA.DIHEDRAL.0>
25.6828

>  <SCORE.INTRA.POLAR>
0

>  <SCORE.INTRA.POLAR.0>
0

>  <SCORE.INTRA.REPUL>
0

>  <SCORE.INTRA.REPUL.0>
0

>  <SCORE.INTRA.SOLV>
-0.934999

>  <SCORE.INTRA.SOLV.lig_0>
-48.5059

>  <SCORE.INTRA.VDW>
-0.57037

>  <SCORE.INTRA.VDW.0>
-0.363643

>  <SCORE.INTRA.norm>
-1.01713

>  <SCORE.RESTR>
0.0279259

>  <SCORE.RESTR.CAVITY>
0.0279259

>  <SCORE.RESTR.norm>
0.00214815

>  <SCORE.SYSTEM>
0

>  <SCORE.SYSTEM.CONST>
0

>  <SCORE.SYSTEM.DIHEDRAL>
0

>  <SCORE.SYSTEM.SOLV>
0

>  <SCORE.SYSTEM.norm>
0

>  <SCORE.heavy>
13

>  <SCORE.norm>
-0.277866

>  <RMSD>
5.812

$$$$
ligand
 OpenBabel11021811453D
libRbt.so/2013.1/901 2013/11/27
 13 12  0  0  0  0  0  0  0  0999 V2000
   30.0495   32.9685   46.1163 O   0  0  0  0  0  0  0  0  0  0  0  0
   31.7773   31.6609   48.0629 O   0  0  0  0  0  0  0  0  0  0  0  0
   29.9892   37.1164   44.8477 P   0  0  2  0  0  0  0  0  0  0  0  0
   31.4431   37.1950   44.5232 O   0  5  0  0  0  0  0  0  0  0  0  0
   29.4415   37.9606   45.9406 O   0  0  0  0  0  0  0  0  0  0  0  0
   29.6207   35.6102   45.1836 O   0  0  0  0  0  0  0  0  0  0  0  0
   34.1407   33.0831   48.7688 O   0  0  0  0  0  0  0  0  0  0  0  0
   29.9307   34.5510   44.2666 C   0  0  0  0  0  0  0  0  0  0  0  0
   30.3353   31.5084   48.1030 C   0  0  0  0  0  0  0  0  0  0  0  0
   33.9153   31.7637   49.2441 C   0  0  0  0  0  0  0  0  0  0  0  0
   29.4416   33.2070   44.8326 C   0  0  0  0  0  0  0  0  0  0  0  0
   29.6979   31.6844   46.7028 C   0  0  0  0  0  0  0  0  0  0  0  0
   32.3955   31.5539   49.3668 C   0  0  0  0  0  0  0  0  0  0  0  0
  1 12  1  0  0  0  0
  1 11  1  0  0  0  0
  2 13  1  0  0  0  0
  2  9  1  0  0  0  0
  3  4  1  1  0  0  0
  3  5  2  0  0  0  0
  3  6  1  0  0  0  0
  6  8  1  0  0  0  0
  7 10  1  0  0  0  0
  8 11  1  0  0  0  0
  9 12  1  0  0  0  0
 10 13  1  0  0  0  0
M  CHG  1   4  -1
M  END
>  <CHROM.1>
-177.78908642,-178.49489942,-54.00091004,-178.97816192,-57.77761966,177.69999031
-56.22849572,62.86072855,-177.08050792,30.86868994,34.15001274,46.46053935
1.10579171,0.61924370,2.78717712

>  <Name>
ligand

>  <RI>
0

>  <Rbt.Current_Directory>
/home/itssahil/PROJECTS/Mol_Feturizer/New_Systems/rnas/2NPY

>  <Rbt.Executable>
rbdock ($Id: //depot/dev/client3/rdock/2013.1/src/exe/rbdock.cxx#4 $)

>  <Rbt.Library>
libRbt.so (2013.1, Build901 2013/11/27)

>  <Rbt.Parameter_File>
/export/apps/rDock/src/rDock_2013.1_src/data/scripts/dock_solv.prm

>  <Rbt.Receptor>
prm/pocket_docking_3.prm

>  <SCORE>
-7.1851

>  <SCORE.INTER>
7.16957

>  <SCORE.INTER.CONST>
1

>  <SCORE.INTER.POLAR>
0

>  <SCORE.INTER.ROT>
9

>  <SCORE.INTER.SOLV>
2.97905

>  <SCORE.INTER.VDW>
-5.8133

>  <SCORE.INTER.norm>
0.551505

>  <SCORE.INTRA>
-14.3547

>  <SCORE.INTRA.DIHEDRAL>
-25.4411

>  <SCORE.INTRA.DIHEDRAL.0>
25.6828

>  <SCORE.INTRA.POLAR>
0

>  <SCORE.INTRA.POLAR.0>
0

>  <SCORE.INTRA.REPUL>
0

>  <SCORE.INTRA.REPUL.0>
0

>  <SCORE.INTRA.SOLV>
-1.01547

>  <SCORE.INTRA.SOLV.lig_0>
-48.5059

>  <SCORE.INTRA.VDW>
-1.1264

>  <SCORE.INTRA.VDW.0>
-0.363643

>  <SCORE.INTRA.norm>
-1.10421

>  <SCORE.RESTR>
0

>  <SCORE.RESTR.CAVITY>
0

>  <SCORE.RESTR.norm>
0

>  <SCORE.SYSTEM>
0

>  <SCORE.SYSTEM.CONST>
0

>  <SCORE.SYSTEM.DIHEDRAL>
0

>  <SCORE.SYSTEM.SOLV>
0

>  <SCORE.SYSTEM.norm>
0

>  <SCORE.heavy>
13

>  <SCORE.norm>
-0.5527

>  <RMSD>
5.820

$$$$
ligand
 OpenBabel11021811453D
libRbt.so/2013.1/901 2013/11/27
 13 12  0  0  0  0  0  0  0  0999 V2000
   30.4013   33.9571   44.8236 O   0  0  0  0  0  0  0  0  0  0  0  0
   32.1619   32.0797   46.4110 O   0  0  0  0  0  0  0  0  0  0  0  0
   29.7851   37.4030   47.3044 P   0  0  2  0  0  0  0  0  0  0  0  0
   29.2001   38.5968   47.9813 O   0  5  0  0  0  0  0  0  0  0  0  0
   31.2250   37.4072   46.9390 O   0  0  0  0  0  0  0  0  0  0  0  0
   28.9618   37.1115   45.9798 O   0  0  0  0  0  0  0  0  0  0  0  0
   32.2457   31.9930   49.0885 O   0  0  0  0  0  0  0  0  0  0  0  0
   28.9119   35.7932   45.4153 C   0  0  0  0  0  0  0  0  0  0  0  0
   32.0014   32.0652   44.9694 C   0  0  0  0  0  0  0  0  0  0  0  0
   31.2170   32.8078   48.5449 C   0  0  0  0  0  0  0  0  0  0  0  0
   30.3028   35.3922   44.8953 C   0  0  0  0  0  0  0  0  0  0  0  0
   31.7106   33.4786   44.4075 C   0  0  0  0  0  0  0  0  0  0  0  0
   30.9212   32.3139   47.1175 C   0  0  0  0  0  0  0  0  0  0  0  0
  1 12  1  0  0  0  0
  1 11  1  0  0  0  0
  2 13  1  0  0  0  0
  2  9  1  0  0  0  0
  3  4  1  6  0  0  0
  3  5  2  0  0  0  0
  3  6  1  0  0  0  0
  6  8  1  0  0  0  0
  7 10  1  0  0  0  0
  8 11  1  0  0  0  0
  9 12  1  0  0  0  0
 10 13  1  0  0  0  0
M  CHG  1   4  -1
M  END
>  <CHROM.1>
152.69587002,-159.97449914,-154.77718121,-67.00072551,157.49291419,71.03466875
-67.97920611,-44.98361067,-176.93042248,30.62293153,34.89792954,46.54397568
0.33944586,1.15331435,-1.89396953

>  <Name>
ligand

>  <RI>
0

>  <Rbt.Current_Directory>
/home/itssahil/PROJECTS/Mol_Feturizer/New_Systems/rnas/2NPY

>  <Rbt.Executable>
rbdock ($Id: //depot/dev/client3/rdock/2013.1/src/exe/rbdock.cxx#4 $)

>  <Rbt.Library>
libRbt.so (2013.1, Build901 2013/11/27)

>  <Rbt.Parameter_File>
/export/apps/rDock/src/rDock_2013.1_src/data/scripts/dock_solv.prm

>  <Rbt.Receptor>
prm/pocket_docking_2.prm

>  <SCORE>
2.18118

>  <SCORE.INTER>
10.1391

>  <SCORE.INTER.CONST>
1

>  <SCORE.INTER.POLAR>
0

>  <SCORE.INTER.ROT>
9

>  <SCORE.INTER.SOLV>
8.32035

>  <SCORE.INTER.VDW>
-5.61407

>  <SCORE.INTER.norm>
0.779929

>  <SCORE.INTRA>
-8.04113

>  <SCORE.INTRA.DIHEDRAL>
-16.7474

>  <SCORE.INTRA.DIHEDRAL.0>
25.6828

>  <SCORE.INTRA.POLAR>
0

>  <SCORE.INTRA.POLAR.0>
0

>  <SCORE.INTRA.REPUL>
0

>  <SCORE.INTRA.REPUL.0>
0

>  <SCORE.INTRA.SOLV>
0.866725

>  <SCORE.INTRA.SOLV.lig_0>
-48.5059

>  <SCORE.INTRA.VDW>
-0.100806

>  <SCORE.INTRA.VDW.0>
-0.363643

>  <SCORE.INTRA.norm>
-0.618549

>  <SCORE.RESTR>
0.0832364

>  <SCORE.RESTR.CAVITY>
0.0832364

>  <SCORE.RESTR.norm>
0.0064028

>  <SCORE.SYSTEM>
0

>  <SCORE.SYSTEM.CONST>
0

>  <SCORE.SYSTEM.DIHEDRAL>
0

>  <SCORE.SYSTEM.SOLV>
0

>  <SCORE.SYSTEM.norm>
0

>  <SCORE.heavy>
13

>  <SCORE.norm>
0.167783

>  <RMSD>
5.830

$$$$
ligand
 OpenBabel11021811453D
libRbt.so/2013.1/901 2013/11/27
 13 12  0  0  0  0  0  0  0  0999 V2000
   29.3347   33.4401   46.1024 O   0  0  0  0  0  0  0  0  0  0  0  0
   31.8171   32.2446   47.1379 O   0  0  0  0  0  0  0  0  0  0  0  0
   30.0826   37.5397   47.5433 P   0  0  2  0  0  0  0  0  0  0  0  0
   30.1692   38.6377   46.5372 O   0  5  0  0  0  0  0  0  0  0  0  0
   31.0507   37.5075   48.6696 O   0  0  0  0  0  0  0  0  0  0  0  0
   30.1863   36.1468   46.7906 O   0  0  0  0  0  0  0  0  0  0  0  0
   33.2010   33.6862   49.1230 O   0  0  0  0  0  0  0  0  0  0  0  0
   29.3298   35.8405   45.6808 C   0  0  0  0  0  0  0  0  0  0  0  0
   31.3112   31.9681   45.8068 C   0  0  0  0  0  0  0  0  0  0  0  0
   33.7173   32.4456   48.6629 C   0  0  0  0  0  0  0  0  0  0  0  0
   29.6675   34.4459   45.1268 C   0  0  0  0  0  0  0  0  0  0  0  0
   29.7700   32.1010   45.7368 C   0  0  0  0  0  0  0  0  0  0  0  0
   33.2624   32.2505   47.2055 C   0  0  0  0  0  0  0  0  0  0  0  0
  1 12  1  0  0  0  0
  1 11  1  0  0  0  0
  2 13  1  0  0  0  0
  2  9  1  0  0  0  0
  3  4  1  6  0  0  0
  3  5  2  0  0  0  0
  3  6  1  0  0  0  0
  6  8  1  0  0  0  0
  7 10  1  0  0  0  0
  8 11  1  0  0  0  0
  9 12  1  0  0  0  0
 10 13  1  0  0  0  0
M  CHG  1   4  -1
M  END
>  <CHROM.1>
70.31816040,-175.80443141,-52.31384194,178.71913719,66.52395247,-174.58239685
59.55698289,-59.79037033,-172.82153124,30.91743593,34.77123215,47.00743651
1.06497802,0.71249860,-2.80724549

>  <Name>
ligand

>  <RI>
0

>  <Rbt.Current_Directory>
/home/itssahil/PROJECTS/Mol_Feturizer/New_Systems/rnas/2NPY

>  <Rbt.Executable>
rbdock ($Id: //depot/dev/client3/rdock/2013.1/src/exe/rbdock.cxx#4 $)

>  <Rbt.Library>
libRbt.so (2013.1, Build901 2013/11/27)

>  <Rbt.Parameter_File>
/export/apps/rDock/src/rDock_2013.1_src/data/scripts/dock_solv.prm

>  <Rbt.Receptor>
prm/pocket_docking_3.prm

>  <SCORE>
-6.10394

>  <SCORE.INTER>
7.19803

>  <SCORE.INTER.CONST>
1

>  <SCORE.INTER.POLAR>
0

>  <SCORE.INTER.ROT>
9

>  <SCORE.INTER.SOLV>
6.13567

>  <SCORE.INTER.VDW>
-6.84653

>  <SCORE.INTER.norm>
0.553695

>  <SCORE.INTRA>
-13.3042

>  <SCORE.INTRA.DIHEDRAL>
-24.484

>  <SCORE.INTRA.DIHEDRAL.0>
25.6828

>  <SCORE.INTRA.POLAR>
0

>  <SCORE.INTRA.POLAR.0>
0

>  <SCORE.INTRA.REPUL>
0

>  <SCORE.INTRA.REPUL.0>
0

>  <SCORE.INTRA.SOLV>
-0.984292

>  <SCORE.INTRA.SOLV.lig_0>
-48.5059

>  <SCORE.INTRA.VDW>
-0.570059

>  <SCORE.INTRA.VDW.0>
-0.363643

>  <SCORE.INTRA.norm>
-1.0234

>  <SCORE.RESTR>
0.0022338

>  <SCORE.RESTR.CAVITY>
0.0022338

>  <SCORE.RESTR.norm>
0.000171831

>  <SCORE.SYSTEM>
0

>  <SCORE.SYSTEM.CONST>
0

>  <SCORE.SYSTEM.DIHEDRAL>
0

>  <SCORE.SYSTEM.SOLV>
0

>  <SCORE.SYSTEM.norm>
0

>  <SCORE.heavy>
13

>  <SCORE.norm>
-0.469534

>  <RMSD>
5.830

$$$$
ligand
 OpenBabel11021811453D
libRbt.so/2013.1/901 2013/11/27
 13 12  0  0  0  0  0  0  0  0999 V2000
   30.2133   34.2683   45.4460 O   0  0  0  0  0  0  0  0  0  0  0  0
   32.0322   32.1339   46.6388 O   0  0  0  0  0  0  0  0  0  0  0  0
   29.5767   37.5486   46.9291 P   0  0  2  0  0  0  0  0  0  0  0  0
   28.4568   38.4447   46.5190 O   0  5  0  0  0  0  0  0  0  0  0  0
   30.5644   38.0302   47.9287 O   0  0  0  0  0  0  0  0  0  0  0  0
   30.3861   37.1162   45.6348 O   0  0  0  0  0  0  0  0  0  0  0  0
   33.0128   33.7070   48.7310 O   0  0  0  0  0  0  0  0  0  0  0  0
   31.5513   36.2848   45.7348 C   0  0  0  0  0  0  0  0  0  0  0  0
   30.9361   31.9092   45.7156 C   0  0  0  0  0  0  0  0  0  0  0  0
   32.8120   32.3178   48.9485 C   0  0  0  0  0  0  0  0  0  0  0  0
   31.1679   34.9114   46.3117 C   0  0  0  0  0  0  0  0  0  0  0  0
   29.8036   32.9488   45.9015 C   0  0  0  0  0  0  0  0  0  0  0  0
   31.6840   31.8465   48.0134 C   0  0  0  0  0  0  0  0  0  0  0  0
  1 12  1  0  0  0  0
  1 11  1  0  0  0  0
  2 13  1  0  0  0  0
  2  9  1  0  0  0  0
  3  4  1  6  0  0  0
  3  5  2  0  0  0  0
  3  6  1  0  0  0  0
  6  8  1  0  0  0  0
  7 10  1  0  0  0  0
  8 11  1  0  0  0  0
  9 12  1  0  0  0  0
 10 13  1  0  0  0  0
M  CHG  1   4  -1
M  END
>  <CHROM.1>
-72.20960705,-171.03828738,177.89671653,63.01673858,60.40339200,69.23883070
70.38347949,57.59643840,179.16079641,30.81993585,35.00444216,46.81479214
0.91976459,0.89602900,-2.73648608

>  <Name>
ligand

>  <RI>
0

>  <Rbt.Current_Directory>
/home/itssahil/PROJECTS/Mol_Feturizer/New_Systems/rnas/2NPY

>  <Rbt.Executable>
rbdock ($Id: //depot/dev/client3/rdock/2013.1/src/exe/rbdock.cxx#4 $)

>  <Rbt.Library>
libRbt.so (2013.1, Build901 2013/11/27)

>  <Rbt.Parameter_File>
/export/apps/rDock/src/rDock_2013.1_src/data/scripts/dock_solv.prm

>  <Rbt.Receptor>
prm/pocket_docking_2.prm

>  <SCORE>
-1.44677

>  <SCORE.INTER>
9.12102

>  <SCORE.INTER.CONST>
1

>  <SCORE.INTER.POLAR>
0

>  <SCORE.INTER.ROT>
9

>  <SCORE.INTER.SOLV>
6.25263

>  <SCORE.INTER.VDW>
-5.60353

>  <SCORE.INTER.norm>
0.701617

>  <SCORE.INTRA>
-10.593

>  <SCORE.INTRA.DIHEDRAL>
-23.616

>  <SCORE.INTRA.DIHEDRAL.0>
25.6828

>  <SCORE.INTRA.POLAR>
0

>  <SCORE.INTRA.POLAR.0>
0

>  <SCORE.INTRA.REPUL>
0

>  <SCORE.INTRA.REPUL.0>
0

>  <SCORE.INTRA.SOLV>
1.5376

>  <SCORE.INTRA.SOLV.lig_0>
-48.5059

>  <SCORE.INTRA.VDW>
0.446175

>  <SCORE.INTRA.VDW.0>
-0.363643

>  <SCORE.INTRA.norm>
-0.81485

>  <SCORE.RESTR>
0.0252605

>  <SCORE.RESTR.CAVITY>
0.0252605

>  <SCORE.RESTR.norm>
0.00194312

>  <SCORE.SYSTEM>
0

>  <SCORE.SYSTEM.CONST>
0

>  <SCORE.SYSTEM.DIHEDRAL>
0

>  <SCORE.SYSTEM.SOLV>
0

>  <SCORE.SYSTEM.norm>
0

>  <SCORE.heavy>
13

>  <SCORE.norm>
-0.11129

>  <RMSD>
5.849

$$$$
ligand
 OpenBabel11021811453D
libRbt.so/2013.1/901 2013/11/27
 13 12  0  0  0  0  0  0  0  0999 V2000
   30.9974   33.4040   44.5461 O   0  0  0  0  0  0  0  0  0  0  0  0
   31.8864   32.1727   47.1258 O   0  0  0  0  0  0  0  0  0  0  0  0
   30.4219   37.6282   45.5640 P   0  0  2  0  0  0  0  0  0  0  0  0
   29.0550   38.2234   45.6159 O   0  5  0  0  0  0  0  0  0  0  0  0
   31.3513   38.0349   44.4788 O   0  0  0  0  0  0  0  0  0  0  0  0
   30.2900   36.0482   45.5063 O   0  0  0  0  0  0  0  0  0  0  0  0
   34.0425   31.8558   48.9298 O   0  0  0  0  0  0  0  0  0  0  0  0
   29.6078   35.4023   44.4217 C   0  0  0  0  0  0  0  0  0  0  0  0
   30.8818   31.6019   46.2489 C   0  0  0  0  0  0  0  0  0  0  0  0
   32.8187   32.4253   49.3716 C   0  0  0  0  0  0  0  0  0  0  0  0
   29.6388   33.8768   44.6165 C   0  0  0  0  0  0  0  0  0  0  0  0
   31.1328   31.9724   44.7664 C   0  0  0  0  0  0  0  0  0  0  0  0
   31.6821   31.8353   48.5179 C   0  0  0  0  0  0  0  0  0  0  0  0
  1 12  1  0  0  0  0
  1 11  1  0  0  0  0
  2 13  1  0  0  0  0
  2  9  1  0  0  0  0
  3  4  1  6  0  0  0
  3  5  2  0  0  0  0
  3  6  1  0  0  0  0
  6  8  1  0  0  0  0
  7 10  1  0  0  0  0
  8 11  1  0  0  0  0
  9 12  1  0  0  0  0
 10 13  1  0  0  0  0
M  CHG  1   4  -1
M  END
>  <CHROM.1>
-71.61604715,177.56267863,60.79069642,179.65329138,-64.61727672,-179.61100278
-64.84382990,-61.03891050,177.96401451,31.02234615,34.50968035,46.08048706
0.86390930,1.01114671,-2.98447210

>  <Name>
ligand

>  <RI>
0

>  <Rbt.Current_Directory>
/home/itssahil/PROJECTS/Mol_Feturizer/New_Systems/rnas/2NPY

>  <Rbt.Executable>
rbdock ($Id: //depot/dev/client3/rdock/2013.1/src/exe/rbdock.cxx#4 $)

>  <Rbt.Library>
libRbt.so (2013.1, Build901 2013/11/27)

>  <Rbt.Parameter_File>
/export/apps/rDock/src/rDock_2013.1_src/data/scripts/dock_solv.prm

>  <Rbt.Receptor>
prm/pocket_docking_3.prm

>  <SCORE>
-5.80369

>  <SCORE.INTER>
7.41326

>  <SCORE.INTER.CONST>
1

>  <SCORE.INTER.POLAR>
0

>  <SCORE.INTER.ROT>
9

>  <SCORE.INTER.SOLV>
3.29447

>  <SCORE.INTER.VDW>
-5.75598

>  <SCORE.INTER.norm>
0.570251

>  <SCORE.INTRA>
-13.2169

>  <SCORE.INTRA.DIHEDRAL>
-24.7637

>  <SCORE.INTRA.DIHEDRAL.0>
25.6828

>  <SCORE.INTRA.POLAR>
0

>  <SCORE.INTRA.POLAR.0>
0

>  <SCORE.INTRA.REPUL>
0

>  <SCORE.INTRA.REPUL.0>
0

>  <SCORE.INTRA.SOLV>
-0.569508

>  <SCORE.INTRA.SOLV.lig_0>
-48.5059

>  <SCORE.INTRA.VDW>
-0.550321

>  <SCORE.INTRA.VDW.0>
-0.363643

>  <SCORE.INTRA.norm>
-1.01669

>  <SCORE.RESTR>
0

>  <SCORE.RESTR.CAVITY>
0

>  <SCORE.RESTR.norm>
0

>  <SCORE.SYSTEM>
0

>  <SCORE.SYSTEM.CONST>
0

>  <SCORE.SYSTEM.DIHEDRAL>
0

>  <SCORE.SYSTEM.SOLV>
0

>  <SCORE.SYSTEM.norm>
0

>  <SCORE.heavy>
13

>  <SCORE.norm>
-0.446437

>  <RMSD>
5.854

$$$$
ligand
 OpenBabel11021811453D
libRbt.so/2013.1/901 2013/11/27
 13 12  0  0  0  0  0  0  0  0999 V2000
   29.7324   33.4439   45.3062 O   0  0  0  0  0  0  0  0  0  0  0  0
   31.3075   31.4203   46.8176 O   0  0  0  0  0  0  0  0  0  0  0  0
   29.9523   37.7729   45.0989 P   0  0  2  0  0  0  0  0  0  0  0  0
   31.4431   37.8002   45.0517 O   0  5  0  0  0  0  0  0  0  0  0  0
   29.2493   38.4116   46.2411 O   0  0  0  0  0  0  0  0  0  0  0  0
   29.4659   36.2643   45.0280 O   0  0  0  0  0  0  0  0  0  0  0  0
   34.1042   33.7736   47.1261 O   0  0  0  0  0  0  0  0  0  0  0  0
   29.7892   35.4354   43.9023 C   0  0  0  0  0  0  0  0  0  0  0  0
   29.8610   31.5187   46.8674 C   0  0  0  0  0  0  0  0  0  0  0  0
   33.4948   32.5074   46.9188 C   0  0  0  0  0  0  0  0  0  0  0  0
   29.2017   34.0279   44.1013 C   0  0  0  0  0  0  0  0  0  0  0  0
   29.2760   32.0842   45.5499 C   0  0  0  0  0  0  0  0  0  0  0  0
   31.9685   32.6982   46.9708 C   0  0  0  0  0  0  0  0  0  0  0  0
  1 12  1  0  0  0  0
  1 11  1  0  0  0  0
  2 13  1  0  0  0  0
  2  9  1  0  0  0  0
  3  4  1  1  0  0  0
  3  5  2  0  0  0  0
  3  6  1  0  0  0  0
  6  8  1  0  0  0  0
  7 10  1  0  0  0  0
  8 11  1  0  0  0  0
  9 12  1  0  0  0  0
 10 13  1  0  0  0  0
M  CHG  1   4  -1
M  END
>  <CHROM.1>
-179.11931848,179.52221174,-60.00489864,179.65191964,-59.08302223,76.04748644
-63.07620080,-177.69631971,-177.53096020,30.63341623,34.71203187,45.72304958
1.24110879,0.42321169,3.00920968

>  <Name>
ligand

>  <RI>
0

>  <Rbt.Current_Directory>
/home/itssahil/PROJECTS/Mol_Feturizer/New_Systems/rnas/2NPY

>  <Rbt.Executable>
rbdock ($Id: //depot/dev/client3/rdock/2013.1/src/exe/rbdock.cxx#4 $)

>  <Rbt.Library>
libRbt.so (2013.1, Build901 2013/11/27)

>  <Rbt.Parameter_File>
/export/apps/rDock/src/rDock_2013.1_src/data/scripts/dock_solv.prm

>  <Rbt.Receptor>
prm/pocket_docking_3.prm

>  <SCORE>
-5.48266

>  <SCORE.INTER>
7.69537

>  <SCORE.INTER.CONST>
1

>  <SCORE.INTER.POLAR>
0

>  <SCORE.INTER.ROT>
9

>  <SCORE.INTER.SOLV>
3.27943

>  <SCORE.INTER.VDW>
-5.56289

>  <SCORE.INTER.norm>
0.591952

>  <SCORE.INTRA>
-13.178

>  <SCORE.INTRA.DIHEDRAL>
-24.3327

>  <SCORE.INTRA.DIHEDRAL.0>
25.6828

>  <SCORE.INTRA.POLAR>
0

>  <SCORE.INTRA.POLAR.0>
0

>  <SCORE.INTRA.REPUL>
0

>  <SCORE.INTRA.REPUL.0>
0

>  <SCORE.INTRA.SOLV>
-1.12811

>  <SCORE.INTRA.SOLV.lig_0>
-48.5059

>  <SCORE.INTRA.VDW>
-0.447624

>  <SCORE.INTRA.VDW.0>
-0.363643

>  <SCORE.INTRA.norm>
-1.01369

>  <SCORE.RESTR>
0

>  <SCORE.RESTR.CAVITY>
0

>  <SCORE.RESTR.norm>
0

>  <SCORE.SYSTEM>
0

>  <SCORE.SYSTEM.CONST>
0

>  <SCORE.SYSTEM.DIHEDRAL>
0

>  <SCORE.SYSTEM.SOLV>
0

>  <SCORE.SYSTEM.norm>
0

>  <SCORE.heavy>
13

>  <SCORE.norm>
-0.421743

>  <RMSD>
5.854

$$$$
ligand
 OpenBabel11021811453D
libRbt.so/2013.1/901 2013/11/27
 13 12  0  0  0  0  0  0  0  0999 V2000
   29.3482   33.3357   46.1584 O   0  0  0  0  0  0  0  0  0  0  0  0
   31.1901   31.8394   47.9180 O   0  0  0  0  0  0  0  0  0  0  0  0
   30.1953   37.5585   45.7996 P   0  0  2  0  0  0  0  0  0  0  0  0
   29.8151   38.3348   44.5838 O   0  5  0  0  0  0  0  0  0  0  0  0
   31.5308   37.7758   46.4128 O   0  0  0  0  0  0  0  0  0  0  0  0
   30.0689   36.0100   45.4780 O   0  0  0  0  0  0  0  0  0  0  0  0
   32.9716   33.2732   49.5426 O   0  0  0  0  0  0  0  0  0  0  0  0
   28.8216   35.4426   45.0522 C   0  0  0  0  0  0  0  0  0  0  0  0
   29.9029   31.3201   47.4963 C   0  0  0  0  0  0  0  0  0  0  0  0
   33.0221   31.8538   49.5367 C   0  0  0  0  0  0  0  0  0  0  0  0
   28.9635   33.9188   44.8988 C   0  0  0  0  0  0  0  0  0  0  0  0
   29.4754   31.8870   46.1202 C   0  0  0  0  0  0  0  0  0  0  0  0
   31.6147   31.3276   49.2030 C   0  0  0  0  0  0  0  0  0  0  0  0
  1 12  1  0  0  0  0
  1 11  1  0  0  0  0
  2 13  1  0  0  0  0
  2  9  1  0  0  0  0
  3  4  1  6  0  0  0
  3  5  2  0  0  0  0
  3  6  1  0  0  0  0
  6  8  1  0  0  0  0
  7 10  1  0  0  0  0
  8 11  1  0  0  0  0
  9 12  1  0  0  0  0
 10 13  1  0  0  0  0
M  CHG  1   4  -1
M  END
>  <CHROM.1>
179.46845292,176.44030993,-58.51062865,-176.41466034,59.63944561,179.92221516
-60.71663679,58.61465299,178.56038752,30.52147055,34.47173101,46.69983854
1.24295411,0.75097027,2.84047286

>  <Name>
ligand

>  <RI>
0

>  <Rbt.Current_Directory>
/home/itssahil/PROJECTS/Mol_Feturizer/New_Systems/rnas/2NPY

>  <Rbt.Executable>
rbdock ($Id: //depot/dev/client3/rdock/2013.1/src/exe/rbdock.cxx#4 $)

>  <Rbt.Library>
libRbt.so (2013.1, Build901 2013/11/27)

>  <Rbt.Parameter_File>
/export/apps/rDock/src/rDock_2013.1_src/data/scripts/dock_solv.prm

>  <Rbt.Receptor>
prm/pocket_docking_3.prm

>  <SCORE>
-6.83629

>  <SCORE.INTER>
7.53323

>  <SCORE.INTER.CONST>
1

>  <SCORE.INTER.POLAR>
0

>  <SCORE.INTER.ROT>
9

>  <SCORE.INTER.SOLV>
3.69939

>  <SCORE.INTER.VDW>
-5.81098

>  <SCORE.INTER.norm>
0.579479

>  <SCORE.INTRA>
-14.37

>  <SCORE.INTRA.DIHEDRAL>
-25.492

>  <SCORE.INTRA.DIHEDRAL.0>
25.6828

>  <SCORE.INTRA.POLAR>
0

>  <SCORE.INTRA.POLAR.0>
0

>  <SCORE.INTRA.REPUL>
0

>  <SCORE.INTRA.REPUL.0>
0

>  <SCORE.INTRA.SOLV>
-1.03595

>  <SCORE.INTRA.SOLV.lig_0>
-48.5059

>  <SCORE.INTRA.VDW>
-1.10605

>  <SCORE.INTRA.VDW.0>
-0.363643

>  <SCORE.INTRA.norm>
-1.10539

>  <SCORE.RESTR>
0.000521476

>  <SCORE.RESTR.CAVITY>
0.000521476

>  <SCORE.RESTR.norm>
4.01135e-05

>  <SCORE.SYSTEM>
0

>  <SCORE.SYSTEM.CONST>
0

>  <SCORE.SYSTEM.DIHEDRAL>
0

>  <SCORE.SYSTEM.SOLV>
0

>  <SCORE.SYSTEM.norm>
0

>  <SCORE.heavy>
13

>  <SCORE.norm>
-0.525869

>  <RMSD>
5.856

$$$$
ligand
 OpenBabel11021811453D
libRbt.so/2013.1/901 2013/11/27
 13 12  0  0  0  0  0  0  0  0999 V2000
   30.3058   32.2336   46.8039 O   0  0  0  0  0  0  0  0  0  0  0  0
   32.3064   31.3299   48.7294 O   0  0  0  0  0  0  0  0  0  0  0  0
   29.9033   35.9970   44.6504 P   0  0  2  0  0  0  0  0  0  0  0  0
   31.3315   36.0473   44.2225 O   0  5  0  0  0  0  0  0  0  0  0  0
   29.3777   37.0521   45.5546 O   0  0  0  0  0  0  0  0  0  0  0  0
   29.6264   34.5978   45.3452 O   0  0  0  0  0  0  0  0  0  0  0  0
   34.7950   32.6584   48.8161 O   0  0  0  0  0  0  0  0  0  0  0  0
   29.9376   33.3664   44.6776 C   0  0  0  0  0  0  0  0  0  0  0  0
   30.8846   31.2303   48.9991 C   0  0  0  0  0  0  0  0  0  0  0  0
   34.6012   31.4650   49.5615 C   0  0  0  0  0  0  0  0  0  0  0  0
   29.5601   32.1741   45.5731 C   0  0  0  0  0  0  0  0  0  0  0  0
   30.0575   31.1111   47.6954 C   0  0  0  0  0  0  0  0  0  0  0  0
   33.1103   31.3705   49.9318 C   0  0  0  0  0  0  0  0  0  0  0  0
  1 12  1  0  0  0  0
  1 11  1  0  0  0  0
  2 13  1  0  0  0  0
  2  9  1  0  0  0  0
  3  4  1  1  0  0  0
  3  5  2  0  0  0  0
  3  6  1  0  0  0  0
  6  8  1  0  0  0  0
  7 10  1  0  0  0  0
  8 11  1  0  0  0  0
  9 12  1  0  0  0  0
 10 13  1  0  0  0  0
M  CHG  1   4  -1
M  END
>  <CHROM.1>
-179.97369516,179.56841486,-53.87524178,-179.64109160,-60.45246878,-176.88485904
-57.02949367,60.35959405,-177.49776064,31.11411892,33.40438988,46.75860218
1.02367538,0.46986073,2.60988988

>  <Name>
ligand

>  <RI>
0

>  <Rbt.Current_Directory>
/home/itssahil/PROJECTS/Mol_Feturizer/New_Systems/rnas/2NPY

>  <Rbt.Executable>
rbdock ($Id: //depot/dev/client3/rdock/2013.1/src/exe/rbdock.cxx#4 $)

>  <Rbt.Library>
libRbt.so (2013.1, Build901 2013/11/27)

>  <Rbt.Parameter_File>
/export/apps/rDock/src/rDock_2013.1_src/data/scripts/dock_solv.prm

>  <Rbt.Receptor>
prm/pocket_docking_4.prm

>  <SCORE>
-8.63746

>  <SCORE.INTER>
5.74492

>  <SCORE.INTER.CONST>
1

>  <SCORE.INTER.POLAR>
0

>  <SCORE.INTER.ROT>
9

>  <SCORE.INTER.SOLV>
4.18607

>  <SCORE.INTER.VDW>
-7.16541

>  <SCORE.INTER.norm>
0.441917

>  <SCORE.INTRA>
-14.3824

>  <SCORE.INTRA.DIHEDRAL>
-25.5377

>  <SCORE.INTRA.DIHEDRAL.0>
25.6828

>  <SCORE.INTRA.POLAR>
0

>  <SCORE.INTRA.POLAR.0>
0

>  <SCORE.INTRA.REPUL>
0

>  <SCORE.INTRA.REPUL.0>
0

>  <SCORE.INTRA.SOLV>
-1.02338

>  <SCORE.INTRA.SOLV.lig_0>
-48.5059

>  <SCORE.INTRA.VDW>
-1.10182

>  <SCORE.INTRA.VDW.0>
-0.363643

>  <SCORE.INTRA.norm>
-1.10634

>  <SCORE.RESTR>
0

>  <SCORE.RESTR.CAVITY>
0

>  <SCORE.RESTR.norm>
0

>  <SCORE.SYSTEM>
0

>  <SCORE.SYSTEM.CONST>
0

>  <SCORE.SYSTEM.DIHEDRAL>
0

>  <SCORE.SYSTEM.SOLV>
0

>  <SCORE.SYSTEM.norm>
0

>  <SCORE.heavy>
13

>  <SCORE.norm>
-0.66442

>  <RMSD>
5.858

$$$$
ligand
 OpenBabel11021811453D
libRbt.so/2013.1/901 2013/11/27
 13 12  0  0  0  0  0  0  0  0999 V2000
   31.0079   33.6301   46.2958 O   0  0  0  0  0  0  0  0  0  0  0  0
   32.3504   33.0235   49.0644 O   0  0  0  0  0  0  0  0  0  0  0  0
   29.4708   37.3502   45.9038 P   0  0  2  0  0  0  0  0  0  0  0  0
   30.8869   37.3987   46.3706 O   0  5  0  0  0  0  0  0  0  0  0  0
   28.4461   38.1666   46.6041 O   0  0  0  0  0  0  0  0  0  0  0  0
   28.9746   35.8435   45.9309 O   0  0  0  0  0  0  0  0  0  0  0  0
   34.4906   32.4170   46.1475 O   0  0  0  0  0  0  0  0  0  0  0  0
   29.4232   34.8995   44.9477 C   0  0  0  0  0  0  0  0  0  0  0  0
   30.9494   33.2190   48.7428 C   0  0  0  0  0  0  0  0  0  0  0  0
   33.7903   33.2074   47.0974 C   0  0  0  0  0  0  0  0  0  0  0  0
   30.9009   34.5495   45.1923 C   0  0  0  0  0  0  0  0  0  0  0  0
   30.7587   34.2389   47.5933 C   0  0  0  0  0  0  0  0  0  0  0  0
   33.0605   32.2572   48.0635 C   0  0  0  0  0  0  0  0  0  0  0  0
  1 12  1  0  0  0  0
  1 11  1  0  0  0  0
  2 13  1  0  0  0  0
  2  9  1  0  0  0  0
  3  4  1  1  0  0  0
  3  5  2  0  0  0  0
  3  6  1  0  0  0  0
  6  8  1  0  0  0  0
  7 10  1  0  0  0  0
  8 11  1  0  0  0  0
  9 12  1  0  0  0  0
 10 13  1  0  0  0  0
M  CHG  1   4  -1
M  END
>  <CHROM.1>
-177.46974588,96.78965653,-73.74187143,71.36706935,77.11633068,-72.96203791
79.32303058,179.04080569,-72.80739133,30.97906576,34.87429722,46.69482808
-0.51427220,0.75791979,-1.21591867

>  <Name>
ligand

>  <RI>
0

>  <Rbt.Current_Directory>
/home/itssahil/PROJECTS/Mol_Feturizer/New_Systems/rnas/2NPY

>  <Rbt.Executable>
rbdock ($Id: //depot/dev/client3/rdock/2013.1/src/exe/rbdock.cxx#4 $)

>  <Rbt.Library>
libRbt.so (2013.1, Build901 2013/11/27)

>  <Rbt.Parameter_File>
/export/apps/rDock/src/rDock_2013.1_src/data/scripts/dock_solv.prm

>  <Rbt.Receptor>
prm/pocket_docking_2.prm

>  <SCORE>
4.689

>  <SCORE.INTER>
10.6999

>  <SCORE.INTER.CONST>
1

>  <SCORE.INTER.POLAR>
0

>  <SCORE.INTER.ROT>
9

>  <SCORE.INTER.SOLV>
6.86694

>  <SCORE.INTER.VDW>
-4.75573

>  <SCORE.INTER.norm>
0.823068

>  <SCORE.INTRA>
-6.01089

>  <SCORE.INTRA.DIHEDRAL>
-15.8879

>  <SCORE.INTRA.DIHEDRAL.0>
25.6828

>  <SCORE.INTRA.POLAR>
0

>  <SCORE.INTRA.POLAR.0>
0

>  <SCORE.INTRA.REPUL>
0

>  <SCORE.INTRA.REPUL.0>
0

>  <SCORE.INTRA.SOLV>
2.54617

>  <SCORE.INTRA.SOLV.lig_0>
-48.5059

>  <SCORE.INTRA.VDW>
0.659981

>  <SCORE.INTRA.VDW.0>
-0.363643

>  <SCORE.INTRA.norm>
-0.462376

>  <SCORE.RESTR>
0

>  <SCORE.RESTR.CAVITY>
0

>  <SCORE.RESTR.norm>
0

>  <SCORE.SYSTEM>
0

>  <SCORE.SYSTEM.CONST>
0

>  <SCORE.SYSTEM.DIHEDRAL>
0

>  <SCORE.SYSTEM.SOLV>
0

>  <SCORE.SYSTEM.norm>
0

>  <SCORE.heavy>
13

>  <SCORE.norm>
0.360692

>  <RMSD>
5.860

$$$$
ligand
 OpenBabel11021811453D
libRbt.so/2013.1/901 2013/11/27
 13 12  0  0  0  0  0  0  0  0999 V2000
   29.3684   32.0365   47.1992 O   0  0  0  0  0  0  0  0  0  0  0  0
   32.0666   31.5094   48.4397 O   0  0  0  0  0  0  0  0  0  0  0  0
   29.4908   34.8022   43.9395 P   0  0  2  0  0  0  0  0  0  0  0  0
   30.6740   34.7397   43.0331 O   0  5  0  0  0  0  0  0  0  0  0  0
   29.3869   35.9097   44.9242 O   0  0  0  0  0  0  0  0  0  0  0  0
   29.3929   33.4402   44.7475 O   0  0  0  0  0  0  0  0  0  0  0  0
   35.5212   31.9318   49.5954 O   0  0  0  0  0  0  0  0  0  0  0  0
   28.1518   33.0112   45.3258 C   0  0  0  0  0  0  0  0  0  0  0  0
   30.7892   31.2375   49.0710 C   0  0  0  0  0  0  0  0  0  0  0  0
   34.4693   31.9134   48.6412 C   0  0  0  0  0  0  0  0  0  0  0  0
   28.3804   31.7586   46.1888 C   0  0  0  0  0  0  0  0  0  0  0  0
   29.6952   30.8892   48.0319 C   0  0  0  0  0  0  0  0  0  0  0  0
   33.1527   31.6334   49.3876 C   0  0  0  0  0  0  0  0  0  0  0  0
  1 12  1  0  0  0  0
  1 11  1  0  0  0  0
  2 13  1  0  0  0  0
  2  9  1  0  0  0  0
  3  4  1  1  0  0  0
  3  5  2  0  0  0  0
  3  6  1  0  0  0  0
  6  8  1  0  0  0  0
  7 10  1  0  0  0  0
  8 11  1  0  0  0  0
  9 12  1  0  0  0  0
 10 13  1  0  0  0  0
M  CHG  1   4  -1
M  END
>  <CHROM.1>
178.39430470,179.71848846,-158.01995975,-173.11326882,56.84498888,-170.97706660
-67.17088067,-175.85587844,-177.48348790,30.71920582,32.88111009,46.55197140
2.23087673,-0.26486537,-0.83908923

>  <Name>
ligand

>  <RI>
0

>  <Rbt.Current_Directory>
/home/itssahil/PROJECTS/Mol_Feturizer/New_Systems/rnas/2NPY

>  <Rbt.Executable>
rbdock ($Id: //depot/dev/client3/rdock/2013.1/src/exe/rbdock.cxx#4 $)

>  <Rbt.Library>
libRbt.so (2013.1, Build901 2013/11/27)

>  <Rbt.Parameter_File>
/export/apps/rDock/src/rDock_2013.1_src/data/scripts/dock_solv.prm

>  <Rbt.Receptor>
prm/pocket_docking_4.prm

>  <SCORE>
-8.35202

>  <SCORE.INTER>
5.57469

>  <SCORE.INTER.CONST>
1

>  <SCORE.INTER.POLAR>
0

>  <SCORE.INTER.ROT>
9

>  <SCORE.INTER.SOLV>
5.41166

>  <SCORE.INTER.VDW>
-7.68742

>  <SCORE.INTER.norm>
0.428822

>  <SCORE.INTRA>
-13.9409

>  <SCORE.INTRA.DIHEDRAL>
-24.4098

>  <SCORE.INTRA.DIHEDRAL.0>
25.6828

>  <SCORE.INTRA.POLAR>
0

>  <SCORE.INTRA.POLAR.0>
0

>  <SCORE.INTRA.REPUL>
0

>  <SCORE.INTRA.REPUL.0>
0

>  <SCORE.INTRA.SOLV>
-1.29499

>  <SCORE.INTRA.SOLV.lig_0>
-48.5059

>  <SCORE.INTRA.VDW>
-1.08855

>  <SCORE.INTRA.VDW.0>
-0.363643

>  <SCORE.INTRA.norm>
-1.07238

>  <SCORE.RESTR>
0.0142125

>  <SCORE.RESTR.CAVITY>
0.0142125

>  <SCORE.RESTR.norm>
0.00109327

>  <SCORE.SYSTEM>
0

>  <SCORE.SYSTEM.CONST>
0

>  <SCORE.SYSTEM.DIHEDRAL>
0

>  <SCORE.SYSTEM.SOLV>
0

>  <SCORE.SYSTEM.norm>
0

>  <SCORE.heavy>
13

>  <SCORE.norm>
-0.642463

>  <RMSD>
5.866

$$$$
ligand
 OpenBabel11021811453D
libRbt.so/2013.1/901 2013/11/27
 13 12  0  0  0  0  0  0  0  0999 V2000
   34.3887   31.2659   49.5122 O   0  0  0  0  0  0  0  0  0  0  0  0
   31.6301   31.6873   52.0349 O   0  0  0  0  0  0  0  0  0  0  0  0
   38.6270   30.4453   46.8699 P   0  0  2  0  0  0  0  0  0  0  0  0
   38.0092   29.2960   46.1470 O   0  5  0  0  0  0  0  0  0  0  0  0
   40.0584   30.3737   47.2607 O   0  0  0  0  0  0  0  0  0  0  0  0
   37.7905   30.7299   48.1878 O   0  0  0  0  0  0  0  0  0  0  0  0
   28.1593   32.5898   51.2630 O   0  0  0  0  0  0  0  0  0  0  0  0
   36.3696   30.9225   48.1345 C   0  0  0  0  0  0  0  0  0  0  0  0
   32.2393   31.4646   50.7374 C   0  0  0  0  0  0  0  0  0  0  0  0
   29.5718   32.7360   51.2348 C   0  0  0  0  0  0  0  0  0  0  0  0
   35.8281   31.2253   49.5420 C   0  0  0  0  0  0  0  0  0  0  0  0
   33.7832   31.5664   50.8004 C   0  0  0  0  0  0  0  0  0  0  0  0
   30.1889   31.5609   52.0140 C   0  0  0  0  0  0  0  0  0  0  0  0
  1 12  1  0  0  0  0
  1 11  1  0  0  0  0
  2 13  1  0  0  0  0
  2  9  1  0  0  0  0
  3  4  1  1  0  0  0
  3  5  2  0  0  0  0
  3  6  1  0  0  0  0
  6  8  1  0  0  0  0
  7 10  1  0  0  0  0
  8 11  1  0  0  0  0
  9 12  1  0  0  0  0
 10 13  1  0  0  0  0
M  CHG  1   4  -1
M  END
>  <CHROM.1>
-174.61709783,-69.67065770,-52.77005758,-178.12030612,-173.43802882,-178.35978391
176.70685563,-178.75574126,-179.16958334,34.73633663,31.14519588,49.28050833
-2.64219079,0.09804212,-1.78937282

>  <Name>
ligand

>  <RI>
0

>  <Rbt.Current_Directory>
/home/itssahil/PROJECTS/Mol_Feturizer/New_Systems/rnas/2NPY

>  <Rbt.Executable>
rbdock ($Id: //depot/dev/client3/rdock/2013.1/src/exe/rbdock.cxx#4 $)

>  <Rbt.Library>
libRbt.so (2013.1, Build901 2013/11/27)

>  <Rbt.Parameter_File>
/export/apps/rDock/src/rDock_2013.1_src/data/scripts/dock_solv.prm

>  <Rbt.Receptor>
prm/pocket_docking_7.prm

>  <SCORE>
-9.01273

>  <SCORE.INTER>
3.87342

>  <SCORE.INTER.CONST>
1

>  <SCORE.INTER.POLAR>
0

>  <SCORE.INTER.ROT>
9

>  <SCORE.INTER.SOLV>
8.77926

>  <SCORE.INTER.VDW>
-9.94414

>  <SCORE.INTER.norm>
0.297955

>  <SCORE.INTRA>
-12.8862

>  <SCORE.INTRA.DIHEDRAL>
-24.8131

>  <SCORE.INTRA.DIHEDRAL.0>
25.6828

>  <SCORE.INTRA.POLAR>
0

>  <SCORE.INTRA.POLAR.0>
0

>  <SCORE.INTRA.REPUL>
0

>  <SCORE.INTRA.REPUL.0>
0

>  <SCORE.INTRA.SOLV>
-1.50482

>  <SCORE.INTRA.SOLV.lig_0>
-48.5059

>  <SCORE.INTRA.VDW>
0.272802

>  <SCORE.INTRA.VDW.0>
-0.363643

>  <SCORE.INTRA.norm>
-0.991243

>  <SCORE.RESTR>
0

>  <SCORE.RESTR.CAVITY>
0

>  <SCORE.RESTR.norm>
0

>  <SCORE.SYSTEM>
0

>  <SCORE.SYSTEM.CONST>
0

>  <SCORE.SYSTEM.DIHEDRAL>
0

>  <SCORE.SYSTEM.SOLV>
0

>  <SCORE.SYSTEM.norm>
0

>  <SCORE.heavy>
13

>  <SCORE.norm>
-0.693287

>  <RMSD>
5.872

$$$$
ligand
 OpenBabel11021811453D
libRbt.so/2013.1/901 2013/11/27
 13 12  0  0  0  0  0  0  0  0999 V2000
   29.8989   33.8970   44.9022 O   0  0  0  0  0  0  0  0  0  0  0  0
   32.1977   33.1239   46.4771 O   0  0  0  0  0  0  0  0  0  0  0  0
   30.0796   37.5283   47.1343 P   0  0  2  0  0  0  0  0  0  0  0  0
   29.5544   37.4929   48.5301 O   0  5  0  0  0  0  0  0  0  0  0  0
   29.8470   38.7354   46.3003 O   0  0  0  0  0  0  0  0  0  0  0  0
   29.5001   36.2844   46.3379 O   0  0  0  0  0  0  0  0  0  0  0  0
   31.7091   32.1193   49.0732 O   0  0  0  0  0  0  0  0  0  0  0  0
   29.4344   36.2895   44.9046 C   0  0  0  0  0  0  0  0  0  0  0  0
   32.1952   32.9644   45.0353 C   0  0  0  0  0  0  0  0  0  0  0  0
   33.0338   32.4332   48.6681 C   0  0  0  0  0  0  0  0  0  0  0  0
   29.0033   34.9041   44.3941 C   0  0  0  0  0  0  0  0  0  0  0  0
   31.2410   33.9703   44.3457 C   0  0  0  0  0  0  0  0  0  0  0  0
   33.1260   32.2370   47.1443 C   0  0  0  0  0  0  0  0  0  0  0  0
  1 12  1  0  0  0  0
  1 11  1  0  0  0  0
  2 13  1  0  0  0  0
  2  9  1  0  0  0  0
  3  4  1  1  0  0  0
  3  5  2  0  0  0  0
  3  6  1  0  0  0  0
  6  8  1  0  0  0  0
  7 10  1  0  0  0  0
  8 11  1  0  0  0  0
  9 12  1  0  0  0  0
 10 13  1  0  0  0  0
M  CHG  1   4  -1
M  END
>  <CHROM.1>
173.99033578,-178.06375354,158.05918963,172.84559337,-55.66878957,-177.38581537
-53.88904845,60.75453850,-68.64670711,30.75056058,35.01773130,46.49217247
0.37466796,1.03237813,-2.12914959

>  <Name>
ligand

>  <RI>
0

>  <Rbt.Current_Directory>
/home/itssahil/PROJECTS/Mol_Feturizer/New_Systems/rnas/2NPY

>  <Rbt.Executable>
rbdock ($Id: //depot/dev/client3/rdock/2013.1/src/exe/rbdock.cxx#4 $)

>  <Rbt.Library>
libRbt.so (2013.1, Build901 2013/11/27)

>  <Rbt.Parameter_File>
/export/apps/rDock/src/rDock_2013.1_src/data/scripts/dock_solv.prm

>  <Rbt.Receptor>
prm/pocket_docking_2.prm

>  <SCORE>
-1.96572

>  <SCORE.INTER>
10.1558

>  <SCORE.INTER.CONST>
1

>  <SCORE.INTER.POLAR>
0

>  <SCORE.INTER.ROT>
9

>  <SCORE.INTER.SOLV>
7.62322

>  <SCORE.INTER.VDW>
-5.37055

>  <SCORE.INTER.norm>
0.781214

>  <SCORE.INTRA>
-12.2658

>  <SCORE.INTRA.DIHEDRAL>
-23.9438

>  <SCORE.INTRA.DIHEDRAL.0>
25.6828

>  <SCORE.INTRA.POLAR>
0

>  <SCORE.INTRA.POLAR.0>
0

>  <SCORE.INTRA.REPUL>
0

>  <SCORE.INTRA.REPUL.0>
0

>  <SCORE.INTRA.SOLV>
-0.595714

>  <SCORE.INTRA.SOLV.lig_0>
-48.5059

>  <SCORE.INTRA.VDW>
0.00397742

>  <SCORE.INTRA.VDW.0>
-0.363643

>  <SCORE.INTRA.norm>
-0.943522

>  <SCORE.RESTR>
0.14428

>  <SCORE.RESTR.CAVITY>
0.14428

>  <SCORE.RESTR.norm>
0.0110984

>  <SCORE.SYSTEM>
0

>  <SCORE.SYSTEM.CONST>
0

>  <SCORE.SYSTEM.DIHEDRAL>
0

>  <SCORE.SYSTEM.SOLV>
0

>  <SCORE.SYSTEM.norm>
0

>  <SCORE.heavy>
13

>  <SCORE.norm>
-0.151209

>  <RMSD>
5.874

$$$$
ligand
 OpenBabel11021811453D
libRbt.so/2013.1/901 2013/11/27
 13 12  0  0  0  0  0  0  0  0999 V2000
   29.8469   33.3663   46.6871 O   0  0  0  0  0  0  0  0  0  0  0  0
   32.3686   33.4588   45.7312 O   0  0  0  0  0  0  0  0  0  0  0  0
   30.2792   37.6034   46.9425 P   0  0  2  0  0  0  0  0  0  0  0  0
   29.6340   37.5578   48.2868 O   0  5  0  0  0  0  0  0  0  0  0  0
   29.7228   38.5027   45.8992 O   0  0  0  0  0  0  0  0  0  0  0  0
   30.3056   36.1368   46.3378 O   0  0  0  0  0  0  0  0  0  0  0  0
   34.5154   31.7826   46.5982 O   0  0  0  0  0  0  0  0  0  0  0  0
   29.1115   35.5254   45.8285 C   0  0  0  0  0  0  0  0  0  0  0  0
   31.7064   32.1813   45.5476 C   0  0  0  0  0  0  0  0  0  0  0  0
   34.4763   33.1622   46.9338 C   0  0  0  0  0  0  0  0  0  0  0  0
   29.3762   34.0447   45.5071 C   0  0  0  0  0  0  0  0  0  0  0  0
   30.4326   32.0617   46.4199 C   0  0  0  0  0  0  0  0  0  0  0  0
   33.0005   33.5892   47.0263 C   0  0  0  0  0  0  0  0  0  0  0  0
  1 12  1  0  0  0  0
  1 11  1  0  0  0  0
  2 13  1  0  0  0  0
  2  9  1  0  0  0  0
  3  4  1  1  0  0  0
  3  5  2  0  0  0  0
  3  6  1  0  0  0  0
  6  8  1  0  0  0  0
  7 10  1  0  0  0  0
  8 11  1  0  0  0  0
  9 12  1  0  0  0  0
 10 13  1  0  0  0  0
M  CHG  1   4  -1
M  END
>  <CHROM.1>
63.76721957,93.48046428,74.32031131,-171.41365864,57.32609398,70.57902745
27.65413137,-63.96433319,-165.72228689,31.06382021,34.81605413,46.49047875
0.98082018,0.22148134,-2.92222133

>  <Name>
ligand

>  <RI>
0

>  <Rbt.Current_Directory>
/home/itssahil/PROJECTS/Mol_Feturizer/New_Systems/rnas/2NPY

>  <Rbt.Executable>
rbdock ($Id: //depot/dev/client3/rdock/2013.1/src/exe/rbdock.cxx#4 $)

>  <Rbt.Library>
libRbt.so (2013.1, Build901 2013/11/27)

>  <Rbt.Parameter_File>
/export/apps/rDock/src/rDock_2013.1_src/data/scripts/dock_solv.prm

>  <Rbt.Receptor>
prm/pocket_docking_2.prm

>  <SCORE>
2.79519

>  <SCORE.INTER>
10.2282

>  <SCORE.INTER.CONST>
1

>  <SCORE.INTER.POLAR>
0

>  <SCORE.INTER.ROT>
9

>  <SCORE.INTER.SOLV>
8.04625

>  <SCORE.INTER.VDW>
-5.4633

>  <SCORE.INTER.norm>
0.786783

>  <SCORE.INTRA>
-7.4912

>  <SCORE.INTRA.DIHEDRAL>
-16.2045

>  <SCORE.INTRA.DIHEDRAL.0>
25.6828

>  <SCORE.INTRA.POLAR>
0

>  <SCORE.INTRA.POLAR.0>
0

>  <SCORE.INTRA.REPUL>
0

>  <SCORE.INTRA.REPUL.0>
0

>  <SCORE.INTRA.SOLV>
0.102687

>  <SCORE.INTRA.SOLV.lig_0>
-48.5059

>  <SCORE.INTRA.VDW>
0.559687

>  <SCORE.INTRA.VDW.0>
-0.363643

>  <SCORE.INTRA.norm>
-0.576246

>  <SCORE.RESTR>
0.0582085

>  <SCORE.RESTR.CAVITY>
0.0582085

>  <SCORE.RESTR.norm>
0.00447758

>  <SCORE.SYSTEM>
0

>  <SCORE.SYSTEM.CONST>
0

>  <SCORE.SYSTEM.DIHEDRAL>
0

>  <SCORE.SYSTEM.SOLV>
0

>  <SCORE.SYSTEM.norm>
0

>  <SCORE.heavy>
13

>  <SCORE.norm>
0.215014

>  <RMSD>
5.874

$$$$
ligand
 OpenBabel11021811453D
libRbt.so/2013.1/901 2013/11/27
 13 12  0  0  0  0  0  0  0  0999 V2000
   31.1533   32.9806   47.1437 O   0  0  0  0  0  0  0  0  0  0  0  0
   30.9694   32.9602   44.2775 O   0  0  0  0  0  0  0  0  0  0  0  0
   30.6033   37.4516   47.3772 P   0  0  2  0  0  0  0  0  0  0  0  0
   30.5153   38.8108   47.9859 O   0  5  0  0  0  0  0  0  0  0  0  0
   29.4347   36.9091   46.6378 O   0  0  0  0  0  0  0  0  0  0  0  0
   30.9720   36.4059   48.5120 O   0  0  0  0  0  0  0  0  0  0  0  0
   33.7606   33.1944   43.7833 O   0  0  0  0  0  0  0  0  0  0  0  0
   31.5710   35.1431   48.1874 C   0  0  0  0  0  0  0  0  0  0  0  0
   29.8256   32.5809   45.0851 C   0  0  0  0  0  0  0  0  0  0  0  0
   32.9580   32.3125   43.0116 C   0  0  0  0  0  0  0  0  0  0  0  0
   30.5442   34.2413   47.4815 C   0  0  0  0  0  0  0  0  0  0  0  0
   30.2522   32.0533   46.4770 C   0  0  0  0  0  0  0  0  0  0  0  0
   31.7918   31.8331   43.8942 C   0  0  0  0  0  0  0  0  0  0  0  0
  1 12  1  0  0  0  0
  1 11  1  0  0  0  0
  2 13  1  0  0  0  0
  2  9  1  0  0  0  0
  3  4  1  1  0  0  0
  3  5  2  0  0  0  0
  3  6  1  0  0  0  0
  6  8  1  0  0  0  0
  7 10  1  0  0  0  0
  8 11  1  0  0  0  0
  9 12  1  0  0  0  0
 10 13  1  0  0  0  0
M  CHG  1   4  -1
M  END
>  <CHROM.1>
65.63607389,178.49042739,-158.08133534,-70.21548186,179.34942596,67.27731700
51.66130098,62.56999843,179.61678416,31.06548184,34.66889006,46.25560255
1.18372427,-0.92604640,-2.84039754

>  <Name>
ligand

>  <RI>
0

>  <Rbt.Current_Directory>
/home/itssahil/PROJECTS/Mol_Feturizer/New_Systems/rnas/2NPY

>  <Rbt.Executable>
rbdock ($Id: //depot/dev/client3/rdock/2013.1/src/exe/rbdock.cxx#4 $)

>  <Rbt.Library>
libRbt.so (2013.1, Build901 2013/11/27)

>  <Rbt.Parameter_File>
/export/apps/rDock/src/rDock_2013.1_src/data/scripts/dock_solv.prm

>  <Rbt.Receptor>
prm/pocket_docking_3.prm

>  <SCORE>
-3.8057

>  <SCORE.INTER>
7.24536

>  <SCORE.INTER.CONST>
1

>  <SCORE.INTER.POLAR>
0

>  <SCORE.INTER.ROT>
9

>  <SCORE.INTER.SOLV>
7.29417

>  <SCORE.INTER.VDW>
-7.20115

>  <SCORE.INTER.norm>
0.557335

>  <SCORE.INTRA>
-11.0511

>  <SCORE.INTRA.DIHEDRAL>
-24.1623

>  <SCORE.INTRA.DIHEDRAL.0>
25.6828

>  <SCORE.INTRA.POLAR>
0

>  <SCORE.INTRA.POLAR.0>
0

>  <SCORE.INTRA.REPUL>
0

>  <SCORE.INTRA.REPUL.0>
0

>  <SCORE.INTRA.SOLV>
0.550274

>  <SCORE.INTRA.SOLV.lig_0>
-48.5059

>  <SCORE.INTRA.VDW>
0.754974

>  <SCORE.INTRA.VDW.0>
-0.363643

>  <SCORE.INTRA.norm>
-0.850081

>  <SCORE.RESTR>
0

>  <SCORE.RESTR.CAVITY>
0

>  <SCORE.RESTR.norm>
0

>  <SCORE.SYSTEM>
0

>  <SCORE.SYSTEM.CONST>
0

>  <SCORE.SYSTEM.DIHEDRAL>
0

>  <SCORE.SYSTEM.SOLV>
0

>  <SCORE.SYSTEM.norm>
0

>  <SCORE.heavy>
13

>  <SCORE.norm>
-0.292746

>  <RMSD>
5.882

$$$$
ligand
 OpenBabel11021811453D
libRbt.so/2013.1/901 2013/11/27
 13 12  0  0  0  0  0  0  0  0999 V2000
   37.3065   31.5902   47.5243 O   0  0  0  0  0  0  0  0  0  0  0  0
   34.6312   31.5529   48.5881 O   0  0  0  0  0  0  0  0  0  0  0  0
   36.7291   30.5742   43.3488 P   0  0  2  0  0  0  0  0  0  0  0  0
   37.9630   31.2712   42.8829 O   0  5  0  0  0  0  0  0  0  0  0  0
   35.4023   31.0608   42.8908 O   0  0  0  0  0  0  0  0  0  0  0  0
   36.7105   30.5729   44.9353 O   0  0  0  0  0  0  0  0  0  0  0  0
   33.4041   33.0647   46.5155 O   0  0  0  0  0  0  0  0  0  0  0  0
   37.8265   30.0751   45.6874 C   0  0  0  0  0  0  0  0  0  0  0  0
   35.7572   31.1646   49.4162 C   0  0  0  0  0  0  0  0  0  0  0  0
   33.0369   33.2628   47.8732 C   0  0  0  0  0  0  0  0  0  0  0  0
   37.5456   30.2089   47.1938 C   0  0  0  0  0  0  0  0  0  0  0  0
   37.0759   31.8232   48.9417 C   0  0  0  0  0  0  0  0  0  0  0  0
   34.2604   32.9421   48.7502 C   0  0  0  0  0  0  0  0  0  0  0  0
  1 12  1  0  0  0  0
  1 11  1  0  0  0  0
  2 13  1  0  0  0  0
  2  9  1  0  0  0  0
  3  4  1  1  0  0  0
  3  5  2  0  0  0  0
  3  6  1  0  0  0  0
  6  8  1  0  0  0  0
  7 10  1  0  0  0  0
  8 11  1  0  0  0  0
  9 12  1  0  0  0  0
 10 13  1  0  0  0  0
M  CHG  1   4  -1
M  END
>  <CHROM.1>
-66.20871027,-178.32056397,-53.40226226,179.32251533,-58.89098190,-69.30803545
-52.47093242,-62.51320199,-177.98802033,36.02978046,31.40440410,46.19735432
-2.02439015,0.48028482,-1.64636631

>  <Name>
ligand

>  <RI>
0

>  <Rbt.Current_Directory>
/home/itssahil/PROJECTS/Mol_Feturizer/New_Systems/rnas/2NPY

>  <Rbt.Executable>
rbdock ($Id: //depot/dev/client3/rdock/2013.1/src/exe/rbdock.cxx#4 $)

>  <Rbt.Library>
libRbt.so (2013.1, Build901 2013/11/27)

>  <Rbt.Parameter_File>
/export/apps/rDock/src/rDock_2013.1_src/data/scripts/dock_solv.prm

>  <Rbt.Receptor>
prm/pocket_docking_7.prm

>  <SCORE>
-9.22474

>  <SCORE.INTER>
3.25155

>  <SCORE.INTER.CONST>
1

>  <SCORE.INTER.POLAR>
0

>  <SCORE.INTER.ROT>
9

>  <SCORE.INTER.SOLV>
8.95477

>  <SCORE.INTER.VDW>
-10.4172

>  <SCORE.INTER.norm>
0.250119

>  <SCORE.INTRA>
-12.4763

>  <SCORE.INTRA.DIHEDRAL>
-24.7673

>  <SCORE.INTRA.DIHEDRAL.0>
25.6828

>  <SCORE.INTRA.POLAR>
0

>  <SCORE.INTRA.POLAR.0>
0

>  <SCORE.INTRA.REPUL>
0

>  <SCORE.INTRA.REPUL.0>
0

>  <SCORE.INTRA.SOLV>
-0.819089

>  <SCORE.INTRA.SOLV.lig_0>
-48.5059

>  <SCORE.INTRA.VDW>
0.316907

>  <SCORE.INTRA.VDW.0>
-0.363643

>  <SCORE.INTRA.norm>
-0.959714

>  <SCORE.RESTR>
0

>  <SCORE.RESTR.CAVITY>
0

>  <SCORE.RESTR.norm>
0

>  <SCORE.SYSTEM>
0

>  <SCORE.SYSTEM.CONST>
0

>  <SCORE.SYSTEM.DIHEDRAL>
0

>  <SCORE.SYSTEM.SOLV>
0

>  <SCORE.SYSTEM.norm>
0

>  <SCORE.heavy>
13

>  <SCORE.norm>
-0.709595

>  <RMSD>
5.892

$$$$
ligand
 OpenBabel11021811453D
libRbt.so/2013.1/901 2013/11/27
 13 12  0  0  0  0  0  0  0  0999 V2000
   30.1704   33.9375   45.0811 O   0  0  0  0  0  0  0  0  0  0  0  0
   32.0555   32.2081   46.5700 O   0  0  0  0  0  0  0  0  0  0  0  0
   29.3994   37.5875   47.1922 P   0  0  2  0  0  0  0  0  0  0  0  0
   28.5381   38.6172   46.5415 O   0  5  0  0  0  0  0  0  0  0  0  0
   30.5600   38.0226   48.0111 O   0  0  0  0  0  0  0  0  0  0  0  0
   29.9500   36.6023   46.0771 O   0  0  0  0  0  0  0  0  0  0  0  0
   33.0188   32.5395   49.0862 O   0  0  0  0  0  0  0  0  0  0  0  0
   29.0980   36.1254   45.0257 C   0  0  0  0  0  0  0  0  0  0  0  0
   31.3130   31.7585   45.4077 C   0  0  0  0  0  0  0  0  0  0  0  0
   32.1215   33.5373   48.6207 C   0  0  0  0  0  0  0  0  0  0  0  0
   29.8223   35.0359   44.2169 C   0  0  0  0  0  0  0  0  0  0  0  0
   30.9951   32.9249   44.4401 C   0  0  0  0  0  0  0  0  0  0  0  0
   31.2332   32.9096   47.5318 C   0  0  0  0  0  0  0  0  0  0  0  0
  1 12  1  0  0  0  0
  1 11  1  0  0  0  0
  2 13  1  0  0  0  0
  2  9  1  0  0  0  0
  3  4  1  6  0  0  0
  3  5  2  0  0  0  0
  3  6  1  0  0  0  0
  6  8  1  0  0  0  0
  7 10  1  0  0  0  0
  8 11  1  0  0  0  0
  9 12  1  0  0  0  0
 10 13  1  0  0  0  0
M  CHG  1   4  -1
M  END
>  <CHROM.1>
-178.87772058,-171.38576013,-42.38972713,-171.65434728,59.78667118,75.59424609
-61.32227657,-48.94892890,-173.30749542,30.54168094,35.01352197,46.53132954
0.66200182,0.99022095,-2.35679328

>  <Name>
ligand

>  <RI>
0

>  <Rbt.Current_Directory>
/home/itssahil/PROJECTS/Mol_Feturizer/New_Systems/rnas/2NPY

>  <Rbt.Executable>
rbdock ($Id: //depot/dev/client3/rdock/2013.1/src/exe/rbdock.cxx#4 $)

>  <Rbt.Library>
libRbt.so (2013.1, Build901 2013/11/27)

>  <Rbt.Parameter_File>
/export/apps/rDock/src/rDock_2013.1_src/data/scripts/dock_solv.prm

>  <Rbt.Receptor>
prm/pocket_docking_2.prm

>  <SCORE>
-2.33153

>  <SCORE.INTER>
9.93095

>  <SCORE.INTER.CONST>
1

>  <SCORE.INTER.POLAR>
0

>  <SCORE.INTER.ROT>
9

>  <SCORE.INTER.SOLV>
8.47382

>  <SCORE.INTER.VDW>
-5.80397

>  <SCORE.INTER.norm>
0.763919

>  <SCORE.INTRA>
-12.3304

>  <SCORE.INTRA.DIHEDRAL>
-22.9821

>  <SCORE.INTRA.DIHEDRAL.0>
25.6828

>  <SCORE.INTRA.POLAR>
0

>  <SCORE.INTRA.POLAR.0>
0

>  <SCORE.INTRA.REPUL>
0

>  <SCORE.INTRA.REPUL.0>
0

>  <SCORE.INTRA.SOLV>
-0.714616

>  <SCORE.INTRA.SOLV.lig_0>
-48.5059

>  <SCORE.INTRA.VDW>
-0.482059

>  <SCORE.INTRA.VDW.0>
-0.363643

>  <SCORE.INTRA.norm>
-0.948492

>  <SCORE.RESTR>
0.0679162

>  <SCORE.RESTR.CAVITY>
0.0679162

>  <SCORE.RESTR.norm>
0.00522432

>  <SCORE.SYSTEM>
0

>  <SCORE.SYSTEM.CONST>
0

>  <SCORE.SYSTEM.DIHEDRAL>
0

>  <SCORE.SYSTEM.SOLV>
0

>  <SCORE.SYSTEM.norm>
0

>  <SCORE.heavy>
13

>  <SCORE.norm>
-0.179349

>  <RMSD>
5.926

$$$$
ligand
 OpenBabel11021811453D
libRbt.so/2013.1/901 2013/11/27
 13 12  0  0  0  0  0  0  0  0999 V2000
   30.8476   34.4025   44.6508 O   0  0  0  0  0  0  0  0  0  0  0  0
   32.5225   32.7723   46.4127 O   0  0  0  0  0  0  0  0  0  0  0  0
   29.8709   38.0287   46.7087 P   0  0  2  0  0  0  0  0  0  0  0  0
   30.5960   37.9773   48.0114 O   0  5  0  0  0  0  0  0  0  0  0  0
   28.4956   38.5885   46.6637 O   0  0  0  0  0  0  0  0  0  0  0  0
   29.8055   36.5643   46.1015 O   0  0  0  0  0  0  0  0  0  0  0  0
   32.9834   32.5054   49.1001 O   0  0  0  0  0  0  0  0  0  0  0  0
   29.3758   36.3426   44.7505 C   0  0  0  0  0  0  0  0  0  0  0  0
   32.4025   32.4984   44.9933 C   0  0  0  0  0  0  0  0  0  0  0  0
   31.6286   32.5150   48.6736 C   0  0  0  0  0  0  0  0  0  0  0  0
   29.5025   34.8508   44.3979 C   0  0  0  0  0  0  0  0  0  0  0  0
   31.0438   32.9786   44.4264 C   0  0  0  0  0  0  0  0  0  0  0  0
   31.5835   32.0205   47.2168 C   0  0  0  0  0  0  0  0  0  0  0  0
  1 12  1  0  0  0  0
  1 11  1  0  0  0  0
  2 13  1  0  0  0  0
  2  9  1  0  0  0  0
  3  4  1  1  0  0  0
  3  5  2  0  0  0  0
  3  6  1  0  0  0  0
  6  8  1  0  0  0  0
  7 10  1  0  0  0  0
  8 11  1  0  0  0  0
  9 12  1  0  0  0  0
 10 13  1  0  0  0  0
M  CHG  1   4  -1
M  END
>  <CHROM.1>
-167.91252780,-171.65587968,-168.97178945,176.08139704,-54.59689089,65.74353740
57.78165274,-51.70848173,176.31389485,30.74678471,35.07302901,46.37592492
0.47398931,1.05547731,-2.18189145

>  <Name>
ligand

>  <RI>
0

>  <Rbt.Current_Directory>
/home/itssahil/PROJECTS/Mol_Feturizer/New_Systems/rnas/2NPY

>  <Rbt.Executable>
rbdock ($Id: //depot/dev/client3/rdock/2013.1/src/exe/rbdock.cxx#4 $)

>  <Rbt.Library>
libRbt.so (2013.1, Build901 2013/11/27)

>  <Rbt.Parameter_File>
/export/apps/rDock/src/rDock_2013.1_src/data/scripts/dock_solv.prm

>  <Rbt.Receptor>
prm/pocket_docking_2.prm

>  <SCORE>
-2.98552

>  <SCORE.INTER>
9.64521

>  <SCORE.INTER.CONST>
1

>  <SCORE.INTER.POLAR>
0

>  <SCORE.INTER.ROT>
9

>  <SCORE.INTER.SOLV>
5.87328

>  <SCORE.INTER.VDW>
-5.12762

>  <SCORE.INTER.norm>
0.741939

>  <SCORE.INTRA>
-12.6459

>  <SCORE.INTRA.DIHEDRAL>
-23.8941

>  <SCORE.INTRA.DIHEDRAL.0>
25.6828

>  <SCORE.INTRA.POLAR>
0

>  <SCORE.INTRA.POLAR.0>
0

>  <SCORE.INTRA.REPUL>
0

>  <SCORE.INTRA.REPUL.0>
0

>  <SCORE.INTRA.SOLV>
-0.86936

>  <SCORE.INTRA.SOLV.lig_0>
-48.5059

>  <SCORE.INTRA.VDW>
-0.264219

>  <SCORE.INTRA.VDW.0>
-0.363643

>  <SCORE.INTRA.norm>
-0.972765

>  <SCORE.RESTR>
0.0152109

>  <SCORE.RESTR.CAVITY>
0.0152109

>  <SCORE.RESTR.norm>
0.00117007

>  <SCORE.SYSTEM>
0

>  <SCORE.SYSTEM.CONST>
0

>  <SCORE.SYSTEM.DIHEDRAL>
0

>  <SCORE.SYSTEM.SOLV>
0

>  <SCORE.SYSTEM.norm>
0

>  <SCORE.heavy>
13

>  <SCORE.norm>
-0.229655

>  <RMSD>
5.929

$$$$
ligand
 OpenBabel11021811453D
libRbt.so/2013.1/901 2013/11/27
 13 12  0  0  0  0  0  0  0  0999 V2000
   30.4049   33.5147   44.9758 O   0  0  0  0  0  0  0  0  0  0  0  0
   31.8135   32.7352   47.5733 O   0  0  0  0  0  0  0  0  0  0  0  0
   29.8740   37.2602   47.0194 P   0  0  2  0  0  0  0  0  0  0  0  0
   29.7246   38.5781   46.3366 O   0  5  0  0  0  0  0  0  0  0  0  0
   30.9687   37.0724   48.0059 O   0  0  0  0  0  0  0  0  0  0  0  0
   30.0302   36.1284   45.9185 O   0  0  0  0  0  0  0  0  0  0  0  0
   33.8885   32.3639   45.7656 O   0  0  0  0  0  0  0  0  0  0  0  0
   28.8986   35.3635   45.4787 C   0  0  0  0  0  0  0  0  0  0  0  0
   31.1516   31.8373   46.6460 C   0  0  0  0  0  0  0  0  0  0  0  0
   34.2106   32.7523   47.0933 C   0  0  0  0  0  0  0  0  0  0  0  0
   29.3419   34.3229   44.4363 C   0  0  0  0  0  0  0  0  0  0  0  0
   29.9557   32.5196   45.9372 C   0  0  0  0  0  0  0  0  0  0  0  0
   33.0965   32.2406   48.0237 C   0  0  0  0  0  0  0  0  0  0  0  0
  1 12  1  0  0  0  0
  1 11  1  0  0  0  0
  2 13  1  0  0  0  0
  2  9  1  0  0  0  0
  3  4  1  6  0  0  0
  3  5  2  0  0  0  0
  3  6  1  0  0  0  0
  6  8  1  0  0  0  0
  7 10  1  0  0  0  0
  8 11  1  0  0  0  0
  9 12  1  0  0  0  0
 10 13  1  0  0  0  0
M  CHG  1   4  -1
M  END
>  <CHROM.1>
-171.01372562,91.08187109,-96.05714620,-178.76018062,54.53837390,-166.99417196
71.24092338,-55.68436331,75.83749785,30.94124379,34.63294193,46.45205496
0.90353983,0.60133100,-2.76358211

>  <Name>
ligand

>  <RI>
0

>  <Rbt.Current_Directory>
/home/itssahil/PROJECTS/Mol_Feturizer/New_Systems/rnas/2NPY

>  <Rbt.Executable>
rbdock ($Id: //depot/dev/client3/rdock/2013.1/src/exe/rbdock.cxx#4 $)

>  <Rbt.Library>
libRbt.so (2013.1, Build901 2013/11/27)

>  <Rbt.Parameter_File>
/export/apps/rDock/src/rDock_2013.1_src/data/scripts/dock_solv.prm

>  <Rbt.Receptor>
prm/pocket_docking_2.prm

>  <SCORE>
-1.44322

>  <SCORE.INTER>
8.14857

>  <SCORE.INTER.CONST>
1

>  <SCORE.INTER.POLAR>
0

>  <SCORE.INTER.ROT>
9

>  <SCORE.INTER.SOLV>
6.83396

>  <SCORE.INTER.VDW>
-6.4456

>  <SCORE.INTER.norm>
0.626813

>  <SCORE.INTRA>
-9.60946

>  <SCORE.INTRA.DIHEDRAL>
-17.634

>  <SCORE.INTRA.DIHEDRAL.0>
25.6828

>  <SCORE.INTRA.POLAR>
0

>  <SCORE.INTRA.POLAR.0>
0

>  <SCORE.INTRA.REPUL>
0

>  <SCORE.INTRA.REPUL.0>
0

>  <SCORE.INTRA.SOLV>
-0.72447

>  <SCORE.INTRA.SOLV.lig_0>
-48.5059

>  <SCORE.INTRA.VDW>
-0.430247

>  <SCORE.INTRA.VDW.0>
-0.363643

>  <SCORE.INTRA.norm>
-0.73919

>  <SCORE.RESTR>
0.0176711

>  <SCORE.RESTR.CAVITY>
0.0176711

>  <SCORE.RESTR.norm>
0.00135931

>  <SCORE.SYSTEM>
0

>  <SCORE.SYSTEM.CONST>
0

>  <SCORE.SYSTEM.DIHEDRAL>
0

>  <SCORE.SYSTEM.SOLV>
0

>  <SCORE.SYSTEM.norm>
0

>  <SCORE.heavy>
13

>  <SCORE.norm>
-0.111017

>  <RMSD>
5.952

$$$$
ligand
 OpenBabel11021811453D
libRbt.so/2013.1/901 2013/11/27
 13 12  0  0  0  0  0  0  0  0999 V2000
   29.9710   33.7624   47.1175 O   0  0  0  0  0  0  0  0  0  0  0  0
   32.1898   32.1566   46.3372 O   0  0  0  0  0  0  0  0  0  0  0  0
   29.9633   37.7338   45.8230 P   0  0  2  0  0  0  0  0  0  0  0  0
   31.3420   37.5889   45.2720 O   0  5  0  0  0  0  0  0  0  0  0  0
   29.7368   38.6243   46.9903 O   0  0  0  0  0  0  0  0  0  0  0  0
   29.4138   36.2968   46.2108 O   0  0  0  0  0  0  0  0  0  0  0  0
   34.9756   32.4040   45.9865 O   0  0  0  0  0  0  0  0  0  0  0  0
   29.4016   35.2271   45.2545 C   0  0  0  0  0  0  0  0  0  0  0  0
   30.9347   31.5167   46.6831 C   0  0  0  0  0  0  0  0  0  0  0  0
   34.3330   33.0925   47.0496 C   0  0  0  0  0  0  0  0  0  0  0  0
   29.1181   33.8921   45.9641 C   0  0  0  0  0  0  0  0  0  0  0  0
   30.0757   32.4012   47.6200 C   0  0  0  0  0  0  0  0  0  0  0  0
   33.0915   32.2816   47.4619 C   0  0  0  0  0  0  0  0  0  0  0  0
  1 12  1  0  0  0  0
  1 11  1  0  0  0  0
  2 13  1  0  0  0  0
  2  9  1  0  0  0  0
  3  4  1  1  0  0  0
  3  5  2  0  0  0  0
  3  6  1  0  0  0  0
  6  8  1  0  0  0  0
  7 10  1  0  0  0  0
  8 11  1  0  0  0  0
  9 12  1  0  0  0  0
 10 13  1  0  0  0  0
M  CHG  1   4  -1
M  END
>  <CHROM.1>
72.79146438,-174.30316365,-54.00149820,167.60764403,-48.42105588,67.99859987
48.82436543,-59.99433750,-162.59915975,31.03478064,34.69426318,46.38705298
1.05072840,-0.05400851,2.97232422

>  <Name>
ligand

>  <RI>
0

>  <Rbt.Current_Directory>
/home/itssahil/PROJECTS/Mol_Feturizer/New_Systems/rnas/2NPY

>  <Rbt.Executable>
rbdock ($Id: //depot/dev/client3/rdock/2013.1/src/exe/rbdock.cxx#4 $)

>  <Rbt.Library>
libRbt.so (2013.1, Build901 2013/11/27)

>  <Rbt.Parameter_File>
/export/apps/rDock/src/rDock_2013.1_src/data/scripts/dock_solv.prm

>  <Rbt.Receptor>
prm/pocket_docking_2.prm

>  <SCORE>
-1.82694

>  <SCORE.INTER>
8.92864

>  <SCORE.INTER.CONST>
1

>  <SCORE.INTER.POLAR>
0

>  <SCORE.INTER.ROT>
9

>  <SCORE.INTER.SOLV>
6.03928

>  <SCORE.INTER.VDW>
-5.66067

>  <SCORE.INTER.norm>
0.686818

>  <SCORE.INTRA>
-10.765

>  <SCORE.INTRA.DIHEDRAL>
-21.3286

>  <SCORE.INTRA.DIHEDRAL.0>
25.6828

>  <SCORE.INTRA.POLAR>
0

>  <SCORE.INTRA.POLAR.0>
0

>  <SCORE.INTRA.REPUL>
0

>  <SCORE.INTRA.REPUL.0>
0

>  <SCORE.INTRA.SOLV>
-0.599318

>  <SCORE.INTRA.SOLV.lig_0>
-48.5059

>  <SCORE.INTRA.VDW>
0.19896

>  <SCORE.INTRA.VDW.0>
-0.363643

>  <SCORE.INTRA.norm>
-0.828076

>  <SCORE.RESTR>
0.00940955

>  <SCORE.RESTR.CAVITY>
0.00940955

>  <SCORE.RESTR.norm>
0.000723812

>  <SCORE.SYSTEM>
0

>  <SCORE.SYSTEM.CONST>
0

>  <SCORE.SYSTEM.DIHEDRAL>
0

>  <SCORE.SYSTEM.SOLV>
0

>  <SCORE.SYSTEM.norm>
0

>  <SCORE.heavy>
13

>  <SCORE.norm>
-0.140534

>  <RMSD>
5.954

$$$$
ligand
 OpenBabel11021811453D
libRbt.so/2013.1/901 2013/11/27
 13 12  0  0  0  0  0  0  0  0999 V2000
   30.1227   33.4725   45.2508 O   0  0  0  0  0  0  0  0  0  0  0  0
   31.2583   32.4018   47.7340 O   0  0  0  0  0  0  0  0  0  0  0  0
   29.8608   37.8091   45.2997 P   0  0  2  0  0  0  0  0  0  0  0  0
   30.5314   38.2146   46.5691 O   0  5  0  0  0  0  0  0  0  0  0  0
   28.5956   38.4775   44.9002 O   0  0  0  0  0  0  0  0  0  0  0  0
   29.5770   36.2488   45.3468 O   0  0  0  0  0  0  0  0  0  0  0  0
   33.7643   33.6354   47.6468 O   0  0  0  0  0  0  0  0  0  0  0  0
   29.3514   35.5016   44.1428 C   0  0  0  0  0  0  0  0  0  0  0  0
   31.0516   31.5781   46.5580 C   0  0  0  0  0  0  0  0  0  0  0  0
   33.6928   32.2371   47.8854 C   0  0  0  0  0  0  0  0  0  0  0  0
   29.0397   34.0351   44.4860 C   0  0  0  0  0  0  0  0  0  0  0  0
   29.8868   32.1037   45.6835 C   0  0  0  0  0  0  0  0  0  0  0  0
   32.3461   31.9376   48.5676 C   0  0  0  0  0  0  0  0  0  0  0  0
  1 12  1  0  0  0  0
  1 11  1  0  0  0  0
  2 13  1  0  0  0  0
  2  9  1  0  0  0  0
  3  4  1  1  0  0  0
  3  5  2  0  0  0  0
  3  6  1  0  0  0  0
  6  8  1  0  0  0  0
  7 10  1  0  0  0  0
  8 11  1  0  0  0  0
  9 12  1  0  0  0  0
 10 13  1  0  0  0  0
M  CHG  1   4  -1
M  END
>  <CHROM.1>
-177.18644411,72.68866330,-159.53993990,-177.39964736,-57.45843749,-179.72010571
58.43167805,57.51149621,176.96352049,30.62793325,34.76027415,46.09487867
0.97964100,0.69901566,-3.13794457

>  <Name>
ligand

>  <RI>
0

>  <Rbt.Current_Directory>
/home/itssahil/PROJECTS/Mol_Feturizer/New_Systems/rnas/2NPY

>  <Rbt.Executable>
rbdock ($Id: //depot/dev/client3/rdock/2013.1/src/exe/rbdock.cxx#4 $)

>  <Rbt.Library>
libRbt.so (2013.1, Build901 2013/11/27)

>  <Rbt.Parameter_File>
/export/apps/rDock/src/rDock_2013.1_src/data/scripts/dock_solv.prm

>  <Rbt.Receptor>
prm/pocket_docking_3.prm

>  <SCORE>
-5.82365

>  <SCORE.INTER>
7.29169

>  <SCORE.INTER.CONST>
1

>  <SCORE.INTER.POLAR>
0

>  <SCORE.INTER.ROT>
9

>  <SCORE.INTER.SOLV>
1.94378

>  <SCORE.INTER.VDW>
-5.3868

>  <SCORE.INTER.norm>
0.560899

>  <SCORE.INTRA>
-13.1153

>  <SCORE.INTRA.DIHEDRAL>
-24.4792

>  <SCORE.INTRA.DIHEDRAL.0>
25.6828

>  <SCORE.INTRA.POLAR>
0

>  <SCORE.INTRA.POLAR.0>
0

>  <SCORE.INTRA.REPUL>
0

>  <SCORE.INTRA.REPUL.0>
0

>  <SCORE.INTRA.SOLV>
-0.947413

>  <SCORE.INTRA.SOLV.lig_0>
-48.5059

>  <SCORE.INTRA.VDW>
-0.402029

>  <SCORE.INTRA.VDW.0>
-0.363643

>  <SCORE.INTRA.norm>
-1.00887

>  <SCORE.RESTR>
0

>  <SCORE.RESTR.CAVITY>
0

>  <SCORE.RESTR.norm>
0

>  <SCORE.SYSTEM>
0

>  <SCORE.SYSTEM.CONST>
0

>  <SCORE.SYSTEM.DIHEDRAL>
0

>  <SCORE.SYSTEM.SOLV>
0

>  <SCORE.SYSTEM.norm>
0

>  <SCORE.heavy>
13

>  <SCORE.norm>
-0.447973

>  <RMSD>
5.967

$$$$
ligand
 OpenBabel11021811453D
libRbt.so/2013.1/901 2013/11/27
 13 12  0  0  0  0  0  0  0  0999 V2000
   27.3138   32.3385   50.1954 O   0  0  0  0  0  0  0  0  0  0  0  0
   29.1984   34.2462   51.4037 O   0  0  0  0  0  0  0  0  0  0  0  0
   27.3832   32.2993   45.8176 P   0  0  2  0  0  0  0  0  0  0  0  0
   26.6666   31.2210   45.0766 O   0  5  0  0  0  0  0  0  0  0  0  0
   28.7008   32.7715   45.3199 O   0  0  0  0  0  0  0  0  0  0  0  0
   27.5833   31.8395   47.3229 O   0  0  0  0  0  0  0  0  0  0  0  0
   29.8687   36.5444   49.8515 O   0  0  0  0  0  0  0  0  0  0  0  0
   26.4726   31.3917   48.1131 C   0  0  0  0  0  0  0  0  0  0  0  0
   28.2167   33.5173   52.1843 C   0  0  0  0  0  0  0  0  0  0  0  0
   30.5424   36.2607   51.0693 C   0  0  0  0  0  0  0  0  0  0  0  0
   26.9337   31.1069   49.5526 C   0  0  0  0  0  0  0  0  0  0  0  0
   27.8556   32.1593   51.5336 C   0  0  0  0  0  0  0  0  0  0  0  0
   29.5633   35.5157   51.9941 C   0  0  0  0  0  0  0  0  0  0  0  0
  1 12  1  0  0  0  0
  1 11  1  0  0  0  0
  2 13  1  0  0  0  0
  2  9  1  0  0  0  0
  3  4  1  6  0  0  0
  3  5  2  0  0  0  0
  3  6  1  0  0  0  0
  6  8  1  0  0  0  0
  7 10  1  0  0  0  0
  8 11  1  0  0  0  0
  9 12  1  0  0  0  0
 10 13  1  0  0  0  0
M  CHG  1   4  -1
M  END
>  <CHROM.1>
-178.76347898,-176.73974308,-52.84229443,-175.93946759,67.33688661,-179.53077170
-59.32266096,63.45226014,-175.86833811,28.11567014,33.09969551,48.86116142
0.97240519,0.97081211,1.55105312

>  <Name>
ligand

>  <RI>
0

>  <Rbt.Current_Directory>
/home/itssahil/PROJECTS/Mol_Feturizer/New_Systems/rnas/2NPY

>  <Rbt.Executable>
rbdock ($Id: //depot/dev/client3/rdock/2013.1/src/exe/rbdock.cxx#4 $)

>  <Rbt.Library>
libRbt.so (2013.1, Build901 2013/11/27)

>  <Rbt.Parameter_File>
/export/apps/rDock/src/rDock_2013.1_src/data/scripts/dock_solv.prm

>  <Rbt.Receptor>
prm/pocket_docking_6.prm

>  <SCORE>
-9.17161

>  <SCORE.INTER>
5.02705

>  <SCORE.INTER.CONST>
1

>  <SCORE.INTER.POLAR>
0

>  <SCORE.INTER.ROT>
9

>  <SCORE.INTER.SOLV>
12.4743

>  <SCORE.INTER.VDW>
-10.4067

>  <SCORE.INTER.norm>
0.386696

>  <SCORE.INTRA>
-14.1995

>  <SCORE.INTRA.DIHEDRAL>
-25.1756

>  <SCORE.INTRA.DIHEDRAL.0>
25.6828

>  <SCORE.INTRA.POLAR>
0

>  <SCORE.INTRA.POLAR.0>
0

>  <SCORE.INTRA.REPUL>
0

>  <SCORE.INTRA.REPUL.0>
0

>  <SCORE.INTRA.SOLV>
-1.05745

>  <SCORE.INTRA.SOLV.lig_0>
-48.5059

>  <SCORE.INTRA.VDW>
-1.08298

>  <SCORE.INTRA.VDW.0>
-0.363643

>  <SCORE.INTRA.norm>
-1.09227

>  <SCORE.RESTR>
0.000816435

>  <SCORE.RESTR.CAVITY>
0.000816435

>  <SCORE.RESTR.norm>
6.28027e-05

>  <SCORE.SYSTEM>
0

>  <SCORE.SYSTEM.CONST>
0

>  <SCORE.SYSTEM.DIHEDRAL>
0

>  <SCORE.SYSTEM.SOLV>
0

>  <SCORE.SYSTEM.norm>
0

>  <SCORE.heavy>
13

>  <SCORE.norm>
-0.705509

>  <RMSD>
5.974

$$$$
ligand
 OpenBabel11021811453D
libRbt.so/2013.1/901 2013/11/27
 13 12  0  0  0  0  0  0  0  0999 V2000
   31.1913   34.0190   48.1185 O   0  0  0  0  0  0  0  0  0  0  0  0
   32.5510   31.9954   46.8428 O   0  0  0  0  0  0  0  0  0  0  0  0
   30.0216   37.5998   46.0991 P   0  0  2  0  0  0  0  0  0  0  0  0
   31.1566   37.6039   45.1309 O   0  5  0  0  0  0  0  0  0  0  0  0
   29.0048   38.6808   46.0319 O   0  0  0  0  0  0  0  0  0  0  0  0
   30.6071   37.5922   47.5737 O   0  0  0  0  0  0  0  0  0  0  0  0
   34.5878   32.3922   44.9719 O   0  0  0  0  0  0  0  0  0  0  0  0
   31.3157   36.4527   48.0820 C   0  0  0  0  0  0  0  0  0  0  0  0
   31.3685   31.6014   47.5849 C   0  0  0  0  0  0  0  0  0  0  0  0
   33.4519   33.2445   44.9442 C   0  0  0  0  0  0  0  0  0  0  0  0
   30.3965   35.2194   48.0797 C   0  0  0  0  0  0  0  0  0  0  0  0
   30.4332   32.8045   47.8600 C   0  0  0  0  0  0  0  0  0  0  0  0
   32.2527   32.4598   45.5053 C   0  0  0  0  0  0  0  0  0  0  0  0
  1 12  1  0  0  0  0
  1 11  1  0  0  0  0
  2 13  1  0  0  0  0
  2  9  1  0  0  0  0
  3  4  1  6  0  0  0
  3  5  2  0  0  0  0
  3  6  1  0  0  0  0
  6  8  1  0  0  0  0
  7 10  1  0  0  0  0
  8 11  1  0  0  0  0
  9 12  1  0  0  0  0
 10 13  1  0  0  0  0
M  CHG  1   4  -1
M  END
>  <CHROM.1>
166.64507179,162.88948530,-67.55021057,-60.73746414,159.49831642,-65.38706411
-36.26265531,57.45774088,-168.74910530,31.30511280,35.00849031,46.61917993
0.86208077,-0.84200740,2.60229319

>  <Name>
ligand

>  <RI>
0

>  <Rbt.Current_Directory>
/home/itssahil/PROJECTS/Mol_Feturizer/New_Systems/rnas/2NPY

>  <Rbt.Executable>
rbdock ($Id: //depot/dev/client3/rdock/2013.1/src/exe/rbdock.cxx#4 $)

>  <Rbt.Library>
libRbt.so (2013.1, Build901 2013/11/27)

>  <Rbt.Parameter_File>
/export/apps/rDock/src/rDock_2013.1_src/data/scripts/dock_solv.prm

>  <Rbt.Receptor>
prm/pocket_docking_2.prm

>  <SCORE>
1.96339

>  <SCORE.INTER>
11.1135

>  <SCORE.INTER.CONST>
1

>  <SCORE.INTER.POLAR>
0

>  <SCORE.INTER.ROT>
9

>  <SCORE.INTER.SOLV>
4.95963

>  <SCORE.INTER.VDW>
-3.84419

>  <SCORE.INTER.norm>
0.854886

>  <SCORE.INTRA>
-9.25491

>  <SCORE.INTRA.DIHEDRAL>
-19.2021

>  <SCORE.INTRA.DIHEDRAL.0>
25.6828

>  <SCORE.INTRA.POLAR>
0

>  <SCORE.INTRA.POLAR.0>
0

>  <SCORE.INTRA.REPUL>
0

>  <SCORE.INTRA.REPUL.0>
0

>  <SCORE.INTRA.SOLV>
0.478472

>  <SCORE.INTRA.SOLV.lig_0>
-48.5059

>  <SCORE.INTRA.VDW>
0.106891

>  <SCORE.INTRA.VDW.0>
-0.363643

>  <SCORE.INTRA.norm>
-0.711916

>  <SCORE.RESTR>
0.10478

>  <SCORE.RESTR.CAVITY>
0.10478

>  <SCORE.RESTR.norm>
0.00805999

>  <SCORE.SYSTEM>
0

>  <SCORE.SYSTEM.CONST>
0

>  <SCORE.SYSTEM.DIHEDRAL>
0

>  <SCORE.SYSTEM.SOLV>
0

>  <SCORE.SYSTEM.norm>
0

>  <SCORE.heavy>
13

>  <SCORE.norm>
0.15103

>  <RMSD>
5.983

$$$$
ligand
 OpenBabel11021811453D
libRbt.so/2013.1/901 2013/11/27
 13 12  0  0  0  0  0  0  0  0999 V2000
   28.6046   33.6966   44.8253 O   0  0  0  0  0  0  0  0  0  0  0  0
   29.2026   32.0441   47.2163 O   0  0  0  0  0  0  0  0  0  0  0  0
   30.2103   37.7380   44.9265 P   0  0  2  0  0  0  0  0  0  0  0  0
   31.4535   37.3796   44.1840 O   0  5  0  0  0  0  0  0  0  0  0  0
   30.3163   38.2534   46.3158 O   0  0  0  0  0  0  0  0  0  0  0  0
   29.2535   36.4729   44.9630 O   0  0  0  0  0  0  0  0  0  0  0  0
   31.2939   30.7816   49.9531 O   0  0  0  0  0  0  0  0  0  0  0  0
   28.7677   35.8781   43.7509 C   0  0  0  0  0  0  0  0  0  0  0  0
   28.6776   31.4999   45.9784 C   0  0  0  0  0  0  0  0  0  0  0  0
   30.5214   31.7463   49.2532 C   0  0  0  0  0  0  0  0  0  0  0  0
   27.8610   34.6802   44.0811 C   0  0  0  0  0  0  0  0  0  0  0  0
   27.8183   32.5354   45.2122 C   0  0  0  0  0  0  0  0  0  0  0  0
   30.0134   31.0986   47.9527 C   0  0  0  0  0  0  0  0  0  0  0  0
  1 12  1  0  0  0  0
  1 11  1  0  0  0  0
  2 13  1  0  0  0  0
  2  9  1  0  0  0  0
  3  4  1  1  0  0  0
  3  5  2  0  0  0  0
  3  6  1  0  0  0  0
  6  8  1  0  0  0  0
  7 10  1  0  0  0  0
  8 11  1  0  0  0  0
  9 12  1  0  0  0  0
 10 13  1  0  0  0  0
M  CHG  1   4  -1
M  END
>  <CHROM.1>
178.64788714,-179.56018304,-60.13131534,-179.70590310,-59.89864140,-179.85176301
62.10909650,179.15664140,178.62054731,29.61904354,34.46317913,45.96815952
1.57240736,0.84315669,2.61277402

>  <Name>
ligand

>  <RI>
0

>  <Rbt.Current_Directory>
/home/itssahil/PROJECTS/Mol_Feturizer/New_Systems/rnas/2NPY

>  <Rbt.Executable>
rbdock ($Id: //depot/dev/client3/rdock/2013.1/src/exe/rbdock.cxx#4 $)

>  <Rbt.Library>
libRbt.so (2013.1, Build901 2013/11/27)

>  <Rbt.Parameter_File>
/export/apps/rDock/src/rDock_2013.1_src/data/scripts/dock_solv.prm

>  <Rbt.Receptor>
prm/pocket_docking_4.prm

>  <SCORE>
-7.26313

>  <SCORE.INTER>
7.24731

>  <SCORE.INTER.CONST>
1

>  <SCORE.INTER.POLAR>
0

>  <SCORE.INTER.ROT>
9

>  <SCORE.INTER.SOLV>
2.56511

>  <SCORE.INTER.VDW>
-5.6235

>  <SCORE.INTER.norm>
0.557485

>  <SCORE.INTRA>
-14.5104

>  <SCORE.INTRA.DIHEDRAL>
-25.5842

>  <SCORE.INTRA.DIHEDRAL.0>
25.6828

>  <SCORE.INTRA.POLAR>
0

>  <SCORE.INTRA.POLAR.0>
0

>  <SCORE.INTRA.REPUL>
0

>  <SCORE.INTRA.REPUL.0>
0

>  <SCORE.INTRA.SOLV>
-1.32606

>  <SCORE.INTRA.SOLV.lig_0>
-48.5059

>  <SCORE.INTRA.VDW>
-1.0553

>  <SCORE.INTRA.VDW.0>
-0.363643

>  <SCORE.INTRA.norm>
-1.11619

>  <SCORE.RESTR>
0

>  <SCORE.RESTR.CAVITY>
0

>  <SCORE.RESTR.norm>
0

>  <SCORE.SYSTEM>
0

>  <SCORE.SYSTEM.CONST>
0

>  <SCORE.SYSTEM.DIHEDRAL>
0

>  <SCORE.SYSTEM.SOLV>
0

>  <SCORE.SYSTEM.norm>
0

>  <SCORE.heavy>
13

>  <SCORE.norm>
-0.558703

>  <RMSD>
5.995

$$$$
ligand
 OpenBabel11021811453D
libRbt.so/2013.1/901 2013/11/27
 13 12  0  0  0  0  0  0  0  0999 V2000
   29.0506   33.0929   45.9848 O   0  0  0  0  0  0  0  0  0  0  0  0
   31.0609   31.7598   47.8678 O   0  0  0  0  0  0  0  0  0  0  0  0
   29.8412   37.1693   45.1998 P   0  0  2  0  0  0  0  0  0  0  0  0
   29.9531   37.7494   43.8300 O   0  5  0  0  0  0  0  0  0  0  0  0
   30.8858   37.4812   46.2089 O   0  0  0  0  0  0  0  0  0  0  0  0
   29.7552   35.5895   45.0808 O   0  0  0  0  0  0  0  0  0  0  0  0
   33.5252   31.3227   50.5481 O   0  0  0  0  0  0  0  0  0  0  0  0
   28.6220   34.9545   44.4713 C   0  0  0  0  0  0  0  0  0  0  0  0
   29.6768   31.3762   47.6644 C   0  0  0  0  0  0  0  0  0  0  0  0
   33.0518   31.7718   49.2865 C   0  0  0  0  0  0  0  0  0  0  0  0
   28.7331   33.4277   44.6204 C   0  0  0  0  0  0  0  0  0  0  0  0
   29.2050   31.6653   46.2182 C   0  0  0  0  0  0  0  0  0  0  0  0
   31.5603   31.4077   49.1794 C   0  0  0  0  0  0  0  0  0  0  0  0
  1 12  1  0  0  0  0
  1 11  1  0  0  0  0
  2 13  1  0  0  0  0
  2  9  1  0  0  0  0
  3  4  1  6  0  0  0
  3  5  2  0  0  0  0
  3  6  1  0  0  0  0
  6  8  1  0  0  0  0
  7 10  1  0  0  0  0
  8 11  1  0  0  0  0
  9 12  1  0  0  0  0
 10 13  1  0  0  0  0
M  CHG  1   4  -1
M  END
>  <CHROM.1>
174.56479181,176.70221018,-66.39512252,-174.18051452,48.24297985,-175.55057735
-71.66108989,-175.81396206,-178.74773100,30.35372752,34.06766494,46.51081541
2.00626282,-0.73338156,-0.37563007

>  <Name>
ligand

>  <RI>
0

>  <Rbt.Current_Directory>
/home/itssahil/PROJECTS/Mol_Feturizer/New_Systems/rnas/2NPY

>  <Rbt.Executable>
rbdock ($Id: //depot/dev/client3/rdock/2013.1/src/exe/rbdock.cxx#4 $)

>  <Rbt.Library>
libRbt.so (2013.1, Build901 2013/11/27)

>  <Rbt.Parameter_File>
/export/apps/rDock/src/rDock_2013.1_src/data/scripts/dock_solv.prm

>  <Rbt.Receptor>
prm/pocket_docking_4.prm

>  <SCORE>
-7.00869

>  <SCORE.INTER>
6.65135

>  <SCORE.INTER.CONST>
1

>  <SCORE.INTER.POLAR>
0

>  <SCORE.INTER.ROT>
9

>  <SCORE.INTER.SOLV>
3.94805

>  <SCORE.INTER.VDW>
-6.48179

>  <SCORE.INTER.norm>
0.511642

>  <SCORE.INTRA>
-13.66

>  <SCORE.INTRA.DIHEDRAL>
-23.9753

>  <SCORE.INTRA.DIHEDRAL.0>
25.6828

>  <SCORE.INTRA.POLAR>
0

>  <SCORE.INTRA.POLAR.0>
0

>  <SCORE.INTRA.REPUL>
0

>  <SCORE.INTRA.REPUL.0>
0

>  <SCORE.INTRA.SOLV>
-1.29768

>  <SCORE.INTRA.SOLV.lig_0>
-48.5059

>  <SCORE.INTRA.VDW>
-1.02354

>  <SCORE.INTRA.VDW.0>
-0.363643

>  <SCORE.INTRA.norm>
-1.05077

>  <SCORE.RESTR>
0

>  <SCORE.RESTR.CAVITY>
0

>  <SCORE.RESTR.norm>
0

>  <SCORE.SYSTEM>
0

>  <SCORE.SYSTEM.CONST>
0

>  <SCORE.SYSTEM.DIHEDRAL>
0

>  <SCORE.SYSTEM.SOLV>
0

>  <SCORE.SYSTEM.norm>
0

>  <SCORE.heavy>
13

>  <SCORE.norm>
-0.53913

>  <RMSD>
6.002

$$$$
ligand
 OpenBabel11021811453D
libRbt.so/2013.1/901 2013/11/27
 13 12  0  0  0  0  0  0  0  0999 V2000
   31.6411   31.6165   48.5612 O   0  0  0  0  0  0  0  0  0  0  0  0
   34.3891   31.1449   49.5638 O   0  0  0  0  0  0  0  0  0  0  0  0
   30.1065   34.1078   45.3256 P   0  0  2  0  0  0  0  0  0  0  0  0
   28.8139   33.8219   44.6381 O   0  5  0  0  0  0  0  0  0  0  0  0
   31.3808   33.9195   44.5856 O   0  0  0  0  0  0  0  0  0  0  0  0
   30.1905   33.2283   46.6434 O   0  0  0  0  0  0  0  0  0  0  0  0
   35.9739   32.6198   46.6041 O   0  0  0  0  0  0  0  0  0  0  0  0
   30.2409   31.7959   46.5744 C   0  0  0  0  0  0  0  0  0  0  0  0
   33.2762   31.4977   50.4247 C   0  0  0  0  0  0  0  0  0  0  0  0
   35.7865   31.6466   47.6215 C   0  0  0  0  0  0  0  0  0  0  0  0
   30.3847   31.2072   47.9881 C   0  0  0  0  0  0  0  0  0  0  0  0
   31.9248   31.0057   49.8507 C   0  0  0  0  0  0  0  0  0  0  0  0
   34.5545   32.0532   48.4497 C   0  0  0  0  0  0  0  0  0  0  0  0
  1 12  1  0  0  0  0
  1 11  1  0  0  0  0
  2 13  1  0  0  0  0
  2  9  1  0  0  0  0
  3  4  1  6  0  0  0
  3  5  2  0  0  0  0
  3  6  1  0  0  0  0
  6  8  1  0  0  0  0
  7 10  1  0  0  0  0
  8 11  1  0  0  0  0
  9 12  1  0  0  0  0
 10 13  1  0  0  0  0
M  CHG  1   4  -1
M  END
>  <CHROM.1>
-179.21255465,177.62596864,64.50513638,177.35302736,-64.00802570,81.09786006
-61.64406725,-175.50769999,-174.52292390,32.02860580,32.45334829,47.23985235
0.73751600,-0.00606145,2.09708380

>  <Name>
ligand

>  <RI>
0

>  <Rbt.Current_Directory>
/home/itssahil/PROJECTS/Mol_Feturizer/New_Systems/rnas/2NPY

>  <Rbt.Executable>
rbdock ($Id: //depot/dev/client3/rdock/2013.1/src/exe/rbdock.cxx#4 $)

>  <Rbt.Library>
libRbt.so (2013.1, Build901 2013/11/27)

>  <Rbt.Parameter_File>
/export/apps/rDock/src/rDock_2013.1_src/data/scripts/dock_solv.prm

>  <Rbt.Receptor>
prm/pocket_docking_4.prm

>  <SCORE>
-8.31197

>  <SCORE.INTER>
4.37795

>  <SCORE.INTER.CONST>
1

>  <SCORE.INTER.POLAR>
0

>  <SCORE.INTER.ROT>
9

>  <SCORE.INTER.SOLV>
3.92376

>  <SCORE.INTER.VDW>
-7.98929

>  <SCORE.INTER.norm>
0.336765

>  <SCORE.INTRA>
-12.6899

>  <SCORE.INTRA.DIHEDRAL>
-23.3117

>  <SCORE.INTRA.DIHEDRAL.0>
25.6828

>  <SCORE.INTRA.POLAR>
0

>  <SCORE.INTRA.POLAR.0>
0

>  <SCORE.INTRA.REPUL>
0

>  <SCORE.INTRA.REPUL.0>
0

>  <SCORE.INTRA.SOLV>
-0.689854

>  <SCORE.INTRA.SOLV.lig_0>
-48.5059

>  <SCORE.INTRA.VDW>
-0.689154

>  <SCORE.INTRA.VDW.0>
-0.363643

>  <SCORE.INTRA.norm>
-0.976148

>  <SCORE.RESTR>
0

>  <SCORE.RESTR.CAVITY>
0

>  <SCORE.RESTR.norm>
0

>  <SCORE.SYSTEM>
0

>  <SCORE.SYSTEM.CONST>
0

>  <SCORE.SYSTEM.DIHEDRAL>
0

>  <SCORE.SYSTEM.SOLV>
0

>  <SCORE.SYSTEM.norm>
0

>  <SCORE.heavy>
13

>  <SCORE.norm>
-0.639383

>  <RMSD>
6.005

$$$$
ligand
 OpenBabel11021811453D
libRbt.so/2013.1/901 2013/11/27
 13 12  0  0  0  0  0  0  0  0999 V2000
   30.2489   33.0016   46.1797 O   0  0  0  0  0  0  0  0  0  0  0  0
   31.9977   31.8393   48.1760 O   0  0  0  0  0  0  0  0  0  0  0  0
   29.8151   37.1878   45.0970 P   0  0  2  0  0  0  0  0  0  0  0  0
   31.2762   37.4297   44.9178 O   0  5  0  0  0  0  0  0  0  0  0  0
   29.0818   37.9218   46.1602 O   0  0  0  0  0  0  0  0  0  0  0  0
   29.5796   35.6382   45.3435 O   0  0  0  0  0  0  0  0  0  0  0  0
   34.7644   31.4753   48.5115 O   0  0  0  0  0  0  0  0  0  0  0  0
   30.0508   34.6603   44.4051 C   0  0  0  0  0  0  0  0  0  0  0  0
   30.5967   31.4705   48.1020 C   0  0  0  0  0  0  0  0  0  0  0  0
   34.0185   32.1456   49.5173 C   0  0  0  0  0  0  0  0  0  0  0  0
   29.6715   33.2486   44.8836 C   0  0  0  0  0  0  0  0  0  0  0  0
   30.0278   31.6510   46.6732 C   0  0  0  0  0  0  0  0  0  0  0  0
   32.5772   31.6069   49.4813 C   0  0  0  0  0  0  0  0  0  0  0  0
  1 12  1  0  0  0  0
  1 11  1  0  0  0  0
  2 13  1  0  0  0  0
  2  9  1  0  0  0  0
  3  4  1  1  0  0  0
  3  5  2  0  0  0  0
  3  6  1  0  0  0  0
  6  8  1  0  0  0  0
  7 10  1  0  0  0  0
  8 11  1  0  0  0  0
  9 12  1  0  0  0  0
 10 13  1  0  0  0  0
M  CHG  1   4  -1
M  END
>  <CHROM.1>
-176.63108971,-174.60643334,-55.81305996,-179.28428862,-59.00574164,-176.60228037
-54.51180646,-59.17662462,-175.65553804,30.96069361,34.10582134,46.58595488
1.00960994,0.61049429,2.90167558

>  <Name>
ligand

>  <RI>
0

>  <Rbt.Current_Directory>
/home/itssahil/PROJECTS/Mol_Feturizer/New_Systems/rnas/2NPY

>  <Rbt.Executable>
rbdock ($Id: //depot/dev/client3/rdock/2013.1/src/exe/rbdock.cxx#4 $)

>  <Rbt.Library>
libRbt.so (2013.1, Build901 2013/11/27)

>  <Rbt.Parameter_File>
/export/apps/rDock/src/rDock_2013.1_src/data/scripts/dock_solv.prm

>  <Rbt.Receptor>
prm/pocket_docking_3.prm

>  <SCORE>
-6.87735

>  <SCORE.INTER>
7.34632

>  <SCORE.INTER.CONST>
1

>  <SCORE.INTER.POLAR>
0

>  <SCORE.INTER.ROT>
9

>  <SCORE.INTER.SOLV>
4.66054

>  <SCORE.INTER.VDW>
-6.25597

>  <SCORE.INTER.norm>
0.565102

>  <SCORE.INTRA>
-14.2237

>  <SCORE.INTRA.DIHEDRAL>
-25.1823

>  <SCORE.INTRA.DIHEDRAL.0>
25.6828

>  <SCORE.INTRA.POLAR>
0

>  <SCORE.INTRA.POLAR.0>
0

>  <SCORE.INTRA.REPUL>
0

>  <SCORE.INTRA.REPUL.0>
0

>  <SCORE.INTRA.SOLV>
-1.02449

>  <SCORE.INTRA.SOLV.lig_0>
-48.5059

>  <SCORE.INTRA.VDW>
-1.12026

>  <SCORE.INTRA.VDW.0>
-0.363643

>  <SCORE.INTRA.norm>
-1.09413

>  <SCORE.RESTR>
0

>  <SCORE.RESTR.CAVITY>
0

>  <SCORE.RESTR.norm>
0

>  <SCORE.SYSTEM>
0

>  <SCORE.SYSTEM.CONST>
0

>  <SCORE.SYSTEM.DIHEDRAL>
0

>  <SCORE.SYSTEM.SOLV>
0

>  <SCORE.SYSTEM.norm>
0

>  <SCORE.heavy>
13

>  <SCORE.norm>
-0.529027

>  <RMSD>
6.007

$$$$
ligand
 OpenBabel11021811453D
libRbt.so/2013.1/901 2013/11/27
 13 12  0  0  0  0  0  0  0  0999 V2000
   29.4664   33.2953   45.7577 O   0  0  0  0  0  0  0  0  0  0  0  0
   31.4982   32.1147   47.8405 O   0  0  0  0  0  0  0  0  0  0  0  0
   29.7229   37.4335   45.3696 P   0  0  2  0  0  0  0  0  0  0  0  0
   30.8049   37.8893   46.2900 O   0  5  0  0  0  0  0  0  0  0  0  0
   28.3038   37.6488   45.7529 O   0  0  0  0  0  0  0  0  0  0  0  0
   29.9076   35.8825   45.0914 O   0  0  0  0  0  0  0  0  0  0  0  0
   34.1787   31.6059   48.6731 O   0  0  0  0  0  0  0  0  0  0  0  0
   28.9770   35.1627   44.2699 C   0  0  0  0  0  0  0  0  0  0  0  0
   30.1975   31.6174   47.4341 C   0  0  0  0  0  0  0  0  0  0  0  0
   33.2580   32.2645   49.5309 C   0  0  0  0  0  0  0  0  0  0  0  0
   29.2394   33.6511   44.3806 C   0  0  0  0  0  0  0  0  0  0  0  0
   29.9042   31.9206   45.9442 C   0  0  0  0  0  0  0  0  0  0  0  0
   31.8452   31.7526   49.1977 C   0  0  0  0  0  0  0  0  0  0  0  0
  1 12  1  0  0  0  0
  1 11  1  0  0  0  0
  2 13  1  0  0  0  0
  2  9  1  0  0  0  0
  3  4  1  1  0  0  0
  3  5  2  0  0  0  0
  3  6  1  0  0  0  0
  6  8  1  0  0  0  0
  7 10  1  0  0  0  0
  8 11  1  0  0  0  0
  9 12  1  0  0  0  0
 10 13  1  0  0  0  0
M  CHG  1   4  -1
M  END
>  <CHROM.1>
177.24237424,177.63099329,177.88309371,-169.51445293,43.54781841,-175.34213900
-79.71211355,-63.39467917,-172.02443415,30.50186113,34.33291720,46.48166907
2.22241759,-0.76236336,-0.06889605

>  <Name>
ligand

>  <RI>
0

>  <Rbt.Current_Directory>
/home/itssahil/PROJECTS/Mol_Feturizer/New_Systems/rnas/2NPY

>  <Rbt.Executable>
rbdock ($Id: //depot/dev/client3/rdock/2013.1/src/exe/rbdock.cxx#4 $)

>  <Rbt.Library>
libRbt.so (2013.1, Build901 2013/11/27)

>  <Rbt.Parameter_File>
/export/apps/rDock/src/rDock_2013.1_src/data/scripts/dock_solv.prm

>  <Rbt.Receptor>
prm/pocket_docking_3.prm

>  <SCORE>
-4.88782

>  <SCORE.INTER>
7.62247

>  <SCORE.INTER.CONST>
1

>  <SCORE.INTER.POLAR>
0

>  <SCORE.INTER.ROT>
9

>  <SCORE.INTER.SOLV>
5.12074

>  <SCORE.INTER.VDW>
-6.22527

>  <SCORE.INTER.norm>
0.586344

>  <SCORE.INTRA>
-12.5103

>  <SCORE.INTRA.DIHEDRAL>
-22.2377

>  <SCORE.INTRA.DIHEDRAL.0>
25.6828

>  <SCORE.INTRA.POLAR>
0

>  <SCORE.INTRA.POLAR.0>
0

>  <SCORE.INTRA.REPUL>
0

>  <SCORE.INTRA.REPUL.0>
0

>  <SCORE.INTRA.SOLV>
-0.836013

>  <SCORE.INTRA.SOLV.lig_0>
-48.5059

>  <SCORE.INTRA.VDW>
-0.973457

>  <SCORE.INTRA.VDW.0>
-0.363643

>  <SCORE.INTRA.norm>
-0.96233

>  <SCORE.RESTR>
0

>  <SCORE.RESTR.CAVITY>
0

>  <SCORE.RESTR.norm>
0

>  <SCORE.SYSTEM>
0

>  <SCORE.SYSTEM.CONST>
0

>  <SCORE.SYSTEM.DIHEDRAL>
0

>  <SCORE.SYSTEM.SOLV>
0

>  <SCORE.SYSTEM.norm>
0

>  <SCORE.heavy>
13

>  <SCORE.norm>
-0.375986

>  <RMSD>
6.009

$$$$
ligand
 OpenBabel11021811453D
libRbt.so/2013.1/901 2013/11/27
 13 12  0  0  0  0  0  0  0  0999 V2000
   29.8473   33.9878   44.9251 O   0  0  0  0  0  0  0  0  0  0  0  0
   32.2161   32.4661   45.6368 O   0  0  0  0  0  0  0  0  0  0  0  0
   29.6487   37.8108   47.0106 P   0  0  2  0  0  0  0  0  0  0  0  0
   29.9332   38.7144   45.8582 O   0  5  0  0  0  0  0  0  0  0  0  0
   30.6019   37.7622   48.1490 O   0  0  0  0  0  0  0  0  0  0  0  0
   29.4822   36.3286   46.4696 O   0  0  0  0  0  0  0  0  0  0  0  0
   32.5987   31.7023   49.2034 O   0  0  0  0  0  0  0  0  0  0  0  0
   28.6047   36.0362   45.3726 C   0  0  0  0  0  0  0  0  0  0  0  0
   31.3309   32.0293   44.5739 C   0  0  0  0  0  0  0  0  0  0  0  0
   32.8960   32.3652   47.9829 C   0  0  0  0  0  0  0  0  0  0  0  0
   28.5269   34.5156   45.1539 C   0  0  0  0  0  0  0  0  0  0  0  0
   29.8841   32.5405   44.7819 C   0  0  0  0  0  0  0  0  0  0  0  0
   31.8949   31.8793   46.9197 C   0  0  0  0  0  0  0  0  0  0  0  0
  1 12  1  0  0  0  0
  1 11  1  0  0  0  0
  2 13  1  0  0  0  0
  2  9  1  0  0  0  0
  3  4  1  6  0  0  0
  3  5  2  0  0  0  0
  3  6  1  0  0  0  0
  6  8  1  0  0  0  0
  7 10  1  0  0  0  0
  8 11  1  0  0  0  0
  9 12  1  0  0  0  0
 10 13  1  0  0  0  0
M  CHG  1   4  -1
M  END
>  <CHROM.1>
-178.57898164,178.67384407,-50.44349464,-174.20538438,-57.14217021,66.63587577
55.26299799,-176.34345659,176.72047390,30.51150497,34.77874434,46.38900188
0.90769138,0.90339331,-2.61794611

>  <Name>
ligand

>  <RI>
0

>  <Rbt.Current_Directory>
/home/itssahil/PROJECTS/Mol_Feturizer/New_Systems/rnas/2NPY

>  <Rbt.Executable>
rbdock ($Id: //depot/dev/client3/rdock/2013.1/src/exe/rbdock.cxx#4 $)

>  <Rbt.Library>
libRbt.so (2013.1, Build901 2013/11/27)

>  <Rbt.Parameter_File>
/export/apps/rDock/src/rDock_2013.1_src/data/scripts/dock_solv.prm

>  <Rbt.Receptor>
prm/pocket_docking_3.prm

>  <SCORE>
-6.16056

>  <SCORE.INTER>
7.16022

>  <SCORE.INTER.CONST>
1

>  <SCORE.INTER.POLAR>
0

>  <SCORE.INTER.ROT>
9

>  <SCORE.INTER.SOLV>
8.93178

>  <SCORE.INTER.VDW>
-7.80378

>  <SCORE.INTER.norm>
0.550786

>  <SCORE.INTRA>
-13.3208

>  <SCORE.INTRA.DIHEDRAL>
-25.0166

>  <SCORE.INTRA.DIHEDRAL.0>
25.6828

>  <SCORE.INTRA.POLAR>
0

>  <SCORE.INTRA.POLAR.0>
0

>  <SCORE.INTRA.REPUL>
0

>  <SCORE.INTRA.REPUL.0>
0

>  <SCORE.INTRA.SOLV>
-1.18701

>  <SCORE.INTRA.SOLV.lig_0>
-48.5059

>  <SCORE.INTRA.VDW>
-0.219

>  <SCORE.INTRA.VDW.0>
-0.363643

>  <SCORE.INTRA.norm>
-1.02468

>  <SCORE.RESTR>
0

>  <SCORE.RESTR.CAVITY>
0

>  <SCORE.RESTR.norm>
0

>  <SCORE.SYSTEM>
0

>  <SCORE.SYSTEM.CONST>
0

>  <SCORE.SYSTEM.DIHEDRAL>
0

>  <SCORE.SYSTEM.SOLV>
0

>  <SCORE.SYSTEM.norm>
0

>  <SCORE.heavy>
13

>  <SCORE.norm>
-0.473889

>  <RMSD>
6.012

$$$$
ligand
 OpenBabel11021811453D
libRbt.so/2013.1/901 2013/11/27
 13 12  0  0  0  0  0  0  0  0999 V2000
   35.5805   29.7745   43.1663 O   0  0  0  0  0  0  0  0  0  0  0  0
   33.1111   31.3083   42.9691 O   0  0  0  0  0  0  0  0  0  0  0  0
   36.9306   31.5227   46.9739 P   0  0  2  0  0  0  0  0  0  0  0  0
   37.7887   30.4005   47.4532 O   0  5  0  0  0  0  0  0  0  0  0  0
   35.7295   31.9062   47.7594 O   0  0  0  0  0  0  0  0  0  0  0  0
   36.4473   31.2023   45.4970 O   0  0  0  0  0  0  0  0  0  0  0  0
   30.6340   31.7177   44.2856 O   0  0  0  0  0  0  0  0  0  0  0  0
   37.3730   30.7515   44.4976 C   0  0  0  0  0  0  0  0  0  0  0  0
   33.9533   31.0705   41.8122 C   0  0  0  0  0  0  0  0  0  0  0  0
   31.5807   32.7722   44.1904 C   0  0  0  0  0  0  0  0  0  0  0  0
   36.6806   30.7031   43.1249 C   0  0  0  0  0  0  0  0  0  0  0  0
   34.7743   29.7653   41.9553 C   0  0  0  0  0  0  0  0  0  0  0  0
   32.3976   32.5653   42.9025 C   0  0  0  0  0  0  0  0  0  0  0  0
  1 12  1  0  0  0  0
  1 11  1  0  0  0  0
  2 13  1  0  0  0  0
  2  9  1  0  0  0  0
  3  4  1  1  0  0  0
  3  5  2  0  0  0  0
  3  6  1  0  0  0  0
  6  8  1  0  0  0  0
  7 10  1  0  0  0  0
  8 11  1  0  0  0  0
  9 12  1  0  0  0  0
 10 13  1  0  0  0  0
M  CHG  1   4  -1
M  END
>  <CHROM.1>
-70.19688963,-177.40385156,-47.33620583,-172.31564845,-61.23435016,176.21068358
-56.31834418,-61.63465232,173.77180148,35.01421548,31.20828331,44.61009037
-2.55393166,-0.33386479,1.25863067

>  <Name>
ligand

>  <RI>
0

>  <Rbt.Current_Directory>
/home/itssahil/PROJECTS/Mol_Feturizer/New_Systems/rnas/2NPY

>  <Rbt.Executable>
rbdock ($Id: //depot/dev/client3/rdock/2013.1/src/exe/rbdock.cxx#4 $)

>  <Rbt.Library>
libRbt.so (2013.1, Build901 2013/11/27)

>  <Rbt.Parameter_File>
/export/apps/rDock/src/rDock_2013.1_src/data/scripts/dock_solv.prm

>  <Rbt.Receptor>
prm/pocket_docking_4.prm

>  <SCORE>
-9.89648

>  <SCORE.INTER>
3.31257

>  <SCORE.INTER.CONST>
1

>  <SCORE.INTER.POLAR>
0

>  <SCORE.INTER.ROT>
9

>  <SCORE.INTER.SOLV>
13.1256

>  <SCORE.INTER.VDW>
-11.7668

>  <SCORE.INTER.norm>
0.254813

>  <SCORE.INTRA>
-13.2091

>  <SCORE.INTRA.DIHEDRAL>
-24.4462

>  <SCORE.INTRA.DIHEDRAL.0>
25.6828

>  <SCORE.INTRA.POLAR>
0

>  <SCORE.INTRA.POLAR.0>
0

>  <SCORE.INTRA.REPUL>
0

>  <SCORE.INTRA.REPUL.0>
0

>  <SCORE.INTRA.SOLV>
-0.96524

>  <SCORE.INTRA.SOLV.lig_0>
-48.5059

>  <SCORE.INTRA.VDW>
-0.503342

>  <SCORE.INTRA.VDW.0>
-0.363643

>  <SCORE.INTRA.norm>
-1.01608

>  <SCORE.RESTR>
0

>  <SCORE.RESTR.CAVITY>
0

>  <SCORE.RESTR.norm>
0

>  <SCORE.SYSTEM>
0

>  <SCORE.SYSTEM.CONST>
0

>  <SCORE.SYSTEM.DIHEDRAL>
0

>  <SCORE.SYSTEM.SOLV>
0

>  <SCORE.SYSTEM.norm>
0

>  <SCORE.heavy>
13

>  <SCORE.norm>
-0.761268

>  <RMSD>
6.013

$$$$
ligand
 OpenBabel11021811453D
libRbt.so/2013.1/901 2013/11/27
 13 12  0  0  0  0  0  0  0  0999 V2000
   30.2437   31.6902   47.5447 O   0  0  0  0  0  0  0  0  0  0  0  0
   32.5636   31.0859   49.2086 O   0  0  0  0  0  0  0  0  0  0  0  0
   29.5756   34.8952   44.6469 P   0  0  2  0  0  0  0  0  0  0  0  0
   28.3483   34.9117   43.7991 O   0  5  0  0  0  0  0  0  0  0  0  0
   30.9040   34.7405   44.0001 O   0  0  0  0  0  0  0  0  0  0  0  0
   29.4371   33.7395   45.7250 O   0  0  0  0  0  0  0  0  0  0  0  0
   35.0151   32.1789   48.3756 O   0  0  0  0  0  0  0  0  0  0  0  0
   29.4601   32.3586   45.3358 C   0  0  0  0  0  0  0  0  0  0  0  0
   31.2257   31.1673   49.7634 C   0  0  0  0  0  0  0  0  0  0  0  0
   34.9800   31.3136   49.5014 C   0  0  0  0  0  0  0  0  0  0  0  0
   29.2150   31.4635   46.5625 C   0  0  0  0  0  0  0  0  0  0  0  0
   30.1432   30.8255   48.7103 C   0  0  0  0  0  0  0  0  0  0  0  0
   33.5945   31.4424   50.1592 C   0  0  0  0  0  0  0  0  0  0  0  0
  1 12  1  0  0  0  0
  1 11  1  0  0  0  0
  2 13  1  0  0  0  0
  2  9  1  0  0  0  0
  3  4  1  6  0  0  0
  3  5  2  0  0  0  0
  3  6  1  0  0  0  0
  6  8  1  0  0  0  0
  7 10  1  0  0  0  0
  8 11  1  0  0  0  0
  9 12  1  0  0  0  0
 10 13  1  0  0  0  0
M  CHG  1   4  -1
M  END
>  <CHROM.1>
-176.87104587,179.27662189,68.56554920,-176.30469336,-60.13590596,178.12311000
-56.81757373,59.14887455,-176.39338366,31.00377550,32.67786709,46.93481387
0.93873707,0.23354624,2.30172857

>  <Name>
ligand

>  <RI>
0

>  <Rbt.Current_Directory>
/home/itssahil/PROJECTS/Mol_Feturizer/New_Systems/rnas/2NPY

>  <Rbt.Executable>
rbdock ($Id: //depot/dev/client3/rdock/2013.1/src/exe/rbdock.cxx#4 $)

>  <Rbt.Library>
libRbt.so (2013.1, Build901 2013/11/27)

>  <Rbt.Parameter_File>
/export/apps/rDock/src/rDock_2013.1_src/data/scripts/dock_solv.prm

>  <Rbt.Receptor>
prm/pocket_docking_4.prm

>  <SCORE>
-10.5511

>  <SCORE.INTER>
3.57646

>  <SCORE.INTER.CONST>
1

>  <SCORE.INTER.POLAR>
0

>  <SCORE.INTER.ROT>
9

>  <SCORE.INTER.SOLV>
3.84944

>  <SCORE.INTER.VDW>
-8.49884

>  <SCORE.INTER.norm>
0.275113

>  <SCORE.INTRA>
-14.1275

>  <SCORE.INTRA.DIHEDRAL>
-25.4011

>  <SCORE.INTRA.DIHEDRAL.0>
25.6828

>  <SCORE.INTRA.POLAR>
0

>  <SCORE.INTRA.POLAR.0>
0

>  <SCORE.INTRA.REPUL>
0

>  <SCORE.INTRA.REPUL.0>
0

>  <SCORE.INTRA.SOLV>
-0.598366

>  <SCORE.INTRA.SOLV.lig_0>
-48.5059

>  <SCORE.INTRA.VDW>
-1.1278

>  <SCORE.INTRA.VDW.0>
-0.363643

>  <SCORE.INTRA.norm>
-1.08673

>  <SCORE.RESTR>
0

>  <SCORE.RESTR.CAVITY>
0

>  <SCORE.RESTR.norm>
0

>  <SCORE.SYSTEM>
0

>  <SCORE.SYSTEM.CONST>
0

>  <SCORE.SYSTEM.DIHEDRAL>
0

>  <SCORE.SYSTEM.SOLV>
0

>  <SCORE.SYSTEM.norm>
0

>  <SCORE.heavy>
13

>  <SCORE.norm>
-0.81162

>  <RMSD>
6.019

$$$$
ligand
 OpenBabel11021811453D
libRbt.so/2013.1/901 2013/11/27
 13 12  0  0  0  0  0  0  0  0999 V2000
   36.0746   30.8484   48.4385 O   0  0  0  0  0  0  0  0  0  0  0  0
   33.4907   30.6247   49.7293 O   0  0  0  0  0  0  0  0  0  0  0  0
   37.0090   30.5434   44.2021 P   0  0  2  0  0  0  0  0  0  0  0  0
   38.4157   30.3805   43.7329 O   0  5  0  0  0  0  0  0  0  0  0  0
   36.1288   31.5341   43.5309 O   0  0  0  0  0  0  0  0  0  0  0  0
   37.0233   30.8950   45.7492 O   0  0  0  0  0  0  0  0  0  0  0  0
   30.4385   31.2469   51.6670 O   0  0  0  0  0  0  0  0  0  0  0  0
   37.5559   29.9739   46.7119 C   0  0  0  0  0  0  0  0  0  0  0  0
   34.3866   31.7243   50.0335 C   0  0  0  0  0  0  0  0  0  0  0  0
   31.8092   30.9257   51.4781 C   0  0  0  0  0  0  0  0  0  0  0  0
   37.4531   30.5737   48.1246 C   0  0  0  0  0  0  0  0  0  0  0  0
   35.8681   31.3451   49.7902 C   0  0  0  0  0  0  0  0  0  0  0  0
   32.0997   30.9440   49.9668 C   0  0  0  0  0  0  0  0  0  0  0  0
  1 12  1  0  0  0  0
  1 11  1  0  0  0  0
  2 13  1  0  0  0  0
  2  9  1  0  0  0  0
  3  4  1  6  0  0  0
  3  5  2  0  0  0  0
  3  6  1  0  0  0  0
  6  8  1  0  0  0  0
  7 10  1  0  0  0  0
  8 11  1  0  0  0  0
  9 12  1  0  0  0  0
 10 13  1  0  0  0  0
M  CHG  1   4  -1
M  END
>  <CHROM.1>
175.63917272,-75.70627381,-62.45676232,179.56148380,59.65276953,179.12683097
54.47662609,179.84071750,176.49687846,35.35885550,30.86325917,47.59085054
-2.25283240,0.10663606,-1.55289368

>  <Name>
ligand

>  <RI>
0

>  <Rbt.Current_Directory>
/home/itssahil/PROJECTS/Mol_Feturizer/New_Systems/rnas/2NPY

>  <Rbt.Executable>
rbdock ($Id: //depot/dev/client3/rdock/2013.1/src/exe/rbdock.cxx#4 $)

>  <Rbt.Library>
libRbt.so (2013.1, Build901 2013/11/27)

>  <Rbt.Parameter_File>
/export/apps/rDock/src/rDock_2013.1_src/data/scripts/dock_solv.prm

>  <Rbt.Receptor>
prm/pocket_docking_8.prm

>  <SCORE>
-11.7154

>  <SCORE.INTER>
1.36132

>  <SCORE.INTER.CONST>
1

>  <SCORE.INTER.POLAR>
0

>  <SCORE.INTER.ROT>
9

>  <SCORE.INTER.SOLV>
12.1718

>  <SCORE.INTER.VDW>
-12.7497

>  <SCORE.INTER.norm>
0.104717

>  <SCORE.INTRA>
-13.0768

>  <SCORE.INTRA.DIHEDRAL>
-24.1684

>  <SCORE.INTRA.DIHEDRAL.0>
25.6828

>  <SCORE.INTRA.POLAR>
0

>  <SCORE.INTRA.POLAR.0>
0

>  <SCORE.INTRA.REPUL>
0

>  <SCORE.INTRA.REPUL.0>
0

>  <SCORE.INTRA.SOLV>
-1.24245

>  <SCORE.INTRA.SOLV.lig_0>
-48.5059

>  <SCORE.INTRA.VDW>
-0.37132

>  <SCORE.INTRA.VDW.0>
-0.363643

>  <SCORE.INTRA.norm>
-1.0059

>  <SCORE.RESTR>
0

>  <SCORE.RESTR.CAVITY>
0

>  <SCORE.RESTR.norm>
0

>  <SCORE.SYSTEM>
0

>  <SCORE.SYSTEM.CONST>
0

>  <SCORE.SYSTEM.DIHEDRAL>
0

>  <SCORE.SYSTEM.SOLV>
0

>  <SCORE.SYSTEM.norm>
0

>  <SCORE.heavy>
13

>  <SCORE.norm>
-0.901188

>  <RMSD>
6.028

$$$$
ligand
 OpenBabel11021811453D
libRbt.so/2013.1/901 2013/11/27
 13 12  0  0  0  0  0  0  0  0999 V2000
   30.2099   35.1839   45.4658 O   0  0  0  0  0  0  0  0  0  0  0  0
   30.6354   32.7170   46.9348 O   0  0  0  0  0  0  0  0  0  0  0  0
   29.7888   37.5174   47.3127 P   0  0  2  0  0  0  0  0  0  0  0  0
   28.9245   38.5118   48.0125 O   0  5  0  0  0  0  0  0  0  0  0  0
   31.0212   37.0272   47.9817 O   0  0  0  0  0  0  0  0  0  0  0  0
   30.2190   38.1135   45.9067 O   0  0  0  0  0  0  0  0  0  0  0  0
   33.4545   33.4429   47.0705 O   0  0  0  0  0  0  0  0  0  0  0  0
   31.1243   37.4042   45.0486 C   0  0  0  0  0  0  0  0  0  0  0  0
   29.4619   32.9046   46.1029 C   0  0  0  0  0  0  0  0  0  0  0  0
   32.9954   32.0990   47.0935 C   0  0  0  0  0  0  0  0  0  0  0  0
   30.4213   36.1768   44.4442 C   0  0  0  0  0  0  0  0  0  0  0  0
   29.7235   33.9112   44.9557 C   0  0  0  0  0  0  0  0  0  0  0  0
   31.7066   32.0206   46.2558 C   0  0  0  0  0  0  0  0  0  0  0  0
  1 12  1  0  0  0  0
  1 11  1  0  0  0  0
  2 13  1  0  0  0  0
  2  9  1  0  0  0  0
  3  4  1  1  0  0  0
  3  5  2  0  0  0  0
  3  6  1  0  0  0  0
  6  8  1  0  0  0  0
  7 10  1  0  0  0  0
  8 11  1  0  0  0  0
  9 12  1  0  0  0  0
 10 13  1  0  0  0  0
M  CHG  1   4  -1
M  END
>  <CHROM.1>
-177.73490342,169.13608587,176.13632983,71.82880678,-70.76507500,-69.01503284
-55.08935934,-69.44467883,-171.74122830,30.66827654,35.38362509,46.46019370
1.04047756,0.85443157,-2.65727974

>  <Name>
ligand

>  <RI>
0

>  <Rbt.Current_Directory>
/home/itssahil/PROJECTS/Mol_Feturizer/New_Systems/rnas/2NPY

>  <Rbt.Executable>
rbdock ($Id: //depot/dev/client3/rdock/2013.1/src/exe/rbdock.cxx#4 $)

>  <Rbt.Library>
libRbt.so (2013.1, Build901 2013/11/27)

>  <Rbt.Parameter_File>
/export/apps/rDock/src/rDock_2013.1_src/data/scripts/dock_solv.prm

>  <Rbt.Receptor>
prm/pocket_docking_2.prm

>  <SCORE>
-0.85697

>  <SCORE.INTER>
9.93902

>  <SCORE.INTER.CONST>
1

>  <SCORE.INTER.POLAR>
0

>  <SCORE.INTER.ROT>
9

>  <SCORE.INTER.SOLV>
6.62235

>  <SCORE.INTER.VDW>
-5.18144

>  <SCORE.INTER.norm>
0.76454

>  <SCORE.INTRA>
-10.8086

>  <SCORE.INTRA.DIHEDRAL>
-22.7341

>  <SCORE.INTRA.DIHEDRAL.0>
25.6828

>  <SCORE.INTRA.POLAR>
0

>  <SCORE.INTRA.POLAR.0>
0

>  <SCORE.INTRA.REPUL>
0

>  <SCORE.INTRA.REPUL.0>
0

>  <SCORE.INTRA.SOLV>
2.53072

>  <SCORE.INTRA.SOLV.lig_0>
-48.5059

>  <SCORE.INTRA.VDW>
-0.706936

>  <SCORE.INTRA.VDW.0>
-0.363643

>  <SCORE.INTRA.norm>
-0.831433

>  <SCORE.RESTR>
0.0126379

>  <SCORE.RESTR.CAVITY>
0.0126379

>  <SCORE.RESTR.norm>
0.000972144

>  <SCORE.SYSTEM>
0

>  <SCORE.SYSTEM.CONST>
0

>  <SCORE.SYSTEM.DIHEDRAL>
0

>  <SCORE.SYSTEM.SOLV>
0

>  <SCORE.SYSTEM.norm>
0

>  <SCORE.heavy>
13

>  <SCORE.norm>
-0.0659208

>  <RMSD>
6.035

$$$$
ligand
 OpenBabel11021811453D
libRbt.so/2013.1/901 2013/11/27
 13 12  0  0  0  0  0  0  0  0999 V2000
   29.8593   33.7676   46.6834 O   0  0  0  0  0  0  0  0  0  0  0  0
   32.2482   31.9062   46.7656 O   0  0  0  0  0  0  0  0  0  0  0  0
   29.5376   37.7644   46.1029 P   0  0  2  0  0  0  0  0  0  0  0  0
   30.8757   37.6356   46.7496 O   0  5  0  0  0  0  0  0  0  0  0  0
   28.4819   38.5686   46.7705 O   0  0  0  0  0  0  0  0  0  0  0  0
   28.9445   36.3129   45.8610 O   0  0  0  0  0  0  0  0  0  0  0  0
   34.9442   32.4796   46.0377 O   0  0  0  0  0  0  0  0  0  0  0  0
   29.5463   35.4163   44.9160 C   0  0  0  0  0  0  0  0  0  0  0  0
   30.8980   31.5327   46.3890 C   0  0  0  0  0  0  0  0  0  0  0  0
   34.1149   33.4776   46.6153 C   0  0  0  0  0  0  0  0  0  0  0  0
   29.3251   33.9603   45.3598 C   0  0  0  0  0  0  0  0  0  0  0  0
   29.8369   32.3832   47.1296 C   0  0  0  0  0  0  0  0  0  0  0  0
   32.6592   33.1792   46.2143 C   0  0  0  0  0  0  0  0  0  0  0  0
  1 12  1  0  0  0  0
  1 11  1  0  0  0  0
  2 13  1  0  0  0  0
  2  9  1  0  0  0  0
  3  4  1  1  0  0  0
  3  5  2  0  0  0  0
  3  6  1  0  0  0  0
  6  8  1  0  0  0  0
  7 10  1  0  0  0  0
  8 11  1  0  0  0  0
  9 12  1  0  0  0  0
 10 13  1  0  0  0  0
M  CHG  1   4  -1
M  END
>  <CHROM.1>
72.27402228,-177.91488153,-67.47818536,150.33401964,-57.01517915,-72.81806371
68.56379857,63.22098516,-173.24881008,30.76178474,34.78863304,46.27388833
0.96433130,0.04381971,3.13275805

>  <Name>
ligand

>  <RI>
0

>  <Rbt.Current_Directory>
/home/itssahil/PROJECTS/Mol_Feturizer/New_Systems/rnas/2NPY

>  <Rbt.Executable>
rbdock ($Id: //depot/dev/client3/rdock/2013.1/src/exe/rbdock.cxx#4 $)

>  <Rbt.Library>
libRbt.so (2013.1, Build901 2013/11/27)

>  <Rbt.Parameter_File>
/export/apps/rDock/src/rDock_2013.1_src/data/scripts/dock_solv.prm

>  <Rbt.Receptor>
prm/pocket_docking_2.prm

>  <SCORE>
-0.970148

>  <SCORE.INTER>
9.0807

>  <SCORE.INTER.CONST>
1

>  <SCORE.INTER.POLAR>
0

>  <SCORE.INTER.ROT>
9

>  <SCORE.INTER.SOLV>
7.31975

>  <SCORE.INTER.VDW>
-5.98611

>  <SCORE.INTER.norm>
0.698515

>  <SCORE.INTRA>
-10.0696

>  <SCORE.INTRA.DIHEDRAL>
-19.8642

>  <SCORE.INTRA.DIHEDRAL.0>
25.6828

>  <SCORE.INTRA.POLAR>
0

>  <SCORE.INTRA.POLAR.0>
0

>  <SCORE.INTRA.REPUL>
0

>  <SCORE.INTRA.REPUL.0>
0

>  <SCORE.INTRA.SOLV>
-0.226602

>  <SCORE.INTRA.SOLV.lig_0>
-48.5059

>  <SCORE.INTRA.VDW>
-0.0241909

>  <SCORE.INTRA.VDW.0>
-0.363643

>  <SCORE.INTRA.norm>
-0.774583

>  <SCORE.RESTR>
0.0187365

>  <SCORE.RESTR.CAVITY>
0.0187365

>  <SCORE.RESTR.norm>
0.00144127

>  <SCORE.SYSTEM>
0

>  <SCORE.SYSTEM.CONST>
0

>  <SCORE.SYSTEM.DIHEDRAL>
0

>  <SCORE.SYSTEM.SOLV>
0

>  <SCORE.SYSTEM.norm>
0

>  <SCORE.heavy>
13

>  <SCORE.norm>
-0.0746267

>  <RMSD>
6.054

$$$$
ligand
 OpenBabel11021811453D
libRbt.so/2013.1/901 2013/11/27
 13 12  0  0  0  0  0  0  0  0999 V2000
   36.4360   30.5929   47.6795 O   0  0  0  0  0  0  0  0  0  0  0  0
   34.1029   31.9829   48.6661 O   0  0  0  0  0  0  0  0  0  0  0  0
   39.1994   30.0502   43.4841 P   0  0  2  0  0  0  0  0  0  0  0  0
   40.6464   29.8135   43.2094 O   0  5  0  0  0  0  0  0  0  0  0  0
   38.5134   31.1953   42.8322 O   0  0  0  0  0  0  0  0  0  0  0  0
   38.9947   30.2054   45.0498 O   0  0  0  0  0  0  0  0  0  0  0  0
   30.5609   32.9335   48.5758 O   0  0  0  0  0  0  0  0  0  0  0  0
   37.6846   30.1547   45.6328 C   0  0  0  0  0  0  0  0  0  0  0  0
   34.9474   31.2187   49.5645 C   0  0  0  0  0  0  0  0  0  0  0  0
   31.8972   32.8715   48.0985 C   0  0  0  0  0  0  0  0  0  0  0  0
   37.7641   30.4901   47.1319 C   0  0  0  0  0  0  0  0  0  0  0  0
   36.3999   31.1111   49.0384 C   0  0  0  0  0  0  0  0  0  0  0  0
   32.7299   32.0691   49.1143 C   0  0  0  0  0  0  0  0  0  0  0  0
  1 12  1  0  0  0  0
  1 11  1  0  0  0  0
  2 13  1  0  0  0  0
  2  9  1  0  0  0  0
  3  4  1  1  0  0  0
  3  5  2  0  0  0  0
  3  6  1  0  0  0  0
  6  8  1  0  0  0  0
  7 10  1  0  0  0  0
  8 11  1  0  0  0  0
  9 12  1  0  0  0  0
 10 13  1  0  0  0  0
M  CHG  1   4  -1
M  END
>  <CHROM.1>
179.14465041,-179.01225483,-166.47417871,-173.60926326,173.28126092,178.40705274
-53.62280808,-179.92772434,-170.89971034,36.41189944,31.04274081,46.46768057
-2.56029758,0.38825168,-1.43797869

>  <Name>
ligand

>  <RI>
0

>  <Rbt.Current_Directory>
/home/itssahil/PROJECTS/Mol_Feturizer/New_Systems/rnas/2NPY

>  <Rbt.Executable>
rbdock ($Id: //depot/dev/client3/rdock/2013.1/src/exe/rbdock.cxx#4 $)

>  <Rbt.Library>
libRbt.so (2013.1, Build901 2013/11/27)

>  <Rbt.Parameter_File>
/export/apps/rDock/src/rDock_2013.1_src/data/scripts/dock_solv.prm

>  <Rbt.Receptor>
prm/pocket_docking_7.prm

>  <SCORE>
-11.5569

>  <SCORE.INTER>
2.40832

>  <SCORE.INTER.CONST>
1

>  <SCORE.INTER.POLAR>
0

>  <SCORE.INTER.ROT>
9

>  <SCORE.INTER.SOLV>
7.16084

>  <SCORE.INTER.VDW>
-10.3814

>  <SCORE.INTER.norm>
0.185255

>  <SCORE.INTRA>
-13.9653

>  <SCORE.INTRA.DIHEDRAL>
-24.6382

>  <SCORE.INTRA.DIHEDRAL.0>
25.6828

>  <SCORE.INTRA.POLAR>
0

>  <SCORE.INTRA.POLAR.0>
0

>  <SCORE.INTRA.REPUL>
0

>  <SCORE.INTRA.REPUL.0>
0

>  <SCORE.INTRA.SOLV>
-1.40658

>  <SCORE.INTRA.SOLV.lig_0>
-48.5059

>  <SCORE.INTRA.VDW>
-0.942881

>  <SCORE.INTRA.VDW.0>
-0.363643

>  <SCORE.INTRA.norm>
-1.07425

>  <SCORE.RESTR>
0

>  <SCORE.RESTR.CAVITY>
0

>  <SCORE.RESTR.norm>
0

>  <SCORE.SYSTEM>
0

>  <SCORE.SYSTEM.CONST>
0

>  <SCORE.SYSTEM.DIHEDRAL>
0

>  <SCORE.SYSTEM.SOLV>
0

>  <SCORE.SYSTEM.norm>
0

>  <SCORE.heavy>
13

>  <SCORE.norm>
-0.888995

>  <RMSD>
6.060

$$$$
ligand
 OpenBabel11021811453D
libRbt.so/2013.1/901 2013/11/27
 13 12  0  0  0  0  0  0  0  0999 V2000
   29.3850   31.9458   47.2588 O   0  0  0  0  0  0  0  0  0  0  0  0
   32.0474   32.1445   48.5764 O   0  0  0  0  0  0  0  0  0  0  0  0
   28.5400   34.8305   44.0699 P   0  0  2  0  0  0  0  0  0  0  0  0
   27.3355   34.5966   43.2214 O   0  5  0  0  0  0  0  0  0  0  0  0
   29.7961   35.3048   43.4343 O   0  0  0  0  0  0  0  0  0  0  0  0
   28.8817   33.4934   44.8527 O   0  0  0  0  0  0  0  0  0  0  0  0
   34.6987   31.1298   49.2031 O   0  0  0  0  0  0  0  0  0  0  0  0
   27.8596   32.7572   45.5399 C   0  0  0  0  0  0  0  0  0  0  0  0
   30.9461   31.3564   49.0963 C   0  0  0  0  0  0  0  0  0  0  0  0
   33.7719   31.5371   50.1993 C   0  0  0  0  0  0  0  0  0  0  0  0
   28.4726   31.5250   46.2270 C   0  0  0  0  0  0  0  0  0  0  0  0
   30.0198   30.8442   47.9660 C   0  0  0  0  0  0  0  0  0  0  0  0
   32.9088   32.6690   49.6139 C   0  0  0  0  0  0  0  0  0  0  0  0
  1 12  1  0  0  0  0
  1 11  1  0  0  0  0
  2 13  1  0  0  0  0
  2  9  1  0  0  0  0
  3  4  1  6  0  0  0
  3  5  2  0  0  0  0
  3  6  1  0  0  0  0
  6  8  1  0  0  0  0
  7 10  1  0  0  0  0
  8 11  1  0  0  0  0
  9 12  1  0  0  0  0
 10 13  1  0  0  0  0
M  CHG  1   4  -1
M  END
>  <CHROM.1>
-177.83550957,73.65600046,-47.38321637,-179.05287038,65.02370253,178.32738724
-63.13816383,68.76885099,-179.85452639,30.21267325,32.82942421,46.59818373
0.85937851,0.36853533,2.35563369

>  <Name>
ligand

>  <RI>
0

>  <Rbt.Current_Directory>
/home/itssahil/PROJECTS/Mol_Feturizer/New_Systems/rnas/2NPY

>  <Rbt.Executable>
rbdock ($Id: //depot/dev/client3/rdock/2013.1/src/exe/rbdock.cxx#4 $)

>  <Rbt.Library>
libRbt.so (2013.1, Build901 2013/11/27)

>  <Rbt.Parameter_File>
/export/apps/rDock/src/rDock_2013.1_src/data/scripts/dock_solv.prm

>  <Rbt.Receptor>
prm/pocket_docking_7.prm

>  <SCORE>
-8.06999

>  <SCORE.INTER>
4.80108

>  <SCORE.INTER.CONST>
1

>  <SCORE.INTER.POLAR>
0

>  <SCORE.INTER.ROT>
9

>  <SCORE.INTER.SOLV>
4.84187

>  <SCORE.INTER.VDW>
-8.01324

>  <SCORE.INTER.norm>
0.369314

>  <SCORE.INTRA>
-12.8711

>  <SCORE.INTRA.DIHEDRAL>
-24.2549

>  <SCORE.INTRA.DIHEDRAL.0>
25.6828

>  <SCORE.INTRA.POLAR>
0

>  <SCORE.INTRA.POLAR.0>
0

>  <SCORE.INTRA.REPUL>
0

>  <SCORE.INTRA.REPUL.0>
0

>  <SCORE.INTRA.SOLV>
-0.952518

>  <SCORE.INTRA.SOLV.lig_0>
-48.5059

>  <SCORE.INTRA.VDW>
-0.267363

>  <SCORE.INTRA.VDW.0>
-0.363643

>  <SCORE.INTRA.norm>
-0.990082

>  <SCORE.RESTR>
0

>  <SCORE.RESTR.CAVITY>
0

>  <SCORE.RESTR.norm>
0

>  <SCORE.SYSTEM>
0

>  <SCORE.SYSTEM.CONST>
0

>  <SCORE.SYSTEM.DIHEDRAL>
0

>  <SCORE.SYSTEM.SOLV>
0

>  <SCORE.SYSTEM.norm>
0

>  <SCORE.heavy>
13

>  <SCORE.norm>
-0.620768

>  <RMSD>
6.073

$$$$
ligand
 OpenBabel11021811453D
libRbt.so/2013.1/901 2013/11/27
 13 12  0  0  0  0  0  0  0  0999 V2000
   30.3905   31.9187   46.0127 O   0  0  0  0  0  0  0  0  0  0  0  0
   31.9895   31.6246   43.5001 O   0  0  0  0  0  0  0  0  0  0  0  0
   31.3334   33.2114   48.6014 P   0  0  2  0  0  0  0  0  0  0  0  0
   32.5634   32.3676   48.6178 O   0  5  0  0  0  0  0  0  0  0  0  0
   31.2749   34.4281   49.4519 O   0  0  0  0  0  0  0  0  0  0  0  0
   30.0873   32.3068   48.9838 O   0  0  0  0  0  0  0  0  0  0  0  0
   34.8604   30.8955   41.3358 O   0  0  0  0  0  0  0  0  0  0  0  0
   29.7734   31.1250   48.2329 C   0  0  0  0  0  0  0  0  0  0  0  0
   31.2403   32.8137   43.8593 C   0  0  0  0  0  0  0  0  0  0  0  0
   33.7882   30.5827   42.2133 C   0  0  0  0  0  0  0  0  0  0  0  0
   29.2763   31.5117   46.8296 C   0  0  0  0  0  0  0  0  0  0  0  0
   30.0024   32.4753   44.7258 C   0  0  0  0  0  0  0  0  0  0  0  0
   33.0984   31.8995   42.6123 C   0  0  0  0  0  0  0  0  0  0  0  0
  1 12  1  0  0  0  0
  1 11  1  0  0  0  0
  2 13  1  0  0  0  0
  2  9  1  0  0  0  0
  3  4  1  1  0  0  0
  3  5  2  0  0  0  0
  3  6  1  0  0  0  0
  6  8  1  0  0  0  0
  7 10  1  0  0  0  0
  8 11  1  0  0  0  0
  9 12  1  0  0  0  0
 10 13  1  0  0  0  0
M  CHG  1   4  -1
M  END
>  <CHROM.1>
-176.53104876,-176.65281009,-56.66255780,-69.26819037,75.55757372,175.89974438
64.76329004,179.52327902,-172.12015571,31.51871715,32.18875172,46.02572069
1.95533511,0.18528773,1.26228208

>  <Name>
ligand

>  <RI>
0

>  <Rbt.Current_Directory>
/home/itssahil/PROJECTS/Mol_Feturizer/New_Systems/rnas/2NPY

>  <Rbt.Executable>
rbdock ($Id: //depot/dev/client3/rdock/2013.1/src/exe/rbdock.cxx#4 $)

>  <Rbt.Library>
libRbt.so (2013.1, Build901 2013/11/27)

>  <Rbt.Parameter_File>
/export/apps/rDock/src/rDock_2013.1_src/data/scripts/dock_solv.prm

>  <Rbt.Receptor>
prm/pocket_docking_4.prm

>  <SCORE>
-8.16488

>  <SCORE.INTER>
3.88125

>  <SCORE.INTER.CONST>
1

>  <SCORE.INTER.POLAR>
0

>  <SCORE.INTER.ROT>
9

>  <SCORE.INTER.SOLV>
6.6783

>  <SCORE.INTER.VDW>
-9.2386

>  <SCORE.INTER.norm>
0.298558

>  <SCORE.INTRA>
-12.0461

>  <SCORE.INTRA.DIHEDRAL>
-23.7826

>  <SCORE.INTRA.DIHEDRAL.0>
25.6828

>  <SCORE.INTRA.POLAR>
0

>  <SCORE.INTRA.POLAR.0>
0

>  <SCORE.INTRA.REPUL>
0

>  <SCORE.INTRA.REPUL.0>
0

>  <SCORE.INTRA.SOLV>
2.01376

>  <SCORE.INTRA.SOLV.lig_0>
-48.5059

>  <SCORE.INTRA.VDW>
-1.16171

>  <SCORE.INTRA.VDW.0>
-0.363643

>  <SCORE.INTRA.norm>
-0.926625

>  <SCORE.RESTR>
0

>  <SCORE.RESTR.CAVITY>
0

>  <SCORE.RESTR.norm>
0

>  <SCORE.SYSTEM>
0

>  <SCORE.SYSTEM.CONST>
0

>  <SCORE.SYSTEM.DIHEDRAL>
0

>  <SCORE.SYSTEM.SOLV>
0

>  <SCORE.SYSTEM.norm>
0

>  <SCORE.heavy>
13

>  <SCORE.norm>
-0.628067

>  <RMSD>
6.079

$$$$
ligand
 OpenBabel11021811453D
libRbt.so/2013.1/901 2013/11/27
 13 12  0  0  0  0  0  0  0  0999 V2000
   30.6573   34.7530   44.8479 O   0  0  0  0  0  0  0  0  0  0  0  0
   30.7261   32.2765   46.3295 O   0  0  0  0  0  0  0  0  0  0  0  0
   29.8024   38.8612   45.9438 P   0  0  2  0  0  0  0  0  0  0  0  0
   30.4816   38.7036   47.2626 O   0  5  0  0  0  0  0  0  0  0  0  0
   28.4160   39.3931   45.8990 O   0  0  0  0  0  0  0  0  0  0  0  0
   29.7952   37.4590   45.2014 O   0  0  0  0  0  0  0  0  0  0  0  0
   30.0246   32.5129   49.0699 O   0  0  0  0  0  0  0  0  0  0  0  0
   29.0374   36.3542   45.7152 C   0  0  0  0  0  0  0  0  0  0  0  0
   30.3302   32.2942   44.9341 C   0  0  0  0  0  0  0  0  0  0  0  0
   30.5308   31.2888   48.5572 C   0  0  0  0  0  0  0  0  0  0  0  0
   29.2622   35.1108   44.8382 C   0  0  0  0  0  0  0  0  0  0  0  0
   30.9455   33.4957   44.1754 C   0  0  0  0  0  0  0  0  0  0  0  0
   30.1288   31.1897   47.0749 C   0  0  0  0  0  0  0  0  0  0  0  0
  1 12  1  0  0  0  0
  1 11  1  0  0  0  0
  2 13  1  0  0  0  0
  2  9  1  0  0  0  0
  3  4  1  1  0  0  0
  3  5  2  0  0  0  0
  3  6  1  0  0  0  0
  6  8  1  0  0  0  0
  7 10  1  0  0  0  0
  8 11  1  0  0  0  0
  9 12  1  0  0  0  0
 10 13  1  0  0  0  0
M  CHG  1   4  -1
M  END
>  <CHROM.1>
-66.74162831,-176.69953582,66.49300148,-177.44864584,60.66482247,178.00902667
-53.31486432,62.00269499,173.07146779,29.99425135,35.27071762,46.14272856
-0.48044122,1.42501092,-1.23739107

>  <Name>
ligand

>  <RI>
0

>  <Rbt.Current_Directory>
/home/itssahil/PROJECTS/Mol_Feturizer/New_Systems/rnas/2NPY

>  <Rbt.Executable>
rbdock ($Id: //depot/dev/client3/rdock/2013.1/src/exe/rbdock.cxx#4 $)

>  <Rbt.Library>
libRbt.so (2013.1, Build901 2013/11/27)

>  <Rbt.Parameter_File>
/export/apps/rDock/src/rDock_2013.1_src/data/scripts/dock_solv.prm

>  <Rbt.Receptor>
prm/pocket_docking_3.prm

>  <SCORE>
-4.93008

>  <SCORE.INTER>
8.14369

>  <SCORE.INTER.CONST>
1

>  <SCORE.INTER.POLAR>
0

>  <SCORE.INTER.ROT>
9

>  <SCORE.INTER.SOLV>
4.17099

>  <SCORE.INTER.VDW>
-5.5612

>  <SCORE.INTER.norm>
0.626438

>  <SCORE.INTRA>
-13.0748

>  <SCORE.INTRA.DIHEDRAL>
-24.9059

>  <SCORE.INTRA.DIHEDRAL.0>
25.6828

>  <SCORE.INTRA.POLAR>
0

>  <SCORE.INTRA.POLAR.0>
0

>  <SCORE.INTRA.REPUL>
0

>  <SCORE.INTRA.REPUL.0>
0

>  <SCORE.INTRA.SOLV>
-0.46541

>  <SCORE.INTRA.SOLV.lig_0>
-48.5059

>  <SCORE.INTRA.VDW>
-0.389111

>  <SCORE.INTRA.VDW.0>
-0.363643

>  <SCORE.INTRA.norm>
-1.00575

>  <SCORE.RESTR>
0.00101549

>  <SCORE.RESTR.CAVITY>
0.00101549

>  <SCORE.RESTR.norm>
7.81143e-05

>  <SCORE.SYSTEM>
0

>  <SCORE.SYSTEM.CONST>
0

>  <SCORE.SYSTEM.DIHEDRAL>
0

>  <SCORE.SYSTEM.SOLV>
0

>  <SCORE.SYSTEM.norm>
0

>  <SCORE.heavy>
13

>  <SCORE.norm>
-0.379237

>  <RMSD>
6.080

$$$$
ligand
 OpenBabel11021811453D
libRbt.so/2013.1/901 2013/11/27
 13 12  0  0  0  0  0  0  0  0999 V2000
   36.6389   30.4857   48.1248 O   0  0  0  0  0  0  0  0  0  0  0  0
   34.3527   31.9459   49.1091 O   0  0  0  0  0  0  0  0  0  0  0  0
   36.7623   30.4032   43.7259 P   0  0  2  0  0  0  0  0  0  0  0  0
   38.0778   30.2285   43.0445 O   0  5  0  0  0  0  0  0  0  0  0  0
   35.8252   31.4487   43.2404 O   0  0  0  0  0  0  0  0  0  0  0  0
   37.0172   30.6757   45.2680 O   0  0  0  0  0  0  0  0  0  0  0  0
   31.1051   31.0640   50.5694 O   0  0  0  0  0  0  0  0  0  0  0  0
   37.7255   29.7275   46.0792 C   0  0  0  0  0  0  0  0  0  0  0  0
   35.3055   31.3547   50.0293 C   0  0  0  0  0  0  0  0  0  0  0  0
   32.3692   30.8085   49.9744 C   0  0  0  0  0  0  0  0  0  0  0  0
   37.9204   30.2919   47.4968 C   0  0  0  0  0  0  0  0  0  0  0  0
   36.7071   31.2023   49.3890 C   0  0  0  0  0  0  0  0  0  0  0  0
   33.0505   32.1614   49.7017 C   0  0  0  0  0  0  0  0  0  0  0  0
  1 12  1  0  0  0  0
  1 11  1  0  0  0  0
  2 13  1  0  0  0  0
  2  9  1  0  0  0  0
  3  4  1  6  0  0  0
  3  5  2  0  0  0  0
  3  6  1  0  0  0  0
  6  8  1  0  0  0  0
  7 10  1  0  0  0  0
  8 11  1  0  0  0  0
  9 12  1  0  0  0  0
 10 13  1  0  0  0  0
M  CHG  1   4  -1
M  END
>  <CHROM.1>
-178.84355380,-68.77267444,-58.77144319,175.69907395,63.32360370,-177.13203132
-53.21328686,179.28244835,-171.25177073,35.69166314,30.87082480,47.02823783
-2.17244426,0.17988254,-1.59503226

>  <Name>
ligand

>  <RI>
0

>  <Rbt.Current_Directory>
/home/itssahil/PROJECTS/Mol_Feturizer/New_Systems/rnas/2NPY

>  <Rbt.Executable>
rbdock ($Id: //depot/dev/client3/rdock/2013.1/src/exe/rbdock.cxx#4 $)

>  <Rbt.Library>
libRbt.so (2013.1, Build901 2013/11/27)

>  <Rbt.Parameter_File>
/export/apps/rDock/src/rDock_2013.1_src/data/scripts/dock_solv.prm

>  <Rbt.Receptor>
prm/pocket_docking_7.prm

>  <SCORE>
-12.0155

>  <SCORE.INTER>
0.91174

>  <SCORE.INTER.CONST>
1

>  <SCORE.INTER.POLAR>
0

>  <SCORE.INTER.ROT>
9

>  <SCORE.INTER.SOLV>
12.7371

>  <SCORE.INTER.VDW>
-13.2379

>  <SCORE.INTER.norm>
0.0701339

>  <SCORE.INTRA>
-12.9272

>  <SCORE.INTRA.DIHEDRAL>
-24.5385

>  <SCORE.INTRA.DIHEDRAL.0>
25.6828

>  <SCORE.INTRA.POLAR>
0

>  <SCORE.INTRA.POLAR.0>
0

>  <SCORE.INTRA.REPUL>
0

>  <SCORE.INTRA.REPUL.0>
0

>  <SCORE.INTRA.SOLV>
-1.23965

>  <SCORE.INTRA.SOLV.lig_0>
-48.5059

>  <SCORE.INTRA.VDW>
-0.0381478

>  <SCORE.INTRA.VDW.0>
-0.363643

>  <SCORE.INTRA.norm>
-0.994403

>  <SCORE.RESTR>
0

>  <SCORE.RESTR.CAVITY>
0

>  <SCORE.RESTR.norm>
0

>  <SCORE.SYSTEM>
0

>  <SCORE.SYSTEM.CONST>
0

>  <SCORE.SYSTEM.DIHEDRAL>
0

>  <SCORE.SYSTEM.SOLV>
0

>  <SCORE.SYSTEM.norm>
0

>  <SCORE.heavy>
13

>  <SCORE.norm>
-0.924269

>  <RMSD>
6.096

$$$$
ligand
 OpenBabel11021811453D
libRbt.so/2013.1/901 2013/11/27
 13 12  0  0  0  0  0  0  0  0999 V2000
   30.0704   32.8560   46.4054 O   0  0  0  0  0  0  0  0  0  0  0  0
   31.9560   31.6578   48.2410 O   0  0  0  0  0  0  0  0  0  0  0  0
   29.9005   37.0362   45.6347 P   0  0  2  0  0  0  0  0  0  0  0  0
   29.9256   37.6305   47.0028 O   0  5  0  0  0  0  0  0  0  0  0  0
   29.0037   37.6204   44.6046 O   0  0  0  0  0  0  0  0  0  0  0  0
   29.5439   35.4948   45.7531 O   0  0  0  0  0  0  0  0  0  0  0  0
   34.7223   31.4663   48.4704 O   0  0  0  0  0  0  0  0  0  0  0  0
   29.8605   34.5792   44.6946 C   0  0  0  0  0  0  0  0  0  0  0  0
   30.5757   31.2139   48.1966 C   0  0  0  0  0  0  0  0  0  0  0  0
   33.9915   32.0596   49.5340 C   0  0  0  0  0  0  0  0  0  0  0  0
   29.4981   33.1449   45.1157 C   0  0  0  0  0  0  0  0  0  0  0  0
   29.9335   31.4654   46.8102 C   0  0  0  0  0  0  0  0  0  0  0  0
   32.5748   31.4580   49.5335 C   0  0  0  0  0  0  0  0  0  0  0  0
  1 12  1  0  0  0  0
  1 11  1  0  0  0  0
  2 13  1  0  0  0  0
  2  9  1  0  0  0  0
  3  4  1  1  0  0  0
  3  5  2  0  0  0  0
  3  6  1  0  0  0  0
  6  8  1  0  0  0  0
  7 10  1  0  0  0  0
  8 11  1  0  0  0  0
  9 12  1  0  0  0  0
 10 13  1  0  0  0  0
M  CHG  1   4  -1
M  END
>  <CHROM.1>
179.55950929,-175.24601402,-159.69487330,175.93375362,-50.69049537,178.90916564
-53.85464841,-56.25721587,-172.25617872,30.80856993,33.98238307,46.80951962
0.92650742,0.67941202,3.03342215

>  <Name>
ligand

>  <RI>
0

>  <Rbt.Current_Directory>
/home/itssahil/PROJECTS/Mol_Feturizer/New_Systems/rnas/2NPY

>  <Rbt.Executable>
rbdock ($Id: //depot/dev/client3/rdock/2013.1/src/exe/rbdock.cxx#4 $)

>  <Rbt.Library>
libRbt.so (2013.1, Build901 2013/11/27)

>  <Rbt.Parameter_File>
/export/apps/rDock/src/rDock_2013.1_src/data/scripts/dock_solv.prm

>  <Rbt.Receptor>
prm/pocket_docking_3.prm

>  <SCORE>
-6.81569

>  <SCORE.INTER>
7.02951

>  <SCORE.INTER.CONST>
1

>  <SCORE.INTER.POLAR>
0

>  <SCORE.INTER.ROT>
9

>  <SCORE.INTER.SOLV>
5.5859

>  <SCORE.INTER.VDW>
-6.77563

>  <SCORE.INTER.norm>
0.540731

>  <SCORE.INTRA>
-13.8452

>  <SCORE.INTRA.DIHEDRAL>
-24.4177

>  <SCORE.INTRA.DIHEDRAL.0>
25.6828

>  <SCORE.INTRA.POLAR>
0

>  <SCORE.INTRA.POLAR.0>
0

>  <SCORE.INTRA.REPUL>
0

>  <SCORE.INTRA.REPUL.0>
0

>  <SCORE.INTRA.SOLV>
-1.00372

>  <SCORE.INTRA.SOLV.lig_0>
-48.5059

>  <SCORE.INTRA.VDW>
-1.13449

>  <SCORE.INTRA.VDW.0>
-0.363643

>  <SCORE.INTRA.norm>
-1.06502

>  <SCORE.RESTR>
0

>  <SCORE.RESTR.CAVITY>
0

>  <SCORE.RESTR.norm>
0

>  <SCORE.SYSTEM>
0

>  <SCORE.SYSTEM.CONST>
0

>  <SCORE.SYSTEM.DIHEDRAL>
0

>  <SCORE.SYSTEM.SOLV>
0

>  <SCORE.SYSTEM.norm>
0

>  <SCORE.heavy>
13

>  <SCORE.norm>
-0.524284

>  <RMSD>
6.111

$$$$
ligand
 OpenBabel11021811453D
libRbt.so/2013.1/901 2013/11/27
 13 12  0  0  0  0  0  0  0  0999 V2000
   36.5305   30.4618   48.7801 O   0  0  0  0  0  0  0  0  0  0  0  0
   33.7423   30.8795   49.5468 O   0  0  0  0  0  0  0  0  0  0  0  0
   36.5335   31.4524   44.4109 P   0  0  2  0  0  0  0  0  0  0  0  0
   37.7935   31.2819   43.6309 O   0  5  0  0  0  0  0  0  0  0  0  0
   35.7208   32.6812   44.2199 O   0  0  0  0  0  0  0  0  0  0  0  0
   36.8706   31.3441   45.9575 O   0  0  0  0  0  0  0  0  0  0  0  0
   30.6290   29.9668   51.2590 O   0  0  0  0  0  0  0  0  0  0  0  0
   37.3783   30.1255   46.5200 C   0  0  0  0  0  0  0  0  0  0  0  0
   34.7441   31.9169   49.7032 C   0  0  0  0  0  0  0  0  0  0  0  0
   31.6853   29.8100   50.3225 C   0  0  0  0  0  0  0  0  0  0  0  0
   37.7355   30.3400   48.0006 C   0  0  0  0  0  0  0  0  0  0  0  0
   35.8948   31.7664   48.6779 C   0  0  0  0  0  0  0  0  0  0  0  0
   32.6593   30.9884   50.5000 C   0  0  0  0  0  0  0  0  0  0  0  0
  1 12  1  0  0  0  0
  1 11  1  0  0  0  0
  2 13  1  0  0  0  0
  2  9  1  0  0  0  0
  3  4  1  6  0  0  0
  3  5  2  0  0  0  0
  3  6  1  0  0  0  0
  6  8  1  0  0  0  0
  7 10  1  0  0  0  0
  8 11  1  0  0  0  0
  9 12  1  0  0  0  0
 10 13  1  0  0  0  0
M  CHG  1   4  -1
M  END
>  <CHROM.1>
-170.81691979,-176.72382662,-63.88464807,174.87236321,72.14771327,179.51107203
-57.20429278,-179.03789529,-77.89239305,35.32893539,31.04304619,47.50474289
-2.24982465,0.09856517,-1.32785723

>  <Name>
ligand

>  <RI>
0

>  <Rbt.Current_Directory>
/home/itssahil/PROJECTS/Mol_Feturizer/New_Systems/rnas/2NPY

>  <Rbt.Executable>
rbdock ($Id: //depot/dev/client3/rdock/2013.1/src/exe/rbdock.cxx#4 $)

>  <Rbt.Library>
libRbt.so (2013.1, Build901 2013/11/27)

>  <Rbt.Parameter_File>
/export/apps/rDock/src/rDock_2013.1_src/data/scripts/dock_solv.prm

>  <Rbt.Receptor>
prm/pocket_docking_6.prm

>  <SCORE>
-10.8576

>  <SCORE.INTER>
1.52308

>  <SCORE.INTER.CONST>
1

>  <SCORE.INTER.POLAR>
0

>  <SCORE.INTER.ROT>
9

>  <SCORE.INTER.SOLV>
7.49208

>  <SCORE.INTER.VDW>
-11.082

>  <SCORE.INTER.norm>
0.11716

>  <SCORE.INTRA>
-12.3807

>  <SCORE.INTRA.DIHEDRAL>
-22.9365

>  <SCORE.INTRA.DIHEDRAL.0>
25.6828

>  <SCORE.INTRA.POLAR>
0

>  <SCORE.INTRA.POLAR.0>
0

>  <SCORE.INTRA.REPUL>
0

>  <SCORE.INTRA.REPUL.0>
0

>  <SCORE.INTRA.SOLV>
-0.89676

>  <SCORE.INTRA.SOLV.lig_0>
-48.5059

>  <SCORE.INTRA.VDW>
-0.46406

>  <SCORE.INTRA.VDW.0>
-0.363643

>  <SCORE.INTRA.norm>
-0.952359

>  <SCORE.RESTR>
0

>  <SCORE.RESTR.CAVITY>
0

>  <SCORE.RESTR.norm>
0

>  <SCORE.SYSTEM>
0

>  <SCORE.SYSTEM.CONST>
0

>  <SCORE.SYSTEM.DIHEDRAL>
0

>  <SCORE.SYSTEM.SOLV>
0

>  <SCORE.SYSTEM.norm>
0

>  <SCORE.heavy>
13

>  <SCORE.norm>
-0.835199

>  <RMSD>
6.112

$$$$
ligand
 OpenBabel11021811453D
libRbt.so/2013.1/901 2013/11/27
 13 12  0  0  0  0  0  0  0  0999 V2000
   30.7935   32.8248   47.0853 O   0  0  0  0  0  0  0  0  0  0  0  0
   31.9009   32.0275   44.4739 O   0  0  0  0  0  0  0  0  0  0  0  0
   31.6678   36.1688   49.7077 P   0  0  2  0  0  0  0  0  0  0  0  0
   31.0420   37.4428   49.2485 O   0  5  0  0  0  0  0  0  0  0  0  0
   33.1329   35.9804   49.5500 O   0  0  0  0  0  0  0  0  0  0  0  0
   30.9535   34.9554   48.9765 O   0  0  0  0  0  0  0  0  0  0  0  0
   34.1701   32.2761   41.6022 O   0  0  0  0  0  0  0  0  0  0  0  0
   31.2280   33.5989   49.3551 C   0  0  0  0  0  0  0  0  0  0  0  0
   30.4825   32.2371   44.6940 C   0  0  0  0  0  0  0  0  0  0  0  0
   33.8142   32.0145   42.9521 C   0  0  0  0  0  0  0  0  0  0  0  0
   30.4271   32.6334   48.4650 C   0  0  0  0  0  0  0  0  0  0  0  0
   30.0793   31.9560   46.1624 C   0  0  0  0  0  0  0  0  0  0  0  0
   32.3076   32.2871   43.1098 C   0  0  0  0  0  0  0  0  0  0  0  0
  1 12  1  0  0  0  0
  1 11  1  0  0  0  0
  2 13  1  0  0  0  0
  2  9  1  0  0  0  0
  3  4  1  6  0  0  0
  3  5  2  0  0  0  0
  3  6  1  0  0  0  0
  6  8  1  0  0  0  0
  7 10  1  0  0  0  0
  8 11  1  0  0  0  0
  9 12  1  0  0  0  0
 10 13  1  0  0  0  0
M  CHG  1   4  -1
M  END
>  <CHROM.1>
178.25441910,-178.81731614,-171.66856559,-178.70313499,59.78484698,-179.81330721
59.88440449,179.80071660,-179.69757229,31.70749989,33.81630881,46.83417946
1.35587060,-0.71827422,-2.24925899

>  <Name>
ligand

>  <RI>
0

>  <Rbt.Current_Directory>
/home/itssahil/PROJECTS/Mol_Feturizer/New_Systems/rnas/2NPY

>  <Rbt.Executable>
rbdock ($Id: //depot/dev/client3/rdock/2013.1/src/exe/rbdock.cxx#4 $)

>  <Rbt.Library>
libRbt.so (2013.1, Build901 2013/11/27)

>  <Rbt.Parameter_File>
/export/apps/rDock/src/rDock_2013.1_src/data/scripts/dock_solv.prm

>  <Rbt.Receptor>
prm/pocket_docking_4.prm

>  <SCORE>
-8.23386

>  <SCORE.INTER>
6.22746

>  <SCORE.INTER.CONST>
1

>  <SCORE.INTER.POLAR>
0

>  <SCORE.INTER.ROT>
9

>  <SCORE.INTER.SOLV>
3.32505

>  <SCORE.INTER.VDW>
-6.55671

>  <SCORE.INTER.norm>
0.479035

>  <SCORE.INTRA>
-14.4613

>  <SCORE.INTRA.DIHEDRAL>
-25.6118

>  <SCORE.INTRA.DIHEDRAL.0>
25.6828

>  <SCORE.INTRA.POLAR>
0

>  <SCORE.INTRA.POLAR.0>
0

>  <SCORE.INTRA.REPUL>
0

>  <SCORE.INTRA.REPUL.0>
0

>  <SCORE.INTRA.SOLV>
-1.27368

>  <SCORE.INTRA.SOLV.lig_0>
-48.5059

>  <SCORE.INTRA.VDW>
-1.01856

>  <SCORE.INTRA.VDW.0>
-0.363643

>  <SCORE.INTRA.norm>
-1.11241

>  <SCORE.RESTR>
0

>  <SCORE.RESTR.CAVITY>
0

>  <SCORE.RESTR.norm>
0

>  <SCORE.SYSTEM>
0

>  <SCORE.SYSTEM.CONST>
0

>  <SCORE.SYSTEM.DIHEDRAL>
0

>  <SCORE.SYSTEM.SOLV>
0

>  <SCORE.SYSTEM.norm>
0

>  <SCORE.heavy>
13

>  <SCORE.norm>
-0.633374

>  <RMSD>
6.125

$$$$
ligand
 OpenBabel11021811453D
libRbt.so/2013.1/901 2013/11/27
 13 12  0  0  0  0  0  0  0  0999 V2000
   30.7953   34.9534   44.9446 O   0  0  0  0  0  0  0  0  0  0  0  0
   31.3756   32.7859   46.7854 O   0  0  0  0  0  0  0  0  0  0  0  0
   29.8066   38.6105   47.0135 P   0  0  2  0  0  0  0  0  0  0  0  0
   30.0787   38.5215   48.4775 O   0  5  0  0  0  0  0  0  0  0  0  0
   28.4068   38.5076   46.5266 O   0  0  0  0  0  0  0  0  0  0  0  0
   30.6502   37.4929   46.2675 O   0  0  0  0  0  0  0  0  0  0  0  0
   32.9062   32.4228   49.0464 O   0  0  0  0  0  0  0  0  0  0  0  0
   30.6297   37.3826   44.8370 C   0  0  0  0  0  0  0  0  0  0  0  0
   31.0197   32.5245   45.4036 C   0  0  0  0  0  0  0  0  0  0  0  0
   31.5491   32.0067   49.0961 C   0  0  0  0  0  0  0  0  0  0  0  0
   31.4117   36.1337   44.3958 C   0  0  0  0  0  0  0  0  0  0  0  0
   31.3899   33.7100   44.4788 C   0  0  0  0  0  0  0  0  0  0  0  0
   31.1008   31.6689   47.6630 C   0  0  0  0  0  0  0  0  0  0  0  0
  1 12  1  0  0  0  0
  1 11  1  0  0  0  0
  2 13  1  0  0  0  0
  2  9  1  0  0  0  0
  3  4  1  1  0  0  0
  3  5  2  0  0  0  0
  3  6  1  0  0  0  0
  6  8  1  0  0  0  0
  7 10  1  0  0  0  0
  8 11  1  0  0  0  0
  9 12  1  0  0  0  0
 10 13  1  0  0  0  0
M  CHG  1   4  -1
M  END
>  <CHROM.1>
161.96592440,178.06839620,-177.20877574,-174.12033758,61.19731575,-177.16552319
-55.06419726,-53.30597943,174.48130607,30.76262336,35.44790143,46.59864450
-0.09265200,1.26628139,-1.60345386

>  <Name>
ligand

>  <RI>
0

>  <Rbt.Current_Directory>
/home/itssahil/PROJECTS/Mol_Feturizer/New_Systems/rnas/2NPY

>  <Rbt.Executable>
rbdock ($Id: //depot/dev/client3/rdock/2013.1/src/exe/rbdock.cxx#4 $)

>  <Rbt.Library>
libRbt.so (2013.1, Build901 2013/11/27)

>  <Rbt.Parameter_File>
/export/apps/rDock/src/rDock_2013.1_src/data/scripts/dock_solv.prm

>  <Rbt.Receptor>
prm/pocket_docking_2.prm

>  <SCORE>
-2.19686

>  <SCORE.INTER>
10.6175

>  <SCORE.INTER.CONST>
1

>  <SCORE.INTER.POLAR>
0

>  <SCORE.INTER.ROT>
9

>  <SCORE.INTER.SOLV>
4.56476

>  <SCORE.INTER.VDW>
-4.04324

>  <SCORE.INTER.norm>
0.816732

>  <SCORE.INTRA>
-13.2535

>  <SCORE.INTRA.DIHEDRAL>
-23.5168

>  <SCORE.INTRA.DIHEDRAL.0>
25.6828

>  <SCORE.INTRA.POLAR>
0

>  <SCORE.INTRA.POLAR.0>
0

>  <SCORE.INTRA.REPUL>
0

>  <SCORE.INTRA.REPUL.0>
0

>  <SCORE.INTRA.SOLV>
-0.898401

>  <SCORE.INTRA.SOLV.lig_0>
-48.5059

>  <SCORE.INTRA.VDW>
-1.04586

>  <SCORE.INTRA.VDW.0>
-0.363643

>  <SCORE.INTRA.norm>
-1.0195

>  <SCORE.RESTR>
0.439082

>  <SCORE.RESTR.CAVITY>
0.439082

>  <SCORE.RESTR.norm>
0.0337755

>  <SCORE.SYSTEM>
0

>  <SCORE.SYSTEM.CONST>
0

>  <SCORE.SYSTEM.DIHEDRAL>
0

>  <SCORE.SYSTEM.SOLV>
0

>  <SCORE.SYSTEM.norm>
0

>  <SCORE.heavy>
13

>  <SCORE.norm>
-0.168989

>  <RMSD>
6.133

$$$$
ligand
 OpenBabel11021811453D
libRbt.so/2013.1/901 2013/11/27
 13 12  0  0  0  0  0  0  0  0999 V2000
   29.6525   33.6951   45.2376 O   0  0  0  0  0  0  0  0  0  0  0  0
   31.8209   32.5294   46.8957 O   0  0  0  0  0  0  0  0  0  0  0  0
   28.9116   37.8822   45.9897 P   0  0  2  0  0  0  0  0  0  0  0  0
   29.5408   38.3787   44.7315 O   0  5  0  0  0  0  0  0  0  0  0  0
   29.5054   38.2604   47.2978 O   0  0  0  0  0  0  0  0  0  0  0  0
   28.8484   36.2977   45.9393 O   0  0  0  0  0  0  0  0  0  0  0  0
   32.9195   32.2409   49.5033 O   0  0  0  0  0  0  0  0  0  0  0  0
   28.2050   35.6176   44.8519 C   0  0  0  0  0  0  0  0  0  0  0  0
   31.3100   31.9040   45.6907 C   0  0  0  0  0  0  0  0  0  0  0  0
   33.6620   32.8687   48.4679 C   0  0  0  0  0  0  0  0  0  0  0  0
   28.2799   34.0963   45.0668 C   0  0  0  0  0  0  0  0  0  0  0  0
   29.8252   32.2647   45.4391 C   0  0  0  0  0  0  0  0  0  0  0  0
   33.2227   32.2553   47.1264 C   0  0  0  0  0  0  0  0  0  0  0  0
  1 12  1  0  0  0  0
  1 11  1  0  0  0  0
  2 13  1  0  0  0  0
  2  9  1  0  0  0  0
  3  4  1  6  0  0  0
  3  5  2  0  0  0  0
  3  6  1  0  0  0  0
  6  8  1  0  0  0  0
  7 10  1  0  0  0  0
  8 11  1  0  0  0  0
  9 12  1  0  0  0  0
 10 13  1  0  0  0  0
M  CHG  1   4  -1
M  END
>  <CHROM.1>
-176.99814283,-176.06650784,-55.59188290,-179.43071366,-55.52770343,-177.56182572
62.18849525,62.56641354,-179.60953966,30.31296853,34.79873627,46.31439929
0.74309566,0.74937042,-2.85016439

>  <Name>
ligand

>  <RI>
0

>  <Rbt.Current_Directory>
/home/itssahil/PROJECTS/Mol_Feturizer/New_Systems/rnas/2NPY

>  <Rbt.Executable>
rbdock ($Id: //depot/dev/client3/rdock/2013.1/src/exe/rbdock.cxx#4 $)

>  <Rbt.Library>
libRbt.so (2013.1, Build901 2013/11/27)

>  <Rbt.Parameter_File>
/export/apps/rDock/src/rDock_2013.1_src/data/scripts/dock_solv.prm

>  <Rbt.Receptor>
prm/pocket_docking_3.prm

>  <SCORE>
-6.43337

>  <SCORE.INTER>
7.86405

>  <SCORE.INTER.CONST>
1

>  <SCORE.INTER.POLAR>
0

>  <SCORE.INTER.ROT>
9

>  <SCORE.INTER.SOLV>
7.94344

>  <SCORE.INTER.VDW>
-7.00512

>  <SCORE.INTER.norm>
0.604927

>  <SCORE.INTRA>
-14.2974

>  <SCORE.INTRA.DIHEDRAL>
-25.3824

>  <SCORE.INTRA.DIHEDRAL.0>
25.6828

>  <SCORE.INTRA.POLAR>
0

>  <SCORE.INTRA.POLAR.0>
0

>  <SCORE.INTRA.REPUL>
0

>  <SCORE.INTRA.REPUL.0>
0

>  <SCORE.INTRA.SOLV>
-1.01544

>  <SCORE.INTRA.SOLV.lig_0>
-48.5059

>  <SCORE.INTRA.VDW>
-1.09852

>  <SCORE.INTRA.VDW.0>
-0.363643

>  <SCORE.INTRA.norm>
-1.0998

>  <SCORE.RESTR>
0

>  <SCORE.RESTR.CAVITY>
0

>  <SCORE.RESTR.norm>
0

>  <SCORE.SYSTEM>
0

>  <SCORE.SYSTEM.CONST>
0

>  <SCORE.SYSTEM.DIHEDRAL>
0

>  <SCORE.SYSTEM.SOLV>
0

>  <SCORE.SYSTEM.norm>
0

>  <SCORE.heavy>
13

>  <SCORE.norm>
-0.494875

>  <RMSD>
6.145

$$$$
ligand
 OpenBabel11021811453D
libRbt.so/2013.1/901 2013/11/27
 13 12  0  0  0  0  0  0  0  0999 V2000
   36.2332   30.8294   48.2472 O   0  0  0  0  0  0  0  0  0  0  0  0
   33.7628   30.7572   49.9021 O   0  0  0  0  0  0  0  0  0  0  0  0
   36.9780   30.4342   43.9886 P   0  0  2  0  0  0  0  0  0  0  0  0
   38.3468   30.1920   43.4471 O   0  5  0  0  0  0  0  0  0  0  0  0
   36.1137   31.4590   43.3485 O   0  0  0  0  0  0  0  0  0  0  0  0
   37.0947   30.8074   45.5262 O   0  0  0  0  0  0  0  0  0  0  0  0
   30.2082   30.2606   50.6608 O   0  0  0  0  0  0  0  0  0  0  0  0
   37.6054   29.8642   46.4793 C   0  0  0  0  0  0  0  0  0  0  0  0
   34.6594   31.8960   49.8427 C   0  0  0  0  0  0  0  0  0  0  0  0
   31.5271   29.8599   50.3180 C   0  0  0  0  0  0  0  0  0  0  0  0
   37.5835   30.4789   47.8892 C   0  0  0  0  0  0  0  0  0  0  0  0
   36.1181   31.4667   49.5499 C   0  0  0  0  0  0  0  0  0  0  0  0
   32.4021   31.1231   50.2307 C   0  0  0  0  0  0  0  0  0  0  0  0
  1 12  1  0  0  0  0
  1 11  1  0  0  0  0
  2 13  1  0  0  0  0
  2  9  1  0  0  0  0
  3  4  1  6  0  0  0
  3  5  2  0  0  0  0
  3  6  1  0  0  0  0
  6  8  1  0  0  0  0
  7 10  1  0  0  0  0
  8 11  1  0  0  0  0
  9 12  1  0  0  0  0
 10 13  1  0  0  0  0
M  CHG  1   4  -1
M  END
>  <CHROM.1>
176.59439581,-178.20670602,-63.79096799,-178.99761820,59.87496411,177.53201690
62.84002721,179.15108717,-177.81890656,35.41656244,30.70148400,47.31025982
-2.27431794,-0.07602758,-1.65283616

>  <Name>
ligand

>  <RI>
0

>  <Rbt.Current_Directory>
/home/itssahil/PROJECTS/Mol_Feturizer/New_Systems/rnas/2NPY

>  <Rbt.Executable>
rbdock ($Id: //depot/dev/client3/rdock/2013.1/src/exe/rbdock.cxx#4 $)

>  <Rbt.Library>
libRbt.so (2013.1, Build901 2013/11/27)

>  <Rbt.Parameter_File>
/export/apps/rDock/src/rDock_2013.1_src/data/scripts/dock_solv.prm

>  <Rbt.Receptor>
prm/pocket_docking_6.prm

>  <SCORE>
-13.9502

>  <SCORE.INTER>
0.479336

>  <SCORE.INTER.CONST>
1

>  <SCORE.INTER.POLAR>
0

>  <SCORE.INTER.ROT>
9

>  <SCORE.INTER.SOLV>
13.0339

>  <SCORE.INTER.VDW>
-13.6251

>  <SCORE.INTER.norm>
0.036872

>  <SCORE.INTRA>
-14.4295

>  <SCORE.INTRA.DIHEDRAL>
-25.4051

>  <SCORE.INTRA.DIHEDRAL.0>
25.6828

>  <SCORE.INTRA.POLAR>
0

>  <SCORE.INTRA.POLAR.0>
0

>  <SCORE.INTRA.REPUL>
0

>  <SCORE.INTRA.REPUL.0>
0

>  <SCORE.INTRA.SOLV>
-1.34587

>  <SCORE.INTRA.SOLV.lig_0>
-48.5059

>  <SCORE.INTRA.VDW>
-1.05401

>  <SCORE.INTRA.VDW.0>
-0.363643

>  <SCORE.INTRA.norm>
-1.10996

>  <SCORE.RESTR>
0

>  <SCORE.RESTR.CAVITY>
0

>  <SCORE.RESTR.norm>
0

>  <SCORE.SYSTEM>
0

>  <SCORE.SYSTEM.CONST>
0

>  <SCORE.SYSTEM.DIHEDRAL>
0

>  <SCORE.SYSTEM.SOLV>
0

>  <SCORE.SYSTEM.norm>
0

>  <SCORE.heavy>
13

>  <SCORE.norm>
-1.07309

>  <RMSD>
6.151

$$$$
ligand
 OpenBabel11021811453D
libRbt.so/2013.1/901 2013/11/27
 13 12  0  0  0  0  0  0  0  0999 V2000
   36.2724   30.8136   48.2365 O   0  0  0  0  0  0  0  0  0  0  0  0
   33.7992   30.7807   49.8902 O   0  0  0  0  0  0  0  0  0  0  0  0
   36.9928   30.4298   43.9725 P   0  0  2  0  0  0  0  0  0  0  0  0
   38.3506   30.0468   43.4875 O   0  5  0  0  0  0  0  0  0  0  0  0
   36.2738   31.5492   43.3117 O   0  0  0  0  0  0  0  0  0  0  0  0
   37.0797   30.7711   45.5195 O   0  0  0  0  0  0  0  0  0  0  0  0
   30.2199   30.3839   50.5873 O   0  0  0  0  0  0  0  0  0  0  0  0
   37.6117   29.8240   46.4569 C   0  0  0  0  0  0  0  0  0  0  0  0
   34.7309   31.8920   49.8555 C   0  0  0  0  0  0  0  0  0  0  0  0
   31.5427   29.9426   50.3171 C   0  0  0  0  0  0  0  0  0  0  0  0
   37.6114   30.4287   47.8712 C   0  0  0  0  0  0  0  0  0  0  0  0
   36.1757   31.4237   49.5536 C   0  0  0  0  0  0  0  0  0  0  0  0
   32.4486   31.1829   50.2182 C   0  0  0  0  0  0  0  0  0  0  0  0
  1 12  1  0  0  0  0
  1 11  1  0  0  0  0
  2 13  1  0  0  0  0
  2  9  1  0  0  0  0
  3  4  1  6  0  0  0
  3  5  2  0  0  0  0
  3  6  1  0  0  0  0
  6  8  1  0  0  0  0
  7 10  1  0  0  0  0
  8 11  1  0  0  0  0
  9 12  1  0  0  0  0
 10 13  1  0  0  0  0
M  CHG  1   4  -1
M  END
>  <CHROM.1>
176.60952016,-176.64405735,-55.39841022,178.48430796,57.83723848,177.90562360
62.94376474,-177.73822503,-178.80699440,35.45161569,30.70418702,47.29787964
-2.27300316,-0.04682773,-1.64352321

>  <Name>
ligand

>  <RI>
0

>  <Rbt.Current_Directory>
/home/itssahil/PROJECTS/Mol_Feturizer/New_Systems/rnas/2NPY

>  <Rbt.Executable>
rbdock ($Id: //depot/dev/client3/rdock/2013.1/src/exe/rbdock.cxx#4 $)

>  <Rbt.Library>
libRbt.so (2013.1, Build901 2013/11/27)

>  <Rbt.Parameter_File>
/export/apps/rDock/src/rDock_2013.1_src/data/scripts/dock_solv.prm

>  <Rbt.Receptor>
prm/pocket_docking_5.prm

>  <SCORE>
-13.8393

>  <SCORE.INTER>
0.527721

>  <SCORE.INTER.CONST>
1

>  <SCORE.INTER.POLAR>
0

>  <SCORE.INTER.ROT>
9

>  <SCORE.INTER.SOLV>
13.0674

>  <SCORE.INTER.VDW>
-13.604

>  <SCORE.INTER.norm>
0.0405939

>  <SCORE.INTRA>
-14.367

>  <SCORE.INTRA.DIHEDRAL>
-25.4313

>  <SCORE.INTRA.DIHEDRAL.0>
25.6828

>  <SCORE.INTRA.POLAR>
0

>  <SCORE.INTRA.POLAR.0>
0

>  <SCORE.INTRA.REPUL>
0

>  <SCORE.INTRA.REPUL.0>
0

>  <SCORE.INTRA.SOLV>
-1.29106

>  <SCORE.INTRA.SOLV.lig_0>
-48.5059

>  <SCORE.INTRA.VDW>
-1.00585

>  <SCORE.INTRA.VDW.0>
-0.363643

>  <SCORE.INTRA.norm>
-1.10516

>  <SCORE.RESTR>
0

>  <SCORE.RESTR.CAVITY>
0

>  <SCORE.RESTR.norm>
0

>  <SCORE.SYSTEM>
0

>  <SCORE.SYSTEM.CONST>
0

>  <SCORE.SYSTEM.DIHEDRAL>
0

>  <SCORE.SYSTEM.SOLV>
0

>  <SCORE.SYSTEM.norm>
0

>  <SCORE.heavy>
13

>  <SCORE.norm>
-1.06456

>  <RMSD>
6.154

$$$$
ligand
 OpenBabel11021811453D
libRbt.so/2013.1/901 2013/11/27
 13 12  0  0  0  0  0  0  0  0999 V2000
   33.4546   33.2186   48.4189 O   0  0  0  0  0  0  0  0  0  0  0  0
   35.4151   31.7989   46.7125 O   0  0  0  0  0  0  0  0  0  0  0  0
   30.2876   32.3106   45.5193 P   0  0  2  0  0  0  0  0  0  0  0  0
   30.6773   32.8692   44.1921 O   0  5  0  0  0  0  0  0  0  0  0  0
   28.8743   32.4144   45.9652 O   0  0  0  0  0  0  0  0  0  0  0  0
   31.1877   32.9811   46.6407 O   0  0  0  0  0  0  0  0  0  0  0  0
   36.0602   32.7736   44.1223 O   0  0  0  0  0  0  0  0  0  0  0  0
   31.1650   32.5003   47.9925 C   0  0  0  0  0  0  0  0  0  0  0  0
   35.4764   31.8020   48.1618 C   0  0  0  0  0  0  0  0  0  0  0  0
   36.5403   31.5109   44.5612 C   0  0  0  0  0  0  0  0  0  0  0  0
   32.0937   33.3570   48.8697 C   0  0  0  0  0  0  0  0  0  0  0  0
   34.0731   31.9575   48.7977 C   0  0  0  0  0  0  0  0  0  0  0  0
   36.7010   31.5670   46.0909 C   0  0  0  0  0  0  0  0  0  0  0  0
  1 12  1  0  0  0  0
  1 11  1  0  0  0  0
  2 13  1  0  0  0  0
  2  9  1  0  0  0  0
  3  4  1  6  0  0  0
  3  5  2  0  0  0  0
  3  6  1  0  0  0  0
  6  8  1  0  0  0  0
  7 10  1  0  0  0  0
  8 11  1  0  0  0  0
  9 12  1  0  0  0  0
 10 13  1  0  0  0  0
M  CHG  1   4  -1
M  END
>  <CHROM.1>
173.99437803,177.28175093,-171.15373598,-178.21179373,-63.61465831,-176.18212760
-61.49431877,62.30959732,-75.59789872,32.96022737,32.39907811,46.49635923
0.00169922,-0.11433505,1.50781592

>  <Name>
ligand

>  <RI>
0

>  <Rbt.Current_Directory>
/home/itssahil/PROJECTS/Mol_Feturizer/New_Systems/rnas/2NPY

>  <Rbt.Executable>
rbdock ($Id: //depot/dev/client3/rdock/2013.1/src/exe/rbdock.cxx#4 $)

>  <Rbt.Library>
libRbt.so (2013.1, Build901 2013/11/27)

>  <Rbt.Parameter_File>
/export/apps/rDock/src/rDock_2013.1_src/data/scripts/dock_solv.prm

>  <Rbt.Receptor>
prm/pocket_docking_3.prm

>  <SCORE>
-6.68681

>  <SCORE.INTER>
6.44924

>  <SCORE.INTER.CONST>
1

>  <SCORE.INTER.POLAR>
0

>  <SCORE.INTER.ROT>
9

>  <SCORE.INTER.SOLV>
7.21117

>  <SCORE.INTER.VDW>
-7.70423

>  <SCORE.INTER.norm>
0.496095

>  <SCORE.INTRA>
-13.136

>  <SCORE.INTRA.DIHEDRAL>
-24.1258

>  <SCORE.INTRA.DIHEDRAL.0>
25.6828

>  <SCORE.INTRA.POLAR>
0

>  <SCORE.INTRA.POLAR.0>
0

>  <SCORE.INTRA.REPUL>
0

>  <SCORE.INTRA.REPUL.0>
0

>  <SCORE.INTRA.SOLV>
-1.05932

>  <SCORE.INTRA.SOLV.lig_0>
-48.5059

>  <SCORE.INTRA.VDW>
-0.543497

>  <SCORE.INTRA.VDW.0>
-0.363643

>  <SCORE.INTRA.norm>
-1.01047

>  <SCORE.RESTR>
0

>  <SCORE.RESTR.CAVITY>
0

>  <SCORE.RESTR.norm>
0

>  <SCORE.SYSTEM>
0

>  <SCORE.SYSTEM.CONST>
0

>  <SCORE.SYSTEM.DIHEDRAL>
0

>  <SCORE.SYSTEM.SOLV>
0

>  <SCORE.SYSTEM.norm>
0

>  <SCORE.heavy>
13

>  <SCORE.norm>
-0.51437

>  <RMSD>
6.160

$$$$
ligand
 OpenBabel11021811453D
libRbt.so/2013.1/901 2013/11/27
 13 12  0  0  0  0  0  0  0  0999 V2000
   37.0495   30.8621   47.1295 O   0  0  0  0  0  0  0  0  0  0  0  0
   35.1715   32.2580   48.9900 O   0  0  0  0  0  0  0  0  0  0  0  0
   36.2266   30.6446   42.8049 P   0  0  2  0  0  0  0  0  0  0  0  0
   37.0512   31.8345   42.4450 O   0  5  0  0  0  0  0  0  0  0  0  0
   34.7657   30.6641   42.5357 O   0  0  0  0  0  0  0  0  0  0  0  0
   36.4189   30.3372   44.3495 O   0  0  0  0  0  0  0  0  0  0  0  0
   32.6555   31.8457   47.8288 O   0  0  0  0  0  0  0  0  0  0  0  0
   37.7255   30.1304   44.9051 C   0  0  0  0  0  0  0  0  0  0  0  0
   36.5451   31.9238   49.3155 C   0  0  0  0  0  0  0  0  0  0  0  0
   32.7817   31.8092   49.2431 C   0  0  0  0  0  0  0  0  0  0  0  0
   37.6100   29.7585   46.3932 C   0  0  0  0  0  0  0  0  0  0  0  0
   37.0218   30.6537   48.5690 C   0  0  0  0  0  0  0  0  0  0  0  0
   34.2116   31.3522   49.5829 C   0  0  0  0  0  0  0  0  0  0  0  0
  1 12  1  0  0  0  0
  1 11  1  0  0  0  0
  2 13  1  0  0  0  0
  2  9  1  0  0  0  0
  3  4  1  1  0  0  0
  3  5  2  0  0  0  0
  3  6  1  0  0  0  0
  6  8  1  0  0  0  0
  7 10  1  0  0  0  0
  8 11  1  0  0  0  0
  9 12  1  0  0  0  0
 10 13  1  0  0  0  0
M  CHG  1   4  -1
M  END
>  <CHROM.1>
174.21642344,177.50987242,-55.35986376,-176.14634190,-64.39101822,72.44023934
64.41820170,58.23643032,-174.32351452,35.80749198,31.05967048,46.12284258
-1.87132053,0.24144545,-1.64741363

>  <Name>
ligand

>  <RI>
0

>  <Rbt.Current_Directory>
/home/itssahil/PROJECTS/Mol_Feturizer/New_Systems/rnas/2NPY

>  <Rbt.Executable>
rbdock ($Id: //depot/dev/client3/rdock/2013.1/src/exe/rbdock.cxx#4 $)

>  <Rbt.Library>
libRbt.so (2013.1, Build901 2013/11/27)

>  <Rbt.Parameter_File>
/export/apps/rDock/src/rDock_2013.1_src/data/scripts/dock_solv.prm

>  <Rbt.Receptor>
prm/pocket_docking_5.prm

>  <SCORE>
-11.0318

>  <SCORE.INTER>
2.13495

>  <SCORE.INTER.CONST>
1

>  <SCORE.INTER.POLAR>
0

>  <SCORE.INTER.ROT>
9

>  <SCORE.INTER.SOLV>
10.1893

>  <SCORE.INTER.VDW>
-11.5731

>  <SCORE.INTER.norm>
0.164227

>  <SCORE.INTRA>
-13.1667

>  <SCORE.INTRA.DIHEDRAL>
-24.3329

>  <SCORE.INTRA.DIHEDRAL.0>
25.6828

>  <SCORE.INTRA.POLAR>
0

>  <SCORE.INTRA.POLAR.0>
0

>  <SCORE.INTRA.REPUL>
0

>  <SCORE.INTRA.REPUL.0>
0

>  <SCORE.INTRA.SOLV>
-1.02456

>  <SCORE.INTRA.SOLV.lig_0>
-48.5059

>  <SCORE.INTRA.VDW>
-0.488012

>  <SCORE.INTRA.VDW.0>
-0.363643

>  <SCORE.INTRA.norm>
-1.01282

>  <SCORE.RESTR>
0

>  <SCORE.RESTR.CAVITY>
0

>  <SCORE.RESTR.norm>
0

>  <SCORE.SYSTEM>
0

>  <SCORE.SYSTEM.CONST>
0

>  <SCORE.SYSTEM.DIHEDRAL>
0

>  <SCORE.SYSTEM.SOLV>
0

>  <SCORE.SYSTEM.norm>
0

>  <SCORE.heavy>
13

>  <SCORE.norm>
-0.848598

>  <RMSD>
6.176

$$$$
ligand
 OpenBabel11021811453D
libRbt.so/2013.1/901 2013/11/27
 13 12  0  0  0  0  0  0  0  0999 V2000
   36.4704   30.8133   47.7445 O   0  0  0  0  0  0  0  0  0  0  0  0
   34.1520   30.9980   49.5944 O   0  0  0  0  0  0  0  0  0  0  0  0
   37.2464   31.8252   43.5563 P   0  0  2  0  0  0  0  0  0  0  0  0
   35.8847   31.4235   43.0983 O   0  5  0  0  0  0  0  0  0  0  0  0
   38.4391   31.2547   42.8788 O   0  0  0  0  0  0  0  0  0  0  0  0
   37.3817   31.5020   45.1037 O   0  0  0  0  0  0  0  0  0  0  0  0
   31.4261   31.1655   48.6252 O   0  0  0  0  0  0  0  0  0  0  0  0
   37.3718   30.1485   45.5799 C   0  0  0  0  0  0  0  0  0  0  0  0
   35.4132   31.6794   49.8164 C   0  0  0  0  0  0  0  0  0  0  0  0
   31.7411   30.8624   49.9766 C   0  0  0  0  0  0  0  0  0  0  0  0
   37.5642   30.1277   47.1058 C   0  0  0  0  0  0  0  0  0  0  0  0
   36.6022   30.9099   49.1901 C   0  0  0  0  0  0  0  0  0  0  0  0
   33.0539   31.5823   50.3335 C   0  0  0  0  0  0  0  0  0  0  0  0
  1 12  1  0  0  0  0
  1 11  1  0  0  0  0
  2 13  1  0  0  0  0
  2  9  1  0  0  0  0
  3  4  1  6  0  0  0
  3  5  2  0  0  0  0
  3  6  1  0  0  0  0
  6  8  1  0  0  0  0
  7 10  1  0  0  0  0
  8 11  1  0  0  0  0
  9 12  1  0  0  0  0
 10 13  1  0  0  0  0
M  CHG  1   4  -1
M  END
>  <CHROM.1>
178.88882638,176.42455397,66.41506699,178.15543624,62.23613781,171.30840819
62.56505861,-67.85593498,-176.80438262,35.73007790,31.16291873,46.78381116
-2.20091205,0.11699460,-1.45396433

>  <Name>
ligand

>  <RI>
0

>  <Rbt.Current_Directory>
/home/itssahil/PROJECTS/Mol_Feturizer/New_Systems/rnas/2NPY

>  <Rbt.Executable>
rbdock ($Id: //depot/dev/client3/rdock/2013.1/src/exe/rbdock.cxx#4 $)

>  <Rbt.Library>
libRbt.so (2013.1, Build901 2013/11/27)

>  <Rbt.Parameter_File>
/export/apps/rDock/src/rDock_2013.1_src/data/scripts/dock_solv.prm

>  <Rbt.Receptor>
prm/pocket_docking_5.prm

>  <SCORE>
-11.8842

>  <SCORE.INTER>
1.98398

>  <SCORE.INTER.CONST>
1

>  <SCORE.INTER.POLAR>
0

>  <SCORE.INTER.ROT>
9

>  <SCORE.INTER.SOLV>
5.82234

>  <SCORE.INTER.VDW>
-10.2181

>  <SCORE.INTER.norm>
0.152614

>  <SCORE.INTRA>
-13.8703

>  <SCORE.INTRA.DIHEDRAL>
-24.8754

>  <SCORE.INTRA.DIHEDRAL.0>
25.6828

>  <SCORE.INTRA.POLAR>
0

>  <SCORE.INTRA.POLAR.0>
0

>  <SCORE.INTRA.REPUL>
0

>  <SCORE.INTRA.REPUL.0>
0

>  <SCORE.INTRA.SOLV>
-0.648465

>  <SCORE.INTRA.SOLV.lig_0>
-48.5059

>  <SCORE.INTRA.VDW>
-1.10838

>  <SCORE.INTRA.VDW.0>
-0.363643

>  <SCORE.INTRA.norm>
-1.06695

>  <SCORE.RESTR>
0.00217384

>  <SCORE.RESTR.CAVITY>
0.00217384

>  <SCORE.RESTR.norm>
0.000167218

>  <SCORE.SYSTEM>
0

>  <SCORE.SYSTEM.CONST>
0

>  <SCORE.SYSTEM.DIHEDRAL>
0

>  <SCORE.SYSTEM.SOLV>
0

>  <SCORE.SYSTEM.norm>
0

>  <SCORE.heavy>
13

>  <SCORE.norm>
-0.914168

>  <RMSD>
6.178

$$$$
ligand
 OpenBabel11021811453D
libRbt.so/2013.1/901 2013/11/27
 13 12  0  0  0  0  0  0  0  0999 V2000
   35.8772   31.4262   50.6069 O   0  0  0  0  0  0  0  0  0  0  0  0
   34.0212   33.2265   51.9620 O   0  0  0  0  0  0  0  0  0  0  0  0
   37.8972   30.0287   46.1797 P   0  0  2  0  0  0  0  0  0  0  0  0
   39.2381   29.5207   45.7682 O   0  5  0  0  0  0  0  0  0  0  0  0
   37.3104   31.1923   45.4664 O   0  0  0  0  0  0  0  0  0  0  0  0
   37.9397   30.3926   47.7234 O   0  0  0  0  0  0  0  0  0  0  0  0
   31.8052   34.1215   50.4733 O   0  0  0  0  0  0  0  0  0  0  0  0
   36.7433   30.7442   48.4333 C   0  0  0  0  0  0  0  0  0  0  0  0
   34.7789   32.2230   52.6853 C   0  0  0  0  0  0  0  0  0  0  0  0
   32.0292   34.6321   51.7797 C   0  0  0  0  0  0  0  0  0  0  0  0
   37.0829   31.0965   49.8916 C   0  0  0  0  0  0  0  0  0  0  0  0
   36.1085   31.8783   51.9702 C   0  0  0  0  0  0  0  0  0  0  0  0
   32.7615   33.5516   52.5953 C   0  0  0  0  0  0  0  0  0  0  0  0
  1 12  1  0  0  0  0
  1 11  1  0  0  0  0
  2 13  1  0  0  0  0
  2  9  1  0  0  0  0
  3  4  1  6  0  0  0
  3  5  2  0  0  0  0
  3  6  1  0  0  0  0
  6  8  1  0  0  0  0
  7 10  1  0  0  0  0
  8 11  1  0  0  0  0
  9 12  1  0  0  0  0
 10 13  1  0  0  0  0
M  CHG  1   4  -1
M  END
>  <CHROM.1>
179.75932560,179.27640804,-171.92628777,-177.94019904,-179.00555713,178.97321462
-56.94028413,59.67858747,-175.33075694,35.86131400,31.69135088,49.32197980
-2.38875804,0.59035051,-1.57607907

>  <Name>
ligand

>  <RI>
0

>  <Rbt.Current_Directory>
/home/itssahil/PROJECTS/Mol_Feturizer/New_Systems/rnas/2NPY

>  <Rbt.Executable>
rbdock ($Id: //depot/dev/client3/rdock/2013.1/src/exe/rbdock.cxx#4 $)

>  <Rbt.Library>
libRbt.so (2013.1, Build901 2013/11/27)

>  <Rbt.Parameter_File>
/export/apps/rDock/src/rDock_2013.1_src/data/scripts/dock_solv.prm

>  <Rbt.Receptor>
prm/pocket_docking_7.prm

>  <SCORE>
-11.7436

>  <SCORE.INTER>
2.51239

>  <SCORE.INTER.CONST>
1

>  <SCORE.INTER.POLAR>
0

>  <SCORE.INTER.ROT>
9

>  <SCORE.INTER.SOLV>
10.4072

>  <SCORE.INTER.VDW>
-11.3941

>  <SCORE.INTER.norm>
0.193261

>  <SCORE.INTRA>
-14.258

>  <SCORE.INTRA.DIHEDRAL>
-25.4692

>  <SCORE.INTRA.DIHEDRAL.0>
25.6828

>  <SCORE.INTRA.POLAR>
0

>  <SCORE.INTRA.POLAR.0>
0

>  <SCORE.INTRA.REPUL>
0

>  <SCORE.INTRA.REPUL.0>
0

>  <SCORE.INTRA.SOLV>
-1.14211

>  <SCORE.INTRA.SOLV.lig_0>
-48.5059

>  <SCORE.INTRA.VDW>
-0.952393

>  <SCORE.INTRA.VDW.0>
-0.363643

>  <SCORE.INTRA.norm>
-1.09677

>  <SCORE.RESTR>
0.00200434

>  <SCORE.RESTR.CAVITY>
0.00200434

>  <SCORE.RESTR.norm>
0.00015418

>  <SCORE.SYSTEM>
0

>  <SCORE.SYSTEM.CONST>
0

>  <SCORE.SYSTEM.DIHEDRAL>
0

>  <SCORE.SYSTEM.SOLV>
0

>  <SCORE.SYSTEM.norm>
0

>  <SCORE.heavy>
13

>  <SCORE.norm>
-0.903357

>  <RMSD>
6.220

$$$$
ligand
 OpenBabel11021811453D
libRbt.so/2013.1/901 2013/11/27
 13 12  0  0  0  0  0  0  0  0999 V2000
   36.5681   30.7289   47.9975 O   0  0  0  0  0  0  0  0  0  0  0  0
   34.1389   30.8186   49.7539 O   0  0  0  0  0  0  0  0  0  0  0  0
   36.4560   31.7687   45.1010 P   0  0  2  0  0  0  0  0  0  0  0  0
   35.6763   31.3517   43.8995 O   0  5  0  0  0  0  0  0  0  0  0  0
   36.9191   33.1756   45.2149 O   0  0  0  0  0  0  0  0  0  0  0  0
   37.7345   30.8380   45.2294 O   0  0  0  0  0  0  0  0  0  0  0  0
   30.6008   30.7350   50.7190 O   0  0  0  0  0  0  0  0  0  0  0  0
   37.7437   29.7129   46.1199 C   0  0  0  0  0  0  0  0  0  0  0  0
   35.1865   31.8221   49.7459 C   0  0  0  0  0  0  0  0  0  0  0  0
   31.8373   30.1878   50.2840 C   0  0  0  0  0  0  0  0  0  0  0  0
   37.8388   30.1975   47.5766 C   0  0  0  0  0  0  0  0  0  0  0  0
   36.5610   31.2175   49.3678 C   0  0  0  0  0  0  0  0  0  0  0  0
   32.8683   31.3289   50.2213 C   0  0  0  0  0  0  0  0  0  0  0  0
  1 12  1  0  0  0  0
  1 11  1  0  0  0  0
  2 13  1  0  0  0  0
  2  9  1  0  0  0  0
  3  4  1  6  0  0  0
  3  5  2  0  0  0  0
  3  6  1  0  0  0  0
  6  8  1  0  0  0  0
  7 10  1  0  0  0  0
  8 11  1  0  0  0  0
  9 12  1  0  0  0  0
 10 13  1  0  0  0  0
M  CHG  1   4  -1
M  END
>  <CHROM.1>
177.93585070,-176.45587390,-98.35465547,-73.10578436,74.99764821,174.70386314
65.40148903,-178.78922959,-179.85980044,35.47293224,31.13577452,47.53486076
-0.82495231,-0.15383893,1.81728484

>  <Name>
ligand

>  <RI>
0

>  <Rbt.Current_Directory>
/home/itssahil/PROJECTS/Mol_Feturizer/New_Systems/rnas/2NPY

>  <Rbt.Executable>
rbdock ($Id: //depot/dev/client3/rdock/2013.1/src/exe/rbdock.cxx#4 $)

>  <Rbt.Library>
libRbt.so (2013.1, Build901 2013/11/27)

>  <Rbt.Parameter_File>
/export/apps/rDock/src/rDock_2013.1_src/data/scripts/dock_solv.prm

>  <Rbt.Receptor>
prm/pocket_docking_5.prm

>  <SCORE>
-10.2054

>  <SCORE.INTER>
1.50769

>  <SCORE.INTER.CONST>
1

>  <SCORE.INTER.POLAR>
0

>  <SCORE.INTER.ROT>
9

>  <SCORE.INTER.SOLV>
7.8685

>  <SCORE.INTER.VDW>
-11.2177

>  <SCORE.INTER.norm>
0.115976

>  <SCORE.INTRA>
-11.713

>  <SCORE.INTRA.DIHEDRAL>
-22.4222

>  <SCORE.INTRA.DIHEDRAL.0>
25.6828

>  <SCORE.INTRA.POLAR>
0

>  <SCORE.INTRA.POLAR.0>
0

>  <SCORE.INTRA.REPUL>
0

>  <SCORE.INTRA.REPUL.0>
0

>  <SCORE.INTRA.SOLV>
1.61301

>  <SCORE.INTRA.SOLV.lig_0>
-48.5059

>  <SCORE.INTRA.VDW>
-1.30844

>  <SCORE.INTRA.VDW.0>
-0.363643

>  <SCORE.INTRA.norm>
-0.901003

>  <SCORE.RESTR>
0

>  <SCORE.RESTR.CAVITY>
0

>  <SCORE.RESTR.norm>
0

>  <SCORE.SYSTEM>
0

>  <SCORE.SYSTEM.CONST>
0

>  <SCORE.SYSTEM.DIHEDRAL>
0

>  <SCORE.SYSTEM.SOLV>
0

>  <SCORE.SYSTEM.norm>
0

>  <SCORE.heavy>
13

>  <SCORE.norm>
-0.785027

>  <RMSD>
6.228

$$$$
ligand
 OpenBabel11021811453D
libRbt.so/2013.1/901 2013/11/27
 13 12  0  0  0  0  0  0  0  0999 V2000
   29.8302   33.3386   46.7003 O   0  0  0  0  0  0  0  0  0  0  0  0
   31.9178   31.7746   48.4468 O   0  0  0  0  0  0  0  0  0  0  0  0
   30.1537   37.3262   47.3783 P   0  0  2  0  0  0  0  0  0  0  0  0
   30.1479   38.4583   46.4068 O   0  5  0  0  0  0  0  0  0  0  0  0
   31.1172   37.3433   48.5089 O   0  0  0  0  0  0  0  0  0  0  0  0
   30.3807   35.9717   46.5838 O   0  0  0  0  0  0  0  0  0  0  0  0
   34.6136   31.0772   49.3604 O   0  0  0  0  0  0  0  0  0  0  0  0
   29.4076   35.4939   45.6438 C   0  0  0  0  0  0  0  0  0  0  0  0
   30.6158   31.3532   47.9658 C   0  0  0  0  0  0  0  0  0  0  0  0
   33.6420   31.7124   50.1789 C   0  0  0  0  0  0  0  0  0  0  0  0
   29.5790   33.9796   45.4352 C   0  0  0  0  0  0  0  0  0  0  0  0
   30.2880   31.9629   46.5806 C   0  0  0  0  0  0  0  0  0  0  0  0
   32.2519   31.2185   49.7401 C   0  0  0  0  0  0  0  0  0  0  0  0
  1 12  1  0  0  0  0
  1 11  1  0  0  0  0
  2 13  1  0  0  0  0
  2  9  1  0  0  0  0
  3  4  1  6  0  0  0
  3  5  2  0  0  0  0
  3  6  1  0  0  0  0
  6  8  1  0  0  0  0
  7 10  1  0  0  0  0
  8 11  1  0  0  0  0
  9 12  1  0  0  0  0
 10 13  1  0  0  0  0
M  CHG  1   4  -1
M  END
>  <CHROM.1>
176.84543073,-179.95210800,-65.01583921,-158.30189459,41.65118643,-179.94294180
-79.62625363,-71.02652935,-167.50932043,31.01363042,34.23828042,47.59462487
2.16518210,-0.78755974,0.07077082

>  <Name>
ligand

>  <RI>
0

>  <Rbt.Current_Directory>
/home/itssahil/PROJECTS/Mol_Feturizer/New_Systems/rnas/2NPY

>  <Rbt.Executable>
rbdock ($Id: //depot/dev/client3/rdock/2013.1/src/exe/rbdock.cxx#4 $)

>  <Rbt.Library>
libRbt.so (2013.1, Build901 2013/11/27)

>  <Rbt.Parameter_File>
/export/apps/rDock/src/rDock_2013.1_src/data/scripts/dock_solv.prm

>  <Rbt.Receptor>
prm/pocket_docking_4.prm

>  <SCORE>
-4.9721

>  <SCORE.INTER>
6.45784

>  <SCORE.INTER.CONST>
1

>  <SCORE.INTER.POLAR>
0

>  <SCORE.INTER.ROT>
9

>  <SCORE.INTER.SOLV>
7.34137

>  <SCORE.INTER.VDW>
-7.7419

>  <SCORE.INTER.norm>
0.496757

>  <SCORE.INTRA>
-11.4299

>  <SCORE.INTRA.DIHEDRAL>
-19.7105

>  <SCORE.INTRA.DIHEDRAL.0>
25.6828

>  <SCORE.INTRA.POLAR>
0

>  <SCORE.INTRA.POLAR.0>
0

>  <SCORE.INTRA.REPUL>
0

>  <SCORE.INTRA.REPUL.0>
0

>  <SCORE.INTRA.SOLV>
-0.955654

>  <SCORE.INTRA.SOLV.lig_0>
-48.5059

>  <SCORE.INTRA.VDW>
-1.09688

>  <SCORE.INTRA.VDW.0>
-0.363643

>  <SCORE.INTRA.norm>
-0.879226

>  <SCORE.RESTR>
0

>  <SCORE.RESTR.CAVITY>
0

>  <SCORE.RESTR.norm>
0

>  <SCORE.SYSTEM>
0

>  <SCORE.SYSTEM.CONST>
0

>  <SCORE.SYSTEM.DIHEDRAL>
0

>  <SCORE.SYSTEM.SOLV>
0

>  <SCORE.SYSTEM.norm>
0

>  <SCORE.heavy>
13

>  <SCORE.norm>
-0.382469

>  <RMSD>
6.238

$$$$
ligand
 OpenBabel11021811453D
libRbt.so/2013.1/901 2013/11/27
 13 12  0  0  0  0  0  0  0  0999 V2000
   30.4559   34.2850   45.3797 O   0  0  0  0  0  0  0  0  0  0  0  0
   31.1339   31.4573   45.7941 O   0  0  0  0  0  0  0  0  0  0  0  0
   29.4694   38.7466   47.5602 P   0  0  2  0  0  0  0  0  0  0  0  0
   29.7757   38.3084   48.9529 O   0  5  0  0  0  0  0  0  0  0  0  0
   28.0528   38.8423   47.1232 O   0  0  0  0  0  0  0  0  0  0  0  0
   30.2134   37.7808   46.5448 O   0  0  0  0  0  0  0  0  0  0  0  0
   31.5941   31.7412   48.5662 O   0  0  0  0  0  0  0  0  0  0  0  0
   29.8871   36.3851   46.4779 C   0  0  0  0  0  0  0  0  0  0  0  0
   30.9304   32.0233   44.4741 C   0  0  0  0  0  0  0  0  0  0  0  0
   30.3769   31.1757   48.1015 C   0  0  0  0  0  0  0  0  0  0  0  0
   30.7641   35.6913   45.4218 C   0  0  0  0  0  0  0  0  0  0  0  0
   31.2693   33.5338   44.4361 C   0  0  0  0  0  0  0  0  0  0  0  0
   30.0683   31.7775   46.7190 C   0  0  0  0  0  0  0  0  0  0  0  0
  1 12  1  0  0  0  0
  1 11  1  0  0  0  0
  2 13  1  0  0  0  0
  2  9  1  0  0  0  0
  3  4  1  1  0  0  0
  3  5  2  0  0  0  0
  3  6  1  0  0  0  0
  6  8  1  0  0  0  0
  7 10  1  0  0  0  0
  8 11  1  0  0  0  0
  9 12  1  0  0  0  0
 10 13  1  0  0  0  0
M  CHG  1   4  -1
M  END
>  <CHROM.1>
177.83706449,-178.44025780,63.53102321,-179.57280388,178.65458507,77.48856878
-58.89664061,60.57441932,-178.11599179,30.23403838,35.10726061,46.68636608
-0.25570779,1.33391385,-1.14085061

>  <Name>
ligand

>  <RI>
0

>  <Rbt.Current_Directory>
/home/itssahil/PROJECTS/Mol_Feturizer/New_Systems/rnas/2NPY

>  <Rbt.Executable>
rbdock ($Id: //depot/dev/client3/rdock/2013.1/src/exe/rbdock.cxx#4 $)

>  <Rbt.Library>
libRbt.so (2013.1, Build901 2013/11/27)

>  <Rbt.Parameter_File>
/export/apps/rDock/src/rDock_2013.1_src/data/scripts/dock_solv.prm

>  <Rbt.Receptor>
prm/pocket_docking_3.prm

>  <SCORE>
-5.07124

>  <SCORE.INTER>
7.72338

>  <SCORE.INTER.CONST>
1

>  <SCORE.INTER.POLAR>
0

>  <SCORE.INTER.ROT>
9

>  <SCORE.INTER.SOLV>
9.04515

>  <SCORE.INTER.VDW>
-7.46613

>  <SCORE.INTER.norm>
0.594106

>  <SCORE.INTRA>
-12.7946

>  <SCORE.INTRA.DIHEDRAL>
-24.1776

>  <SCORE.INTRA.DIHEDRAL.0>
25.6828

>  <SCORE.INTRA.POLAR>
0

>  <SCORE.INTRA.POLAR.0>
0

>  <SCORE.INTRA.REPUL>
0

>  <SCORE.INTRA.REPUL.0>
0

>  <SCORE.INTRA.SOLV>
-0.505801

>  <SCORE.INTRA.SOLV.lig_0>
-48.5059

>  <SCORE.INTRA.VDW>
-0.452925

>  <SCORE.INTRA.VDW.0>
-0.363643

>  <SCORE.INTRA.norm>
-0.984202

>  <SCORE.RESTR>
0

>  <SCORE.RESTR.CAVITY>
0

>  <SCORE.RESTR.norm>
0

>  <SCORE.SYSTEM>
0

>  <SCORE.SYSTEM.CONST>
0

>  <SCORE.SYSTEM.DIHEDRAL>
0

>  <SCORE.SYSTEM.SOLV>
0

>  <SCORE.SYSTEM.norm>
0

>  <SCORE.heavy>
13

>  <SCORE.norm>
-0.390096

>  <RMSD>
6.258

$$$$
ligand
 OpenBabel11021811453D
libRbt.so/2013.1/901 2013/11/27
 13 12  0  0  0  0  0  0  0  0999 V2000
   31.2892   31.2630   48.9839 O   0  0  0  0  0  0  0  0  0  0  0  0
   34.2018   31.1162   49.4949 O   0  0  0  0  0  0  0  0  0  0  0  0
   30.3084   32.2087   44.8932 P   0  0  2  0  0  0  0  0  0  0  0  0
   31.4740   31.9741   43.9922 O   0  5  0  0  0  0  0  0  0  0  0  0
   29.9203   33.6021   45.2321 O   0  0  0  0  0  0  0  0  0  0  0  0
   30.5555   31.4410   46.2595 O   0  0  0  0  0  0  0  0  0  0  0  0
   36.5752   30.2275   48.2505 O   0  0  0  0  0  0  0  0  0  0  0  0
   29.5501   31.4106   47.2828 C   0  0  0  0  0  0  0  0  0  0  0  0
   33.2148   31.2482   50.5498 C   0  0  0  0  0  0  0  0  0  0  0  0
   36.4495   31.5833   48.6546 C   0  0  0  0  0  0  0  0  0  0  0  0
   30.0750   30.6489   48.5117 C   0  0  0  0  0  0  0  0  0  0  0  0
   31.8593   30.6129   50.1538 C   0  0  0  0  0  0  0  0  0  0  0  0
   35.5009   31.6344   49.8656 C   0  0  0  0  0  0  0  0  0  0  0  0
  1 12  1  0  0  0  0
  1 11  1  0  0  0  0
  2 13  1  0  0  0  0
  2  9  1  0  0  0  0
  3  4  1  6  0  0  0
  3  5  2  0  0  0  0
  3  6  1  0  0  0  0
  6  8  1  0  0  0  0
  7 10  1  0  0  0  0
  8 11  1  0  0  0  0
  9 12  1  0  0  0  0
 10 13  1  0  0  0  0
M  CHG  1   4  -1
M  END
>  <CHROM.1>
175.69292379,-174.53740715,-175.49243858,-177.77565732,57.03208570,-176.73608111
-61.40048217,-60.47100918,179.68999116,32.21350294,31.52756651,47.57197625
0.71076064,-0.02395098,1.82189235

>  <Name>
ligand

>  <RI>
0

>  <Rbt.Current_Directory>
/home/itssahil/PROJECTS/Mol_Feturizer/New_Systems/rnas/2NPY

>  <Rbt.Executable>
rbdock ($Id: //depot/dev/client3/rdock/2013.1/src/exe/rbdock.cxx#4 $)

>  <Rbt.Library>
libRbt.so (2013.1, Build901 2013/11/27)

>  <Rbt.Parameter_File>
/export/apps/rDock/src/rDock_2013.1_src/data/scripts/dock_solv.prm

>  <Rbt.Receptor>
prm/pocket_docking_7.prm

>  <SCORE>
-12.0611

>  <SCORE.INTER>
2.12626

>  <SCORE.INTER.CONST>
1

>  <SCORE.INTER.POLAR>
0

>  <SCORE.INTER.ROT>
9

>  <SCORE.INTER.SOLV>
14.1361

>  <SCORE.INTER.VDW>
-12.8945

>  <SCORE.INTER.norm>
0.163559

>  <SCORE.INTRA>
-14.1873

>  <SCORE.INTRA.DIHEDRAL>
-25.2967

>  <SCORE.INTRA.DIHEDRAL.0>
25.6828

>  <SCORE.INTRA.POLAR>
0

>  <SCORE.INTRA.POLAR.0>
0

>  <SCORE.INTRA.REPUL>
0

>  <SCORE.INTRA.REPUL.0>
0

>  <SCORE.INTRA.SOLV>
-0.9752

>  <SCORE.INTRA.SOLV.lig_0>
-48.5059

>  <SCORE.INTRA.VDW>
-1.0514

>  <SCORE.INTRA.VDW.0>
-0.363643

>  <SCORE.INTRA.norm>
-1.09133

>  <SCORE.RESTR>
0

>  <SCORE.RESTR.CAVITY>
0

>  <SCORE.RESTR.norm>
0

>  <SCORE.SYSTEM>
0

>  <SCORE.SYSTEM.CONST>
0

>  <SCORE.SYSTEM.DIHEDRAL>
0

>  <SCORE.SYSTEM.SOLV>
0

>  <SCORE.SYSTEM.norm>
0

>  <SCORE.heavy>
13

>  <SCORE.norm>
-0.927776

>  <RMSD>
6.276

$$$$
ligand
 OpenBabel11021811453D
libRbt.so/2013.1/901 2013/11/27
 13 12  0  0  0  0  0  0  0  0999 V2000
   30.0452   34.2106   44.9718 O   0  0  0  0  0  0  0  0  0  0  0  0
   30.1071   32.3405   47.0429 O   0  0  0  0  0  0  0  0  0  0  0  0
   29.2719   38.7281   47.1175 P   0  0  2  0  0  0  0  0  0  0  0  0
   29.7926   39.5728   46.0036 O   0  5  0  0  0  0  0  0  0  0  0  0
   30.1413   38.4553   48.2907 O   0  0  0  0  0  0  0  0  0  0  0  0
   28.8194   37.3263   46.5280 O   0  0  0  0  0  0  0  0  0  0  0  0
   31.9119   31.4895   49.0591 O   0  0  0  0  0  0  0  0  0  0  0  0
   29.7685   36.4394   45.9184 C   0  0  0  0  0  0  0  0  0  0  0  0
   29.1196   32.1488   45.9977 C   0  0  0  0  0  0  0  0  0  0  0  0
   32.3971   32.0526   47.8488 C   0  0  0  0  0  0  0  0  0  0  0  0
   29.0748   35.1286   45.5104 C   0  0  0  0  0  0  0  0  0  0  0  0
   29.5097   32.8869   44.6936 C   0  0  0  0  0  0  0  0  0  0  0  0
   31.3842   31.7342   46.7346 C   0  0  0  0  0  0  0  0  0  0  0  0
  1 12  1  0  0  0  0
  1 11  1  0  0  0  0
  2 13  1  0  0  0  0
  2  9  1  0  0  0  0
  3  4  1  6  0  0  0
  3  5  2  0  0  0  0
  3  6  1  0  0  0  0
  6  8  1  0  0  0  0
  7 10  1  0  0  0  0
  8 11  1  0  0  0  0
  9 12  1  0  0  0  0
 10 13  1  0  0  0  0
M  CHG  1   4  -1
M  END
>  <CHROM.1>
-67.33046487,176.63629973,63.31824392,176.78446070,-176.60180011,-65.94787313
-41.74096044,61.80905781,173.58470161,30.03844425,35.16577235,46.65747627
1.16181572,0.99514743,-2.82880470

>  <Name>
ligand

>  <RI>
0

>  <Rbt.Current_Directory>
/home/itssahil/PROJECTS/Mol_Feturizer/New_Systems/rnas/2NPY

>  <Rbt.Executable>
rbdock ($Id: //depot/dev/client3/rdock/2013.1/src/exe/rbdock.cxx#4 $)

>  <Rbt.Library>
libRbt.so (2013.1, Build901 2013/11/27)

>  <Rbt.Parameter_File>
/export/apps/rDock/src/rDock_2013.1_src/data/scripts/dock_solv.prm

>  <Rbt.Receptor>
prm/pocket_docking_3.prm

>  <SCORE>
-3.76333

>  <SCORE.INTER>
7.66698

>  <SCORE.INTER.CONST>
1

>  <SCORE.INTER.POLAR>
0

>  <SCORE.INTER.ROT>
9

>  <SCORE.INTER.SOLV>
7.00081

>  <SCORE.INTER.VDW>
-6.82229

>  <SCORE.INTER.norm>
0.589767

>  <SCORE.INTRA>
-11.4303

>  <SCORE.INTRA.DIHEDRAL>
-23.6827

>  <SCORE.INTRA.DIHEDRAL.0>
25.6828

>  <SCORE.INTRA.POLAR>
0

>  <SCORE.INTRA.POLAR.0>
0

>  <SCORE.INTRA.REPUL>
0

>  <SCORE.INTRA.REPUL.0>
0

>  <SCORE.INTRA.SOLV>
-0.443826

>  <SCORE.INTRA.SOLV.lig_0>
-48.5059

>  <SCORE.INTRA.VDW>
0.632965

>  <SCORE.INTRA.VDW.0>
-0.363643

>  <SCORE.INTRA.norm>
-0.879255

>  <SCORE.RESTR>
0

>  <SCORE.RESTR.CAVITY>
0

>  <SCORE.RESTR.norm>
0

>  <SCORE.SYSTEM>
0

>  <SCORE.SYSTEM.CONST>
0

>  <SCORE.SYSTEM.DIHEDRAL>
0

>  <SCORE.SYSTEM.SOLV>
0

>  <SCORE.SYSTEM.norm>
0

>  <SCORE.heavy>
13

>  <SCORE.norm>
-0.289487

>  <RMSD>
6.289

$$$$
ligand
 OpenBabel11021811453D
libRbt.so/2013.1/901 2013/11/27
 13 12  0  0  0  0  0  0  0  0999 V2000
   37.4668   30.1285   47.9899 O   0  0  0  0  0  0  0  0  0  0  0  0
   34.5245   31.9705   49.4254 O   0  0  0  0  0  0  0  0  0  0  0  0
   37.8018   30.4073   42.9509 P   0  0  2  0  0  0  0  0  0  0  0  0
   38.9352   30.5024   41.9856 O   0  5  0  0  0  0  0  0  0  0  0  0
   36.7209   31.4255   42.9056 O   0  0  0  0  0  0  0  0  0  0  0  0
   38.3855   30.4024   44.4262 O   0  0  0  0  0  0  0  0  0  0  0  0
   33.0877   34.1471   50.5362 O   0  0  0  0  0  0  0  0  0  0  0  0
   37.5426   30.1253   45.5539 C   0  0  0  0  0  0  0  0  0  0  0  0
   35.6338   31.0363   49.3958 C   0  0  0  0  0  0  0  0  0  0  0  0
   32.5347   32.8388   50.5495 C   0  0  0  0  0  0  0  0  0  0  0  0
   38.3451   30.2732   46.8577 C   0  0  0  0  0  0  0  0  0  0  0  0
   36.4925   31.2013   48.1179 C   0  0  0  0  0  0  0  0  0  0  0  0
   33.6961   31.8304   50.6034 C   0  0  0  0  0  0  0  0  0  0  0  0
  1 12  1  0  0  0  0
  1 11  1  0  0  0  0
  2 13  1  0  0  0  0
  2  9  1  0  0  0  0
  3  4  1  6  0  0  0
  3  5  2  0  0  0  0
  3  6  1  0  0  0  0
  6  8  1  0  0  0  0
  7 10  1  0  0  0  0
  8 11  1  0  0  0  0
  9 12  1  0  0  0  0
 10 13  1  0  0  0  0
M  CHG  1   4  -1
M  END
>  <CHROM.1>
-176.64024884,-179.18112160,-170.88323281,-176.46559092,174.18908506,179.43621483
-170.79004771,-61.61243249,-66.70510254,36.38419260,31.19500929,46.65058954
-2.25364250,0.63329729,-1.40442344

>  <Name>
ligand

>  <RI>
0

>  <Rbt.Current_Directory>
/home/itssahil/PROJECTS/Mol_Feturizer/New_Systems/rnas/2NPY

>  <Rbt.Executable>
rbdock ($Id: //depot/dev/client3/rdock/2013.1/src/exe/rbdock.cxx#4 $)

>  <Rbt.Library>
libRbt.so (2013.1, Build901 2013/11/27)

>  <Rbt.Parameter_File>
/export/apps/rDock/src/rDock_2013.1_src/data/scripts/dock_solv.prm

>  <Rbt.Receptor>
prm/pocket_docking_8.prm

>  <SCORE>
-10.1389

>  <SCORE.INTER>
2.65073

>  <SCORE.INTER.CONST>
1

>  <SCORE.INTER.POLAR>
0

>  <SCORE.INTER.ROT>
9

>  <SCORE.INTER.SOLV>
7.73717

>  <SCORE.INTER.VDW>
-10.4119

>  <SCORE.INTER.norm>
0.203902

>  <SCORE.INTRA>
-12.7897

>  <SCORE.INTRA.DIHEDRAL>
-24.8444

>  <SCORE.INTRA.DIHEDRAL.0>
25.6828

>  <SCORE.INTRA.POLAR>
0

>  <SCORE.INTRA.POLAR.0>
0

>  <SCORE.INTRA.REPUL>
0

>  <SCORE.INTRA.REPUL.0>
0

>  <SCORE.INTRA.SOLV>
-1.32302

>  <SCORE.INTRA.SOLV.lig_0>
-48.5059

>  <SCORE.INTRA.VDW>
0.294035

>  <SCORE.INTRA.VDW.0>
-0.363643

>  <SCORE.INTRA.norm>
-0.983821

>  <SCORE.RESTR>
0

>  <SCORE.RESTR.CAVITY>
0

>  <SCORE.RESTR.norm>
0

>  <SCORE.SYSTEM>
0

>  <SCORE.SYSTEM.CONST>
0

>  <SCORE.SYSTEM.DIHEDRAL>
0

>  <SCORE.SYSTEM.SOLV>
0

>  <SCORE.SYSTEM.norm>
0

>  <SCORE.heavy>
13

>  <SCORE.norm>
-0.779919

>  <RMSD>
6.289

$$$$
ligand
 OpenBabel11021811453D
libRbt.so/2013.1/901 2013/11/27
 13 12  0  0  0  0  0  0  0  0999 V2000
   30.9179   31.3002   48.9715 O   0  0  0  0  0  0  0  0  0  0  0  0
   33.7746   31.6998   49.3508 O   0  0  0  0  0  0  0  0  0  0  0  0
   29.5125   32.6372   45.0429 P   0  0  2  0  0  0  0  0  0  0  0  0
   30.5620   33.5128   44.4454 O   0  5  0  0  0  0  0  0  0  0  0  0
   28.0815   32.9987   44.8742 O   0  0  0  0  0  0  0  0  0  0  0  0
   29.7855   32.5009   46.5999 O   0  0  0  0  0  0  0  0  0  0  0  0
   37.2651   31.4033   48.2626 O   0  0  0  0  0  0  0  0  0  0  0  0
   29.0759   31.5389   47.3936 C   0  0  0  0  0  0  0  0  0  0  0  0
   32.9541   31.0792   50.3735 C   0  0  0  0  0  0  0  0  0  0  0  0
   35.9348   31.8995   48.2237 C   0  0  0  0  0  0  0  0  0  0  0  0
   29.5223   31.6387   48.8621 C   0  0  0  0  0  0  0  0  0  0  0  0
   31.4797   31.5451   50.2909 C   0  0  0  0  0  0  0  0  0  0  0  0
   35.1518   31.2572   49.3826 C   0  0  0  0  0  0  0  0  0  0  0  0
  1 12  1  0  0  0  0
  1 11  1  0  0  0  0
  2 13  1  0  0  0  0
  2  9  1  0  0  0  0
  3  4  1  1  0  0  0
  3  5  2  0  0  0  0
  3  6  1  0  0  0  0
  6  8  1  0  0  0  0
  7 10  1  0  0  0  0
  8 11  1  0  0  0  0
  9 12  1  0  0  0  0
 10 13  1  0  0  0  0
M  CHG  1   4  -1
M  END
>  <CHROM.1>
176.36398541,176.90150852,-169.20320617,-179.20300267,-63.46911076,-178.54571888
55.85118216,-177.94456612,171.87194157,31.65355568,31.99871064,47.58330425
0.56415267,-0.00655887,1.89064375

>  <Name>
ligand

>  <RI>
0

>  <Rbt.Current_Directory>
/home/itssahil/PROJECTS/Mol_Feturizer/New_Systems/rnas/2NPY

>  <Rbt.Executable>
rbdock ($Id: //depot/dev/client3/rdock/2013.1/src/exe/rbdock.cxx#4 $)

>  <Rbt.Library>
libRbt.so (2013.1, Build901 2013/11/27)

>  <Rbt.Parameter_File>
/export/apps/rDock/src/rDock_2013.1_src/data/scripts/dock_solv.prm

>  <Rbt.Receptor>
prm/pocket_docking_8.prm

>  <SCORE>
-10.5666

>  <SCORE.INTER>
3.6944

>  <SCORE.INTER.CONST>
1

>  <SCORE.INTER.POLAR>
0

>  <SCORE.INTER.ROT>
9

>  <SCORE.INTER.SOLV>
7.01375

>  <SCORE.INTER.VDW>
-9.47498

>  <SCORE.INTER.norm>
0.284184

>  <SCORE.INTRA>
-14.261

>  <SCORE.INTRA.DIHEDRAL>
-25.0473

>  <SCORE.INTRA.DIHEDRAL.0>
25.6828

>  <SCORE.INTRA.POLAR>
0

>  <SCORE.INTRA.POLAR.0>
0

>  <SCORE.INTRA.REPUL>
0

>  <SCORE.INTRA.REPUL.0>
0

>  <SCORE.INTRA.SOLV>
-1.31677

>  <SCORE.INTRA.SOLV.lig_0>
-48.5059

>  <SCORE.INTRA.VDW>
-1.07899

>  <SCORE.INTRA.VDW.0>
-0.363643

>  <SCORE.INTRA.norm>
-1.097

>  <SCORE.RESTR>
0

>  <SCORE.RESTR.CAVITY>
0

>  <SCORE.RESTR.norm>
0

>  <SCORE.SYSTEM>
0

>  <SCORE.SYSTEM.CONST>
0

>  <SCORE.SYSTEM.DIHEDRAL>
0

>  <SCORE.SYSTEM.SOLV>
0

>  <SCORE.SYSTEM.norm>
0

>  <SCORE.heavy>
13

>  <SCORE.norm>
-0.812816

>  <RMSD>
6.315

$$$$
ligand
 OpenBabel11021811453D
libRbt.so/2013.1/901 2013/11/27
 13 12  0  0  0  0  0  0  0  0999 V2000
   35.1912   31.2101   49.1857 O   0  0  0  0  0  0  0  0  0  0  0  0
   32.5802   30.5598   50.3450 O   0  0  0  0  0  0  0  0  0  0  0  0
   38.7924   29.8281   45.9068 P   0  0  2  0  0  0  0  0  0  0  0  0
   40.1984   29.3527   46.0572 O   0  5  0  0  0  0  0  0  0  0  0  0
   38.5012   30.9565   44.9854 O   0  0  0  0  0  0  0  0  0  0  0  0
   38.2320   30.2281   47.3363 O   0  0  0  0  0  0  0  0  0  0  0  0
   29.0442   29.7164   49.8627 O   0  0  0  0  0  0  0  0  0  0  0  0
   36.8526   30.5792   47.5179 C   0  0  0  0  0  0  0  0  0  0  0  0
   33.3185   31.7500   50.7225 C   0  0  0  0  0  0  0  0  0  0  0  0
   30.4389   29.4559   49.9293 C   0  0  0  0  0  0  0  0  0  0  0  0
   36.5917   30.9364   48.9911 C   0  0  0  0  0  0  0  0  0  0  0  0
   34.8459   31.5582   50.5553 C   0  0  0  0  0  0  0  0  0  0  0  0
   31.1463   30.7522   50.3628 C   0  0  0  0  0  0  0  0  0  0  0  0
  1 12  1  0  0  0  0
  1 11  1  0  0  0  0
  2 13  1  0  0  0  0
  2  9  1  0  0  0  0
  3  4  1  1  0  0  0
  3  5  2  0  0  0  0
  3  6  1  0  0  0  0
  6  8  1  0  0  0  0
  7 10  1  0  0  0  0
  8 11  1  0  0  0  0
  9 12  1  0  0  0  0
 10 13  1  0  0  0  0
M  CHG  1   4  -1
M  END
>  <CHROM.1>
-176.26805406,179.05429261,-172.93621739,-179.32813195,-176.56389602,-174.18054715
58.09249527,-175.66283221,179.96168998,35.38814077,30.46243075,48.34527813
-2.70646185,-0.22735907,-2.09648327

>  <Name>
ligand

>  <RI>
0

>  <Rbt.Current_Directory>
/home/itssahil/PROJECTS/Mol_Feturizer/New_Systems/rnas/2NPY

>  <Rbt.Executable>
rbdock ($Id: //depot/dev/client3/rdock/2013.1/src/exe/rbdock.cxx#4 $)

>  <Rbt.Library>
libRbt.so (2013.1, Build901 2013/11/27)

>  <Rbt.Parameter_File>
/export/apps/rDock/src/rDock_2013.1_src/data/scripts/dock_solv.prm

>  <Rbt.Receptor>
prm/pocket_docking_6.prm

>  <SCORE>
-13.606

>  <SCORE.INTER>
0.637817

>  <SCORE.INTER.CONST>
1

>  <SCORE.INTER.POLAR>
0

>  <SCORE.INTER.ROT>
9

>  <SCORE.INTER.SOLV>
8.77085

>  <SCORE.INTER.VDW>
-12.0984

>  <SCORE.INTER.norm>
0.0490628

>  <SCORE.INTRA>
-14.2438

>  <SCORE.INTRA.DIHEDRAL>
-25.2796

>  <SCORE.INTRA.DIHEDRAL.0>
25.6828

>  <SCORE.INTRA.POLAR>
0

>  <SCORE.INTRA.POLAR.0>
0

>  <SCORE.INTRA.REPUL>
0

>  <SCORE.INTRA.REPUL.0>
0

>  <SCORE.INTRA.SOLV>
-1.39961

>  <SCORE.INTRA.SOLV.lig_0>
-48.5059

>  <SCORE.INTRA.VDW>
-0.904174

>  <SCORE.INTRA.VDW.0>
-0.363643

>  <SCORE.INTRA.norm>
-1.09568

>  <SCORE.RESTR>
0

>  <SCORE.RESTR.CAVITY>
0

>  <SCORE.RESTR.norm>
0

>  <SCORE.SYSTEM>
0

>  <SCORE.SYSTEM.CONST>
0

>  <SCORE.SYSTEM.DIHEDRAL>
0

>  <SCORE.SYSTEM.SOLV>
0

>  <SCORE.SYSTEM.norm>
0

>  <SCORE.heavy>
13

>  <SCORE.norm>
-1.04661

>  <RMSD>
6.336

$$$$
ligand
 OpenBabel11021811453D
libRbt.so/2013.1/901 2013/11/27
 13 12  0  0  0  0  0  0  0  0999 V2000
   30.8510   32.3866   45.6477 O   0  0  0  0  0  0  0  0  0  0  0  0
   33.4967   32.1501   46.6602 O   0  0  0  0  0  0  0  0  0  0  0  0
   28.9111   36.1945   45.0754 P   0  0  2  0  0  0  0  0  0  0  0  0
   27.9220   36.4619   43.9912 O   0  5  0  0  0  0  0  0  0  0  0  0
   30.1040   37.0706   45.2035 O   0  0  0  0  0  0  0  0  0  0  0  0
   29.4328   34.7027   44.9354 O   0  0  0  0  0  0  0  0  0  0  0  0
   37.0848   32.5235   46.0021 O   0  0  0  0  0  0  0  0  0  0  0  0
   28.7482   33.6168   45.5765 C   0  0  0  0  0  0  0  0  0  0  0  0
   32.5075   32.8817   47.4286 C   0  0  0  0  0  0  0  0  0  0  0  0
   35.8054   31.9168   45.8906 C   0  0  0  0  0  0  0  0  0  0  0  0
   29.4646   32.2907   45.2695 C   0  0  0  0  0  0  0  0  0  0  0  0
   31.0651   32.4344   47.0859 C   0  0  0  0  0  0  0  0  0  0  0  0
   34.8374   32.6702   46.8202 C   0  0  0  0  0  0  0  0  0  0  0  0
  1 12  1  0  0  0  0
  1 11  1  0  0  0  0
  2 13  1  0  0  0  0
  2  9  1  0  0  0  0
  3  4  1  6  0  0  0
  3  5  2  0  0  0  0
  3  6  1  0  0  0  0
  6  8  1  0  0  0  0
  7 10  1  0  0  0  0
  8 11  1  0  0  0  0
  9 12  1  0  0  0  0
 10 13  1  0  0  0  0
M  CHG  1   4  -1
M  END
>  <CHROM.1>
-166.03237025,-175.46232846,-88.43570179,179.79963765,54.96448376,171.95264078
-48.19933266,175.59957200,70.06120708,31.33972111,33.87602894,45.73218758
0.53203104,0.07262887,2.84544152

>  <Name>
ligand

>  <RI>
0

>  <Rbt.Current_Directory>
/home/itssahil/PROJECTS/Mol_Feturizer/New_Systems/rnas/2NPY

>  <Rbt.Executable>
rbdock ($Id: //depot/dev/client3/rdock/2013.1/src/exe/rbdock.cxx#4 $)

>  <Rbt.Library>
libRbt.so (2013.1, Build901 2013/11/27)

>  <Rbt.Parameter_File>
/export/apps/rDock/src/rDock_2013.1_src/data/scripts/dock_solv.prm

>  <Rbt.Receptor>
prm/pocket_docking_3.prm

>  <SCORE>
-4.04056

>  <SCORE.INTER>
8.10018

>  <SCORE.INTER.CONST>
1

>  <SCORE.INTER.POLAR>
0

>  <SCORE.INTER.ROT>
9

>  <SCORE.INTER.SOLV>
5.26855

>  <SCORE.INTER.VDW>
-5.95607

>  <SCORE.INTER.norm>
0.623091

>  <SCORE.INTRA>
-12.1545

>  <SCORE.INTRA.DIHEDRAL>
-22.2337

>  <SCORE.INTRA.DIHEDRAL.0>
25.6828

>  <SCORE.INTRA.POLAR>
0

>  <SCORE.INTRA.POLAR.0>
0

>  <SCORE.INTRA.REPUL>
0

>  <SCORE.INTRA.REPUL.0>
0

>  <SCORE.INTRA.SOLV>
-1.32332

>  <SCORE.INTRA.SOLV.lig_0>
-48.5059

>  <SCORE.INTRA.VDW>
-0.375984

>  <SCORE.INTRA.VDW.0>
-0.363643

>  <SCORE.INTRA.norm>
-0.934962

>  <SCORE.RESTR>
0.013763

>  <SCORE.RESTR.CAVITY>
0.013763

>  <SCORE.RESTR.norm>
0.00105869

>  <SCORE.SYSTEM>
0

>  <SCORE.SYSTEM.CONST>
0

>  <SCORE.SYSTEM.DIHEDRAL>
0

>  <SCORE.SYSTEM.SOLV>
0

>  <SCORE.SYSTEM.norm>
0

>  <SCORE.heavy>
13

>  <SCORE.norm>
-0.310812

>  <RMSD>
6.338

$$$$
ligand
 OpenBabel11021811453D
libRbt.so/2013.1/901 2013/11/27
 13 12  0  0  0  0  0  0  0  0999 V2000
   31.9061   31.9288   47.9206 O   0  0  0  0  0  0  0  0  0  0  0  0
   34.7705   31.5440   48.2112 O   0  0  0  0  0  0  0  0  0  0  0  0
   29.6803   34.1366   44.9259 P   0  0  2  0  0  0  0  0  0  0  0  0
   30.3372   33.5020   43.7465 O   0  5  0  0  0  0  0  0  0  0  0  0
   29.8518   35.5941   45.1568 O   0  0  0  0  0  0  0  0  0  0  0  0
   30.1589   33.3898   46.2414 O   0  0  0  0  0  0  0  0  0  0  0  0
   36.9662   30.0943   47.0769 O   0  0  0  0  0  0  0  0  0  0  0  0
   30.0212   31.9679   46.3760 C   0  0  0  0  0  0  0  0  0  0  0  0
   33.9557   32.0072   49.3183 C   0  0  0  0  0  0  0  0  0  0  0  0
   36.9238   31.5139   47.0539 C   0  0  0  0  0  0  0  0  0  0  0  0
   30.5354   31.5192   47.7545 C   0  0  0  0  0  0  0  0  0  0  0  0
   32.4879   31.5301   49.1930 C   0  0  0  0  0  0  0  0  0  0  0  0
   36.1451   31.9882   48.2939 C   0  0  0  0  0  0  0  0  0  0  0  0
  1 12  1  0  0  0  0
  1 11  1  0  0  0  0
  2 13  1  0  0  0  0
  2  9  1  0  0  0  0
  3  4  1  6  0  0  0
  3  5  2  0  0  0  0
  3  6  1  0  0  0  0
  6  8  1  0  0  0  0
  7 10  1  0  0  0  0
  8 11  1  0  0  0  0
  9 12  1  0  0  0  0
 10 13  1  0  0  0  0
M  CHG  1   4  -1
M  END
>  <CHROM.1>
-179.53557574,-177.30176061,-54.48386998,-178.78544534,-57.30571078,179.32958351
-55.33776648,-64.64231899,-179.16040518,32.34662850,32.52268778,46.81732435
0.55122950,-0.19577557,2.03487830

>  <Name>
ligand

>  <RI>
0

>  <Rbt.Current_Directory>
/home/itssahil/PROJECTS/Mol_Feturizer/New_Systems/rnas/2NPY

>  <Rbt.Executable>
rbdock ($Id: //depot/dev/client3/rdock/2013.1/src/exe/rbdock.cxx#4 $)

>  <Rbt.Library>
libRbt.so (2013.1, Build901 2013/11/27)

>  <Rbt.Parameter_File>
/export/apps/rDock/src/rDock_2013.1_src/data/scripts/dock_solv.prm

>  <Rbt.Receptor>
prm/pocket_docking_4.prm

>  <SCORE>
-9.30807

>  <SCORE.INTER>
5.02361

>  <SCORE.INTER.CONST>
1

>  <SCORE.INTER.POLAR>
0

>  <SCORE.INTER.ROT>
9

>  <SCORE.INTER.SOLV>
6.04517

>  <SCORE.INTER.VDW>
-8.26598

>  <SCORE.INTER.norm>
0.386432

>  <SCORE.INTRA>
-14.3317

>  <SCORE.INTRA.DIHEDRAL>
-25.413

>  <SCORE.INTRA.DIHEDRAL.0>
25.6828

>  <SCORE.INTRA.POLAR>
0

>  <SCORE.INTRA.POLAR.0>
0

>  <SCORE.INTRA.REPUL>
0

>  <SCORE.INTRA.REPUL.0>
0

>  <SCORE.INTRA.SOLV>
-1.02599

>  <SCORE.INTRA.SOLV.lig_0>
-48.5059

>  <SCORE.INTRA.VDW>
-1.11217

>  <SCORE.INTRA.VDW.0>
-0.363643

>  <SCORE.INTRA.norm>
-1.10244

>  <SCORE.RESTR>
0

>  <SCORE.RESTR.CAVITY>
0

>  <SCORE.RESTR.norm>
0

>  <SCORE.SYSTEM>
0

>  <SCORE.SYSTEM.CONST>
0

>  <SCORE.SYSTEM.DIHEDRAL>
0

>  <SCORE.SYSTEM.SOLV>
0

>  <SCORE.SYSTEM.norm>
0

>  <SCORE.heavy>
13

>  <SCORE.norm>
-0.716006

>  <RMSD>
6.367

$$$$
ligand
 OpenBabel11021811453D
libRbt.so/2013.1/901 2013/11/27
 13 12  0  0  0  0  0  0  0  0999 V2000
   35.1874   31.2044   49.1496 O   0  0  0  0  0  0  0  0  0  0  0  0
   32.5868   30.5178   50.2990 O   0  0  0  0  0  0  0  0  0  0  0  0
   38.8168   29.8479   45.8909 P   0  0  2  0  0  0  0  0  0  0  0  0
   40.1803   29.2674   46.0621 O   0  5  0  0  0  0  0  0  0  0  0  0
   38.6340   31.0249   45.0032 O   0  0  0  0  0  0  0  0  0  0  0  0
   38.2442   30.2384   47.3182 O   0  0  0  0  0  0  0  0  0  0  0  0
   29.0599   29.5610   49.9825 O   0  0  0  0  0  0  0  0  0  0  0  0
   36.8608   30.5769   47.4925 C   0  0  0  0  0  0  0  0  0  0  0  0
   33.3024   31.7209   50.6794 C   0  0  0  0  0  0  0  0  0  0  0  0
   30.4651   29.3620   49.9258 C   0  0  0  0  0  0  0  0  0  0  0  0
   36.5909   30.9409   48.9624 C   0  0  0  0  0  0  0  0  0  0  0  0
   34.8335   31.5571   50.5159 C   0  0  0  0  0  0  0  0  0  0  0  0
   31.1499   30.6588   50.3931 C   0  0  0  0  0  0  0  0  0  0  0  0
  1 12  1  0  0  0  0
  1 11  1  0  0  0  0
  2 13  1  0  0  0  0
  2  9  1  0  0  0  0
  3  4  1  1  0  0  0
  3  5  2  0  0  0  0
  3  6  1  0  0  0  0
  6  8  1  0  0  0  0
  7 10  1  0  0  0  0
  8 11  1  0  0  0  0
  9 12  1  0  0  0  0
 10 13  1  0  0  0  0
M  CHG  1   4  -1
M  END
>  <CHROM.1>
-175.59280784,177.95513056,-167.81198476,-178.75993448,-176.67355273,-177.77788707
57.56641709,-177.68972868,179.91845166,35.40330683,30.43514005,48.33884097
-2.72425096,-0.26249514,-2.15010827

>  <Name>
ligand

>  <RI>
0

>  <Rbt.Current_Directory>
/home/itssahil/PROJECTS/Mol_Feturizer/New_Systems/rnas/2NPY

>  <Rbt.Executable>
rbdock ($Id: //depot/dev/client3/rdock/2013.1/src/exe/rbdock.cxx#4 $)

>  <Rbt.Library>
libRbt.so (2013.1, Build901 2013/11/27)

>  <Rbt.Parameter_File>
/export/apps/rDock/src/rDock_2013.1_src/data/scripts/dock_solv.prm

>  <Rbt.Receptor>
prm/pocket_docking_6.prm

>  <SCORE>
-13.6369

>  <SCORE.INTER>
0.697614

>  <SCORE.INTER.CONST>
1

>  <SCORE.INTER.POLAR>
0

>  <SCORE.INTER.ROT>
9

>  <SCORE.INTER.SOLV>
8.68569

>  <SCORE.INTER.VDW>
-12.0302

>  <SCORE.INTER.norm>
0.0536626

>  <SCORE.INTRA>
-14.3345

>  <SCORE.INTRA.DIHEDRAL>
-25.37

>  <SCORE.INTRA.DIHEDRAL.0>
25.6828

>  <SCORE.INTRA.POLAR>
0

>  <SCORE.INTRA.POLAR.0>
0

>  <SCORE.INTRA.REPUL>
0

>  <SCORE.INTRA.REPUL.0>
0

>  <SCORE.INTRA.SOLV>
-1.42744

>  <SCORE.INTRA.SOLV.lig_0>
-48.5059

>  <SCORE.INTRA.VDW>
-0.935761

>  <SCORE.INTRA.VDW.0>
-0.363643

>  <SCORE.INTRA.norm>
-1.10265

>  <SCORE.RESTR>
0

>  <SCORE.RESTR.CAVITY>
0

>  <SCORE.RESTR.norm>
0

>  <SCORE.SYSTEM>
0

>  <SCORE.SYSTEM.CONST>
0

>  <SCORE.SYSTEM.DIHEDRAL>
0

>  <SCORE.SYSTEM.SOLV>
0

>  <SCORE.SYSTEM.norm>
0

>  <SCORE.heavy>
13

>  <SCORE.norm>
-1.04899

>  <RMSD>
6.375

$$$$
ligand
 OpenBabel11021811453D
libRbt.so/2013.1/901 2013/11/27
 13 12  0  0  0  0  0  0  0  0999 V2000
   30.9158   34.7499   44.0819 O   0  0  0  0  0  0  0  0  0  0  0  0
   31.2628   32.4539   45.7519 O   0  0  0  0  0  0  0  0  0  0  0  0
   28.8787   38.4441   46.8516 P   0  0  2  0  0  0  0  0  0  0  0  0
   28.4156   39.5130   45.9196 O   0  5  0  0  0  0  0  0  0  0  0  0
   30.2038   38.5774   47.5097 O   0  0  0  0  0  0  0  0  0  0  0  0
   28.8698   37.0561   46.0829 O   0  0  0  0  0  0  0  0  0  0  0  0
   31.3308   30.9231   49.0850 O   0  0  0  0  0  0  0  0  0  0  0  0
   29.9618   36.6739   45.2343 C   0  0  0  0  0  0  0  0  0  0  0  0
   30.3856   32.3810   44.5989 C   0  0  0  0  0  0  0  0  0  0  0  0
   31.7490   31.8138   48.0607 C   0  0  0  0  0  0  0  0  0  0  0  0
   29.6965   35.2837   44.6320 C   0  0  0  0  0  0  0  0  0  0  0  0
   30.7705   33.4179   43.5152 C   0  0  0  0  0  0  0  0  0  0  0  0
   30.8611   31.5726   46.8269 C   0  0  0  0  0  0  0  0  0  0  0  0
  1 12  1  0  0  0  0
  1 11  1  0  0  0  0
  2 13  1  0  0  0  0
  2  9  1  0  0  0  0
  3  4  1  6  0  0  0
  3  5  2  0  0  0  0
  3  6  1  0  0  0  0
  6  8  1  0  0  0  0
  7 10  1  0  0  0  0
  8 11  1  0  0  0  0
  9 12  1  0  0  0  0
 10 13  1  0  0  0  0
M  CHG  1   4  -1
M  END
>  <CHROM.1>
-63.72681984,-174.14739366,82.31160662,179.43300450,-164.77884932,175.22921012
-50.28255973,-179.47331016,178.61005307,30.13869691,35.16488979,46.10106356
0.07957626,1.26187723,-1.70315291

>  <Name>
ligand

>  <RI>
0

>  <Rbt.Current_Directory>
/home/itssahil/PROJECTS/Mol_Feturizer/New_Systems/rnas/2NPY

>  <Rbt.Executable>
rbdock ($Id: //depot/dev/client3/rdock/2013.1/src/exe/rbdock.cxx#4 $)

>  <Rbt.Library>
libRbt.so (2013.1, Build901 2013/11/27)

>  <Rbt.Parameter_File>
/export/apps/rDock/src/rDock_2013.1_src/data/scripts/dock_solv.prm

>  <Rbt.Receptor>
prm/pocket_docking_3.prm

>  <SCORE>
-4.41926

>  <SCORE.INTER>
7.84399

>  <SCORE.INTER.CONST>
1

>  <SCORE.INTER.POLAR>
0

>  <SCORE.INTER.ROT>
9

>  <SCORE.INTER.SOLV>
7.09662

>  <SCORE.INTER.VDW>
-6.73621

>  <SCORE.INTER.norm>
0.603384

>  <SCORE.INTRA>
-12.2641

>  <SCORE.INTRA.DIHEDRAL>
-23.8235

>  <SCORE.INTRA.DIHEDRAL.0>
25.6828

>  <SCORE.INTRA.POLAR>
0

>  <SCORE.INTRA.POLAR.0>
0

>  <SCORE.INTRA.REPUL>
0

>  <SCORE.INTRA.REPUL.0>
0

>  <SCORE.INTRA.SOLV>
-0.858598

>  <SCORE.INTRA.SOLV.lig_0>
-48.5059

>  <SCORE.INTRA.VDW>
0.0769038

>  <SCORE.INTRA.VDW.0>
-0.363643

>  <SCORE.INTRA.norm>
-0.943394

>  <SCORE.RESTR>
0.000874345

>  <SCORE.RESTR.CAVITY>
0.000874345

>  <SCORE.RESTR.norm>
6.72573e-05

>  <SCORE.SYSTEM>
0

>  <SCORE.SYSTEM.CONST>
0

>  <SCORE.SYSTEM.DIHEDRAL>
0

>  <SCORE.SYSTEM.SOLV>
0

>  <SCORE.SYSTEM.norm>
0

>  <SCORE.heavy>
13

>  <SCORE.norm>
-0.339943

>  <RMSD>
6.383

$$$$
ligand
 OpenBabel11021811453D
libRbt.so/2013.1/901 2013/11/27
 13 12  0  0  0  0  0  0  0  0999 V2000
   30.8028   34.0626   47.9271 O   0  0  0  0  0  0  0  0  0  0  0  0
   31.4434   32.4766   45.5576 O   0  0  0  0  0  0  0  0  0  0  0  0
   29.7739   38.2522   48.2889 P   0  0  2  0  0  0  0  0  0  0  0  0
   30.5809   38.6073   47.0856 O   0  5  0  0  0  0  0  0  0  0  0  0
   30.0234   38.9653   49.5680 O   0  0  0  0  0  0  0  0  0  0  0  0
   29.9358   36.6997   48.5735 O   0  0  0  0  0  0  0  0  0  0  0  0
   33.5285   32.1170   43.6818 O   0  0  0  0  0  0  0  0  0  0  0  0
   31.1599   36.1685   49.1009 C   0  0  0  0  0  0  0  0  0  0  0  0
   30.4447   32.0501   46.5193 C   0  0  0  0  0  0  0  0  0  0  0  0
   32.2441   32.5413   43.2486 C   0  0  0  0  0  0  0  0  0  0  0  0
   31.0586   34.6385   49.2222 C   0  0  0  0  0  0  0  0  0  0  0  0
   30.7312   32.6096   47.9345 C   0  0  0  0  0  0  0  0  0  0  0  0
   31.1991   31.9711   44.2241 C   0  0  0  0  0  0  0  0  0  0  0  0
  1 12  1  0  0  0  0
  1 11  1  0  0  0  0
  2 13  1  0  0  0  0
  2  9  1  0  0  0  0
  3  4  1  6  0  0  0
  3  5  2  0  0  0  0
  3  6  1  0  0  0  0
  6  8  1  0  0  0  0
  7 10  1  0  0  0  0
  8 11  1  0  0  0  0
  9 12  1  0  0  0  0
 10 13  1  0  0  0  0
M  CHG  1   4  -1
M  END
>  <CHROM.1>
179.59437200,176.26902453,72.56500572,-177.66721642,59.45776702,-179.84299834
57.28310685,60.89911579,178.21800241,30.89962890,35.03327184,47.10263481
0.67357137,-1.24771687,2.87012021

>  <Name>
ligand

>  <RI>
0

>  <Rbt.Current_Directory>
/home/itssahil/PROJECTS/Mol_Feturizer/New_Systems/rnas/2NPY

>  <Rbt.Executable>
rbdock ($Id: //depot/dev/client3/rdock/2013.1/src/exe/rbdock.cxx#4 $)

>  <Rbt.Library>
libRbt.so (2013.1, Build901 2013/11/27)

>  <Rbt.Parameter_File>
/export/apps/rDock/src/rDock_2013.1_src/data/scripts/dock_solv.prm

>  <Rbt.Receptor>
prm/pocket_docking_3.prm

>  <SCORE>
-7.58373

>  <SCORE.INTER>
6.57009

>  <SCORE.INTER.CONST>
1

>  <SCORE.INTER.POLAR>
0

>  <SCORE.INTER.ROT>
9

>  <SCORE.INTER.SOLV>
7.18724

>  <SCORE.INTER.VDW>
-7.61568

>  <SCORE.INTER.norm>
0.505392

>  <SCORE.INTRA>
-14.1538

>  <SCORE.INTRA.DIHEDRAL>
-25.4528

>  <SCORE.INTRA.DIHEDRAL.0>
25.6828

>  <SCORE.INTRA.POLAR>
0

>  <SCORE.INTRA.POLAR.0>
0

>  <SCORE.INTRA.REPUL>
0

>  <SCORE.INTRA.REPUL.0>
0

>  <SCORE.INTRA.SOLV>
-0.57583

>  <SCORE.INTRA.SOLV.lig_0>
-48.5059

>  <SCORE.INTRA.VDW>
-1.1395

>  <SCORE.INTRA.VDW.0>
-0.363643

>  <SCORE.INTRA.norm>
-1.08876

>  <SCORE.RESTR>
0

>  <SCORE.RESTR.CAVITY>
0

>  <SCORE.RESTR.norm>
0

>  <SCORE.SYSTEM>
0

>  <SCORE.SYSTEM.CONST>
0

>  <SCORE.SYSTEM.DIHEDRAL>
0

>  <SCORE.SYSTEM.SOLV>
0

>  <SCORE.SYSTEM.norm>
0

>  <SCORE.heavy>
13

>  <SCORE.norm>
-0.583364

>  <RMSD>
6.398

$$$$
ligand
 OpenBabel11021811453D
libRbt.so/2013.1/901 2013/11/27
 13 12  0  0  0  0  0  0  0  0999 V2000
   30.7921   33.6167   46.7243 O   0  0  0  0  0  0  0  0  0  0  0  0
   32.2023   32.1975   44.4868 O   0  0  0  0  0  0  0  0  0  0  0  0
   30.2229   37.7334   48.0121 P   0  0  2  0  0  0  0  0  0  0  0  0
   30.0614   38.0681   49.4569 O   0  5  0  0  0  0  0  0  0  0  0  0
   29.3382   38.3842   47.0118 O   0  0  0  0  0  0  0  0  0  0  0  0
   30.0692   36.1648   47.8301 O   0  0  0  0  0  0  0  0  0  0  0  0
   34.5660   33.2646   43.3631 O   0  0  0  0  0  0  0  0  0  0  0  0
   30.9297   35.2518   48.5263 C   0  0  0  0  0  0  0  0  0  0  0  0
   30.7779   32.1147   44.7483 C   0  0  0  0  0  0  0  0  0  0  0  0
   34.0619   32.0163   42.9102 C   0  0  0  0  0  0  0  0  0  0  0  0
   30.5839   33.8045   48.1370 C   0  0  0  0  0  0  0  0  0  0  0  0
   30.4576   32.2811   46.2542 C   0  0  0  0  0  0  0  0  0  0  0  0
   32.5332   32.0259   43.0887 C   0  0  0  0  0  0  0  0  0  0  0  0
  1 12  1  0  0  0  0
  1 11  1  0  0  0  0
  2 13  1  0  0  0  0
  2  9  1  0  0  0  0
  3  4  1  1  0  0  0
  3  5  2  0  0  0  0
  3  6  1  0  0  0  0
  6  8  1  0  0  0  0
  7 10  1  0  0  0  0
  8 11  1  0  0  0  0
  9 12  1  0  0  0  0
 10 13  1  0  0  0  0
M  CHG  1   4  -1
M  END
>  <CHROM.1>
-176.72847068,-175.58449975,-58.12824170,-178.51147849,61.52469179,179.16043444
65.67540031,-60.77086263,-178.53581673,31.18616493,34.69869057,46.35775122
0.91953126,-0.87834233,-2.95848030

>  <Name>
ligand

>  <RI>
0

>  <Rbt.Current_Directory>
/home/itssahil/PROJECTS/Mol_Feturizer/New_Systems/rnas/2NPY

>  <Rbt.Executable>
rbdock ($Id: //depot/dev/client3/rdock/2013.1/src/exe/rbdock.cxx#4 $)

>  <Rbt.Library>
libRbt.so (2013.1, Build901 2013/11/27)

>  <Rbt.Parameter_File>
/export/apps/rDock/src/rDock_2013.1_src/data/scripts/dock_solv.prm

>  <Rbt.Receptor>
prm/pocket_docking_3.prm

>  <SCORE>
-7.3711

>  <SCORE.INTER>
6.9291

>  <SCORE.INTER.CONST>
1

>  <SCORE.INTER.POLAR>
0

>  <SCORE.INTER.ROT>
9

>  <SCORE.INTER.SOLV>
8.82124

>  <SCORE.INTER.VDW>
-7.92101

>  <SCORE.INTER.norm>
0.533008

>  <SCORE.INTRA>
-14.3002

>  <SCORE.INTRA.DIHEDRAL>
-25.3363

>  <SCORE.INTRA.DIHEDRAL.0>
25.6828

>  <SCORE.INTRA.POLAR>
0

>  <SCORE.INTRA.POLAR.0>
0

>  <SCORE.INTRA.REPUL>
0

>  <SCORE.INTRA.REPUL.0>
0

>  <SCORE.INTRA.SOLV>
-1.07157

>  <SCORE.INTRA.SOLV.lig_0>
-48.5059

>  <SCORE.INTRA.VDW>
-1.09625

>  <SCORE.INTRA.VDW.0>
-0.363643

>  <SCORE.INTRA.norm>
-1.10002

>  <SCORE.RESTR>
0

>  <SCORE.RESTR.CAVITY>
0

>  <SCORE.RESTR.norm>
0

>  <SCORE.SYSTEM>
0

>  <SCORE.SYSTEM.CONST>
0

>  <SCORE.SYSTEM.DIHEDRAL>
0

>  <SCORE.SYSTEM.SOLV>
0

>  <SCORE.SYSTEM.norm>
0

>  <SCORE.heavy>
13

>  <SCORE.norm>
-0.567008

>  <RMSD>
6.409

$$$$
ligand
 OpenBabel11021811453D
libRbt.so/2013.1/901 2013/11/27
 13 12  0  0  0  0  0  0  0  0999 V2000
   35.8132   31.1601   50.2729 O   0  0  0  0  0  0  0  0  0  0  0  0
   32.9446   30.6605   50.7891 O   0  0  0  0  0  0  0  0  0  0  0  0
   38.1178   29.8546   45.9583 P   0  0  2  0  0  0  0  0  0  0  0  0
   39.4937   30.0163   46.5116 O   0  5  0  0  0  0  0  0  0  0  0  0
   37.8591   30.2070   44.5385 O   0  0  0  0  0  0  0  0  0  0  0  0
   37.1073   30.6960   46.8462 O   0  0  0  0  0  0  0  0  0  0  0  0
   29.6997   29.0086   50.3446 O   0  0  0  0  0  0  0  0  0  0  0  0
   37.0027   30.4730   48.2598 C   0  0  0  0  0  0  0  0  0  0  0  0
   33.4818   31.9784   50.5086 C   0  0  0  0  0  0  0  0  0  0  0  0
   31.0614   29.1024   50.7375 C   0  0  0  0  0  0  0  0  0  0  0  0
   35.9666   31.4338   48.8672 C   0  0  0  0  0  0  0  0  0  0  0  0
   34.9556   32.1094   50.9656 C   0  0  0  0  0  0  0  0  0  0  0  0
   31.5711   30.5051   50.3614 C   0  0  0  0  0  0  0  0  0  0  0  0
  1 12  1  0  0  0  0
  1 11  1  0  0  0  0
  2 13  1  0  0  0  0
  2  9  1  0  0  0  0
  3  4  1  1  0  0  0
  3  5  2  0  0  0  0
  3  6  1  0  0  0  0
  6  8  1  0  0  0  0
  7 10  1  0  0  0  0
  8 11  1  0  0  0  0
  9 12  1  0  0  0  0
 10 13  1  0  0  0  0
M  CHG  1   4  -1
M  END
>  <CHROM.1>
68.07311067,-178.02822158,-56.52582315,179.26641272,177.01355406,-179.47596463
61.03376102,177.93401695,173.96618664,35.28248031,30.48335552,48.57653458
-2.63774378,-0.35655558,-2.13494293

>  <Name>
ligand

>  <RI>
0

>  <Rbt.Current_Directory>
/home/itssahil/PROJECTS/Mol_Feturizer/New_Systems/rnas/2NPY

>  <Rbt.Executable>
rbdock ($Id: //depot/dev/client3/rdock/2013.1/src/exe/rbdock.cxx#4 $)

>  <Rbt.Library>
libRbt.so (2013.1, Build901 2013/11/27)

>  <Rbt.Parameter_File>
/export/apps/rDock/src/rDock_2013.1_src/data/scripts/dock_solv.prm

>  <Rbt.Receptor>
prm/pocket_docking_7.prm

>  <SCORE>
-13.0981

>  <SCORE.INTER>
0.234403

>  <SCORE.INTER.CONST>
1

>  <SCORE.INTER.POLAR>
0

>  <SCORE.INTER.ROT>
9

>  <SCORE.INTER.SOLV>
12.7362

>  <SCORE.INTER.VDW>
-13.6891

>  <SCORE.INTER.norm>
0.018031

>  <SCORE.INTRA>
-13.3325

>  <SCORE.INTRA.DIHEDRAL>
-25.0782

>  <SCORE.INTRA.DIHEDRAL.0>
25.6828

>  <SCORE.INTRA.POLAR>
0

>  <SCORE.INTRA.POLAR.0>
0

>  <SCORE.INTRA.REPUL>
0

>  <SCORE.INTRA.REPUL.0>
0

>  <SCORE.INTRA.SOLV>
-1.35348

>  <SCORE.INTRA.SOLV.lig_0>
-48.5059

>  <SCORE.INTRA.VDW>
-0.116648

>  <SCORE.INTRA.VDW.0>
-0.363643

>  <SCORE.INTRA.norm>
-1.02558

>  <SCORE.RESTR>
0

>  <SCORE.RESTR.CAVITY>
0

>  <SCORE.RESTR.norm>
0

>  <SCORE.SYSTEM>
0

>  <SCORE.SYSTEM.CONST>
0

>  <SCORE.SYSTEM.DIHEDRAL>
0

>  <SCORE.SYSTEM.SOLV>
0

>  <SCORE.SYSTEM.norm>
0

>  <SCORE.heavy>
13

>  <SCORE.norm>
-1.00755

>  <RMSD>
6.420

$$$$
ligand
 OpenBabel11021811453D
libRbt.so/2013.1/901 2013/11/27
 13 12  0  0  0  0  0  0  0  0999 V2000
   37.0719   30.7539   46.6469 O   0  0  0  0  0  0  0  0  0  0  0  0
   35.2084   30.9106   48.9970 O   0  0  0  0  0  0  0  0  0  0  0  0
   35.3692   31.1747   42.6860 P   0  0  2  0  0  0  0  0  0  0  0  0
   33.9110   31.4139   42.8903 O   0  5  0  0  0  0  0  0  0  0  0  0
   35.8130   30.2962   41.5732 O   0  0  0  0  0  0  0  0  0  0  0  0
   35.9840   30.5879   44.0258 O   0  0  0  0  0  0  0  0  0  0  0  0
   32.5171   31.6662   48.6017 O   0  0  0  0  0  0  0  0  0  0  0  0
   37.4026   30.5634   44.2397 C   0  0  0  0  0  0  0  0  0  0  0  0
   36.6343   31.1710   49.0541 C   0  0  0  0  0  0  0  0  0  0  0  0
   32.9645   31.2816   49.8937 C   0  0  0  0  0  0  0  0  0  0  0  0
   37.7143   29.9695   45.6239 C   0  0  0  0  0  0  0  0  0  0  0  0
   37.4136   30.3459   48.0008 C   0  0  0  0  0  0  0  0  0  0  0  0
   34.4595   31.6303   50.0043 C   0  0  0  0  0  0  0  0  0  0  0  0
  1 12  1  0  0  0  0
  1 11  1  0  0  0  0
  2 13  1  0  0  0  0
  2  9  1  0  0  0  0
  3  4  1  1  0  0  0
  3  5  2  0  0  0  0
  3  6  1  0  0  0  0
  6  8  1  0  0  0  0
  7 10  1  0  0  0  0
  8 11  1  0  0  0  0
  9 12  1  0  0  0  0
 10 13  1  0  0  0  0
M  CHG  1   4  -1
M  END
>  <CHROM.1>
-176.81945482,-178.97644455,-164.73577043,178.95018821,-58.67980486,177.79942921
65.86699113,-60.44828876,-174.38869503,35.53018029,30.92852600,45.98499870
-1.74755445,0.24539531,-1.59650250

>  <Name>
ligand

>  <RI>
0

>  <Rbt.Current_Directory>
/home/itssahil/PROJECTS/Mol_Feturizer/New_Systems/rnas/2NPY

>  <Rbt.Executable>
rbdock ($Id: //depot/dev/client3/rdock/2013.1/src/exe/rbdock.cxx#4 $)

>  <Rbt.Library>
libRbt.so (2013.1, Build901 2013/11/27)

>  <Rbt.Parameter_File>
/export/apps/rDock/src/rDock_2013.1_src/data/scripts/dock_solv.prm

>  <Rbt.Receptor>
prm/pocket_docking_5.prm

>  <SCORE>
-13.0757

>  <SCORE.INTER>
1.1478

>  <SCORE.INTER.CONST>
1

>  <SCORE.INTER.POLAR>
0

>  <SCORE.INTER.ROT>
9

>  <SCORE.INTER.SOLV>
9.96453

>  <SCORE.INTER.VDW>
-12.1563

>  <SCORE.INTER.norm>
0.0882926

>  <SCORE.INTRA>
-14.2235

>  <SCORE.INTRA.DIHEDRAL>
-25.1737

>  <SCORE.INTRA.DIHEDRAL.0>
25.6828

>  <SCORE.INTRA.POLAR>
0

>  <SCORE.INTRA.POLAR.0>
0

>  <SCORE.INTRA.REPUL>
0

>  <SCORE.INTRA.REPUL.0>
0

>  <SCORE.INTRA.SOLV>
-1.06812

>  <SCORE.INTRA.SOLV.lig_0>
-48.5059

>  <SCORE.INTRA.VDW>
-1.10263

>  <SCORE.INTRA.VDW.0>
-0.363643

>  <SCORE.INTRA.norm>
-1.09412

>  <SCORE.RESTR>
0

>  <SCORE.RESTR.CAVITY>
0

>  <SCORE.RESTR.norm>
0

>  <SCORE.SYSTEM>
0

>  <SCORE.SYSTEM.CONST>
0

>  <SCORE.SYSTEM.DIHEDRAL>
0

>  <SCORE.SYSTEM.SOLV>
0

>  <SCORE.SYSTEM.norm>
0

>  <SCORE.heavy>
13

>  <SCORE.norm>
-1.00583

>  <RMSD>
6.422

$$$$
ligand
 OpenBabel11021811453D
libRbt.so/2013.1/901 2013/11/27
 13 12  0  0  0  0  0  0  0  0999 V2000
   30.2798   34.0037   46.9224 O   0  0  0  0  0  0  0  0  0  0  0  0
   30.1912   32.6135   44.3724 O   0  0  0  0  0  0  0  0  0  0  0  0
   29.8227   38.2356   47.7966 P   0  0  2  0  0  0  0  0  0  0  0  0
   30.0289   38.7958   49.1637 O   0  5  0  0  0  0  0  0  0  0  0  0
   28.6063   38.6134   47.0319 O   0  0  0  0  0  0  0  0  0  0  0  0
   29.8542   36.6516   47.8827 O   0  0  0  0  0  0  0  0  0  0  0  0
   33.4378   31.6540   42.9607 O   0  0  0  0  0  0  0  0  0  0  0  0
   31.0761   35.9501   48.1542 C   0  0  0  0  0  0  0  0  0  0  0  0
   29.3815   32.1819   45.4960 C   0  0  0  0  0  0  0  0  0  0  0  0
   32.2557   32.4330   43.0755 C   0  0  0  0  0  0  0  0  0  0  0  0
   30.8146   34.4347   48.1883 C   0  0  0  0  0  0  0  0  0  0  0  0
   30.0202   32.5741   46.8511 C   0  0  0  0  0  0  0  0  0  0  0  0
   31.4365   31.8857   44.2580 C   0  0  0  0  0  0  0  0  0  0  0  0
  1 12  1  0  0  0  0
  1 11  1  0  0  0  0
  2 13  1  0  0  0  0
  2  9  1  0  0  0  0
  3  4  1  1  0  0  0
  3  5  2  0  0  0  0
  3  6  1  0  0  0  0
  6  8  1  0  0  0  0
  7 10  1  0  0  0  0
  8 11  1  0  0  0  0
  9 12  1  0  0  0  0
 10 13  1  0  0  0  0
M  CHG  1   4  -1
M  END
>  <CHROM.1>
177.14203292,-178.09073557,-70.28362587,179.68570188,59.29260483,69.12104193
55.44445949,-177.37347954,179.02598394,30.48688014,34.95112002,46.44195977
1.07328084,-1.01132534,-2.97877124

>  <Name>
ligand

>  <RI>
0

>  <Rbt.Current_Directory>
/home/itssahil/PROJECTS/Mol_Feturizer/New_Systems/rnas/2NPY

>  <Rbt.Executable>
rbdock ($Id: //depot/dev/client3/rdock/2013.1/src/exe/rbdock.cxx#4 $)

>  <Rbt.Library>
libRbt.so (2013.1, Build901 2013/11/27)

>  <Rbt.Parameter_File>
/export/apps/rDock/src/rDock_2013.1_src/data/scripts/dock_solv.prm

>  <Rbt.Receptor>
prm/pocket_docking_3.prm

>  <SCORE>
-7.256

>  <SCORE.INTER>
6.22244

>  <SCORE.INTER.CONST>
1

>  <SCORE.INTER.POLAR>
0

>  <SCORE.INTER.ROT>
9

>  <SCORE.INTER.SOLV>
10.0292

>  <SCORE.INTER.VDW>
-8.79478

>  <SCORE.INTER.norm>
0.47865

>  <SCORE.INTRA>
-13.4784

>  <SCORE.INTRA.DIHEDRAL>
-24.8416

>  <SCORE.INTRA.DIHEDRAL.0>
25.6828

>  <SCORE.INTRA.POLAR>
0

>  <SCORE.INTRA.POLAR.0>
0

>  <SCORE.INTRA.REPUL>
0

>  <SCORE.INTRA.REPUL.0>
0

>  <SCORE.INTRA.SOLV>
-1.27745

>  <SCORE.INTRA.SOLV.lig_0>
-48.5059

>  <SCORE.INTRA.VDW>
-0.418897

>  <SCORE.INTRA.VDW.0>
-0.363643

>  <SCORE.INTRA.norm>
-1.0368

>  <SCORE.RESTR>
0

>  <SCORE.RESTR.CAVITY>
0

>  <SCORE.RESTR.norm>
0

>  <SCORE.SYSTEM>
0

>  <SCORE.SYSTEM.CONST>
0

>  <SCORE.SYSTEM.DIHEDRAL>
0

>  <SCORE.SYSTEM.SOLV>
0

>  <SCORE.SYSTEM.norm>
0

>  <SCORE.heavy>
13

>  <SCORE.norm>
-0.558154

>  <RMSD>
6.424

$$$$
ligand
 OpenBabel11021811453D
libRbt.so/2013.1/901 2013/11/27
 13 12  0  0  0  0  0  0  0  0999 V2000
   36.6297   30.8207   47.7821 O   0  0  0  0  0  0  0  0  0  0  0  0
   34.2892   30.9850   49.5961 O   0  0  0  0  0  0  0  0  0  0  0  0
   37.3480   31.6925   43.5572 P   0  0  2  0  0  0  0  0  0  0  0  0
   36.0108   31.2024   43.1134 O   0  5  0  0  0  0  0  0  0  0  0  0
   38.5705   31.1695   42.8947 O   0  0  0  0  0  0  0  0  0  0  0  0
   37.5012   31.4228   45.1132 O   0  0  0  0  0  0  0  0  0  0  0  0
   31.9473   29.6132   50.4786 O   0  0  0  0  0  0  0  0  0  0  0  0
   37.5159   30.0859   45.6340 C   0  0  0  0  0  0  0  0  0  0  0  0
   35.5414   31.6742   49.8431 C   0  0  0  0  0  0  0  0  0  0  0  0
   31.8595   30.8820   49.8463 C   0  0  0  0  0  0  0  0  0  0  0  0
   37.7215   30.1187   47.1580 C   0  0  0  0  0  0  0  0  0  0  0  0
   36.7459   30.9193   49.2289 C   0  0  0  0  0  0  0  0  0  0  0  0
   33.1458   31.6645   50.1658 C   0  0  0  0  0  0  0  0  0  0  0  0
  1 12  1  0  0  0  0
  1 11  1  0  0  0  0
  2 13  1  0  0  0  0
  2  9  1  0  0  0  0
  3  4  1  6  0  0  0
  3  5  2  0  0  0  0
  3  6  1  0  0  0  0
  6  8  1  0  0  0  0
  7 10  1  0  0  0  0
  8 11  1  0  0  0  0
  9 12  1  0  0  0  0
 10 13  1  0  0  0  0
M  CHG  1   4  -1
M  END
>  <CHROM.1>
-179.62559944,179.31283602,64.04461215,178.15304647,61.64523387,179.66961341
61.92822427,63.53380382,-179.21313512,35.88755525,30.99845306,46.92205419
-2.16668476,0.01633482,-1.48441580

>  <Name>
ligand

>  <RI>
0

>  <Rbt.Current_Directory>
/home/itssahil/PROJECTS/Mol_Feturizer/New_Systems/rnas/2NPY

>  <Rbt.Executable>
rbdock ($Id: //depot/dev/client3/rdock/2013.1/src/exe/rbdock.cxx#4 $)

>  <Rbt.Library>
libRbt.so (2013.1, Build901 2013/11/27)

>  <Rbt.Parameter_File>
/export/apps/rDock/src/rDock_2013.1_src/data/scripts/dock_solv.prm

>  <Rbt.Receptor>
prm/pocket_docking_8.prm

>  <SCORE>
-12.6874

>  <SCORE.INTER>
1.54228

>  <SCORE.INTER.CONST>
1

>  <SCORE.INTER.POLAR>
0

>  <SCORE.INTER.ROT>
9

>  <SCORE.INTER.SOLV>
6.87205

>  <SCORE.INTER.VDW>
-10.8625

>  <SCORE.INTER.norm>
0.118637

>  <SCORE.INTRA>
-14.2296

>  <SCORE.INTRA.DIHEDRAL>
-25.5572

>  <SCORE.INTRA.DIHEDRAL.0>
25.6828

>  <SCORE.INTRA.POLAR>
0

>  <SCORE.INTRA.POLAR.0>
0

>  <SCORE.INTRA.REPUL>
0

>  <SCORE.INTRA.REPUL.0>
0

>  <SCORE.INTRA.SOLV>
-0.628377

>  <SCORE.INTRA.SOLV.lig_0>
-48.5059

>  <SCORE.INTRA.VDW>
-1.13685

>  <SCORE.INTRA.VDW.0>
-0.363643

>  <SCORE.INTRA.norm>
-1.09459

>  <SCORE.RESTR>
0

>  <SCORE.RESTR.CAVITY>
0

>  <SCORE.RESTR.norm>
0

>  <SCORE.SYSTEM>
0

>  <SCORE.SYSTEM.CONST>
0

>  <SCORE.SYSTEM.DIHEDRAL>
0

>  <SCORE.SYSTEM.SOLV>
0

>  <SCORE.SYSTEM.norm>
0

>  <SCORE.heavy>
13

>  <SCORE.norm>
-0.97595

>  <RMSD>
6.425

$$$$
ligand
 OpenBabel11021811453D
libRbt.so/2013.1/901 2013/11/27
 13 12  0  0  0  0  0  0  0  0999 V2000
   37.0625   30.7553   46.6306 O   0  0  0  0  0  0  0  0  0  0  0  0
   35.2413   30.8756   49.0256 O   0  0  0  0  0  0  0  0  0  0  0  0
   35.3527   30.5736   42.5698 P   0  0  2  0  0  0  0  0  0  0  0  0
   36.1008   29.9390   41.4460 O   0  5  0  0  0  0  0  0  0  0  0  0
   35.1667   32.0474   42.5788 O   0  0  0  0  0  0  0  0  0  0  0  0
   36.0512   30.1766   43.9380 O   0  0  0  0  0  0  0  0  0  0  0  0
   32.5259   31.6549   48.6409 O   0  0  0  0  0  0  0  0  0  0  0  0
   37.3992   30.5770   44.2234 C   0  0  0  0  0  0  0  0  0  0  0  0
   36.6512   31.2169   49.0344 C   0  0  0  0  0  0  0  0  0  0  0  0
   32.9890   31.2204   49.9115 C   0  0  0  0  0  0  0  0  0  0  0  0
   37.8149   30.0668   45.6136 C   0  0  0  0  0  0  0  0  0  0  0  0
   37.4485   30.4005   47.9876 C   0  0  0  0  0  0  0  0  0  0  0  0
   34.4789   31.5884   50.0277 C   0  0  0  0  0  0  0  0  0  0  0  0
  1 12  1  0  0  0  0
  1 11  1  0  0  0  0
  2 13  1  0  0  0  0
  2  9  1  0  0  0  0
  3  4  1  6  0  0  0
  3  5  2  0  0  0  0
  3  6  1  0  0  0  0
  6  8  1  0  0  0  0
  7 10  1  0  0  0  0
  8 11  1  0  0  0  0
  9 12  1  0  0  0  0
 10 13  1  0  0  0  0
M  CHG  1   4  -1
M  END
>  <CHROM.1>
177.45722150,177.43601439,62.96889584,179.61937596,-67.93131150,177.89105174
66.67082022,-63.25030269,-176.25735669,35.66509786,30.83389704,45.93075742
-1.78409481,0.23692266,-1.61958508

>  <Name>
ligand

>  <RI>
0

>  <Rbt.Current_Directory>
/home/itssahil/PROJECTS/Mol_Feturizer/New_Systems/rnas/2NPY

>  <Rbt.Executable>
rbdock ($Id: //depot/dev/client3/rdock/2013.1/src/exe/rbdock.cxx#4 $)

>  <Rbt.Library>
libRbt.so (2013.1, Build901 2013/11/27)

>  <Rbt.Parameter_File>
/export/apps/rDock/src/rDock_2013.1_src/data/scripts/dock_solv.prm

>  <Rbt.Receptor>
prm/pocket_docking_5.prm

>  <SCORE>
-13.44

>  <SCORE.INTER>
0.52179

>  <SCORE.INTER.CONST>
1

>  <SCORE.INTER.POLAR>
0

>  <SCORE.INTER.ROT>
9

>  <SCORE.INTER.SOLV>
10.977

>  <SCORE.INTER.VDW>
-12.9111

>  <SCORE.INTER.norm>
0.0401377

>  <SCORE.INTRA>
-13.9618

>  <SCORE.INTRA.DIHEDRAL>
-25.0513

>  <SCORE.INTRA.DIHEDRAL.0>
25.6828

>  <SCORE.INTRA.POLAR>
0

>  <SCORE.INTRA.POLAR.0>
0

>  <SCORE.INTRA.REPUL>
0

>  <SCORE.INTRA.REPUL.0>
0

>  <SCORE.INTRA.SOLV>
-0.665661

>  <SCORE.INTRA.SOLV.lig_0>
-48.5059

>  <SCORE.INTRA.VDW>
-1.1033

>  <SCORE.INTRA.VDW.0>
-0.363643

>  <SCORE.INTRA.norm>
-1.07398

>  <SCORE.RESTR>
0

>  <SCORE.RESTR.CAVITY>
0

>  <SCORE.RESTR.norm>
0

>  <SCORE.SYSTEM>
0

>  <SCORE.SYSTEM.CONST>
0

>  <SCORE.SYSTEM.DIHEDRAL>
0

>  <SCORE.SYSTEM.SOLV>
0

>  <SCORE.SYSTEM.norm>
0

>  <SCORE.heavy>
13

>  <SCORE.norm>
-1.03385

>  <RMSD>
6.449

$$$$
ligand
 OpenBabel11021811453D
libRbt.so/2013.1/901 2013/11/27
 13 12  0  0  0  0  0  0  0  0999 V2000
   30.0475   31.8635   47.7923 O   0  0  0  0  0  0  0  0  0  0  0  0
   32.5557   31.1141   49.1799 O   0  0  0  0  0  0  0  0  0  0  0  0
   27.5156   34.0128   43.9750 P   0  0  2  0  0  0  0  0  0  0  0  0
   26.2199   33.7039   43.3033 O   0  5  0  0  0  0  0  0  0  0  0  0
   28.7217   34.2675   43.1460 O   0  0  0  0  0  0  0  0  0  0  0  0
   27.8687   32.8312   44.9732 O   0  0  0  0  0  0  0  0  0  0  0  0
   34.9365   32.4386   48.4471 O   0  0  0  0  0  0  0  0  0  0  0  0
   28.9551   32.9487   45.9032 C   0  0  0  0  0  0  0  0  0  0  0  0
   31.2439   31.0012   49.7887 C   0  0  0  0  0  0  0  0  0  0  0  0
   34.9694   31.4122   49.4283 C   0  0  0  0  0  0  0  0  0  0  0  0
   29.0080   31.7060   46.8080 C   0  0  0  0  0  0  0  0  0  0  0  0
   30.1375   30.7574   48.7331 C   0  0  0  0  0  0  0  0  0  0  0  0
   33.6043   31.3872   50.1387 C   0  0  0  0  0  0  0  0  0  0  0  0
  1 12  1  0  0  0  0
  1 11  1  0  0  0  0
  2 13  1  0  0  0  0
  2  9  1  0  0  0  0
  3  4  1  6  0  0  0
  3  5  2  0  0  0  0
  3  6  1  0  0  0  0
  6  8  1  0  0  0  0
  7 10  1  0  0  0  0
  8 11  1  0  0  0  0
  9 12  1  0  0  0  0
 10 13  1  0  0  0  0
M  CHG  1   4  -1
M  END
>  <CHROM.1>
-178.40369538,176.77758046,-170.55449370,176.03484571,-176.53129905,178.04187690
-61.61866988,60.25761105,177.57145318,30.18811447,32.42980617,46.74996571
0.76328486,0.19263501,2.16574693

>  <Name>
ligand

>  <RI>
0

>  <Rbt.Current_Directory>
/home/itssahil/PROJECTS/Mol_Feturizer/New_Systems/rnas/2NPY

>  <Rbt.Executable>
rbdock ($Id: //depot/dev/client3/rdock/2013.1/src/exe/rbdock.cxx#4 $)

>  <Rbt.Library>
libRbt.so (2013.1, Build901 2013/11/27)

>  <Rbt.Parameter_File>
/export/apps/rDock/src/rDock_2013.1_src/data/scripts/dock_solv.prm

>  <Rbt.Receptor>
prm/pocket_docking_7.prm

>  <SCORE>
-9.94658

>  <SCORE.INTER>
4.28286

>  <SCORE.INTER.CONST>
1

>  <SCORE.INTER.POLAR>
0

>  <SCORE.INTER.ROT>
9

>  <SCORE.INTER.SOLV>
6.54625

>  <SCORE.INTER.VDW>
-8.92684

>  <SCORE.INTER.norm>
0.329451

>  <SCORE.INTRA>
-14.2294

>  <SCORE.INTRA.DIHEDRAL>
-25.3899

>  <SCORE.INTRA.DIHEDRAL.0>
25.6828

>  <SCORE.INTRA.POLAR>
0

>  <SCORE.INTRA.POLAR.0>
0

>  <SCORE.INTRA.REPUL>
0

>  <SCORE.INTRA.REPUL.0>
0

>  <SCORE.INTRA.SOLV>
-1.1834

>  <SCORE.INTRA.SOLV.lig_0>
-48.5059

>  <SCORE.INTRA.VDW>
-0.942795

>  <SCORE.INTRA.VDW.0>
-0.363643

>  <SCORE.INTRA.norm>
-1.09457

>  <SCORE.RESTR>
0

>  <SCORE.RESTR.CAVITY>
0

>  <SCORE.RESTR.norm>
0

>  <SCORE.SYSTEM>
0

>  <SCORE.SYSTEM.CONST>
0

>  <SCORE.SYSTEM.DIHEDRAL>
0

>  <SCORE.SYSTEM.SOLV>
0

>  <SCORE.SYSTEM.norm>
0

>  <SCORE.heavy>
13

>  <SCORE.norm>
-0.765122

>  <RMSD>
6.487

$$$$
ligand
 OpenBabel11021811453D
libRbt.so/2013.1/901 2013/11/27
 13 12  0  0  0  0  0  0  0  0999 V2000
   30.2455   32.9970   44.0609 O   0  0  0  0  0  0  0  0  0  0  0  0
   33.3745   31.2069   42.9942 O   0  0  0  0  0  0  0  0  0  0  0  0
   31.2665   32.6805   48.3739 P   0  0  2  0  0  0  0  0  0  0  0  0
   32.5785   31.9772   48.4720 O   0  5  0  0  0  0  0  0  0  0  0  0
   30.2020   32.3750   49.3640 O   0  0  0  0  0  0  0  0  0  0  0  0
   30.6572   32.4275   46.9310 O   0  0  0  0  0  0  0  0  0  0  0  0
   35.9899   30.2081   43.2842 O   0  0  0  0  0  0  0  0  0  0  0  0
   29.6304   33.2791   46.4023 C   0  0  0  0  0  0  0  0  0  0  0  0
   32.3845   32.2664   43.0356 C   0  0  0  0  0  0  0  0  0  0  0  0
   35.3908   30.2493   41.9971 C   0  0  0  0  0  0  0  0  0  0  0  0
   29.1917   32.7742   45.0172 C   0  0  0  0  0  0  0  0  0  0  0  0
   31.3173   32.0157   44.1292 C   0  0  0  0  0  0  0  0  0  0  0  0
   34.3827   31.4122   41.9769 C   0  0  0  0  0  0  0  0  0  0  0  0
  1 12  1  0  0  0  0
  1 11  1  0  0  0  0
  2 13  1  0  0  0  0
  2  9  1  0  0  0  0
  3  4  1  1  0  0  0
  3  5  2  0  0  0  0
  3  6  1  0  0  0  0
  6  8  1  0  0  0  0
  7 10  1  0  0  0  0
  8 11  1  0  0  0  0
  9 12  1  0  0  0  0
 10 13  1  0  0  0  0
M  CHG  1   4  -1
M  END
>  <CHROM.1>
177.26745708,-179.96133607,-161.03230666,-177.87784951,-69.99753335,179.77729290
-173.32460072,-59.57872886,78.77798611,31.99153231,32.03838276,45.38752526
2.23947466,-0.39973122,1.55923241

>  <Name>
ligand

>  <RI>
0

>  <Rbt.Current_Directory>
/home/itssahil/PROJECTS/Mol_Feturizer/New_Systems/rnas/2NPY

>  <Rbt.Executable>
rbdock ($Id: //depot/dev/client3/rdock/2013.1/src/exe/rbdock.cxx#4 $)

>  <Rbt.Library>
libRbt.so (2013.1, Build901 2013/11/27)

>  <Rbt.Parameter_File>
/export/apps/rDock/src/rDock_2013.1_src/data/scripts/dock_solv.prm

>  <Rbt.Receptor>
prm/pocket_docking_4.prm

>  <SCORE>
-7.00673

>  <SCORE.INTER>
5.41911

>  <SCORE.INTER.CONST>
1

>  <SCORE.INTER.POLAR>
0

>  <SCORE.INTER.ROT>
9

>  <SCORE.INTER.SOLV>
9.12688

>  <SCORE.INTER.VDW>
-9.02955

>  <SCORE.INTER.norm>
0.416855

>  <SCORE.INTRA>
-12.4258

>  <SCORE.INTRA.DIHEDRAL>
-23.2609

>  <SCORE.INTRA.DIHEDRAL.0>
25.6828

>  <SCORE.INTRA.POLAR>
0

>  <SCORE.INTRA.POLAR.0>
0

>  <SCORE.INTRA.REPUL>
0

>  <SCORE.INTRA.REPUL.0>
0

>  <SCORE.INTRA.SOLV>
-0.757607

>  <SCORE.INTRA.SOLV.lig_0>
-48.5059

>  <SCORE.INTRA.VDW>
-0.416601

>  <SCORE.INTRA.VDW.0>
-0.363643

>  <SCORE.INTRA.norm>
-0.955834

>  <SCORE.RESTR>
0

>  <SCORE.RESTR.CAVITY>
0

>  <SCORE.RESTR.norm>
0

>  <SCORE.SYSTEM>
0

>  <SCORE.SYSTEM.CONST>
0

>  <SCORE.SYSTEM.DIHEDRAL>
0

>  <SCORE.SYSTEM.SOLV>
0

>  <SCORE.SYSTEM.norm>
0

>  <SCORE.heavy>
13

>  <SCORE.norm>
-0.538979

>  <RMSD>
6.502

$$$$
ligand
 OpenBabel11021811453D
libRbt.so/2013.1/901 2013/11/27
 13 12  0  0  0  0  0  0  0  0999 V2000
   29.1998   34.9903   44.8221 O   0  0  0  0  0  0  0  0  0  0  0  0
   30.2489   32.6566   46.1893 O   0  0  0  0  0  0  0  0  0  0  0  0
   29.2780   38.6228   47.2754 P   0  0  2  0  0  0  0  0  0  0  0  0
   28.2444   39.6796   47.0744 O   0  5  0  0  0  0  0  0  0  0  0  0
   30.6928   38.9144   46.9287 O   0  0  0  0  0  0  0  0  0  0  0  0
   28.8498   37.3277   46.4651 O   0  0  0  0  0  0  0  0  0  0  0  0
   30.4364   31.5922   48.7898 O   0  0  0  0  0  0  0  0  0  0  0  0
   28.6962   37.3650   45.0389 C   0  0  0  0  0  0  0  0  0  0  0  0
   29.8953   32.6080   44.7833 C   0  0  0  0  0  0  0  0  0  0  0  0
   31.6187   31.8420   48.0432 C   0  0  0  0  0  0  0  0  0  0  0  0
   28.2132   35.9973   44.5273 C   0  0  0  0  0  0  0  0  0  0  0  0
   28.8040   33.6473   44.4271 C   0  0  0  0  0  0  0  0  0  0  0  0
   31.2773   31.7044   46.5487 C   0  0  0  0  0  0  0  0  0  0  0  0
  1 12  1  0  0  0  0
  1 11  1  0  0  0  0
  2 13  1  0  0  0  0
  2  9  1  0  0  0  0
  3  4  1  6  0  0  0
  3  5  2  0  0  0  0
  3  6  1  0  0  0  0
  6  8  1  0  0  0  0
  7 10  1  0  0  0  0
  8 11  1  0  0  0  0
  9 12  1  0  0  0  0
 10 13  1  0  0  0  0
M  CHG  1   4  -1
M  END
>  <CHROM.1>
-179.34449971,178.63423292,61.05765704,-177.32497710,-62.35888127,-179.41982973
54.92887469,59.73284075,177.41720843,29.61834794,35.46841116,46.33581082
1.07842430,1.07851512,-2.71572252

>  <Name>
ligand

>  <RI>
0

>  <Rbt.Current_Directory>
/home/itssahil/PROJECTS/Mol_Feturizer/New_Systems/rnas/2NPY

>  <Rbt.Executable>
rbdock ($Id: //depot/dev/client3/rdock/2013.1/src/exe/rbdock.cxx#4 $)

>  <Rbt.Library>
libRbt.so (2013.1, Build901 2013/11/27)

>  <Rbt.Parameter_File>
/export/apps/rDock/src/rDock_2013.1_src/data/scripts/dock_solv.prm

>  <Rbt.Receptor>
prm/pocket_docking_3.prm

>  <SCORE>
-6.13957

>  <SCORE.INTER>
8.04353

>  <SCORE.INTER.CONST>
1

>  <SCORE.INTER.POLAR>
0

>  <SCORE.INTER.ROT>
9

>  <SCORE.INTER.SOLV>
6.70062

>  <SCORE.INTER.VDW>
-6.47119

>  <SCORE.INTER.norm>
0.618733

>  <SCORE.INTRA>
-14.1846

>  <SCORE.INTRA.DIHEDRAL>
-25.4363

>  <SCORE.INTRA.DIHEDRAL.0>
25.6828

>  <SCORE.INTRA.POLAR>
0

>  <SCORE.INTRA.POLAR.0>
0

>  <SCORE.INTRA.REPUL>
0

>  <SCORE.INTRA.REPUL.0>
0

>  <SCORE.INTRA.SOLV>
-0.609786

>  <SCORE.INTRA.SOLV.lig_0>
-48.5059

>  <SCORE.INTRA.VDW>
-1.16152

>  <SCORE.INTRA.VDW.0>
-0.363643

>  <SCORE.INTRA.norm>
-1.09112

>  <SCORE.RESTR>
0.00146552

>  <SCORE.RESTR.CAVITY>
0.00146552

>  <SCORE.RESTR.norm>
0.000112733

>  <SCORE.SYSTEM>
0

>  <SCORE.SYSTEM.CONST>
0

>  <SCORE.SYSTEM.DIHEDRAL>
0

>  <SCORE.SYSTEM.SOLV>
0

>  <SCORE.SYSTEM.norm>
0

>  <SCORE.heavy>
13

>  <SCORE.norm>
-0.472274

>  <RMSD>
6.506

$$$$
ligand
 OpenBabel11021811453D
libRbt.so/2013.1/901 2013/11/27
 13 12  0  0  0  0  0  0  0  0999 V2000
   32.2278   32.4359   44.0509 O   0  0  0  0  0  0  0  0  0  0  0  0
   35.0191   31.8724   43.7324 O   0  0  0  0  0  0  0  0  0  0  0  0
   31.2956   32.7506   48.3001 P   0  0  2  0  0  0  0  0  0  0  0  0
   30.0672   32.1336   48.8795 O   0  5  0  0  0  0  0  0  0  0  0  0
   31.4412   34.2289   48.3111 O   0  0  0  0  0  0  0  0  0  0  0  0
   31.4476   32.2715   46.7952 O   0  0  0  0  0  0  0  0  0  0  0  0
   36.9541   30.8869   45.4733 O   0  0  0  0  0  0  0  0  0  0  0  0
   30.5351   32.7175   45.7815 C   0  0  0  0  0  0  0  0  0  0  0  0
   34.1867   32.0945   42.5653 C   0  0  0  0  0  0  0  0  0  0  0  0
   37.2005   32.1177   44.8085 C   0  0  0  0  0  0  0  0  0  0  0  0
   30.8893   32.0668   44.4336 C   0  0  0  0  0  0  0  0  0  0  0  0
   32.6995   31.7682   42.8475 C   0  0  0  0  0  0  0  0  0  0  0  0
   36.4245   32.1059   43.4794 C   0  0  0  0  0  0  0  0  0  0  0  0
  1 12  1  0  0  0  0
  1 11  1  0  0  0  0
  2 13  1  0  0  0  0
  2  9  1  0  0  0  0
  3  4  1  6  0  0  0
  3  5  2  0  0  0  0
  3  6  1  0  0  0  0
  6  8  1  0  0  0  0
  7 10  1  0  0  0  0
  8 11  1  0  0  0  0
  9 12  1  0  0  0  0
 10 13  1  0  0  0  0
M  CHG  1   4  -1
M  END
>  <CHROM.1>
-174.33348202,169.12901504,69.29229007,-178.24785922,-60.24234706,177.12250385
50.86850719,56.34587861,174.60877522,32.94753517,32.30658001,45.62874412
0.69044161,0.11406243,-1.67925847

>  <Name>
ligand

>  <RI>
0

>  <Rbt.Current_Directory>
/home/itssahil/PROJECTS/Mol_Feturizer/New_Systems/rnas/2NPY

>  <Rbt.Executable>
rbdock ($Id: //depot/dev/client3/rdock/2013.1/src/exe/rbdock.cxx#4 $)

>  <Rbt.Library>
libRbt.so (2013.1, Build901 2013/11/27)

>  <Rbt.Parameter_File>
/export/apps/rDock/src/rDock_2013.1_src/data/scripts/dock_solv.prm

>  <Rbt.Receptor>
prm/pocket_docking_3.prm

>  <SCORE>
-7.20585

>  <SCORE.INTER>
6.37101

>  <SCORE.INTER.CONST>
1

>  <SCORE.INTER.POLAR>
0

>  <SCORE.INTER.ROT>
9

>  <SCORE.INTER.SOLV>
5.0856

>  <SCORE.INTER.VDW>
-7.04786

>  <SCORE.INTER.norm>
0.490078

>  <SCORE.INTRA>
-13.5995

>  <SCORE.INTRA.DIHEDRAL>
-24.3524

>  <SCORE.INTRA.DIHEDRAL.0>
25.6828

>  <SCORE.INTRA.POLAR>
0

>  <SCORE.INTRA.POLAR.0>
0

>  <SCORE.INTRA.REPUL>
0

>  <SCORE.INTRA.REPUL.0>
0

>  <SCORE.INTRA.SOLV>
-0.578348

>  <SCORE.INTRA.SOLV.lig_0>
-48.5059

>  <SCORE.INTRA.VDW>
-1.13414

>  <SCORE.INTRA.VDW.0>
-0.363643

>  <SCORE.INTRA.norm>
-1.04611

>  <SCORE.RESTR>
0.022628

>  <SCORE.RESTR.CAVITY>
0.022628

>  <SCORE.RESTR.norm>
0.00174061

>  <SCORE.SYSTEM>
0

>  <SCORE.SYSTEM.CONST>
0

>  <SCORE.SYSTEM.DIHEDRAL>
0

>  <SCORE.SYSTEM.SOLV>
0

>  <SCORE.SYSTEM.norm>
0

>  <SCORE.heavy>
13

>  <SCORE.norm>
-0.554296

>  <RMSD>
6.511

$$$$
ligand
 OpenBabel11021811453D
libRbt.so/2013.1/901 2013/11/27
 13 12  0  0  0  0  0  0  0  0999 V2000
   37.6995   31.2653   47.5495 O   0  0  0  0  0  0  0  0  0  0  0  0
   35.0212   31.5132   50.1796 O   0  0  0  0  0  0  0  0  0  0  0  0
   37.6027   30.6507   43.0991 P   0  0  2  0  0  0  0  0  0  0  0  0
   38.9271   31.3070   42.8976 O   0  5  0  0  0  0  0  0  0  0  0  0
   36.4029   31.2132   42.4276 O   0  0  0  0  0  0  0  0  0  0  0  0
   37.2913   30.5936   44.6538 O   0  0  0  0  0  0  0  0  0  0  0  0
   33.4980   33.0848   51.9869 O   0  0  0  0  0  0  0  0  0  0  0  0
   38.1871   29.9390   45.5637 C   0  0  0  0  0  0  0  0  0  0  0  0
   35.5917   31.3302   48.8585 C   0  0  0  0  0  0  0  0  0  0  0  0
   33.0491   31.7950   51.5967 C   0  0  0  0  0  0  0  0  0  0  0  0
   37.5918   29.9459   46.9820 C   0  0  0  0  0  0  0  0  0  0  0  0
   37.1393   31.3763   48.8875 C   0  0  0  0  0  0  0  0  0  0  0  0
   33.5743   31.5161   50.1771 C   0  0  0  0  0  0  0  0  0  0  0  0
  1 12  1  0  0  0  0
  1 11  1  0  0  0  0
  2 13  1  0  0  0  0
  2  9  1  0  0  0  0
  3  4  1  1  0  0  0
  3  5  2  0  0  0  0
  3  6  1  0  0  0  0
  6  8  1  0  0  0  0
  7 10  1  0  0  0  0
  8 11  1  0  0  0  0
  9 12  1  0  0  0  0
 10 13  1  0  0  0  0
M  CHG  1   4  -1
M  END
>  <CHROM.1>
-72.45485068,-176.76702472,-57.65509360,-175.90022072,-74.46702937,178.19784110
-176.86998009,61.97749294,178.99128828,36.39274924,31.16787845,46.92176760
-2.04558072,0.30820759,-1.57554078

>  <Name>
ligand

>  <RI>
0

>  <Rbt.Current_Directory>
/home/itssahil/PROJECTS/Mol_Feturizer/New_Systems/rnas/2NPY

>  <Rbt.Executable>
rbdock ($Id: //depot/dev/client3/rdock/2013.1/src/exe/rbdock.cxx#4 $)

>  <Rbt.Library>
libRbt.so (2013.1, Build901 2013/11/27)

>  <Rbt.Parameter_File>
/export/apps/rDock/src/rDock_2013.1_src/data/scripts/dock_solv.prm

>  <Rbt.Receptor>
prm/pocket_docking_6.prm

>  <SCORE>
-10.8192

>  <SCORE.INTER>
2.17714

>  <SCORE.INTER.CONST>
1

>  <SCORE.INTER.POLAR>
0

>  <SCORE.INTER.ROT>
9

>  <SCORE.INTER.SOLV>
6.77262

>  <SCORE.INTER.VDW>
-10.4061

>  <SCORE.INTER.norm>
0.167472

>  <SCORE.INTRA>
-12.9963

>  <SCORE.INTRA.DIHEDRAL>
-23.9445

>  <SCORE.INTRA.DIHEDRAL.0>
25.6828

>  <SCORE.INTRA.POLAR>
0

>  <SCORE.INTRA.POLAR.0>
0

>  <SCORE.INTRA.REPUL>
0

>  <SCORE.INTRA.REPUL.0>
0

>  <SCORE.INTRA.SOLV>
-1.30228

>  <SCORE.INTRA.SOLV.lig_0>
-48.5059

>  <SCORE.INTRA.VDW>
-0.372914

>  <SCORE.INTRA.VDW.0>
-0.363643

>  <SCORE.INTRA.norm>
-0.999717

>  <SCORE.RESTR>
0

>  <SCORE.RESTR.CAVITY>
0

>  <SCORE.RESTR.norm>
0

>  <SCORE.SYSTEM>
0

>  <SCORE.SYSTEM.CONST>
0

>  <SCORE.SYSTEM.DIHEDRAL>
0

>  <SCORE.SYSTEM.SOLV>
0

>  <SCORE.SYSTEM.norm>
0

>  <SCORE.heavy>
13

>  <SCORE.norm>
-0.832245

>  <RMSD>
6.516

$$$$
ligand
 OpenBabel11021811453D
libRbt.so/2013.1/901 2013/11/27
 13 12  0  0  0  0  0  0  0  0999 V2000
   31.8682   31.9116   44.0901 O   0  0  0  0  0  0  0  0  0  0  0  0
   34.7989   31.7293   43.5167 O   0  0  0  0  0  0  0  0  0  0  0  0
   30.7453   32.1900   48.3158 P   0  0  2  0  0  0  0  0  0  0  0  0
   31.8056   32.8216   49.1539 O   0  5  0  0  0  0  0  0  0  0  0  0
   30.4579   30.7414   48.4771 O   0  0  0  0  0  0  0  0  0  0  0  0
   31.0876   32.4367   46.7863 O   0  0  0  0  0  0  0  0  0  0  0  0
   36.5283   31.0385   45.6473 O   0  0  0  0  0  0  0  0  0  0  0  0
   30.1154   32.1857   45.7613 C   0  0  0  0  0  0  0  0  0  0  0  0
   33.7568   31.4679   42.5420 C   0  0  0  0  0  0  0  0  0  0  0  0
   37.0543   31.2916   44.3524 C   0  0  0  0  0  0  0  0  0  0  0  0
   30.6629   32.6380   44.3969 C   0  0  0  0  0  0  0  0  0  0  0  0
   32.4798   32.2960   42.8273 C   0  0  0  0  0  0  0  0  0  0  0  0
   35.9783   30.9150   43.3184 C   0  0  0  0  0  0  0  0  0  0  0  0
  1 12  1  0  0  0  0
  1 11  1  0  0  0  0
  2 13  1  0  0  0  0
  2  9  1  0  0  0  0
  3  4  1  1  0  0  0
  3  5  2  0  0  0  0
  3  6  1  0  0  0  0
  6  8  1  0  0  0  0
  7 10  1  0  0  0  0
  8 11  1  0  0  0  0
  9 12  1  0  0  0  0
 10 13  1  0  0  0  0
M  CHG  1   4  -1
M  END
>  <CHROM.1>
-179.12810968,177.68784858,-167.11263561,174.45982588,60.01555689,176.80791803
-64.66992593,61.11454435,-178.59658147,32.69511475,31.84766277,45.61590707
0.72059329,0.18448015,-1.53323640

>  <Name>
ligand

>  <RI>
0

>  <Rbt.Current_Directory>
/home/itssahil/PROJECTS/Mol_Feturizer/New_Systems/rnas/2NPY

>  <Rbt.Executable>
rbdock ($Id: //depot/dev/client3/rdock/2013.1/src/exe/rbdock.cxx#4 $)

>  <Rbt.Library>
libRbt.so (2013.1, Build901 2013/11/27)

>  <Rbt.Parameter_File>
/export/apps/rDock/src/rDock_2013.1_src/data/scripts/dock_solv.prm

>  <Rbt.Receptor>
prm/pocket_docking_3.prm

>  <SCORE>
-9.22519

>  <SCORE.INTER>
5.06206

>  <SCORE.INTER.CONST>
1

>  <SCORE.INTER.POLAR>
0

>  <SCORE.INTER.ROT>
9

>  <SCORE.INTER.SOLV>
8.37434

>  <SCORE.INTER.VDW>
-9.01674

>  <SCORE.INTER.norm>
0.389389

>  <SCORE.INTRA>
-14.2991

>  <SCORE.INTRA.DIHEDRAL>
-25.2646

>  <SCORE.INTRA.DIHEDRAL.0>
25.6828

>  <SCORE.INTRA.POLAR>
0

>  <SCORE.INTRA.POLAR.0>
0

>  <SCORE.INTRA.REPUL>
0

>  <SCORE.INTRA.REPUL.0>
0

>  <SCORE.INTRA.SOLV>
-1.10785

>  <SCORE.INTRA.SOLV.lig_0>
-48.5059

>  <SCORE.INTRA.VDW>
-1.1129

>  <SCORE.INTRA.VDW.0>
-0.363643

>  <SCORE.INTRA.norm>
-1.09993

>  <SCORE.RESTR>
0.0118691

>  <SCORE.RESTR.CAVITY>
0.0118691

>  <SCORE.RESTR.norm>
0.000913009

>  <SCORE.SYSTEM>
0

>  <SCORE.SYSTEM.CONST>
0

>  <SCORE.SYSTEM.DIHEDRAL>
0

>  <SCORE.SYSTEM.SOLV>
0

>  <SCORE.SYSTEM.norm>
0

>  <SCORE.heavy>
13

>  <SCORE.norm>
-0.70963

>  <RMSD>
6.526

$$$$
ligand
 OpenBabel11021811453D
libRbt.so/2013.1/901 2013/11/27
 13 12  0  0  0  0  0  0  0  0999 V2000
   32.9438   32.1847   43.5131 O   0  0  0  0  0  0  0  0  0  0  0  0
   35.5932   30.9816   42.5909 O   0  0  0  0  0  0  0  0  0  0  0  0
   32.6891   33.4190   47.6267 P   0  0  2  0  0  0  0  0  0  0  0  0
   32.7028   34.8851   47.3514 O   0  5  0  0  0  0  0  0  0  0  0  0
   33.8024   32.8145   48.4025 O   0  0  0  0  0  0  0  0  0  0  0  0
   32.5965   32.6404   46.2473 O   0  0  0  0  0  0  0  0  0  0  0  0
   36.9715   31.5539   45.9406 O   0  0  0  0  0  0  0  0  0  0  0  0
   31.4913   32.8453   45.3554 C   0  0  0  0  0  0  0  0  0  0  0  0
   34.6045   31.6333   41.7529 C   0  0  0  0  0  0  0  0  0  0  0  0
   36.8564   30.9047   44.6826 C   0  0  0  0  0  0  0  0  0  0  0  0
   31.6520   31.9589   44.1087 C   0  0  0  0  0  0  0  0  0  0  0  0
   33.1671   31.4277   42.2910 C   0  0  0  0  0  0  0  0  0  0  0  0
   35.8141   31.6675   43.8456 C   0  0  0  0  0  0  0  0  0  0  0  0
  1 12  1  0  0  0  0
  1 11  1  0  0  0  0
  2 13  1  0  0  0  0
  2  9  1  0  0  0  0
  3  4  1  6  0  0  0
  3  5  2  0  0  0  0
  3  6  1  0  0  0  0
  6  8  1  0  0  0  0
  7 10  1  0  0  0  0
  8 11  1  0  0  0  0
  9 12  1  0  0  0  0
 10 13  1  0  0  0  0
M  CHG  1   4  -1
M  END
>  <CHROM.1>
-175.96978218,179.14185966,-59.31059748,-179.49908186,-53.44222705,-73.49316552
70.88688054,-175.81631622,-177.59975514,33.82638148,32.33624393,45.16285767
1.08104711,0.28530134,-1.88784132

>  <Name>
ligand

>  <RI>
0

>  <Rbt.Current_Directory>
/home/itssahil/PROJECTS/Mol_Feturizer/New_Systems/rnas/2NPY

>  <Rbt.Executable>
rbdock ($Id: //depot/dev/client3/rdock/2013.1/src/exe/rbdock.cxx#4 $)

>  <Rbt.Library>
libRbt.so (2013.1, Build901 2013/11/27)

>  <Rbt.Parameter_File>
/export/apps/rDock/src/rDock_2013.1_src/data/scripts/dock_solv.prm

>  <Rbt.Receptor>
prm/pocket_docking_3.prm

>  <SCORE>
-7.17852

>  <SCORE.INTER>
5.94219

>  <SCORE.INTER.CONST>
1

>  <SCORE.INTER.POLAR>
0

>  <SCORE.INTER.ROT>
9

>  <SCORE.INTER.SOLV>
4.60448

>  <SCORE.INTER.VDW>
-7.17337

>  <SCORE.INTER.norm>
0.457091

>  <SCORE.INTRA>
-13.1207

>  <SCORE.INTRA.DIHEDRAL>
-23.9938

>  <SCORE.INTRA.DIHEDRAL.0>
25.6828

>  <SCORE.INTRA.POLAR>
0

>  <SCORE.INTRA.POLAR.0>
0

>  <SCORE.INTRA.REPUL>
0

>  <SCORE.INTRA.REPUL.0>
0

>  <SCORE.INTRA.SOLV>
-1.01984

>  <SCORE.INTRA.SOLV.lig_0>
-48.5059

>  <SCORE.INTRA.VDW>
-0.613893

>  <SCORE.INTRA.VDW.0>
-0.363643

>  <SCORE.INTRA.norm>
-1.00929

>  <SCORE.RESTR>
0

>  <SCORE.RESTR.CAVITY>
0

>  <SCORE.RESTR.norm>
0

>  <SCORE.SYSTEM>
0

>  <SCORE.SYSTEM.CONST>
0

>  <SCORE.SYSTEM.DIHEDRAL>
0

>  <SCORE.SYSTEM.SOLV>
0

>  <SCORE.SYSTEM.norm>
0

>  <SCORE.heavy>
13

>  <SCORE.norm>
-0.552194

>  <RMSD>
6.529

$$$$
ligand
 OpenBabel11021811453D
libRbt.so/2013.1/901 2013/11/27
 13 12  0  0  0  0  0  0  0  0999 V2000
   37.1049   30.3679   45.9185 O   0  0  0  0  0  0  0  0  0  0  0  0
   35.7985   31.3062   48.3380 O   0  0  0  0  0  0  0  0  0  0  0  0
   34.6364   31.1520   42.3890 P   0  0  2  0  0  0  0  0  0  0  0  0
   33.9767   29.8141   42.4055 O   0  5  0  0  0  0  0  0  0  0  0  0
   35.2647   31.6374   41.1334 O   0  0  0  0  0  0  0  0  0  0  0  0
   35.7493   31.1876   43.5193 O   0  0  0  0  0  0  0  0  0  0  0  0
   33.9282   33.2746   49.0023 O   0  0  0  0  0  0  0  0  0  0  0  0
   36.8565   30.2752   43.4957 C   0  0  0  0  0  0  0  0  0  0  0  0
   37.0529   30.5795   48.3909 C   0  0  0  0  0  0  0  0  0  0  0  0
   33.6884   31.9329   49.4017 C   0  0  0  0  0  0  0  0  0  0  0  0
   37.8016   30.5667   44.6737 C   0  0  0  0  0  0  0  0  0  0  0  0
   37.8753   30.7540   47.0905 C   0  0  0  0  0  0  0  0  0  0  0  0
   35.0497   31.2357   49.5741 C   0  0  0  0  0  0  0  0  0  0  0  0
  1 12  1  0  0  0  0
  1 11  1  0  0  0  0
  2 13  1  0  0  0  0
  2  9  1  0  0  0  0
  3  4  1  6  0  0  0
  3  5  2  0  0  0  0
  3  6  1  0  0  0  0
  6  8  1  0  0  0  0
  7 10  1  0  0  0  0
  8 11  1  0  0  0  0
  9 12  1  0  0  0  0
 10 13  1  0  0  0  0
M  CHG  1   4  -1
M  END
>  <CHROM.1>
177.37591943,-175.52386426,60.86007849,177.89429236,62.00837231,-176.06271763
-55.41467381,-57.60410122,-173.93021939,35.63778448,31.09903615,45.47985177
-1.55892117,0.36365591,-1.69103059

>  <Name>
ligand

>  <RI>
0

>  <Rbt.Current_Directory>
/home/itssahil/PROJECTS/Mol_Feturizer/New_Systems/rnas/2NPY

>  <Rbt.Executable>
rbdock ($Id: //depot/dev/client3/rdock/2013.1/src/exe/rbdock.cxx#4 $)

>  <Rbt.Library>
libRbt.so (2013.1, Build901 2013/11/27)

>  <Rbt.Parameter_File>
/export/apps/rDock/src/rDock_2013.1_src/data/scripts/dock_solv.prm

>  <Rbt.Receptor>
prm/pocket_docking_7.prm

>  <SCORE>
-11.4225

>  <SCORE.INTER>
2.58644

>  <SCORE.INTER.CONST>
1

>  <SCORE.INTER.POLAR>
0

>  <SCORE.INTER.ROT>
9

>  <SCORE.INTER.SOLV>
11.024

>  <SCORE.INTER.VDW>
-11.5504

>  <SCORE.INTER.norm>
0.198957

>  <SCORE.INTRA>
-14.009

>  <SCORE.INTRA.DIHEDRAL>
-25.1068

>  <SCORE.INTRA.DIHEDRAL.0>
25.6828

>  <SCORE.INTRA.POLAR>
0

>  <SCORE.INTRA.POLAR.0>
0

>  <SCORE.INTRA.REPUL>
0

>  <SCORE.INTRA.REPUL.0>
0

>  <SCORE.INTRA.SOLV>
-0.603393

>  <SCORE.INTRA.SOLV.lig_0>
-48.5059

>  <SCORE.INTRA.VDW>
-1.15383

>  <SCORE.INTRA.VDW.0>
-0.363643

>  <SCORE.INTRA.norm>
-1.07761

>  <SCORE.RESTR>
0

>  <SCORE.RESTR.CAVITY>
0

>  <SCORE.RESTR.norm>
0

>  <SCORE.SYSTEM>
0

>  <SCORE.SYSTEM.CONST>
0

>  <SCORE.SYSTEM.DIHEDRAL>
0

>  <SCORE.SYSTEM.SOLV>
0

>  <SCORE.SYSTEM.norm>
0

>  <SCORE.heavy>
13

>  <SCORE.norm>
-0.878655

>  <RMSD>
6.530

$$$$
ligand
 OpenBabel11021811453D
libRbt.so/2013.1/901 2013/11/27
 13 12  0  0  0  0  0  0  0  0999 V2000
   29.4396   35.2551   44.6575 O   0  0  0  0  0  0  0  0  0  0  0  0
   29.7705   32.6211   45.9497 O   0  0  0  0  0  0  0  0  0  0  0  0
   28.9960   38.6496   47.3379 P   0  0  2  0  0  0  0  0  0  0  0  0
   28.0738   39.7760   47.0118 O   0  5  0  0  0  0  0  0  0  0  0  0
   30.4600   38.8979   47.3812 O   0  0  0  0  0  0  0  0  0  0  0  0
   28.7467   37.4696   46.3071 O   0  0  0  0  0  0  0  0  0  0  0  0
   30.3801   32.6283   48.7160 O   0  0  0  0  0  0  0  0  0  0  0  0
   29.0132   37.6416   44.9077 C   0  0  0  0  0  0  0  0  0  0  0  0
   30.0775   32.8587   44.5520 C   0  0  0  0  0  0  0  0  0  0  0  0
   30.2104   31.4007   48.0219 C   0  0  0  0  0  0  0  0  0  0  0  0
   28.6617   36.3533   44.1444 C   0  0  0  0  0  0  0  0  0  0  0  0
   29.2148   33.9993   43.9582 C   0  0  0  0  0  0  0  0  0  0  0  0
   30.6226   31.6207   46.5554 C   0  0  0  0  0  0  0  0  0  0  0  0
  1 12  1  0  0  0  0
  1 11  1  0  0  0  0
  2 13  1  0  0  0  0
  2  9  1  0  0  0  0
  3  4  1  6  0  0  0
  3  5  2  0  0  0  0
  3  6  1  0  0  0  0
  6  8  1  0  0  0  0
  7 10  1  0  0  0  0
  8 11  1  0  0  0  0
  9 12  1  0  0  0  0
 10 13  1  0  0  0  0
M  CHG  1   4  -1
M  END
>  <CHROM.1>
179.94291883,-178.51054813,64.04487360,-179.05173587,-59.12104392,-176.15963683
60.53040148,-61.39748215,-177.63537550,29.46941311,35.63221930,46.24470563
0.82004661,1.30437347,-2.37726348

>  <Name>
ligand

>  <RI>
0

>  <Rbt.Current_Directory>
/home/itssahil/PROJECTS/Mol_Feturizer/New_Systems/rnas/2NPY

>  <Rbt.Executable>
rbdock ($Id: //depot/dev/client3/rdock/2013.1/src/exe/rbdock.cxx#4 $)

>  <Rbt.Library>
libRbt.so (2013.1, Build901 2013/11/27)

>  <Rbt.Parameter_File>
/export/apps/rDock/src/rDock_2013.1_src/data/scripts/dock_solv.prm

>  <Rbt.Receptor>
prm/pocket_docking_3.prm

>  <SCORE>
-6.77979

>  <SCORE.INTER>
7.40798

>  <SCORE.INTER.CONST>
1

>  <SCORE.INTER.POLAR>
0

>  <SCORE.INTER.ROT>
9

>  <SCORE.INTER.SOLV>
6.08758

>  <SCORE.INTER.VDW>
-6.69054

>  <SCORE.INTER.norm>
0.569845

>  <SCORE.INTRA>
-14.1878

>  <SCORE.INTRA.DIHEDRAL>
-25.5252

>  <SCORE.INTRA.DIHEDRAL.0>
25.6828

>  <SCORE.INTRA.POLAR>
0

>  <SCORE.INTRA.POLAR.0>
0

>  <SCORE.INTRA.REPUL>
0

>  <SCORE.INTRA.REPUL.0>
0

>  <SCORE.INTRA.SOLV>
-0.59612

>  <SCORE.INTRA.SOLV.lig_0>
-48.5059

>  <SCORE.INTRA.VDW>
-1.12712

>  <SCORE.INTRA.VDW.0>
-0.363643

>  <SCORE.INTRA.norm>
-1.09137

>  <SCORE.RESTR>
0

>  <SCORE.RESTR.CAVITY>
0

>  <SCORE.RESTR.norm>
0

>  <SCORE.SYSTEM>
0

>  <SCORE.SYSTEM.CONST>
0

>  <SCORE.SYSTEM.DIHEDRAL>
0

>  <SCORE.SYSTEM.SOLV>
0

>  <SCORE.SYSTEM.norm>
0

>  <SCORE.heavy>
13

>  <SCORE.norm>
-0.521522

>  <RMSD>
6.536

$$$$
ligand
 OpenBabel11021811453D
libRbt.so/2013.1/901 2013/11/27
 13 12  0  0  0  0  0  0  0  0999 V2000
   31.1927   31.2167   49.1869 O   0  0  0  0  0  0  0  0  0  0  0  0
   34.0372   31.6013   49.0505 O   0  0  0  0  0  0  0  0  0  0  0  0
   29.1432   32.5954   45.6212 P   0  0  2  0  0  0  0  0  0  0  0  0
   27.7614   32.1328   45.3017 O   0  5  0  0  0  0  0  0  0  0  0  0
   30.1416   32.7129   44.5275 O   0  0  0  0  0  0  0  0  0  0  0  0
   29.7610   31.6372   46.7247 O   0  0  0  0  0  0  0  0  0  0  0  0
   36.5228   30.3113   48.4349 O   0  0  0  0  0  0  0  0  0  0  0  0
   29.0888   31.4172   47.9731 C   0  0  0  0  0  0  0  0  0  0  0  0
   33.4106   31.2172   50.3011 C   0  0  0  0  0  0  0  0  0  0  0  0
   36.3868   31.1626   49.5638 C   0  0  0  0  0  0  0  0  0  0  0  0
   29.9575   30.5384   48.8890 C   0  0  0  0  0  0  0  0  0  0  0  0
   32.0743   30.4694   50.0705 C   0  0  0  0  0  0  0  0  0  0  0  0
   35.3280   32.2293   49.2323 C   0  0  0  0  0  0  0  0  0  0  0  0
  1 12  1  0  0  0  0
  1 11  1  0  0  0  0
  2 13  1  0  0  0  0
  2  9  1  0  0  0  0
  3  4  1  6  0  0  0
  3  5  2  0  0  0  0
  3  6  1  0  0  0  0
  6  8  1  0  0  0  0
  7 10  1  0  0  0  0
  8 11  1  0  0  0  0
  9 12  1  0  0  0  0
 10 13  1  0  0  0  0
M  CHG  1   4  -1
M  END
>  <CHROM.1>
177.34406823,76.27200303,-55.34746286,-175.67214149,62.42752754,-176.42573261
-51.83270295,64.85087821,178.98063268,31.66721581,31.57647714,47.82272969
0.53383557,0.04059804,1.93431966

>  <Name>
ligand

>  <RI>
0

>  <Rbt.Current_Directory>
/home/itssahil/PROJECTS/Mol_Feturizer/New_Systems/rnas/2NPY

>  <Rbt.Executable>
rbdock ($Id: //depot/dev/client3/rdock/2013.1/src/exe/rbdock.cxx#4 $)

>  <Rbt.Library>
libRbt.so (2013.1, Build901 2013/11/27)

>  <Rbt.Parameter_File>
/export/apps/rDock/src/rDock_2013.1_src/data/scripts/dock_solv.prm

>  <Rbt.Receptor>
prm/pocket_docking_5.prm

>  <SCORE>
-10.4971

>  <SCORE.INTER>
2.37396

>  <SCORE.INTER.CONST>
1

>  <SCORE.INTER.POLAR>
0

>  <SCORE.INTER.ROT>
9

>  <SCORE.INTER.SOLV>
10.0631

>  <SCORE.INTER.VDW>
-11.3717

>  <SCORE.INTER.norm>
0.182612

>  <SCORE.INTRA>
-12.8711

>  <SCORE.INTRA.DIHEDRAL>
-23.8695

>  <SCORE.INTRA.DIHEDRAL.0>
25.6828

>  <SCORE.INTRA.POLAR>
0

>  <SCORE.INTRA.POLAR.0>
0

>  <SCORE.INTRA.REPUL>
0

>  <SCORE.INTRA.REPUL.0>
0

>  <SCORE.INTRA.SOLV>
-0.931897

>  <SCORE.INTRA.SOLV.lig_0>
-48.5059

>  <SCORE.INTRA.VDW>
-0.470355

>  <SCORE.INTRA.VDW.0>
-0.363643

>  <SCORE.INTRA.norm>
-0.990081

>  <SCORE.RESTR>
0

>  <SCORE.RESTR.CAVITY>
0

>  <SCORE.RESTR.norm>
0

>  <SCORE.SYSTEM>
0

>  <SCORE.SYSTEM.CONST>
0

>  <SCORE.SYSTEM.DIHEDRAL>
0

>  <SCORE.SYSTEM.SOLV>
0

>  <SCORE.SYSTEM.norm>
0

>  <SCORE.heavy>
13

>  <SCORE.norm>
-0.807469

>  <RMSD>
6.565

$$$$
ligand
 OpenBabel11021811453D
libRbt.so/2013.1/901 2013/11/27
 13 12  0  0  0  0  0  0  0  0999 V2000
   37.1970   30.6770   46.5340 O   0  0  0  0  0  0  0  0  0  0  0  0
   35.5172   30.8509   48.9734 O   0  0  0  0  0  0  0  0  0  0  0  0
   35.2701   30.6830   42.5809 P   0  0  2  0  0  0  0  0  0  0  0  0
   35.9789   30.1304   41.3902 O   0  5  0  0  0  0  0  0  0  0  0  0
   35.0685   32.1507   42.6906 O   0  0  0  0  0  0  0  0  0  0  0  0
   36.0280   30.2105   43.8923 O   0  0  0  0  0  0  0  0  0  0  0  0
   32.6315   32.0877   50.8708 O   0  0  0  0  0  0  0  0  0  0  0  0
   37.4069   30.5426   44.1096 C   0  0  0  0  0  0  0  0  0  0  0  0
   36.9424   31.1211   48.9627 C   0  0  0  0  0  0  0  0  0  0  0  0
   33.2993   31.2915   49.9026 C   0  0  0  0  0  0  0  0  0  0  0  0
   37.8730   29.9867   45.4659 C   0  0  0  0  0  0  0  0  0  0  0  0
   37.6735   30.3160   47.8603 C   0  0  0  0  0  0  0  0  0  0  0  0
   34.8005   31.6253   49.9634 C   0  0  0  0  0  0  0  0  0  0  0  0
  1 12  1  0  0  0  0
  1 11  1  0  0  0  0
  2 13  1  0  0  0  0
  2  9  1  0  0  0  0
  3  4  1  6  0  0  0
  3  5  2  0  0  0  0
  3  6  1  0  0  0  0
  6  8  1  0  0  0  0
  7 10  1  0  0  0  0
  8 11  1  0  0  0  0
  9 12  1  0  0  0  0
 10 13  1  0  0  0  0
M  CHG  1   4  -1
M  END
>  <CHROM.1>
178.20090005,179.49658386,59.14763444,178.76876413,-67.16778172,-177.96228664
62.05585004,-178.98330961,-173.99771430,35.75430630,30.88742445,46.05540450
-1.77417878,0.30162278,-1.61616259

>  <Name>
ligand

>  <RI>
0

>  <Rbt.Current_Directory>
/home/itssahil/PROJECTS/Mol_Feturizer/New_Systems/rnas/2NPY

>  <Rbt.Executable>
rbdock ($Id: //depot/dev/client3/rdock/2013.1/src/exe/rbdock.cxx#4 $)

>  <Rbt.Library>
libRbt.so (2013.1, Build901 2013/11/27)

>  <Rbt.Parameter_File>
/export/apps/rDock/src/rDock_2013.1_src/data/scripts/dock_solv.prm

>  <Rbt.Receptor>
prm/pocket_docking_6.prm

>  <SCORE>
-13.5633

>  <SCORE.INTER>
0.518217

>  <SCORE.INTER.CONST>
1

>  <SCORE.INTER.POLAR>
0

>  <SCORE.INTER.ROT>
9

>  <SCORE.INTER.SOLV>
9.84491

>  <SCORE.INTER.VDW>
-12.5362

>  <SCORE.INTER.norm>
0.0398629

>  <SCORE.INTRA>
-14.0815

>  <SCORE.INTRA.DIHEDRAL>
-25.1816

>  <SCORE.INTRA.DIHEDRAL.0>
25.6828

>  <SCORE.INTRA.POLAR>
0

>  <SCORE.INTRA.POLAR.0>
0

>  <SCORE.INTRA.REPUL>
0

>  <SCORE.INTRA.REPUL.0>
0

>  <SCORE.INTRA.SOLV>
-0.895269

>  <SCORE.INTRA.SOLV.lig_0>
-48.5059

>  <SCORE.INTRA.VDW>
-1.04307

>  <SCORE.INTRA.VDW.0>
-0.363643

>  <SCORE.INTRA.norm>
-1.08319

>  <SCORE.RESTR>
0

>  <SCORE.RESTR.CAVITY>
0

>  <SCORE.RESTR.norm>
0

>  <SCORE.SYSTEM>
0

>  <SCORE.SYSTEM.CONST>
0

>  <SCORE.SYSTEM.DIHEDRAL>
0

>  <SCORE.SYSTEM.SOLV>
0

>  <SCORE.SYSTEM.norm>
0

>  <SCORE.heavy>
13

>  <SCORE.norm>
-1.04333

>  <RMSD>
6.567

$$$$
ligand
 OpenBabel11021811453D
libRbt.so/2013.1/901 2013/11/27
 13 12  0  0  0  0  0  0  0  0999 V2000
   35.7217   31.2349   50.2051 O   0  0  0  0  0  0  0  0  0  0  0  0
   32.8654   30.6413   50.8190 O   0  0  0  0  0  0  0  0  0  0  0  0
   38.1028   29.8594   45.9540 P   0  0  2  0  0  0  0  0  0  0  0  0
   39.4781   30.0385   46.5035 O   0  5  0  0  0  0  0  0  0  0  0  0
   37.8459   30.1659   44.5233 O   0  0  0  0  0  0  0  0  0  0  0  0
   37.0914   30.7291   46.8131 O   0  0  0  0  0  0  0  0  0  0  0  0
   31.8403   28.0424   50.3514 O   0  0  0  0  0  0  0  0  0  0  0  0
   36.9433   30.5124   48.2238 C   0  0  0  0  0  0  0  0  0  0  0  0
   33.3537   31.9472   50.4183 C   0  0  0  0  0  0  0  0  0  0  0  0
   31.0268   29.0360   50.9584 C   0  0  0  0  0  0  0  0  0  0  0  0
   35.8800   31.4673   48.7925 C   0  0  0  0  0  0  0  0  0  0  0  0
   34.8214   32.1733   50.8571 C   0  0  0  0  0  0  0  0  0  0  0  0
   31.4876   30.4108   50.4421 C   0  0  0  0  0  0  0  0  0  0  0  0
  1 12  1  0  0  0  0
  1 11  1  0  0  0  0
  2 13  1  0  0  0  0
  2  9  1  0  0  0  0
  3  4  1  1  0  0  0
  3  5  2  0  0  0  0
  3  6  1  0  0  0  0
  6  8  1  0  0  0  0
  7 10  1  0  0  0  0
  8 11  1  0  0  0  0
  9 12  1  0  0  0  0
 10 13  1  0  0  0  0
M  CHG  1   4  -1
M  END
>  <CHROM.1>
69.55387119,-177.37130798,-59.23697208,-178.70431472,179.25710798,179.00135181
63.56335566,-61.40381791,174.80242572,35.39120207,30.41246263,48.56873892
-2.69894207,-0.51949521,-2.36102330

>  <Name>
ligand

>  <RI>
0

>  <Rbt.Current_Directory>
/home/itssahil/PROJECTS/Mol_Feturizer/New_Systems/rnas/2NPY

>  <Rbt.Executable>
rbdock ($Id: //depot/dev/client3/rdock/2013.1/src/exe/rbdock.cxx#4 $)

>  <Rbt.Library>
libRbt.so (2013.1, Build901 2013/11/27)

>  <Rbt.Parameter_File>
/export/apps/rDock/src/rDock_2013.1_src/data/scripts/dock_solv.prm

>  <Rbt.Receptor>
prm/pocket_docking_7.prm

>  <SCORE>
-13.3979

>  <SCORE.INTER>
-0.093129

>  <SCORE.INTER.CONST>
1

>  <SCORE.INTER.POLAR>
0

>  <SCORE.INTER.ROT>
9

>  <SCORE.INTER.SOLV>
14.1373

>  <SCORE.INTER.VDW>
-14.3745

>  <SCORE.INTER.norm>
-0.00716377

>  <SCORE.INTRA>
-13.3048

>  <SCORE.INTRA.DIHEDRAL>
-24.9545

>  <SCORE.INTRA.DIHEDRAL.0>
25.6828

>  <SCORE.INTRA.POLAR>
0

>  <SCORE.INTRA.POLAR.0>
0

>  <SCORE.INTRA.REPUL>
0

>  <SCORE.INTRA.REPUL.0>
0

>  <SCORE.INTRA.SOLV>
-1.13552

>  <SCORE.INTRA.SOLV.lig_0>
-48.5059

>  <SCORE.INTRA.VDW>
-0.259767

>  <SCORE.INTRA.VDW.0>
-0.363643

>  <SCORE.INTRA.norm>
-1.02344

>  <SCORE.RESTR>
0

>  <SCORE.RESTR.CAVITY>
0

>  <SCORE.RESTR.norm>
0

>  <SCORE.SYSTEM>
0

>  <SCORE.SYSTEM.CONST>
0

>  <SCORE.SYSTEM.DIHEDRAL>
0

>  <SCORE.SYSTEM.SOLV>
0

>  <SCORE.SYSTEM.norm>
0

>  <SCORE.heavy>
13

>  <SCORE.norm>
-1.03061

>  <RMSD>
6.569

$$$$
ligand
 OpenBabel11021811453D
libRbt.so/2013.1/901 2013/11/27
 13 12  0  0  0  0  0  0  0  0999 V2000
   36.6278   31.1112   50.8337 O   0  0  0  0  0  0  0  0  0  0  0  0
   35.2821   34.1293   52.6332 O   0  0  0  0  0  0  0  0  0  0  0  0
   37.6139   30.1761   45.9566 P   0  0  2  0  0  0  0  0  0  0  0  0
   39.0558   30.4996   46.1609 O   0  5  0  0  0  0  0  0  0  0  0  0
   36.9471   30.5920   44.6959 O   0  0  0  0  0  0  0  0  0  0  0  0
   36.7773   30.7874   47.1581 O   0  0  0  0  0  0  0  0  0  0  0  0
   33.2387   35.9320   53.3362 O   0  0  0  0  0  0  0  0  0  0  0  0
   37.1801   30.5814   48.5198 C   0  0  0  0  0  0  0  0  0  0  0  0
   36.0813   33.3782   51.6837 C   0  0  0  0  0  0  0  0  0  0  0  0
   34.5958   36.2818   53.5670 C   0  0  0  0  0  0  0  0  0  0  0  0
   36.2052   31.2979   49.4695 C   0  0  0  0  0  0  0  0  0  0  0  0
   35.8344   31.8540   51.8008 C   0  0  0  0  0  0  0  0  0  0  0  0
   35.4597   35.5605   52.5171 C   0  0  0  0  0  0  0  0  0  0  0  0
  1 12  1  0  0  0  0
  1 11  1  0  0  0  0
  2 13  1  0  0  0  0
  2  9  1  0  0  0  0
  3  4  1  6  0  0  0
  3  5  2  0  0  0  0
  3  6  1  0  0  0  0
  6  8  1  0  0  0  0
  7 10  1  0  0  0  0
  8 11  1  0  0  0  0
  9 12  1  0  0  0  0
 10 13  1  0  0  0  0
M  CHG  1   4  -1
M  END
>  <CHROM.1>
-69.38914307,-179.24127617,-48.61479620,179.18715720,-178.85613910,-178.10155376
179.29011640,-59.53701715,174.76537745,36.34017942,32.27410470,49.51623355
-2.39022035,1.10242813,-1.41151377

>  <Name>
ligand

>  <RI>
0

>  <Rbt.Current_Directory>
/home/itssahil/PROJECTS/Mol_Feturizer/New_Systems/rnas/2NPY

>  <Rbt.Executable>
rbdock ($Id: //depot/dev/client3/rdock/2013.1/src/exe/rbdock.cxx#4 $)

>  <Rbt.Library>
libRbt.so (2013.1, Build901 2013/11/27)

>  <Rbt.Parameter_File>
/export/apps/rDock/src/rDock_2013.1_src/data/scripts/dock_solv.prm

>  <Rbt.Receptor>
prm/pocket_docking_8.prm

>  <SCORE>
-9.84533

>  <SCORE.INTER>
3.29449

>  <SCORE.INTER.CONST>
1

>  <SCORE.INTER.POLAR>
0

>  <SCORE.INTER.ROT>
9

>  <SCORE.INTER.SOLV>
11.3299

>  <SCORE.INTER.VDW>
-11.1803

>  <SCORE.INTER.norm>
0.253423

>  <SCORE.INTRA>
-13.1453

>  <SCORE.INTRA.DIHEDRAL>
-25.0211

>  <SCORE.INTRA.DIHEDRAL.0>
25.6828

>  <SCORE.INTRA.POLAR>
0

>  <SCORE.INTRA.POLAR.0>
0

>  <SCORE.INTRA.REPUL>
0

>  <SCORE.INTRA.REPUL.0>
0

>  <SCORE.INTRA.SOLV>
-1.24854

>  <SCORE.INTRA.SOLV.lig_0>
-48.5059

>  <SCORE.INTRA.VDW>
-0.0105031

>  <SCORE.INTRA.VDW.0>
-0.363643

>  <SCORE.INTRA.norm>
-1.01118

>  <SCORE.RESTR>
0.00547291

>  <SCORE.RESTR.CAVITY>
0.00547291

>  <SCORE.RESTR.norm>
0.000420993

>  <SCORE.SYSTEM>
0

>  <SCORE.SYSTEM.CONST>
0

>  <SCORE.SYSTEM.DIHEDRAL>
0

>  <SCORE.SYSTEM.SOLV>
0

>  <SCORE.SYSTEM.norm>
0

>  <SCORE.heavy>
13

>  <SCORE.norm>
-0.757333

>  <RMSD>
6.585

$$$$
ligand
 OpenBabel11021811453D
libRbt.so/2013.1/901 2013/11/27
 13 12  0  0  0  0  0  0  0  0999 V2000
   36.7786   30.9755   47.0291 O   0  0  0  0  0  0  0  0  0  0  0  0
   34.9776   31.0540   49.3091 O   0  0  0  0  0  0  0  0  0  0  0  0
   37.3254   30.6191   42.0084 P   0  0  2  0  0  0  0  0  0  0  0  0
   38.0941   31.8707   41.7475 O   0  5  0  0  0  0  0  0  0  0  0  0
   35.8588   30.6041   41.7726 O   0  0  0  0  0  0  0  0  0  0  0  0
   37.5673   30.1743   43.5121 O   0  0  0  0  0  0  0  0  0  0  0  0
   32.4086   30.1370   50.0785 O   0  0  0  0  0  0  0  0  0  0  0  0
   36.9612   30.8864   44.6004 C   0  0  0  0  0  0  0  0  0  0  0  0
   36.4088   31.2270   49.4705 C   0  0  0  0  0  0  0  0  0  0  0  0
   32.7036   31.5264   50.0723 C   0  0  0  0  0  0  0  0  0  0  0  0
   37.4381   30.3013   45.9406 C   0  0  0  0  0  0  0  0  0  0  0  0
   37.2051   30.5231   48.3443 C   0  0  0  0  0  0  0  0  0  0  0  0
   34.2075   31.6961   50.3523 C   0  0  0  0  0  0  0  0  0  0  0  0
  1 12  1  0  0  0  0
  1 11  1  0  0  0  0
  2 13  1  0  0  0  0
  2  9  1  0  0  0  0
  3  4  1  1  0  0  0
  3  5  2  0  0  0  0
  3  6  1  0  0  0  0
  6  8  1  0  0  0  0
  7 10  1  0  0  0  0
  8 11  1  0  0  0  0
  9 12  1  0  0  0  0
 10 13  1  0  0  0  0
M  CHG  1   4  -1
M  END
>  <CHROM.1>
-176.91545783,177.21904608,73.36786102,-176.24596255,-177.23801779,179.70047670
55.54648197,61.55564977,-177.78983762,36.09909372,30.86499016,46.07017147
-1.97038549,-0.02373095,-1.60824233

>  <Name>
ligand

>  <RI>
0

>  <Rbt.Current_Directory>
/home/itssahil/PROJECTS/Mol_Feturizer/New_Systems/rnas/2NPY

>  <Rbt.Executable>
rbdock ($Id: //depot/dev/client3/rdock/2013.1/src/exe/rbdock.cxx#4 $)

>  <Rbt.Library>
libRbt.so (2013.1, Build901 2013/11/27)

>  <Rbt.Parameter_File>
/export/apps/rDock/src/rDock_2013.1_src/data/scripts/dock_solv.prm

>  <Rbt.Receptor>
prm/pocket_docking_8.prm

>  <SCORE>
-13.0009

>  <SCORE.INTER>
0.997468

>  <SCORE.INTER.CONST>
1

>  <SCORE.INTER.POLAR>
0

>  <SCORE.INTER.ROT>
9

>  <SCORE.INTER.SOLV>
8.0388

>  <SCORE.INTER.VDW>
-11.6146

>  <SCORE.INTER.norm>
0.0767283

>  <SCORE.INTRA>
-13.9984

>  <SCORE.INTRA.DIHEDRAL>
-25.2925

>  <SCORE.INTRA.DIHEDRAL.0>
25.6828

>  <SCORE.INTRA.POLAR>
0

>  <SCORE.INTRA.POLAR.0>
0

>  <SCORE.INTRA.REPUL>
0

>  <SCORE.INTRA.REPUL.0>
0

>  <SCORE.INTRA.SOLV>
-0.720068

>  <SCORE.INTRA.SOLV.lig_0>
-48.5059

>  <SCORE.INTRA.VDW>
-0.992096

>  <SCORE.INTRA.VDW.0>
-0.363643

>  <SCORE.INTRA.norm>
-1.0768

>  <SCORE.RESTR>
0

>  <SCORE.RESTR.CAVITY>
0

>  <SCORE.RESTR.norm>
0

>  <SCORE.SYSTEM>
0

>  <SCORE.SYSTEM.CONST>
0

>  <SCORE.SYSTEM.DIHEDRAL>
0

>  <SCORE.SYSTEM.SOLV>
0

>  <SCORE.SYSTEM.norm>
0

>  <SCORE.heavy>
13

>  <SCORE.norm>
-1.00007

>  <RMSD>
6.586

$$$$
ligand
 OpenBabel11021811453D
libRbt.so/2013.1/901 2013/11/27
 13 12  0  0  0  0  0  0  0  0999 V2000
   36.5577   30.8471   47.5665 O   0  0  0  0  0  0  0  0  0  0  0  0
   34.4383   30.8638   49.6210 O   0  0  0  0  0  0  0  0  0  0  0  0
   38.3966   30.2315   42.8965 P   0  0  2  0  0  0  0  0  0  0  0  0
   39.5077   29.4267   42.3106 O   0  5  0  0  0  0  0  0  0  0  0  0
   38.3487   31.6951   42.6463 O   0  0  0  0  0  0  0  0  0  0  0  0
   38.3856   30.0198   44.4689 O   0  0  0  0  0  0  0  0  0  0  0  0
   31.0424   31.3315   50.9275 O   0  0  0  0  0  0  0  0  0  0  0  0
   37.2911   30.4877   45.2702 C   0  0  0  0  0  0  0  0  0  0  0  0
   35.7172   31.5240   49.8017 C   0  0  0  0  0  0  0  0  0  0  0  0
   32.0649   30.6883   50.1804 C   0  0  0  0  0  0  0  0  0  0  0  0
   37.5976   30.2613   46.7604 C   0  0  0  0  0  0  0  0  0  0  0  0
   36.8423   30.8324   48.9931 C   0  0  0  0  0  0  0  0  0  0  0  0
   33.3700   31.4798   50.3778 C   0  0  0  0  0  0  0  0  0  0  0  0
  1 12  1  0  0  0  0
  1 11  1  0  0  0  0
  2 13  1  0  0  0  0
  2  9  1  0  0  0  0
  3  4  1  1  0  0  0
  3  5  2  0  0  0  0
  3  6  1  0  0  0  0
  6  8  1  0  0  0  0
  7 10  1  0  0  0  0
  8 11  1  0  0  0  0
  9 12  1  0  0  0  0
 10 13  1  0  0  0  0
M  CHG  1   4  -1
M  END
>  <CHROM.1>
177.74764883,-177.59191343,-169.31914431,-175.06348638,174.49482793,179.32615261
60.45208343,-179.45445430,-172.67516498,36.31732231,30.70138162,46.68349112
-2.22911615,0.08107985,-1.62764285

>  <Name>
ligand

>  <RI>
0

>  <Rbt.Current_Directory>
/home/itssahil/PROJECTS/Mol_Feturizer/New_Systems/rnas/2NPY

>  <Rbt.Executable>
rbdock ($Id: //depot/dev/client3/rdock/2013.1/src/exe/rbdock.cxx#4 $)

>  <Rbt.Library>
libRbt.so (2013.1, Build901 2013/11/27)

>  <Rbt.Parameter_File>
/export/apps/rDock/src/rDock_2013.1_src/data/scripts/dock_solv.prm

>  <Rbt.Receptor>
prm/pocket_docking_6.prm

>  <SCORE>
-12.998

>  <SCORE.INTER>
1.13202

>  <SCORE.INTER.CONST>
1

>  <SCORE.INTER.POLAR>
0

>  <SCORE.INTER.ROT>
9

>  <SCORE.INTER.SOLV>
9.87728

>  <SCORE.INTER.VDW>
-12.1377

>  <SCORE.INTER.norm>
0.0870785

>  <SCORE.INTRA>
-14.13

>  <SCORE.INTRA.DIHEDRAL>
-25.0691

>  <SCORE.INTRA.DIHEDRAL.0>
25.6828

>  <SCORE.INTRA.POLAR>
0

>  <SCORE.INTRA.POLAR.0>
0

>  <SCORE.INTRA.REPUL>
0

>  <SCORE.INTRA.REPUL.0>
0

>  <SCORE.INTRA.SOLV>
-1.41653

>  <SCORE.INTRA.SOLV.lig_0>
-48.5059

>  <SCORE.INTRA.VDW>
-0.887215

>  <SCORE.INTRA.VDW.0>
-0.363643

>  <SCORE.INTRA.norm>
-1.08693

>  <SCORE.RESTR>
0

>  <SCORE.RESTR.CAVITY>
0

>  <SCORE.RESTR.norm>
0

>  <SCORE.SYSTEM>
0

>  <SCORE.SYSTEM.CONST>
0

>  <SCORE.SYSTEM.DIHEDRAL>
0

>  <SCORE.SYSTEM.SOLV>
0

>  <SCORE.SYSTEM.norm>
0

>  <SCORE.heavy>
13

>  <SCORE.norm>
-0.999848

>  <RMSD>
6.590

$$$$
ligand
 OpenBabel11021811453D
libRbt.so/2013.1/901 2013/11/27
 13 12  0  0  0  0  0  0  0  0999 V2000
   30.5391   31.8601   45.9832 O   0  0  0  0  0  0  0  0  0  0  0  0
   32.3686   32.0776   42.7216 O   0  0  0  0  0  0  0  0  0  0  0  0
   29.9701   32.4737   50.2094 P   0  0  2  0  0  0  0  0  0  0  0  0
   30.5200   33.7845   50.6619 O   0  5  0  0  0  0  0  0  0  0  0  0
   30.6891   31.2227   50.5628 O   0  0  0  0  0  0  0  0  0  0  0  0
   29.8164   32.5010   48.6305 O   0  0  0  0  0  0  0  0  0  0  0  0
   33.5152   30.7268   40.5107 O   0  0  0  0  0  0  0  0  0  0  0  0
   29.1402   31.4437   47.9351 C   0  0  0  0  0  0  0  0  0  0  0  0
   32.1556   32.2660   44.1440 C   0  0  0  0  0  0  0  0  0  0  0  0
   33.8860   32.0660   40.8048 C   0  0  0  0  0  0  0  0  0  0  0  0
   29.1753   31.7058   46.4198 C   0  0  0  0  0  0  0  0  0  0  0  0
   30.6804   32.0175   44.5439 C   0  0  0  0  0  0  0  0  0  0  0  0
   33.7450   32.2778   42.3228 C   0  0  0  0  0  0  0  0  0  0  0  0
  1 12  1  0  0  0  0
  1 11  1  0  0  0  0
  2 13  1  0  0  0  0
  2  9  1  0  0  0  0
  3  4  1  6  0  0  0
  3  5  2  0  0  0  0
  3  6  1  0  0  0  0
  6  8  1  0  0  0  0
  7 10  1  0  0  0  0
  8 11  1  0  0  0  0
  9 12  1  0  0  0  0
 10 13  1  0  0  0  0
M  CHG  1   4  -1
M  END
>  <CHROM.1>
176.48789494,-179.77712304,-171.38513993,-178.34236995,56.07325995,-178.85845507
164.96439798,-61.46117390,175.84733129,31.14350644,32.06776371,46.19718513
1.96545267,0.37419012,1.33980859

>  <Name>
ligand

>  <RI>
0

>  <Rbt.Current_Directory>
/home/itssahil/PROJECTS/Mol_Feturizer/New_Systems/rnas/2NPY

>  <Rbt.Executable>
rbdock ($Id: //depot/dev/client3/rdock/2013.1/src/exe/rbdock.cxx#4 $)

>  <Rbt.Library>
libRbt.so (2013.1, Build901 2013/11/27)

>  <Rbt.Parameter_File>
/export/apps/rDock/src/rDock_2013.1_src/data/scripts/dock_solv.prm

>  <Rbt.Receptor>
prm/pocket_docking_4.prm

>  <SCORE>
-8.80289

>  <SCORE.INTER>
5.03192

>  <SCORE.INTER.CONST>
1

>  <SCORE.INTER.POLAR>
0

>  <SCORE.INTER.ROT>
9

>  <SCORE.INTER.SOLV>
6.1047

>  <SCORE.INTER.VDW>
-8.28029

>  <SCORE.INTER.norm>
0.38707

>  <SCORE.INTRA>
-13.8348

>  <SCORE.INTRA.DIHEDRAL>
-24.5972

>  <SCORE.INTRA.DIHEDRAL.0>
25.6828

>  <SCORE.INTRA.POLAR>
0

>  <SCORE.INTRA.POLAR.0>
0

>  <SCORE.INTRA.REPUL>
0

>  <SCORE.INTRA.REPUL.0>
0

>  <SCORE.INTRA.SOLV>
-1.15633

>  <SCORE.INTRA.SOLV.lig_0>
-48.5059

>  <SCORE.INTRA.VDW>
-0.958047

>  <SCORE.INTRA.VDW.0>
-0.363643

>  <SCORE.INTRA.norm>
-1.06422

>  <SCORE.RESTR>
0

>  <SCORE.RESTR.CAVITY>
0

>  <SCORE.RESTR.norm>
0

>  <SCORE.SYSTEM>
0

>  <SCORE.SYSTEM.CONST>
0

>  <SCORE.SYSTEM.DIHEDRAL>
0

>  <SCORE.SYSTEM.SOLV>
0

>  <SCORE.SYSTEM.norm>
0

>  <SCORE.heavy>
13

>  <SCORE.norm>
-0.677146

>  <RMSD>
6.598

$$$$
ligand
 OpenBabel11021811453D
libRbt.so/2013.1/901 2013/11/27
 13 12  0  0  0  0  0  0  0  0999 V2000
   36.5509   31.1284   50.0990 O   0  0  0  0  0  0  0  0  0  0  0  0
   34.8012   32.5824   51.9062 O   0  0  0  0  0  0  0  0  0  0  0  0
   37.6168   30.1953   45.2425 P   0  0  2  0  0  0  0  0  0  0  0  0
   38.8696   29.9024   44.4876 O   0  5  0  0  0  0  0  0  0  0  0  0
   36.7496   31.3189   44.8039 O   0  0  0  0  0  0  0  0  0  0  0  0
   37.9843   30.4480   46.7651 O   0  0  0  0  0  0  0  0  0  0  0  0
   32.1009   32.7649   51.0553 O   0  0  0  0  0  0  0  0  0  0  0  0
   36.9602   30.5658   47.7632 C   0  0  0  0  0  0  0  0  0  0  0  0
   35.8875   31.7609   52.4056 C   0  0  0  0  0  0  0  0  0  0  0  0
   32.5481   33.4863   52.1941 C   0  0  0  0  0  0  0  0  0  0  0  0
   37.5874   30.9396   49.1170 C   0  0  0  0  0  0  0  0  0  0  0  0
   37.0355   31.6340   51.3742 C   0  0  0  0  0  0  0  0  0  0  0  0
   33.7003   32.6948   52.8382 C   0  0  0  0  0  0  0  0  0  0  0  0
  1 12  1  0  0  0  0
  1 11  1  0  0  0  0
  2 13  1  0  0  0  0
  2  9  1  0  0  0  0
  3  4  1  6  0  0  0
  3  5  2  0  0  0  0
  3  6  1  0  0  0  0
  6  8  1  0  0  0  0
  7 10  1  0  0  0  0
  8 11  1  0  0  0  0
  9 12  1  0  0  0  0
 10 13  1  0  0  0  0
M  CHG  1   4  -1
M  END
>  <CHROM.1>
-177.65701576,-175.60292518,-171.07309357,-174.60121679,176.88352897,178.72427217
-55.41422821,61.84946940,-173.34146214,36.16570188,31.38209144,48.85553631
-2.12050109,0.36851160,-1.68144632

>  <Name>
ligand

>  <RI>
0

>  <Rbt.Current_Directory>
/home/itssahil/PROJECTS/Mol_Feturizer/New_Systems/rnas/2NPY

>  <Rbt.Executable>
rbdock ($Id: //depot/dev/client3/rdock/2013.1/src/exe/rbdock.cxx#4 $)

>  <Rbt.Library>
libRbt.so (2013.1, Build901 2013/11/27)

>  <Rbt.Parameter_File>
/export/apps/rDock/src/rDock_2013.1_src/data/scripts/dock_solv.prm

>  <Rbt.Receptor>
prm/pocket_docking_7.prm

>  <SCORE>
-11.8725

>  <SCORE.INTER>
2.19184

>  <SCORE.INTER.CONST>
1

>  <SCORE.INTER.POLAR>
0

>  <SCORE.INTER.ROT>
9

>  <SCORE.INTER.SOLV>
12.272

>  <SCORE.INTER.VDW>
-12.2294

>  <SCORE.INTER.norm>
0.168603

>  <SCORE.INTRA>
-14.0643

>  <SCORE.INTRA.DIHEDRAL>
-25.0205

>  <SCORE.INTRA.DIHEDRAL.0>
25.6828

>  <SCORE.INTRA.POLAR>
0

>  <SCORE.INTRA.POLAR.0>
0

>  <SCORE.INTRA.REPUL>
0

>  <SCORE.INTRA.REPUL.0>
0

>  <SCORE.INTRA.SOLV>
-1.13228

>  <SCORE.INTRA.SOLV.lig_0>
-48.5059

>  <SCORE.INTRA.VDW>
-0.987952

>  <SCORE.INTRA.VDW.0>
-0.363643

>  <SCORE.INTRA.norm>
-1.08187

>  <SCORE.RESTR>
0

>  <SCORE.RESTR.CAVITY>
0

>  <SCORE.RESTR.norm>
0

>  <SCORE.SYSTEM>
0

>  <SCORE.SYSTEM.CONST>
0

>  <SCORE.SYSTEM.DIHEDRAL>
0

>  <SCORE.SYSTEM.SOLV>
0

>  <SCORE.SYSTEM.norm>
0

>  <SCORE.heavy>
13

>  <SCORE.norm>
-0.913268

>  <RMSD>
6.605

$$$$
ligand
 OpenBabel11021811453D
libRbt.so/2013.1/901 2013/11/27
 13 12  0  0  0  0  0  0  0  0999 V2000
   31.9307   31.6145   49.1328 O   0  0  0  0  0  0  0  0  0  0  0  0
   34.8363   30.9808   49.1674 O   0  0  0  0  0  0  0  0  0  0  0  0
   30.3245   32.2241   45.2411 P   0  0  2  0  0  0  0  0  0  0  0  0
   31.3535   31.8620   44.2235 O   0  5  0  0  0  0  0  0  0  0  0  0
   30.0273   33.6570   45.4964 O   0  0  0  0  0  0  0  0  0  0  0  0
   30.7257   31.5695   46.6296 O   0  0  0  0  0  0  0  0  0  0  0  0
   38.3364   30.7986   48.0914 O   0  0  0  0  0  0  0  0  0  0  0  0
   29.8996   31.7350   47.7911 C   0  0  0  0  0  0  0  0  0  0  0  0
   34.1258   31.5630   50.2901 C   0  0  0  0  0  0  0  0  0  0  0  0
   36.9332   30.6192   47.9637 C   0  0  0  0  0  0  0  0  0  0  0  0
   30.5868   31.1097   49.0170 C   0  0  0  0  0  0  0  0  0  0  0  0
   32.6367   31.1389   50.3125 C   0  0  0  0  0  0  0  0  0  0  0  0
   36.2574   31.2519   49.1932 C   0  0  0  0  0  0  0  0  0  0  0  0
  1 12  1  0  0  0  0
  1 11  1  0  0  0  0
  2 13  1  0  0  0  0
  2  9  1  0  0  0  0
  3  4  1  6  0  0  0
  3  5  2  0  0  0  0
  3  6  1  0  0  0  0
  6  8  1  0  0  0  0
  7 10  1  0  0  0  0
  8 11  1  0  0  0  0
  9 12  1  0  0  0  0
 10 13  1  0  0  0  0
M  CHG  1   4  -1
M  END
>  <CHROM.1>
172.65586816,-179.23486329,-179.00332724,-174.84999358,51.78934879,-174.28151676
-62.81235162,-174.59550017,176.55388095,32.70971626,31.61344508,47.63304724
2.65141490,0.13501685,-1.41643510

>  <Name>
ligand

>  <RI>
0

>  <Rbt.Current_Directory>
/home/itssahil/PROJECTS/Mol_Feturizer/New_Systems/rnas/2NPY

>  <Rbt.Executable>
rbdock ($Id: //depot/dev/client3/rdock/2013.1/src/exe/rbdock.cxx#4 $)

>  <Rbt.Library>
libRbt.so (2013.1, Build901 2013/11/27)

>  <Rbt.Parameter_File>
/export/apps/rDock/src/rDock_2013.1_src/data/scripts/dock_solv.prm

>  <Rbt.Receptor>
prm/pocket_docking_5.prm

>  <SCORE>
-12.1856

>  <SCORE.INTER>
1.64723

>  <SCORE.INTER.CONST>
1

>  <SCORE.INTER.POLAR>
0

>  <SCORE.INTER.ROT>
9

>  <SCORE.INTER.SOLV>
11.2683

>  <SCORE.INTER.VDW>
-12.258

>  <SCORE.INTER.norm>
0.12671

>  <SCORE.INTRA>
-13.8328

>  <SCORE.INTRA.DIHEDRAL>
-24.6296

>  <SCORE.INTRA.DIHEDRAL.0>
25.6828

>  <SCORE.INTRA.POLAR>
0

>  <SCORE.INTRA.POLAR.0>
0

>  <SCORE.INTRA.REPUL>
0

>  <SCORE.INTRA.REPUL.0>
0

>  <SCORE.INTRA.SOLV>
-1.15343

>  <SCORE.INTRA.SOLV.lig_0>
-48.5059

>  <SCORE.INTRA.VDW>
-0.941306

>  <SCORE.INTRA.VDW.0>
-0.363643

>  <SCORE.INTRA.norm>
-1.06406

>  <SCORE.RESTR>
0

>  <SCORE.RESTR.CAVITY>
0

>  <SCORE.RESTR.norm>
0

>  <SCORE.SYSTEM>
0

>  <SCORE.SYSTEM.CONST>
0

>  <SCORE.SYSTEM.DIHEDRAL>
0

>  <SCORE.SYSTEM.SOLV>
0

>  <SCORE.SYSTEM.norm>
0

>  <SCORE.heavy>
13

>  <SCORE.norm>
-0.937354

>  <RMSD>
6.617

$$$$
ligand
 OpenBabel11021811453D
libRbt.so/2013.1/901 2013/11/27
 13 12  0  0  0  0  0  0  0  0999 V2000
   32.0300   31.2845   49.1364 O   0  0  0  0  0  0  0  0  0  0  0  0
   34.9014   30.9791   49.3536 O   0  0  0  0  0  0  0  0  0  0  0  0
   29.8229   32.4428   45.5934 P   0  0  2  0  0  0  0  0  0  0  0  0
   30.5398   33.6368   45.0589 O   0  5  0  0  0  0  0  0  0  0  0  0
   28.3375   32.4218   45.5833 O   0  0  0  0  0  0  0  0  0  0  0  0
   30.2893   32.1932   47.0892 O   0  0  0  0  0  0  0  0  0  0  0  0
   36.4337   31.0508   46.9524 O   0  0  0  0  0  0  0  0  0  0  0  0
   30.0714   30.9281   47.7303 C   0  0  0  0  0  0  0  0  0  0  0  0
   34.1460   31.6876   50.3694 C   0  0  0  0  0  0  0  0  0  0  0  0
   37.0121   30.6162   48.1747 C   0  0  0  0  0  0  0  0  0  0  0  0
   30.6260   30.9643   49.1645 C   0  0  0  0  0  0  0  0  0  0  0  0
   32.6765   31.2041   50.4371 C   0  0  0  0  0  0  0  0  0  0  0  0
   36.3002   31.3482   49.3264 C   0  0  0  0  0  0  0  0  0  0  0  0
  1 12  1  0  0  0  0
  1 11  1  0  0  0  0
  2 13  1  0  0  0  0
  2  9  1  0  0  0  0
  3  4  1  1  0  0  0
  3  5  2  0  0  0  0
  3  6  1  0  0  0  0
  6  8  1  0  0  0  0
  7 10  1  0  0  0  0
  8 11  1  0  0  0  0
  9 12  1  0  0  0  0
 10 13  1  0  0  0  0
M  CHG  1   4  -1
M  END
>  <CHROM.1>
-174.57003968,-176.78345250,-162.24727865,179.72085235,-58.04137261,-176.20129425
-54.34030422,63.07682200,-173.87671998,32.30770243,31.68318153,47.75972294
0.48397527,-0.08008271,1.85124393

>  <Name>
ligand

>  <RI>
0

>  <Rbt.Current_Directory>
/home/itssahil/PROJECTS/Mol_Feturizer/New_Systems/rnas/2NPY

>  <Rbt.Executable>
rbdock ($Id: //depot/dev/client3/rdock/2013.1/src/exe/rbdock.cxx#4 $)

>  <Rbt.Library>
libRbt.so (2013.1, Build901 2013/11/27)

>  <Rbt.Parameter_File>
/export/apps/rDock/src/rDock_2013.1_src/data/scripts/dock_solv.prm

>  <Rbt.Receptor>
prm/pocket_docking_5.prm

>  <SCORE>
-13.3271

>  <SCORE.INTER>
0.811731

>  <SCORE.INTER.CONST>
1

>  <SCORE.INTER.POLAR>
0

>  <SCORE.INTER.ROT>
9

>  <SCORE.INTER.SOLV>
7.23306

>  <SCORE.INTER.VDW>
-11.4699

>  <SCORE.INTER.norm>
0.0624409

>  <SCORE.INTRA>
-14.1388

>  <SCORE.INTRA.DIHEDRAL>
-24.872

>  <SCORE.INTRA.DIHEDRAL.0>
25.6828

>  <SCORE.INTRA.POLAR>
0

>  <SCORE.INTRA.POLAR.0>
0

>  <SCORE.INTRA.REPUL>
0

>  <SCORE.INTRA.REPUL.0>
0

>  <SCORE.INTRA.SOLV>
-1.06107

>  <SCORE.INTRA.SOLV.lig_0>
-48.5059

>  <SCORE.INTRA.VDW>
-1.17232

>  <SCORE.INTRA.VDW.0>
-0.363643

>  <SCORE.INTRA.norm>
-1.0876

>  <SCORE.RESTR>
0

>  <SCORE.RESTR.CAVITY>
0

>  <SCORE.RESTR.norm>
0

>  <SCORE.SYSTEM>
0

>  <SCORE.SYSTEM.CONST>
0

>  <SCORE.SYSTEM.DIHEDRAL>
0

>  <SCORE.SYSTEM.SOLV>
0

>  <SCORE.SYSTEM.norm>
0

>  <SCORE.heavy>
13

>  <SCORE.norm>
-1.02516

>  <RMSD>
6.619

$$$$
ligand
 OpenBabel11021811453D
libRbt.so/2013.1/901 2013/11/27
 13 12  0  0  0  0  0  0  0  0999 V2000
   33.1378   31.6318   48.4551 O   0  0  0  0  0  0  0  0  0  0  0  0
   36.0112   31.3755   47.8218 O   0  0  0  0  0  0  0  0  0  0  0  0
   30.5275   32.2344   44.9972 P   0  0  2  0  0  0  0  0  0  0  0  0
   31.3943   32.5346   43.8208 O   0  5  0  0  0  0  0  0  0  0  0  0
   29.2626   32.9917   45.1804 O   0  0  0  0  0  0  0  0  0  0  0  0
   31.3823   32.4141   46.3217 O   0  0  0  0  0  0  0  0  0  0  0  0
   36.6820   30.6287   45.1801 O   0  0  0  0  0  0  0  0  0  0  0  0
   30.8838   31.9653   47.5901 C   0  0  0  0  0  0  0  0  0  0  0  0
   35.4708   31.1446   49.1481 C   0  0  0  0  0  0  0  0  0  0  0  0
   37.7065   30.8914   46.1282 C   0  0  0  0  0  0  0  0  0  0  0  0
   31.8907   32.3089   48.7009 C   0  0  0  0  0  0  0  0  0  0  0  0
   34.1886   31.9752   49.4007 C   0  0  0  0  0  0  0  0  0  0  0  0
   37.1618   30.5494   47.5264 C   0  0  0  0  0  0  0  0  0  0  0  0
  1 12  1  0  0  0  0
  1 11  1  0  0  0  0
  2 13  1  0  0  0  0
  2  9  1  0  0  0  0
  3  4  1  6  0  0  0
  3  5  2  0  0  0  0
  3  6  1  0  0  0  0
  6  8  1  0  0  0  0
  7 10  1  0  0  0  0
  8 11  1  0  0  0  0
  9 12  1  0  0  0  0
 10 13  1  0  0  0  0
M  CHG  1   4  -1
M  END
>  <CHROM.1>
175.98723950,-177.83295472,-168.79932995,-178.00445310,-61.64341087,-176.33625840
60.63217142,-60.73131725,175.60882189,33.24542835,31.79201172,46.74205498
0.29879975,-0.24930669,1.55441653

>  <Name>
ligand

>  <RI>
0

>  <Rbt.Current_Directory>
/home/itssahil/PROJECTS/Mol_Feturizer/New_Systems/rnas/2NPY

>  <Rbt.Executable>
rbdock ($Id: //depot/dev/client3/rdock/2013.1/src/exe/rbdock.cxx#4 $)

>  <Rbt.Library>
libRbt.so (2013.1, Build901 2013/11/27)

>  <Rbt.Parameter_File>
/export/apps/rDock/src/rDock_2013.1_src/data/scripts/dock_solv.prm

>  <Rbt.Receptor>
prm/pocket_docking_4.prm

>  <SCORE>
-11.3717

>  <SCORE.INTER>
2.92768

>  <SCORE.INTER.CONST>
1

>  <SCORE.INTER.POLAR>
0

>  <SCORE.INTER.ROT>
9

>  <SCORE.INTER.SOLV>
11.7766

>  <SCORE.INTER.VDW>
-11.5737

>  <SCORE.INTER.norm>
0.225206

>  <SCORE.INTRA>
-14.2994

>  <SCORE.INTRA.DIHEDRAL>
-25.3192

>  <SCORE.INTRA.DIHEDRAL.0>
25.6828

>  <SCORE.INTRA.POLAR>
0

>  <SCORE.INTRA.POLAR.0>
0

>  <SCORE.INTRA.REPUL>
0

>  <SCORE.INTRA.REPUL.0>
0

>  <SCORE.INTRA.SOLV>
-1.06221

>  <SCORE.INTRA.SOLV.lig_0>
-48.5059

>  <SCORE.INTRA.VDW>
-1.10873

>  <SCORE.INTRA.VDW.0>
-0.363643

>  <SCORE.INTRA.norm>
-1.09996

>  <SCORE.RESTR>
0

>  <SCORE.RESTR.CAVITY>
0

>  <SCORE.RESTR.norm>
0

>  <SCORE.SYSTEM>
0

>  <SCORE.SYSTEM.CONST>
0

>  <SCORE.SYSTEM.DIHEDRAL>
0

>  <SCORE.SYSTEM.SOLV>
0

>  <SCORE.SYSTEM.norm>
0

>  <SCORE.heavy>
13

>  <SCORE.norm>
-0.87475

>  <RMSD>
6.629

$$$$
ligand
 OpenBabel11021811453D
libRbt.so/2013.1/901 2013/11/27
 13 12  0  0  0  0  0  0  0  0999 V2000
   37.0116   30.2685   45.6708 O   0  0  0  0  0  0  0  0  0  0  0  0
   35.6578   31.5325   47.8664 O   0  0  0  0  0  0  0  0  0  0  0  0
   34.6827   31.0534   42.1133 P   0  0  2  0  0  0  0  0  0  0  0  0
   35.3436   31.1614   40.7802 O   0  5  0  0  0  0  0  0  0  0  0  0
   33.6288   32.0327   42.4837 O   0  0  0  0  0  0  0  0  0  0  0  0
   35.7963   31.1073   43.2422 O   0  0  0  0  0  0  0  0  0  0  0  0
   34.4010   32.7068   51.0982 O   0  0  0  0  0  0  0  0  0  0  0  0
   36.8989   30.1891   43.2375 C   0  0  0  0  0  0  0  0  0  0  0  0
   36.7926   30.6627   48.1115 C   0  0  0  0  0  0  0  0  0  0  0  0
   35.3951   32.4529   50.1160 C   0  0  0  0  0  0  0  0  0  0  0  0
   37.7883   30.4310   44.4689 C   0  0  0  0  0  0  0  0  0  0  0  0
   37.7394   30.5918   46.8882 C   0  0  0  0  0  0  0  0  0  0  0  0
   34.7544   31.6173   48.9934 C   0  0  0  0  0  0  0  0  0  0  0  0
  1 12  1  0  0  0  0
  1 11  1  0  0  0  0
  2 13  1  0  0  0  0
  2  9  1  0  0  0  0
  3  4  1  6  0  0  0
  3  5  2  0  0  0  0
  3  6  1  0  0  0  0
  6  8  1  0  0  0  0
  7 10  1  0  0  0  0
  8 11  1  0  0  0  0
  9 12  1  0  0  0  0
 10 13  1  0  0  0  0
M  CHG  1   4  -1
M  END
>  <CHROM.1>
169.12013943,72.74060068,-55.18775561,-177.80156309,58.63205828,179.95825456
-51.69403473,170.07510845,-174.93860644,35.71524158,31.21704027,45.44799668
-1.54487550,0.46390207,-1.69359312

>  <Name>
ligand

>  <RI>
0

>  <Rbt.Current_Directory>
/home/itssahil/PROJECTS/Mol_Feturizer/New_Systems/rnas/2NPY

>  <Rbt.Executable>
rbdock ($Id: //depot/dev/client3/rdock/2013.1/src/exe/rbdock.cxx#4 $)

>  <Rbt.Library>
libRbt.so (2013.1, Build901 2013/11/27)

>  <Rbt.Parameter_File>
/export/apps/rDock/src/rDock_2013.1_src/data/scripts/dock_solv.prm

>  <Rbt.Receptor>
prm/pocket_docking_5.prm

>  <SCORE>
-10.1818

>  <SCORE.INTER>
2.38135

>  <SCORE.INTER.CONST>
1

>  <SCORE.INTER.POLAR>
0

>  <SCORE.INTER.ROT>
9

>  <SCORE.INTER.SOLV>
7.41917

>  <SCORE.INTER.VDW>
-10.4855

>  <SCORE.INTER.norm>
0.183181

>  <SCORE.INTRA>
-12.5632

>  <SCORE.INTRA.DIHEDRAL>
-23.5351

>  <SCORE.INTRA.DIHEDRAL.0>
25.6828

>  <SCORE.INTRA.POLAR>
0

>  <SCORE.INTRA.POLAR.0>
0

>  <SCORE.INTRA.REPUL>
0

>  <SCORE.INTRA.REPUL.0>
0

>  <SCORE.INTRA.SOLV>
-1.18038

>  <SCORE.INTRA.SOLV.lig_0>
-48.5059

>  <SCORE.INTRA.VDW>
-0.205394

>  <SCORE.INTRA.VDW.0>
-0.363643

>  <SCORE.INTRA.norm>
-0.966396

>  <SCORE.RESTR>
0

>  <SCORE.RESTR.CAVITY>
0

>  <SCORE.RESTR.norm>
0

>  <SCORE.SYSTEM>
0

>  <SCORE.SYSTEM.CONST>
0

>  <SCORE.SYSTEM.DIHEDRAL>
0

>  <SCORE.SYSTEM.SOLV>
0

>  <SCORE.SYSTEM.norm>
0

>  <SCORE.heavy>
13

>  <SCORE.norm>
-0.783215

>  <RMSD>
6.631

$$$$
ligand
 OpenBabel11021811453D
libRbt.so/2013.1/901 2013/11/27
 13 12  0  0  0  0  0  0  0  0999 V2000
   32.9512   31.6732   48.6471 O   0  0  0  0  0  0  0  0  0  0  0  0
   35.7619   31.3737   48.0072 O   0  0  0  0  0  0  0  0  0  0  0  0
   30.1609   32.1959   45.2495 P   0  0  2  0  0  0  0  0  0  0  0  0
   30.8612   32.8001   44.0790 O   0  5  0  0  0  0  0  0  0  0  0  0
   28.7883   32.6508   45.5897 O   0  0  0  0  0  0  0  0  0  0  0  0
   31.0593   32.3955   46.5419 O   0  0  0  0  0  0  0  0  0  0  0  0
   37.5986   32.0408   45.9659 O   0  0  0  0  0  0  0  0  0  0  0  0
   30.6697   31.8399   47.8062 C   0  0  0  0  0  0  0  0  0  0  0  0
   35.2916   31.2846   49.3766 C   0  0  0  0  0  0  0  0  0  0  0  0
   37.3457   30.6788   46.2794 C   0  0  0  0  0  0  0  0  0  0  0  0
   31.6646   32.2703   48.8974 C   0  0  0  0  0  0  0  0  0  0  0  0
   33.9815   32.0824   49.5892 C   0  0  0  0  0  0  0  0  0  0  0  0
   36.9577   30.5955   47.7665 C   0  0  0  0  0  0  0  0  0  0  0  0
  1 12  1  0  0  0  0
  1 11  1  0  0  0  0
  2 13  1  0  0  0  0
  2  9  1  0  0  0  0
  3  4  1  6  0  0  0
  3  5  2  0  0  0  0
  3  6  1  0  0  0  0
  6  8  1  0  0  0  0
  7 10  1  0  0  0  0
  8 11  1  0  0  0  0
  9 12  1  0  0  0  0
 10 13  1  0  0  0  0
M  CHG  1   4  -1
M  END
>  <CHROM.1>
173.20041959,176.84502250,-176.20053857,-175.94013631,-66.65281179,-177.77441042
54.60170377,60.71743660,176.79390415,33.03481959,31.88369763,47.01561190
0.29006944,-0.15412763,1.64698809

>  <Name>
ligand

>  <RI>
0

>  <Rbt.Current_Directory>
/home/itssahil/PROJECTS/Mol_Feturizer/New_Systems/rnas/2NPY

>  <Rbt.Executable>
rbdock ($Id: //depot/dev/client3/rdock/2013.1/src/exe/rbdock.cxx#4 $)

>  <Rbt.Library>
libRbt.so (2013.1, Build901 2013/11/27)

>  <Rbt.Parameter_File>
/export/apps/rDock/src/rDock_2013.1_src/data/scripts/dock_solv.prm

>  <Rbt.Receptor>
prm/pocket_docking_4.prm

>  <SCORE>
-11.5434

>  <SCORE.INTER>
2.52417

>  <SCORE.INTER.CONST>
1

>  <SCORE.INTER.POLAR>
0

>  <SCORE.INTER.ROT>
9

>  <SCORE.INTER.SOLV>
9.55942

>  <SCORE.INTER.VDW>
-11.1037

>  <SCORE.INTER.norm>
0.194167

>  <SCORE.INTRA>
-14.0676

>  <SCORE.INTRA.DIHEDRAL>
-24.9433

>  <SCORE.INTRA.DIHEDRAL.0>
25.6828

>  <SCORE.INTRA.POLAR>
0

>  <SCORE.INTRA.POLAR.0>
0

>  <SCORE.INTRA.REPUL>
0

>  <SCORE.INTRA.REPUL.0>
0

>  <SCORE.INTRA.SOLV>
-1.04372

>  <SCORE.INTRA.SOLV.lig_0>
-48.5059

>  <SCORE.INTRA.VDW>
-1.07404

>  <SCORE.INTRA.VDW.0>
-0.363643

>  <SCORE.INTRA.norm>
-1.08212

>  <SCORE.RESTR>
0

>  <SCORE.RESTR.CAVITY>
0

>  <SCORE.RESTR.norm>
0

>  <SCORE.SYSTEM>
0

>  <SCORE.SYSTEM.CONST>
0

>  <SCORE.SYSTEM.DIHEDRAL>
0

>  <SCORE.SYSTEM.SOLV>
0

>  <SCORE.SYSTEM.norm>
0

>  <SCORE.heavy>
13

>  <SCORE.norm>
-0.887953

>  <RMSD>
6.634

$$$$
ligand
 OpenBabel11021811453D
libRbt.so/2013.1/901 2013/11/27
 13 12  0  0  0  0  0  0  0  0999 V2000
   36.9556   30.9234   46.7329 O   0  0  0  0  0  0  0  0  0  0  0  0
   35.5124   30.9178   49.2919 O   0  0  0  0  0  0  0  0  0  0  0  0
   36.4979   30.4188   41.7165 P   0  0  2  0  0  0  0  0  0  0  0  0
   37.0956   31.7168   41.2884 O   0  5  0  0  0  0  0  0  0  0  0  0
   35.0197   30.2834   41.7758 O   0  0  0  0  0  0  0  0  0  0  0  0
   37.0652   30.0423   43.1496 O   0  0  0  0  0  0  0  0  0  0  0  0
   32.8639   31.8209   49.1210 O   0  0  0  0  0  0  0  0  0  0  0  0
   36.6915   30.7938   44.3135 C   0  0  0  0  0  0  0  0  0  0  0  0
   36.9446   31.1317   49.2061 C   0  0  0  0  0  0  0  0  0  0  0  0
   33.3752   31.3989   50.3771 C   0  0  0  0  0  0  0  0  0  0  0  0
   37.4074   30.2314   45.5533 C   0  0  0  0  0  0  0  0  0  0  0  0
   37.5577   30.4378   47.9650 C   0  0  0  0  0  0  0  0  0  0  0  0
   34.8947   31.6438   50.3804 C   0  0  0  0  0  0  0  0  0  0  0  0
  1 12  1  0  0  0  0
  1 11  1  0  0  0  0
  2 13  1  0  0  0  0
  2  9  1  0  0  0  0
  3  4  1  1  0  0  0
  3  5  2  0  0  0  0
  3  6  1  0  0  0  0
  6  8  1  0  0  0  0
  7 10  1  0  0  0  0
  8 11  1  0  0  0  0
  9 12  1  0  0  0  0
 10 13  1  0  0  0  0
M  CHG  1   4  -1
M  END
>  <CHROM.1>
-175.02164253,178.28907441,69.45292949,-178.82365446,-175.79521559,-175.27626743
58.97186367,-58.44092898,178.69473791,36.01817504,30.86826314,45.80358695
-1.79360134,0.18012220,-1.62228240

>  <Name>
ligand

>  <RI>
0

>  <Rbt.Current_Directory>
/home/itssahil/PROJECTS/Mol_Feturizer/New_Systems/rnas/2NPY

>  <Rbt.Executable>
rbdock ($Id: //depot/dev/client3/rdock/2013.1/src/exe/rbdock.cxx#4 $)

>  <Rbt.Library>
libRbt.so (2013.1, Build901 2013/11/27)

>  <Rbt.Parameter_File>
/export/apps/rDock/src/rDock_2013.1_src/data/scripts/dock_solv.prm

>  <Rbt.Receptor>
prm/pocket_docking_8.prm

>  <SCORE>
-13.3044

>  <SCORE.INTER>
0.684216

>  <SCORE.INTER.CONST>
1

>  <SCORE.INTER.POLAR>
0

>  <SCORE.INTER.ROT>
9

>  <SCORE.INTER.SOLV>
8.41316

>  <SCORE.INTER.VDW>
-11.9482

>  <SCORE.INTER.norm>
0.052632

>  <SCORE.INTRA>
-13.9886

>  <SCORE.INTRA.DIHEDRAL>
-25.2937

>  <SCORE.INTRA.DIHEDRAL.0>
25.6828

>  <SCORE.INTRA.POLAR>
0

>  <SCORE.INTRA.POLAR.0>
0

>  <SCORE.INTRA.REPUL>
0

>  <SCORE.INTRA.REPUL.0>
0

>  <SCORE.INTRA.SOLV>
-0.71078

>  <SCORE.INTRA.SOLV.lig_0>
-48.5059

>  <SCORE.INTRA.VDW>
-0.986358

>  <SCORE.INTRA.VDW.0>
-0.363643

>  <SCORE.INTRA.norm>
-1.07605

>  <SCORE.RESTR>
0

>  <SCORE.RESTR.CAVITY>
0

>  <SCORE.RESTR.norm>
0

>  <SCORE.SYSTEM>
0

>  <SCORE.SYSTEM.CONST>
0

>  <SCORE.SYSTEM.DIHEDRAL>
0

>  <SCORE.SYSTEM.SOLV>
0

>  <SCORE.SYSTEM.norm>
0

>  <SCORE.heavy>
13

>  <SCORE.norm>
-1.02341

>  <RMSD>
6.638

$$$$
ligand
 OpenBabel11021811453D
libRbt.so/2013.1/901 2013/11/27
 13 12  0  0  0  0  0  0  0  0999 V2000
   32.5115   31.7669   47.6368 O   0  0  0  0  0  0  0  0  0  0  0  0
   35.2970   31.5377   48.4020 O   0  0  0  0  0  0  0  0  0  0  0  0
   29.7893   33.8893   44.7641 P   0  0  2  0  0  0  0  0  0  0  0  0
   28.4061   34.2770   44.3618 O   0  5  0  0  0  0  0  0  0  0  0  0
   30.9013   34.0515   43.7926 O   0  0  0  0  0  0  0  0  0  0  0  0
   29.7814   32.3711   45.2249 O   0  0  0  0  0  0  0  0  0  0  0  0
   37.8819   31.9337   47.2891 O   0  0  0  0  0  0  0  0  0  0  0  0
   30.9630   31.7531   45.7548 C   0  0  0  0  0  0  0  0  0  0  0  0
   34.2515   31.6403   49.4023 C   0  0  0  0  0  0  0  0  0  0  0  0
   37.4685   30.6452   47.7206 C   0  0  0  0  0  0  0  0  0  0  0  0
   31.3509   32.4183   47.0863 C   0  0  0  0  0  0  0  0  0  0  0  0
   33.0050   32.3817   48.8595 C   0  0  0  0  0  0  0  0  0  0  0  0
   36.4657   30.8271   48.8738 C   0  0  0  0  0  0  0  0  0  0  0  0
  1 12  1  0  0  0  0
  1 11  1  0  0  0  0
  2 13  1  0  0  0  0
  2  9  1  0  0  0  0
  3  4  1  6  0  0  0
  3  5  2  0  0  0  0
  3  6  1  0  0  0  0
  6  8  1  0  0  0  0
  7 10  1  0  0  0  0
  8 11  1  0  0  0  0
  9 12  1  0  0  0  0
 10 13  1  0  0  0  0
M  CHG  1   4  -1
M  END
>  <CHROM.1>
-179.95404972,174.67276862,-175.67092663,65.08008080,178.13318402,-178.92223370
54.55991795,62.34687264,176.39321190,32.65060643,32.42049291,46.64941864
0.55313326,-0.11976743,1.94797028

>  <Name>
ligand

>  <RI>
0

>  <Rbt.Current_Directory>
/home/itssahil/PROJECTS/Mol_Feturizer/New_Systems/rnas/2NPY

>  <Rbt.Executable>
rbdock ($Id: //depot/dev/client3/rdock/2013.1/src/exe/rbdock.cxx#4 $)

>  <Rbt.Library>
libRbt.so (2013.1, Build901 2013/11/27)

>  <Rbt.Parameter_File>
/export/apps/rDock/src/rDock_2013.1_src/data/scripts/dock_solv.prm

>  <Rbt.Receptor>
prm/pocket_docking_8.prm

>  <SCORE>
-10.1099

>  <SCORE.INTER>
3.09015

>  <SCORE.INTER.CONST>
1

>  <SCORE.INTER.POLAR>
0

>  <SCORE.INTER.ROT>
9

>  <SCORE.INTER.SOLV>
5.15466

>  <SCORE.INTER.VDW>
-9.25812

>  <SCORE.INTER.norm>
0.237704

>  <SCORE.INTRA>
-13.2001

>  <SCORE.INTRA.DIHEDRAL>
-25.1719

>  <SCORE.INTRA.DIHEDRAL.0>
25.6828

>  <SCORE.INTRA.POLAR>
0

>  <SCORE.INTRA.POLAR.0>
0

>  <SCORE.INTRA.REPUL>
0

>  <SCORE.INTRA.REPUL.0>
0

>  <SCORE.INTRA.SOLV>
0.093926

>  <SCORE.INTRA.SOLV.lig_0>
-48.5059

>  <SCORE.INTRA.VDW>
-0.661079

>  <SCORE.INTRA.VDW.0>
-0.363643

>  <SCORE.INTRA.norm>
-1.01539

>  <SCORE.RESTR>
0

>  <SCORE.RESTR.CAVITY>
0

>  <SCORE.RESTR.norm>
0

>  <SCORE.SYSTEM>
0

>  <SCORE.SYSTEM.CONST>
0

>  <SCORE.SYSTEM.DIHEDRAL>
0

>  <SCORE.SYSTEM.SOLV>
0

>  <SCORE.SYSTEM.norm>
0

>  <SCORE.heavy>
13

>  <SCORE.norm>
-0.777688

>  <RMSD>
6.641

$$$$
ligand
 OpenBabel11021811453D
libRbt.so/2013.1/901 2013/11/27
 13 12  0  0  0  0  0  0  0  0999 V2000
   36.6702   30.9195   46.9894 O   0  0  0  0  0  0  0  0  0  0  0  0
   34.8860   31.0315   49.2953 O   0  0  0  0  0  0  0  0  0  0  0  0
   37.3599   30.5919   41.9852 P   0  0  2  0  0  0  0  0  0  0  0  0
   38.3123   29.8440   41.1140 O   0  5  0  0  0  0  0  0  0  0  0  0
   37.3144   32.0747   41.9074 O   0  0  0  0  0  0  0  0  0  0  0  0
   37.6401   30.2061   43.4985 O   0  0  0  0  0  0  0  0  0  0  0  0
   32.3696   30.0779   50.1668 O   0  0  0  0  0  0  0  0  0  0  0  0
   36.8831   30.7973   44.5645 C   0  0  0  0  0  0  0  0  0  0  0  0
   36.3135   31.2558   49.4225 C   0  0  0  0  0  0  0  0  0  0  0  0
   32.6104   31.4745   50.0713 C   0  0  0  0  0  0  0  0  0  0  0  0
   37.4009   30.2884   45.9206 C   0  0  0  0  0  0  0  0  0  0  0  0
   37.1129   30.5229   48.3172 C   0  0  0  0  0  0  0  0  0  0  0  0
   34.1118   31.7171   50.3073 C   0  0  0  0  0  0  0  0  0  0  0  0
  1 12  1  0  0  0  0
  1 11  1  0  0  0  0
  2 13  1  0  0  0  0
  2  9  1  0  0  0  0
  3  4  1  6  0  0  0
  3  5  2  0  0  0  0
  3  6  1  0  0  0  0
  6  8  1  0  0  0  0
  7 10  1  0  0  0  0
  8 11  1  0  0  0  0
  9 12  1  0  0  0  0
 10 13  1  0  0  0  0
M  CHG  1   4  -1
M  END
>  <CHROM.1>
178.74435370,177.79783996,178.88468253,-177.71279728,177.99161717,-179.36162083
56.78172394,60.99292020,-178.61796521,36.18573446,30.80392355,46.01883424
-2.01187245,0.07384865,-1.58547491

>  <Name>
ligand

>  <RI>
0

>  <Rbt.Current_Directory>
/home/itssahil/PROJECTS/Mol_Feturizer/New_Systems/rnas/2NPY

>  <Rbt.Executable>
rbdock ($Id: //depot/dev/client3/rdock/2013.1/src/exe/rbdock.cxx#4 $)

>  <Rbt.Library>
libRbt.so (2013.1, Build901 2013/11/27)

>  <Rbt.Parameter_File>
/export/apps/rDock/src/rDock_2013.1_src/data/scripts/dock_solv.prm

>  <Rbt.Receptor>
prm/pocket_docking_7.prm

>  <SCORE>
-12.9765

>  <SCORE.INTER>
1.19103

>  <SCORE.INTER.CONST>
1

>  <SCORE.INTER.POLAR>
0

>  <SCORE.INTER.ROT>
9

>  <SCORE.INTER.SOLV>
8.59893

>  <SCORE.INTER.VDW>
-11.6723

>  <SCORE.INTER.norm>
0.0916181

>  <SCORE.INTRA>
-14.1676

>  <SCORE.INTRA.DIHEDRAL>
-25.4848

>  <SCORE.INTRA.DIHEDRAL.0>
25.6828

>  <SCORE.INTRA.POLAR>
0

>  <SCORE.INTRA.POLAR.0>
0

>  <SCORE.INTRA.REPUL>
0

>  <SCORE.INTRA.REPUL.0>
0

>  <SCORE.INTRA.SOLV>
-1.09574

>  <SCORE.INTRA.SOLV.lig_0>
-48.5059

>  <SCORE.INTRA.VDW>
-0.877311

>  <SCORE.INTRA.VDW.0>
-0.363643

>  <SCORE.INTRA.norm>
-1.08981

>  <SCORE.RESTR>
0

>  <SCORE.RESTR.CAVITY>
0

>  <SCORE.RESTR.norm>
0

>  <SCORE.SYSTEM>
0

>  <SCORE.SYSTEM.CONST>
0

>  <SCORE.SYSTEM.DIHEDRAL>
0

>  <SCORE.SYSTEM.SOLV>
0

>  <SCORE.SYSTEM.norm>
0

>  <SCORE.heavy>
13

>  <SCORE.norm>
-0.998195

>  <RMSD>
6.643

$$$$
ligand
 OpenBabel11021811453D
libRbt.so/2013.1/901 2013/11/27
 13 12  0  0  0  0  0  0  0  0999 V2000
   36.7116   30.5425   48.0420 O   0  0  0  0  0  0  0  0  0  0  0  0
   35.4327   31.9582   51.2851 O   0  0  0  0  0  0  0  0  0  0  0  0
   36.8838   30.4246   43.6747 P   0  0  2  0  0  0  0  0  0  0  0  0
   38.1982   30.3105   42.9784 O   0  5  0  0  0  0  0  0  0  0  0  0
   35.9002   31.4362   43.2098 O   0  0  0  0  0  0  0  0  0  0  0  0
   37.1433   30.6911   45.2170 O   0  0  0  0  0  0  0  0  0  0  0  0
   32.9732   32.9573   53.8163 O   0  0  0  0  0  0  0  0  0  0  0  0
   37.8181   29.7215   46.0316 C   0  0  0  0  0  0  0  0  0  0  0  0
   35.3726   31.4071   49.9446 C   0  0  0  0  0  0  0  0  0  0  0  0
   34.2748   32.7653   53.2813 C   0  0  0  0  0  0  0  0  0  0  0  0
   37.9992   30.2691   47.4575 C   0  0  0  0  0  0  0  0  0  0  0  0
   36.7822   31.0875   49.3890 C   0  0  0  0  0  0  0  0  0  0  0  0
   34.1266   32.2251   51.8477 C   0  0  0  0  0  0  0  0  0  0  0  0
  1 12  1  0  0  0  0
  1 11  1  0  0  0  0
  2 13  1  0  0  0  0
  2  9  1  0  0  0  0
  3  4  1  6  0  0  0
  3  5  2  0  0  0  0
  3  6  1  0  0  0  0
  6  8  1  0  0  0  0
  7 10  1  0  0  0  0
  8 11  1  0  0  0  0
  9 12  1  0  0  0  0
 10 13  1  0  0  0  0
M  CHG  1   4  -1
M  END
>  <CHROM.1>
177.98818478,178.28155425,-63.09040414,176.97046269,60.63774386,-178.05311107
-179.68189486,-177.45540645,-179.03548045,36.18168081,31.15728901,47.76508587
-1.19178090,-0.52339578,1.54914075

>  <Name>
ligand

>  <RI>
0

>  <Rbt.Current_Directory>
/home/itssahil/PROJECTS/Mol_Feturizer/New_Systems/rnas/2NPY

>  <Rbt.Executable>
rbdock ($Id: //depot/dev/client3/rdock/2013.1/src/exe/rbdock.cxx#4 $)

>  <Rbt.Library>
libRbt.so (2013.1, Build901 2013/11/27)

>  <Rbt.Parameter_File>
/export/apps/rDock/src/rDock_2013.1_src/data/scripts/dock_solv.prm

>  <Rbt.Receptor>
prm/pocket_docking_7.prm

>  <SCORE>
-13.5676

>  <SCORE.INTER>
0.860143

>  <SCORE.INTER.CONST>
1

>  <SCORE.INTER.POLAR>
0

>  <SCORE.INTER.ROT>
9

>  <SCORE.INTER.SOLV>
12.6528

>  <SCORE.INTER.VDW>
-13.2442

>  <SCORE.INTER.norm>
0.0661649

>  <SCORE.INTRA>
-14.4277

>  <SCORE.INTRA.DIHEDRAL>
-25.4527

>  <SCORE.INTRA.DIHEDRAL.0>
25.6828

>  <SCORE.INTRA.POLAR>
0

>  <SCORE.INTRA.POLAR.0>
0

>  <SCORE.INTRA.REPUL>
0

>  <SCORE.INTRA.REPUL.0>
0

>  <SCORE.INTRA.SOLV>
-1.51228

>  <SCORE.INTRA.SOLV.lig_0>
-48.5059

>  <SCORE.INTRA.VDW>
-0.945261

>  <SCORE.INTRA.VDW.0>
-0.363643

>  <SCORE.INTRA.norm>
-1.10983

>  <SCORE.RESTR>
0

>  <SCORE.RESTR.CAVITY>
0

>  <SCORE.RESTR.norm>
0

>  <SCORE.SYSTEM>
0

>  <SCORE.SYSTEM.CONST>
0

>  <SCORE.SYSTEM.DIHEDRAL>
0

>  <SCORE.SYSTEM.SOLV>
0

>  <SCORE.SYSTEM.norm>
0

>  <SCORE.heavy>
13

>  <SCORE.norm>
-1.04366

>  <RMSD>
6.682

$$$$
ligand
 OpenBabel11021811453D
libRbt.so/2013.1/901 2013/11/27
 13 12  0  0  0  0  0  0  0  0999 V2000
   37.0092   30.3449   45.4929 O   0  0  0  0  0  0  0  0  0  0  0  0
   36.1345   31.2090   48.0939 O   0  0  0  0  0  0  0  0  0  0  0  0
   34.2658   31.6314   42.3029 P   0  0  2  0  0  0  0  0  0  0  0  0
   33.4112   30.4100   42.3620 O   0  5  0  0  0  0  0  0  0  0  0  0
   34.8139   32.0727   40.9946 O   0  0  0  0  0  0  0  0  0  0  0  0
   35.4929   31.4453   43.2913 O   0  0  0  0  0  0  0  0  0  0  0  0
   34.4654   33.2403   49.0869 O   0  0  0  0  0  0  0  0  0  0  0  0
   36.4142   30.3572   43.1295 C   0  0  0  0  0  0  0  0  0  0  0  0
   37.3496   30.4298   47.9500 C   0  0  0  0  0  0  0  0  0  0  0  0
   34.2284   31.8916   49.4642 C   0  0  0  0  0  0  0  0  0  0  0  0
   37.5476   30.4713   44.1631 C   0  0  0  0  0  0  0  0  0  0  0  0
   37.9802   30.5993   46.5459 C   0  0  0  0  0  0  0  0  0  0  0  0
   35.5722   31.1421   49.4254 C   0  0  0  0  0  0  0  0  0  0  0  0
  1 12  1  0  0  0  0
  1 11  1  0  0  0  0
  2 13  1  0  0  0  0
  2  9  1  0  0  0  0
  3  4  1  6  0  0  0
  3  5  2  0  0  0  0
  3  6  1  0  0  0  0
  6  8  1  0  0  0  0
  7 10  1  0  0  0  0
  8 11  1  0  0  0  0
  9 12  1  0  0  0  0
 10 13  1  0  0  0  0
M  CHG  1   4  -1
M  END
>  <CHROM.1>
-179.21960920,-175.17754012,59.25568709,176.41245366,63.62003030,-176.04236075
-52.21220303,-59.14723485,-173.02418599,35.59690137,31.22524340,45.26233766
-1.41273083,0.44199314,-1.67737792

>  <Name>
ligand

>  <RI>
0

>  <Rbt.Current_Directory>
/home/itssahil/PROJECTS/Mol_Feturizer/New_Systems/rnas/2NPY

>  <Rbt.Executable>
rbdock ($Id: //depot/dev/client3/rdock/2013.1/src/exe/rbdock.cxx#4 $)

>  <Rbt.Library>
libRbt.so (2013.1, Build901 2013/11/27)

>  <Rbt.Parameter_File>
/export/apps/rDock/src/rDock_2013.1_src/data/scripts/dock_solv.prm

>  <Rbt.Receptor>
prm/pocket_docking_5.prm

>  <SCORE>
-11.2451

>  <SCORE.INTER>
2.64127

>  <SCORE.INTER.CONST>
1

>  <SCORE.INTER.POLAR>
0

>  <SCORE.INTER.ROT>
9

>  <SCORE.INTER.SOLV>
10.6926

>  <SCORE.INTER.VDW>
-11.4034

>  <SCORE.INTER.norm>
0.203175

>  <SCORE.INTRA>
-13.8864

>  <SCORE.INTRA.DIHEDRAL>
-24.843

>  <SCORE.INTRA.DIHEDRAL.0>
25.6828

>  <SCORE.INTRA.POLAR>
0

>  <SCORE.INTRA.POLAR.0>
0

>  <SCORE.INTRA.REPUL>
0

>  <SCORE.INTRA.REPUL.0>
0

>  <SCORE.INTRA.SOLV>
-0.619931

>  <SCORE.INTRA.SOLV.lig_0>
-48.5059

>  <SCORE.INTRA.VDW>
-1.15489

>  <SCORE.INTRA.VDW.0>
-0.363643

>  <SCORE.INTRA.norm>
-1.06818

>  <SCORE.RESTR>
0

>  <SCORE.RESTR.CAVITY>
0

>  <SCORE.RESTR.norm>
0

>  <SCORE.SYSTEM>
0

>  <SCORE.SYSTEM.CONST>
0

>  <SCORE.SYSTEM.DIHEDRAL>
0

>  <SCORE.SYSTEM.SOLV>
0

>  <SCORE.SYSTEM.norm>
0

>  <SCORE.heavy>
13

>  <SCORE.norm>
-0.865006

>  <RMSD>
6.690

$$$$
ligand
 OpenBabel11021811453D
libRbt.so/2013.1/901 2013/11/27
 13 12  0  0  0  0  0  0  0  0999 V2000
   30.2403   32.3710   45.0648 O   0  0  0  0  0  0  0  0  0  0  0  0
   32.3889   31.8039   43.0787 O   0  0  0  0  0  0  0  0  0  0  0  0
   29.4005   31.4148   49.2546 P   0  0  2  0  0  0  0  0  0  0  0  0
   30.0821   30.0912   49.1603 O   0  5  0  0  0  0  0  0  0  0  0  0
   28.0094   31.4810   49.7716 O   0  0  0  0  0  0  0  0  0  0  0  0
   29.4053   32.0959   47.8216 O   0  0  0  0  0  0  0  0  0  0  0  0
   35.4433   30.2169   41.8097 O   0  0  0  0  0  0  0  0  0  0  0  0
   28.6738   31.5230   46.7282 C   0  0  0  0  0  0  0  0  0  0  0  0
   32.0183   33.1378   43.5119 C   0  0  0  0  0  0  0  0  0  0  0  0
   34.0781   30.2717   42.1980 C   0  0  0  0  0  0  0  0  0  0  0  0
   28.8572   32.3832   45.4663 C   0  0  0  0  0  0  0  0  0  0  0  0
   30.5259   33.2183   43.9173 C   0  0  0  0  0  0  0  0  0  0  0  0
   33.7737   31.7042   42.6713 C   0  0  0  0  0  0  0  0  0  0  0  0
  1 12  1  0  0  0  0
  1 11  1  0  0  0  0
  2 13  1  0  0  0  0
  2  9  1  0  0  0  0
  3  4  1  6  0  0  0
  3  5  2  0  0  0  0
  3  6  1  0  0  0  0
  6  8  1  0  0  0  0
  7 10  1  0  0  0  0
  8 11  1  0  0  0  0
  9 12  1  0  0  0  0
 10 13  1  0  0  0  0
M  CHG  1   4  -1
M  END
>  <CHROM.1>
-178.62125206,-178.73616517,65.56797881,-179.87554067,63.89051194,178.98936050
63.47019816,-179.94099295,-176.86420945,30.86073715,31.63138461,45.76652382
0.76744833,0.59451852,-1.06547313

>  <Name>
ligand

>  <RI>
0

>  <Rbt.Current_Directory>
/home/itssahil/PROJECTS/Mol_Feturizer/New_Systems/rnas/2NPY

>  <Rbt.Executable>
rbdock ($Id: //depot/dev/client3/rdock/2013.1/src/exe/rbdock.cxx#4 $)

>  <Rbt.Library>
libRbt.so (2013.1, Build901 2013/11/27)

>  <Rbt.Parameter_File>
/export/apps/rDock/src/rDock_2013.1_src/data/scripts/dock_solv.prm

>  <Rbt.Receptor>
prm/pocket_docking_5.prm

>  <SCORE>
-10.2181

>  <SCORE.INTER>
4.00999

>  <SCORE.INTER.CONST>
1

>  <SCORE.INTER.POLAR>
0

>  <SCORE.INTER.ROT>
9

>  <SCORE.INTER.SOLV>
9.05462

>  <SCORE.INTER.VDW>
-9.94488

>  <SCORE.INTER.norm>
0.308461

>  <SCORE.INTRA>
-14.2281

>  <SCORE.INTRA.DIHEDRAL>
-25.48

>  <SCORE.INTRA.DIHEDRAL.0>
25.6828

>  <SCORE.INTRA.POLAR>
0

>  <SCORE.INTRA.POLAR.0>
0

>  <SCORE.INTRA.REPUL>
0

>  <SCORE.INTRA.REPUL.0>
0

>  <SCORE.INTRA.SOLV>
-0.885505

>  <SCORE.INTRA.SOLV.lig_0>
-48.5059

>  <SCORE.INTRA.VDW>
-1.04537

>  <SCORE.INTRA.VDW.0>
-0.363643

>  <SCORE.INTRA.norm>
-1.09447

>  <SCORE.RESTR>
0

>  <SCORE.RESTR.CAVITY>
0

>  <SCORE.RESTR.norm>
0

>  <SCORE.SYSTEM>
0

>  <SCORE.SYSTEM.CONST>
0

>  <SCORE.SYSTEM.DIHEDRAL>
0

>  <SCORE.SYSTEM.SOLV>
0

>  <SCORE.SYSTEM.norm>
0

>  <SCORE.heavy>
13

>  <SCORE.norm>
-0.786009

>  <RMSD>
6.701

$$$$
ligand
 OpenBabel11021811453D
libRbt.so/2013.1/901 2013/11/27
 13 12  0  0  0  0  0  0  0  0999 V2000
   37.6849   31.2511   45.4758 O   0  0  0  0  0  0  0  0  0  0  0  0
   35.9108   31.0429   47.8591 O   0  0  0  0  0  0  0  0  0  0  0  0
   34.6725   31.0566   42.2195 P   0  0  2  0  0  0  0  0  0  0  0  0
   33.7091   32.1898   42.3342 O   0  5  0  0  0  0  0  0  0  0  0  0
   34.2108   29.6767   42.5187 O   0  0  0  0  0  0  0  0  0  0  0  0
   35.9212   31.3503   43.1532 O   0  0  0  0  0  0  0  0  0  0  0  0
   33.7394   32.1620   50.5955 O   0  0  0  0  0  0  0  0  0  0  0  0
   36.9677   30.3820   43.3147 C   0  0  0  0  0  0  0  0  0  0  0  0
   37.2136   30.4121   47.7637 C   0  0  0  0  0  0  0  0  0  0  0  0
   34.1073   31.9457   49.2408 C   0  0  0  0  0  0  0  0  0  0  0  0
   38.1229   30.9888   44.1291 C   0  0  0  0  0  0  0  0  0  0  0  0
   37.5767   30.0577   46.3007 C   0  0  0  0  0  0  0  0  0  0  0  0
   35.5155   31.3248   49.2221 C   0  0  0  0  0  0  0  0  0  0  0  0
  1 12  1  0  0  0  0
  1 11  1  0  0  0  0
  2 13  1  0  0  0  0
  2  9  1  0  0  0  0
  3  4  1  1  0  0  0
  3  5  2  0  0  0  0
  3  6  1  0  0  0  0
  6  8  1  0  0  0  0
  7 10  1  0  0  0  0
  8 11  1  0  0  0  0
  9 12  1  0  0  0  0
 10 13  1  0  0  0  0
M  CHG  1   4  -1
M  END
>  <CHROM.1>
175.42280574,-178.03532085,175.58968083,173.18435377,66.34567878,177.08350875
63.26481739,177.95302032,75.48217743,35.67247701,31.07601757,45.40128627
-1.57345149,0.25325440,-1.65184793

>  <Name>
ligand

>  <RI>
0

>  <Rbt.Current_Directory>
/home/itssahil/PROJECTS/Mol_Feturizer/New_Systems/rnas/2NPY

>  <Rbt.Executable>
rbdock ($Id: //depot/dev/client3/rdock/2013.1/src/exe/rbdock.cxx#4 $)

>  <Rbt.Library>
libRbt.so (2013.1, Build901 2013/11/27)

>  <Rbt.Parameter_File>
/export/apps/rDock/src/rDock_2013.1_src/data/scripts/dock_solv.prm

>  <Rbt.Receptor>
prm/pocket_docking_4.prm

>  <SCORE>
-10.134

>  <SCORE.INTER>
2.75552

>  <SCORE.INTER.CONST>
1

>  <SCORE.INTER.POLAR>
0

>  <SCORE.INTER.ROT>
9

>  <SCORE.INTER.SOLV>
11.9164

>  <SCORE.INTER.VDW>
-11.7351

>  <SCORE.INTER.norm>
0.211963

>  <SCORE.INTRA>
-12.8895

>  <SCORE.INTRA.DIHEDRAL>
-23.8409

>  <SCORE.INTRA.DIHEDRAL.0>
25.6828

>  <SCORE.INTRA.POLAR>
0

>  <SCORE.INTRA.POLAR.0>
0

>  <SCORE.INTRA.REPUL>
0

>  <SCORE.INTRA.REPUL.0>
0

>  <SCORE.INTRA.SOLV>
-1.31317

>  <SCORE.INTRA.SOLV.lig_0>
-48.5059

>  <SCORE.INTRA.VDW>
-0.312523

>  <SCORE.INTRA.VDW.0>
-0.363643

>  <SCORE.INTRA.norm>
-0.991503

>  <SCORE.RESTR>
0

>  <SCORE.RESTR.CAVITY>
0

>  <SCORE.RESTR.norm>
0

>  <SCORE.SYSTEM>
0

>  <SCORE.SYSTEM.CONST>
0

>  <SCORE.SYSTEM.DIHEDRAL>
0

>  <SCORE.SYSTEM.SOLV>
0

>  <SCORE.SYSTEM.norm>
0

>  <SCORE.heavy>
13

>  <SCORE.norm>
-0.77954

>  <RMSD>
6.712

$$$$
ligand
 OpenBabel11021811453D
libRbt.so/2013.1/901 2013/11/27
 13 12  0  0  0  0  0  0  0  0999 V2000
   34.7765   31.7060   47.4767 O   0  0  0  0  0  0  0  0  0  0  0  0
   37.1864   31.3479   49.3240 O   0  0  0  0  0  0  0  0  0  0  0  0
   30.0185   32.4666   45.9602 P   0  0  2  0  0  0  0  0  0  0  0  0
   29.3697   33.3656   44.9621 O   0  5  0  0  0  0  0  0  0  0  0  0
   29.5125   32.4455   47.3568 O   0  0  0  0  0  0  0  0  0  0  0  0
   31.5672   32.8055   46.0234 O   0  0  0  0  0  0  0  0  0  0  0  0
   36.5744   33.0872   51.4811 O   0  0  0  0  0  0  0  0  0  0  0  0
   32.4363   32.1246   46.9399 C   0  0  0  0  0  0  0  0  0  0  0  0
   37.0563   30.8552   47.9658 C   0  0  0  0  0  0  0  0  0  0  0  0
   36.1998   31.7180   51.5300 C   0  0  0  0  0  0  0  0  0  0  0  0
   33.9010   32.4881   46.6424 C   0  0  0  0  0  0  0  0  0  0  0  0
   36.1782   31.7879   47.0959 C   0  0  0  0  0  0  0  0  0  0  0  0
   35.9624   31.2364   50.0875 C   0  0  0  0  0  0  0  0  0  0  0  0
  1 12  1  0  0  0  0
  1 11  1  0  0  0  0
  2 13  1  0  0  0  0
  2  9  1  0  0  0  0
  3  4  1  6  0  0  0
  3  5  2  0  0  0  0
  3  6  1  0  0  0  0
  6  8  1  0  0  0  0
  7 10  1  0  0  0  0
  8 11  1  0  0  0  0
  9 12  1  0  0  0  0
 10 13  1  0  0  0  0
M  CHG  1   4  -1
M  END
>  <CHROM.1>
-176.18118074,177.42213727,177.72156165,171.37366526,-174.47171718,70.65975934
-71.40340645,61.91046860,168.88291316,33.54980579,32.15851379,47.74674922
-0.51047370,0.22449163,-1.70157967

>  <Name>
ligand

>  <RI>
0

>  <Rbt.Current_Directory>
/home/itssahil/PROJECTS/Mol_Feturizer/New_Systems/rnas/2NPY

>  <Rbt.Executable>
rbdock ($Id: //depot/dev/client3/rdock/2013.1/src/exe/rbdock.cxx#4 $)

>  <Rbt.Library>
libRbt.so (2013.1, Build901 2013/11/27)

>  <Rbt.Parameter_File>
/export/apps/rDock/src/rDock_2013.1_src/data/scripts/dock_solv.prm

>  <Rbt.Receptor>
prm/pocket_docking_7.prm

>  <SCORE>
-9.4714

>  <SCORE.INTER>
2.7271

>  <SCORE.INTER.CONST>
1

>  <SCORE.INTER.POLAR>
0

>  <SCORE.INTER.ROT>
9

>  <SCORE.INTER.SOLV>
6.26295

>  <SCORE.INTER.VDW>
-9.86958

>  <SCORE.INTER.norm>
0.209777

>  <SCORE.INTRA>
-12.1985

>  <SCORE.INTRA.DIHEDRAL>
-23.3843

>  <SCORE.INTRA.DIHEDRAL.0>
25.6828

>  <SCORE.INTRA.POLAR>
0

>  <SCORE.INTRA.POLAR.0>
0

>  <SCORE.INTRA.REPUL>
0

>  <SCORE.INTRA.REPUL.0>
0

>  <SCORE.INTRA.SOLV>
-0.958097

>  <SCORE.INTRA.SOLV.lig_0>
-48.5059

>  <SCORE.INTRA.VDW>
-0.0272812

>  <SCORE.INTRA.VDW.0>
-0.363643

>  <SCORE.INTRA.norm>
-0.938346

>  <SCORE.RESTR>
0

>  <SCORE.RESTR.CAVITY>
0

>  <SCORE.RESTR.norm>
0

>  <SCORE.SYSTEM>
0

>  <SCORE.SYSTEM.CONST>
0

>  <SCORE.SYSTEM.DIHEDRAL>
0

>  <SCORE.SYSTEM.SOLV>
0

>  <SCORE.SYSTEM.norm>
0

>  <SCORE.heavy>
13

>  <SCORE.norm>
-0.728569

>  <RMSD>
6.745

$$$$
ligand
 OpenBabel11021811453D
libRbt.so/2013.1/901 2013/11/27
 13 12  0  0  0  0  0  0  0  0999 V2000
   28.8650   34.0956   46.1441 O   0  0  0  0  0  0  0  0  0  0  0  0
   31.1798   32.2405   45.5949 O   0  0  0  0  0  0  0  0  0  0  0  0
   28.5485   38.4245   46.4891 P   0  0  2  0  0  0  0  0  0  0  0  0
   27.1136   38.7989   46.3268 O   0  5  0  0  0  0  0  0  0  0  0  0
   29.5974   39.2854   45.8845 O   0  0  0  0  0  0  0  0  0  0  0  0
   28.7606   36.9557   45.9278 O   0  0  0  0  0  0  0  0  0  0  0  0
   32.7099   32.1559   42.2621 O   0  0  0  0  0  0  0  0  0  0  0  0
   29.9950   36.2550   46.1378 C   0  0  0  0  0  0  0  0  0  0  0  0
   29.9045   31.8418   46.1596 C   0  0  0  0  0  0  0  0  0  0  0  0
   32.6653   32.4027   43.6601 C   0  0  0  0  0  0  0  0  0  0  0  0
   29.9150   34.8522   45.5120 C   0  0  0  0  0  0  0  0  0  0  0  0
   28.7447   32.7325   45.6503 C   0  0  0  0  0  0  0  0  0  0  0  0
   31.2824   31.9683   44.1776 C   0  0  0  0  0  0  0  0  0  0  0  0
  1 12  1  0  0  0  0
  1 11  1  0  0  0  0
  2 13  1  0  0  0  0
  2  9  1  0  0  0  0
  3  4  1  6  0  0  0
  3  5  2  0  0  0  0
  3  6  1  0  0  0  0
  6  8  1  0  0  0  0
  7 10  1  0  0  0  0
  8 11  1  0  0  0  0
  9 12  1  0  0  0  0
 10 13  1  0  0  0  0
M  CHG  1   4  -1
M  END
>  <CHROM.1>
73.14627156,-179.31757850,-170.37858073,179.00174499,-61.51013491,-68.94295793
-67.24959469,-178.28945982,-177.86370919,29.81917931,35.10915954,45.46684013
1.00359308,-0.68668006,3.07315744

>  <Name>
ligand

>  <RI>
0

>  <Rbt.Current_Directory>
/home/itssahil/PROJECTS/Mol_Feturizer/New_Systems/rnas/2NPY

>  <Rbt.Executable>
rbdock ($Id: //depot/dev/client3/rdock/2013.1/src/exe/rbdock.cxx#4 $)

>  <Rbt.Library>
libRbt.so (2013.1, Build901 2013/11/27)

>  <Rbt.Parameter_File>
/export/apps/rDock/src/rDock_2013.1_src/data/scripts/dock_solv.prm

>  <Rbt.Receptor>
prm/pocket_docking_3.prm

>  <SCORE>
-5.58994

>  <SCORE.INTER>
6.59468

>  <SCORE.INTER.CONST>
1

>  <SCORE.INTER.POLAR>
0

>  <SCORE.INTER.ROT>
9

>  <SCORE.INTER.SOLV>
11.1404

>  <SCORE.INTER.VDW>
-8.917

>  <SCORE.INTER.norm>
0.507283

>  <SCORE.INTRA>
-12.1846

>  <SCORE.INTRA.DIHEDRAL>
-24.1797

>  <SCORE.INTRA.DIHEDRAL.0>
25.6828

>  <SCORE.INTRA.POLAR>
0

>  <SCORE.INTRA.POLAR.0>
0

>  <SCORE.INTRA.REPUL>
0

>  <SCORE.INTRA.REPUL.0>
0

>  <SCORE.INTRA.SOLV>
-1.03404

>  <SCORE.INTRA.SOLV.lig_0>
-48.5059

>  <SCORE.INTRA.VDW>
0.42227

>  <SCORE.INTRA.VDW.0>
-0.363643

>  <SCORE.INTRA.norm>
-0.937279

>  <SCORE.RESTR>
0

>  <SCORE.RESTR.CAVITY>
0

>  <SCORE.RESTR.norm>
0

>  <SCORE.SYSTEM>
0

>  <SCORE.SYSTEM.CONST>
0

>  <SCORE.SYSTEM.DIHEDRAL>
0

>  <SCORE.SYSTEM.SOLV>
0

>  <SCORE.SYSTEM.norm>
0

>  <SCORE.heavy>
13

>  <SCORE.norm>
-0.429995

>  <RMSD>
6.752

$$$$
ligand
 OpenBabel11021811453D
libRbt.so/2013.1/901 2013/11/27
 13 12  0  0  0  0  0  0  0  0999 V2000
   25.3853   32.2882   47.4344 O   0  0  0  0  0  0  0  0  0  0  0  0
   22.7233   33.5198   47.4408 O   0  0  0  0  0  0  0  0  0  0  0  0
   29.1842   32.6976   45.2218 P   0  0  2  0  0  0  0  0  0  0  0  0
   30.5038   32.4873   45.8851 O   0  5  0  0  0  0  0  0  0  0  0  0
   28.8776   34.0186   44.6155 O   0  0  0  0  0  0  0  0  0  0  0  0
   28.0312   32.3761   46.2633 O   0  0  0  0  0  0  0  0  0  0  0  0
   20.4305   35.9860   45.9938 O   0  0  0  0  0  0  0  0  0  0  0  0
   27.1212   31.2881   46.0463 C   0  0  0  0  0  0  0  0  0  0  0  0
   23.5459   33.4456   48.6333 C   0  0  0  0  0  0  0  0  0  0  0  0
   21.0900   34.7313   46.0838 C   0  0  0  0  0  0  0  0  0  0  0  0
   26.2070   31.1165   47.2714 C   0  0  0  0  0  0  0  0  0  0  0  0
   24.5093   32.2339   48.5946 C   0  0  0  0  0  0  0  0  0  0  0  0
   21.9115   34.7162   47.3853 C   0  0  0  0  0  0  0  0  0  0  0  0
  1 12  1  0  0  0  0
  1 11  1  0  0  0  0
  2 13  1  0  0  0  0
  2  9  1  0  0  0  0
  3  4  1  1  0  0  0
  3  5  2  0  0  0  0
  3  6  1  0  0  0  0
  6  8  1  0  0  0  0
  7 10  1  0  0  0  0
  8 11  1  0  0  0  0
  9 12  1  0  0  0  0
 10 13  1  0  0  0  0
M  CHG  1   4  -1
M  END
>  <CHROM.1>
-173.88247283,179.01885528,-115.96787330,174.21542908,64.01649769,-174.03174281
58.45198671,-173.30905426,-178.39406535,25.69180155,33.12730455,46.54203883
3.08675789,0.31507424,-0.78171508

>  <Name>
ligand

>  <RI>
0

>  <Rbt.Current_Directory>
/home/itssahil/PROJECTS/Mol_Feturizer/New_Systems/rnas/2NPY

>  <Rbt.Executable>
rbdock ($Id: //depot/dev/client3/rdock/2013.1/src/exe/rbdock.cxx#4 $)

>  <Rbt.Library>
libRbt.so (2013.1, Build901 2013/11/27)

>  <Rbt.Parameter_File>
/export/apps/rDock/src/rDock_2013.1_src/data/scripts/dock_solv.prm

>  <Rbt.Receptor>
prm/pocket_docking_8.prm

>  <SCORE>
-10.82

>  <SCORE.INTER>
2.78446

>  <SCORE.INTER.CONST>
1

>  <SCORE.INTER.POLAR>
0

>  <SCORE.INTER.ROT>
9

>  <SCORE.INTER.SOLV>
9.77497

>  <SCORE.INTER.VDW>
-11.002

>  <SCORE.INTER.norm>
0.214189

>  <SCORE.INTRA>
-13.6045

>  <SCORE.INTRA.DIHEDRAL>
-23.3374

>  <SCORE.INTRA.DIHEDRAL.0>
25.6828

>  <SCORE.INTRA.POLAR>
0

>  <SCORE.INTRA.POLAR.0>
0

>  <SCORE.INTRA.REPUL>
0

>  <SCORE.INTRA.REPUL.0>
0

>  <SCORE.INTRA.SOLV>
-1.54789

>  <SCORE.INTRA.SOLV.lig_0>
-48.5059

>  <SCORE.INTRA.VDW>
-1.16185

>  <SCORE.INTRA.VDW.0>
-0.363643

>  <SCORE.INTRA.norm>
-1.0465

>  <SCORE.RESTR>
0

>  <SCORE.RESTR.CAVITY>
0

>  <SCORE.RESTR.norm>
0

>  <SCORE.SYSTEM>
0

>  <SCORE.SYSTEM.CONST>
0

>  <SCORE.SYSTEM.DIHEDRAL>
0

>  <SCORE.SYSTEM.SOLV>
0

>  <SCORE.SYSTEM.norm>
0

>  <SCORE.heavy>
13

>  <SCORE.norm>
-0.832309

>  <RMSD>
6.755

$$$$
ligand
 OpenBabel11021811453D
libRbt.so/2013.1/901 2013/11/27
 13 12  0  0  0  0  0  0  0  0999 V2000
   34.8420   31.1742   49.6232 O   0  0  0  0  0  0  0  0  0  0  0  0
   32.4116   30.3027   51.1279 O   0  0  0  0  0  0  0  0  0  0  0  0
   38.8943   30.2602   46.7301 P   0  0  2  0  0  0  0  0  0  0  0  0
   38.4203   31.0677   45.5688 O   0  5  0  0  0  0  0  0  0  0  0  0
   38.7649   28.7809   46.6882 O   0  0  0  0  0  0  0  0  0  0  0  0
   38.1527   30.7629   48.0395 O   0  0  0  0  0  0  0  0  0  0  0  0
   29.3333   28.5084   52.0007 O   0  0  0  0  0  0  0  0  0  0  0  0
   36.7291   30.6441   48.1748 C   0  0  0  0  0  0  0  0  0  0  0  0
   32.7625   31.6877   50.8772 C   0  0  0  0  0  0  0  0  0  0  0  0
   30.7263   28.6487   51.7611 C   0  0  0  0  0  0  0  0  0  0  0  0
   36.2689   31.3107   49.4824 C   0  0  0  0  0  0  0  0  0  0  0  0
   34.2948   31.8837   50.7693 C   0  0  0  0  0  0  0  0  0  0  0  0
   30.9956   30.1081   51.3530 C   0  0  0  0  0  0  0  0  0  0  0  0
  1 12  1  0  0  0  0
  1 11  1  0  0  0  0
  2 13  1  0  0  0  0
  2  9  1  0  0  0  0
  3  4  1  6  0  0  0
  3  5  2  0  0  0  0
  3  6  1  0  0  0  0
  6  8  1  0  0  0  0
  7 10  1  0  0  0  0
  8 11  1  0  0  0  0
  9 12  1  0  0  0  0
 10 13  1  0  0  0  0
M  CHG  1   4  -1
M  END
>  <CHROM.1>
-179.37856206,-173.86396003,63.40784643,-175.37451127,-179.25680058,174.77272021
64.31266914,178.72225342,-174.52653962,35.17087593,30.36794238,49.15413069
-3.00271382,-0.55188950,-2.75196094

>  <Name>
ligand

>  <RI>
0

>  <Rbt.Current_Directory>
/home/itssahil/PROJECTS/Mol_Feturizer/New_Systems/rnas/2NPY

>  <Rbt.Executable>
rbdock ($Id: //depot/dev/client3/rdock/2013.1/src/exe/rbdock.cxx#4 $)

>  <Rbt.Library>
libRbt.so (2013.1, Build901 2013/11/27)

>  <Rbt.Parameter_File>
/export/apps/rDock/src/rDock_2013.1_src/data/scripts/dock_solv.prm

>  <Rbt.Receptor>
prm/pocket_docking_8.prm

>  <SCORE>
-12.3337

>  <SCORE.INTER>
1.55608

>  <SCORE.INTER.CONST>
1

>  <SCORE.INTER.POLAR>
0

>  <SCORE.INTER.ROT>
9

>  <SCORE.INTER.SOLV>
9.66538

>  <SCORE.INTER.VDW>
-11.7844

>  <SCORE.INTER.norm>
0.119698

>  <SCORE.INTRA>
-13.8898

>  <SCORE.INTRA.DIHEDRAL>
-24.9997

>  <SCORE.INTRA.DIHEDRAL.0>
25.6828

>  <SCORE.INTRA.POLAR>
0

>  <SCORE.INTRA.POLAR.0>
0

>  <SCORE.INTRA.REPUL>
0

>  <SCORE.INTRA.REPUL.0>
0

>  <SCORE.INTRA.SOLV>
-0.996363

>  <SCORE.INTRA.SOLV.lig_0>
-48.5059

>  <SCORE.INTRA.VDW>
-0.891776

>  <SCORE.INTRA.VDW.0>
-0.363643

>  <SCORE.INTRA.norm>
-1.06845

>  <SCORE.RESTR>
0

>  <SCORE.RESTR.CAVITY>
0

>  <SCORE.RESTR.norm>
0

>  <SCORE.SYSTEM>
0

>  <SCORE.SYSTEM.CONST>
0

>  <SCORE.SYSTEM.DIHEDRAL>
0

>  <SCORE.SYSTEM.SOLV>
0

>  <SCORE.SYSTEM.norm>
0

>  <SCORE.heavy>
13

>  <SCORE.norm>
-0.948749

>  <RMSD>
6.781

$$$$
ligand
 OpenBabel11021811453D
libRbt.so/2013.1/901 2013/11/27
 13 12  0  0  0  0  0  0  0  0999 V2000
   36.2582   30.3670   44.1041 O   0  0  0  0  0  0  0  0  0  0  0  0
   33.8790   31.8148   43.3024 O   0  0  0  0  0  0  0  0  0  0  0  0
   39.6325   29.4521   47.7662 P   0  0  2  0  0  0  0  0  0  0  0  0
   39.2535   30.6041   48.6348 O   0  5  0  0  0  0  0  0  0  0  0  0
   41.0512   29.0141   47.7176 O   0  0  0  0  0  0  0  0  0  0  0  0
   39.1826   29.7644   46.2771 O   0  0  0  0  0  0  0  0  0  0  0  0
   30.4342   32.8853   43.9691 O   0  0  0  0  0  0  0  0  0  0  0  0
   37.7952   29.8987   45.9367 C   0  0  0  0  0  0  0  0  0  0  0  0
   34.5104   30.8594   42.4120 C   0  0  0  0  0  0  0  0  0  0  0  0
   31.8400   32.8490   44.1683 C   0  0  0  0  0  0  0  0  0  0  0  0
   37.6524   30.2490   44.4458 C   0  0  0  0  0  0  0  0  0  0  0  0
   36.0223   30.7064   42.7092 C   0  0  0  0  0  0  0  0  0  0  0  0
   32.4462   31.8998   43.1193 C   0  0  0  0  0  0  0  0  0  0  0  0
  1 12  1  0  0  0  0
  1 11  1  0  0  0  0
  2 13  1  0  0  0  0
  2  9  1  0  0  0  0
  3  4  1  1  0  0  0
  3  5  2  0  0  0  0
  3  6  1  0  0  0  0
  6  8  1  0  0  0  0
  7 10  1  0  0  0  0
  8 11  1  0  0  0  0
  9 12  1  0  0  0  0
 10 13  1  0  0  0  0
M  CHG  1   4  -1
M  END
>  <CHROM.1>
-178.35276062,175.67510255,-64.76050332,177.95524856,179.30569497,-175.35083543
54.61034280,-178.97529171,179.62838833,36.45953841,30.68615091,45.23041215
-2.72483783,-0.41875470,1.38194385

>  <Name>
ligand

>  <RI>
0

>  <Rbt.Current_Directory>
/home/itssahil/PROJECTS/Mol_Feturizer/New_Systems/rnas/2NPY

>  <Rbt.Executable>
rbdock ($Id: //depot/dev/client3/rdock/2013.1/src/exe/rbdock.cxx#4 $)

>  <Rbt.Library>
libRbt.so (2013.1, Build901 2013/11/27)

>  <Rbt.Parameter_File>
/export/apps/rDock/src/rDock_2013.1_src/data/scripts/dock_solv.prm

>  <Rbt.Receptor>
prm/pocket_docking_8.prm

>  <SCORE>
-11.205

>  <SCORE.INTER>
3.09262

>  <SCORE.INTER.CONST>
1

>  <SCORE.INTER.POLAR>
0

>  <SCORE.INTER.ROT>
9

>  <SCORE.INTER.SOLV>
10.1331

>  <SCORE.INTER.VDW>
-10.9159

>  <SCORE.INTER.norm>
0.237894

>  <SCORE.INTRA>
-14.2976

>  <SCORE.INTRA.DIHEDRAL>
-25.2034

>  <SCORE.INTRA.DIHEDRAL.0>
25.6828

>  <SCORE.INTRA.POLAR>
0

>  <SCORE.INTRA.POLAR.0>
0

>  <SCORE.INTRA.REPUL>
0

>  <SCORE.INTRA.REPUL.0>
0

>  <SCORE.INTRA.SOLV>
-1.45403

>  <SCORE.INTRA.SOLV.lig_0>
-48.5059

>  <SCORE.INTRA.VDW>
-0.96887

>  <SCORE.INTRA.VDW.0>
-0.363643

>  <SCORE.INTRA.norm>
-1.09981

>  <SCORE.RESTR>
0

>  <SCORE.RESTR.CAVITY>
0

>  <SCORE.RESTR.norm>
0

>  <SCORE.SYSTEM>
0

>  <SCORE.SYSTEM.CONST>
0

>  <SCORE.SYSTEM.DIHEDRAL>
0

>  <SCORE.SYSTEM.SOLV>
0

>  <SCORE.SYSTEM.norm>
0

>  <SCORE.heavy>
13

>  <SCORE.norm>
-0.86192

>  <RMSD>
6.790

$$$$
ligand
 OpenBabel11021811453D
libRbt.so/2013.1/901 2013/11/27
 13 12  0  0  0  0  0  0  0  0999 V2000
   31.5284   30.6152   49.4219 O   0  0  0  0  0  0  0  0  0  0  0  0
   34.4115   30.8726   49.5159 O   0  0  0  0  0  0  0  0  0  0  0  0
   29.0934   32.6466   45.4748 P   0  0  2  0  0  0  0  0  0  0  0  0
   29.1961   33.9833   44.8205 O   0  5  0  0  0  0  0  0  0  0  0  0
   27.7509   32.0695   45.7426 O   0  0  0  0  0  0  0  0  0  0  0  0
   29.8728   32.6919   46.8560 O   0  0  0  0  0  0  0  0  0  0  0  0
   37.7763   31.3791   48.1449 O   0  0  0  0  0  0  0  0  0  0  0  0
   30.3384   31.4877   47.4821 C   0  0  0  0  0  0  0  0  0  0  0  0
   33.5674   31.5647   50.4712 C   0  0  0  0  0  0  0  0  0  0  0  0
   36.5167   30.7367   48.2803 C   0  0  0  0  0  0  0  0  0  0  0  0
   31.0791   31.8272   48.7867 C   0  0  0  0  0  0  0  0  0  0  0  0
   32.2185   30.8346   50.6836 C   0  0  0  0  0  0  0  0  0  0  0  0
   35.6983   31.5079   49.3313 C   0  0  0  0  0  0  0  0  0  0  0  0
  1 12  1  0  0  0  0
  1 11  1  0  0  0  0
  2 13  1  0  0  0  0
  2  9  1  0  0  0  0
  3  4  1  1  0  0  0
  3  5  2  0  0  0  0
  3  6  1  0  0  0  0
  6  8  1  0  0  0  0
  7 10  1  0  0  0  0
  8 11  1  0  0  0  0
  9 12  1  0  0  0  0
 10 13  1  0  0  0  0
M  CHG  1   4  -1
M  END
>  <CHROM.1>
-66.98979319,-178.55438649,-158.51598092,178.91140805,179.19043820,-178.02220037
-54.37802820,-179.11107298,-178.76412625,31.95550676,31.79694395,47.83186307
0.50798562,-0.03159126,1.94979393

>  <Name>
ligand

>  <RI>
0

>  <Rbt.Current_Directory>
/home/itssahil/PROJECTS/Mol_Feturizer/New_Systems/rnas/2NPY

>  <Rbt.Executable>
rbdock ($Id: //depot/dev/client3/rdock/2013.1/src/exe/rbdock.cxx#4 $)

>  <Rbt.Library>
libRbt.so (2013.1, Build901 2013/11/27)

>  <Rbt.Parameter_File>
/export/apps/rDock/src/rDock_2013.1_src/data/scripts/dock_solv.prm

>  <Rbt.Receptor>
prm/pocket_docking_5.prm

>  <SCORE>
-11.6767

>  <SCORE.INTER>
1.69634

>  <SCORE.INTER.CONST>
1

>  <SCORE.INTER.POLAR>
0

>  <SCORE.INTER.ROT>
9

>  <SCORE.INTER.SOLV>
6.92999

>  <SCORE.INTER.VDW>
-10.7791

>  <SCORE.INTER.norm>
0.130488

>  <SCORE.INTRA>
-13.373

>  <SCORE.INTRA.DIHEDRAL>
-24.9842

>  <SCORE.INTRA.DIHEDRAL.0>
25.6828

>  <SCORE.INTRA.POLAR>
0

>  <SCORE.INTRA.POLAR.0>
0

>  <SCORE.INTRA.REPUL>
0

>  <SCORE.INTRA.REPUL.0>
0

>  <SCORE.INTRA.SOLV>
-1.39494

>  <SCORE.INTRA.SOLV.lig_0>
-48.5059

>  <SCORE.INTRA.VDW>
-0.183445

>  <SCORE.INTRA.VDW.0>
-0.363643

>  <SCORE.INTRA.norm>
-1.02869

>  <SCORE.RESTR>
0

>  <SCORE.RESTR.CAVITY>
0

>  <SCORE.RESTR.norm>
0

>  <SCORE.SYSTEM>
0

>  <SCORE.SYSTEM.CONST>
0

>  <SCORE.SYSTEM.DIHEDRAL>
0

>  <SCORE.SYSTEM.SOLV>
0

>  <SCORE.SYSTEM.norm>
0

>  <SCORE.heavy>
13

>  <SCORE.norm>
-0.898204

>  <RMSD>
6.796

$$$$
ligand
 OpenBabel11021811453D
libRbt.so/2013.1/901 2013/11/27
 13 12  0  0  0  0  0  0  0  0999 V2000
   37.1003   30.6158   45.6365 O   0  0  0  0  0  0  0  0  0  0  0  0
   36.0221   30.6461   48.3272 O   0  0  0  0  0  0  0  0  0  0  0  0
   34.2882   30.6964   42.1838 P   0  0  2  0  0  0  0  0  0  0  0  0
   34.7936   30.4209   40.8076 O   0  5  0  0  0  0  0  0  0  0  0  0
   33.8664   32.0753   42.5410 O   0  0  0  0  0  0  0  0  0  0  0  0
   35.3930   30.2531   43.2327 O   0  0  0  0  0  0  0  0  0  0  0  0
   33.8289   32.0152   50.9298 O   0  0  0  0  0  0  0  0  0  0  0  0
   36.6881   30.8705   43.2479 C   0  0  0  0  0  0  0  0  0  0  0  0
   37.4533   30.6124   48.0933 C   0  0  0  0  0  0  0  0  0  0  0  0
   34.1345   31.3671   49.7034 C   0  0  0  0  0  0  0  0  0  0  0  0
   37.5659   30.2218   44.3317 C   0  0  0  0  0  0  0  0  0  0  0  0
   37.7997   29.9616   46.7316 C   0  0  0  0  0  0  0  0  0  0  0  0
   35.6661   31.2880   49.5741 C   0  0  0  0  0  0  0  0  0  0  0  0
  1 12  1  0  0  0  0
  1 11  1  0  0  0  0
  2 13  1  0  0  0  0
  2  9  1  0  0  0  0
  3  4  1  6  0  0  0
  3  5  2  0  0  0  0
  3  6  1  0  0  0  0
  6  8  1  0  0  0  0
  7 10  1  0  0  0  0
  8 11  1  0  0  0  0
  9 12  1  0  0  0  0
 10 13  1  0  0  0  0
M  CHG  1   4  -1
M  END
>  <CHROM.1>
169.14945781,176.24311937,61.85099250,-178.31123916,-71.54798068,-178.14209087
54.68938954,-179.35630733,175.10269259,35.59004813,30.84593473,45.47471711
-1.51136799,0.32082000,-1.65379009

>  <Name>
ligand

>  <RI>
0

>  <Rbt.Current_Directory>
/home/itssahil/PROJECTS/Mol_Feturizer/New_Systems/rnas/2NPY

>  <Rbt.Executable>
rbdock ($Id: //depot/dev/client3/rdock/2013.1/src/exe/rbdock.cxx#4 $)

>  <Rbt.Library>
libRbt.so (2013.1, Build901 2013/11/27)

>  <Rbt.Parameter_File>
/export/apps/rDock/src/rDock_2013.1_src/data/scripts/dock_solv.prm

>  <Rbt.Receptor>
prm/pocket_docking_7.prm

>  <SCORE>
-13.7511

>  <SCORE.INTER>
-0.0745163

>  <SCORE.INTER.CONST>
1

>  <SCORE.INTER.POLAR>
0

>  <SCORE.INTER.ROT>
9

>  <SCORE.INTER.SOLV>
11.0099

>  <SCORE.INTER.VDW>
-13.3196

>  <SCORE.INTER.norm>
-0.00573203

>  <SCORE.INTRA>
-13.6766

>  <SCORE.INTRA.DIHEDRAL>
-24.261

>  <SCORE.INTRA.DIHEDRAL.0>
25.6828

>  <SCORE.INTRA.POLAR>
0

>  <SCORE.INTRA.POLAR.0>
0

>  <SCORE.INTRA.REPUL>
0

>  <SCORE.INTRA.REPUL.0>
0

>  <SCORE.INTRA.SOLV>
-0.928945

>  <SCORE.INTRA.SOLV.lig_0>
-48.5059

>  <SCORE.INTRA.VDW>
-1.08164

>  <SCORE.INTRA.VDW.0>
-0.363643

>  <SCORE.INTRA.norm>
-1.05205

>  <SCORE.RESTR>
0

>  <SCORE.RESTR.CAVITY>
0

>  <SCORE.RESTR.norm>
0

>  <SCORE.SYSTEM>
0

>  <SCORE.SYSTEM.CONST>
0

>  <SCORE.SYSTEM.DIHEDRAL>
0

>  <SCORE.SYSTEM.SOLV>
0

>  <SCORE.SYSTEM.norm>
0

>  <SCORE.heavy>
13

>  <SCORE.norm>
-1.05778

>  <RMSD>
6.836

$$$$
ligand
 OpenBabel11021811453D
libRbt.so/2013.1/901 2013/11/27
 13 12  0  0  0  0  0  0  0  0999 V2000
   37.0229   30.7689   46.7425 O   0  0  0  0  0  0  0  0  0  0  0  0
   35.5898   30.8803   49.2708 O   0  0  0  0  0  0  0  0  0  0  0  0
   37.0085   30.5978   41.6845 P   0  0  2  0  0  0  0  0  0  0  0  0
   35.5265   30.4810   41.5608 O   0  5  0  0  0  0  0  0  0  0  0  0
   37.8774   29.8955   40.7054 O   0  0  0  0  0  0  0  0  0  0  0  0
   37.4407   30.1141   43.1325 O   0  0  0  0  0  0  0  0  0  0  0  0
   32.9616   31.8914   49.1096 O   0  0  0  0  0  0  0  0  0  0  0  0
   36.8826   30.7151   44.3099 C   0  0  0  0  0  0  0  0  0  0  0  0
   37.0303   31.0392   49.2098 C   0  0  0  0  0  0  0  0  0  0  0  0
   33.4591   31.4057   50.3482 C   0  0  0  0  0  0  0  0  0  0  0  0
   37.5510   30.1290   45.5652 C   0  0  0  0  0  0  0  0  0  0  0  0
   37.6382   30.3184   47.9814 C   0  0  0  0  0  0  0  0  0  0  0  0
   34.9844   31.6108   50.3632 C   0  0  0  0  0  0  0  0  0  0  0  0
  1 12  1  0  0  0  0
  1 11  1  0  0  0  0
  2 13  1  0  0  0  0
  2  9  1  0  0  0  0
  3  4  1  6  0  0  0
  3  5  2  0  0  0  0
  3  6  1  0  0  0  0
  6  8  1  0  0  0  0
  7 10  1  0  0  0  0
  8 11  1  0  0  0  0
  9 12  1  0  0  0  0
 10 13  1  0  0  0  0
M  CHG  1   4  -1
M  END
>  <CHROM.1>
-179.95944162,179.28579135,-56.16922309,-175.86792715,177.93956503,-176.47689543
55.74482203,-60.17605689,-177.53549844,36.28238670,30.73986141,45.73421995
-1.85101930,0.24870641,-1.62677819

>  <Name>
ligand

>  <RI>
0

>  <Rbt.Current_Directory>
/home/itssahil/PROJECTS/Mol_Feturizer/New_Systems/rnas/2NPY

>  <Rbt.Executable>
rbdock ($Id: //depot/dev/client3/rdock/2013.1/src/exe/rbdock.cxx#4 $)

>  <Rbt.Library>
libRbt.so (2013.1, Build901 2013/11/27)

>  <Rbt.Parameter_File>
/export/apps/rDock/src/rDock_2013.1_src/data/scripts/dock_solv.prm

>  <Rbt.Receptor>
prm/pocket_docking_6.prm

>  <SCORE>
-13.3169

>  <SCORE.INTER>
0.951927

>  <SCORE.INTER.CONST>
1

>  <SCORE.INTER.POLAR>
0

>  <SCORE.INTER.ROT>
9

>  <SCORE.INTER.SOLV>
8.23956

>  <SCORE.INTER.VDW>
-11.7119

>  <SCORE.INTER.norm>
0.0732252

>  <SCORE.INTRA>
-14.2688

>  <SCORE.INTRA.DIHEDRAL>
-25.3896

>  <SCORE.INTRA.DIHEDRAL.0>
25.6828

>  <SCORE.INTRA.POLAR>
0

>  <SCORE.INTRA.POLAR.0>
0

>  <SCORE.INTRA.REPUL>
0

>  <SCORE.INTRA.REPUL.0>
0

>  <SCORE.INTRA.SOLV>
-1.16736

>  <SCORE.INTRA.SOLV.lig_0>
-48.5059

>  <SCORE.INTRA.VDW>
-0.990302

>  <SCORE.INTRA.VDW.0>
-0.363643

>  <SCORE.INTRA.norm>
-1.0976

>  <SCORE.RESTR>
0

>  <SCORE.RESTR.CAVITY>
0

>  <SCORE.RESTR.norm>
0

>  <SCORE.SYSTEM>
0

>  <SCORE.SYSTEM.CONST>
0

>  <SCORE.SYSTEM.DIHEDRAL>
0

>  <SCORE.SYSTEM.SOLV>
0

>  <SCORE.SYSTEM.norm>
0

>  <SCORE.heavy>
13

>  <SCORE.norm>
-1.02437

>  <RMSD>
6.865

$$$$
ligand
 OpenBabel11021811453D
libRbt.so/2013.1/901 2013/11/27
 13 12  0  0  0  0  0  0  0  0999 V2000
   30.5362   32.1016   44.6972 O   0  0  0  0  0  0  0  0  0  0  0  0
   33.0079   31.4501   43.1064 O   0  0  0  0  0  0  0  0  0  0  0  0
   29.1553   31.3797   48.8603 P   0  0  2  0  0  0  0  0  0  0  0  0
   29.8004   30.0368   48.7836 O   0  5  0  0  0  0  0  0  0  0  0  0
   28.3108   31.7145   50.0357 O   0  0  0  0  0  0  0  0  0  0  0  0
   28.2675   31.5955   47.5632 O   0  0  0  0  0  0  0  0  0  0  0  0
   35.6086   30.2574   43.0475 O   0  0  0  0  0  0  0  0  0  0  0  0
   28.8071   31.3726   46.2524 C   0  0  0  0  0  0  0  0  0  0  0  0
   32.2221   32.6610   42.9636 C   0  0  0  0  0  0  0  0  0  0  0  0
   34.5876   29.8488   42.1487 C   0  0  0  0  0  0  0  0  0  0  0  0
   29.8991   32.4130   45.9507 C   0  0  0  0  0  0  0  0  0  0  0  0
   31.5452   33.0694   44.2951 C   0  0  0  0  0  0  0  0  0  0  0  0
   33.6737   31.0584   41.8829 C   0  0  0  0  0  0  0  0  0  0  0  0
  1 12  1  0  0  0  0
  1 11  1  0  0  0  0
  2 13  1  0  0  0  0
  2  9  1  0  0  0  0
  3  4  1  1  0  0  0
  3  5  2  0  0  0  0
  3  6  1  0  0  0  0
  6  8  1  0  0  0  0
  7 10  1  0  0  0  0
  8 11  1  0  0  0  0
  9 12  1  0  0  0  0
 10 13  1  0  0  0  0
M  CHG  1   4  -1
M  END
>  <CHROM.1>
178.37494325,174.67150149,-50.54623951,-66.54747851,173.91632258,-178.87905141
-66.61660976,-64.30776351,177.28606118,31.00844301,31.43715095,45.68220659
0.68264941,0.59068464,-1.02906243

>  <Name>
ligand

>  <RI>
0

>  <Rbt.Current_Directory>
/home/itssahil/PROJECTS/Mol_Feturizer/New_Systems/rnas/2NPY

>  <Rbt.Executable>
rbdock ($Id: //depot/dev/client3/rdock/2013.1/src/exe/rbdock.cxx#4 $)

>  <Rbt.Library>
libRbt.so (2013.1, Build901 2013/11/27)

>  <Rbt.Parameter_File>
/export/apps/rDock/src/rDock_2013.1_src/data/scripts/dock_solv.prm

>  <Rbt.Receptor>
prm/pocket_docking_5.prm

>  <SCORE>
-9.6911

>  <SCORE.INTER>
3.3758

>  <SCORE.INTER.CONST>
1

>  <SCORE.INTER.POLAR>
0

>  <SCORE.INTER.ROT>
9

>  <SCORE.INTER.SOLV>
11.3768

>  <SCORE.INTER.VDW>
-11.1417

>  <SCORE.INTER.norm>
0.259677

>  <SCORE.INTRA>
-13.0669

>  <SCORE.INTRA.DIHEDRAL>
-24.8574

>  <SCORE.INTRA.DIHEDRAL.0>
25.6828

>  <SCORE.INTRA.POLAR>
0

>  <SCORE.INTRA.POLAR.0>
0

>  <SCORE.INTRA.REPUL>
0

>  <SCORE.INTRA.REPUL.0>
0

>  <SCORE.INTRA.SOLV>
0.0960645

>  <SCORE.INTRA.SOLV.lig_0>
-48.5059

>  <SCORE.INTRA.VDW>
-0.686227

>  <SCORE.INTRA.VDW.0>
-0.363643

>  <SCORE.INTRA.norm>
-1.00515

>  <SCORE.RESTR>
0

>  <SCORE.RESTR.CAVITY>
0

>  <SCORE.RESTR.norm>
0

>  <SCORE.SYSTEM>
0

>  <SCORE.SYSTEM.CONST>
0

>  <SCORE.SYSTEM.DIHEDRAL>
0

>  <SCORE.SYSTEM.SOLV>
0

>  <SCORE.SYSTEM.norm>
0

>  <SCORE.heavy>
13

>  <SCORE.norm>
-0.745469

>  <RMSD>
6.867

$$$$
ligand
 OpenBabel11021811453D
libRbt.so/2013.1/901 2013/11/27
 13 12  0  0  0  0  0  0  0  0999 V2000
   36.7181   30.5846   45.1755 O   0  0  0  0  0  0  0  0  0  0  0  0
   36.2233   30.5930   47.9890 O   0  0  0  0  0  0  0  0  0  0  0  0
   33.9992   32.4952   42.4384 P   0  0  2  0  0  0  0  0  0  0  0  0
   34.1191   32.3577   40.9578 O   0  5  0  0  0  0  0  0  0  0  0  0
   33.7533   33.8371   43.0264 O   0  0  0  0  0  0  0  0  0  0  0  0
   35.3130   31.9164   43.1139 O   0  0  0  0  0  0  0  0  0  0  0  0
   34.4494   31.8428   50.9467 O   0  0  0  0  0  0  0  0  0  0  0  0
   35.6663   30.5324   42.9775 C   0  0  0  0  0  0  0  0  0  0  0  0
   37.5872   30.6576   47.4993 C   0  0  0  0  0  0  0  0  0  0  0  0
   34.5643   31.2694   49.6524 C   0  0  0  0  0  0  0  0  0  0  0  0
   36.9334   30.2313   43.7960 C   0  0  0  0  0  0  0  0  0  0  0  0
   37.7205   30.0470   46.0825 C   0  0  0  0  0  0  0  0  0  0  0  0
   36.0589   31.2018   49.2913 C   0  0  0  0  0  0  0  0  0  0  0  0
  1 12  1  0  0  0  0
  1 11  1  0  0  0  0
  2 13  1  0  0  0  0
  2  9  1  0  0  0  0
  3  4  1  6  0  0  0
  3  5  2  0  0  0  0
  3  6  1  0  0  0  0
  6  8  1  0  0  0  0
  7 10  1  0  0  0  0
  8 11  1  0  0  0  0
  9 12  1  0  0  0  0
 10 13  1  0  0  0  0
M  CHG  1   4  -1
M  END
>  <CHROM.1>
169.90824911,172.14010486,-62.93173237,-176.70920596,57.14002905,-177.82706041
49.86235542,178.65864331,165.90981617,35.46359358,31.47133453,45.33363335
-1.35622785,0.63692690,-1.53289351

>  <Name>
ligand

>  <RI>
0

>  <Rbt.Current_Directory>
/home/itssahil/PROJECTS/Mol_Feturizer/New_Systems/rnas/2NPY

>  <Rbt.Executable>
rbdock ($Id: //depot/dev/client3/rdock/2013.1/src/exe/rbdock.cxx#4 $)

>  <Rbt.Library>
libRbt.so (2013.1, Build901 2013/11/27)

>  <Rbt.Parameter_File>
/export/apps/rDock/src/rDock_2013.1_src/data/scripts/dock_solv.prm

>  <Rbt.Receptor>
prm/pocket_docking_8.prm

>  <SCORE>
-12.0333

>  <SCORE.INTER>
1.37827

>  <SCORE.INTER.CONST>
1

>  <SCORE.INTER.POLAR>
0

>  <SCORE.INTER.ROT>
9

>  <SCORE.INTER.SOLV>
7.03513

>  <SCORE.INTER.VDW>
-11.0262

>  <SCORE.INTER.norm>
0.106021

>  <SCORE.INTRA>
-13.4116

>  <SCORE.INTRA.DIHEDRAL>
-23.363

>  <SCORE.INTRA.DIHEDRAL.0>
25.6828

>  <SCORE.INTRA.POLAR>
0

>  <SCORE.INTRA.POLAR.0>
0

>  <SCORE.INTRA.REPUL>
0

>  <SCORE.INTRA.REPUL.0>
0

>  <SCORE.INTRA.SOLV>
-1.28384

>  <SCORE.INTRA.SOLV.lig_0>
-48.5059

>  <SCORE.INTRA.VDW>
-1.08815

>  <SCORE.INTRA.VDW.0>
-0.363643

>  <SCORE.INTRA.norm>
-1.03166

>  <SCORE.RESTR>
0

>  <SCORE.RESTR.CAVITY>
0

>  <SCORE.RESTR.norm>
0

>  <SCORE.SYSTEM>
0

>  <SCORE.SYSTEM.CONST>
0

>  <SCORE.SYSTEM.DIHEDRAL>
0

>  <SCORE.SYSTEM.SOLV>
0

>  <SCORE.SYSTEM.norm>
0

>  <SCORE.heavy>
13

>  <SCORE.norm>
-0.925639

>  <RMSD>
6.868

$$$$
ligand
 OpenBabel11021811453D
libRbt.so/2013.1/901 2013/11/27
 13 12  0  0  0  0  0  0  0  0999 V2000
   36.8531   30.3726   45.3979 O   0  0  0  0  0  0  0  0  0  0  0  0
   37.1208   31.7310   48.0503 O   0  0  0  0  0  0  0  0  0  0  0  0
   33.9315   31.9912   42.6163 P   0  0  2  0  0  0  0  0  0  0  0  0
   34.2471   32.0960   41.1621 O   0  5  0  0  0  0  0  0  0  0  0  0
   33.3144   33.1499   43.3117 O   0  0  0  0  0  0  0  0  0  0  0  0
   35.2587   31.6200   43.4024 O   0  0  0  0  0  0  0  0  0  0  0  0
   34.3898   31.8941   48.7099 O   0  0  0  0  0  0  0  0  0  0  0  0
   35.9631   30.4001   43.1292 C   0  0  0  0  0  0  0  0  0  0  0  0
   37.5343   30.3662   47.7846 C   0  0  0  0  0  0  0  0  0  0  0  0
   35.2983   31.2890   49.6187 C   0  0  0  0  0  0  0  0  0  0  0  0
   37.2231   30.3139   44.0072 C   0  0  0  0  0  0  0  0  0  0  0  0
   37.9679   30.1718   46.3108 C   0  0  0  0  0  0  0  0  0  0  0  0
   36.6801   31.9350   49.4133 C   0  0  0  0  0  0  0  0  0  0  0  0
  1 12  1  0  0  0  0
  1 11  1  0  0  0  0
  2 13  1  0  0  0  0
  2  9  1  0  0  0  0
  3  4  1  6  0  0  0
  3  5  2  0  0  0  0
  3  6  1  0  0  0  0
  6  8  1  0  0  0  0
  7 10  1  0  0  0  0
  8 11  1  0  0  0  0
  9 12  1  0  0  0  0
 10 13  1  0  0  0  0
M  CHG  1   4  -1
M  END
>  <CHROM.1>
175.10072412,-73.35246091,-60.79334639,178.68033396,58.66640141,178.63707422
-64.69158730,-59.54121395,174.53386483,35.64164012,31.41274298,45.33479280
-1.18564462,0.54185543,-1.66946955

>  <Name>
ligand

>  <RI>
0

>  <Rbt.Current_Directory>
/home/itssahil/PROJECTS/Mol_Feturizer/New_Systems/rnas/2NPY

>  <Rbt.Executable>
rbdock ($Id: //depot/dev/client3/rdock/2013.1/src/exe/rbdock.cxx#4 $)

>  <Rbt.Library>
libRbt.so (2013.1, Build901 2013/11/27)

>  <Rbt.Parameter_File>
/export/apps/rDock/src/rDock_2013.1_src/data/scripts/dock_solv.prm

>  <Rbt.Receptor>
prm/pocket_docking_8.prm

>  <SCORE>
-11.4557

>  <SCORE.INTER>
1.61556

>  <SCORE.INTER.CONST>
1

>  <SCORE.INTER.POLAR>
0

>  <SCORE.INTER.ROT>
9

>  <SCORE.INTER.SOLV>
6.88146

>  <SCORE.INTER.VDW>
-10.8168

>  <SCORE.INTER.norm>
0.124274

>  <SCORE.INTRA>
-13.0712

>  <SCORE.INTRA.DIHEDRAL>
-24.3989

>  <SCORE.INTRA.DIHEDRAL.0>
25.6828

>  <SCORE.INTRA.POLAR>
0

>  <SCORE.INTRA.POLAR.0>
0

>  <SCORE.INTRA.REPUL>
0

>  <SCORE.INTRA.REPUL.0>
0

>  <SCORE.INTRA.SOLV>
-0.94508

>  <SCORE.INTRA.SOLV.lig_0>
-48.5059

>  <SCORE.INTRA.VDW>
-0.399216

>  <SCORE.INTRA.VDW.0>
-0.363643

>  <SCORE.INTRA.norm>
-1.00548

>  <SCORE.RESTR>
0

>  <SCORE.RESTR.CAVITY>
0

>  <SCORE.RESTR.norm>
0

>  <SCORE.SYSTEM>
0

>  <SCORE.SYSTEM.CONST>
0

>  <SCORE.SYSTEM.DIHEDRAL>
0

>  <SCORE.SYSTEM.SOLV>
0

>  <SCORE.SYSTEM.norm>
0

>  <SCORE.heavy>
13

>  <SCORE.norm>
-0.881204

>  <RMSD>
6.880

$$$$
ligand
 OpenBabel11021811453D
libRbt.so/2013.1/901 2013/11/27
 13 12  0  0  0  0  0  0  0  0999 V2000
   33.1700   31.7077   48.7702 O   0  0  0  0  0  0  0  0  0  0  0  0
   36.0245   31.4594   48.0410 O   0  0  0  0  0  0  0  0  0  0  0  0
   29.5187   32.1254   46.4974 P   0  0  2  0  0  0  0  0  0  0  0  0
   29.3610   33.1696   45.4438 O   0  5  0  0  0  0  0  0  0  0  0  0
   28.4698   31.9794   47.5392 O   0  0  0  0  0  0  0  0  0  0  0  0
   30.8988   32.3574   47.2451 O   0  0  0  0  0  0  0  0  0  0  0  0
   36.5521   30.9593   45.3187 O   0  0  0  0  0  0  0  0  0  0  0  0
   32.1479   32.0909   46.5912 C   0  0  0  0  0  0  0  0  0  0  0  0
   35.5078   31.1089   49.3504 C   0  0  0  0  0  0  0  0  0  0  0  0
   37.6290   31.0674   46.2386 C   0  0  0  0  0  0  0  0  0  0  0  0
   33.3159   32.4301   47.5328 C   0  0  0  0  0  0  0  0  0  0  0  0
   34.2518   31.9378   49.7153 C   0  0  0  0  0  0  0  0  0  0  0  0
   37.1231   30.6168   47.6206 C   0  0  0  0  0  0  0  0  0  0  0  0
  1 12  1  0  0  0  0
  1 11  1  0  0  0  0
  2 13  1  0  0  0  0
  2  9  1  0  0  0  0
  3  4  1  6  0  0  0
  3  5  2  0  0  0  0
  3  6  1  0  0  0  0
  6  8  1  0  0  0  0
  7 10  1  0  0  0  0
  8 11  1  0  0  0  0
  9 12  1  0  0  0  0
 10 13  1  0  0  0  0
M  CHG  1   4  -1
M  END
>  <CHROM.1>
-78.93005934,-178.99079598,-70.86466079,178.80138095,55.42395086,-174.64219148
60.96330948,-59.88951285,178.45189476,33.01785295,31.80799391,47.28881960
0.10980261,-0.17414192,1.59243691

>  <Name>
ligand

>  <RI>
0

>  <Rbt.Current_Directory>
/home/itssahil/PROJECTS/Mol_Feturizer/New_Systems/rnas/2NPY

>  <Rbt.Executable>
rbdock ($Id: //depot/dev/client3/rdock/2013.1/src/exe/rbdock.cxx#4 $)

>  <Rbt.Library>
libRbt.so (2013.1, Build901 2013/11/27)

>  <Rbt.Parameter_File>
/export/apps/rDock/src/rDock_2013.1_src/data/scripts/dock_solv.prm

>  <Rbt.Receptor>
prm/pocket_docking_6.prm

>  <SCORE>
-10.3422

>  <SCORE.INTER>
2.59607

>  <SCORE.INTER.CONST>
1

>  <SCORE.INTER.POLAR>
0

>  <SCORE.INTER.ROT>
9

>  <SCORE.INTER.SOLV>
7.40086

>  <SCORE.INTER.VDW>
-10.3362

>  <SCORE.INTER.norm>
0.199698

>  <SCORE.INTRA>
-12.9382

>  <SCORE.INTRA.DIHEDRAL>
-23.5214

>  <SCORE.INTRA.DIHEDRAL.0>
25.6828

>  <SCORE.INTRA.POLAR>
0

>  <SCORE.INTRA.POLAR.0>
0

>  <SCORE.INTRA.REPUL>
0

>  <SCORE.INTRA.REPUL.0>
0

>  <SCORE.INTRA.SOLV>
-0.839055

>  <SCORE.INTRA.SOLV.lig_0>
-48.5059

>  <SCORE.INTRA.VDW>
-0.758036

>  <SCORE.INTRA.VDW.0>
-0.363643

>  <SCORE.INTRA.norm>
-0.995249

>  <SCORE.RESTR>
0

>  <SCORE.RESTR.CAVITY>
0

>  <SCORE.RESTR.norm>
0

>  <SCORE.SYSTEM>
0

>  <SCORE.SYSTEM.CONST>
0

>  <SCORE.SYSTEM.DIHEDRAL>
0

>  <SCORE.SYSTEM.SOLV>
0

>  <SCORE.SYSTEM.norm>
0

>  <SCORE.heavy>
13

>  <SCORE.norm>
-0.795551

>  <RMSD>
6.886

$$$$
ligand
 OpenBabel11021811453D
libRbt.so/2013.1/901 2013/11/27
 13 12  0  0  0  0  0  0  0  0999 V2000
   36.9087   30.7585   45.3895 O   0  0  0  0  0  0  0  0  0  0  0  0
   36.1991   30.6352   48.2110 O   0  0  0  0  0  0  0  0  0  0  0  0
   35.9810   33.7296   42.3484 P   0  0  2  0  0  0  0  0  0  0  0  0
   36.9245   34.8845   42.3099 O   0  5  0  0  0  0  0  0  0  0  0  0
   34.6096   33.9288   42.8839 O   0  0  0  0  0  0  0  0  0  0  0  0
   36.6466   32.5527   43.1786 O   0  0  0  0  0  0  0  0  0  0  0  0
   34.0245   32.2735   48.9309 O   0  0  0  0  0  0  0  0  0  0  0  0
   36.1123   31.2218   43.1331 C   0  0  0  0  0  0  0  0  0  0  0  0
   37.5696   30.4714   47.7646 C   0  0  0  0  0  0  0  0  0  0  0  0
   34.6179   31.4227   49.9011 C   0  0  0  0  0  0  0  0  0  0  0  0
   36.9476   30.2903   44.0280 C   0  0  0  0  0  0  0  0  0  0  0  0
   37.6432   29.9163   46.3209 C   0  0  0  0  0  0  0  0  0  0  0  0
   36.0982   31.2306   49.5259 C   0  0  0  0  0  0  0  0  0  0  0  0
  1 12  1  0  0  0  0
  1 11  1  0  0  0  0
  2 13  1  0  0  0  0
  2  9  1  0  0  0  0
  3  4  1  1  0  0  0
  3  5  2  0  0  0  0
  3  6  1  0  0  0  0
  6  8  1  0  0  0  0
  7 10  1  0  0  0  0
  8 11  1  0  0  0  0
  9 12  1  0  0  0  0
 10 13  1  0  0  0  0
M  CHG  1   4  -1
M  END
>  <CHROM.1>
179.79809972,177.69953467,-165.83723670,-179.94146909,60.40698925,-176.38354963
56.14192723,-59.74379056,178.38234527,36.14371820,31.98884647,45.38860438
-1.65361189,0.86094436,-1.13344071

>  <Name>
ligand

>  <RI>
0

>  <Rbt.Current_Directory>
/home/itssahil/PROJECTS/Mol_Feturizer/New_Systems/rnas/2NPY

>  <Rbt.Executable>
rbdock ($Id: //depot/dev/client3/rdock/2013.1/src/exe/rbdock.cxx#4 $)

>  <Rbt.Library>
libRbt.so (2013.1, Build901 2013/11/27)

>  <Rbt.Parameter_File>
/export/apps/rDock/src/rDock_2013.1_src/data/scripts/dock_solv.prm

>  <Rbt.Receptor>
prm/pocket_docking_8.prm

>  <SCORE>
-11.9217

>  <SCORE.INTER>
2.46402

>  <SCORE.INTER.CONST>
1

>  <SCORE.INTER.POLAR>
0

>  <SCORE.INTER.ROT>
9

>  <SCORE.INTER.SOLV>
4.7561

>  <SCORE.INTER.VDW>
-9.54269

>  <SCORE.INTER.norm>
0.18954

>  <SCORE.INTRA>
-14.3858

>  <SCORE.INTRA.DIHEDRAL>
-25.4095

>  <SCORE.INTRA.DIHEDRAL.0>
25.6828

>  <SCORE.INTRA.POLAR>
0

>  <SCORE.INTRA.POLAR.0>
0

>  <SCORE.INTRA.REPUL>
0

>  <SCORE.INTRA.REPUL.0>
0

>  <SCORE.INTRA.SOLV>
-1.04524

>  <SCORE.INTRA.SOLV.lig_0>
-48.5059

>  <SCORE.INTRA.VDW>
-1.15839

>  <SCORE.INTRA.VDW.0>
-0.363643

>  <SCORE.INTRA.norm>
-1.1066

>  <SCORE.RESTR>
0

>  <SCORE.RESTR.CAVITY>
0

>  <SCORE.RESTR.norm>
0

>  <SCORE.SYSTEM>
0

>  <SCORE.SYSTEM.CONST>
0

>  <SCORE.SYSTEM.DIHEDRAL>
0

>  <SCORE.SYSTEM.SOLV>
0

>  <SCORE.SYSTEM.norm>
0

>  <SCORE.heavy>
13

>  <SCORE.norm>
-0.917057

>  <RMSD>
6.898

$$$$
ligand
 OpenBabel11021811453D
libRbt.so/2013.1/901 2013/11/27
 13 12  0  0  0  0  0  0  0  0999 V2000
   32.1243   31.2731   49.0963 O   0  0  0  0  0  0  0  0  0  0  0  0
   35.0089   30.8643   49.1605 O   0  0  0  0  0  0  0  0  0  0  0  0
   29.7062   32.4268   45.7011 P   0  0  2  0  0  0  0  0  0  0  0  0
   30.2821   33.7042   45.1894 O   0  5  0  0  0  0  0  0  0  0  0  0
   28.2315   32.2473   45.7127 O   0  0  0  0  0  0  0  0  0  0  0  0
   30.2232   32.1896   47.1822 O   0  0  0  0  0  0  0  0  0  0  0  0
   38.3827   30.8310   47.7203 O   0  0  0  0  0  0  0  0  0  0  0  0
   30.0797   30.9122   47.8198 C   0  0  0  0  0  0  0  0  0  0  0  0
   34.3272   31.6396   50.1795 C   0  0  0  0  0  0  0  0  0  0  0  0
   37.0196   30.4482   47.8336 C   0  0  0  0  0  0  0  0  0  0  0  0
   30.7265   30.9465   49.2149 C   0  0  0  0  0  0  0  0  0  0  0  0
   32.8539   31.1954   50.3525 C   0  0  0  0  0  0  0  0  0  0  0  0
   36.4005   31.2292   49.0065 C   0  0  0  0  0  0  0  0  0  0  0  0
  1 12  1  0  0  0  0
  1 11  1  0  0  0  0
  2 13  1  0  0  0  0
  2  9  1  0  0  0  0
  3  4  1  1  0  0  0
  3  5  2  0  0  0  0
  3  6  1  0  0  0  0
  6  8  1  0  0  0  0
  7 10  1  0  0  0  0
  8 11  1  0  0  0  0
  9 12  1  0  0  0  0
 10 13  1  0  0  0  0
M  CHG  1   4  -1
M  END
>  <CHROM.1>
-176.52088950,-175.33096177,-166.02390742,177.18601595,-59.34950183,-178.15806491
-56.37918593,-179.79110362,-174.04601806,32.45920095,31.62117720,47.78991154
0.38973274,-0.08860772,1.87408646

>  <Name>
ligand

>  <RI>
0

>  <Rbt.Current_Directory>
/home/itssahil/PROJECTS/Mol_Feturizer/New_Systems/rnas/2NPY

>  <Rbt.Executable>
rbdock ($Id: //depot/dev/client3/rdock/2013.1/src/exe/rbdock.cxx#4 $)

>  <Rbt.Library>
libRbt.so (2013.1, Build901 2013/11/27)

>  <Rbt.Parameter_File>
/export/apps/rDock/src/rDock_2013.1_src/data/scripts/dock_solv.prm

>  <Rbt.Receptor>
prm/pocket_docking_6.prm

>  <SCORE>
-13.2214

>  <SCORE.INTER>
1.07493

>  <SCORE.INTER.CONST>
1

>  <SCORE.INTER.POLAR>
0

>  <SCORE.INTER.ROT>
9

>  <SCORE.INTER.SOLV>
6.91306

>  <SCORE.INTER.VDW>
-11.1877

>  <SCORE.INTER.norm>
0.0826871

>  <SCORE.INTRA>
-14.2963

>  <SCORE.INTRA.DIHEDRAL>
-25.1263

>  <SCORE.INTRA.DIHEDRAL.0>
25.6828

>  <SCORE.INTRA.POLAR>
0

>  <SCORE.INTRA.POLAR.0>
0

>  <SCORE.INTRA.REPUL>
0

>  <SCORE.INTRA.REPUL.0>
0

>  <SCORE.INTRA.SOLV>
-1.29877

>  <SCORE.INTRA.SOLV.lig_0>
-48.5059

>  <SCORE.INTRA.VDW>
-1.08374

>  <SCORE.INTRA.VDW.0>
-0.363643

>  <SCORE.INTRA.norm>
-1.09971

>  <SCORE.RESTR>
0

>  <SCORE.RESTR.CAVITY>
0

>  <SCORE.RESTR.norm>
0

>  <SCORE.SYSTEM>
0

>  <SCORE.SYSTEM.CONST>
0

>  <SCORE.SYSTEM.DIHEDRAL>
0

>  <SCORE.SYSTEM.SOLV>
0

>  <SCORE.SYSTEM.norm>
0

>  <SCORE.heavy>
13

>  <SCORE.norm>
-1.01703

>  <RMSD>
6.901

$$$$
ligand
 OpenBabel11021811453D
libRbt.so/2013.1/901 2013/11/27
 13 12  0  0  0  0  0  0  0  0999 V2000
   33.4315   32.4339   48.2682 O   0  0  0  0  0  0  0  0  0  0  0  0
   36.1751   31.4370   48.0542 O   0  0  0  0  0  0  0  0  0  0  0  0
   29.8671   32.3194   45.6706 P   0  0  2  0  0  0  0  0  0  0  0  0
   29.4151   33.6626   45.2048 O   0  5  0  0  0  0  0  0  0  0  0  0
   28.8528   31.2925   46.0219 O   0  0  0  0  0  0  0  0  0  0  0  0
   30.8083   32.5062   46.9342 O   0  0  0  0  0  0  0  0  0  0  0  0
   37.0722   30.7007   45.4772 O   0  0  0  0  0  0  0  0  0  0  0  0
   31.7015   33.6249   47.0319 C   0  0  0  0  0  0  0  0  0  0  0  0
   35.3628   31.2105   49.2345 C   0  0  0  0  0  0  0  0  0  0  0  0
   37.9784   30.7127   46.5709 C   0  0  0  0  0  0  0  0  0  0  0  0
   32.5098   33.5385   48.3377 C   0  0  0  0  0  0  0  0  0  0  0  0
   34.3035   32.3233   49.4275 C   0  0  0  0  0  0  0  0  0  0  0  0
   37.1817   30.4170   47.8541 C   0  0  0  0  0  0  0  0  0  0  0  0
  1 12  1  0  0  0  0
  1 11  1  0  0  0  0
  2 13  1  0  0  0  0
  2  9  1  0  0  0  0
  3  4  1  1  0  0  0
  3  5  2  0  0  0  0
  3  6  1  0  0  0  0
  6  8  1  0  0  0  0
  7 10  1  0  0  0  0
  8 11  1  0  0  0  0
  9 12  1  0  0  0  0
 10 13  1  0  0  0  0
M  CHG  1   4  -1
M  END
>  <CHROM.1>
-174.30447628,178.82567123,-35.76936263,-178.77090880,68.91362023,179.55053639
57.77886884,-60.75215880,176.26313407,33.10355904,32.03785893,47.07936922
0.12075789,-0.28318063,1.22622790

>  <Name>
ligand

>  <RI>
0

>  <Rbt.Current_Directory>
/home/itssahil/PROJECTS/Mol_Feturizer/New_Systems/rnas/2NPY

>  <Rbt.Executable>
rbdock ($Id: //depot/dev/client3/rdock/2013.1/src/exe/rbdock.cxx#4 $)

>  <Rbt.Library>
libRbt.so (2013.1, Build901 2013/11/27)

>  <Rbt.Parameter_File>
/export/apps/rDock/src/rDock_2013.1_src/data/scripts/dock_solv.prm

>  <Rbt.Receptor>
prm/pocket_docking_4.prm

>  <SCORE>
-10.0783

>  <SCORE.INTER>
3.71749

>  <SCORE.INTER.CONST>
1

>  <SCORE.INTER.POLAR>
0

>  <SCORE.INTER.ROT>
9

>  <SCORE.INTER.SOLV>
7.66284

>  <SCORE.INTER.VDW>
-9.67596

>  <SCORE.INTER.norm>
0.285961

>  <SCORE.INTRA>
-13.7958

>  <SCORE.INTRA.DIHEDRAL>
-24.7425

>  <SCORE.INTRA.DIHEDRAL.0>
25.6828

>  <SCORE.INTRA.POLAR>
0

>  <SCORE.INTRA.POLAR.0>
0

>  <SCORE.INTRA.REPUL>
0

>  <SCORE.INTRA.REPUL.0>
0

>  <SCORE.INTRA.SOLV>
-0.965101

>  <SCORE.INTRA.SOLV.lig_0>
-48.5059

>  <SCORE.INTRA.VDW>
-0.941971

>  <SCORE.INTRA.VDW.0>
-0.363643

>  <SCORE.INTRA.norm>
-1.06121

>  <SCORE.RESTR>
0

>  <SCORE.RESTR.CAVITY>
0

>  <SCORE.RESTR.norm>
0

>  <SCORE.SYSTEM>
0

>  <SCORE.SYSTEM.CONST>
0

>  <SCORE.SYSTEM.DIHEDRAL>
0

>  <SCORE.SYSTEM.SOLV>
0

>  <SCORE.SYSTEM.norm>
0

>  <SCORE.heavy>
13

>  <SCORE.norm>
-0.775254

>  <RMSD>
6.913

$$$$
ligand
 OpenBabel11021811453D
libRbt.so/2013.1/901 2013/11/27
 13 12  0  0  0  0  0  0  0  0999 V2000
   32.4694   31.8398   48.6152 O   0  0  0  0  0  0  0  0  0  0  0  0
   35.1827   30.9560   49.1636 O   0  0  0  0  0  0  0  0  0  0  0  0
   28.7532   32.5604   45.2538 P   0  0  2  0  0  0  0  0  0  0  0  0
   29.2616   33.9143   44.8877 O   0  5  0  0  0  0  0  0  0  0  0  0
   27.2875   32.3242   45.3073 O   0  0  0  0  0  0  0  0  0  0  0  0
   29.3495   32.1550   46.6672 O   0  0  0  0  0  0  0  0  0  0  0  0
   36.9660   31.0731   46.9968 O   0  0  0  0  0  0  0  0  0  0  0  0
   30.7637   32.1826   46.9084 C   0  0  0  0  0  0  0  0  0  0  0  0
   34.3691   31.5779   50.1910 C   0  0  0  0  0  0  0  0  0  0  0  0
   37.3909   30.4936   48.2219 C   0  0  0  0  0  0  0  0  0  0  0  0
   31.0601   31.7175   48.3443 C   0  0  0  0  0  0  0  0  0  0  0  0
   32.8566   31.3664   49.9352 C   0  0  0  0  0  0  0  0  0  0  0  0
   36.6013   31.1585   49.3635 C   0  0  0  0  0  0  0  0  0  0  0  0
  1 12  1  0  0  0  0
  1 11  1  0  0  0  0
  2 13  1  0  0  0  0
  2  9  1  0  0  0  0
  3  4  1  1  0  0  0
  3  5  2  0  0  0  0
  3  6  1  0  0  0  0
  6  8  1  0  0  0  0
  7 10  1  0  0  0  0
  8 11  1  0  0  0  0
  9 12  1  0  0  0  0
 10 13  1  0  0  0  0
M  CHG  1   4  -1
M  END
>  <CHROM.1>
-177.59775719,-178.93673550,-53.88209841,-178.85194203,-175.79523427,178.93256548
-55.46157875,58.97617984,-177.44508796,32.14483870,31.86934463,47.44481678
0.43757992,-0.14852931,1.72957847

>  <Name>
ligand

>  <RI>
0

>  <Rbt.Current_Directory>
/home/itssahil/PROJECTS/Mol_Feturizer/New_Systems/rnas/2NPY

>  <Rbt.Executable>
rbdock ($Id: //depot/dev/client3/rdock/2013.1/src/exe/rbdock.cxx#4 $)

>  <Rbt.Library>
libRbt.so (2013.1, Build901 2013/11/27)

>  <Rbt.Parameter_File>
/export/apps/rDock/src/rDock_2013.1_src/data/scripts/dock_solv.prm

>  <Rbt.Receptor>
prm/pocket_docking_6.prm

>  <SCORE>
-13.3385

>  <SCORE.INTER>
0.916503

>  <SCORE.INTER.CONST>
1

>  <SCORE.INTER.POLAR>
0

>  <SCORE.INTER.ROT>
9

>  <SCORE.INTER.SOLV>
6.89239

>  <SCORE.INTER.VDW>
-11.2865

>  <SCORE.INTER.norm>
0.0705002

>  <SCORE.INTRA>
-14.255

>  <SCORE.INTRA.DIHEDRAL>
-25.4261

>  <SCORE.INTRA.DIHEDRAL.0>
25.6828

>  <SCORE.INTRA.POLAR>
0

>  <SCORE.INTRA.POLAR.0>
0

>  <SCORE.INTRA.REPUL>
0

>  <SCORE.INTRA.REPUL.0>
0

>  <SCORE.INTRA.SOLV>
-1.14468

>  <SCORE.INTRA.SOLV.lig_0>
-48.5059

>  <SCORE.INTRA.VDW>
-0.969664

>  <SCORE.INTRA.VDW.0>
-0.363643

>  <SCORE.INTRA.norm>
-1.09654

>  <SCORE.RESTR>
0

>  <SCORE.RESTR.CAVITY>
0

>  <SCORE.RESTR.norm>
0

>  <SCORE.SYSTEM>
0

>  <SCORE.SYSTEM.CONST>
0

>  <SCORE.SYSTEM.DIHEDRAL>
0

>  <SCORE.SYSTEM.SOLV>
0

>  <SCORE.SYSTEM.norm>
0

>  <SCORE.heavy>
13

>  <SCORE.norm>
-1.02604

>  <RMSD>
6.915

$$$$
ligand
 OpenBabel11021811453D
libRbt.so/2013.1/901 2013/11/27
 13 12  0  0  0  0  0  0  0  0999 V2000
   37.1027   30.7412   45.3683 O   0  0  0  0  0  0  0  0  0  0  0  0
   36.2100   30.6276   48.1475 O   0  0  0  0  0  0  0  0  0  0  0  0
   34.0072   31.8976   42.4838 P   0  0  2  0  0  0  0  0  0  0  0  0
   32.7174   31.9346   43.2324 O   0  5  0  0  0  0  0  0  0  0  0  0
   34.0358   31.3270   41.1124 O   0  0  0  0  0  0  0  0  0  0  0  0
   35.0774   31.1065   43.3476 O   0  0  0  0  0  0  0  0  0  0  0  0
   34.3952   31.8444   51.0937 O   0  0  0  0  0  0  0  0  0  0  0  0
   36.4794   31.2041   43.0580 C   0  0  0  0  0  0  0  0  0  0  0  0
   37.6048   30.4660   47.7833 C   0  0  0  0  0  0  0  0  0  0  0  0
   34.5309   31.3710   49.7614 C   0  0  0  0  0  0  0  0  0  0  0  0
   37.2761   30.2956   44.0097 C   0  0  0  0  0  0  0  0  0  0  0  0
   37.7647   29.8980   46.3517 C   0  0  0  0  0  0  0  0  0  0  0  0
   36.0300   31.1689   49.4772 C   0  0  0  0  0  0  0  0  0  0  0  0
  1 12  1  0  0  0  0
  1 11  1  0  0  0  0
  2 13  1  0  0  0  0
  2  9  1  0  0  0  0
  3  4  1  1  0  0  0
  3  5  2  0  0  0  0
  3  6  1  0  0  0  0
  6  8  1  0  0  0  0
  7 10  1  0  0  0  0
  8 11  1  0  0  0  0
  9 12  1  0  0  0  0
 10 13  1  0  0  0  0
M  CHG  1   4  -1
M  END
>  <CHROM.1>
177.06556810,177.36671864,-163.59668622,-177.73523112,-62.93791794,-179.46586848
57.16239719,177.39280646,176.93600109,35.46285406,31.14545189,45.49898159
-1.37607153,0.36626957,-1.58704727

>  <Name>
ligand

>  <RI>
0

>  <Rbt.Current_Directory>
/home/itssahil/PROJECTS/Mol_Feturizer/New_Systems/rnas/2NPY

>  <Rbt.Executable>
rbdock ($Id: //depot/dev/client3/rdock/2013.1/src/exe/rbdock.cxx#4 $)

>  <Rbt.Library>
libRbt.so (2013.1, Build901 2013/11/27)

>  <Rbt.Parameter_File>
/export/apps/rDock/src/rDock_2013.1_src/data/scripts/dock_solv.prm

>  <Rbt.Receptor>
prm/pocket_docking_7.prm

>  <SCORE>
-13.1943

>  <SCORE.INTER>
1.20952

>  <SCORE.INTER.CONST>
1

>  <SCORE.INTER.POLAR>
0

>  <SCORE.INTER.ROT>
9

>  <SCORE.INTER.SOLV>
11.1388

>  <SCORE.INTER.VDW>
-12.5066

>  <SCORE.INTER.norm>
0.0930399

>  <SCORE.INTRA>
-14.4038

>  <SCORE.INTRA.DIHEDRAL>
-25.2863

>  <SCORE.INTRA.DIHEDRAL.0>
25.6828

>  <SCORE.INTRA.POLAR>
0

>  <SCORE.INTRA.POLAR.0>
0

>  <SCORE.INTRA.REPUL>
0

>  <SCORE.INTRA.REPUL.0>
0

>  <SCORE.INTRA.SOLV>
-1.34813

>  <SCORE.INTRA.SOLV.lig_0>
-48.5059

>  <SCORE.INTRA.VDW>
-1.08655

>  <SCORE.INTRA.VDW.0>
-0.363643

>  <SCORE.INTRA.norm>
-1.10798

>  <SCORE.RESTR>
0

>  <SCORE.RESTR.CAVITY>
0

>  <SCORE.RESTR.norm>
0

>  <SCORE.SYSTEM>
0

>  <SCORE.SYSTEM.CONST>
0

>  <SCORE.SYSTEM.DIHEDRAL>
0

>  <SCORE.SYSTEM.SOLV>
0

>  <SCORE.SYSTEM.norm>
0

>  <SCORE.heavy>
13

>  <SCORE.norm>
-1.01494

>  <RMSD>
6.915

$$$$
ligand
 OpenBabel11021811453D
libRbt.so/2013.1/901 2013/11/27
 13 12  0  0  0  0  0  0  0  0999 V2000
   37.1214   30.6718   45.3844 O   0  0  0  0  0  0  0  0  0  0  0  0
   36.2039   30.6528   48.1435 O   0  0  0  0  0  0  0  0  0  0  0  0
   34.0735   31.4105   42.2755 P   0  0  2  0  0  0  0  0  0  0  0  0
   34.3216   30.9656   40.8734 O   0  5  0  0  0  0  0  0  0  0  0  0
   34.0249   32.8639   42.5793 O   0  0  0  0  0  0  0  0  0  0  0  0
   35.1747   30.7666   43.2190 O   0  0  0  0  0  0  0  0  0  0  0  0
   34.3133   31.8786   51.0371 O   0  0  0  0  0  0  0  0  0  0  0  0
   36.5663   31.0697   43.0449 C   0  0  0  0  0  0  0  0  0  0  0  0
   37.6077   30.4984   47.8122 C   0  0  0  0  0  0  0  0  0  0  0  0
   34.4830   31.4028   49.7096 C   0  0  0  0  0  0  0  0  0  0  0  0
   37.4097   30.2514   44.0374 C   0  0  0  0  0  0  0  0  0  0  0  0
   37.8035   29.8879   46.4026 C   0  0  0  0  0  0  0  0  0  0  0  0
   35.9904   31.2221   49.4565 C   0  0  0  0  0  0  0  0  0  0  0  0
  1 12  1  0  0  0  0
  1 11  1  0  0  0  0
  2 13  1  0  0  0  0
  2  9  1  0  0  0  0
  3  4  1  6  0  0  0
  3  5  2  0  0  0  0
  3  6  1  0  0  0  0
  6  8  1  0  0  0  0
  7 10  1  0  0  0  0
  8 11  1  0  0  0  0
  9 12  1  0  0  0  0
 10 13  1  0  0  0  0
M  CHG  1   4  -1
M  END
>  <CHROM.1>
172.43330175,177.84564684,62.18793638,-176.80210326,-65.88298800,-179.98094283
55.67057610,176.18996189,175.88526354,35.60706195,31.08577778,45.38915624
-1.43017673,0.42635754,-1.60333675

>  <Name>
ligand

>  <RI>
0

>  <Rbt.Current_Directory>
/home/itssahil/PROJECTS/Mol_Feturizer/New_Systems/rnas/2NPY

>  <Rbt.Executable>
rbdock ($Id: //depot/dev/client3/rdock/2013.1/src/exe/rbdock.cxx#4 $)

>  <Rbt.Library>
libRbt.so (2013.1, Build901 2013/11/27)

>  <Rbt.Parameter_File>
/export/apps/rDock/src/rDock_2013.1_src/data/scripts/dock_solv.prm

>  <Rbt.Receptor>
prm/pocket_docking_7.prm

>  <SCORE>
-13.5717

>  <SCORE.INTER>
0.434934

>  <SCORE.INTER.CONST>
1

>  <SCORE.INTER.POLAR>
0

>  <SCORE.INTER.ROT>
9

>  <SCORE.INTER.SOLV>
8.89525

>  <SCORE.INTER.VDW>
-12.2751

>  <SCORE.INTER.norm>
0.0334564

>  <SCORE.INTRA>
-14.0066

>  <SCORE.INTRA.DIHEDRAL>
-24.9533

>  <SCORE.INTRA.DIHEDRAL.0>
25.6828

>  <SCORE.INTRA.POLAR>
0

>  <SCORE.INTRA.POLAR.0>
0

>  <SCORE.INTRA.REPUL>
0

>  <SCORE.INTRA.REPUL.0>
0

>  <SCORE.INTRA.SOLV>
-0.899885

>  <SCORE.INTRA.SOLV.lig_0>
-48.5059

>  <SCORE.INTRA.VDW>
-1.08

>  <SCORE.INTRA.VDW.0>
-0.363643

>  <SCORE.INTRA.norm>
-1.07743

>  <SCORE.RESTR>
0

>  <SCORE.RESTR.CAVITY>
0

>  <SCORE.RESTR.norm>
0

>  <SCORE.SYSTEM>
0

>  <SCORE.SYSTEM.CONST>
0

>  <SCORE.SYSTEM.DIHEDRAL>
0

>  <SCORE.SYSTEM.SOLV>
0

>  <SCORE.SYSTEM.norm>
0

>  <SCORE.heavy>
13

>  <SCORE.norm>
-1.04397

>  <RMSD>
6.931

$$$$
ligand
 OpenBabel11021811453D
libRbt.so/2013.1/901 2013/11/27
 13 12  0  0  0  0  0  0  0  0999 V2000
   30.4648   34.1042   46.0592 O   0  0  0  0  0  0  0  0  0  0  0  0
   32.7404   32.0301   43.8975 O   0  0  0  0  0  0  0  0  0  0  0  0
   29.5813   38.2561   47.1209 P   0  0  2  0  0  0  0  0  0  0  0  0
   29.1665   38.9729   45.8801 O   0  5  0  0  0  0  0  0  0  0  0  0
   30.4547   38.9486   48.1031 O   0  0  0  0  0  0  0  0  0  0  0  0
   30.3066   36.9052   46.7131 O   0  0  0  0  0  0  0  0  0  0  0  0
   33.3074   30.5984   41.5042 O   0  0  0  0  0  0  0  0  0  0  0  0
   30.6125   35.9047   47.6951 C   0  0  0  0  0  0  0  0  0  0  0  0
   32.2274   33.2182   44.5529 C   0  0  0  0  0  0  0  0  0  0  0  0
   34.3535   30.9979   42.3779 C   0  0  0  0  0  0  0  0  0  0  0  0
   31.3329   34.7196   47.0298 C   0  0  0  0  0  0  0  0  0  0  0  0
   31.0150   32.8974   45.4613 C   0  0  0  0  0  0  0  0  0  0  0  0
   33.9131   32.2891   43.0905 C   0  0  0  0  0  0  0  0  0  0  0  0
  1 12  1  0  0  0  0
  1 11  1  0  0  0  0
  2 13  1  0  0  0  0
  2  9  1  0  0  0  0
  3  4  1  6  0  0  0
  3  5  2  0  0  0  0
  3  6  1  0  0  0  0
  6  8  1  0  0  0  0
  7 10  1  0  0  0  0
  8 11  1  0  0  0  0
  9 12  1  0  0  0  0
 10 13  1  0  0  0  0
M  CHG  1   4  -1
M  END
>  <CHROM.1>
-68.47606434,-177.28016117,-169.39379825,-178.98985848,-62.58969619,-177.27686935
-177.02599785,62.72766400,-174.77227466,31.32049666,34.93327180,45.48839956
0.18777994,-1.14724364,2.35095310

>  <Name>
ligand

>  <RI>
0

>  <Rbt.Current_Directory>
/home/itssahil/PROJECTS/Mol_Feturizer/New_Systems/rnas/2NPY

>  <Rbt.Executable>
rbdock ($Id: //depot/dev/client3/rdock/2013.1/src/exe/rbdock.cxx#4 $)

>  <Rbt.Library>
libRbt.so (2013.1, Build901 2013/11/27)

>  <Rbt.Parameter_File>
/export/apps/rDock/src/rDock_2013.1_src/data/scripts/dock_solv.prm

>  <Rbt.Receptor>
prm/pocket_docking_3.prm

>  <SCORE>
-5.44804

>  <SCORE.INTER>
7.81759

>  <SCORE.INTER.CONST>
1

>  <SCORE.INTER.POLAR>
0

>  <SCORE.INTER.ROT>
9

>  <SCORE.INTER.SOLV>
6.05478

>  <SCORE.INTER.VDW>
-6.40653

>  <SCORE.INTER.norm>
0.601353

>  <SCORE.INTRA>
-13.2656

>  <SCORE.INTRA.DIHEDRAL>
-24.9751

>  <SCORE.INTRA.DIHEDRAL.0>
25.6828

>  <SCORE.INTRA.POLAR>
0

>  <SCORE.INTRA.POLAR.0>
0

>  <SCORE.INTRA.REPUL>
0

>  <SCORE.INTRA.REPUL.0>
0

>  <SCORE.INTRA.SOLV>
-1.18487

>  <SCORE.INTRA.SOLV.lig_0>
-48.5059

>  <SCORE.INTRA.VDW>
-0.185651

>  <SCORE.INTRA.VDW.0>
-0.363643

>  <SCORE.INTRA.norm>
-1.02043

>  <SCORE.RESTR>
0

>  <SCORE.RESTR.CAVITY>
0

>  <SCORE.RESTR.norm>
0

>  <SCORE.SYSTEM>
0

>  <SCORE.SYSTEM.CONST>
0

>  <SCORE.SYSTEM.DIHEDRAL>
0

>  <SCORE.SYSTEM.SOLV>
0

>  <SCORE.SYSTEM.norm>
0

>  <SCORE.heavy>
13

>  <SCORE.norm>
-0.41908

>  <RMSD>
6.933

$$$$
ligand
 OpenBabel11021811453D
libRbt.so/2013.1/901 2013/11/27
 13 12  0  0  0  0  0  0  0  0999 V2000
   36.7166   30.4396   45.6631 O   0  0  0  0  0  0  0  0  0  0  0  0
   35.2327   31.1358   43.2500 O   0  0  0  0  0  0  0  0  0  0  0  0
   35.1238   32.1850   49.3667 P   0  0  2  0  0  0  0  0  0  0  0  0
   36.0783   32.5544   50.4520 O   0  5  0  0  0  0  0  0  0  0  0  0
   34.1297   31.1079   49.6083 O   0  0  0  0  0  0  0  0  0  0  0  0
   35.9505   31.7841   48.0731 O   0  0  0  0  0  0  0  0  0  0  0  0
   32.4844   31.7780   43.6318 O   0  0  0  0  0  0  0  0  0  0  0  0
   36.8474   30.6641   48.0865 C   0  0  0  0  0  0  0  0  0  0  0  0
   36.3425   30.2021   43.2210 C   0  0  0  0  0  0  0  0  0  0  0  0
   33.0854   31.8800   42.3489 C   0  0  0  0  0  0  0  0  0  0  0  0
   37.6306   30.6035   46.7641 C   0  0  0  0  0  0  0  0  0  0  0  0
   37.3574   30.4775   44.3576 C   0  0  0  0  0  0  0  0  0  0  0  0
   34.2143   30.8371   42.2665 C   0  0  0  0  0  0  0  0  0  0  0  0
  1 12  1  0  0  0  0
  1 11  1  0  0  0  0
  2 13  1  0  0  0  0
  2  9  1  0  0  0  0
  3  4  1  1  0  0  0
  3  5  2  0  0  0  0
  3  6  1  0  0  0  0
  6  8  1  0  0  0  0
  7 10  1  0  0  0  0
  8 11  1  0  0  0  0
  9 12  1  0  0  0  0
 10 13  1  0  0  0  0
M  CHG  1   4  -1
M  END
>  <CHROM.1>
176.19261135,-179.25166146,62.10652665,-173.50339695,-60.88195275,-175.33626183
56.71791854,-62.94108463,175.40019080,35.42694293,31.29727382,46.25345666
-1.74687131,-0.33607455,1.39885903

>  <Name>
ligand

>  <RI>
0

>  <Rbt.Current_Directory>
/home/itssahil/PROJECTS/Mol_Feturizer/New_Systems/rnas/2NPY

>  <Rbt.Executable>
rbdock ($Id: //depot/dev/client3/rdock/2013.1/src/exe/rbdock.cxx#4 $)

>  <Rbt.Library>
libRbt.so (2013.1, Build901 2013/11/27)

>  <Rbt.Parameter_File>
/export/apps/rDock/src/rDock_2013.1_src/data/scripts/dock_solv.prm

>  <Rbt.Receptor>
prm/pocket_docking_7.prm

>  <SCORE>
-12.0197

>  <SCORE.INTER>
2.00352

>  <SCORE.INTER.CONST>
1

>  <SCORE.INTER.POLAR>
0

>  <SCORE.INTER.ROT>
9

>  <SCORE.INTER.SOLV>
11.6817

>  <SCORE.INTER.VDW>
-12.1582

>  <SCORE.INTER.norm>
0.154117

>  <SCORE.INTRA>
-14.0232

>  <SCORE.INTRA.DIHEDRAL>
-25.0761

>  <SCORE.INTRA.DIHEDRAL.0>
25.6828

>  <SCORE.INTRA.POLAR>
0

>  <SCORE.INTRA.POLAR.0>
0

>  <SCORE.INTRA.REPUL>
0

>  <SCORE.INTRA.REPUL.0>
0

>  <SCORE.INTRA.SOLV>
-0.626397

>  <SCORE.INTRA.SOLV.lig_0>
-48.5059

>  <SCORE.INTRA.VDW>
-1.17201

>  <SCORE.INTRA.VDW.0>
-0.363643

>  <SCORE.INTRA.norm>
-1.07871

>  <SCORE.RESTR>
0

>  <SCORE.RESTR.CAVITY>
0

>  <SCORE.RESTR.norm>
0

>  <SCORE.SYSTEM>
0

>  <SCORE.SYSTEM.CONST>
0

>  <SCORE.SYSTEM.DIHEDRAL>
0

>  <SCORE.SYSTEM.SOLV>
0

>  <SCORE.SYSTEM.norm>
0

>  <SCORE.heavy>
13

>  <SCORE.norm>
-0.924594

>  <RMSD>
6.934

$$$$
ligand
 OpenBabel11021811453D
libRbt.so/2013.1/901 2013/11/27
 13 12  0  0  0  0  0  0  0  0999 V2000
   32.4715   31.7761   48.6058 O   0  0  0  0  0  0  0  0  0  0  0  0
   35.2335   30.9098   48.9949 O   0  0  0  0  0  0  0  0  0  0  0  0
   28.5535   32.2485   45.4341 P   0  0  2  0  0  0  0  0  0  0  0  0
   29.0682   33.5633   44.9526 O   0  5  0  0  0  0  0  0  0  0  0  0
   27.0900   32.0594   45.6058 O   0  0  0  0  0  0  0  0  0  0  0  0
   29.2406   31.9078   46.8231 O   0  0  0  0  0  0  0  0  0  0  0  0
   36.8330   30.9622   46.6851 O   0  0  0  0  0  0  0  0  0  0  0  0
   30.6602   32.0264   46.9945 C   0  0  0  0  0  0  0  0  0  0  0  0
   34.4767   31.5539   50.0516 C   0  0  0  0  0  0  0  0  0  0  0  0
   37.3794   30.4814   47.9048 C   0  0  0  0  0  0  0  0  0  0  0  0
   31.0537   31.6039   48.4202 C   0  0  0  0  0  0  0  0  0  0  0  0
   32.9545   31.3151   49.8984 C   0  0  0  0  0  0  0  0  0  0  0  0
   36.6521   31.1859   49.0639 C   0  0  0  0  0  0  0  0  0  0  0  0
  1 12  1  0  0  0  0
  1 11  1  0  0  0  0
  2 13  1  0  0  0  0
  2  9  1  0  0  0  0
  3  4  1  1  0  0  0
  3  5  2  0  0  0  0
  3  6  1  0  0  0  0
  6  8  1  0  0  0  0
  7 10  1  0  0  0  0
  8 11  1  0  0  0  0
  9 12  1  0  0  0  0
 10 13  1  0  0  0  0
M  CHG  1   4  -1
M  END
>  <CHROM.1>
-178.75013876,-179.40849566,-48.09841580,-178.67216080,-177.66868626,176.32295257
-57.09762798,59.11450036,-176.01705707,32.08055822,31.71954167,47.43157473
0.37186362,-0.14103333,1.67618798

>  <Name>
ligand

>  <RI>
0

>  <Rbt.Current_Directory>
/home/itssahil/PROJECTS/Mol_Feturizer/New_Systems/rnas/2NPY

>  <Rbt.Executable>
rbdock ($Id: //depot/dev/client3/rdock/2013.1/src/exe/rbdock.cxx#4 $)

>  <Rbt.Library>
libRbt.so (2013.1, Build901 2013/11/27)

>  <Rbt.Parameter_File>
/export/apps/rDock/src/rDock_2013.1_src/data/scripts/dock_solv.prm

>  <Rbt.Receptor>
prm/pocket_docking_8.prm

>  <SCORE>
-13.4308

>  <SCORE.INTER>
0.752004

>  <SCORE.INTER.CONST>
1

>  <SCORE.INTER.POLAR>
0

>  <SCORE.INTER.ROT>
9

>  <SCORE.INTER.SOLV>
8.09338

>  <SCORE.INTER.VDW>
-11.7965

>  <SCORE.INTER.norm>
0.0578465

>  <SCORE.INTRA>
-14.1828

>  <SCORE.INTRA.DIHEDRAL>
-25.3884

>  <SCORE.INTRA.DIHEDRAL.0>
25.6828

>  <SCORE.INTRA.POLAR>
0

>  <SCORE.INTRA.POLAR.0>
0

>  <SCORE.INTRA.REPUL>
0

>  <SCORE.INTRA.REPUL.0>
0

>  <SCORE.INTRA.SOLV>
-1.11484

>  <SCORE.INTRA.SOLV.lig_0>
-48.5059

>  <SCORE.INTRA.VDW>
-0.931113

>  <SCORE.INTRA.VDW.0>
-0.363643

>  <SCORE.INTRA.norm>
-1.09098

>  <SCORE.RESTR>
0

>  <SCORE.RESTR.CAVITY>
0

>  <SCORE.RESTR.norm>
0

>  <SCORE.SYSTEM>
0

>  <SCORE.SYSTEM.CONST>
0

>  <SCORE.SYSTEM.DIHEDRAL>
0

>  <SCORE.SYSTEM.SOLV>
0

>  <SCORE.SYSTEM.norm>
0

>  <SCORE.heavy>
13

>  <SCORE.norm>
-1.03313

>  <RMSD>
6.953

$$$$
ligand
 OpenBabel11021811453D
libRbt.so/2013.1/901 2013/11/27
 13 12  0  0  0  0  0  0  0  0999 V2000
   31.9508   32.1687   42.9206 O   0  0  0  0  0  0  0  0  0  0  0  0
   35.6516   31.7669   42.4201 O   0  0  0  0  0  0  0  0  0  0  0  0
   30.7706   32.7278   47.2367 P   0  0  2  0  0  0  0  0  0  0  0  0
   30.2564   32.1416   48.5085 O   0  5  0  0  0  0  0  0  0  0  0  0
   30.7798   34.2037   47.0679 O   0  0  0  0  0  0  0  0  0  0  0  0
   29.9495   32.1181   46.0237 O   0  0  0  0  0  0  0  0  0  0  0  0
   37.7801   31.2727   44.2002 O   0  0  0  0  0  0  0  0  0  0  0  0
   30.2752   32.4542   44.6673 C   0  0  0  0  0  0  0  0  0  0  0  0
   34.4287   32.2223   43.0536 C   0  0  0  0  0  0  0  0  0  0  0  0
   36.6322   30.4365   44.2215 C   0  0  0  0  0  0  0  0  0  0  0  0
   31.6429   31.8583   44.2929 C   0  0  0  0  0  0  0  0  0  0  0  0
   33.1763   31.5497   42.4396 C   0  0  0  0  0  0  0  0  0  0  0  0
   36.0248   30.4237   42.8074 C   0  0  0  0  0  0  0  0  0  0  0  0
  1 12  1  0  0  0  0
  1 11  1  0  0  0  0
  2 13  1  0  0  0  0
  2  9  1  0  0  0  0
  3  4  1  1  0  0  0
  3  5  2  0  0  0  0
  3  6  1  0  0  0  0
  6  8  1  0  0  0  0
  7 10  1  0  0  0  0
  8 11  1  0  0  0  0
  9 12  1  0  0  0  0
 10 13  1  0  0  0  0
M  CHG  1   4  -1
M  END
>  <CHROM.1>
-72.31575088,-76.32840435,-176.85539457,68.06226182,178.54412034,-74.06635278
-170.51260266,-59.96637909,-175.07630469,32.82700549,32.03046975,44.84871269
0.58478781,0.21839780,-1.65023773

>  <Name>
ligand

>  <RI>
0

>  <Rbt.Current_Directory>
/home/itssahil/PROJECTS/Mol_Feturizer/New_Systems/rnas/2NPY

>  <Rbt.Executable>
rbdock ($Id: //depot/dev/client3/rdock/2013.1/src/exe/rbdock.cxx#4 $)

>  <Rbt.Library>
libRbt.so (2013.1, Build901 2013/11/27)

>  <Rbt.Parameter_File>
/export/apps/rDock/src/rDock_2013.1_src/data/scripts/dock_solv.prm

>  <Rbt.Receptor>
prm/pocket_docking_4.prm

>  <SCORE>
-5.51571

>  <SCORE.INTER>
4.14712

>  <SCORE.INTER.CONST>
1

>  <SCORE.INTER.POLAR>
0

>  <SCORE.INTER.ROT>
9

>  <SCORE.INTER.SOLV>
7.40044

>  <SCORE.INTER.VDW>
-9.30207

>  <SCORE.INTER.norm>
0.319009

>  <SCORE.INTRA>
-9.66284

>  <SCORE.INTRA.DIHEDRAL>
-21.9789

>  <SCORE.INTRA.DIHEDRAL.0>
25.6828

>  <SCORE.INTRA.POLAR>
0

>  <SCORE.INTRA.POLAR.0>
0

>  <SCORE.INTRA.REPUL>
0

>  <SCORE.INTRA.REPUL.0>
0

>  <SCORE.INTRA.SOLV>
0.0381707

>  <SCORE.INTRA.SOLV.lig_0>
-48.5059

>  <SCORE.INTRA.VDW>
1.30753

>  <SCORE.INTRA.VDW.0>
-0.363643

>  <SCORE.INTRA.norm>
-0.743295

>  <SCORE.RESTR>
0

>  <SCORE.RESTR.CAVITY>
0

>  <SCORE.RESTR.norm>
0

>  <SCORE.SYSTEM>
0

>  <SCORE.SYSTEM.CONST>
0

>  <SCORE.SYSTEM.DIHEDRAL>
0

>  <SCORE.SYSTEM.SOLV>
0

>  <SCORE.SYSTEM.norm>
0

>  <SCORE.heavy>
13

>  <SCORE.norm>
-0.424286

>  <RMSD>
6.976

$$$$
ligand
 OpenBabel11021811453D
libRbt.so/2013.1/901 2013/11/27
 13 12  0  0  0  0  0  0  0  0999 V2000
   36.7146   30.6280   46.6895 O   0  0  0  0  0  0  0  0  0  0  0  0
   36.1656   31.3311   50.3441 O   0  0  0  0  0  0  0  0  0  0  0  0
   36.5654   31.6313   42.3514 P   0  0  2  0  0  0  0  0  0  0  0  0
   37.6421   31.1185   41.4552 O   0  5  0  0  0  0  0  0  0  0  0  0
   36.0899   33.0295   42.1902 O   0  0  0  0  0  0  0  0  0  0  0  0
   37.0302   31.4607   43.8588 O   0  0  0  0  0  0  0  0  0  0  0  0
   34.3950   32.4848   53.3426 O   0  0  0  0  0  0  0  0  0  0  0  0
   37.3682   30.1700   44.3867 C   0  0  0  0  0  0  0  0  0  0  0  0
   35.8207   31.1354   48.9487 C   0  0  0  0  0  0  0  0  0  0  0  0
   35.5161   32.0422   52.5911 C   0  0  0  0  0  0  0  0  0  0  0  0
   37.8364   30.3060   45.8456 C   0  0  0  0  0  0  0  0  0  0  0  0
   37.0550   30.7448   48.0991 C   0  0  0  0  0  0  0  0  0  0  0  0
   35.0562   31.8081   51.1411 C   0  0  0  0  0  0  0  0  0  0  0  0
  1 12  1  0  0  0  0
  1 11  1  0  0  0  0
  2 13  1  0  0  0  0
  2  9  1  0  0  0  0
  3  4  1  6  0  0  0
  3  5  2  0  0  0  0
  3  6  1  0  0  0  0
  6  8  1  0  0  0  0
  7 10  1  0  0  0  0
  8 11  1  0  0  0  0
  9 12  1  0  0  0  0
 10 13  1  0  0  0  0
M  CHG  1   4  -1
M  END
>  <CHROM.1>
178.20317640,-177.79521700,-58.45678393,177.68925411,71.23425254,175.01344394
-176.62610078,-178.94802105,178.56588249,36.41357954,31.41345113,46.60460676
-1.84141966,0.86531207,-1.39674022

>  <Name>
ligand

>  <RI>
0

>  <Rbt.Current_Directory>
/home/itssahil/PROJECTS/Mol_Feturizer/New_Systems/rnas/2NPY

>  <Rbt.Executable>
rbdock ($Id: //depot/dev/client3/rdock/2013.1/src/exe/rbdock.cxx#4 $)

>  <Rbt.Library>
libRbt.so (2013.1, Build901 2013/11/27)

>  <Rbt.Parameter_File>
/export/apps/rDock/src/rDock_2013.1_src/data/scripts/dock_solv.prm

>  <Rbt.Receptor>
prm/pocket_docking_7.prm

>  <SCORE>
-12.7908

>  <SCORE.INTER>
1.36227

>  <SCORE.INTER.CONST>
1

>  <SCORE.INTER.POLAR>
0

>  <SCORE.INTER.ROT>
9

>  <SCORE.INTER.SOLV>
6.06013

>  <SCORE.INTER.VDW>
-10.7119

>  <SCORE.INTER.norm>
0.10479

>  <SCORE.INTRA>
-14.1531

>  <SCORE.INTRA.DIHEDRAL>
-24.93

>  <SCORE.INTRA.DIHEDRAL.0>
25.6828

>  <SCORE.INTRA.POLAR>
0

>  <SCORE.INTRA.POLAR.0>
0

>  <SCORE.INTRA.REPUL>
0

>  <SCORE.INTRA.REPUL.0>
0

>  <SCORE.INTRA.SOLV>
-1.55491

>  <SCORE.INTRA.SOLV.lig_0>
-48.5059

>  <SCORE.INTRA.VDW>
-0.910644

>  <SCORE.INTRA.VDW.0>
-0.363643

>  <SCORE.INTRA.norm>
-1.0887

>  <SCORE.RESTR>
0

>  <SCORE.RESTR.CAVITY>
0

>  <SCORE.RESTR.norm>
0

>  <SCORE.SYSTEM>
0

>  <SCORE.SYSTEM.CONST>
0

>  <SCORE.SYSTEM.DIHEDRAL>
0

>  <SCORE.SYSTEM.SOLV>
0

>  <SCORE.SYSTEM.norm>
0

>  <SCORE.heavy>
13

>  <SCORE.norm>
-0.98391

>  <RMSD>
6.979

$$$$
ligand
 OpenBabel11021811453D
libRbt.so/2013.1/901 2013/11/27
 13 12  0  0  0  0  0  0  0  0999 V2000
   37.0047   30.7809   46.7225 O   0  0  0  0  0  0  0  0  0  0  0  0
   35.4410   30.9003   49.1690 O   0  0  0  0  0  0  0  0  0  0  0  0
   39.0817   30.2380   42.7934 P   0  0  2  0  0  0  0  0  0  0  0  0
   39.2450   31.6779   42.4393 O   0  5  0  0  0  0  0  0  0  0  0  0
   39.4884   29.1978   41.8139 O   0  0  0  0  0  0  0  0  0  0  0  0
   37.5620   29.9712   43.1629 O   0  0  0  0  0  0  0  0  0  0  0  0
   32.7868   31.8198   48.8815 O   0  0  0  0  0  0  0  0  0  0  0  0
   36.9518   30.6136   44.2916 C   0  0  0  0  0  0  0  0  0  0  0  0
   36.8754   31.1166   49.1784 C   0  0  0  0  0  0  0  0  0  0  0  0
   33.2407   31.3408   50.1392 C   0  0  0  0  0  0  0  0  0  0  0  0
   37.5984   30.1116   45.5939 C   0  0  0  0  0  0  0  0  0  0  0  0
   37.5753   30.3914   48.0028 C   0  0  0  0  0  0  0  0  0  0  0  0
   34.7546   31.6027   50.2315 C   0  0  0  0  0  0  0  0  0  0  0  0
  1 12  1  0  0  0  0
  1 11  1  0  0  0  0
  2 13  1  0  0  0  0
  2  9  1  0  0  0  0
  3  4  1  6  0  0  0
  3  5  2  0  0  0  0
  3  6  1  0  0  0  0
  6  8  1  0  0  0  0
  7 10  1  0  0  0  0
  8 11  1  0  0  0  0
  9 12  1  0  0  0  0
 10 13  1  0  0  0  0
M  CHG  1   4  -1
M  END
>  <CHROM.1>
-178.62052055,179.10576525,-63.26518661,-66.10220010,178.68905265,-178.08633924
55.47208574,-60.49206913,-178.70190441,36.93717743,30.70831028,46.00065685
-2.15064393,0.20523672,-1.59946671

>  <Name>
ligand

>  <RI>
0

>  <Rbt.Current_Directory>
/home/itssahil/PROJECTS/Mol_Feturizer/New_Systems/rnas/2NPY

>  <Rbt.Executable>
rbdock ($Id: //depot/dev/client3/rdock/2013.1/src/exe/rbdock.cxx#4 $)

>  <Rbt.Library>
libRbt.so (2013.1, Build901 2013/11/27)

>  <Rbt.Parameter_File>
/export/apps/rDock/src/rDock_2013.1_src/data/scripts/dock_solv.prm

>  <Rbt.Receptor>
prm/pocket_docking_8.prm

>  <SCORE>
-12.6378

>  <SCORE.INTER>
0.763145

>  <SCORE.INTER.CONST>
1

>  <SCORE.INTER.POLAR>
0

>  <SCORE.INTER.ROT>
9

>  <SCORE.INTER.SOLV>
9.22811

>  <SCORE.INTER.VDW>
-12.1673

>  <SCORE.INTER.norm>
0.0587035

>  <SCORE.INTRA>
-13.4009

>  <SCORE.INTRA.DIHEDRAL>
-25.2725

>  <SCORE.INTRA.DIHEDRAL.0>
25.6828

>  <SCORE.INTRA.POLAR>
0

>  <SCORE.INTRA.POLAR.0>
0

>  <SCORE.INTRA.REPUL>
0

>  <SCORE.INTRA.REPUL.0>
0

>  <SCORE.INTRA.SOLV>
0.0304754

>  <SCORE.INTRA.SOLV.lig_0>
-48.5059

>  <SCORE.INTRA.VDW>
-0.77991

>  <SCORE.INTRA.VDW.0>
-0.363643

>  <SCORE.INTRA.norm>
-1.03084

>  <SCORE.RESTR>
0

>  <SCORE.RESTR.CAVITY>
0

>  <SCORE.RESTR.norm>
0

>  <SCORE.SYSTEM>
0

>  <SCORE.SYSTEM.CONST>
0

>  <SCORE.SYSTEM.DIHEDRAL>
0

>  <SCORE.SYSTEM.SOLV>
0

>  <SCORE.SYSTEM.norm>
0

>  <SCORE.heavy>
13

>  <SCORE.norm>
-0.972138

>  <RMSD>
6.990

$$$$
ligand
 OpenBabel11021811453D
libRbt.so/2013.1/901 2013/11/27
 13 12  0  0  0  0  0  0  0  0999 V2000
   36.9453   31.0080   49.5543 O   0  0  0  0  0  0  0  0  0  0  0  0
   35.5852   31.8762   52.9513 O   0  0  0  0  0  0  0  0  0  0  0  0
   38.0651   30.2892   44.6795 P   0  0  2  0  0  0  0  0  0  0  0  0
   39.2765   31.1478   44.8231 O   0  5  0  0  0  0  0  0  0  0  0  0
   37.2580   30.3729   43.4351 O   0  0  0  0  0  0  0  0  0  0  0  0
   37.0884   30.5749   45.8968 O   0  0  0  0  0  0  0  0  0  0  0  0
   33.4688   34.7571   53.7752 O   0  0  0  0  0  0  0  0  0  0  0  0
   37.5500   30.4833   47.2523 C   0  0  0  0  0  0  0  0  0  0  0  0
   36.5846   31.5830   51.9417 C   0  0  0  0  0  0  0  0  0  0  0  0
   34.0174   33.4597   53.9571 C   0  0  0  0  0  0  0  0  0  0  0  0
   36.4211   30.8801   48.2189 C   0  0  0  0  0  0  0  0  0  0  0  0
   35.9539   31.4173   50.5372 C   0  0  0  0  0  0  0  0  0  0  0  0
   34.9853   33.1834   52.7928 C   0  0  0  0  0  0  0  0  0  0  0  0
  1 12  1  0  0  0  0
  1 11  1  0  0  0  0
  2 13  1  0  0  0  0
  2  9  1  0  0  0  0
  3  4  1  6  0  0  0
  3  5  2  0  0  0  0
  3  6  1  0  0  0  0
  6  8  1  0  0  0  0
  7 10  1  0  0  0  0
  8 11  1  0  0  0  0
  9 12  1  0  0  0  0
 10 13  1  0  0  0  0
M  CHG  1   4  -1
M  END
>  <CHROM.1>
-178.11804577,-175.79284639,-53.58750807,177.06867694,-170.28515412,-68.16748554
-174.96016139,179.06261137,178.44711625,36.54503831,31.51154171,48.80694915
-2.06842024,0.75497390,-1.52097032

>  <Name>
ligand

>  <RI>
0

>  <Rbt.Current_Directory>
/home/itssahil/PROJECTS/Mol_Feturizer/New_Systems/rnas/2NPY

>  <Rbt.Executable>
rbdock ($Id: //depot/dev/client3/rdock/2013.1/src/exe/rbdock.cxx#4 $)

>  <Rbt.Library>
libRbt.so (2013.1, Build901 2013/11/27)

>  <Rbt.Parameter_File>
/export/apps/rDock/src/rDock_2013.1_src/data/scripts/dock_solv.prm

>  <Rbt.Receptor>
prm/pocket_docking_8.prm

>  <SCORE>
-12.106

>  <SCORE.INTER>
0.920533

>  <SCORE.INTER.CONST>
1

>  <SCORE.INTER.POLAR>
0

>  <SCORE.INTER.ROT>
9

>  <SCORE.INTER.SOLV>
11.3696

>  <SCORE.INTER.VDW>
-12.7762

>  <SCORE.INTER.norm>
0.0708102

>  <SCORE.INTRA>
-13.0265

>  <SCORE.INTRA.DIHEDRAL>
-24.7207

>  <SCORE.INTRA.DIHEDRAL.0>
25.6828

>  <SCORE.INTRA.POLAR>
0

>  <SCORE.INTRA.POLAR.0>
0

>  <SCORE.INTRA.REPUL>
0

>  <SCORE.INTRA.REPUL.0>
0

>  <SCORE.INTRA.SOLV>
-1.53367

>  <SCORE.INTRA.SOLV.lig_0>
-48.5059

>  <SCORE.INTRA.VDW>
0.100677

>  <SCORE.INTRA.VDW.0>
-0.363643

>  <SCORE.INTRA.norm>
-1.00204

>  <SCORE.RESTR>
0

>  <SCORE.RESTR.CAVITY>
0

>  <SCORE.RESTR.norm>
0

>  <SCORE.SYSTEM>
0

>  <SCORE.SYSTEM.CONST>
0

>  <SCORE.SYSTEM.DIHEDRAL>
0

>  <SCORE.SYSTEM.SOLV>
0

>  <SCORE.SYSTEM.norm>
0

>  <SCORE.heavy>
13

>  <SCORE.norm>
-0.931229

>  <RMSD>
6.995

$$$$
ligand
 OpenBabel11021811453D
libRbt.so/2013.1/901 2013/11/27
 13 12  0  0  0  0  0  0  0  0999 V2000
   35.0740   31.8247   51.2433 O   0  0  0  0  0  0  0  0  0  0  0  0
   32.8701   31.5344   53.2193 O   0  0  0  0  0  0  0  0  0  0  0  0
   37.4607   30.3316   47.0358 P   0  0  2  0  0  0  0  0  0  0  0  0
   38.6448   29.4565   46.7958 O   0  5  0  0  0  0  0  0  0  0  0  0
   37.3700   31.6397   46.3376 O   0  0  0  0  0  0  0  0  0  0  0  0
   37.3427   30.6170   48.5921 O   0  0  0  0  0  0  0  0  0  0  0  0
   29.4786   30.9877   54.5054 O   0  0  0  0  0  0  0  0  0  0  0  0
   36.1155   31.0897   49.1661 C   0  0  0  0  0  0  0  0  0  0  0  0
   33.8117   32.6379   53.2196 C   0  0  0  0  0  0  0  0  0  0  0  0
   30.6839   30.6347   53.8420 C   0  0  0  0  0  0  0  0  0  0  0  0
   36.3206   31.4034   50.6578 C   0  0  0  0  0  0  0  0  0  0  0  0
   35.1856   32.2236   52.6379 C   0  0  0  0  0  0  0  0  0  0  0  0
   31.6076   31.8658   53.8436 C   0  0  0  0  0  0  0  0  0  0  0  0
  1 12  1  0  0  0  0
  1 11  1  0  0  0  0
  2 13  1  0  0  0  0
  2  9  1  0  0  0  0
  3  4  1  1  0  0  0
  3  5  2  0  0  0  0
  3  6  1  0  0  0  0
  6  8  1  0  0  0  0
  7 10  1  0  0  0  0
  8 11  1  0  0  0  0
  9 12  1  0  0  0  0
 10 13  1  0  0  0  0
M  CHG  1   4  -1
M  END
>  <CHROM.1>
-178.84753809,-178.25723679,-161.71916550,-174.79200533,-177.63880738,175.90141739
62.82617065,177.88927973,-176.42112119,35.00323501,31.16261170,50.50574191
-2.40061914,-0.39922980,-2.11472789

>  <Name>
ligand

>  <RI>
0

>  <Rbt.Current_Directory>
/home/itssahil/PROJECTS/Mol_Feturizer/New_Systems/rnas/2NPY

>  <Rbt.Executable>
rbdock ($Id: //depot/dev/client3/rdock/2013.1/src/exe/rbdock.cxx#4 $)

>  <Rbt.Library>
libRbt.so (2013.1, Build901 2013/11/27)

>  <Rbt.Parameter_File>
/export/apps/rDock/src/rDock_2013.1_src/data/scripts/dock_solv.prm

>  <Rbt.Receptor>
prm/pocket_docking_8.prm

>  <SCORE>
-12.6065

>  <SCORE.INTER>
1.58876

>  <SCORE.INTER.CONST>
1

>  <SCORE.INTER.POLAR>
0

>  <SCORE.INTER.ROT>
9

>  <SCORE.INTER.SOLV>
11.9093

>  <SCORE.INTER.VDW>
-12.5106

>  <SCORE.INTER.norm>
0.122213

>  <SCORE.INTRA>
-14.1953

>  <SCORE.INTRA.DIHEDRAL>
-25.1113

>  <SCORE.INTRA.DIHEDRAL.0>
25.6828

>  <SCORE.INTRA.POLAR>
0

>  <SCORE.INTRA.POLAR.0>
0

>  <SCORE.INTRA.REPUL>
0

>  <SCORE.INTRA.REPUL.0>
0

>  <SCORE.INTRA.SOLV>
-1.46266

>  <SCORE.INTRA.SOLV.lig_0>
-48.5059

>  <SCORE.INTRA.VDW>
-0.90832

>  <SCORE.INTRA.VDW.0>
-0.363643

>  <SCORE.INTRA.norm>
-1.09195

>  <SCORE.RESTR>
0

>  <SCORE.RESTR.CAVITY>
0

>  <SCORE.RESTR.norm>
0

>  <SCORE.SYSTEM>
0

>  <SCORE.SYSTEM.CONST>
0

>  <SCORE.SYSTEM.DIHEDRAL>
0

>  <SCORE.SYSTEM.SOLV>
0

>  <SCORE.SYSTEM.norm>
0

>  <SCORE.heavy>
13

>  <SCORE.norm>
-0.969734

>  <RMSD>
6.998

$$$$
ligand
 OpenBabel11021811453D
libRbt.so/2013.1/901 2013/11/27
 13 12  0  0  0  0  0  0  0  0999 V2000
   36.9889   30.6964   46.7155 O   0  0  0  0  0  0  0  0  0  0  0  0
   36.2028   31.1994   50.3580 O   0  0  0  0  0  0  0  0  0  0  0  0
   36.1418   30.4924   42.4643 P   0  0  2  0  0  0  0  0  0  0  0  0
   36.6768   31.8419   42.1205 O   0  5  0  0  0  0  0  0  0  0  0  0
   34.6926   30.2181   42.2869 O   0  0  0  0  0  0  0  0  0  0  0  0
   36.5031   30.1685   43.9749 O   0  0  0  0  0  0  0  0  0  0  0  0
   34.5759   32.6605   53.3035 O   0  0  0  0  0  0  0  0  0  0  0  0
   37.8433   30.3220   44.4639 C   0  0  0  0  0  0  0  0  0  0  0  0
   36.0266   31.3019   48.9218 C   0  0  0  0  0  0  0  0  0  0  0  0
   35.5473   31.8912   52.6093 C   0  0  0  0  0  0  0  0  0  0  0  0
   37.9129   29.9063   45.9432 C   0  0  0  0  0  0  0  0  0  0  0  0
   37.0883   30.4797   48.1506 C   0  0  0  0  0  0  0  0  0  0  0  0
   35.2314   31.9688   51.1050 C   0  0  0  0  0  0  0  0  0  0  0  0
  1 12  1  0  0  0  0
  1 11  1  0  0  0  0
  2 13  1  0  0  0  0
  2  9  1  0  0  0  0
  3  4  1  1  0  0  0
  3  5  2  0  0  0  0
  3  6  1  0  0  0  0
  6  8  1  0  0  0  0
  7 10  1  0  0  0  0
  8 11  1  0  0  0  0
  9 12  1  0  0  0  0
 10 13  1  0  0  0  0
M  CHG  1   4  -1
M  END
>  <CHROM.1>
-177.21294780,-175.88265938,-50.19536557,-178.55852957,-57.65712289,179.44207182
-174.18034456,179.82281631,-173.53376096,36.23602095,30.97636281,46.69981042
-1.46897424,-0.40554444,1.46562678

>  <Name>
ligand

>  <RI>
0

>  <Rbt.Current_Directory>
/home/itssahil/PROJECTS/Mol_Feturizer/New_Systems/rnas/2NPY

>  <Rbt.Executable>
rbdock ($Id: //depot/dev/client3/rdock/2013.1/src/exe/rbdock.cxx#4 $)

>  <Rbt.Library>
libRbt.so (2013.1, Build901 2013/11/27)

>  <Rbt.Parameter_File>
/export/apps/rDock/src/rDock_2013.1_src/data/scripts/dock_solv.prm

>  <Rbt.Receptor>
prm/pocket_docking_8.prm

>  <SCORE>
-13.9227

>  <SCORE.INTER>
0.222932

>  <SCORE.INTER.CONST>
1

>  <SCORE.INTER.POLAR>
0

>  <SCORE.INTER.ROT>
9

>  <SCORE.INTER.SOLV>
12.2619

>  <SCORE.INTER.VDW>
-13.5387

>  <SCORE.INTER.norm>
0.0171486

>  <SCORE.INTRA>
-14.1456

>  <SCORE.INTRA.DIHEDRAL>
-25.1453

>  <SCORE.INTRA.DIHEDRAL.0>
25.6828

>  <SCORE.INTRA.POLAR>
0

>  <SCORE.INTRA.POLAR.0>
0

>  <SCORE.INTRA.REPUL>
0

>  <SCORE.INTRA.REPUL.0>
0

>  <SCORE.INTRA.SOLV>
-1.42568

>  <SCORE.INTRA.SOLV.lig_0>
-48.5059

>  <SCORE.INTRA.VDW>
-0.8601

>  <SCORE.INTRA.VDW.0>
-0.363643

>  <SCORE.INTRA.norm>
-1.08812

>  <SCORE.RESTR>
0

>  <SCORE.RESTR.CAVITY>
0

>  <SCORE.RESTR.norm>
0

>  <SCORE.SYSTEM>
0

>  <SCORE.SYSTEM.CONST>
0

>  <SCORE.SYSTEM.DIHEDRAL>
0

>  <SCORE.SYSTEM.SOLV>
0

>  <SCORE.SYSTEM.norm>
0

>  <SCORE.heavy>
13

>  <SCORE.norm>
-1.07098

>  <RMSD>
7.004

$$$$
ligand
 OpenBabel11021811453D
libRbt.so/2013.1/901 2013/11/27
 13 12  0  0  0  0  0  0  0  0999 V2000
   36.9964   30.8913   45.5432 O   0  0  0  0  0  0  0  0  0  0  0  0
   36.2174   30.8643   48.3300 O   0  0  0  0  0  0  0  0  0  0  0  0
   36.7859   34.0253   42.5356 P   0  0  2  0  0  0  0  0  0  0  0  0
   35.4684   34.5496   42.9990 O   0  5  0  0  0  0  0  0  0  0  0  0
   36.9702   33.6883   41.1006 O   0  0  0  0  0  0  0  0  0  0  0  0
   37.1444   32.7281   43.3759 O   0  0  0  0  0  0  0  0  0  0  0  0
   33.7970   30.9055   49.7723 O   0  0  0  0  0  0  0  0  0  0  0  0
   36.3373   31.5449   43.2896 C   0  0  0  0  0  0  0  0  0  0  0  0
   37.5390   30.4284   47.9205 C   0  0  0  0  0  0  0  0  0  0  0  0
   34.7836   31.8969   50.0196 C   0  0  0  0  0  0  0  0  0  0  0  0
   36.9319   30.4384   44.1775 C   0  0  0  0  0  0  0  0  0  0  0  0
   37.5482   29.9077   46.4622 C   0  0  0  0  0  0  0  0  0  0  0  0
   36.1622   31.2849   49.7133 C   0  0  0  0  0  0  0  0  0  0  0  0
  1 12  1  0  0  0  0
  1 11  1  0  0  0  0
  2 13  1  0  0  0  0
  2  9  1  0  0  0  0
  3  4  1  6  0  0  0
  3  5  2  0  0  0  0
  3  6  1  0  0  0  0
  6  8  1  0  0  0  0
  7 10  1  0  0  0  0
  8 11  1  0  0  0  0
  9 12  1  0  0  0  0
 10 13  1  0  0  0  0
M  CHG  1   4  -1
M  END
>  <CHROM.1>
-177.68524178,172.84037328,64.09929052,178.62493545,58.89629022,176.68363945
54.12163024,59.90779270,-179.99447717,36.37966168,31.98866523,45.49292837
-1.80224970,0.87270040,-1.03186370

>  <Name>
ligand

>  <RI>
0

>  <Rbt.Current_Directory>
/home/itssahil/PROJECTS/Mol_Feturizer/New_Systems/rnas/2NPY

>  <Rbt.Executable>
rbdock ($Id: //depot/dev/client3/rdock/2013.1/src/exe/rbdock.cxx#4 $)

>  <Rbt.Library>
libRbt.so (2013.1, Build901 2013/11/27)

>  <Rbt.Parameter_File>
/export/apps/rDock/src/rDock_2013.1_src/data/scripts/dock_solv.prm

>  <Rbt.Receptor>
prm/pocket_docking_8.prm

>  <SCORE>
-11.0569

>  <SCORE.INTER>
2.97705

>  <SCORE.INTER.CONST>
1

>  <SCORE.INTER.POLAR>
0

>  <SCORE.INTER.ROT>
9

>  <SCORE.INTER.SOLV>
5.16802

>  <SCORE.INTER.VDW>
-9.33797

>  <SCORE.INTER.norm>
0.229004

>  <SCORE.INTRA>
-14.0339

>  <SCORE.INTRA.DIHEDRAL>
-25.1779

>  <SCORE.INTRA.DIHEDRAL.0>
25.6828

>  <SCORE.INTRA.POLAR>
0

>  <SCORE.INTRA.POLAR.0>
0

>  <SCORE.INTRA.REPUL>
0

>  <SCORE.INTRA.REPUL.0>
0

>  <SCORE.INTRA.SOLV>
-0.585065

>  <SCORE.INTRA.SOLV.lig_0>
-48.5059

>  <SCORE.INTRA.VDW>
-1.15243

>  <SCORE.INTRA.VDW.0>
-0.363643

>  <SCORE.INTRA.norm>
-1.07953

>  <SCORE.RESTR>
0

>  <SCORE.RESTR.CAVITY>
0

>  <SCORE.RESTR.norm>
0

>  <SCORE.SYSTEM>
0

>  <SCORE.SYSTEM.CONST>
0

>  <SCORE.SYSTEM.DIHEDRAL>
0

>  <SCORE.SYSTEM.SOLV>
0

>  <SCORE.SYSTEM.norm>
0

>  <SCORE.heavy>
13

>  <SCORE.norm>
-0.850529

>  <RMSD>
7.034

$$$$
ligand
 OpenBabel11021811453D
libRbt.so/2013.1/901 2013/11/27
 13 12  0  0  0  0  0  0  0  0999 V2000
   30.6097   31.9160   47.3897 O   0  0  0  0  0  0  0  0  0  0  0  0
   34.1241   31.8892   48.7224 O   0  0  0  0  0  0  0  0  0  0  0  0
   26.2634   32.0111   44.7966 P   0  0  2  0  0  0  0  0  0  0  0  0
   25.8490   32.5891   43.4853 O   0  5  0  0  0  0  0  0  0  0  0  0
   25.5345   32.4076   46.0288 O   0  0  0  0  0  0  0  0  0  0  0  0
   27.7998   32.3288   45.0330 O   0  0  0  0  0  0  0  0  0  0  0  0
   36.6272   30.5642   48.8054 O   0  0  0  0  0  0  0  0  0  0  0  0
   28.4795   31.8608   46.2068 C   0  0  0  0  0  0  0  0  0  0  0  0
   32.6763   31.8068   48.7600 C   0  0  0  0  0  0  0  0  0  0  0  0
   36.2786   31.5041   49.8116 C   0  0  0  0  0  0  0  0  0  0  0  0
   29.9611   32.2707   46.1536 C   0  0  0  0  0  0  0  0  0  0  0  0
   32.0427   32.1668   47.3937 C   0  0  0  0  0  0  0  0  0  0  0  0
   34.7474   31.4918   49.9662 C   0  0  0  0  0  0  0  0  0  0  0  0
  1 12  1  0  0  0  0
  1 11  1  0  0  0  0
  2 13  1  0  0  0  0
  2  9  1  0  0  0  0
  3  4  1  6  0  0  0
  3  5  2  0  0  0  0
  3  6  1  0  0  0  0
  6  8  1  0  0  0  0
  7 10  1  0  0  0  0
  8 11  1  0  0  0  0
  9 12  1  0  0  0  0
 10 13  1  0  0  0  0
M  CHG  1   4  -1
M  END
>  <CHROM.1>
178.28405974,175.72484135,-178.41381087,178.11139609,174.36591233,-177.02123804
172.62246517,-61.47585689,175.28825909,30.43552954,31.91877845,46.90263745
0.44766968,-0.13268603,1.50237077

>  <Name>
ligand

>  <RI>
0

>  <Rbt.Current_Directory>
/home/itssahil/PROJECTS/Mol_Feturizer/New_Systems/rnas/2NPY

>  <Rbt.Executable>
rbdock ($Id: //depot/dev/client3/rdock/2013.1/src/exe/rbdock.cxx#4 $)

>  <Rbt.Library>
libRbt.so (2013.1, Build901 2013/11/27)

>  <Rbt.Parameter_File>
/export/apps/rDock/src/rDock_2013.1_src/data/scripts/dock_solv.prm

>  <Rbt.Receptor>
prm/pocket_docking_8.prm

>  <SCORE>
-10.9675

>  <SCORE.INTER>
2.96222

>  <SCORE.INTER.CONST>
1

>  <SCORE.INTER.POLAR>
0

>  <SCORE.INTER.ROT>
9

>  <SCORE.INTER.SOLV>
7.89754

>  <SCORE.INTER.VDW>
-10.2577

>  <SCORE.INTER.norm>
0.227863

>  <SCORE.INTRA>
-13.9297

>  <SCORE.INTRA.DIHEDRAL>
-25.0343

>  <SCORE.INTRA.DIHEDRAL.0>
25.6828

>  <SCORE.INTRA.POLAR>
0

>  <SCORE.INTRA.POLAR.0>
0

>  <SCORE.INTRA.REPUL>
0

>  <SCORE.INTRA.REPUL.0>
0

>  <SCORE.INTRA.SOLV>
-1.2941

>  <SCORE.INTRA.SOLV.lig_0>
-48.5059

>  <SCORE.INTRA.VDW>
-0.765511

>  <SCORE.INTRA.VDW.0>
-0.363643

>  <SCORE.INTRA.norm>
-1.07151

>  <SCORE.RESTR>
0

>  <SCORE.RESTR.CAVITY>
0

>  <SCORE.RESTR.norm>
0

>  <SCORE.SYSTEM>
0

>  <SCORE.SYSTEM.CONST>
0

>  <SCORE.SYSTEM.DIHEDRAL>
0

>  <SCORE.SYSTEM.SOLV>
0

>  <SCORE.SYSTEM.norm>
0

>  <SCORE.heavy>
13

>  <SCORE.norm>
-0.843651

>  <RMSD>
7.038

$$$$
ligand
 OpenBabel11021811453D
libRbt.so/2013.1/901 2013/11/27
 13 12  0  0  0  0  0  0  0  0999 V2000
   33.9567   31.8363   48.6866 O   0  0  0  0  0  0  0  0  0  0  0  0
   36.4293   30.4743   47.9933 O   0  0  0  0  0  0  0  0  0  0  0  0
   31.0833   31.9815   45.3968 P   0  0  2  0  0  0  0  0  0  0  0  0
   31.7011   33.2121   44.8229 O   0  5  0  0  0  0  0  0  0  0  0  0
   29.6261   31.9663   45.6853 O   0  0  0  0  0  0  0  0  0  0  0  0
   31.8360   31.6116   46.7437 O   0  0  0  0  0  0  0  0  0  0  0  0
   37.1021   30.4557   45.2331 O   0  0  0  0  0  0  0  0  0  0  0  0
   31.7321   32.4506   47.9031 C   0  0  0  0  0  0  0  0  0  0  0  0
   36.2963   31.2143   49.2339 C   0  0  0  0  0  0  0  0  0  0  0  0
   37.8409   29.6772   46.1634 C   0  0  0  0  0  0  0  0  0  0  0  0
   32.5643   31.8602   49.0541 C   0  0  0  0  0  0  0  0  0  0  0  0
   34.8249   31.2784   49.7120 C   0  0  0  0  0  0  0  0  0  0  0  0
   37.7961   30.3919   47.5257 C   0  0  0  0  0  0  0  0  0  0  0  0
  1 12  1  0  0  0  0
  1 11  1  0  0  0  0
  2 13  1  0  0  0  0
  2  9  1  0  0  0  0
  3  4  1  1  0  0  0
  3  5  2  0  0  0  0
  3  6  1  0  0  0  0
  6  8  1  0  0  0  0
  7 10  1  0  0  0  0
  8 11  1  0  0  0  0
  9 12  1  0  0  0  0
 10 13  1  0  0  0  0
M  CHG  1   4  -1
M  END
>  <CHROM.1>
177.18138588,-176.21689484,67.71678896,-179.65842753,63.02082404,-179.69440725
-55.56856575,62.24917014,-179.38121646,33.78700601,31.47147412,47.05436056
0.22017924,-0.29568902,1.49853693

>  <Name>
ligand

>  <RI>
0

>  <Rbt.Current_Directory>
/home/itssahil/PROJECTS/Mol_Feturizer/New_Systems/rnas/2NPY

>  <Rbt.Executable>
rbdock ($Id: //depot/dev/client3/rdock/2013.1/src/exe/rbdock.cxx#4 $)

>  <Rbt.Library>
libRbt.so (2013.1, Build901 2013/11/27)

>  <Rbt.Parameter_File>
/export/apps/rDock/src/rDock_2013.1_src/data/scripts/dock_solv.prm

>  <Rbt.Receptor>
prm/pocket_docking_6.prm

>  <SCORE>
-13.8386

>  <SCORE.INTER>
0.336318

>  <SCORE.INTER.CONST>
1

>  <SCORE.INTER.POLAR>
0

>  <SCORE.INTER.ROT>
9

>  <SCORE.INTER.SOLV>
10.8019

>  <SCORE.INTER.VDW>
-12.9764

>  <SCORE.INTER.norm>
0.0258706

>  <SCORE.INTRA>
-14.175

>  <SCORE.INTRA.DIHEDRAL>
-25.4067

>  <SCORE.INTRA.DIHEDRAL.0>
25.6828

>  <SCORE.INTRA.POLAR>
0

>  <SCORE.INTRA.POLAR.0>
0

>  <SCORE.INTRA.REPUL>
0

>  <SCORE.INTRA.REPUL.0>
0

>  <SCORE.INTRA.SOLV>
-0.600716

>  <SCORE.INTRA.SOLV.lig_0>
-48.5059

>  <SCORE.INTRA.VDW>
-1.17124

>  <SCORE.INTRA.VDW.0>
-0.363643

>  <SCORE.INTRA.norm>
-1.09038

>  <SCORE.RESTR>
0

>  <SCORE.RESTR.CAVITY>
0

>  <SCORE.RESTR.norm>
0

>  <SCORE.SYSTEM>
0

>  <SCORE.SYSTEM.CONST>
0

>  <SCORE.SYSTEM.DIHEDRAL>
0

>  <SCORE.SYSTEM.SOLV>
0

>  <SCORE.SYSTEM.norm>
0

>  <SCORE.heavy>
13

>  <SCORE.norm>
-1.06451

>  <RMSD>
7.041

$$$$
ligand
 OpenBabel11021811453D
libRbt.so/2013.1/901 2013/11/27
 13 12  0  0  0  0  0  0  0  0999 V2000
   34.3386   31.6087   47.9970 O   0  0  0  0  0  0  0  0  0  0  0  0
   36.8377   30.9592   46.6867 O   0  0  0  0  0  0  0  0  0  0  0  0
   31.1882   32.8215   45.2657 P   0  0  2  0  0  0  0  0  0  0  0  0
   31.8100   33.1194   43.9428 O   0  5  0  0  0  0  0  0  0  0  0  0
   30.0805   33.6801   45.7582 O   0  0  0  0  0  0  0  0  0  0  0  0
   32.3211   32.8275   46.3765 O   0  0  0  0  0  0  0  0  0  0  0  0
   36.6054   30.3464   43.9443 O   0  0  0  0  0  0  0  0  0  0  0  0
   32.0468   32.3885   47.7147 C   0  0  0  0  0  0  0  0  0  0  0  0
   36.6313   30.6628   48.0917 C   0  0  0  0  0  0  0  0  0  0  0  0
   37.8884   30.4012   44.5511 C   0  0  0  0  0  0  0  0  0  0  0  0
   33.3270   32.4629   48.5641 C   0  0  0  0  0  0  0  0  0  0  0  0
   35.5923   31.6138   48.7349 C   0  0  0  0  0  0  0  0  0  0  0  0
   37.7309   30.0257   46.0353 C   0  0  0  0  0  0  0  0  0  0  0  0
  1 12  1  0  0  0  0
  1 11  1  0  0  0  0
  2 13  1  0  0  0  0
  2  9  1  0  0  0  0
  3  4  1  6  0  0  0
  3  5  2  0  0  0  0
  3  6  1  0  0  0  0
  6  8  1  0  0  0  0
  7 10  1  0  0  0  0
  8 11  1  0  0  0  0
  9 12  1  0  0  0  0
 10 13  1  0  0  0  0
M  CHG  1   4  -1
M  END
>  <CHROM.1>
179.13065162,179.56750938,-171.19775308,178.41297267,-60.50943714,-175.79515602
54.31408636,-60.08682063,179.95177106,34.04774927,31.86621412,46.30520282
0.05333941,-0.40796879,1.52893640

>  <Name>
ligand

>  <RI>
0

>  <Rbt.Current_Directory>
/home/itssahil/PROJECTS/Mol_Feturizer/New_Systems/rnas/2NPY

>  <Rbt.Executable>
rbdock ($Id: //depot/dev/client3/rdock/2013.1/src/exe/rbdock.cxx#4 $)

>  <Rbt.Library>
libRbt.so (2013.1, Build901 2013/11/27)

>  <Rbt.Parameter_File>
/export/apps/rDock/src/rDock_2013.1_src/data/scripts/dock_solv.prm

>  <Rbt.Receptor>
prm/pocket_docking_4.prm

>  <SCORE>
-11.4437

>  <SCORE.INTER>
2.89533

>  <SCORE.INTER.CONST>
1

>  <SCORE.INTER.POLAR>
0

>  <SCORE.INTER.ROT>
9

>  <SCORE.INTER.SOLV>
7.61978

>  <SCORE.INTER.VDW>
-10.2097

>  <SCORE.INTER.norm>
0.222718

>  <SCORE.INTRA>
-14.3391

>  <SCORE.INTRA.DIHEDRAL>
-25.4133

>  <SCORE.INTRA.DIHEDRAL.0>
25.6828

>  <SCORE.INTRA.POLAR>
0

>  <SCORE.INTRA.POLAR.0>
0

>  <SCORE.INTRA.REPUL>
0

>  <SCORE.INTRA.REPUL.0>
0

>  <SCORE.INTRA.SOLV>
-1.01187

>  <SCORE.INTRA.SOLV.lig_0>
-48.5059

>  <SCORE.INTRA.VDW>
-1.12647

>  <SCORE.INTRA.VDW.0>
-0.363643

>  <SCORE.INTRA.norm>
-1.10301

>  <SCORE.RESTR>
0

>  <SCORE.RESTR.CAVITY>
0

>  <SCORE.RESTR.norm>
0

>  <SCORE.SYSTEM>
0

>  <SCORE.SYSTEM.CONST>
0

>  <SCORE.SYSTEM.DIHEDRAL>
0

>  <SCORE.SYSTEM.SOLV>
0

>  <SCORE.SYSTEM.norm>
0

>  <SCORE.heavy>
13

>  <SCORE.norm>
-0.880288

>  <RMSD>
7.043

$$$$
ligand
 OpenBabel11021811453D
libRbt.so/2013.1/901 2013/11/27
 13 12  0  0  0  0  0  0  0  0999 V2000
   36.6016   30.2042   44.4753 O   0  0  0  0  0  0  0  0  0  0  0  0
   36.8720   30.9028   47.2849 O   0  0  0  0  0  0  0  0  0  0  0  0
   33.0431   31.8101   42.5149 P   0  0  2  0  0  0  0  0  0  0  0  0
   33.0689   32.1678   41.0669 O   0  5  0  0  0  0  0  0  0  0  0  0
   32.4446   32.7599   43.4878 O   0  0  0  0  0  0  0  0  0  0  0  0
   34.5259   31.5130   42.9950 O   0  0  0  0  0  0  0  0  0  0  0  0
   34.5064   31.5800   48.6853 O   0  0  0  0  0  0  0  0  0  0  0  0
   35.2784   30.4244   42.4404 C   0  0  0  0  0  0  0  0  0  0  0  0
   37.7361   29.9167   46.6641 C   0  0  0  0  0  0  0  0  0  0  0  0
   35.7772   31.7758   49.2889 C   0  0  0  0  0  0  0  0  0  0  0  0
   36.6900   30.3978   43.0509 C   0  0  0  0  0  0  0  0  0  0  0  0
   37.8932   30.1637   45.1435 C   0  0  0  0  0  0  0  0  0  0  0  0
   36.7448   30.7253   48.7152 C   0  0  0  0  0  0  0  0  0  0  0  0
  1 12  1  0  0  0  0
  1 11  1  0  0  0  0
  2 13  1  0  0  0  0
  2  9  1  0  0  0  0
  3  4  1  6  0  0  0
  3  5  2  0  0  0  0
  3  6  1  0  0  0  0
  6  8  1  0  0  0  0
  7 10  1  0  0  0  0
  8 11  1  0  0  0  0
  9 12  1  0  0  0  0
 10 13  1  0  0  0  0
M  CHG  1   4  -1
M  END
>  <CHROM.1>
-178.50705179,-178.02795554,-62.98922091,178.17739282,61.06822345,-177.92116418
-55.66820537,61.25577244,179.93558029,35.23513252,31.18337734,44.83582890
-1.01904633,0.47394724,-1.68470881

>  <Name>
ligand

>  <RI>
0

>  <Rbt.Current_Directory>
/home/itssahil/PROJECTS/Mol_Feturizer/New_Systems/rnas/2NPY

>  <Rbt.Executable>
rbdock ($Id: //depot/dev/client3/rdock/2013.1/src/exe/rbdock.cxx#4 $)

>  <Rbt.Library>
libRbt.so (2013.1, Build901 2013/11/27)

>  <Rbt.Parameter_File>
/export/apps/rDock/src/rDock_2013.1_src/data/scripts/dock_solv.prm

>  <Rbt.Receptor>
prm/pocket_docking_7.prm

>  <SCORE>
-13.3304

>  <SCORE.INTER>
1.08135

>  <SCORE.INTER.CONST>
1

>  <SCORE.INTER.POLAR>
0

>  <SCORE.INTER.ROT>
9

>  <SCORE.INTER.SOLV>
14.3482

>  <SCORE.INTER.VDW>
-13.6618

>  <SCORE.INTER.norm>
0.0831809

>  <SCORE.INTRA>
-14.4118

>  <SCORE.INTRA.DIHEDRAL>
-25.4349

>  <SCORE.INTRA.DIHEDRAL.0>
25.6828

>  <SCORE.INTRA.POLAR>
0

>  <SCORE.INTRA.POLAR.0>
0

>  <SCORE.INTRA.REPUL>
0

>  <SCORE.INTRA.REPUL.0>
0

>  <SCORE.INTRA.SOLV>
-1.07659

>  <SCORE.INTRA.SOLV.lig_0>
-48.5059

>  <SCORE.INTRA.VDW>
-1.15602

>  <SCORE.INTRA.VDW.0>
-0.363643

>  <SCORE.INTRA.norm>
-1.1086

>  <SCORE.RESTR>
0

>  <SCORE.RESTR.CAVITY>
0

>  <SCORE.RESTR.norm>
0

>  <SCORE.SYSTEM>
0

>  <SCORE.SYSTEM.CONST>
0

>  <SCORE.SYSTEM.DIHEDRAL>
0

>  <SCORE.SYSTEM.SOLV>
0

>  <SCORE.SYSTEM.norm>
0

>  <SCORE.heavy>
13

>  <SCORE.norm>
-1.02542

>  <RMSD>
7.071

$$$$
ligand
 OpenBabel11021811453D
libRbt.so/2013.1/901 2013/11/27
 13 12  0  0  0  0  0  0  0  0999 V2000
   36.4287   30.7513   46.8474 O   0  0  0  0  0  0  0  0  0  0  0  0
   36.0293   31.0053   43.9213 O   0  0  0  0  0  0  0  0  0  0  0  0
   33.1385   32.2254   49.3334 P   0  0  2  0  0  0  0  0  0  0  0  0
   32.5669   30.9020   49.7171 O   0  5  0  0  0  0  0  0  0  0  0  0
   32.3100   33.1746   48.5462 O   0  0  0  0  0  0  0  0  0  0  0  0
   34.4823   31.9870   48.5242 O   0  0  0  0  0  0  0  0  0  0  0  0
   33.4046   31.4798   42.9835 O   0  0  0  0  0  0  0  0  0  0  0  0
   35.5471   31.1985   49.0751 C   0  0  0  0  0  0  0  0  0  0  0  0
   37.0972   30.2242   44.5159 C   0  0  0  0  0  0  0  0  0  0  0  0
   34.4833   31.3806   42.0649 C   0  0  0  0  0  0  0  0  0  0  0  0
   36.7752   31.2566   48.1508 C   0  0  0  0  0  0  0  0  0  0  0  0
   37.5260   30.7881   45.8929 C   0  0  0  0  0  0  0  0  0  0  0  0
   35.5461   30.4498   42.6757 C   0  0  0  0  0  0  0  0  0  0  0  0
  1 12  1  0  0  0  0
  1 11  1  0  0  0  0
  2 13  1  0  0  0  0
  2  9  1  0  0  0  0
  3  4  1  6  0  0  0
  3  5  2  0  0  0  0
  3  6  1  0  0  0  0
  6  8  1  0  0  0  0
  7 10  1  0  0  0  0
  8 11  1  0  0  0  0
  9 12  1  0  0  0  0
 10 13  1  0  0  0  0
M  CHG  1   4  -1
M  END
>  <CHROM.1>
179.59186544,-176.33765070,-54.77244986,-174.03072783,-59.52305029,-176.08302834
61.76663909,-60.86005966,179.00006310,34.82819881,31.38319254,46.59221927
-1.21261667,-0.30498454,1.50224555

>  <Name>
ligand

>  <RI>
0

>  <Rbt.Current_Directory>
/home/itssahil/PROJECTS/Mol_Feturizer/New_Systems/rnas/2NPY

>  <Rbt.Executable>
rbdock ($Id: //depot/dev/client3/rdock/2013.1/src/exe/rbdock.cxx#4 $)

>  <Rbt.Library>
libRbt.so (2013.1, Build901 2013/11/27)

>  <Rbt.Parameter_File>
/export/apps/rDock/src/rDock_2013.1_src/data/scripts/dock_solv.prm

>  <Rbt.Receptor>
prm/pocket_docking_4.prm

>  <SCORE>
-11.0534

>  <SCORE.INTER>
3.22431

>  <SCORE.INTER.CONST>
1

>  <SCORE.INTER.POLAR>
0

>  <SCORE.INTER.ROT>
9

>  <SCORE.INTER.SOLV>
9.04292

>  <SCORE.INTER.VDW>
-10.4648

>  <SCORE.INTER.norm>
0.248024

>  <SCORE.INTRA>
-14.286

>  <SCORE.INTRA.DIHEDRAL>
-25.3164

>  <SCORE.INTRA.DIHEDRAL.0>
25.6828

>  <SCORE.INTRA.POLAR>
0

>  <SCORE.INTRA.POLAR.0>
0

>  <SCORE.INTRA.REPUL>
0

>  <SCORE.INTRA.REPUL.0>
0

>  <SCORE.INTRA.SOLV>
-1.07493

>  <SCORE.INTRA.SOLV.lig_0>
-48.5059

>  <SCORE.INTRA.VDW>
-1.09033

>  <SCORE.INTRA.VDW.0>
-0.363643

>  <SCORE.INTRA.norm>
-1.09892

>  <SCORE.RESTR>
0.008221

>  <SCORE.RESTR.CAVITY>
0.008221

>  <SCORE.RESTR.norm>
0.000632385

>  <SCORE.SYSTEM>
0

>  <SCORE.SYSTEM.CONST>
0

>  <SCORE.SYSTEM.DIHEDRAL>
0

>  <SCORE.SYSTEM.SOLV>
0

>  <SCORE.SYSTEM.norm>
0

>  <SCORE.heavy>
13

>  <SCORE.norm>
-0.850265

>  <RMSD>
7.075

$$$$
ligand
 OpenBabel11021811453D
libRbt.so/2013.1/901 2013/11/27
 13 12  0  0  0  0  0  0  0  0999 V2000
   30.6210   32.4813   45.9374 O   0  0  0  0  0  0  0  0  0  0  0  0
   33.5698   31.6878   48.1356 O   0  0  0  0  0  0  0  0  0  0  0  0
   26.0262   31.8930   47.9810 P   0  0  2  0  0  0  0  0  0  0  0  0
   26.4776   31.1519   49.1944 O   0  5  0  0  0  0  0  0  0  0  0  0
   24.7089   31.5657   47.3773 O   0  0  0  0  0  0  0  0  0  0  0  0
   27.1211   31.7290   46.8445 O   0  0  0  0  0  0  0  0  0  0  0  0
   37.0474   31.7706   49.2996 O   0  0  0  0  0  0  0  0  0  0  0  0
   28.4517   32.2364   47.0209 C   0  0  0  0  0  0  0  0  0  0  0  0
   32.8093   32.3656   47.1028 C   0  0  0  0  0  0  0  0  0  0  0  0
   35.7021   31.3158   49.2719 C   0  0  0  0  0  0  0  0  0  0  0  0
   29.2860   31.9720   45.7561 C   0  0  0  0  0  0  0  0  0  0  0  0
   31.3847   31.7768   46.9557 C   0  0  0  0  0  0  0  0  0  0  0  0
   34.9383   32.1485   48.2269 C   0  0  0  0  0  0  0  0  0  0  0  0
  1 12  1  0  0  0  0
  1 11  1  0  0  0  0
  2 13  1  0  0  0  0
  2  9  1  0  0  0  0
  3  4  1  1  0  0  0
  3  5  2  0  0  0  0
  3  6  1  0  0  0  0
  6  8  1  0  0  0  0
  7 10  1  0  0  0  0
  8 11  1  0  0  0  0
  9 12  1  0  0  0  0
 10 13  1  0  0  0  0
M  CHG  1   4  -1
M  END
>  <CHROM.1>
179.86792597,-176.00638498,-62.78587032,-178.55811605,-179.93814601,175.59264921
178.79849794,178.17713365,66.44277738,30.21786174,31.84973631,47.66188333
-0.09170139,-0.03528736,-1.31004390

>  <Name>
ligand

>  <RI>
0

>  <Rbt.Current_Directory>
/home/itssahil/PROJECTS/Mol_Feturizer/New_Systems/rnas/2NPY

>  <Rbt.Executable>
rbdock ($Id: //depot/dev/client3/rdock/2013.1/src/exe/rbdock.cxx#4 $)

>  <Rbt.Library>
libRbt.so (2013.1, Build901 2013/11/27)

>  <Rbt.Parameter_File>
/export/apps/rDock/src/rDock_2013.1_src/data/scripts/dock_solv.prm

>  <Rbt.Receptor>
prm/pocket_docking_8.prm

>  <SCORE>
-8.81859

>  <SCORE.INTER>
4.24848

>  <SCORE.INTER.CONST>
1

>  <SCORE.INTER.POLAR>
0

>  <SCORE.INTER.ROT>
9

>  <SCORE.INTER.SOLV>
7.96873

>  <SCORE.INTER.VDW>
-9.42392

>  <SCORE.INTER.norm>
0.326806

>  <SCORE.INTRA>
-13.0671

>  <SCORE.INTRA.DIHEDRAL>
-25.182

>  <SCORE.INTRA.DIHEDRAL.0>
25.6828

>  <SCORE.INTRA.POLAR>
0

>  <SCORE.INTRA.POLAR.0>
0

>  <SCORE.INTRA.REPUL>
0

>  <SCORE.INTRA.REPUL.0>
0

>  <SCORE.INTRA.SOLV>
-1.63841

>  <SCORE.INTRA.SOLV.lig_0>
-48.5059

>  <SCORE.INTRA.VDW>
0.343137

>  <SCORE.INTRA.VDW.0>
-0.363643

>  <SCORE.INTRA.norm>
-1.00516

>  <SCORE.RESTR>
0

>  <SCORE.RESTR.CAVITY>
0

>  <SCORE.RESTR.norm>
0

>  <SCORE.SYSTEM>
0

>  <SCORE.SYSTEM.CONST>
0

>  <SCORE.SYSTEM.DIHEDRAL>
0

>  <SCORE.SYSTEM.SOLV>
0

>  <SCORE.SYSTEM.norm>
0

>  <SCORE.heavy>
13

>  <SCORE.norm>
-0.678353

>  <RMSD>
7.080

$$$$
ligand
 OpenBabel11021811453D
libRbt.so/2013.1/901 2013/11/27
 13 12  0  0  0  0  0  0  0  0999 V2000
   36.2965   30.2641   44.3037 O   0  0  0  0  0  0  0  0  0  0  0  0
   36.6647   30.8904   47.0549 O   0  0  0  0  0  0  0  0  0  0  0  0
   33.0066   32.5329   42.4362 P   0  0  2  0  0  0  0  0  0  0  0  0
   31.9772   31.8977   43.3093 O   0  5  0  0  0  0  0  0  0  0  0  0
   32.8749   32.4252   40.9604 O   0  0  0  0  0  0  0  0  0  0  0  0
   34.4333   31.9591   42.8269 O   0  0  0  0  0  0  0  0  0  0  0  0
   35.4720   31.4247   50.4825 O   0  0  0  0  0  0  0  0  0  0  0  0
   34.8578   30.6642   42.3775 C   0  0  0  0  0  0  0  0  0  0  0  0
   37.5747   29.9630   46.4099 C   0  0  0  0  0  0  0  0  0  0  0  0
   35.4831   31.6023   49.0733 C   0  0  0  0  0  0  0  0  0  0  0  0
   36.2879   30.3814   42.8683 C   0  0  0  0  0  0  0  0  0  0  0  0
   37.6306   30.1817   44.8780 C   0  0  0  0  0  0  0  0  0  0  0  0
   36.5913   30.7085   48.4885 C   0  0  0  0  0  0  0  0  0  0  0  0
  1 12  1  0  0  0  0
  1 11  1  0  0  0  0
  2 13  1  0  0  0  0
  2  9  1  0  0  0  0
  3  4  1  1  0  0  0
  3  5  2  0  0  0  0
  3  6  1  0  0  0  0
  6  8  1  0  0  0  0
  7 10  1  0  0  0  0
  8 11  1  0  0  0  0
  9 12  1  0  0  0  0
 10 13  1  0  0  0  0
M  CHG  1   4  -1
M  END
>  <CHROM.1>
-176.22136896,-172.94867828,78.41073525,178.43883528,66.52656349,179.95836703
-48.54124910,-178.24566322,-171.90180948,35.09442493,31.27567899,44.81546625
-1.07085045,0.48495034,-1.64738682

>  <Name>
ligand

>  <RI>
0

>  <Rbt.Current_Directory>
/home/itssahil/PROJECTS/Mol_Feturizer/New_Systems/rnas/2NPY

>  <Rbt.Executable>
rbdock ($Id: //depot/dev/client3/rdock/2013.1/src/exe/rbdock.cxx#4 $)

>  <Rbt.Library>
libRbt.so (2013.1, Build901 2013/11/27)

>  <Rbt.Parameter_File>
/export/apps/rDock/src/rDock_2013.1_src/data/scripts/dock_solv.prm

>  <Rbt.Receptor>
prm/pocket_docking_5.prm

>  <SCORE>
-11.7099

>  <SCORE.INTER>
1.84475

>  <SCORE.INTER.CONST>
1

>  <SCORE.INTER.POLAR>
0

>  <SCORE.INTER.ROT>
9

>  <SCORE.INTER.SOLV>
15.249

>  <SCORE.INTER.VDW>
-13.4532

>  <SCORE.INTER.norm>
0.141904

>  <SCORE.INTRA>
-13.5546

>  <SCORE.INTRA.DIHEDRAL>
-24.1793

>  <SCORE.INTRA.DIHEDRAL.0>
25.6828

>  <SCORE.INTRA.POLAR>
0

>  <SCORE.INTRA.POLAR.0>
0

>  <SCORE.INTRA.REPUL>
0

>  <SCORE.INTRA.REPUL.0>
0

>  <SCORE.INTRA.SOLV>
-0.88651

>  <SCORE.INTRA.SOLV.lig_0>
-48.5059

>  <SCORE.INTRA.VDW>
-1.02174

>  <SCORE.INTRA.VDW.0>
-0.363643

>  <SCORE.INTRA.norm>
-1.04266

>  <SCORE.RESTR>
0

>  <SCORE.RESTR.CAVITY>
0

>  <SCORE.RESTR.norm>
0

>  <SCORE.SYSTEM>
0

>  <SCORE.SYSTEM.CONST>
0

>  <SCORE.SYSTEM.DIHEDRAL>
0

>  <SCORE.SYSTEM.SOLV>
0

>  <SCORE.SYSTEM.norm>
0

>  <SCORE.heavy>
13

>  <SCORE.norm>
-0.90076

>  <RMSD>
7.082

$$$$
ligand
 OpenBabel11021811453D
libRbt.so/2013.1/901 2013/11/27
 13 12  0  0  0  0  0  0  0  0999 V2000
   33.1830   31.6904   48.1450 O   0  0  0  0  0  0  0  0  0  0  0  0
   36.0264   31.2801   48.2508 O   0  0  0  0  0  0  0  0  0  0  0  0
   29.0117   32.3029   45.3418 P   0  0  2  0  0  0  0  0  0  0  0  0
   29.5034   33.2212   44.2739 O   0  5  0  0  0  0  0  0  0  0  0  0
   27.5927   32.3841   45.7739 O   0  0  0  0  0  0  0  0  0  0  0  0
   29.9115   32.4936   46.6346 O   0  0  0  0  0  0  0  0  0  0  0  0
   37.2102   29.8494   46.0722 O   0  0  0  0  0  0  0  0  0  0  0  0
   31.2225   31.9159   46.7149 C   0  0  0  0  0  0  0  0  0  0  0  0
   35.2382   31.2601   49.4685 C   0  0  0  0  0  0  0  0  0  0  0  0
   38.0065   30.5512   47.0161 C   0  0  0  0  0  0  0  0  0  0  0  0
   31.9052   32.3440   48.0250 C   0  0  0  0  0  0  0  0  0  0  0  0
   33.9357   32.0853   49.3257 C   0  0  0  0  0  0  0  0  0  0  0  0
   37.2660   30.5426   48.3653 C   0  0  0  0  0  0  0  0  0  0  0  0
  1 12  1  0  0  0  0
  1 11  1  0  0  0  0
  2 13  1  0  0  0  0
  2  9  1  0  0  0  0
  3  4  1  6  0  0  0
  3  5  2  0  0  0  0
  3  6  1  0  0  0  0
  6  8  1  0  0  0  0
  7 10  1  0  0  0  0
  8 11  1  0  0  0  0
  9 12  1  0  0  0  0
 10 13  1  0  0  0  0
M  CHG  1   4  -1
M  END
>  <CHROM.1>
174.89613549,177.11474098,-77.22397004,175.80153337,176.11698572,178.62227410
51.95967520,-64.38741992,177.12306298,32.70445738,31.74320516,47.00024317
0.24644035,-0.26721444,1.41869318

>  <Name>
ligand

>  <RI>
0

>  <Rbt.Current_Directory>
/home/itssahil/PROJECTS/Mol_Feturizer/New_Systems/rnas/2NPY

>  <Rbt.Executable>
rbdock ($Id: //depot/dev/client3/rdock/2013.1/src/exe/rbdock.cxx#4 $)

>  <Rbt.Library>
libRbt.so (2013.1, Build901 2013/11/27)

>  <Rbt.Parameter_File>
/export/apps/rDock/src/rDock_2013.1_src/data/scripts/dock_solv.prm

>  <Rbt.Receptor>
prm/pocket_docking_6.prm

>  <SCORE>
-11.8409

>  <SCORE.INTER>
2.11763

>  <SCORE.INTER.CONST>
1

>  <SCORE.INTER.POLAR>
0

>  <SCORE.INTER.ROT>
9

>  <SCORE.INTER.SOLV>
10.2068

>  <SCORE.INTER.VDW>
-11.5905

>  <SCORE.INTER.norm>
0.162895

>  <SCORE.INTRA>
-13.9585

>  <SCORE.INTRA.DIHEDRAL>
-24.5048

>  <SCORE.INTRA.DIHEDRAL.0>
25.6828

>  <SCORE.INTRA.POLAR>
0

>  <SCORE.INTRA.POLAR.0>
0

>  <SCORE.INTRA.REPUL>
0

>  <SCORE.INTRA.REPUL.0>
0

>  <SCORE.INTRA.SOLV>
-1.26104

>  <SCORE.INTRA.SOLV.lig_0>
-48.5059

>  <SCORE.INTRA.VDW>
-1.07554

>  <SCORE.INTRA.VDW.0>
-0.363643

>  <SCORE.INTRA.norm>
-1.07373

>  <SCORE.RESTR>
0

>  <SCORE.RESTR.CAVITY>
0

>  <SCORE.RESTR.norm>
0

>  <SCORE.SYSTEM>
0

>  <SCORE.SYSTEM.CONST>
0

>  <SCORE.SYSTEM.DIHEDRAL>
0

>  <SCORE.SYSTEM.SOLV>
0

>  <SCORE.SYSTEM.norm>
0

>  <SCORE.heavy>
13

>  <SCORE.norm>
-0.910835

>  <RMSD>
7.093

$$$$
ligand
 OpenBabel11021811453D
libRbt.so/2013.1/901 2013/11/27
 13 12  0  0  0  0  0  0  0  0999 V2000
   32.0042   31.6211   49.0320 O   0  0  0  0  0  0  0  0  0  0  0  0
   34.9052   30.9367   49.2971 O   0  0  0  0  0  0  0  0  0  0  0  0
   27.8118   32.2562   46.2674 P   0  0  2  0  0  0  0  0  0  0  0  0
   26.4560   31.6342   46.2747 O   0  5  0  0  0  0  0  0  0  0  0  0
   28.6085   32.2485   45.0136 O   0  0  0  0  0  0  0  0  0  0  0  0
   28.6951   31.5709   47.3933 O   0  0  0  0  0  0  0  0  0  0  0  0
   36.5396   31.1589   47.0396 O   0  0  0  0  0  0  0  0  0  0  0  0
   30.0598   31.9616   47.6024 C   0  0  0  0  0  0  0  0  0  0  0  0
   34.0889   31.4711   50.3706 C   0  0  0  0  0  0  0  0  0  0  0  0
   37.1002   30.6772   48.2525 C   0  0  0  0  0  0  0  0  0  0  0  0
   30.6334   31.2293   48.8275 C   0  0  0  0  0  0  0  0  0  0  0  0
   32.6047   31.0530   50.2291 C   0  0  0  0  0  0  0  0  0  0  0  0
   36.3040   31.2853   49.4209 C   0  0  0  0  0  0  0  0  0  0  0  0
  1 12  1  0  0  0  0
  1 11  1  0  0  0  0
  2 13  1  0  0  0  0
  2  9  1  0  0  0  0
  3  4  1  6  0  0  0
  3  5  2  0  0  0  0
  3  6  1  0  0  0  0
  6  8  1  0  0  0  0
  7 10  1  0  0  0  0
  8 11  1  0  0  0  0
  9 12  1  0  0  0  0
 10 13  1  0  0  0  0
M  CHG  1   4  -1
M  END
>  <CHROM.1>
178.13036222,179.71481629,179.15600807,175.03186018,179.83722583,-178.61802666
-64.73211982,57.65801434,175.76165101,31.60653690,31.53597911,47.89184144
0.32011252,-0.08215573,1.66865452

>  <Name>
ligand

>  <RI>
0

>  <Rbt.Current_Directory>
/home/itssahil/PROJECTS/Mol_Feturizer/New_Systems/rnas/2NPY

>  <Rbt.Executable>
rbdock ($Id: //depot/dev/client3/rdock/2013.1/src/exe/rbdock.cxx#4 $)

>  <Rbt.Library>
libRbt.so (2013.1, Build901 2013/11/27)

>  <Rbt.Parameter_File>
/export/apps/rDock/src/rDock_2013.1_src/data/scripts/dock_solv.prm

>  <Rbt.Receptor>
prm/pocket_docking_8.prm

>  <SCORE>
-12.2272

>  <SCORE.INTER>
1.80065

>  <SCORE.INTER.CONST>
1

>  <SCORE.INTER.POLAR>
0

>  <SCORE.INTER.ROT>
9

>  <SCORE.INTER.SOLV>
10.0241

>  <SCORE.INTER.VDW>
-11.7409

>  <SCORE.INTER.norm>
0.138511

>  <SCORE.INTRA>
-14.0279

>  <SCORE.INTRA.DIHEDRAL>
-25.2737

>  <SCORE.INTRA.DIHEDRAL.0>
25.6828

>  <SCORE.INTRA.POLAR>
0

>  <SCORE.INTRA.POLAR.0>
0

>  <SCORE.INTRA.REPUL>
0

>  <SCORE.INTRA.REPUL.0>
0

>  <SCORE.INTRA.SOLV>
-1.12087

>  <SCORE.INTRA.SOLV.lig_0>
-48.5059

>  <SCORE.INTRA.VDW>
-0.830623

>  <SCORE.INTRA.VDW.0>
-0.363643

>  <SCORE.INTRA.norm>
-1.07907

>  <SCORE.RESTR>
0

>  <SCORE.RESTR.CAVITY>
0

>  <SCORE.RESTR.norm>
0

>  <SCORE.SYSTEM>
0

>  <SCORE.SYSTEM.CONST>
0

>  <SCORE.SYSTEM.DIHEDRAL>
0

>  <SCORE.SYSTEM.SOLV>
0

>  <SCORE.SYSTEM.norm>
0

>  <SCORE.heavy>
13

>  <SCORE.norm>
-0.940557

>  <RMSD>
7.093

$$$$
ligand
 OpenBabel11021811453D
libRbt.so/2013.1/901 2013/11/27
 13 12  0  0  0  0  0  0  0  0999 V2000
   36.6244   30.1671   44.4633 O   0  0  0  0  0  0  0  0  0  0  0  0
   36.8001   30.9032   47.2554 O   0  0  0  0  0  0  0  0  0  0  0  0
   33.0659   31.8019   42.4920 P   0  0  2  0  0  0  0  0  0  0  0  0
   33.0966   32.1944   41.0531 O   0  5  0  0  0  0  0  0  0  0  0  0
   32.4585   32.7253   43.4847 O   0  0  0  0  0  0  0  0  0  0  0  0
   34.5479   31.5003   42.9717 O   0  0  0  0  0  0  0  0  0  0  0  0
   35.9143   32.9963   48.9449 O   0  0  0  0  0  0  0  0  0  0  0  0
   35.2862   30.3913   42.4387 C   0  0  0  0  0  0  0  0  0  0  0  0
   37.7669   30.0002   46.6604 C   0  0  0  0  0  0  0  0  0  0  0  0
   35.5590   31.6499   49.2249 C   0  0  0  0  0  0  0  0  0  0  0  0
   36.7022   30.3667   43.0391 C   0  0  0  0  0  0  0  0  0  0  0  0
   37.9123   30.2339   45.1366 C   0  0  0  0  0  0  0  0  0  0  0  0
   36.6778   30.7396   48.6878 C   0  0  0  0  0  0  0  0  0  0  0  0
  1 12  1  0  0  0  0
  1 11  1  0  0  0  0
  2 13  1  0  0  0  0
  2  9  1  0  0  0  0
  3  4  1  6  0  0  0
  3  5  2  0  0  0  0
  3  6  1  0  0  0  0
  6  8  1  0  0  0  0
  7 10  1  0  0  0  0
  8 11  1  0  0  0  0
  9 12  1  0  0  0  0
 10 13  1  0  0  0  0
M  CHG  1   4  -1
M  END
>  <CHROM.1>
-179.50548931,-175.53827952,-65.87173463,177.97476355,62.86342874,-177.94686899
-54.01299803,-61.33092278,-175.44931367,35.33197739,31.28368534,44.83826195
-0.97885944,0.55211205,-1.81299858

>  <Name>
ligand

>  <RI>
0

>  <Rbt.Current_Directory>
/home/itssahil/PROJECTS/Mol_Feturizer/New_Systems/rnas/2NPY

>  <Rbt.Executable>
rbdock ($Id: //depot/dev/client3/rdock/2013.1/src/exe/rbdock.cxx#4 $)

>  <Rbt.Library>
libRbt.so (2013.1, Build901 2013/11/27)

>  <Rbt.Parameter_File>
/export/apps/rDock/src/rDock_2013.1_src/data/scripts/dock_solv.prm

>  <Rbt.Receptor>
prm/pocket_docking_7.prm

>  <SCORE>
-13.1807

>  <SCORE.INTER>
1.11936

>  <SCORE.INTER.CONST>
1

>  <SCORE.INTER.POLAR>
0

>  <SCORE.INTER.ROT>
9

>  <SCORE.INTER.SOLV>
13.5129

>  <SCORE.INTER.VDW>
-13.358

>  <SCORE.INTER.norm>
0.0861047

>  <SCORE.INTRA>
-14.3001

>  <SCORE.INTRA.DIHEDRAL>
-25.1138

>  <SCORE.INTRA.DIHEDRAL.0>
25.6828

>  <SCORE.INTRA.POLAR>
0

>  <SCORE.INTRA.POLAR.0>
0

>  <SCORE.INTRA.REPUL>
0

>  <SCORE.INTRA.REPUL.0>
0

>  <SCORE.INTRA.SOLV>
-1.10811

>  <SCORE.INTRA.SOLV.lig_0>
-48.5059

>  <SCORE.INTRA.VDW>
-1.18913

>  <SCORE.INTRA.VDW.0>
-0.363643

>  <SCORE.INTRA.norm>
-1.1

>  <SCORE.RESTR>
0

>  <SCORE.RESTR.CAVITY>
0

>  <SCORE.RESTR.norm>
0

>  <SCORE.SYSTEM>
0

>  <SCORE.SYSTEM.CONST>
0

>  <SCORE.SYSTEM.DIHEDRAL>
0

>  <SCORE.SYSTEM.SOLV>
0

>  <SCORE.SYSTEM.norm>
0

>  <SCORE.heavy>
13

>  <SCORE.norm>
-1.0139

>  <RMSD>
7.094

$$$$
ligand
 OpenBabel11021811453D
libRbt.so/2013.1/901 2013/11/27
 13 12  0  0  0  0  0  0  0  0999 V2000
   31.2302   32.1646   44.8046 O   0  0  0  0  0  0  0  0  0  0  0  0
   33.3814   31.3962   42.9441 O   0  0  0  0  0  0  0  0  0  0  0  0
   28.7803   31.2096   49.1311 P   0  0  2  0  0  0  0  0  0  0  0  0
   27.3964   31.0179   48.6080 O   0  5  0  0  0  0  0  0  0  0  0  0
   28.9717   31.7863   50.4867 O   0  0  0  0  0  0  0  0  0  0  0  0
   29.5911   32.1165   48.1125 O   0  0  0  0  0  0  0  0  0  0  0  0
   35.9435   30.2256   42.8748 O   0  0  0  0  0  0  0  0  0  0  0  0
   30.0135   31.6039   46.8406 C   0  0  0  0  0  0  0  0  0  0  0  0
   32.4676   32.4909   42.6779 C   0  0  0  0  0  0  0  0  0  0  0  0
   34.8892   29.6636   42.1066 C   0  0  0  0  0  0  0  0  0  0  0  0
   30.7361   32.7043   46.0452 C   0  0  0  0  0  0  0  0  0  0  0  0
   31.9415   33.1334   43.9850 C   0  0  0  0  0  0  0  0  0  0  0  0
   33.9110   30.7939   41.7399 C   0  0  0  0  0  0  0  0  0  0  0  0
  1 12  1  0  0  0  0
  1 11  1  0  0  0  0
  2 13  1  0  0  0  0
  2  9  1  0  0  0  0
  3  4  1  6  0  0  0
  3  5  2  0  0  0  0
  3  6  1  0  0  0  0
  6  8  1  0  0  0  0
  7 10  1  0  0  0  0
  8 11  1  0  0  0  0
  9 12  1  0  0  0  0
 10 13  1  0  0  0  0
M  CHG  1   4  -1
M  END
>  <CHROM.1>
179.07765774,178.89616647,-72.07032178,178.25665355,176.50589209,-178.79951319
-59.85114290,-59.88656498,-179.51777854,31.24208905,31.52754065,45.76066561
0.61411683,0.66577916,-0.93856924

>  <Name>
ligand

>  <RI>
0

>  <Rbt.Current_Directory>
/home/itssahil/PROJECTS/Mol_Feturizer/New_Systems/rnas/2NPY

>  <Rbt.Executable>
rbdock ($Id: //depot/dev/client3/rdock/2013.1/src/exe/rbdock.cxx#4 $)

>  <Rbt.Library>
libRbt.so (2013.1, Build901 2013/11/27)

>  <Rbt.Parameter_File>
/export/apps/rDock/src/rDock_2013.1_src/data/scripts/dock_solv.prm

>  <Rbt.Receptor>
prm/pocket_docking_5.prm

>  <SCORE>
-10.3254

>  <SCORE.INTER>
3.95371

>  <SCORE.INTER.CONST>
1

>  <SCORE.INTER.POLAR>
0

>  <SCORE.INTER.ROT>
9

>  <SCORE.INTER.SOLV>
8.71496

>  <SCORE.INTER.VDW>
-9.86918

>  <SCORE.INTER.norm>
0.304131

>  <SCORE.INTRA>
-14.2827

>  <SCORE.INTRA.DIHEDRAL>
-25.2798

>  <SCORE.INTRA.DIHEDRAL.0>
25.6828

>  <SCORE.INTRA.POLAR>
0

>  <SCORE.INTRA.POLAR.0>
0

>  <SCORE.INTRA.REPUL>
0

>  <SCORE.INTRA.REPUL.0>
0

>  <SCORE.INTRA.SOLV>
-1.24791

>  <SCORE.INTRA.SOLV.lig_0>
-48.5059

>  <SCORE.INTRA.VDW>
-1.01888

>  <SCORE.INTRA.VDW.0>
-0.363643

>  <SCORE.INTRA.norm>
-1.09867

>  <SCORE.RESTR>
0.00357969

>  <SCORE.RESTR.CAVITY>
0.00357969

>  <SCORE.RESTR.norm>
0.000275361

>  <SCORE.SYSTEM>
0

>  <SCORE.SYSTEM.CONST>
0

>  <SCORE.SYSTEM.DIHEDRAL>
0

>  <SCORE.SYSTEM.SOLV>
0

>  <SCORE.SYSTEM.norm>
0

>  <SCORE.heavy>
13

>  <SCORE.norm>
-0.794265

>  <RMSD>
7.105

$$$$
ligand
 OpenBabel11021811453D
libRbt.so/2013.1/901 2013/11/27
 13 12  0  0  0  0  0  0  0  0999 V2000
   37.4553   31.3296   50.4213 O   0  0  0  0  0  0  0  0  0  0  0  0
   35.5449   33.1227   51.8154 O   0  0  0  0  0  0  0  0  0  0  0  0
   37.8143   29.9388   46.2669 P   0  0  2  0  0  0  0  0  0  0  0  0
   39.1470   29.5496   45.7213 O   0  5  0  0  0  0  0  0  0  0  0  0
   37.1471   31.1623   45.7522 O   0  0  0  0  0  0  0  0  0  0  0  0
   37.9308   30.0906   47.8419 O   0  0  0  0  0  0  0  0  0  0  0  0
   34.9026   35.8298   52.1795 O   0  0  0  0  0  0  0  0  0  0  0  0
   38.8288   31.0437   48.4284 C   0  0  0  0  0  0  0  0  0  0  0  0
   35.9074   31.8052   52.3023 C   0  0  0  0  0  0  0  0  0  0  0  0
   33.9155   34.9400   51.6780 C   0  0  0  0  0  0  0  0  0  0  0  0
   38.7662   30.9486   49.9623 C   0  0  0  0  0  0  0  0  0  0  0  0
   37.3391   31.4044   51.8695 C   0  0  0  0  0  0  0  0  0  0  0  0
   34.2192   33.5335   52.2242 C   0  0  0  0  0  0  0  0  0  0  0  0
  1 12  1  0  0  0  0
  1 11  1  0  0  0  0
  2 13  1  0  0  0  0
  2  9  1  0  0  0  0
  3  4  1  6  0  0  0
  3  5  2  0  0  0  0
  3  6  1  0  0  0  0
  6  8  1  0  0  0  0
  7 10  1  0  0  0  0
  8 11  1  0  0  0  0
  9 12  1  0  0  0  0
 10 13  1  0  0  0  0
M  CHG  1   4  -1
M  END
>  <CHROM.1>
-179.48778744,179.60183294,60.25576974,-178.40981509,-64.62003130,-179.00987828
-62.15627356,-58.69936634,-173.99104201,36.92824744,31.73954881,49.40681530
-2.24431672,0.80405074,-1.65776541

>  <Name>
ligand

>  <RI>
0

>  <Rbt.Current_Directory>
/home/itssahil/PROJECTS/Mol_Feturizer/New_Systems/rnas/2NPY

>  <Rbt.Executable>
rbdock ($Id: //depot/dev/client3/rdock/2013.1/src/exe/rbdock.cxx#4 $)

>  <Rbt.Library>
libRbt.so (2013.1, Build901 2013/11/27)

>  <Rbt.Parameter_File>
/export/apps/rDock/src/rDock_2013.1_src/data/scripts/dock_solv.prm

>  <Rbt.Receptor>
prm/pocket_docking_8.prm

>  <SCORE>
-10.084

>  <SCORE.INTER>
3.99636

>  <SCORE.INTER.CONST>
1

>  <SCORE.INTER.POLAR>
0

>  <SCORE.INTER.ROT>
9

>  <SCORE.INTER.SOLV>
10.9611

>  <SCORE.INTER.VDW>
-10.5895

>  <SCORE.INTER.norm>
0.307412

>  <SCORE.INTRA>
-14.0804

>  <SCORE.INTRA.DIHEDRAL>
-25.3274

>  <SCORE.INTRA.DIHEDRAL.0>
25.6828

>  <SCORE.INTRA.POLAR>
0

>  <SCORE.INTRA.POLAR.0>
0

>  <SCORE.INTRA.REPUL>
0

>  <SCORE.INTRA.REPUL.0>
0

>  <SCORE.INTRA.SOLV>
-0.630081

>  <SCORE.INTRA.SOLV.lig_0>
-48.5059

>  <SCORE.INTRA.VDW>
-1.10166

>  <SCORE.INTRA.VDW.0>
-0.363643

>  <SCORE.INTRA.norm>
-1.08311

>  <SCORE.RESTR>
0

>  <SCORE.RESTR.CAVITY>
0

>  <SCORE.RESTR.norm>
0

>  <SCORE.SYSTEM>
0

>  <SCORE.SYSTEM.CONST>
0

>  <SCORE.SYSTEM.DIHEDRAL>
0

>  <SCORE.SYSTEM.SOLV>
0

>  <SCORE.SYSTEM.norm>
0

>  <SCORE.heavy>
13

>  <SCORE.norm>
-0.775694

>  <RMSD>
7.110

$$$$
ligand
 OpenBabel11021811453D
libRbt.so/2013.1/901 2013/11/27
 13 12  0  0  0  0  0  0  0  0999 V2000
   32.3293   31.7206   48.6631 O   0  0  0  0  0  0  0  0  0  0  0  0
   35.0733   30.9474   49.2210 O   0  0  0  0  0  0  0  0  0  0  0  0
   28.5983   32.3943   45.3086 P   0  0  2  0  0  0  0  0  0  0  0  0
   29.1646   33.7166   44.9131 O   0  5  0  0  0  0  0  0  0  0  0  0
   27.1243   32.2315   45.3959 O   0  0  0  0  0  0  0  0  0  0  0  0
   29.2043   31.9782   46.7146 O   0  0  0  0  0  0  0  0  0  0  0  0
   38.6779   30.8653   48.5441 O   0  0  0  0  0  0  0  0  0  0  0  0
   30.6166   32.0427   46.9594 C   0  0  0  0  0  0  0  0  0  0  0  0
   34.2263   31.5184   50.2510 C   0  0  0  0  0  0  0  0  0  0  0  0
   37.3059   30.6039   48.2859 C   0  0  0  0  0  0  0  0  0  0  0  0
   30.9234   31.5687   48.3902 C   0  0  0  0  0  0  0  0  0  0  0  0
   32.7262   31.2463   49.9800 C   0  0  0  0  0  0  0  0  0  0  0  0
   36.4821   31.1865   49.4482 C   0  0  0  0  0  0  0  0  0  0  0  0
  1 12  1  0  0  0  0
  1 11  1  0  0  0  0
  2 13  1  0  0  0  0
  2  9  1  0  0  0  0
  3  4  1  1  0  0  0
  3  5  2  0  0  0  0
  3  6  1  0  0  0  0
  6  8  1  0  0  0  0
  7 10  1  0  0  0  0
  8 11  1  0  0  0  0
  9 12  1  0  0  0  0
 10 13  1  0  0  0  0
M  CHG  1   4  -1
M  END
>  <CHROM.1>
-176.32877524,-177.60404409,-48.79081686,-179.32409919,-176.11112691,179.98955831
-55.35675035,179.70679091,-177.66928115,32.15165526,31.76219942,47.61358396
0.43165788,-0.09459878,1.78153243

>  <Name>
ligand

>  <RI>
0

>  <Rbt.Current_Directory>
/home/itssahil/PROJECTS/Mol_Feturizer/New_Systems/rnas/2NPY

>  <Rbt.Executable>
rbdock ($Id: //depot/dev/client3/rdock/2013.1/src/exe/rbdock.cxx#4 $)

>  <Rbt.Library>
libRbt.so (2013.1, Build901 2013/11/27)

>  <Rbt.Parameter_File>
/export/apps/rDock/src/rDock_2013.1_src/data/scripts/dock_solv.prm

>  <Rbt.Receptor>
prm/pocket_docking_8.prm

>  <SCORE>
-13.2315

>  <SCORE.INTER>
1.00489

>  <SCORE.INTER.CONST>
1

>  <SCORE.INTER.POLAR>
0

>  <SCORE.INTER.ROT>
9

>  <SCORE.INTER.SOLV>
7.4836

>  <SCORE.INTER.VDW>
-11.4246

>  <SCORE.INTER.norm>
0.0772993

>  <SCORE.INTRA>
-14.2364

>  <SCORE.INTRA.DIHEDRAL>
-25.3534

>  <SCORE.INTRA.DIHEDRAL.0>
25.6828

>  <SCORE.INTRA.POLAR>
0

>  <SCORE.INTRA.POLAR.0>
0

>  <SCORE.INTRA.REPUL>
0

>  <SCORE.INTRA.REPUL.0>
0

>  <SCORE.INTRA.SOLV>
-1.38025

>  <SCORE.INTRA.SOLV.lig_0>
-48.5059

>  <SCORE.INTRA.VDW>
-0.869559

>  <SCORE.INTRA.VDW.0>
-0.363643

>  <SCORE.INTRA.norm>
-1.09511

>  <SCORE.RESTR>
0

>  <SCORE.RESTR.CAVITY>
0

>  <SCORE.RESTR.norm>
0

>  <SCORE.SYSTEM>
0

>  <SCORE.SYSTEM.CONST>
0

>  <SCORE.SYSTEM.DIHEDRAL>
0

>  <SCORE.SYSTEM.SOLV>
0

>  <SCORE.SYSTEM.norm>
0

>  <SCORE.heavy>
13

>  <SCORE.norm>
-1.01781

>  <RMSD>
7.117

$$$$
ligand
 OpenBabel11021811453D
libRbt.so/2013.1/901 2013/11/27
 13 12  0  0  0  0  0  0  0  0999 V2000
   38.0521   30.4015   47.1804 O   0  0  0  0  0  0  0  0  0  0  0  0
   35.7667   31.0216   50.0987 O   0  0  0  0  0  0  0  0  0  0  0  0
   36.2711   30.8375   42.4610 P   0  0  2  0  0  0  0  0  0  0  0  0
   36.1098   29.8814   41.3273 O   0  5  0  0  0  0  0  0  0  0  0  0
   36.9546   32.1353   42.2259 O   0  0  0  0  0  0  0  0  0  0  0  0
   37.0380   30.1061   43.6418 O   0  0  0  0  0  0  0  0  0  0  0  0
   35.8071   33.9094   52.3603 O   0  0  0  0  0  0  0  0  0  0  0  0
   37.1512   30.7125   44.9373 C   0  0  0  0  0  0  0  0  0  0  0  0
   36.9701   31.1216   49.2949 C   0  0  0  0  0  0  0  0  0  0  0  0
   35.7565   33.2505   51.1030 C   0  0  0  0  0  0  0  0  0  0  0  0
   37.9455   29.7922   45.8797 C   0  0  0  0  0  0  0  0  0  0  0  0
   36.7930   30.4581   47.9071 C   0  0  0  0  0  0  0  0  0  0  0  0
   35.8618   31.7356   51.3536 C   0  0  0  0  0  0  0  0  0  0  0  0
  1 12  1  0  0  0  0
  1 11  1  0  0  0  0
  2 13  1  0  0  0  0
  2  9  1  0  0  0  0
  3  4  1  6  0  0  0
  3  5  2  0  0  0  0
  3  6  1  0  0  0  0
  6  8  1  0  0  0  0
  7 10  1  0  0  0  0
  8 11  1  0  0  0  0
  9 12  1  0  0  0  0
 10 13  1  0  0  0  0
M  CHG  1   4  -1
M  END
>  <CHROM.1>
179.99493681,74.27271630,-170.19702106,-179.72300693,-179.74988756,-174.82428713
-172.23624440,177.99259440,69.55905525,36.61979432,31.15757225,46.50575141
-1.70833518,1.06324702,-1.64987730

>  <Name>
ligand

>  <RI>
0

>  <Rbt.Current_Directory>
/home/itssahil/PROJECTS/Mol_Feturizer/New_Systems/rnas/2NPY

>  <Rbt.Executable>
rbdock ($Id: //depot/dev/client3/rdock/2013.1/src/exe/rbdock.cxx#4 $)

>  <Rbt.Library>
libRbt.so (2013.1, Build901 2013/11/27)

>  <Rbt.Parameter_File>
/export/apps/rDock/src/rDock_2013.1_src/data/scripts/dock_solv.prm

>  <Rbt.Receptor>
prm/pocket_docking_8.prm

>  <SCORE>
-10.1057

>  <SCORE.INTER>
1.62047

>  <SCORE.INTER.CONST>
1

>  <SCORE.INTER.POLAR>
0

>  <SCORE.INTER.ROT>
9

>  <SCORE.INTER.SOLV>
8.73609

>  <SCORE.INTER.VDW>
-11.4317

>  <SCORE.INTER.norm>
0.124652

>  <SCORE.INTRA>
-11.7262

>  <SCORE.INTRA.DIHEDRAL>
-23.858

>  <SCORE.INTRA.DIHEDRAL.0>
25.6828

>  <SCORE.INTRA.POLAR>
0

>  <SCORE.INTRA.POLAR.0>
0

>  <SCORE.INTRA.REPUL>
0

>  <SCORE.INTRA.REPUL.0>
0

>  <SCORE.INTRA.SOLV>
-1.51757

>  <SCORE.INTRA.SOLV.lig_0>
-48.5059

>  <SCORE.INTRA.VDW>
0.961608

>  <SCORE.INTRA.VDW.0>
-0.363643

>  <SCORE.INTRA.norm>
-0.902015

>  <SCORE.RESTR>
0

>  <SCORE.RESTR.CAVITY>
0

>  <SCORE.RESTR.norm>
0

>  <SCORE.SYSTEM>
0

>  <SCORE.SYSTEM.CONST>
0

>  <SCORE.SYSTEM.DIHEDRAL>
0

>  <SCORE.SYSTEM.SOLV>
0

>  <SCORE.SYSTEM.norm>
0

>  <SCORE.heavy>
13

>  <SCORE.norm>
-0.777363

>  <RMSD>
7.123

$$$$
ligand
 OpenBabel11021811453D
libRbt.so/2013.1/901 2013/11/27
 13 12  0  0  0  0  0  0  0  0999 V2000
   36.5545   30.6210   47.4310 O   0  0  0  0  0  0  0  0  0  0  0  0
   35.3126   31.5430   50.8611 O   0  0  0  0  0  0  0  0  0  0  0  0
   39.1327   30.0736   43.1178 P   0  0  2  0  0  0  0  0  0  0  0  0
   40.5164   29.6359   42.7721 O   0  5  0  0  0  0  0  0  0  0  0  0
   38.6628   31.4127   42.6785 O   0  0  0  0  0  0  0  0  0  0  0  0
   38.9519   30.0019   44.6924 O   0  0  0  0  0  0  0  0  0  0  0  0
   35.1166   33.3298   53.1027 O   0  0  0  0  0  0  0  0  0  0  0  0
   37.6728   30.2310   45.3009 C   0  0  0  0  0  0  0  0  0  0  0  0
   35.2484   31.2807   49.4358 C   0  0  0  0  0  0  0  0  0  0  0  0
   34.2057   32.2551   52.9212 C   0  0  0  0  0  0  0  0  0  0  0  0
   37.8252   30.3081   46.8295 C   0  0  0  0  0  0  0  0  0  0  0  0
   36.6317   30.8927   48.8581 C   0  0  0  0  0  0  0  0  0  0  0  0
   34.0564   32.0061   51.4098 C   0  0  0  0  0  0  0  0  0  0  0  0
  1 12  1  0  0  0  0
  1 11  1  0  0  0  0
  2 13  1  0  0  0  0
  2  9  1  0  0  0  0
  3  4  1  1  0  0  0
  3  5  2  0  0  0  0
  3  6  1  0  0  0  0
  6  8  1  0  0  0  0
  7 10  1  0  0  0  0
  8 11  1  0  0  0  0
  9 12  1  0  0  0  0
 10 13  1  0  0  0  0
M  CHG  1   4  -1
M  END
>  <CHROM.1>
177.58641387,179.76568329,-173.33593468,-171.60407336,176.42916781,175.59319935
179.52727626,65.44473760,-172.16585229,37.12639101,30.97004238,47.24285589
-2.24627991,0.75947110,-1.29780359

>  <Name>
ligand

>  <RI>
0

>  <Rbt.Current_Directory>
/home/itssahil/PROJECTS/Mol_Feturizer/New_Systems/rnas/2NPY

>  <Rbt.Executable>
rbdock ($Id: //depot/dev/client3/rdock/2013.1/src/exe/rbdock.cxx#4 $)

>  <Rbt.Library>
libRbt.so (2013.1, Build901 2013/11/27)

>  <Rbt.Parameter_File>
/export/apps/rDock/src/rDock_2013.1_src/data/scripts/dock_solv.prm

>  <Rbt.Receptor>
prm/pocket_docking_8.prm

>  <SCORE>
-12.3112

>  <SCORE.INTER>
1.52228

>  <SCORE.INTER.CONST>
1

>  <SCORE.INTER.POLAR>
0

>  <SCORE.INTER.ROT>
9

>  <SCORE.INTER.SOLV>
9.02901

>  <SCORE.INTER.VDW>
-11.5948

>  <SCORE.INTER.norm>
0.117098

>  <SCORE.INTRA>
-13.8335

>  <SCORE.INTRA.DIHEDRAL>
-24.7255

>  <SCORE.INTRA.DIHEDRAL.0>
25.6828

>  <SCORE.INTRA.POLAR>
0

>  <SCORE.INTRA.POLAR.0>
0

>  <SCORE.INTRA.REPUL>
0

>  <SCORE.INTRA.REPUL.0>
0

>  <SCORE.INTRA.SOLV>
-1.30345

>  <SCORE.INTRA.SOLV.lig_0>
-48.5059

>  <SCORE.INTRA.VDW>
-0.81899

>  <SCORE.INTRA.VDW.0>
-0.363643

>  <SCORE.INTRA.norm>
-1.06411

>  <SCORE.RESTR>
0

>  <SCORE.RESTR.CAVITY>
0

>  <SCORE.RESTR.norm>
0

>  <SCORE.SYSTEM>
0

>  <SCORE.SYSTEM.CONST>
0

>  <SCORE.SYSTEM.DIHEDRAL>
0

>  <SCORE.SYSTEM.SOLV>
0

>  <SCORE.SYSTEM.norm>
0

>  <SCORE.heavy>
13

>  <SCORE.norm>
-0.947014

>  <RMSD>
7.135

$$$$
ligand
 OpenBabel11021811453D
libRbt.so/2013.1/901 2013/11/27
 13 12  0  0  0  0  0  0  0  0999 V2000
   32.9851   31.0562   42.3956 O   0  0  0  0  0  0  0  0  0  0  0  0
   35.7538   30.8932   43.4288 O   0  0  0  0  0  0  0  0  0  0  0  0
   30.4794   32.0747   45.8980 P   0  0  2  0  0  0  0  0  0  0  0  0
   29.2003   32.2762   45.1572 O   0  5  0  0  0  0  0  0  0  0  0  0
   30.9681   33.1421   46.8084 O   0  0  0  0  0  0  0  0  0  0  0  0
   31.6353   31.7793   44.8520 O   0  0  0  0  0  0  0  0  0  0  0  0
   37.7029   32.5521   44.6030 O   0  0  0  0  0  0  0  0  0  0  0  0
   31.9855   32.7407   43.8460 C   0  0  0  0  0  0  0  0  0  0  0  0
   35.2022   29.9438   42.4809 C   0  0  0  0  0  0  0  0  0  0  0  0
   37.2900   31.3682   45.2704 C   0  0  0  0  0  0  0  0  0  0  0  0
   33.2512   32.2833   43.1013 C   0  0  0  0  0  0  0  0  0  0  0  0
   34.1049   30.5843   41.5958 C   0  0  0  0  0  0  0  0  0  0  0  0
   36.8473   30.3495   44.2049 C   0  0  0  0  0  0  0  0  0  0  0  0
  1 12  1  0  0  0  0
  1 11  1  0  0  0  0
  2 13  1  0  0  0  0
  2  9  1  0  0  0  0
  3  4  1  6  0  0  0
  3  5  2  0  0  0  0
  3  6  1  0  0  0  0
  6  8  1  0  0  0  0
  7 10  1  0  0  0  0
  8 11  1  0  0  0  0
  9 12  1  0  0  0  0
 10 13  1  0  0  0  0
M  CHG  1   4  -1
M  END
>  <CHROM.1>
76.00357692,-174.83794131,60.82433928,172.25919499,63.99305692,-175.86773250
-61.29925926,-59.71385830,176.63835947,33.35843079,31.67389918,44.29176943
0.34028377,0.07455659,-1.97629704

>  <Name>
ligand

>  <RI>
0

>  <Rbt.Current_Directory>
/home/itssahil/PROJECTS/Mol_Feturizer/New_Systems/rnas/2NPY

>  <Rbt.Executable>
rbdock ($Id: //depot/dev/client3/rdock/2013.1/src/exe/rbdock.cxx#4 $)

>  <Rbt.Library>
libRbt.so (2013.1, Build901 2013/11/27)

>  <Rbt.Parameter_File>
/export/apps/rDock/src/rDock_2013.1_src/data/scripts/dock_solv.prm

>  <Rbt.Receptor>
prm/pocket_docking_4.prm

>  <SCORE>
-10.1954

>  <SCORE.INTER>
2.48937

>  <SCORE.INTER.CONST>
1

>  <SCORE.INTER.POLAR>
0

>  <SCORE.INTER.ROT>
9

>  <SCORE.INTER.SOLV>
9.7851

>  <SCORE.INTER.VDW>
-11.2021

>  <SCORE.INTER.norm>
0.19149

>  <SCORE.INTRA>
-12.6848

>  <SCORE.INTRA.DIHEDRAL>
-23.813

>  <SCORE.INTRA.DIHEDRAL.0>
25.6828

>  <SCORE.INTRA.POLAR>
0

>  <SCORE.INTRA.POLAR.0>
0

>  <SCORE.INTRA.REPUL>
0

>  <SCORE.INTRA.REPUL.0>
0

>  <SCORE.INTRA.SOLV>
-0.467517

>  <SCORE.INTRA.SOLV.lig_0>
-48.5059

>  <SCORE.INTRA.VDW>
-0.544514

>  <SCORE.INTRA.VDW.0>
-0.363643

>  <SCORE.INTRA.norm>
-0.975751

>  <SCORE.RESTR>
0

>  <SCORE.RESTR.CAVITY>
0

>  <SCORE.RESTR.norm>
0

>  <SCORE.SYSTEM>
0

>  <SCORE.SYSTEM.CONST>
0

>  <SCORE.SYSTEM.DIHEDRAL>
0

>  <SCORE.SYSTEM.SOLV>
0

>  <SCORE.SYSTEM.norm>
0

>  <SCORE.heavy>
13

>  <SCORE.norm>
-0.784261

>  <RMSD>
7.152

$$$$
ligand
 OpenBabel11021811453D
libRbt.so/2013.1/901 2013/11/27
 13 12  0  0  0  0  0  0  0  0999 V2000
   33.7800   31.6556   43.2075 O   0  0  0  0  0  0  0  0  0  0  0  0
   36.3519   31.0074   44.2899 O   0  0  0  0  0  0  0  0  0  0  0  0
   30.0890   32.1602   45.4325 P   0  0  2  0  0  0  0  0  0  0  0  0
   28.9090   32.8692   44.8576 O   0  5  0  0  0  0  0  0  0  0  0  0
   30.8316   32.7805   46.5598 O   0  0  0  0  0  0  0  0  0  0  0  0
   31.1351   31.8840   44.2720 O   0  0  0  0  0  0  0  0  0  0  0  0
   36.5414   30.9927   47.1309 O   0  0  0  0  0  0  0  0  0  0  0  0
   31.7563   32.9662   43.5635 C   0  0  0  0  0  0  0  0  0  0  0  0
   35.8784   30.3348   43.0950 C   0  0  0  0  0  0  0  0  0  0  0  0
   37.7092   30.9649   46.3228 C   0  0  0  0  0  0  0  0  0  0  0  0
   32.7570   32.4137   42.5343 C   0  0  0  0  0  0  0  0  0  0  0  0
   34.8392   31.1879   42.3267 C   0  0  0  0  0  0  0  0  0  0  0  0
   37.3597   30.2533   45.0035 C   0  0  0  0  0  0  0  0  0  0  0  0
  1 12  1  0  0  0  0
  1 11  1  0  0  0  0
  2 13  1  0  0  0  0
  2  9  1  0  0  0  0
  3  4  1  6  0  0  0
  3  5  2  0  0  0  0
  3  6  1  0  0  0  0
  6  8  1  0  0  0  0
  7 10  1  0  0  0  0
  8 11  1  0  0  0  0
  9 12  1  0  0  0  0
 10 13  1  0  0  0  0
M  CHG  1   4  -1
M  END
>  <CHROM.1>
-177.79080518,-174.53146750,62.67338037,177.97778737,-60.48847584,-177.95549543
-50.79958523,62.87956633,-174.98374023,33.35591976,31.70435330,44.61222376
0.00318233,0.26124521,-1.58584200

>  <Name>
ligand

>  <RI>
0

>  <Rbt.Current_Directory>
/home/itssahil/PROJECTS/Mol_Feturizer/New_Systems/rnas/2NPY

>  <Rbt.Executable>
rbdock ($Id: //depot/dev/client3/rdock/2013.1/src/exe/rbdock.cxx#4 $)

>  <Rbt.Library>
libRbt.so (2013.1, Build901 2013/11/27)

>  <Rbt.Parameter_File>
/export/apps/rDock/src/rDock_2013.1_src/data/scripts/dock_solv.prm

>  <Rbt.Receptor>
prm/pocket_docking_5.prm

>  <SCORE>
-11.8258

>  <SCORE.INTER>
2.10692

>  <SCORE.INTER.CONST>
1

>  <SCORE.INTER.POLAR>
0

>  <SCORE.INTER.ROT>
9

>  <SCORE.INTER.SOLV>
10.1012

>  <SCORE.INTER.VDW>
-11.5625

>  <SCORE.INTER.norm>
0.162071

>  <SCORE.INTRA>
-13.9327

>  <SCORE.INTRA.DIHEDRAL>
-24.9655

>  <SCORE.INTRA.DIHEDRAL.0>
25.6828

>  <SCORE.INTRA.POLAR>
0

>  <SCORE.INTRA.POLAR.0>
0

>  <SCORE.INTRA.REPUL>
0

>  <SCORE.INTRA.REPUL.0>
0

>  <SCORE.INTRA.SOLV>
-0.566189

>  <SCORE.INTRA.SOLV.lig_0>
-48.5059

>  <SCORE.INTRA.VDW>
-1.16683

>  <SCORE.INTRA.VDW.0>
-0.363643

>  <SCORE.INTRA.norm>
-1.07175

>  <SCORE.RESTR>
0

>  <SCORE.RESTR.CAVITY>
0

>  <SCORE.RESTR.norm>
0

>  <SCORE.SYSTEM>
0

>  <SCORE.SYSTEM.CONST>
0

>  <SCORE.SYSTEM.DIHEDRAL>
0

>  <SCORE.SYSTEM.SOLV>
0

>  <SCORE.SYSTEM.norm>
0

>  <SCORE.heavy>
13

>  <SCORE.norm>
-0.909675

>  <RMSD>
7.169

$$$$
ligand
 OpenBabel11021811453D
libRbt.so/2013.1/901 2013/11/27
 13 12  0  0  0  0  0  0  0  0999 V2000
   33.7781   31.6030   43.1661 O   0  0  0  0  0  0  0  0  0  0  0  0
   36.3701   30.9891   44.2320 O   0  0  0  0  0  0  0  0  0  0  0  0
   30.1347   32.1771   45.4464 P   0  0  2  0  0  0  0  0  0  0  0  0
   28.9256   32.8223   44.8572 O   0  5  0  0  0  0  0  0  0  0  0  0
   30.8808   32.8777   46.5231 O   0  0  0  0  0  0  0  0  0  0  0  0
   31.1664   31.8646   44.2822 O   0  0  0  0  0  0  0  0  0  0  0  0
   36.5405   31.1251   47.0554 O   0  0  0  0  0  0  0  0  0  0  0  0
   31.7594   32.9230   43.5160 C   0  0  0  0  0  0  0  0  0  0  0  0
   35.8813   30.2894   43.0591 C   0  0  0  0  0  0  0  0  0  0  0  0
   37.7166   30.9793   46.2726 C   0  0  0  0  0  0  0  0  0  0  0  0
   32.7425   32.3387   42.4874 C   0  0  0  0  0  0  0  0  0  0  0  0
   34.8324   31.1250   42.2849 C   0  0  0  0  0  0  0  0  0  0  0  0
   37.3418   30.2252   44.9842 C   0  0  0  0  0  0  0  0  0  0  0  0
  1 12  1  0  0  0  0
  1 11  1  0  0  0  0
  2 13  1  0  0  0  0
  2  9  1  0  0  0  0
  3  4  1  6  0  0  0
  3  5  2  0  0  0  0
  3  6  1  0  0  0  0
  6  8  1  0  0  0  0
  7 10  1  0  0  0  0
  8 11  1  0  0  0  0
  9 12  1  0  0  0  0
 10 13  1  0  0  0  0
M  CHG  1   4  -1
M  END
>  <CHROM.1>
-177.45505997,-175.03954591,63.56906437,178.48737993,-59.66731696,179.35012874
-51.30907408,61.31644707,-174.13576571,33.36943124,31.69787427,44.58293223
0.02181455,0.26116416,-1.62309299

>  <Name>
ligand

>  <RI>
0

>  <Rbt.Current_Directory>
/home/itssahil/PROJECTS/Mol_Feturizer/New_Systems/rnas/2NPY

>  <Rbt.Executable>
rbdock ($Id: //depot/dev/client3/rdock/2013.1/src/exe/rbdock.cxx#4 $)

>  <Rbt.Library>
libRbt.so (2013.1, Build901 2013/11/27)

>  <Rbt.Parameter_File>
/export/apps/rDock/src/rDock_2013.1_src/data/scripts/dock_solv.prm

>  <Rbt.Receptor>
prm/pocket_docking_5.prm

>  <SCORE>
-11.8197

>  <SCORE.INTER>
2.13641

>  <SCORE.INTER.CONST>
1

>  <SCORE.INTER.POLAR>
0

>  <SCORE.INTER.ROT>
9

>  <SCORE.INTER.SOLV>
10.0235

>  <SCORE.INTER.VDW>
-11.5169

>  <SCORE.INTER.norm>
0.164339

>  <SCORE.INTRA>
-13.9561

>  <SCORE.INTRA.DIHEDRAL>
-25.0284

>  <SCORE.INTRA.DIHEDRAL.0>
25.6828

>  <SCORE.INTRA.POLAR>
0

>  <SCORE.INTRA.POLAR.0>
0

>  <SCORE.INTRA.REPUL>
0

>  <SCORE.INTRA.REPUL.0>
0

>  <SCORE.INTRA.SOLV>
-0.55954

>  <SCORE.INTRA.SOLV.lig_0>
-48.5059

>  <SCORE.INTRA.VDW>
-1.16215

>  <SCORE.INTRA.VDW.0>
-0.363643

>  <SCORE.INTRA.norm>
-1.07355

>  <SCORE.RESTR>
0

>  <SCORE.RESTR.CAVITY>
0

>  <SCORE.RESTR.norm>
0

>  <SCORE.SYSTEM>
0

>  <SCORE.SYSTEM.CONST>
0

>  <SCORE.SYSTEM.DIHEDRAL>
0

>  <SCORE.SYSTEM.SOLV>
0

>  <SCORE.SYSTEM.norm>
0

>  <SCORE.heavy>
13

>  <SCORE.norm>
-0.909208

>  <RMSD>
7.174

$$$$
ligand
 OpenBabel11021811453D
libRbt.so/2013.1/901 2013/11/27
 13 12  0  0  0  0  0  0  0  0999 V2000
   33.3848   31.8321   47.7169 O   0  0  0  0  0  0  0  0  0  0  0  0
   36.0843   30.6355   47.6966 O   0  0  0  0  0  0  0  0  0  0  0  0
   28.8128   32.3138   45.5957 P   0  0  2  0  0  0  0  0  0  0  0  0
   28.2633   33.3091   44.6299 O   0  5  0  0  0  0  0  0  0  0  0  0
   27.9947   31.9103   46.7682 O   0  0  0  0  0  0  0  0  0  0  0  0
   30.2000   32.8495   46.1488 O   0  0  0  0  0  0  0  0  0  0  0  0
   37.9703   29.3016   46.0941 O   0  0  0  0  0  0  0  0  0  0  0  0
   31.1727   31.9506   46.7009 C   0  0  0  0  0  0  0  0  0  0  0  0
   35.5988   31.4704   48.7790 C   0  0  0  0  0  0  0  0  0  0  0  0
   37.2888   30.4361   45.5786 C   0  0  0  0  0  0  0  0  0  0  0  0
   32.4019   32.7395   47.1832 C   0  0  0  0  0  0  0  0  0  0  0  0
   34.5464   32.4952   48.2891 C   0  0  0  0  0  0  0  0  0  0  0  0
   36.9240   31.3516   46.7608 C   0  0  0  0  0  0  0  0  0  0  0  0
  1 12  1  0  0  0  0
  1 11  1  0  0  0  0
  2 13  1  0  0  0  0
  2  9  1  0  0  0  0
  3  4  1  1  0  0  0
  3  5  2  0  0  0  0
  3  6  1  0  0  0  0
  6  8  1  0  0  0  0
  7 10  1  0  0  0  0
  8 11  1  0  0  0  0
  9 12  1  0  0  0  0
 10 13  1  0  0  0  0
M  CHG  1   4  -1
M  END
>  <CHROM.1>
-177.04925196,-174.74923062,-157.71224369,-178.82469919,-179.08065518,70.59383367
60.56463174,-59.25889568,-175.76133846,32.73471896,31.77877630,46.65657892
0.05776485,-0.26685581,1.23327417

>  <Name>
ligand

>  <RI>
0

>  <Rbt.Current_Directory>
/home/itssahil/PROJECTS/Mol_Feturizer/New_Systems/rnas/2NPY

>  <Rbt.Executable>
rbdock ($Id: //depot/dev/client3/rdock/2013.1/src/exe/rbdock.cxx#4 $)

>  <Rbt.Library>
libRbt.so (2013.1, Build901 2013/11/27)

>  <Rbt.Parameter_File>
/export/apps/rDock/src/rDock_2013.1_src/data/scripts/dock_solv.prm

>  <Rbt.Receptor>
prm/pocket_docking_4.prm

>  <SCORE>
-10.2153

>  <SCORE.INTER>
2.95173

>  <SCORE.INTER.CONST>
1

>  <SCORE.INTER.POLAR>
0

>  <SCORE.INTER.ROT>
9

>  <SCORE.INTER.SOLV>
9.69169

>  <SCORE.INTER.VDW>
-10.8627

>  <SCORE.INTER.norm>
0.227056

>  <SCORE.INTRA>
-13.1862

>  <SCORE.INTRA.DIHEDRAL>
-24.5454

>  <SCORE.INTRA.DIHEDRAL.0>
25.6828

>  <SCORE.INTRA.POLAR>
0

>  <SCORE.INTRA.POLAR.0>
0

>  <SCORE.INTRA.REPUL>
0

>  <SCORE.INTRA.REPUL.0>
0

>  <SCORE.INTRA.SOLV>
-1.15713

>  <SCORE.INTRA.SOLV.lig_0>
-48.5059

>  <SCORE.INTRA.VDW>
-0.334915

>  <SCORE.INTRA.VDW.0>
-0.363643

>  <SCORE.INTRA.norm>
-1.01432

>  <SCORE.RESTR>
0.0191448

>  <SCORE.RESTR.CAVITY>
0.0191448

>  <SCORE.RESTR.norm>
0.00147267

>  <SCORE.SYSTEM>
0

>  <SCORE.SYSTEM.CONST>
0

>  <SCORE.SYSTEM.DIHEDRAL>
0

>  <SCORE.SYSTEM.SOLV>
0

>  <SCORE.SYSTEM.norm>
0

>  <SCORE.heavy>
13

>  <SCORE.norm>
-0.785794

>  <RMSD>
7.185

$$$$
ligand
 OpenBabel11021811453D
libRbt.so/2013.1/901 2013/11/27
 13 12  0  0  0  0  0  0  0  0999 V2000
   28.6036   32.3463   46.0745 O   0  0  0  0  0  0  0  0  0  0  0  0
   30.4094   30.3517   48.7031 O   0  0  0  0  0  0  0  0  0  0  0  0
   26.0780   33.8693   42.9424 P   0  0  2  0  0  0  0  0  0  0  0  0
   25.1388   32.9892   42.1882 O   0  5  0  0  0  0  0  0  0  0  0  0
   26.9458   34.8157   42.1953 O   0  0  0  0  0  0  0  0  0  0  0  0
   27.0259   32.9612   43.8335 O   0  0  0  0  0  0  0  0  0  0  0  0
   32.1536   30.0348   50.9334 O   0  0  0  0  0  0  0  0  0  0  0  0
   26.4907   32.1358   44.8781 C   0  0  0  0  0  0  0  0  0  0  0  0
   29.3037   31.0426   48.0671 C   0  0  0  0  0  0  0  0  0  0  0  0
   31.2581   28.9995   50.5546 C   0  0  0  0  0  0  0  0  0  0  0  0
   27.6309   31.3965   45.5988 C   0  0  0  0  0  0  0  0  0  0  0  0
   29.7371   31.7361   46.7522 C   0  0  0  0  0  0  0  0  0  0  0  0
   30.0223   29.6504   49.9080 C   0  0  0  0  0  0  0  0  0  0  0  0
  1 12  1  0  0  0  0
  1 11  1  0  0  0  0
  2 13  1  0  0  0  0
  2  9  1  0  0  0  0
  3  4  1  6  0  0  0
  3  5  2  0  0  0  0
  3  6  1  0  0  0  0
  6  8  1  0  0  0  0
  7 10  1  0  0  0  0
  8 11  1  0  0  0  0
  9 12  1  0  0  0  0
 10 13  1  0  0  0  0
M  CHG  1   4  -1
M  END
>  <CHROM.1>
-65.64128891,-177.44503203,-62.67700641,-178.52646528,55.08199713,-177.74495428
175.99559196,63.04678717,-178.96405545,28.31863208,31.92017568,46.04276033
-2.19733505,0.50514332,2.39302605

>  <Name>
ligand

>  <RI>
0

>  <Rbt.Current_Directory>
/home/itssahil/PROJECTS/Mol_Feturizer/New_Systems/rnas/2NPY

>  <Rbt.Executable>
rbdock ($Id: //depot/dev/client3/rdock/2013.1/src/exe/rbdock.cxx#4 $)

>  <Rbt.Library>
libRbt.so (2013.1, Build901 2013/11/27)

>  <Rbt.Parameter_File>
/export/apps/rDock/src/rDock_2013.1_src/data/scripts/dock_solv.prm

>  <Rbt.Receptor>
prm/pocket_docking_7.prm

>  <SCORE>
-9.89566

>  <SCORE.INTER>
3.3114

>  <SCORE.INTER.CONST>
1

>  <SCORE.INTER.POLAR>
0

>  <SCORE.INTER.ROT>
9

>  <SCORE.INTER.SOLV>
6.13647

>  <SCORE.INTER.VDW>
-9.43789

>  <SCORE.INTER.norm>
0.254723

>  <SCORE.INTRA>
-13.2071

>  <SCORE.INTRA.DIHEDRAL>
-25.1733

>  <SCORE.INTRA.DIHEDRAL.0>
25.6828

>  <SCORE.INTRA.POLAR>
0

>  <SCORE.INTRA.POLAR.0>
0

>  <SCORE.INTRA.REPUL>
0

>  <SCORE.INTRA.REPUL.0>
0

>  <SCORE.INTRA.SOLV>
-1.16361

>  <SCORE.INTRA.SOLV.lig_0>
-48.5059

>  <SCORE.INTRA.VDW>
-0.0386267

>  <SCORE.INTRA.VDW.0>
-0.363643

>  <SCORE.INTRA.norm>
-1.01593

>  <SCORE.RESTR>
0

>  <SCORE.RESTR.CAVITY>
0

>  <SCORE.RESTR.norm>
0

>  <SCORE.SYSTEM>
0

>  <SCORE.SYSTEM.CONST>
0

>  <SCORE.SYSTEM.DIHEDRAL>
0

>  <SCORE.SYSTEM.SOLV>
0

>  <SCORE.SYSTEM.norm>
0

>  <SCORE.heavy>
13

>  <SCORE.norm>
-0.761205

>  <RMSD>
7.188

$$$$
ligand
 OpenBabel11021811453D
libRbt.so/2013.1/901 2013/11/27
 13 12  0  0  0  0  0  0  0  0999 V2000
   33.4213   31.6616   48.2610 O   0  0  0  0  0  0  0  0  0  0  0  0
   36.2278   31.2385   48.1087 O   0  0  0  0  0  0  0  0  0  0  0  0
   28.9567   32.2205   45.9399 P   0  0  2  0  0  0  0  0  0  0  0  0
   29.2240   33.2543   44.8981 O   0  5  0  0  0  0  0  0  0  0  0  0
   27.6011   32.1267   46.5401 O   0  0  0  0  0  0  0  0  0  0  0  0
   29.9883   32.4145   47.1296 O   0  0  0  0  0  0  0  0  0  0  0  0
   37.2011   29.9732   45.7447 O   0  0  0  0  0  0  0  0  0  0  0  0
   31.3216   31.8909   47.0450 C   0  0  0  0  0  0  0  0  0  0  0  0
   35.5672   31.1463   49.3968 C   0  0  0  0  0  0  0  0  0  0  0  0
   38.0879   30.6146   46.6500 C   0  0  0  0  0  0  0  0  0  0  0  0
   32.1087   32.2518   48.3163 C   0  0  0  0  0  0  0  0  0  0  0  0
   34.2444   31.9508   49.4252 C   0  0  0  0  0  0  0  0  0  0  0  0
   37.4815   30.5176   48.0613 C   0  0  0  0  0  0  0  0  0  0  0  0
  1 12  1  0  0  0  0
  1 11  1  0  0  0  0
  2 13  1  0  0  0  0
  2  9  1  0  0  0  0
  3  4  1  6  0  0  0
  3  5  2  0  0  0  0
  3  6  1  0  0  0  0
  6  8  1  0  0  0  0
  7 10  1  0  0  0  0
  8 11  1  0  0  0  0
  9 12  1  0  0  0  0
 10 13  1  0  0  0  0
M  CHG  1   4  -1
M  END
>  <CHROM.1>
172.64312384,177.62345157,-81.42960852,178.66113835,176.80956218,178.82519802
48.15850752,-63.38538343,179.91858825,32.79647855,31.69044859,47.20266775
0.14974031,-0.23092522,1.43591190

>  <Name>
ligand

>  <RI>
0

>  <Rbt.Current_Directory>
/home/itssahil/PROJECTS/Mol_Feturizer/New_Systems/rnas/2NPY

>  <Rbt.Executable>
rbdock ($Id: //depot/dev/client3/rdock/2013.1/src/exe/rbdock.cxx#4 $)

>  <Rbt.Library>
libRbt.so (2013.1, Build901 2013/11/27)

>  <Rbt.Parameter_File>
/export/apps/rDock/src/rDock_2013.1_src/data/scripts/dock_solv.prm

>  <Rbt.Receptor>
prm/pocket_docking_8.prm

>  <SCORE>
-11.8232

>  <SCORE.INTER>
1.94845

>  <SCORE.INTER.CONST>
1

>  <SCORE.INTER.POLAR>
0

>  <SCORE.INTER.ROT>
9

>  <SCORE.INTER.SOLV>
8.91576

>  <SCORE.INTER.VDW>
-11.273

>  <SCORE.INTER.norm>
0.149881

>  <SCORE.INTRA>
-13.7717

>  <SCORE.INTRA.DIHEDRAL>
-24.1156

>  <SCORE.INTRA.DIHEDRAL.0>
25.6828

>  <SCORE.INTRA.POLAR>
0

>  <SCORE.INTRA.POLAR.0>
0

>  <SCORE.INTRA.REPUL>
0

>  <SCORE.INTRA.REPUL.0>
0

>  <SCORE.INTRA.SOLV>
-1.28262

>  <SCORE.INTRA.SOLV.lig_0>
-48.5059

>  <SCORE.INTRA.VDW>
-1.07254

>  <SCORE.INTRA.VDW.0>
-0.363643

>  <SCORE.INTRA.norm>
-1.05936

>  <SCORE.RESTR>
0

>  <SCORE.RESTR.CAVITY>
0

>  <SCORE.RESTR.norm>
0

>  <SCORE.SYSTEM>
0

>  <SCORE.SYSTEM.CONST>
0

>  <SCORE.SYSTEM.DIHEDRAL>
0

>  <SCORE.SYSTEM.SOLV>
0

>  <SCORE.SYSTEM.norm>
0

>  <SCORE.heavy>
13

>  <SCORE.norm>
-0.909477

>  <RMSD>
7.214

$$$$
ligand
 OpenBabel11021811453D
libRbt.so/2013.1/901 2013/11/27
 13 12  0  0  0  0  0  0  0  0999 V2000
   36.9622   30.3127   45.5915 O   0  0  0  0  0  0  0  0  0  0  0  0
   36.4892   31.1867   48.3054 O   0  0  0  0  0  0  0  0  0  0  0  0
   35.2425   29.8622   40.8556 P   0  0  2  0  0  0  0  0  0  0  0  0
   35.9184   29.5929   39.5533 O   0  5  0  0  0  0  0  0  0  0  0  0
   34.2431   30.9578   40.9433 O   0  0  0  0  0  0  0  0  0  0  0  0
   36.3490   30.1420   41.9578 O   0  0  0  0  0  0  0  0  0  0  0  0
   34.5357   31.7212   51.3637 O   0  0  0  0  0  0  0  0  0  0  0  0
   36.0105   30.1826   43.3516 C   0  0  0  0  0  0  0  0  0  0  0  0
   37.6906   30.4507   47.9603 C   0  0  0  0  0  0  0  0  0  0  0  0
   34.7960   31.7737   49.9684 C   0  0  0  0  0  0  0  0  0  0  0  0
   37.2736   30.4393   44.1910 C   0  0  0  0  0  0  0  0  0  0  0  0
   38.0739   30.6382   46.4717 C   0  0  0  0  0  0  0  0  0  0  0  0
   36.1583   31.1051   49.7116 C   0  0  0  0  0  0  0  0  0  0  0  0
  1 12  1  0  0  0  0
  1 11  1  0  0  0  0
  2 13  1  0  0  0  0
  2  9  1  0  0  0  0
  3  4  1  6  0  0  0
  3  5  2  0  0  0  0
  3  6  1  0  0  0  0
  6  8  1  0  0  0  0
  7 10  1  0  0  0  0
  8 11  1  0  0  0  0
  9 12  1  0  0  0  0
 10 13  1  0  0  0  0
M  CHG  1   4  -1
M  END
>  <CHROM.1>
-178.60531818,-173.68665769,-168.12180537,178.74622076,-172.81555924,-175.98059982
-53.70358151,-177.61962244,-175.58647690,36.04094855,30.58124104,44.99314684
-1.53374612,0.23452952,-1.72239686

>  <Name>
ligand

>  <RI>
0

>  <Rbt.Current_Directory>
/home/itssahil/PROJECTS/Mol_Feturizer/New_Systems/rnas/2NPY

>  <Rbt.Executable>
rbdock ($Id: //depot/dev/client3/rdock/2013.1/src/exe/rbdock.cxx#4 $)

>  <Rbt.Library>
libRbt.so (2013.1, Build901 2013/11/27)

>  <Rbt.Parameter_File>
/export/apps/rDock/src/rDock_2013.1_src/data/scripts/dock_solv.prm

>  <Rbt.Receptor>
prm/pocket_docking_6.prm

>  <SCORE>
-12.2991

>  <SCORE.INTER>
1.77016

>  <SCORE.INTER.CONST>
1

>  <SCORE.INTER.POLAR>
0

>  <SCORE.INTER.ROT>
9

>  <SCORE.INTER.SOLV>
8.9066

>  <SCORE.INTER.VDW>
-11.3888

>  <SCORE.INTER.norm>
0.136166

>  <SCORE.INTRA>
-14.0693

>  <SCORE.INTRA.DIHEDRAL>
-24.8563

>  <SCORE.INTRA.DIHEDRAL.0>
25.6828

>  <SCORE.INTRA.POLAR>
0

>  <SCORE.INTRA.POLAR.0>
0

>  <SCORE.INTRA.REPUL>
0

>  <SCORE.INTRA.REPUL.0>
0

>  <SCORE.INTRA.SOLV>
-1.43069

>  <SCORE.INTRA.SOLV.lig_0>
-48.5059

>  <SCORE.INTRA.VDW>
-0.9258

>  <SCORE.INTRA.VDW.0>
-0.363643

>  <SCORE.INTRA.norm>
-1.08225

>  <SCORE.RESTR>
0

>  <SCORE.RESTR.CAVITY>
0

>  <SCORE.RESTR.norm>
0

>  <SCORE.SYSTEM>
0

>  <SCORE.SYSTEM.CONST>
0

>  <SCORE.SYSTEM.DIHEDRAL>
0

>  <SCORE.SYSTEM.SOLV>
0

>  <SCORE.SYSTEM.norm>
0

>  <SCORE.heavy>
13

>  <SCORE.norm>
-0.946088

>  <RMSD>
7.215

$$$$
ligand
 OpenBabel11021811453D
libRbt.so/2013.1/901 2013/11/27
 13 12  0  0  0  0  0  0  0  0999 V2000
   35.4284   30.7875   43.4982 O   0  0  0  0  0  0  0  0  0  0  0  0
   36.9144   30.8078   45.9834 O   0  0  0  0  0  0  0  0  0  0  0  0
   31.4131   32.3075   44.1332 P   0  0  2  0  0  0  0  0  0  0  0  0
   30.7518   33.2799   43.2153 O   0  5  0  0  0  0  0  0  0  0  0  0
   31.3987   32.5637   45.5964 O   0  0  0  0  0  0  0  0  0  0  0  0
   32.9295   32.1421   43.6969 O   0  0  0  0  0  0  0  0  0  0  0  0
   36.9211   32.2014   48.4348 O   0  0  0  0  0  0  0  0  0  0  0  0
   33.2836   31.4039   42.5185 C   0  0  0  0  0  0  0  0  0  0  0  0
   37.4834   30.2378   44.7769 C   0  0  0  0  0  0  0  0  0  0  0  0
   36.7156   30.7960   48.4200 C   0  0  0  0  0  0  0  0  0  0  0  0
   34.8119   31.3928   42.3458 C   0  0  0  0  0  0  0  0  0  0  0  0
   36.8807   30.8726   43.4996 C   0  0  0  0  0  0  0  0  0  0  0  0
   37.4461   30.2199   47.1939 C   0  0  0  0  0  0  0  0  0  0  0  0
  1 12  1  0  0  0  0
  1 11  1  0  0  0  0
  2 13  1  0  0  0  0
  2  9  1  0  0  0  0
  3  4  1  6  0  0  0
  3  5  2  0  0  0  0
  3  6  1  0  0  0  0
  6  8  1  0  0  0  0
  7 10  1  0  0  0  0
  8 11  1  0  0  0  0
  9 12  1  0  0  0  0
 10 13  1  0  0  0  0
M  CHG  1   4  -1
M  END
>  <CHROM.1>
178.58467834,-175.54258477,-73.77240501,-179.40661651,59.36743866,179.19156348
-54.32936033,-60.10912222,-173.15645789,34.48506512,31.55845708,44.82230926
-0.44766994,0.35553135,-1.72036201

>  <Name>
ligand

>  <RI>
0

>  <Rbt.Current_Directory>
/home/itssahil/PROJECTS/Mol_Feturizer/New_Systems/rnas/2NPY

>  <Rbt.Executable>
rbdock ($Id: //depot/dev/client3/rdock/2013.1/src/exe/rbdock.cxx#4 $)

>  <Rbt.Library>
libRbt.so (2013.1, Build901 2013/11/27)

>  <Rbt.Parameter_File>
/export/apps/rDock/src/rDock_2013.1_src/data/scripts/dock_solv.prm

>  <Rbt.Receptor>
prm/pocket_docking_7.prm

>  <SCORE>
-12.3574

>  <SCORE.INTER>
1.83107

>  <SCORE.INTER.CONST>
1

>  <SCORE.INTER.POLAR>
0

>  <SCORE.INTER.ROT>
9

>  <SCORE.INTER.SOLV>
13.4028

>  <SCORE.INTER.VDW>
-12.8469

>  <SCORE.INTER.norm>
0.140851

>  <SCORE.INTRA>
-14.1885

>  <SCORE.INTRA.DIHEDRAL>
-24.8402

>  <SCORE.INTRA.DIHEDRAL.0>
25.6828

>  <SCORE.INTRA.POLAR>
0

>  <SCORE.INTRA.POLAR.0>
0

>  <SCORE.INTRA.REPUL>
0

>  <SCORE.INTRA.REPUL.0>
0

>  <SCORE.INTRA.SOLV>
-1.11888

>  <SCORE.INTRA.SOLV.lig_0>
-48.5059

>  <SCORE.INTRA.VDW>
-1.20896

>  <SCORE.INTRA.VDW.0>
-0.363643

>  <SCORE.INTRA.norm>
-1.09142

>  <SCORE.RESTR>
0

>  <SCORE.RESTR.CAVITY>
0

>  <SCORE.RESTR.norm>
0

>  <SCORE.SYSTEM>
0

>  <SCORE.SYSTEM.CONST>
0

>  <SCORE.SYSTEM.DIHEDRAL>
0

>  <SCORE.SYSTEM.SOLV>
0

>  <SCORE.SYSTEM.norm>
0

>  <SCORE.heavy>
13

>  <SCORE.norm>
-0.950572

>  <RMSD>
7.218

$$$$
ligand
 OpenBabel11021811453D
libRbt.so/2013.1/901 2013/11/27
 13 12  0  0  0  0  0  0  0  0999 V2000
   35.0908   31.0781   43.2037 O   0  0  0  0  0  0  0  0  0  0  0  0
   36.7673   30.3409   45.4561 O   0  0  0  0  0  0  0  0  0  0  0  0
   31.0625   32.4824   44.2664 P   0  0  2  0  0  0  0  0  0  0  0  0
   31.4279   33.9268   44.1929 O   0  5  0  0  0  0  0  0  0  0  0  0
   30.6159   31.9104   45.5627 O   0  0  0  0  0  0  0  0  0  0  0  0
   32.2949   31.6169   43.7671 O   0  0  0  0  0  0  0  0  0  0  0  0
   36.0267   31.4419   47.9249 O   0  0  0  0  0  0  0  0  0  0  0  0
   32.8953   31.8555   42.4859 C   0  0  0  0  0  0  0  0  0  0  0  0
   37.3125   30.4530   44.1166 C   0  0  0  0  0  0  0  0  0  0  0  0
   37.0836   30.4943   47.8755 C   0  0  0  0  0  0  0  0  0  0  0  0
   34.0377   30.8537   42.2470 C   0  0  0  0  0  0  0  0  0  0  0  0
   36.2363   30.1977   43.0329 C   0  0  0  0  0  0  0  0  0  0  0  0
   37.7475   30.5919   46.4904 C   0  0  0  0  0  0  0  0  0  0  0  0
  1 12  1  0  0  0  0
  1 11  1  0  0  0  0
  2 13  1  0  0  0  0
  2  9  1  0  0  0  0
  3  4  1  1  0  0  0
  3  5  2  0  0  0  0
  3  6  1  0  0  0  0
  6  8  1  0  0  0  0
  7 10  1  0  0  0  0
  8 11  1  0  0  0  0
  9 12  1  0  0  0  0
 10 13  1  0  0  0  0
M  CHG  1   4  -1
M  END
>  <CHROM.1>
-178.08365456,178.36848408,-54.28065386,-178.51796662,-64.79242292,-179.24396459
55.15122275,-58.36333485,-178.41516237,34.18601045,31.44123251,44.65127170
-0.27665522,0.36182698,-1.70072372

>  <Name>
ligand

>  <RI>
0

>  <Rbt.Current_Directory>
/home/itssahil/PROJECTS/Mol_Feturizer/New_Systems/rnas/2NPY

>  <Rbt.Executable>
rbdock ($Id: //depot/dev/client3/rdock/2013.1/src/exe/rbdock.cxx#4 $)

>  <Rbt.Library>
libRbt.so (2013.1, Build901 2013/11/27)

>  <Rbt.Parameter_File>
/export/apps/rDock/src/rDock_2013.1_src/data/scripts/dock_solv.prm

>  <Rbt.Receptor>
prm/pocket_docking_4.prm

>  <SCORE>
-13.2734

>  <SCORE.INTER>
1.06076

>  <SCORE.INTER.CONST>
1

>  <SCORE.INTER.POLAR>
0

>  <SCORE.INTER.ROT>
9

>  <SCORE.INTER.SOLV>
13.3043

>  <SCORE.INTER.VDW>
-13.3276

>  <SCORE.INTER.norm>
0.0815968

>  <SCORE.INTRA>
-14.3342

>  <SCORE.INTRA.DIHEDRAL>
-25.4108

>  <SCORE.INTRA.DIHEDRAL.0>
25.6828

>  <SCORE.INTRA.POLAR>
0

>  <SCORE.INTRA.POLAR.0>
0

>  <SCORE.INTRA.REPUL>
0

>  <SCORE.INTRA.REPUL.0>
0

>  <SCORE.INTRA.SOLV>
-1.04652

>  <SCORE.INTRA.SOLV.lig_0>
-48.5059

>  <SCORE.INTRA.VDW>
-1.10549

>  <SCORE.INTRA.VDW.0>
-0.363643

>  <SCORE.INTRA.norm>
-1.10263

>  <SCORE.RESTR>
0

>  <SCORE.RESTR.CAVITY>
0

>  <SCORE.RESTR.norm>
0

>  <SCORE.SYSTEM>
0

>  <SCORE.SYSTEM.CONST>
0

>  <SCORE.SYSTEM.DIHEDRAL>
0

>  <SCORE.SYSTEM.SOLV>
0

>  <SCORE.SYSTEM.norm>
0

>  <SCORE.heavy>
13

>  <SCORE.norm>
-1.02103

>  <RMSD>
7.225

$$$$
ligand
 OpenBabel11021811453D
libRbt.so/2013.1/901 2013/11/27
 13 12  0  0  0  0  0  0  0  0999 V2000
   37.0346   30.2425   45.5806 O   0  0  0  0  0  0  0  0  0  0  0  0
   36.5605   31.1866   48.2938 O   0  0  0  0  0  0  0  0  0  0  0  0
   35.2634   30.0745   40.8410 P   0  0  2  0  0  0  0  0  0  0  0  0
   35.9289   29.8882   39.5189 O   0  5  0  0  0  0  0  0  0  0  0  0
   34.2560   31.1543   41.0021 O   0  0  0  0  0  0  0  0  0  0  0  0
   36.3781   30.2986   41.9476 O   0  0  0  0  0  0  0  0  0  0  0  0
   34.6075   31.7775   51.3424 O   0  0  0  0  0  0  0  0  0  0  0  0
   36.0704   30.1718   43.3433 C   0  0  0  0  0  0  0  0  0  0  0  0
   37.7392   30.4123   47.9544 C   0  0  0  0  0  0  0  0  0  0  0  0
   34.8950   31.8556   49.9537 C   0  0  0  0  0  0  0  0  0  0  0  0
   37.3298   30.4395   44.1847 C   0  0  0  0  0  0  0  0  0  0  0  0
   38.1351   30.5866   46.4676 C   0  0  0  0  0  0  0  0  0  0  0  0
   36.2199   31.1152   49.6982 C   0  0  0  0  0  0  0  0  0  0  0  0
  1 12  1  0  0  0  0
  1 11  1  0  0  0  0
  2 13  1  0  0  0  0
  2  9  1  0  0  0  0
  3  4  1  6  0  0  0
  3  5  2  0  0  0  0
  3  6  1  0  0  0  0
  6  8  1  0  0  0  0
  7 10  1  0  0  0  0
  8 11  1  0  0  0  0
  9 12  1  0  0  0  0
 10 13  1  0  0  0  0
M  CHG  1   4  -1
M  END
>  <CHROM.1>
177.57007887,-174.99245750,-164.19591072,179.95636384,-176.98782587,-176.04710312
-56.10424290,-179.20841697,-174.89737239,36.09001432,30.65989667,44.98523297
-1.52703514,0.28688167,-1.70607582

>  <Name>
ligand

>  <RI>
0

>  <Rbt.Current_Directory>
/home/itssahil/PROJECTS/Mol_Feturizer/New_Systems/rnas/2NPY

>  <Rbt.Executable>
rbdock ($Id: //depot/dev/client3/rdock/2013.1/src/exe/rbdock.cxx#4 $)

>  <Rbt.Library>
libRbt.so (2013.1, Build901 2013/11/27)

>  <Rbt.Parameter_File>
/export/apps/rDock/src/rDock_2013.1_src/data/scripts/dock_solv.prm

>  <Rbt.Receptor>
prm/pocket_docking_6.prm

>  <SCORE>
-12.3129

>  <SCORE.INTER>
1.90735

>  <SCORE.INTER.CONST>
1

>  <SCORE.INTER.POLAR>
0

>  <SCORE.INTER.ROT>
9

>  <SCORE.INTER.SOLV>
8.07886

>  <SCORE.INTER.VDW>
-11.0214

>  <SCORE.INTER.norm>
0.146719

>  <SCORE.INTRA>
-14.2203

>  <SCORE.INTRA.DIHEDRAL>
-25.087

>  <SCORE.INTRA.DIHEDRAL.0>
25.6828

>  <SCORE.INTRA.POLAR>
0

>  <SCORE.INTRA.POLAR.0>
0

>  <SCORE.INTRA.REPUL>
0

>  <SCORE.INTRA.REPUL.0>
0

>  <SCORE.INTRA.SOLV>
-1.45274

>  <SCORE.INTRA.SOLV.lig_0>
-48.5059

>  <SCORE.INTRA.VDW>
-0.950408

>  <SCORE.INTRA.VDW.0>
-0.363643

>  <SCORE.INTRA.norm>
-1.09387

>  <SCORE.RESTR>
0

>  <SCORE.RESTR.CAVITY>
0

>  <SCORE.RESTR.norm>
0

>  <SCORE.SYSTEM>
0

>  <SCORE.SYSTEM.CONST>
0

>  <SCORE.SYSTEM.DIHEDRAL>
0

>  <SCORE.SYSTEM.SOLV>
0

>  <SCORE.SYSTEM.norm>
0

>  <SCORE.heavy>
13

>  <SCORE.norm>
-0.947149

>  <RMSD>
7.240

$$$$
ligand
 OpenBabel11021811453D
libRbt.so/2013.1/901 2013/11/27
 13 12  0  0  0  0  0  0  0  0999 V2000
   35.3674   30.9383   43.5279 O   0  0  0  0  0  0  0  0  0  0  0  0
   37.0715   30.8342   45.9389 O   0  0  0  0  0  0  0  0  0  0  0  0
   31.3088   32.2684   44.2468 P   0  0  2  0  0  0  0  0  0  0  0  0
   30.6228   33.2723   43.3825 O   0  5  0  0  0  0  0  0  0  0  0  0
   31.2866   32.4428   45.7219 O   0  0  0  0  0  0  0  0  0  0  0  0
   32.8294   32.1671   43.8053 O   0  0  0  0  0  0  0  0  0  0  0  0
   35.7912   30.8272   48.4761 O   0  0  0  0  0  0  0  0  0  0  0  0
   33.2015   31.5255   42.5771 C   0  0  0  0  0  0  0  0  0  0  0  0
   37.4490   30.2264   44.6771 C   0  0  0  0  0  0  0  0  0  0  0  0
   37.2076   30.8718   48.3796 C   0  0  0  0  0  0  0  0  0  0  0  0
   34.7291   31.5717   42.4029 C   0  0  0  0  0  0  0  0  0  0  0  0
   36.8208   30.9658   43.4703 C   0  0  0  0  0  0  0  0  0  0  0  0
   37.6209   30.1458   47.0869 C   0  0  0  0  0  0  0  0  0  0  0  0
  1 12  1  0  0  0  0
  1 11  1  0  0  0  0
  2 13  1  0  0  0  0
  2  9  1  0  0  0  0
  3  4  1  6  0  0  0
  3  5  2  0  0  0  0
  3  6  1  0  0  0  0
  6  8  1  0  0  0  0
  7 10  1  0  0  0  0
  8 11  1  0  0  0  0
  9 12  1  0  0  0  0
 10 13  1  0  0  0  0
M  CHG  1   4  -1
M  END
>  <CHROM.1>
-177.91411804,178.46769258,-72.65563754,-179.98600260,57.71394481,178.72696290
-60.71856338,62.33215129,-178.39586169,34.39264728,31.47967719,44.86070310
-0.45060426,0.32142968,-1.56188341

>  <Name>
ligand

>  <RI>
0

>  <Rbt.Current_Directory>
/home/itssahil/PROJECTS/Mol_Feturizer/New_Systems/rnas/2NPY

>  <Rbt.Executable>
rbdock ($Id: //depot/dev/client3/rdock/2013.1/src/exe/rbdock.cxx#4 $)

>  <Rbt.Library>
libRbt.so (2013.1, Build901 2013/11/27)

>  <Rbt.Parameter_File>
/export/apps/rDock/src/rDock_2013.1_src/data/scripts/dock_solv.prm

>  <Rbt.Receptor>
prm/pocket_docking_6.prm

>  <SCORE>
-12.4251

>  <SCORE.INTER>
1.92859

>  <SCORE.INTER.CONST>
1

>  <SCORE.INTER.POLAR>
0

>  <SCORE.INTER.ROT>
9

>  <SCORE.INTER.SOLV>
14.5706

>  <SCORE.INTER.VDW>
-13.1711

>  <SCORE.INTER.norm>
0.148353

>  <SCORE.INTRA>
-14.3537

>  <SCORE.INTRA.DIHEDRAL>
-25.2447

>  <SCORE.INTRA.DIHEDRAL.0>
25.6828

>  <SCORE.INTRA.POLAR>
0

>  <SCORE.INTRA.POLAR.0>
0

>  <SCORE.INTRA.REPUL>
0

>  <SCORE.INTRA.REPUL.0>
0

>  <SCORE.INTRA.SOLV>
-1.12315

>  <SCORE.INTRA.SOLV.lig_0>
-48.5059

>  <SCORE.INTRA.VDW>
-1.16982

>  <SCORE.INTRA.VDW.0>
-0.363643

>  <SCORE.INTRA.norm>
-1.10413

>  <SCORE.RESTR>
0

>  <SCORE.RESTR.CAVITY>
0

>  <SCORE.RESTR.norm>
0

>  <SCORE.SYSTEM>
0

>  <SCORE.SYSTEM.CONST>
0

>  <SCORE.SYSTEM.DIHEDRAL>
0

>  <SCORE.SYSTEM.SOLV>
0

>  <SCORE.SYSTEM.norm>
0

>  <SCORE.heavy>
13

>  <SCORE.norm>
-0.95578

>  <RMSD>
7.241

$$$$
ligand
 OpenBabel11021811453D
libRbt.so/2013.1/901 2013/11/27
 13 12  0  0  0  0  0  0  0  0999 V2000
   35.0837   31.0860   43.1154 O   0  0  0  0  0  0  0  0  0  0  0  0
   36.7872   30.3634   45.4088 O   0  0  0  0  0  0  0  0  0  0  0  0
   31.1947   32.7425   44.1453 P   0  0  2  0  0  0  0  0  0  0  0  0
   31.6348   34.1529   43.9390 O   0  5  0  0  0  0  0  0  0  0  0  0
   30.7638   32.3059   45.4983 O   0  0  0  0  0  0  0  0  0  0  0  0
   32.3604   31.7702   43.6835 O   0  0  0  0  0  0  0  0  0  0  0  0
   36.0150   31.3193   47.9294 O   0  0  0  0  0  0  0  0  0  0  0  0
   32.8932   31.8345   42.3528 C   0  0  0  0  0  0  0  0  0  0  0  0
   37.3034   30.5024   44.0603 C   0  0  0  0  0  0  0  0  0  0  0  0
   37.1531   30.4762   47.8234 C   0  0  0  0  0  0  0  0  0  0  0  0
   34.0195   30.7999   42.1881 C   0  0  0  0  0  0  0  0  0  0  0  0
   36.2239   30.1905   42.9948 C   0  0  0  0  0  0  0  0  0  0  0  0
   37.7670   30.6767   46.4263 C   0  0  0  0  0  0  0  0  0  0  0  0
  1 12  1  0  0  0  0
  1 11  1  0  0  0  0
  2 13  1  0  0  0  0
  2  9  1  0  0  0  0
  3  4  1  1  0  0  0
  3  5  2  0  0  0  0
  3  6  1  0  0  0  0
  6  8  1  0  0  0  0
  7 10  1  0  0  0  0
  8 11  1  0  0  0  0
  9 12  1  0  0  0  0
 10 13  1  0  0  0  0
M  CHG  1   4  -1
M  END
>  <CHROM.1>
-177.22225302,-178.77628196,-56.62303271,179.12960929,-60.96584165,-178.76129847
59.92095911,-58.50966194,-177.52922283,34.24048842,31.53339547,44.56636397
-0.28869469,0.41173980,-1.72035778

>  <Name>
ligand

>  <RI>
0

>  <Rbt.Current_Directory>
/home/itssahil/PROJECTS/Mol_Feturizer/New_Systems/rnas/2NPY

>  <Rbt.Executable>
rbdock ($Id: //depot/dev/client3/rdock/2013.1/src/exe/rbdock.cxx#4 $)

>  <Rbt.Library>
libRbt.so (2013.1, Build901 2013/11/27)

>  <Rbt.Parameter_File>
/export/apps/rDock/src/rDock_2013.1_src/data/scripts/dock_solv.prm

>  <Rbt.Receptor>
prm/pocket_docking_4.prm

>  <SCORE>
-13.2153

>  <SCORE.INTER>
1.17454

>  <SCORE.INTER.CONST>
1

>  <SCORE.INTER.POLAR>
0

>  <SCORE.INTER.ROT>
9

>  <SCORE.INTER.SOLV>
11.8116

>  <SCORE.INTER.VDW>
-12.7542

>  <SCORE.INTER.norm>
0.0903493

>  <SCORE.INTRA>
-14.3899

>  <SCORE.INTRA.DIHEDRAL>
-25.5512

>  <SCORE.INTRA.DIHEDRAL.0>
25.6828

>  <SCORE.INTRA.POLAR>
0

>  <SCORE.INTRA.POLAR.0>
0

>  <SCORE.INTRA.REPUL>
0

>  <SCORE.INTRA.REPUL.0>
0

>  <SCORE.INTRA.SOLV>
-1.02972

>  <SCORE.INTRA.SOLV.lig_0>
-48.5059

>  <SCORE.INTRA.VDW>
-1.09942

>  <SCORE.INTRA.VDW.0>
-0.363643

>  <SCORE.INTRA.norm>
-1.10691

>  <SCORE.RESTR>
0

>  <SCORE.RESTR.CAVITY>
0

>  <SCORE.RESTR.norm>
0

>  <SCORE.SYSTEM>
0

>  <SCORE.SYSTEM.CONST>
0

>  <SCORE.SYSTEM.DIHEDRAL>
0

>  <SCORE.SYSTEM.SOLV>
0

>  <SCORE.SYSTEM.norm>
0

>  <SCORE.heavy>
13

>  <SCORE.norm>
-1.01656

>  <RMSD>
7.244

$$$$
ligand
 OpenBabel11021811453D
libRbt.so/2013.1/901 2013/11/27
 13 12  0  0  0  0  0  0  0  0999 V2000
   35.0659   31.0391   43.1981 O   0  0  0  0  0  0  0  0  0  0  0  0
   36.9791   30.8388   45.4777 O   0  0  0  0  0  0  0  0  0  0  0  0
   31.1397   32.3036   44.4551 P   0  0  2  0  0  0  0  0  0  0  0  0
   30.3164   33.2322   43.6272 O   0  5  0  0  0  0  0  0  0  0  0  0
   31.2629   32.5469   45.9154 O   0  0  0  0  0  0  0  0  0  0  0  0
   32.6089   32.2526   43.8585 O   0  0  0  0  0  0  0  0  0  0  0  0
   35.9335   30.9577   48.0533 O   0  0  0  0  0  0  0  0  0  0  0  0
   32.8483   31.7903   42.5213 C   0  0  0  0  0  0  0  0  0  0  0  0
   37.2215   30.2756   44.1630 C   0  0  0  0  0  0  0  0  0  0  0  0
   37.3312   30.7599   47.8956 C   0  0  0  0  0  0  0  0  0  0  0  0
   34.3560   31.8199   42.2180 C   0  0  0  0  0  0  0  0  0  0  0  0
   36.5123   31.0850   43.0495 C   0  0  0  0  0  0  0  0  0  0  0  0
   37.5646   30.0580   46.5459 C   0  0  0  0  0  0  0  0  0  0  0  0
  1 12  1  0  0  0  0
  1 11  1  0  0  0  0
  2 13  1  0  0  0  0
  2  9  1  0  0  0  0
  3  4  1  6  0  0  0
  3  5  2  0  0  0  0
  3  6  1  0  0  0  0
  6  8  1  0  0  0  0
  7 10  1  0  0  0  0
  8 11  1  0  0  0  0
  9 12  1  0  0  0  0
 10 13  1  0  0  0  0
M  CHG  1   4  -1
M  END
>  <CHROM.1>
177.68602915,176.87705668,-61.21069953,-178.85205947,56.15041049,176.57934076
-63.72644213,56.24774019,-175.86155005,34.22766242,31.54604762,44.69032438
-0.34397275,0.32264563,-1.56000149

>  <Name>
ligand

>  <RI>
0

>  <Rbt.Current_Directory>
/home/itssahil/PROJECTS/Mol_Feturizer/New_Systems/rnas/2NPY

>  <Rbt.Executable>
rbdock ($Id: //depot/dev/client3/rdock/2013.1/src/exe/rbdock.cxx#4 $)

>  <Rbt.Library>
libRbt.so (2013.1, Build901 2013/11/27)

>  <Rbt.Parameter_File>
/export/apps/rDock/src/rDock_2013.1_src/data/scripts/dock_solv.prm

>  <Rbt.Receptor>
prm/pocket_docking_4.prm

>  <SCORE>
-11.9323

>  <SCORE.INTER>
2.30495

>  <SCORE.INTER.CONST>
1

>  <SCORE.INTER.POLAR>
0

>  <SCORE.INTER.ROT>
9

>  <SCORE.INTER.SOLV>
13.8939

>  <SCORE.INTER.VDW>
-12.6947

>  <SCORE.INTER.norm>
0.177304

>  <SCORE.INTRA>
-14.2372

>  <SCORE.INTRA.DIHEDRAL>
-25.2265

>  <SCORE.INTRA.DIHEDRAL.0>
25.6828

>  <SCORE.INTRA.POLAR>
0

>  <SCORE.INTRA.POLAR.0>
0

>  <SCORE.INTRA.REPUL>
0

>  <SCORE.INTRA.REPUL.0>
0

>  <SCORE.INTRA.SOLV>
-1.03559

>  <SCORE.INTRA.SOLV.lig_0>
-48.5059

>  <SCORE.INTRA.VDW>
-1.10618

>  <SCORE.INTRA.VDW.0>
-0.363643

>  <SCORE.INTRA.norm>
-1.09517

>  <SCORE.RESTR>
0

>  <SCORE.RESTR.CAVITY>
0

>  <SCORE.RESTR.norm>
0

>  <SCORE.SYSTEM>
0

>  <SCORE.SYSTEM.CONST>
0

>  <SCORE.SYSTEM.DIHEDRAL>
0

>  <SCORE.SYSTEM.SOLV>
0

>  <SCORE.SYSTEM.norm>
0

>  <SCORE.heavy>
13

>  <SCORE.norm>
-0.917866

>  <RMSD>
7.250

$$$$
ligand
 OpenBabel11021811453D
libRbt.so/2013.1/901 2013/11/27
 13 12  0  0  0  0  0  0  0  0999 V2000
   35.0472   31.1229   43.2062 O   0  0  0  0  0  0  0  0  0  0  0  0
   36.8030   30.3004   45.3770 O   0  0  0  0  0  0  0  0  0  0  0  0
   31.0458   32.4738   44.4079 P   0  0  2  0  0  0  0  0  0  0  0  0
   31.3821   33.9251   44.3308 O   0  5  0  0  0  0  0  0  0  0  0  0
   30.6690   31.8834   45.7179 O   0  0  0  0  0  0  0  0  0  0  0  0
   32.2691   31.6347   43.8452 O   0  0  0  0  0  0  0  0  0  0  0  0
   36.1328   31.3620   47.8989 O   0  0  0  0  0  0  0  0  0  0  0  0
   32.8391   31.9284   42.5615 C   0  0  0  0  0  0  0  0  0  0  0  0
   37.3020   30.4899   44.0282 C   0  0  0  0  0  0  0  0  0  0  0  0
   37.1777   30.4060   47.7905 C   0  0  0  0  0  0  0  0  0  0  0  0
   33.9799   30.9428   42.2561 C   0  0  0  0  0  0  0  0  0  0  0  0
   36.1967   30.2638   42.9675 C   0  0  0  0  0  0  0  0  0  0  0  0
   37.8055   30.5418   46.3919 C   0  0  0  0  0  0  0  0  0  0  0  0
  1 12  1  0  0  0  0
  1 11  1  0  0  0  0
  2 13  1  0  0  0  0
  2  9  1  0  0  0  0
  3  4  1  1  0  0  0
  3  5  2  0  0  0  0
  3  6  1  0  0  0  0
  6  8  1  0  0  0  0
  7 10  1  0  0  0  0
  8 11  1  0  0  0  0
  9 12  1  0  0  0  0
 10 13  1  0  0  0  0
M  CHG  1   4  -1
M  END
>  <CHROM.1>
-179.31593257,176.51045937,-51.85978080,-178.57504372,-64.15298463,-178.37689361
55.98997746,-59.83562963,-177.89084931,34.18880747,31.44182378,44.67561408
-0.25070909,0.35549349,-1.67807545

>  <Name>
ligand

>  <RI>
0

>  <Rbt.Current_Directory>
/home/itssahil/PROJECTS/Mol_Feturizer/New_Systems/rnas/2NPY

>  <Rbt.Executable>
rbdock ($Id: //depot/dev/client3/rdock/2013.1/src/exe/rbdock.cxx#4 $)

>  <Rbt.Library>
libRbt.so (2013.1, Build901 2013/11/27)

>  <Rbt.Parameter_File>
/export/apps/rDock/src/rDock_2013.1_src/data/scripts/dock_solv.prm

>  <Rbt.Receptor>
prm/pocket_docking_6.prm

>  <SCORE>
-13.2162

>  <SCORE.INTER>
1.10178

>  <SCORE.INTER.CONST>
1

>  <SCORE.INTER.POLAR>
0

>  <SCORE.INTER.ROT>
9

>  <SCORE.INTER.SOLV>
12.8122

>  <SCORE.INTER.VDW>
-13.1362

>  <SCORE.INTER.norm>
0.084752

>  <SCORE.INTRA>
-14.3179

>  <SCORE.INTRA.DIHEDRAL>
-25.4114

>  <SCORE.INTRA.DIHEDRAL.0>
25.6828

>  <SCORE.INTRA.POLAR>
0

>  <SCORE.INTRA.POLAR.0>
0

>  <SCORE.INTRA.REPUL>
0

>  <SCORE.INTRA.REPUL.0>
0

>  <SCORE.INTRA.SOLV>
-1.03262

>  <SCORE.INTRA.SOLV.lig_0>
-48.5059

>  <SCORE.INTRA.VDW>
-1.09592

>  <SCORE.INTRA.VDW.0>
-0.363643

>  <SCORE.INTRA.norm>
-1.10138

>  <SCORE.RESTR>
0

>  <SCORE.RESTR.CAVITY>
0

>  <SCORE.RESTR.norm>
0

>  <SCORE.SYSTEM>
0

>  <SCORE.SYSTEM.CONST>
0

>  <SCORE.SYSTEM.DIHEDRAL>
0

>  <SCORE.SYSTEM.SOLV>
0

>  <SCORE.SYSTEM.norm>
0

>  <SCORE.heavy>
13

>  <SCORE.norm>
-1.01663

>  <RMSD>
7.254

$$$$
ligand
 OpenBabel11021811453D
libRbt.so/2013.1/901 2013/11/27
 13 12  0  0  0  0  0  0  0  0999 V2000
   33.9662   31.5019   43.1385 O   0  0  0  0  0  0  0  0  0  0  0  0
   36.7968   31.2451   43.7758 O   0  0  0  0  0  0  0  0  0  0  0  0
   30.4450   32.6254   45.5229 P   0  0  2  0  0  0  0  0  0  0  0  0
   31.2487   33.5638   46.3590 O   0  5  0  0  0  0  0  0  0  0  0  0
   29.7393   31.4927   46.1754 O   0  0  0  0  0  0  0  0  0  0  0  0
   31.3808   32.0140   44.3969 O   0  0  0  0  0  0  0  0  0  0  0  0
   36.7834   30.9614   46.6076 O   0  0  0  0  0  0  0  0  0  0  0  0
   31.9466   32.8458   43.3737 C   0  0  0  0  0  0  0  0  0  0  0  0
   36.0597   30.1686   43.1418 C   0  0  0  0  0  0  0  0  0  0  0  0
   37.4868   30.0395   45.7875 C   0  0  0  0  0  0  0  0  0  0  0  0
   32.8151   31.9978   42.4289 C   0  0  0  0  0  0  0  0  0  0  0  0
   34.8597   30.6982   42.3187 C   0  0  0  0  0  0  0  0  0  0  0  0
   37.9476   30.7826   44.5209 C   0  0  0  0  0  0  0  0  0  0  0  0
  1 12  1  0  0  0  0
  1 11  1  0  0  0  0
  2 13  1  0  0  0  0
  2  9  1  0  0  0  0
  3  4  1  1  0  0  0
  3  5  2  0  0  0  0
  3  6  1  0  0  0  0
  6  8  1  0  0  0  0
  7 10  1  0  0  0  0
  8 11  1  0  0  0  0
  9 12  1  0  0  0  0
 10 13  1  0  0  0  0
M  CHG  1   4  -1
M  END
>  <CHROM.1>
-178.75321127,-70.83622409,-64.94031262,179.53212278,-66.61182602,-178.31731401
-56.22481928,-62.74182039,-179.30119442,33.64165991,31.63597123,44.55111337
0.14462949,0.27958370,-1.61856024

>  <Name>
ligand

>  <RI>
0

>  <Rbt.Current_Directory>
/home/itssahil/PROJECTS/Mol_Feturizer/New_Systems/rnas/2NPY

>  <Rbt.Executable>
rbdock ($Id: //depot/dev/client3/rdock/2013.1/src/exe/rbdock.cxx#4 $)

>  <Rbt.Library>
libRbt.so (2013.1, Build901 2013/11/27)

>  <Rbt.Parameter_File>
/export/apps/rDock/src/rDock_2013.1_src/data/scripts/dock_solv.prm

>  <Rbt.Receptor>
prm/pocket_docking_4.prm

>  <SCORE>
-10.2573

>  <SCORE.INTER>
2.89937

>  <SCORE.INTER.CONST>
1

>  <SCORE.INTER.POLAR>
0

>  <SCORE.INTER.ROT>
9

>  <SCORE.INTER.SOLV>
9.63745

>  <SCORE.INTER.VDW>
-10.8796

>  <SCORE.INTER.norm>
0.223028

>  <SCORE.INTRA>
-13.1567

>  <SCORE.INTRA.DIHEDRAL>
-24.7124

>  <SCORE.INTRA.DIHEDRAL.0>
25.6828

>  <SCORE.INTRA.POLAR>
0

>  <SCORE.INTRA.POLAR.0>
0

>  <SCORE.INTRA.REPUL>
0

>  <SCORE.INTRA.REPUL.0>
0

>  <SCORE.INTRA.SOLV>
-1.00857

>  <SCORE.INTRA.SOLV.lig_0>
-48.5059

>  <SCORE.INTRA.VDW>
-0.29624

>  <SCORE.INTRA.VDW.0>
-0.363643

>  <SCORE.INTRA.norm>
-1.01205

>  <SCORE.RESTR>
0

>  <SCORE.RESTR.CAVITY>
0

>  <SCORE.RESTR.norm>
0

>  <SCORE.SYSTEM>
0

>  <SCORE.SYSTEM.CONST>
0

>  <SCORE.SYSTEM.DIHEDRAL>
0

>  <SCORE.SYSTEM.SOLV>
0

>  <SCORE.SYSTEM.norm>
0

>  <SCORE.heavy>
13

>  <SCORE.norm>
-0.789026

>  <RMSD>
7.270

$$$$
ligand
 OpenBabel11021811453D
libRbt.so/2013.1/901 2013/11/27
 13 12  0  0  0  0  0  0  0  0999 V2000
   36.7404   30.1540   44.7549 O   0  0  0  0  0  0  0  0  0  0  0  0
   36.5155   30.9493   47.5503 O   0  0  0  0  0  0  0  0  0  0  0  0
   34.3837   30.6777   40.3098 P   0  0  2  0  0  0  0  0  0  0  0  0
   34.4726   29.3560   39.6239 O   0  5  0  0  0  0  0  0  0  0  0  0
   34.3344   31.9183   39.4940 O   0  0  0  0  0  0  0  0  0  0  0  0
   35.6069   30.8181   41.3105 O   0  0  0  0  0  0  0  0  0  0  0  0
   35.1668   32.9408   48.9894 O   0  0  0  0  0  0  0  0  0  0  0  0
   35.5498   30.2591   42.6309 C   0  0  0  0  0  0  0  0  0  0  0  0
   37.6552   30.1964   47.0618 C   0  0  0  0  0  0  0  0  0  0  0  0
   35.0604   31.5878   49.4082 C   0  0  0  0  0  0  0  0  0  0  0  0
   36.8748   30.5181   43.3679 C   0  0  0  0  0  0  0  0  0  0  0  0
   37.9155   30.4559   45.5576 C   0  0  0  0  0  0  0  0  0  0  0  0
   36.3454   30.8545   48.9840 C   0  0  0  0  0  0  0  0  0  0  0  0
  1 12  1  0  0  0  0
  1 11  1  0  0  0  0
  2 13  1  0  0  0  0
  2  9  1  0  0  0  0
  3  4  1  6  0  0  0
  3  5  2  0  0  0  0
  3  6  1  0  0  0  0
  6  8  1  0  0  0  0
  7 10  1  0  0  0  0
  8 11  1  0  0  0  0
  9 12  1  0  0  0  0
 10 13  1  0  0  0  0
M  CHG  1   4  -1
M  END
>  <CHROM.1>
173.41849321,-175.70750732,-83.92671184,178.87022577,170.66964484,-172.95710725
-56.47192082,-58.37817106,-175.73313219,35.74912292,30.82167222,44.15045030
-1.35113671,0.59094945,-1.78273121

>  <Name>
ligand

>  <RI>
0

>  <Rbt.Current_Directory>
/home/itssahil/PROJECTS/Mol_Feturizer/New_Systems/rnas/2NPY

>  <Rbt.Executable>
rbdock ($Id: //depot/dev/client3/rdock/2013.1/src/exe/rbdock.cxx#4 $)

>  <Rbt.Library>
libRbt.so (2013.1, Build901 2013/11/27)

>  <Rbt.Parameter_File>
/export/apps/rDock/src/rDock_2013.1_src/data/scripts/dock_solv.prm

>  <Rbt.Receptor>
prm/pocket_docking_7.prm

>  <SCORE>
-11.6651

>  <SCORE.INTER>
1.98637

>  <SCORE.INTER.CONST>
1

>  <SCORE.INTER.POLAR>
0

>  <SCORE.INTER.ROT>
9

>  <SCORE.INTER.SOLV>
7.42758

>  <SCORE.INTER.VDW>
-10.7516

>  <SCORE.INTER.norm>
0.152798

>  <SCORE.INTRA>
-13.6515

>  <SCORE.INTRA.DIHEDRAL>
-23.8985

>  <SCORE.INTRA.DIHEDRAL.0>
25.6828

>  <SCORE.INTRA.POLAR>
0

>  <SCORE.INTRA.POLAR.0>
0

>  <SCORE.INTRA.REPUL>
0

>  <SCORE.INTRA.REPUL.0>
0

>  <SCORE.INTRA.SOLV>
-1.29992

>  <SCORE.INTRA.SOLV.lig_0>
-48.5059

>  <SCORE.INTRA.VDW>
-1.05229

>  <SCORE.INTRA.VDW.0>
-0.363643

>  <SCORE.INTRA.norm>
-1.05012

>  <SCORE.RESTR>
0

>  <SCORE.RESTR.CAVITY>
0

>  <SCORE.RESTR.norm>
0

>  <SCORE.SYSTEM>
0

>  <SCORE.SYSTEM.CONST>
0

>  <SCORE.SYSTEM.DIHEDRAL>
0

>  <SCORE.SYSTEM.SOLV>
0

>  <SCORE.SYSTEM.norm>
0

>  <SCORE.heavy>
13

>  <SCORE.norm>
-0.897318

>  <RMSD>
7.272

$$$$
ligand
 OpenBabel11021811453D
libRbt.so/2013.1/901 2013/11/27
 13 12  0  0  0  0  0  0  0  0999 V2000
   31.9305   31.6884   50.1868 O   0  0  0  0  0  0  0  0  0  0  0  0
   35.6694   31.2858   50.0685 O   0  0  0  0  0  0  0  0  0  0  0  0
   29.3132   31.4749   46.6755 P   0  0  2  0  0  0  0  0  0  0  0  0
   29.9009   32.2502   45.5446 O   0  5  0  0  0  0  0  0  0  0  0  0
   28.1143   32.0046   47.3746 O   0  0  0  0  0  0  0  0  0  0  0  0
   30.4352   31.2402   47.7725 O   0  0  0  0  0  0  0  0  0  0  0  0
   38.9576   30.5273   48.6298 O   0  0  0  0  0  0  0  0  0  0  0  0
   30.1431   30.5413   48.9911 C   0  0  0  0  0  0  0  0  0  0  0  0
   34.3103   31.3544   49.5660 C   0  0  0  0  0  0  0  0  0  0  0  0
   38.0431   30.8644   49.6630 C   0  0  0  0  0  0  0  0  0  0  0  0
   31.4244   30.3885   49.8283 C   0  0  0  0  0  0  0  0  0  0  0  0
   33.2946   31.6683   50.6919 C   0  0  0  0  0  0  0  0  0  0  0  0
   36.6367   30.9552   49.0445 C   0  0  0  0  0  0  0  0  0  0  0  0
  1 12  1  0  0  0  0
  1 11  1  0  0  0  0
  2 13  1  0  0  0  0
  2  9  1  0  0  0  0
  3  4  1  6  0  0  0
  3  5  2  0  0  0  0
  3  6  1  0  0  0  0
  6  8  1  0  0  0  0
  7 10  1  0  0  0  0
  8 11  1  0  0  0  0
  9 12  1  0  0  0  0
 10 13  1  0  0  0  0
M  CHG  1   4  -1
M  END
>  <CHROM.1>
70.74497530,-178.46644511,178.71724890,176.74844014,62.00364869,178.31247595
-177.98144128,179.48237149,-165.85331891,32.62120834,31.28160972,48.57525233
2.85339319,0.05763796,-1.47736720

>  <Name>
ligand

>  <RI>
0

>  <Rbt.Current_Directory>
/home/itssahil/PROJECTS/Mol_Feturizer/New_Systems/rnas/2NPY

>  <Rbt.Executable>
rbdock ($Id: //depot/dev/client3/rdock/2013.1/src/exe/rbdock.cxx#4 $)

>  <Rbt.Library>
libRbt.so (2013.1, Build901 2013/11/27)

>  <Rbt.Parameter_File>
/export/apps/rDock/src/rDock_2013.1_src/data/scripts/dock_solv.prm

>  <Rbt.Receptor>
prm/pocket_docking_6.prm

>  <SCORE>
-10.4275

>  <SCORE.INTER>
2.43506

>  <SCORE.INTER.CONST>
1

>  <SCORE.INTER.POLAR>
0

>  <SCORE.INTER.ROT>
9

>  <SCORE.INTER.SOLV>
10.6372

>  <SCORE.INTER.VDW>
-11.5223

>  <SCORE.INTER.norm>
0.187312

>  <SCORE.INTRA>
-12.8625

>  <SCORE.INTRA.DIHEDRAL>
-24.0021

>  <SCORE.INTRA.DIHEDRAL.0>
25.6828

>  <SCORE.INTRA.POLAR>
0

>  <SCORE.INTRA.POLAR.0>
0

>  <SCORE.INTRA.REPUL>
0

>  <SCORE.INTRA.REPUL.0>
0

>  <SCORE.INTRA.SOLV>
-1.41131

>  <SCORE.INTRA.SOLV.lig_0>
-48.5059

>  <SCORE.INTRA.VDW>
-0.155813

>  <SCORE.INTRA.VDW.0>
-0.363643

>  <SCORE.INTRA.norm>
-0.989425

>  <SCORE.RESTR>
0

>  <SCORE.RESTR.CAVITY>
0

>  <SCORE.RESTR.norm>
0

>  <SCORE.SYSTEM>
0

>  <SCORE.SYSTEM.CONST>
0

>  <SCORE.SYSTEM.DIHEDRAL>
0

>  <SCORE.SYSTEM.SOLV>
0

>  <SCORE.SYSTEM.norm>
0

>  <SCORE.heavy>
13

>  <SCORE.norm>
-0.802113

>  <RMSD>
7.294

$$$$
ligand
 OpenBabel11021811453D
libRbt.so/2013.1/901 2013/11/27
 13 12  0  0  0  0  0  0  0  0999 V2000
   35.4041   31.1055   43.0287 O   0  0  0  0  0  0  0  0  0  0  0  0
   37.4550   31.2487   45.2084 O   0  0  0  0  0  0  0  0  0  0  0  0
   31.4599   32.7840   43.8381 P   0  0  2  0  0  0  0  0  0  0  0  0
   31.8145   34.1111   43.2564 O   0  5  0  0  0  0  0  0  0  0  0  0
   31.1082   32.6921   45.2785 O   0  0  0  0  0  0  0  0  0  0  0  0
   32.6567   31.7753   43.5782 O   0  0  0  0  0  0  0  0  0  0  0  0
   35.9705   31.1334   47.6083 O   0  0  0  0  0  0  0  0  0  0  0  0
   33.1324   31.5192   42.2489 C   0  0  0  0  0  0  0  0  0  0  0  0
   37.7522   30.9562   43.8190 C   0  0  0  0  0  0  0  0  0  0  0  0
   37.2248   30.4733   47.5154 C   0  0  0  0  0  0  0  0  0  0  0  0
   34.3079   30.5283   42.2941 C   0  0  0  0  0  0  0  0  0  0  0  0
   36.5720   30.2424   43.1150 C   0  0  0  0  0  0  0  0  0  0  0  0
   37.4438   30.0693   46.0465 C   0  0  0  0  0  0  0  0  0  0  0  0
  1 12  1  0  0  0  0
  1 11  1  0  0  0  0
  2 13  1  0  0  0  0
  2  9  1  0  0  0  0
  3  4  1  1  0  0  0
  3  5  2  0  0  0  0
  3  6  1  0  0  0  0
  6  8  1  0  0  0  0
  7 10  1  0  0  0  0
  8 11  1  0  0  0  0
  9 12  1  0  0  0  0
 10 13  1  0  0  0  0
M  CHG  1   4  -1
M  END
>  <CHROM.1>
175.61704984,175.86669831,-56.53264852,178.94428084,-62.59001274,71.97926380
65.12986383,60.55770392,-179.46531792,34.48436245,31.57449686,44.34525091
-0.29205730,0.40561827,-1.67800657

>  <Name>
ligand

>  <RI>
0

>  <Rbt.Current_Directory>
/home/itssahil/PROJECTS/Mol_Feturizer/New_Systems/rnas/2NPY

>  <Rbt.Executable>
rbdock ($Id: //depot/dev/client3/rdock/2013.1/src/exe/rbdock.cxx#4 $)

>  <Rbt.Library>
libRbt.so (2013.1, Build901 2013/11/27)

>  <Rbt.Parameter_File>
/export/apps/rDock/src/rDock_2013.1_src/data/scripts/dock_solv.prm

>  <Rbt.Receptor>
prm/pocket_docking_5.prm

>  <SCORE>
-11.698

>  <SCORE.INTER>
1.59487

>  <SCORE.INTER.CONST>
1

>  <SCORE.INTER.POLAR>
0

>  <SCORE.INTER.ROT>
9

>  <SCORE.INTER.SOLV>
11.2356

>  <SCORE.INTER.VDW>
-12.282

>  <SCORE.INTER.norm>
0.122682

>  <SCORE.INTRA>
-13.2929

>  <SCORE.INTRA.DIHEDRAL>
-24.6543

>  <SCORE.INTRA.DIHEDRAL.0>
25.6828

>  <SCORE.INTRA.POLAR>
0

>  <SCORE.INTRA.POLAR.0>
0

>  <SCORE.INTRA.REPUL>
0

>  <SCORE.INTRA.REPUL.0>
0

>  <SCORE.INTRA.SOLV>
-0.998493

>  <SCORE.INTRA.SOLV.lig_0>
-48.5059

>  <SCORE.INTRA.VDW>
-0.466481

>  <SCORE.INTRA.VDW.0>
-0.363643

>  <SCORE.INTRA.norm>
-1.02253

>  <SCORE.RESTR>
0

>  <SCORE.RESTR.CAVITY>
0

>  <SCORE.RESTR.norm>
0

>  <SCORE.SYSTEM>
0

>  <SCORE.SYSTEM.CONST>
0

>  <SCORE.SYSTEM.DIHEDRAL>
0

>  <SCORE.SYSTEM.SOLV>
0

>  <SCORE.SYSTEM.norm>
0

>  <SCORE.heavy>
13

>  <SCORE.norm>
-0.899846

>  <RMSD>
7.323

$$$$
ligand
 OpenBabel11021811453D
libRbt.so/2013.1/901 2013/11/27
 13 12  0  0  0  0  0  0  0  0999 V2000
   35.0840   31.0419   43.1816 O   0  0  0  0  0  0  0  0  0  0  0  0
   36.8958   30.7574   45.4434 O   0  0  0  0  0  0  0  0  0  0  0  0
   31.1313   32.3596   44.4521 P   0  0  2  0  0  0  0  0  0  0  0  0
   30.3390   33.3148   43.6243 O   0  5  0  0  0  0  0  0  0  0  0  0
   31.2479   32.5888   45.9152 O   0  0  0  0  0  0  0  0  0  0  0  0
   32.6039   32.2758   43.8676 O   0  0  0  0  0  0  0  0  0  0  0  0
   37.3815   31.9090   47.9573 O   0  0  0  0  0  0  0  0  0  0  0  0
   32.8474   31.7726   42.5461 C   0  0  0  0  0  0  0  0  0  0  0  0
   37.2628   30.3054   44.1148 C   0  0  0  0  0  0  0  0  0  0  0  0
   37.0799   30.5238   47.8700 C   0  0  0  0  0  0  0  0  0  0  0  0
   34.3513   31.8361   42.2294 C   0  0  0  0  0  0  0  0  0  0  0  0
   36.5273   31.1039   43.0106 C   0  0  0  0  0  0  0  0  0  0  0  0
   37.5563   30.0174   46.4969 C   0  0  0  0  0  0  0  0  0  0  0  0
  1 12  1  0  0  0  0
  1 11  1  0  0  0  0
  2 13  1  0  0  0  0
  2  9  1  0  0  0  0
  3  4  1  6  0  0  0
  3  5  2  0  0  0  0
  3  6  1  0  0  0  0
  6  8  1  0  0  0  0
  7 10  1  0  0  0  0
  8 11  1  0  0  0  0
  9 12  1  0  0  0  0
 10 13  1  0  0  0  0
M  CHG  1   4  -1
M  END
>  <CHROM.1>
176.37536216,-178.11436279,-63.45609160,178.63685365,59.81816247,179.29936305
-56.13512562,-58.85228421,-176.55141256,34.31753026,31.61633657,44.67086636
-0.31595973,0.32448121,-1.65255582

>  <Name>
ligand

>  <RI>
0

>  <Rbt.Current_Directory>
/home/itssahil/PROJECTS/Mol_Feturizer/New_Systems/rnas/2NPY

>  <Rbt.Executable>
rbdock ($Id: //depot/dev/client3/rdock/2013.1/src/exe/rbdock.cxx#4 $)

>  <Rbt.Library>
libRbt.so (2013.1, Build901 2013/11/27)

>  <Rbt.Parameter_File>
/export/apps/rDock/src/rDock_2013.1_src/data/scripts/dock_solv.prm

>  <Rbt.Receptor>
prm/pocket_docking_4.prm

>  <SCORE>
-11.9863

>  <SCORE.INTER>
2.39928

>  <SCORE.INTER.CONST>
1

>  <SCORE.INTER.POLAR>
0

>  <SCORE.INTER.ROT>
9

>  <SCORE.INTER.SOLV>
12.6727

>  <SCORE.INTER.VDW>
-12.2247

>  <SCORE.INTER.norm>
0.18456

>  <SCORE.INTRA>
-14.3856

>  <SCORE.INTRA.DIHEDRAL>
-25.362

>  <SCORE.INTRA.DIHEDRAL.0>
25.6828

>  <SCORE.INTRA.POLAR>
0

>  <SCORE.INTRA.POLAR.0>
0

>  <SCORE.INTRA.REPUL>
0

>  <SCORE.INTRA.REPUL.0>
0

>  <SCORE.INTRA.SOLV>
-1.06516

>  <SCORE.INTRA.SOLV.lig_0>
-48.5059

>  <SCORE.INTRA.VDW>
-1.17199

>  <SCORE.INTRA.VDW.0>
-0.363643

>  <SCORE.INTRA.norm>
-1.10658

>  <SCORE.RESTR>
0

>  <SCORE.RESTR.CAVITY>
0

>  <SCORE.RESTR.norm>
0

>  <SCORE.SYSTEM>
0

>  <SCORE.SYSTEM.CONST>
0

>  <SCORE.SYSTEM.DIHEDRAL>
0

>  <SCORE.SYSTEM.SOLV>
0

>  <SCORE.SYSTEM.norm>
0

>  <SCORE.heavy>
13

>  <SCORE.norm>
-0.922022

>  <RMSD>
7.331

$$$$
ligand
 OpenBabel11021811453D
libRbt.so/2013.1/901 2013/11/27
 13 12  0  0  0  0  0  0  0  0999 V2000
   35.0775   31.0360   43.1867 O   0  0  0  0  0  0  0  0  0  0  0  0
   36.8759   30.7548   45.4654 O   0  0  0  0  0  0  0  0  0  0  0  0
   31.1169   32.3969   44.4524 P   0  0  2  0  0  0  0  0  0  0  0  0
   30.3041   33.3132   43.6007 O   0  5  0  0  0  0  0  0  0  0  0  0
   31.2378   32.6726   45.9071 O   0  0  0  0  0  0  0  0  0  0  0  0
   32.5875   32.3197   43.8619 O   0  0  0  0  0  0  0  0  0  0  0  0
   37.4177   31.8924   47.9901 O   0  0  0  0  0  0  0  0  0  0  0  0
   32.8348   31.7591   42.5644 C   0  0  0  0  0  0  0  0  0  0  0  0
   37.2625   30.3343   44.1320 C   0  0  0  0  0  0  0  0  0  0  0  0
   37.0828   30.5158   47.8896 C   0  0  0  0  0  0  0  0  0  0  0  0
   34.3367   31.8294   42.2400 C   0  0  0  0  0  0  0  0  0  0  0  0
   36.5208   31.1385   43.0362 C   0  0  0  0  0  0  0  0  0  0  0  0
   37.5452   30.0116   46.5109 C   0  0  0  0  0  0  0  0  0  0  0  0
  1 12  1  0  0  0  0
  1 11  1  0  0  0  0
  2 13  1  0  0  0  0
  2  9  1  0  0  0  0
  3  4  1  6  0  0  0
  3  5  2  0  0  0  0
  3  6  1  0  0  0  0
  6  8  1  0  0  0  0
  7 10  1  0  0  0  0
  8 11  1  0  0  0  0
  9 12  1  0  0  0  0
 10 13  1  0  0  0  0
M  CHG  1   4  -1
M  END
>  <CHROM.1>
176.55507830,179.99532040,-64.56027788,179.22326271,62.68254658,179.49114171
-56.63615007,-60.29628575,-174.65244495,34.30870164,31.63143056,44.67961568
-0.31816748,0.32900410,-1.65644232

>  <Name>
ligand

>  <RI>
0

>  <Rbt.Current_Directory>
/home/itssahil/PROJECTS/Mol_Feturizer/New_Systems/rnas/2NPY

>  <Rbt.Executable>
rbdock ($Id: //depot/dev/client3/rdock/2013.1/src/exe/rbdock.cxx#4 $)

>  <Rbt.Library>
libRbt.so (2013.1, Build901 2013/11/27)

>  <Rbt.Parameter_File>
/export/apps/rDock/src/rDock_2013.1_src/data/scripts/dock_solv.prm

>  <Rbt.Receptor>
prm/pocket_docking_4.prm

>  <SCORE>
-11.9011

>  <SCORE.INTER>
2.45644

>  <SCORE.INTER.CONST>
1

>  <SCORE.INTER.POLAR>
0

>  <SCORE.INTER.ROT>
9

>  <SCORE.INTER.SOLV>
12.5026

>  <SCORE.INTER.VDW>
-12.1299

>  <SCORE.INTER.norm>
0.188957

>  <SCORE.INTRA>
-14.3575

>  <SCORE.INTRA.DIHEDRAL>
-25.282

>  <SCORE.INTRA.DIHEDRAL.0>
25.6828

>  <SCORE.INTRA.POLAR>
0

>  <SCORE.INTRA.POLAR.0>
0

>  <SCORE.INTRA.REPUL>
0

>  <SCORE.INTRA.REPUL.0>
0

>  <SCORE.INTRA.SOLV>
-1.09303

>  <SCORE.INTRA.SOLV.lig_0>
-48.5059

>  <SCORE.INTRA.VDW>
-1.17

>  <SCORE.INTRA.VDW.0>
-0.363643

>  <SCORE.INTRA.norm>
-1.10442

>  <SCORE.RESTR>
0

>  <SCORE.RESTR.CAVITY>
0

>  <SCORE.RESTR.norm>
0

>  <SCORE.SYSTEM>
0

>  <SCORE.SYSTEM.CONST>
0

>  <SCORE.SYSTEM.DIHEDRAL>
0

>  <SCORE.SYSTEM.SOLV>
0

>  <SCORE.SYSTEM.norm>
0

>  <SCORE.heavy>
13

>  <SCORE.norm>
-0.915467

>  <RMSD>
7.332

$$$$
ligand
 OpenBabel11021811453D
libRbt.so/2013.1/901 2013/11/27
 13 12  0  0  0  0  0  0  0  0999 V2000
   36.7616   30.7453   47.1073 O   0  0  0  0  0  0  0  0  0  0  0  0
   36.5845   30.1533   44.2705 O   0  0  0  0  0  0  0  0  0  0  0  0
   32.9764   31.8849   49.1197 P   0  0  2  0  0  0  0  0  0  0  0  0
   31.9924   32.3766   48.1121 O   0  5  0  0  0  0  0  0  0  0  0  0
   33.1032   32.5947   50.4186 O   0  0  0  0  0  0  0  0  0  0  0  0
   34.4168   31.8538   48.4552 O   0  0  0  0  0  0  0  0  0  0  0  0
   34.9964   32.7127   42.1765 O   0  0  0  0  0  0  0  0  0  0  0  0
   35.5373   31.2818   49.1453 C   0  0  0  0  0  0  0  0  0  0  0  0
   37.8398   30.0345   44.9877 C   0  0  0  0  0  0  0  0  0  0  0  0
   35.0786   31.4765   42.8712 C   0  0  0  0  0  0  0  0  0  0  0  0
   36.8234   31.5025   48.3309 C   0  0  0  0  0  0  0  0  0  0  0  0
   37.8912   30.9720   46.2191 C   0  0  0  0  0  0  0  0  0  0  0  0
   36.4482   31.4122   43.5704 C   0  0  0  0  0  0  0  0  0  0  0  0
  1 12  1  0  0  0  0
  1 11  1  0  0  0  0
  2 13  1  0  0  0  0
  2  9  1  0  0  0  0
  3  4  1  6  0  0  0
  3  5  2  0  0  0  0
  3  6  1  0  0  0  0
  6  8  1  0  0  0  0
  7 10  1  0  0  0  0
  8 11  1  0  0  0  0
  9 12  1  0  0  0  0
 10 13  1  0  0  0  0
M  CHG  1   4  -1
M  END
>  <CHROM.1>
174.54762888,-178.37543086,-173.00620910,-174.76014760,-66.83492148,70.51792557
55.17763740,-178.87729518,175.46336100,35.17959774,31.51116396,46.74356069
-1.03525006,-0.37540543,1.62612793

>  <Name>
ligand

>  <RI>
0

>  <Rbt.Current_Directory>
/home/itssahil/PROJECTS/Mol_Feturizer/New_Systems/rnas/2NPY

>  <Rbt.Executable>
rbdock ($Id: //depot/dev/client3/rdock/2013.1/src/exe/rbdock.cxx#4 $)

>  <Rbt.Library>
libRbt.so (2013.1, Build901 2013/11/27)

>  <Rbt.Parameter_File>
/export/apps/rDock/src/rDock_2013.1_src/data/scripts/dock_solv.prm

>  <Rbt.Receptor>
prm/pocket_docking_4.prm

>  <SCORE>
-9.46012

>  <SCORE.INTER>
3.73599

>  <SCORE.INTER.CONST>
1

>  <SCORE.INTER.POLAR>
0

>  <SCORE.INTER.ROT>
9

>  <SCORE.INTER.SOLV>
7.04186

>  <SCORE.INTER.VDW>
-9.45662

>  <SCORE.INTER.norm>
0.287384

>  <SCORE.INTRA>
-13.2141

>  <SCORE.INTRA.DIHEDRAL>
-24.4561

>  <SCORE.INTRA.DIHEDRAL.0>
25.6828

>  <SCORE.INTRA.POLAR>
0

>  <SCORE.INTRA.POLAR.0>
0

>  <SCORE.INTRA.REPUL>
0

>  <SCORE.INTRA.REPUL.0>
0

>  <SCORE.INTRA.SOLV>
-1.24213

>  <SCORE.INTRA.SOLV.lig_0>
-48.5059

>  <SCORE.INTRA.VDW>
-0.364934

>  <SCORE.INTRA.VDW.0>
-0.363643

>  <SCORE.INTRA.norm>
-1.01647

>  <SCORE.RESTR>
0.0179584

>  <SCORE.RESTR.CAVITY>
0.0179584

>  <SCORE.RESTR.norm>
0.00138142

>  <SCORE.SYSTEM>
0

>  <SCORE.SYSTEM.CONST>
0

>  <SCORE.SYSTEM.DIHEDRAL>
0

>  <SCORE.SYSTEM.SOLV>
0

>  <SCORE.SYSTEM.norm>
0

>  <SCORE.heavy>
13

>  <SCORE.norm>
-0.727702

>  <RMSD>
7.344

$$$$
ligand
 OpenBabel11021811453D
libRbt.so/2013.1/901 2013/11/27
 13 12  0  0  0  0  0  0  0  0999 V2000
   33.8131   31.6168   43.1471 O   0  0  0  0  0  0  0  0  0  0  0  0
   36.4094   30.9847   44.2317 O   0  0  0  0  0  0  0  0  0  0  0  0
   30.1362   32.2324   45.3560 P   0  0  2  0  0  0  0  0  0  0  0  0
   28.9620   32.9381   44.7655 O   0  5  0  0  0  0  0  0  0  0  0  0
   30.8888   32.8749   46.4640 O   0  0  0  0  0  0  0  0  0  0  0  0
   31.1758   31.9140   44.2004 O   0  0  0  0  0  0  0  0  0  0  0  0
   38.3819   32.2216   45.8292 O   0  0  0  0  0  0  0  0  0  0  0  0
   31.8116   32.9702   43.4662 C   0  0  0  0  0  0  0  0  0  0  0  0
   35.8987   30.2730   43.0755 C   0  0  0  0  0  0  0  0  0  0  0  0
   37.7921   30.9992   46.2478 C   0  0  0  0  0  0  0  0  0  0  0  0
   32.8074   32.3796   42.4536 C   0  0  0  0  0  0  0  0  0  0  0  0
   34.8734   31.1209   42.2832 C   0  0  0  0  0  0  0  0  0  0  0  0
   37.3726   30.2167   44.9907 C   0  0  0  0  0  0  0  0  0  0  0  0
  1 12  1  0  0  0  0
  1 11  1  0  0  0  0
  2 13  1  0  0  0  0
  2  9  1  0  0  0  0
  3  4  1  6  0  0  0
  3  5  2  0  0  0  0
  3  6  1  0  0  0  0
  6  8  1  0  0  0  0
  7 10  1  0  0  0  0
  8 11  1  0  0  0  0
  9 12  1  0  0  0  0
 10 13  1  0  0  0  0
M  CHG  1   4  -1
M  END
>  <CHROM.1>
-178.21413789,-176.15461781,63.01698835,177.67105536,-59.99531646,-179.89560048
-52.99265949,-60.48849609,-174.56764720,33.53764551,31.80735355,44.45185458
0.04754938,0.20607913,-1.74498285

>  <Name>
ligand

>  <RI>
0

>  <Rbt.Current_Directory>
/home/itssahil/PROJECTS/Mol_Feturizer/New_Systems/rnas/2NPY

>  <Rbt.Executable>
rbdock ($Id: //depot/dev/client3/rdock/2013.1/src/exe/rbdock.cxx#4 $)

>  <Rbt.Library>
libRbt.so (2013.1, Build901 2013/11/27)

>  <Rbt.Parameter_File>
/export/apps/rDock/src/rDock_2013.1_src/data/scripts/dock_solv.prm

>  <Rbt.Receptor>
prm/pocket_docking_5.prm

>  <SCORE>
-11.3959

>  <SCORE.INTER>
2.64668

>  <SCORE.INTER.CONST>
1

>  <SCORE.INTER.POLAR>
0

>  <SCORE.INTER.ROT>
9

>  <SCORE.INTER.SOLV>
9.37154

>  <SCORE.INTER.VDW>
-10.9594

>  <SCORE.INTER.norm>
0.20359

>  <SCORE.INTRA>
-14.0425

>  <SCORE.INTRA.DIHEDRAL>
-25.2039

>  <SCORE.INTRA.DIHEDRAL.0>
25.6828

>  <SCORE.INTRA.POLAR>
0

>  <SCORE.INTRA.POLAR.0>
0

>  <SCORE.INTRA.REPUL>
0

>  <SCORE.INTRA.REPUL.0>
0

>  <SCORE.INTRA.SOLV>
-0.567246

>  <SCORE.INTRA.SOLV.lig_0>
-48.5059

>  <SCORE.INTRA.VDW>
-1.15693

>  <SCORE.INTRA.VDW.0>
-0.363643

>  <SCORE.INTRA.norm>
-1.08019

>  <SCORE.RESTR>
0

>  <SCORE.RESTR.CAVITY>
0

>  <SCORE.RESTR.norm>
0

>  <SCORE.SYSTEM>
0

>  <SCORE.SYSTEM.CONST>
0

>  <SCORE.SYSTEM.DIHEDRAL>
0

>  <SCORE.SYSTEM.SOLV>
0

>  <SCORE.SYSTEM.norm>
0

>  <SCORE.heavy>
13

>  <SCORE.norm>
-0.876604

>  <RMSD>
7.345

$$$$
ligand
 OpenBabel11021811453D
libRbt.so/2013.1/901 2013/11/27
 13 12  0  0  0  0  0  0  0  0999 V2000
   33.8723   31.7154   48.0510 O   0  0  0  0  0  0  0  0  0  0  0  0
   36.4193   30.2440   48.2269 O   0  0  0  0  0  0  0  0  0  0  0  0
   29.5392   32.4937   45.5503 P   0  0  2  0  0  0  0  0  0  0  0  0
   29.0107   33.6307   44.7421 O   0  5  0  0  0  0  0  0  0  0  0  0
   28.6876   31.8990   46.6124 O   0  0  0  0  0  0  0  0  0  0  0  0
   30.9015   32.9394   46.2306 O   0  0  0  0  0  0  0  0  0  0  0  0
   38.5992   30.3420   45.2779 O   0  0  0  0  0  0  0  0  0  0  0  0
   31.7634   31.9790   46.8581 C   0  0  0  0  0  0  0  0  0  0  0  0
   35.9934   31.1993   49.2321 C   0  0  0  0  0  0  0  0  0  0  0  0
   37.7082   29.7464   46.2100 C   0  0  0  0  0  0  0  0  0  0  0  0
   33.0070   32.6831   47.4271 C   0  0  0  0  0  0  0  0  0  0  0  0
   35.0732   32.2924   48.6353 C   0  0  0  0  0  0  0  0  0  0  0  0
   37.3251   30.8122   47.2521 C   0  0  0  0  0  0  0  0  0  0  0  0
  1 12  1  0  0  0  0
  1 11  1  0  0  0  0
  2 13  1  0  0  0  0
  2  9  1  0  0  0  0
  3  4  1  1  0  0  0
  3  5  2  0  0  0  0
  3  6  1  0  0  0  0
  6  8  1  0  0  0  0
  7 10  1  0  0  0  0
  8 11  1  0  0  0  0
  9 12  1  0  0  0  0
 10 13  1  0  0  0  0
M  CHG  1   4  -1
M  END
>  <CHROM.1>
-177.37363453,-178.96729868,-168.07632211,179.83130098,-179.75490436,68.66056088
59.90680088,-179.78556107,-179.29372912,33.30874259,31.76083612,46.81081071
0.14549240,-0.28380304,1.47363623

>  <Name>
ligand

>  <RI>
0

>  <Rbt.Current_Directory>
/home/itssahil/PROJECTS/Mol_Feturizer/New_Systems/rnas/2NPY

>  <Rbt.Executable>
rbdock ($Id: //depot/dev/client3/rdock/2013.1/src/exe/rbdock.cxx#4 $)

>  <Rbt.Library>
libRbt.so (2013.1, Build901 2013/11/27)

>  <Rbt.Parameter_File>
/export/apps/rDock/src/rDock_2013.1_src/data/scripts/dock_solv.prm

>  <Rbt.Receptor>
prm/pocket_docking_5.prm

>  <SCORE>
-11.7974

>  <SCORE.INTER>
1.657

>  <SCORE.INTER.CONST>
1

>  <SCORE.INTER.POLAR>
0

>  <SCORE.INTER.ROT>
9

>  <SCORE.INTER.SOLV>
8.24262

>  <SCORE.INTER.VDW>
-11.2429

>  <SCORE.INTER.norm>
0.127461

>  <SCORE.INTRA>
-13.4544

>  <SCORE.INTRA.DIHEDRAL>
-25.2

>  <SCORE.INTRA.DIHEDRAL.0>
25.6828

>  <SCORE.INTRA.POLAR>
0

>  <SCORE.INTRA.POLAR.0>
0

>  <SCORE.INTRA.REPUL>
0

>  <SCORE.INTRA.REPUL.0>
0

>  <SCORE.INTRA.SOLV>
-1.35793

>  <SCORE.INTRA.SOLV.lig_0>
-48.5059

>  <SCORE.INTRA.VDW>
-0.175479

>  <SCORE.INTRA.VDW.0>
-0.363643

>  <SCORE.INTRA.norm>
-1.03496

>  <SCORE.RESTR>
0

>  <SCORE.RESTR.CAVITY>
0

>  <SCORE.RESTR.norm>
0

>  <SCORE.SYSTEM>
0

>  <SCORE.SYSTEM.CONST>
0

>  <SCORE.SYSTEM.DIHEDRAL>
0

>  <SCORE.SYSTEM.SOLV>
0

>  <SCORE.SYSTEM.norm>
0

>  <SCORE.heavy>
13

>  <SCORE.norm>
-0.907495

>  <RMSD>
7.355

$$$$
ligand
 OpenBabel11021811453D
libRbt.so/2013.1/901 2013/11/27
 13 12  0  0  0  0  0  0  0  0999 V2000
   34.0884   31.1975   49.2742 O   0  0  0  0  0  0  0  0  0  0  0  0
   36.5659   31.0193   47.8332 O   0  0  0  0  0  0  0  0  0  0  0  0
   30.7260   31.7088   46.5284 P   0  0  2  0  0  0  0  0  0  0  0  0
   31.2030   32.2591   45.2265 O   0  5  0  0  0  0  0  0  0  0  0  0
   29.4267   32.1709   47.0808 O   0  0  0  0  0  0  0  0  0  0  0  0
   31.8322   31.9778   47.6336 O   0  0  0  0  0  0  0  0  0  0  0  0
   38.6639   29.7163   45.1213 O   0  0  0  0  0  0  0  0  0  0  0  0
   31.6857   31.4664   48.9662 C   0  0  0  0  0  0  0  0  0  0  0  0
   36.5533   30.9063   49.2794 C   0  0  0  0  0  0  0  0  0  0  0  0
   37.5515   30.3969   45.6843 C   0  0  0  0  0  0  0  0  0  0  0  0
   32.9162   31.8404   49.8099 C   0  0  0  0  0  0  0  0  0  0  0  0
   35.3298   31.6219   49.9029 C   0  0  0  0  0  0  0  0  0  0  0  0
   37.6476   30.2826   47.2162 C   0  0  0  0  0  0  0  0  0  0  0  0
  1 12  1  0  0  0  0
  1 11  1  0  0  0  0
  2 13  1  0  0  0  0
  2  9  1  0  0  0  0
  3  4  1  6  0  0  0
  3  5  2  0  0  0  0
  3  6  1  0  0  0  0
  6  8  1  0  0  0  0
  7 10  1  0  0  0  0
  8 11  1  0  0  0  0
  9 12  1  0  0  0  0
 10 13  1  0  0  0  0
M  CHG  1   4  -1
M  END
>  <CHROM.1>
-179.56714813,177.28010882,-175.30251141,178.36314594,-64.20978936,-176.01298376
51.59519670,177.24161418,172.73019312,33.86198499,31.31556138,47.53222011
-0.03805126,-0.21895847,1.47435916

>  <Name>
ligand

>  <RI>
0

>  <Rbt.Current_Directory>
/home/itssahil/PROJECTS/Mol_Feturizer/New_Systems/rnas/2NPY

>  <Rbt.Executable>
rbdock ($Id: //depot/dev/client3/rdock/2013.1/src/exe/rbdock.cxx#4 $)

>  <Rbt.Library>
libRbt.so (2013.1, Build901 2013/11/27)

>  <Rbt.Parameter_File>
/export/apps/rDock/src/rDock_2013.1_src/data/scripts/dock_solv.prm

>  <Rbt.Receptor>
prm/pocket_docking_6.prm

>  <SCORE>
-12.2888

>  <SCORE.INTER>
1.83691

>  <SCORE.INTER.CONST>
1

>  <SCORE.INTER.POLAR>
0

>  <SCORE.INTER.ROT>
9

>  <SCORE.INTER.SOLV>
10.704

>  <SCORE.INTER.VDW>
-11.9434

>  <SCORE.INTER.norm>
0.141301

>  <SCORE.INTRA>
-14.1257

>  <SCORE.INTRA.DIHEDRAL>
-24.9083

>  <SCORE.INTRA.DIHEDRAL.0>
25.6828

>  <SCORE.INTRA.POLAR>
0

>  <SCORE.INTRA.POLAR.0>
0

>  <SCORE.INTRA.REPUL>
0

>  <SCORE.INTRA.REPUL.0>
0

>  <SCORE.INTRA.SOLV>
-1.26739

>  <SCORE.INTRA.SOLV.lig_0>
-48.5059

>  <SCORE.INTRA.VDW>
-1.03786

>  <SCORE.INTRA.VDW.0>
-0.363643

>  <SCORE.INTRA.norm>
-1.08659

>  <SCORE.RESTR>
0

>  <SCORE.RESTR.CAVITY>
0

>  <SCORE.RESTR.norm>
0

>  <SCORE.SYSTEM>
0

>  <SCORE.SYSTEM.CONST>
0

>  <SCORE.SYSTEM.DIHEDRAL>
0

>  <SCORE.SYSTEM.SOLV>
0

>  <SCORE.SYSTEM.norm>
0

>  <SCORE.heavy>
13

>  <SCORE.norm>
-0.945291

>  <RMSD>
7.361

$$$$
ligand
 OpenBabel11021811453D
libRbt.so/2013.1/901 2013/11/27
 13 12  0  0  0  0  0  0  0  0999 V2000
   34.0893   31.8421   43.4332 O   0  0  0  0  0  0  0  0  0  0  0  0
   36.6559   30.6800   44.2938 O   0  0  0  0  0  0  0  0  0  0  0  0
   30.6447   33.8326   45.4077 P   0  0  2  0  0  0  0  0  0  0  0  0
   30.6811   35.3239   45.4182 O   0  5  0  0  0  0  0  0  0  0  0  0
   30.8832   33.0906   46.6724 O   0  0  0  0  0  0  0  0  0  0  0  0
   31.6953   33.3027   44.3433 O   0  0  0  0  0  0  0  0  0  0  0  0
   36.9988   30.1038   47.0577 O   0  0  0  0  0  0  0  0  0  0  0  0
   31.7063   31.9266   43.9370 C   0  0  0  0  0  0  0  0  0  0  0  0
   36.5518   31.6315   43.2038 C   0  0  0  0  0  0  0  0  0  0  0  0
   37.9675   29.6910   46.1044 C   0  0  0  0  0  0  0  0  0  0  0  0
   32.7772   31.7076   42.8548 C   0  0  0  0  0  0  0  0  0  0  0  0
   35.1722   31.5579   42.5043 C   0  0  0  0  0  0  0  0  0  0  0  0
   37.9503   30.6975   44.9402 C   0  0  0  0  0  0  0  0  0  0  0  0
  1 12  1  0  0  0  0
  1 11  1  0  0  0  0
  2 13  1  0  0  0  0
  2  9  1  0  0  0  0
  3  4  1  1  0  0  0
  3  5  2  0  0  0  0
  3  6  1  0  0  0  0
  6  8  1  0  0  0  0
  7 10  1  0  0  0  0
  8 11  1  0  0  0  0
  9 12  1  0  0  0  0
 10 13  1  0  0  0  0
M  CHG  1   4  -1
M  END
>  <CHROM.1>
-176.42309339,178.50936420,-168.30443309,177.37719691,69.36763525,178.20199552
59.82215963,-62.54717344,175.88293022,33.82052635,32.12830110,44.72329136
0.03231171,0.48175291,-1.57670356

>  <Name>
ligand

>  <RI>
0

>  <Rbt.Current_Directory>
/home/itssahil/PROJECTS/Mol_Feturizer/New_Systems/rnas/2NPY

>  <Rbt.Executable>
rbdock ($Id: //depot/dev/client3/rdock/2013.1/src/exe/rbdock.cxx#4 $)

>  <Rbt.Library>
libRbt.so (2013.1, Build901 2013/11/27)

>  <Rbt.Parameter_File>
/export/apps/rDock/src/rDock_2013.1_src/data/scripts/dock_solv.prm

>  <Rbt.Receptor>
prm/pocket_docking_4.prm

>  <SCORE>
-10.2438

>  <SCORE.INTER>
3.96599

>  <SCORE.INTER.CONST>
1

>  <SCORE.INTER.POLAR>
0

>  <SCORE.INTER.ROT>
9

>  <SCORE.INTER.SOLV>
6.01656

>  <SCORE.INTER.VDW>
-8.96153

>  <SCORE.INTER.norm>
0.305076

>  <SCORE.INTRA>
-14.2116

>  <SCORE.INTRA.DIHEDRAL>
-25.0521

>  <SCORE.INTRA.DIHEDRAL.0>
25.6828

>  <SCORE.INTRA.POLAR>
0

>  <SCORE.INTRA.POLAR.0>
0

>  <SCORE.INTRA.REPUL>
0

>  <SCORE.INTRA.REPUL.0>
0

>  <SCORE.INTRA.SOLV>
-1.12944

>  <SCORE.INTRA.SOLV.lig_0>
-48.5059

>  <SCORE.INTRA.VDW>
-1.12081

>  <SCORE.INTRA.VDW.0>
-0.363643

>  <SCORE.INTRA.norm>
-1.0932

>  <SCORE.RESTR>
0.00183122

>  <SCORE.RESTR.CAVITY>
0.00183122

>  <SCORE.RESTR.norm>
0.000140863

>  <SCORE.SYSTEM>
0

>  <SCORE.SYSTEM.CONST>
0

>  <SCORE.SYSTEM.DIHEDRAL>
0

>  <SCORE.SYSTEM.SOLV>
0

>  <SCORE.SYSTEM.norm>
0

>  <SCORE.heavy>
13

>  <SCORE.norm>
-0.787983

>  <RMSD>
7.373

$$$$
ligand
 OpenBabel11021811453D
libRbt.so/2013.1/901 2013/11/27
 13 12  0  0  0  0  0  0  0  0999 V2000
   33.6603   32.6614   42.7728 O   0  0  0  0  0  0  0  0  0  0  0  0
   36.0504   31.2860   43.7024 O   0  0  0  0  0  0  0  0  0  0  0  0
   29.4188   32.3962   45.5250 P   0  0  2  0  0  0  0  0  0  0  0  0
   30.0726   32.6636   46.8389 O   0  5  0  0  0  0  0  0  0  0  0  0
   28.2527   31.4777   45.4668 O   0  0  0  0  0  0  0  0  0  0  0  0
   30.5091   31.8410   44.5148 O   0  0  0  0  0  0  0  0  0  0  0  0
   38.2282   29.6921   46.1872 O   0  0  0  0  0  0  0  0  0  0  0  0
   31.6483   32.6326   44.1480 C   0  0  0  0  0  0  0  0  0  0  0  0
   35.3279   30.8397   42.5264 C   0  0  0  0  0  0  0  0  0  0  0  0
   37.4622   30.7474   45.6243 C   0  0  0  0  0  0  0  0  0  0  0  0
   32.5279   31.8567   43.1529 C   0  0  0  0  0  0  0  0  0  0  0  0
   34.5643   32.0011   41.8438 C   0  0  0  0  0  0  0  0  0  0  0  0
   36.8584   30.2453   44.3006 C   0  0  0  0  0  0  0  0  0  0  0  0
  1 12  1  0  0  0  0
  1 11  1  0  0  0  0
  2 13  1  0  0  0  0
  2  9  1  0  0  0  0
  3  4  1  1  0  0  0
  3  5  2  0  0  0  0
  3  6  1  0  0  0  0
  6  8  1  0  0  0  0
  7 10  1  0  0  0  0
  8 11  1  0  0  0  0
  9 12  1  0  0  0  0
 10 13  1  0  0  0  0
M  CHG  1   4  -1
M  END
>  <CHROM.1>
-69.73269012,-173.58796507,-61.43857715,-179.53672569,179.20396032,-175.40401117
-55.93502692,179.10344827,179.17617213,33.07187517,31.63361115,44.47950253
0.07769005,0.23426545,-1.33590739

>  <Name>
ligand

>  <RI>
0

>  <Rbt.Current_Directory>
/home/itssahil/PROJECTS/Mol_Feturizer/New_Systems/rnas/2NPY

>  <Rbt.Executable>
rbdock ($Id: //depot/dev/client3/rdock/2013.1/src/exe/rbdock.cxx#4 $)

>  <Rbt.Library>
libRbt.so (2013.1, Build901 2013/11/27)

>  <Rbt.Parameter_File>
/export/apps/rDock/src/rDock_2013.1_src/data/scripts/dock_solv.prm

>  <Rbt.Receptor>
prm/pocket_docking_6.prm

>  <SCORE>
-10.5629

>  <SCORE.INTER>
2.77371

>  <SCORE.INTER.CONST>
1

>  <SCORE.INTER.POLAR>
0

>  <SCORE.INTER.ROT>
9

>  <SCORE.INTER.SOLV>
10.7027

>  <SCORE.INTER.VDW>
-11.3184

>  <SCORE.INTER.norm>
0.213362

>  <SCORE.INTRA>
-13.3366

>  <SCORE.INTRA.DIHEDRAL>
-24.7731

>  <SCORE.INTRA.DIHEDRAL.0>
25.6828

>  <SCORE.INTRA.POLAR>
0

>  <SCORE.INTRA.POLAR.0>
0

>  <SCORE.INTRA.REPUL>
0

>  <SCORE.INTRA.REPUL.0>
0

>  <SCORE.INTRA.SOLV>
-1.37342

>  <SCORE.INTRA.SOLV.lig_0>
-48.5059

>  <SCORE.INTRA.VDW>
-0.263294

>  <SCORE.INTRA.VDW.0>
-0.363643

>  <SCORE.INTRA.norm>
-1.02589

>  <SCORE.RESTR>
0

>  <SCORE.RESTR.CAVITY>
0

>  <SCORE.RESTR.norm>
0

>  <SCORE.SYSTEM>
0

>  <SCORE.SYSTEM.CONST>
0

>  <SCORE.SYSTEM.DIHEDRAL>
0

>  <SCORE.SYSTEM.SOLV>
0

>  <SCORE.SYSTEM.norm>
0

>  <SCORE.heavy>
13

>  <SCORE.norm>
-0.812528

>  <RMSD>
7.375

$$$$
ligand
 OpenBabel11021811453D
libRbt.so/2013.1/901 2013/11/27
 13 12  0  0  0  0  0  0  0  0999 V2000
   32.3664   31.6248   43.6861 O   0  0  0  0  0  0  0  0  0  0  0  0
   35.2638   31.1009   43.2484 O   0  0  0  0  0  0  0  0  0  0  0  0
   28.2844   33.2865   44.6414 P   0  0  2  0  0  0  0  0  0  0  0  0
   27.8302   34.6960   44.4617 O   0  5  0  0  0  0  0  0  0  0  0  0
   27.3593   32.2966   45.2508 O   0  0  0  0  0  0  0  0  0  0  0  0
   29.6153   33.2841   45.5051 O   0  0  0  0  0  0  0  0  0  0  0  0
   36.8816   30.4711   45.4689 O   0  0  0  0  0  0  0  0  0  0  0  0
   30.6476   32.3156   45.2699 C   0  0  0  0  0  0  0  0  0  0  0  0
   34.2335   30.8048   42.2711 C   0  0  0  0  0  0  0  0  0  0  0  0
   37.4716   30.6293   44.1865 C   0  0  0  0  0  0  0  0  0  0  0  0
   31.2759   32.5443   43.8847 C   0  0  0  0  0  0  0  0  0  0  0  0
   33.0260   31.7660   42.3972 C   0  0  0  0  0  0  0  0  0  0  0  0
   36.4230   30.2434   43.1280 C   0  0  0  0  0  0  0  0  0  0  0  0
  1 12  1  0  0  0  0
  1 11  1  0  0  0  0
  2 13  1  0  0  0  0
  2  9  1  0  0  0  0
  3  4  1  1  0  0  0
  3  5  2  0  0  0  0
  3  6  1  0  0  0  0
  6  8  1  0  0  0  0
  7 10  1  0  0  0  0
  8 11  1  0  0  0  0
  9 12  1  0  0  0  0
 10 13  1  0  0  0  0
M  CHG  1   4  -1
M  END
>  <CHROM.1>
177.01610456,179.43165677,-145.78794672,66.31427627,176.43409111,-178.24862419
-63.08910882,59.98412857,179.99687487,31.98752559,32.05481028,44.17831657
0.14158681,0.32373483,-1.60767374

>  <Name>
ligand

>  <RI>
0

>  <Rbt.Current_Directory>
/home/itssahil/PROJECTS/Mol_Feturizer/New_Systems/rnas/2NPY

>  <Rbt.Executable>
rbdock ($Id: //depot/dev/client3/rdock/2013.1/src/exe/rbdock.cxx#4 $)

>  <Rbt.Library>
libRbt.so (2013.1, Build901 2013/11/27)

>  <Rbt.Parameter_File>
/export/apps/rDock/src/rDock_2013.1_src/data/scripts/dock_solv.prm

>  <Rbt.Receptor>
prm/pocket_docking_5.prm

>  <SCORE>
-10.3659

>  <SCORE.INTER>
2.75604

>  <SCORE.INTER.CONST>
1

>  <SCORE.INTER.POLAR>
0

>  <SCORE.INTER.ROT>
9

>  <SCORE.INTER.SOLV>
10.6197

>  <SCORE.INTER.VDW>
-11.3025

>  <SCORE.INTER.norm>
0.212003

>  <SCORE.INTRA>
-13.1219

>  <SCORE.INTRA.DIHEDRAL>
-24.583

>  <SCORE.INTRA.DIHEDRAL.0>
25.6828

>  <SCORE.INTRA.POLAR>
0

>  <SCORE.INTRA.POLAR.0>
0

>  <SCORE.INTRA.REPUL>
0

>  <SCORE.INTRA.REPUL.0>
0

>  <SCORE.INTRA.SOLV>
-0.0921137

>  <SCORE.INTRA.SOLV.lig_0>
-48.5059

>  <SCORE.INTRA.VDW>
-0.784399

>  <SCORE.INTRA.VDW.0>
-0.363643

>  <SCORE.INTRA.norm>
-1.00938

>  <SCORE.RESTR>
0

>  <SCORE.RESTR.CAVITY>
0

>  <SCORE.RESTR.norm>
0

>  <SCORE.SYSTEM>
0

>  <SCORE.SYSTEM.CONST>
0

>  <SCORE.SYSTEM.DIHEDRAL>
0

>  <SCORE.SYSTEM.SOLV>
0

>  <SCORE.SYSTEM.norm>
0

>  <SCORE.heavy>
13

>  <SCORE.norm>
-0.797376

>  <RMSD>
7.376

$$$$
ligand
 OpenBabel11021811453D
libRbt.so/2013.1/901 2013/11/27
 13 12  0  0  0  0  0  0  0  0999 V2000
   32.4572   31.4546   42.7254 O   0  0  0  0  0  0  0  0  0  0  0  0
   35.3581   31.0673   43.2519 O   0  0  0  0  0  0  0  0  0  0  0  0
   29.1394   32.6029   45.3193 P   0  0  2  0  0  0  0  0  0  0  0  0
   27.9595   33.0560   44.5270 O   0  5  0  0  0  0  0  0  0  0  0  0
   29.4752   33.3005   46.5871 O   0  0  0  0  0  0  0  0  0  0  0  0
   30.4276   32.6563   44.3945 O   0  0  0  0  0  0  0  0  0  0  0  0
   38.1479   29.9949   45.3785 O   0  0  0  0  0  0  0  0  0  0  0  0
   31.7155   32.2732   44.8979 C   0  0  0  0  0  0  0  0  0  0  0  0
   34.6699   30.5222   42.0971 C   0  0  0  0  0  0  0  0  0  0  0  0
   37.0896   30.8466   44.9635 C   0  0  0  0  0  0  0  0  0  0  0  0
   32.7686   32.3824   43.7821 C   0  0  0  0  0  0  0  0  0  0  0  0
   33.4646   31.3990   41.6773 C   0  0  0  0  0  0  0  0  0  0  0  0
   36.4735   30.2533   43.6839 C   0  0  0  0  0  0  0  0  0  0  0  0
  1 12  1  0  0  0  0
  1 11  1  0  0  0  0
  2 13  1  0  0  0  0
  2  9  1  0  0  0  0
  3  4  1  6  0  0  0
  3  5  2  0  0  0  0
  3  6  1  0  0  0  0
  6  8  1  0  0  0  0
  7 10  1  0  0  0  0
  8 11  1  0  0  0  0
  9 12  1  0  0  0  0
 10 13  1  0  0  0  0
M  CHG  1   4  -1
M  END
>  <CHROM.1>
79.86538047,-176.25084703,179.96317099,178.33675400,-63.48199769,178.80706020
-62.76205961,178.01191287,-174.78993229,32.66085731,31.76557828,44.21806661
0.19392091,0.28519091,-1.70795016

>  <Name>
ligand

>  <RI>
0

>  <Rbt.Current_Directory>
/home/itssahil/PROJECTS/Mol_Feturizer/New_Systems/rnas/2NPY

>  <Rbt.Executable>
rbdock ($Id: //depot/dev/client3/rdock/2013.1/src/exe/rbdock.cxx#4 $)

>  <Rbt.Library>
libRbt.so (2013.1, Build901 2013/11/27)

>  <Rbt.Parameter_File>
/export/apps/rDock/src/rDock_2013.1_src/data/scripts/dock_solv.prm

>  <Rbt.Receptor>
prm/pocket_docking_6.prm

>  <SCORE>
-10.4963

>  <SCORE.INTER>
2.35751

>  <SCORE.INTER.CONST>
1

>  <SCORE.INTER.POLAR>
0

>  <SCORE.INTER.ROT>
9

>  <SCORE.INTER.SOLV>
11.0937

>  <SCORE.INTER.VDW>
-11.7262

>  <SCORE.INTER.norm>
0.181347

>  <SCORE.INTRA>
-12.8538

>  <SCORE.INTRA.DIHEDRAL>
-23.5342

>  <SCORE.INTRA.DIHEDRAL.0>
25.6828

>  <SCORE.INTRA.POLAR>
0

>  <SCORE.INTRA.POLAR.0>
0

>  <SCORE.INTRA.REPUL>
0

>  <SCORE.INTRA.REPUL.0>
0

>  <SCORE.INTRA.SOLV>
-1.07398

>  <SCORE.INTRA.SOLV.lig_0>
-48.5059

>  <SCORE.INTRA.VDW>
-0.54969

>  <SCORE.INTRA.VDW.0>
-0.363643

>  <SCORE.INTRA.norm>
-0.988752

>  <SCORE.RESTR>
0

>  <SCORE.RESTR.CAVITY>
0

>  <SCORE.RESTR.norm>
0

>  <SCORE.SYSTEM>
0

>  <SCORE.SYSTEM.CONST>
0

>  <SCORE.SYSTEM.DIHEDRAL>
0

>  <SCORE.SYSTEM.SOLV>
0

>  <SCORE.SYSTEM.norm>
0

>  <SCORE.heavy>
13

>  <SCORE.norm>
-0.807405

>  <RMSD>
7.382

$$$$
ligand
 OpenBabel11021811453D
libRbt.so/2013.1/901 2013/11/27
 13 12  0  0  0  0  0  0  0  0999 V2000
   33.7299   31.5270   43.2588 O   0  0  0  0  0  0  0  0  0  0  0  0
   36.4218   30.9861   44.1540 O   0  0  0  0  0  0  0  0  0  0  0  0
   29.3078   33.7188   44.3789 P   0  0  2  0  0  0  0  0  0  0  0  0
   29.8349   34.7874   45.2765 O   0  5  0  0  0  0  0  0  0  0  0  0
   28.7135   32.4953   44.9763 O   0  0  0  0  0  0  0  0  0  0  0  0
   30.4681   33.2526   43.4024 O   0  0  0  0  0  0  0  0  0  0  0  0
   36.7571   30.5794   46.9355 O   0  0  0  0  0  0  0  0  0  0  0  0
   31.5777   32.4827   43.8871 C   0  0  0  0  0  0  0  0  0  0  0  0
   35.9583   30.5070   42.8656 C   0  0  0  0  0  0  0  0  0  0  0  0
   37.8901   30.7212   46.0907 C   0  0  0  0  0  0  0  0  0  0  0  0
   32.6237   32.3106   42.7725 C   0  0  0  0  0  0  0  0  0  0  0  0
   34.8157   31.3863   42.3008 C   0  0  0  0  0  0  0  0  0  0  0  0
   37.5111   30.2007   44.6927 C   0  0  0  0  0  0  0  0  0  0  0  0
  1 12  1  0  0  0  0
  1 11  1  0  0  0  0
  2 13  1  0  0  0  0
  2  9  1  0  0  0  0
  3  4  1  1  0  0  0
  3  5  2  0  0  0  0
  3  6  1  0  0  0  0
  6  8  1  0  0  0  0
  7 10  1  0  0  0  0
  8 11  1  0  0  0  0
  9 12  1  0  0  0  0
 10 13  1  0  0  0  0
M  CHG  1   4  -1
M  END
>  <CHROM.1>
-178.60112351,-176.79194100,71.43928849,-173.48251885,-179.46891666,-178.68292776
-53.46052925,61.23448658,-176.04371273,33.12337834,32.08374564,44.26659458
-0.01088916,0.38294400,-1.68797650

>  <Name>
ligand

>  <RI>
0

>  <Rbt.Current_Directory>
/home/itssahil/PROJECTS/Mol_Feturizer/New_Systems/rnas/2NPY

>  <Rbt.Executable>
rbdock ($Id: //depot/dev/client3/rdock/2013.1/src/exe/rbdock.cxx#4 $)

>  <Rbt.Library>
libRbt.so (2013.1, Build901 2013/11/27)

>  <Rbt.Parameter_File>
/export/apps/rDock/src/rDock_2013.1_src/data/scripts/dock_solv.prm

>  <Rbt.Receptor>
prm/pocket_docking_4.prm

>  <SCORE>
-10.6058

>  <SCORE.INTER>
3.29245

>  <SCORE.INTER.CONST>
1

>  <SCORE.INTER.POLAR>
0

>  <SCORE.INTER.ROT>
9

>  <SCORE.INTER.SOLV>
9.68393

>  <SCORE.INTER.VDW>
-10.633

>  <SCORE.INTER.norm>
0.253265

>  <SCORE.INTRA>
-13.8983

>  <SCORE.INTRA.DIHEDRAL>
-25.0921

>  <SCORE.INTRA.DIHEDRAL.0>
25.6828

>  <SCORE.INTRA.POLAR>
0

>  <SCORE.INTRA.POLAR.0>
0

>  <SCORE.INTRA.REPUL>
0

>  <SCORE.INTRA.REPUL.0>
0

>  <SCORE.INTRA.SOLV>
-0.704464

>  <SCORE.INTRA.SOLV.lig_0>
-48.5059

>  <SCORE.INTRA.VDW>
-0.999988

>  <SCORE.INTRA.VDW.0>
-0.363643

>  <SCORE.INTRA.norm>
-1.0691

>  <SCORE.RESTR>
0

>  <SCORE.RESTR.CAVITY>
0

>  <SCORE.RESTR.norm>
0

>  <SCORE.SYSTEM>
0

>  <SCORE.SYSTEM.CONST>
0

>  <SCORE.SYSTEM.DIHEDRAL>
0

>  <SCORE.SYSTEM.SOLV>
0

>  <SCORE.SYSTEM.norm>
0

>  <SCORE.heavy>
13

>  <SCORE.norm>
-0.815833

>  <RMSD>
7.406

$$$$
ligand
 OpenBabel11021811453D
libRbt.so/2013.1/901 2013/11/27
 13 12  0  0  0  0  0  0  0  0999 V2000
   33.0788   32.0906   41.7360 O   0  0  0  0  0  0  0  0  0  0  0  0
   35.5870   30.8471   42.8044 O   0  0  0  0  0  0  0  0  0  0  0  0
   30.1740   32.4077   45.8685 P   0  0  2  0  0  0  0  0  0  0  0  0
   30.2601   31.7992   47.2279 O   0  5  0  0  0  0  0  0  0  0  0  0
   28.8888   32.3487   45.1258 O   0  0  0  0  0  0  0  0  0  0  0  0
   31.2850   31.7536   44.9439 O   0  0  0  0  0  0  0  0  0  0  0  0
   38.3361   30.4689   45.2037 O   0  0  0  0  0  0  0  0  0  0  0  0
   31.6830   32.3753   43.7135 C   0  0  0  0  0  0  0  0  0  0  0  0
   35.4464   31.3953   41.4688 C   0  0  0  0  0  0  0  0  0  0  0  0
   36.9982   30.3583   44.7399 C   0  0  0  0  0  0  0  0  0  0  0  0
   32.7705   31.5316   43.0270 C   0  0  0  0  0  0  0  0  0  0  0  0
   33.9929   31.2785   40.9477 C   0  0  0  0  0  0  0  0  0  0  0  0
   36.9392   30.9307   43.3124 C   0  0  0  0  0  0  0  0  0  0  0  0
  1 12  1  0  0  0  0
  1 11  1  0  0  0  0
  2 13  1  0  0  0  0
  2  9  1  0  0  0  0
  3  4  1  1  0  0  0
  3  5  2  0  0  0  0
  3  6  1  0  0  0  0
  6  8  1  0  0  0  0
  7 10  1  0  0  0  0
  8 11  1  0  0  0  0
  9 12  1  0  0  0  0
 10 13  1  0  0  0  0
M  CHG  1   4  -1
M  END
>  <CHROM.1>
-75.11088375,178.79259024,-163.03514811,179.90734981,174.70423625,179.42600442
65.15204316,-179.53897696,-173.66611129,33.19573589,31.58141679,44.05346462
0.31744455,0.23433896,-1.49185468

>  <Name>
ligand

>  <RI>
0

>  <Rbt.Current_Directory>
/home/itssahil/PROJECTS/Mol_Feturizer/New_Systems/rnas/2NPY

>  <Rbt.Executable>
rbdock ($Id: //depot/dev/client3/rdock/2013.1/src/exe/rbdock.cxx#4 $)

>  <Rbt.Library>
libRbt.so (2013.1, Build901 2013/11/27)

>  <Rbt.Parameter_File>
/export/apps/rDock/src/rDock_2013.1_src/data/scripts/dock_solv.prm

>  <Rbt.Receptor>
prm/pocket_docking_4.prm

>  <SCORE>
-8.93542

>  <SCORE.INTER>
4.00637

>  <SCORE.INTER.CONST>
1

>  <SCORE.INTER.POLAR>
0

>  <SCORE.INTER.ROT>
9

>  <SCORE.INTER.SOLV>
9.58543

>  <SCORE.INTER.VDW>
-10.1242

>  <SCORE.INTER.norm>
0.308182

>  <SCORE.INTRA>
-12.9418

>  <SCORE.INTRA.DIHEDRAL>
-24.0314

>  <SCORE.INTRA.DIHEDRAL.0>
25.6828

>  <SCORE.INTRA.POLAR>
0

>  <SCORE.INTRA.POLAR.0>
0

>  <SCORE.INTRA.REPUL>
0

>  <SCORE.INTRA.REPUL.0>
0

>  <SCORE.INTRA.SOLV>
-1.2984

>  <SCORE.INTRA.SOLV.lig_0>
-48.5059

>  <SCORE.INTRA.VDW>
-0.27691

>  <SCORE.INTRA.VDW.0>
-0.363643

>  <SCORE.INTRA.norm>
-0.995522

>  <SCORE.RESTR>
0

>  <SCORE.RESTR.CAVITY>
0

>  <SCORE.RESTR.norm>
0

>  <SCORE.SYSTEM>
0

>  <SCORE.SYSTEM.CONST>
0

>  <SCORE.SYSTEM.DIHEDRAL>
0

>  <SCORE.SYSTEM.SOLV>
0

>  <SCORE.SYSTEM.norm>
0

>  <SCORE.heavy>
13

>  <SCORE.norm>
-0.68734

>  <RMSD>
7.415

$$$$
ligand
 OpenBabel11021811453D
libRbt.so/2013.1/901 2013/11/27
 13 12  0  0  0  0  0  0  0  0999 V2000
   33.5462   31.6826   43.1357 O   0  0  0  0  0  0  0  0  0  0  0  0
   36.2251   31.0089   43.9891 O   0  0  0  0  0  0  0  0  0  0  0  0
   29.8578   32.5399   45.4026 P   0  0  2  0  0  0  0  0  0  0  0  0
   30.6048   33.0994   46.5664 O   0  5  0  0  0  0  0  0  0  0  0  0
   28.9673   31.3682   45.6056 O   0  0  0  0  0  0  0  0  0  0  0  0
   30.8955   32.1540   44.2662 O   0  0  0  0  0  0  0  0  0  0  0  0
   38.7950   30.2743   46.5017 O   0  0  0  0  0  0  0  0  0  0  0  0
   31.6641   33.1619   43.5936 C   0  0  0  0  0  0  0  0  0  0  0  0
   35.5728   30.2648   42.9283 C   0  0  0  0  0  0  0  0  0  0  0  0
   37.8279   31.0720   45.8340 C   0  0  0  0  0  0  0  0  0  0  0  0
   32.5481   32.5143   42.5141 C   0  0  0  0  0  0  0  0  0  0  0  0
   34.5048   31.1166   42.1992 C   0  0  0  0  0  0  0  0  0  0  0  0
   37.2370   30.2406   44.6814 C   0  0  0  0  0  0  0  0  0  0  0  0
  1 12  1  0  0  0  0
  1 11  1  0  0  0  0
  2 13  1  0  0  0  0
  2  9  1  0  0  0  0
  3  4  1  1  0  0  0
  3  5  2  0  0  0  0
  3  6  1  0  0  0  0
  6  8  1  0  0  0  0
  7 10  1  0  0  0  0
  8 11  1  0  0  0  0
  9 12  1  0  0  0  0
 10 13  1  0  0  0  0
M  CHG  1   4  -1
M  END
>  <CHROM.1>
178.48152855,-177.07405126,-65.83086043,-178.09702020,-66.54108317,-179.51490015
-53.81755586,178.86809663,-174.98611628,33.37173890,31.65523403,44.51591376
0.03408416,0.24654150,-1.57546963

>  <Name>
ligand

>  <RI>
0

>  <Rbt.Current_Directory>
/home/itssahil/PROJECTS/Mol_Feturizer/New_Systems/rnas/2NPY

>  <Rbt.Executable>
rbdock ($Id: //depot/dev/client3/rdock/2013.1/src/exe/rbdock.cxx#4 $)

>  <Rbt.Library>
libRbt.so (2013.1, Build901 2013/11/27)

>  <Rbt.Parameter_File>
/export/apps/rDock/src/rDock_2013.1_src/data/scripts/dock_solv.prm

>  <Rbt.Receptor>
prm/pocket_docking_5.prm

>  <SCORE>
-11.0407

>  <SCORE.INTER>
3.26885

>  <SCORE.INTER.CONST>
1

>  <SCORE.INTER.POLAR>
0

>  <SCORE.INTER.ROT>
9

>  <SCORE.INTER.SOLV>
10.5076

>  <SCORE.INTER.VDW>
-10.9233

>  <SCORE.INTER.norm>
0.25145

>  <SCORE.INTRA>
-14.3095

>  <SCORE.INTRA.DIHEDRAL>
-25.0241

>  <SCORE.INTRA.DIHEDRAL.0>
25.6828

>  <SCORE.INTRA.POLAR>
0

>  <SCORE.INTRA.POLAR.0>
0

>  <SCORE.INTRA.REPUL>
0

>  <SCORE.INTRA.REPUL.0>
0

>  <SCORE.INTRA.SOLV>
-1.39041

>  <SCORE.INTRA.SOLV.lig_0>
-48.5059

>  <SCORE.INTRA.VDW>
-1.10222

>  <SCORE.INTRA.VDW.0>
-0.363643

>  <SCORE.INTRA.norm>
-1.10073

>  <SCORE.RESTR>
0

>  <SCORE.RESTR.CAVITY>
0

>  <SCORE.RESTR.norm>
0

>  <SCORE.SYSTEM>
0

>  <SCORE.SYSTEM.CONST>
0

>  <SCORE.SYSTEM.DIHEDRAL>
0

>  <SCORE.SYSTEM.SOLV>
0

>  <SCORE.SYSTEM.norm>
0

>  <SCORE.heavy>
13

>  <SCORE.norm>
-0.849281

>  <RMSD>
7.431

$$$$
ligand
 OpenBabel11021811453D
libRbt.so/2013.1/901 2013/11/27
 13 12  0  0  0  0  0  0  0  0999 V2000
   36.3765   30.2253   44.2187 O   0  0  0  0  0  0  0  0  0  0  0  0
   36.7765   30.8402   47.0197 O   0  0  0  0  0  0  0  0  0  0  0  0
   33.4219   31.1345   40.2173 P   0  0  2  0  0  0  0  0  0  0  0  0
   33.5773   30.8854   38.7547 O   0  5  0  0  0  0  0  0  0  0  0  0
   32.9493   32.4639   40.6823 O   0  0  0  0  0  0  0  0  0  0  0  0
   34.8075   30.8475   40.9351 O   0  0  0  0  0  0  0  0  0  0  0  0
   35.9616   32.8369   48.8600 O   0  0  0  0  0  0  0  0  0  0  0  0
   34.8633   30.5208   42.3311 C   0  0  0  0  0  0  0  0  0  0  0  0
   37.7096   29.9946   46.2996 C   0  0  0  0  0  0  0  0  0  0  0  0
   35.7084   31.4652   49.1281 C   0  0  0  0  0  0  0  0  0  0  0  0
   36.3272   30.4743   42.8010 C   0  0  0  0  0  0  0  0  0  0  0  0
   37.7153   30.3042   44.7823 C   0  0  0  0  0  0  0  0  0  0  0  0
   36.8137   30.6349   48.4515 C   0  0  0  0  0  0  0  0  0  0  0  0
  1 12  1  0  0  0  0
  1 11  1  0  0  0  0
  2 13  1  0  0  0  0
  2  9  1  0  0  0  0
  3  4  1  6  0  0  0
  3  5  2  0  0  0  0
  3  6  1  0  0  0  0
  6  8  1  0  0  0  0
  7 10  1  0  0  0  0
  8 11  1  0  0  0  0
  9 12  1  0  0  0  0
 10 13  1  0  0  0  0
M  CHG  1   4  -1
M  END
>  <CHROM.1>
-178.63714111,-174.63056787,-156.81952433,-172.65876379,176.58459300,-176.14365407
-54.30278313,-61.64851130,-173.84562099,35.40954736,31.00566512,43.82825076
-1.12895103,0.61326190,-1.83688519

>  <Name>
ligand

>  <RI>
0

>  <Rbt.Current_Directory>
/home/itssahil/PROJECTS/Mol_Feturizer/New_Systems/rnas/2NPY

>  <Rbt.Executable>
rbdock ($Id: //depot/dev/client3/rdock/2013.1/src/exe/rbdock.cxx#4 $)

>  <Rbt.Library>
libRbt.so (2013.1, Build901 2013/11/27)

>  <Rbt.Parameter_File>
/export/apps/rDock/src/rDock_2013.1_src/data/scripts/dock_solv.prm

>  <Rbt.Receptor>
prm/pocket_docking_6.prm

>  <SCORE>
-12.3161

>  <SCORE.INTER>
1.58125

>  <SCORE.INTER.CONST>
1

>  <SCORE.INTER.POLAR>
0

>  <SCORE.INTER.ROT>
9

>  <SCORE.INTER.SOLV>
11.3953

>  <SCORE.INTER.VDW>
-12.3443

>  <SCORE.INTER.norm>
0.121635

>  <SCORE.INTRA>
-13.8974

>  <SCORE.INTRA.DIHEDRAL>
-24.4884

>  <SCORE.INTRA.DIHEDRAL.0>
25.6828

>  <SCORE.INTRA.POLAR>
0

>  <SCORE.INTRA.POLAR.0>
0

>  <SCORE.INTRA.REPUL>
0

>  <SCORE.INTRA.REPUL.0>
0

>  <SCORE.INTRA.SOLV>
-1.20896

>  <SCORE.INTRA.SOLV.lig_0>
-48.5059

>  <SCORE.INTRA.VDW>
-1.04869

>  <SCORE.INTRA.VDW.0>
-0.363643

>  <SCORE.INTRA.norm>
-1.06903

>  <SCORE.RESTR>
0

>  <SCORE.RESTR.CAVITY>
0

>  <SCORE.RESTR.norm>
0

>  <SCORE.SYSTEM>
0

>  <SCORE.SYSTEM.CONST>
0

>  <SCORE.SYSTEM.DIHEDRAL>
0

>  <SCORE.SYSTEM.SOLV>
0

>  <SCORE.SYSTEM.norm>
0

>  <SCORE.heavy>
13

>  <SCORE.norm>
-0.947395

>  <RMSD>
7.432

$$$$
ligand
 OpenBabel11021811453D
libRbt.so/2013.1/901 2013/11/27
 13 12  0  0  0  0  0  0  0  0999 V2000
   33.3907   31.5839   43.2803 O   0  0  0  0  0  0  0  0  0  0  0  0
   36.1711   31.0387   43.9237 O   0  0  0  0  0  0  0  0  0  0  0  0
   28.9993   33.6086   44.7797 P   0  0  2  0  0  0  0  0  0  0  0  0
   28.5233   32.3311   45.3852 O   0  5  0  0  0  0  0  0  0  0  0  0
   28.0225   34.5018   44.1052 O   0  0  0  0  0  0  0  0  0  0  0  0
   30.1443   33.2823   43.7309 O   0  0  0  0  0  0  0  0  0  0  0  0
   36.8169   30.6669   46.6537 O   0  0  0  0  0  0  0  0  0  0  0  0
   31.3002   32.5218   44.1110 C   0  0  0  0  0  0  0  0  0  0  0  0
   35.5790   30.5767   42.6826 C   0  0  0  0  0  0  0  0  0  0  0  0
   37.8480   30.7705   45.6823 C   0  0  0  0  0  0  0  0  0  0  0  0
   32.2815   32.4332   42.9299 C   0  0  0  0  0  0  0  0  0  0  0  0
   34.3990   31.4751   42.2373 C   0  0  0  0  0  0  0  0  0  0  0  0
   37.3000   30.2383   44.3461 C   0  0  0  0  0  0  0  0  0  0  0  0
  1 12  1  0  0  0  0
  1 11  1  0  0  0  0
  2 13  1  0  0  0  0
  2  9  1  0  0  0  0
  3  4  1  6  0  0  0
  3  5  2  0  0  0  0
  3  6  1  0  0  0  0
  6  8  1  0  0  0  0
  7 10  1  0  0  0  0
  8 11  1  0  0  0  0
  9 12  1  0  0  0  0
 10 13  1  0  0  0  0
M  CHG  1   4  -1
M  END
>  <CHROM.1>
178.72941190,-178.64123645,-54.55508040,-176.42995011,-175.56870265,-178.45327316
-55.42048362,61.12223218,-178.01725569,32.75076774,32.07772898,44.21412814
-0.01590865,0.34496052,-1.56690828

>  <Name>
ligand

>  <RI>
0

>  <Rbt.Current_Directory>
/home/itssahil/PROJECTS/Mol_Feturizer/New_Systems/rnas/2NPY

>  <Rbt.Executable>
rbdock ($Id: //depot/dev/client3/rdock/2013.1/src/exe/rbdock.cxx#4 $)

>  <Rbt.Library>
libRbt.so (2013.1, Build901 2013/11/27)

>  <Rbt.Parameter_File>
/export/apps/rDock/src/rDock_2013.1_src/data/scripts/dock_solv.prm

>  <Rbt.Receptor>
prm/pocket_docking_4.prm

>  <SCORE>
-11.1351

>  <SCORE.INTER>
3.11916

>  <SCORE.INTER.CONST>
1

>  <SCORE.INTER.POLAR>
0

>  <SCORE.INTER.ROT>
9

>  <SCORE.INTER.SOLV>
9.04708

>  <SCORE.INTER.VDW>
-10.5363

>  <SCORE.INTER.norm>
0.239936

>  <SCORE.INTRA>
-14.2543

>  <SCORE.INTRA.DIHEDRAL>
-25.3847

>  <SCORE.INTRA.DIHEDRAL.0>
25.6828

>  <SCORE.INTRA.POLAR>
0

>  <SCORE.INTRA.POLAR.0>
0

>  <SCORE.INTRA.REPUL>
0

>  <SCORE.INTRA.REPUL.0>
0

>  <SCORE.INTRA.SOLV>
-1.16055

>  <SCORE.INTRA.SOLV.lig_0>
-48.5059

>  <SCORE.INTRA.VDW>
-0.981641

>  <SCORE.INTRA.VDW.0>
-0.363643

>  <SCORE.INTRA.norm>
-1.09648

>  <SCORE.RESTR>
0

>  <SCORE.RESTR.CAVITY>
0

>  <SCORE.RESTR.norm>
0

>  <SCORE.SYSTEM>
0

>  <SCORE.SYSTEM.CONST>
0

>  <SCORE.SYSTEM.DIHEDRAL>
0

>  <SCORE.SYSTEM.SOLV>
0

>  <SCORE.SYSTEM.norm>
0

>  <SCORE.heavy>
13

>  <SCORE.norm>
-0.856547

>  <RMSD>
7.434

$$$$
ligand
 OpenBabel11021811453D
libRbt.so/2013.1/901 2013/11/27
 13 12  0  0  0  0  0  0  0  0999 V2000
   35.4787   31.3721   48.5820 O   0  0  0  0  0  0  0  0  0  0  0  0
   36.8650   30.5223   46.2374 O   0  0  0  0  0  0  0  0  0  0  0  0
   31.7931   33.6453   48.5105 P   0  0  2  0  0  0  0  0  0  0  0  0
   32.0458   34.8084   47.6112 O   0  5  0  0  0  0  0  0  0  0  0  0
   31.0144   33.8477   49.7593 O   0  0  0  0  0  0  0  0  0  0  0  0
   33.1851   33.0034   48.9198 O   0  0  0  0  0  0  0  0  0  0  0  0
   35.6690   31.2728   43.7514 O   0  0  0  0  0  0  0  0  0  0  0  0
   33.2514   31.6998   49.5157 C   0  0  0  0  0  0  0  0  0  0  0  0
   37.6196   30.9743   47.3909 C   0  0  0  0  0  0  0  0  0  0  0  0
   36.6896   30.2868   43.8104 C   0  0  0  0  0  0  0  0  0  0  0  0
   34.7161   31.3281   49.8030 C   0  0  0  0  0  0  0  0  0  0  0  0
   36.8161   30.8130   48.7048 C   0  0  0  0  0  0  0  0  0  0  0  0
   37.6077   30.6209   44.9996 C   0  0  0  0  0  0  0  0  0  0  0  0
  1 12  1  0  0  0  0
  1 11  1  0  0  0  0
  2 13  1  0  0  0  0
  2  9  1  0  0  0  0
  3  4  1  1  0  0  0
  3  5  2  0  0  0  0
  3  6  1  0  0  0  0
  6  8  1  0  0  0  0
  7 10  1  0  0  0  0
  8 11  1  0  0  0  0
  9 12  1  0  0  0  0
 10 13  1  0  0  0  0
M  CHG  1   4  -1
M  END
>  <CHROM.1>
-176.15823500,-173.20961146,-165.31020418,179.78778276,-57.83899430,-178.11472391
-49.45663914,64.04015517,-169.83410533,34.53956668,32.03856475,47.58619623
-0.49959870,-0.57726638,1.66037412

>  <Name>
ligand

>  <RI>
0

>  <Rbt.Current_Directory>
/home/itssahil/PROJECTS/Mol_Feturizer/New_Systems/rnas/2NPY

>  <Rbt.Executable>
rbdock ($Id: //depot/dev/client3/rdock/2013.1/src/exe/rbdock.cxx#4 $)

>  <Rbt.Library>
libRbt.so (2013.1, Build901 2013/11/27)

>  <Rbt.Parameter_File>
/export/apps/rDock/src/rDock_2013.1_src/data/scripts/dock_solv.prm

>  <Rbt.Receptor>
prm/pocket_docking_7.prm

>  <SCORE>
-10.8806

>  <SCORE.INTER>
2.92067

>  <SCORE.INTER.CONST>
1

>  <SCORE.INTER.POLAR>
0

>  <SCORE.INTER.ROT>
9

>  <SCORE.INTER.SOLV>
5.04468

>  <SCORE.INTER.VDW>
-9.33445

>  <SCORE.INTER.norm>
0.224667

>  <SCORE.INTRA>
-13.8012

>  <SCORE.INTRA.DIHEDRAL>
-24.2574

>  <SCORE.INTRA.DIHEDRAL.0>
25.6828

>  <SCORE.INTRA.POLAR>
0

>  <SCORE.INTRA.POLAR.0>
0

>  <SCORE.INTRA.REPUL>
0

>  <SCORE.INTRA.REPUL.0>
0

>  <SCORE.INTRA.SOLV>
-1.02844

>  <SCORE.INTRA.SOLV.lig_0>
-48.5059

>  <SCORE.INTRA.VDW>
-1.1583

>  <SCORE.INTRA.VDW.0>
-0.363643

>  <SCORE.INTRA.norm>
-1.06163

>  <SCORE.RESTR>
0

>  <SCORE.RESTR.CAVITY>
0

>  <SCORE.RESTR.norm>
0

>  <SCORE.SYSTEM>
0

>  <SCORE.SYSTEM.CONST>
0

>  <SCORE.SYSTEM.DIHEDRAL>
0

>  <SCORE.SYSTEM.SOLV>
0

>  <SCORE.SYSTEM.norm>
0

>  <SCORE.heavy>
13

>  <SCORE.norm>
-0.836967

>  <RMSD>
7.435

$$$$
ligand
 OpenBabel11021811453D
libRbt.so/2013.1/901 2013/11/27
 13 12  0  0  0  0  0  0  0  0999 V2000
   34.9058   31.6945   48.0106 O   0  0  0  0  0  0  0  0  0  0  0  0
   37.2213   30.8013   46.5860 O   0  0  0  0  0  0  0  0  0  0  0  0
   30.9881   31.8397   46.2640 P   0  0  2  0  0  0  0  0  0  0  0  0
   31.4913   32.4834   45.0159 O   0  5  0  0  0  0  0  0  0  0  0  0
   29.8362   32.4451   46.9807 O   0  0  0  0  0  0  0  0  0  0  0  0
   32.1843   31.7282   47.3003 O   0  0  0  0  0  0  0  0  0  0  0  0
   38.8876   31.5365   44.4059 O   0  0  0  0  0  0  0  0  0  0  0  0
   32.7951   32.9029   47.8535 C   0  0  0  0  0  0  0  0  0  0  0  0
   37.0096   30.3785   47.9573 C   0  0  0  0  0  0  0  0  0  0  0  0
   38.1176   30.3440   44.3579 C   0  0  0  0  0  0  0  0  0  0  0  0
   33.9764   32.5050   48.7547 C   0  0  0  0  0  0  0  0  0  0  0  0
   36.1250   31.3803   48.7395 C   0  0  0  0  0  0  0  0  0  0  0  0
   37.9463   29.8283   45.7979 C   0  0  0  0  0  0  0  0  0  0  0  0
  1 12  1  0  0  0  0
  1 11  1  0  0  0  0
  2 13  1  0  0  0  0
  2  9  1  0  0  0  0
  3  4  1  6  0  0  0
  3  5  2  0  0  0  0
  3  6  1  0  0  0  0
  6  8  1  0  0  0  0
  7 10  1  0  0  0  0
  8 11  1  0  0  0  0
  9 12  1  0  0  0  0
 10 13  1  0  0  0  0
M  CHG  1   4  -1
M  END
>  <CHROM.1>
173.48308630,179.47118322,65.19358213,-176.51116219,55.52691412,-174.92836675
50.43624110,62.21241394,174.12817727,34.39329174,31.56747719,46.70863834
-0.13799966,-0.21159081,1.49500274

>  <Name>
ligand

>  <RI>
0

>  <Rbt.Current_Directory>
/home/itssahil/PROJECTS/Mol_Feturizer/New_Systems/rnas/2NPY

>  <Rbt.Executable>
rbdock ($Id: //depot/dev/client3/rdock/2013.1/src/exe/rbdock.cxx#4 $)

>  <Rbt.Library>
libRbt.so (2013.1, Build901 2013/11/27)

>  <Rbt.Parameter_File>
/export/apps/rDock/src/rDock_2013.1_src/data/scripts/dock_solv.prm

>  <Rbt.Receptor>
prm/pocket_docking_7.prm

>  <SCORE>
-11.1838

>  <SCORE.INTER>
2.54178

>  <SCORE.INTER.CONST>
1

>  <SCORE.INTER.POLAR>
0

>  <SCORE.INTER.ROT>
9

>  <SCORE.INTER.SOLV>
8.63199

>  <SCORE.INTER.VDW>
-10.7828

>  <SCORE.INTER.norm>
0.195521

>  <SCORE.INTRA>
-13.7255

>  <SCORE.INTRA.DIHEDRAL>
-24.6569

>  <SCORE.INTRA.DIHEDRAL.0>
25.6828

>  <SCORE.INTRA.POLAR>
0

>  <SCORE.INTRA.POLAR.0>
0

>  <SCORE.INTRA.REPUL>
0

>  <SCORE.INTRA.REPUL.0>
0

>  <SCORE.INTRA.SOLV>
-0.529304

>  <SCORE.INTRA.SOLV.lig_0>
-48.5059

>  <SCORE.INTRA.VDW>
-1.13244

>  <SCORE.INTRA.VDW.0>
-0.363643

>  <SCORE.INTRA.norm>
-1.05581

>  <SCORE.RESTR>
0

>  <SCORE.RESTR.CAVITY>
0

>  <SCORE.RESTR.norm>
0

>  <SCORE.SYSTEM>
0

>  <SCORE.SYSTEM.CONST>
0

>  <SCORE.SYSTEM.DIHEDRAL>
0

>  <SCORE.SYSTEM.SOLV>
0

>  <SCORE.SYSTEM.norm>
0

>  <SCORE.heavy>
13

>  <SCORE.norm>
-0.860289

>  <RMSD>
7.439

$$$$
ligand
 OpenBabel11021811453D
libRbt.so/2013.1/901 2013/11/27
 13 12  0  0  0  0  0  0  0  0999 V2000
   33.4463   31.8922   48.5825 O   0  0  0  0  0  0  0  0  0  0  0  0
   36.8981   30.8476   49.6548 O   0  0  0  0  0  0  0  0  0  0  0  0
   30.3699   32.2367   45.6022 P   0  0  2  0  0  0  0  0  0  0  0  0
   31.0064   33.4935   45.1117 O   0  5  0  0  0  0  0  0  0  0  0  0
   28.9312   32.2468   45.9723 O   0  0  0  0  0  0  0  0  0  0  0  0
   31.1787   31.7117   46.8622 O   0  0  0  0  0  0  0  0  0  0  0  0
   39.2475   31.0420   51.2005 O   0  0  0  0  0  0  0  0  0  0  0  0
   31.1053   32.3917   48.1236 C   0  0  0  0  0  0  0  0  0  0  0  0
   35.8707   31.4055   48.7960 C   0  0  0  0  0  0  0  0  0  0  0  0
   39.2413   30.2533   50.0193 C   0  0  0  0  0  0  0  0  0  0  0  0
   32.1115   31.7760   49.1108 C   0  0  0  0  0  0  0  0  0  0  0  0
   34.4751   31.3652   49.4657 C   0  0  0  0  0  0  0  0  0  0  0  0
   38.2115   30.8571   49.0478 C   0  0  0  0  0  0  0  0  0  0  0  0
  1 12  1  0  0  0  0
  1 11  1  0  0  0  0
  2 13  1  0  0  0  0
  2  9  1  0  0  0  0
  3  4  1  1  0  0  0
  3  5  2  0  0  0  0
  3  6  1  0  0  0  0
  6  8  1  0  0  0  0
  7 10  1  0  0  0  0
  8 11  1  0  0  0  0
  9 12  1  0  0  0  0
 10 13  1  0  0  0  0
M  CHG  1   4  -1
M  END
>  <CHROM.1>
175.09309268,179.91549656,71.71598074,-173.11203890,59.63947585,179.28590767
-178.40204216,-60.02302080,178.53077584,33.68406251,31.71416015,48.03759925
2.65802621,0.10719810,-1.39130488

>  <Name>
ligand

>  <RI>
0

>  <Rbt.Current_Directory>
/home/itssahil/PROJECTS/Mol_Feturizer/New_Systems/rnas/2NPY

>  <Rbt.Executable>
rbdock ($Id: //depot/dev/client3/rdock/2013.1/src/exe/rbdock.cxx#4 $)

>  <Rbt.Library>
libRbt.so (2013.1, Build901 2013/11/27)

>  <Rbt.Parameter_File>
/export/apps/rDock/src/rDock_2013.1_src/data/scripts/dock_solv.prm

>  <Rbt.Receptor>
prm/pocket_docking_8.prm

>  <SCORE>
-11.651

>  <SCORE.INTER>
2.32554

>  <SCORE.INTER.CONST>
1

>  <SCORE.INTER.POLAR>
0

>  <SCORE.INTER.ROT>
9

>  <SCORE.INTER.SOLV>
6.86428

>  <SCORE.INTER.VDW>
-10.3377

>  <SCORE.INTER.norm>
0.178888

>  <SCORE.INTRA>
-13.9766

>  <SCORE.INTRA.DIHEDRAL>
-25.2358

>  <SCORE.INTRA.DIHEDRAL.0>
25.6828

>  <SCORE.INTRA.POLAR>
0

>  <SCORE.INTRA.POLAR.0>
0

>  <SCORE.INTRA.REPUL>
0

>  <SCORE.INTRA.REPUL.0>
0

>  <SCORE.INTRA.SOLV>
-0.706842

>  <SCORE.INTRA.SOLV.lig_0>
-48.5059

>  <SCORE.INTRA.VDW>
-1.00524

>  <SCORE.INTRA.VDW.0>
-0.363643

>  <SCORE.INTRA.norm>
-1.07512

>  <SCORE.RESTR>
0

>  <SCORE.RESTR.CAVITY>
0

>  <SCORE.RESTR.norm>
0

>  <SCORE.SYSTEM>
0

>  <SCORE.SYSTEM.CONST>
0

>  <SCORE.SYSTEM.DIHEDRAL>
0

>  <SCORE.SYSTEM.SOLV>
0

>  <SCORE.SYSTEM.norm>
0

>  <SCORE.heavy>
13

>  <SCORE.norm>
-0.896233

>  <RMSD>
7.448

$$$$
ligand
 OpenBabel11021811453D
libRbt.so/2013.1/901 2013/11/27
 13 12  0  0  0  0  0  0  0  0999 V2000
   35.7659   30.9917   48.1693 O   0  0  0  0  0  0  0  0  0  0  0  0
   36.8639   30.9448   45.4975 O   0  0  0  0  0  0  0  0  0  0  0  0
   31.9897   33.1028   48.5161 P   0  0  2  0  0  0  0  0  0  0  0  0
   31.1485   31.8895   48.3025 O   0  5  0  0  0  0  0  0  0  0  0  0
   31.9159   34.2198   47.5394 O   0  0  0  0  0  0  0  0  0  0  0  0
   33.5101   32.6603   48.6145 O   0  0  0  0  0  0  0  0  0  0  0  0
   36.4573   30.6156   41.8667 O   0  0  0  0  0  0  0  0  0  0  0  0
   33.9452   31.7265   49.6134 C   0  0  0  0  0  0  0  0  0  0  0  0
   37.4396   30.1309   46.5513 C   0  0  0  0  0  0  0  0  0  0  0  0
   36.3043   31.2353   43.1355 C   0  0  0  0  0  0  0  0  0  0  0  0
   35.4596   31.4894   49.4857 C   0  0  0  0  0  0  0  0  0  0  0  0
   37.1816   30.7358   47.9532 C   0  0  0  0  0  0  0  0  0  0  0  0
   37.0224   30.3643   44.1817 C   0  0  0  0  0  0  0  0  0  0  0  0
  1 12  1  0  0  0  0
  1 11  1  0  0  0  0
  2 13  1  0  0  0  0
  2  9  1  0  0  0  0
  3  4  1  6  0  0  0
  3  5  2  0  0  0  0
  3  6  1  0  0  0  0
  6  8  1  0  0  0  0
  7 10  1  0  0  0  0
  8 11  1  0  0  0  0
  9 12  1  0  0  0  0
 10 13  1  0  0  0  0
M  CHG  1   4  -1
M  END
>  <CHROM.1>
176.87965477,176.13478157,-58.42482484,-179.52392801,-58.48706938,-176.64055632
53.57431246,-178.65883524,-179.97974828,34.71810492,31.69065766,46.99838520
-0.72993557,-0.46133970,1.58700877

>  <Name>
ligand

>  <RI>
0

>  <Rbt.Current_Directory>
/home/itssahil/PROJECTS/Mol_Feturizer/New_Systems/rnas/2NPY

>  <Rbt.Executable>
rbdock ($Id: //depot/dev/client3/rdock/2013.1/src/exe/rbdock.cxx#4 $)

>  <Rbt.Library>
libRbt.so (2013.1, Build901 2013/11/27)

>  <Rbt.Parameter_File>
/export/apps/rDock/src/rDock_2013.1_src/data/scripts/dock_solv.prm

>  <Rbt.Receptor>
prm/pocket_docking_4.prm

>  <SCORE>
-11.7863

>  <SCORE.INTER>
2.58171

>  <SCORE.INTER.CONST>
1

>  <SCORE.INTER.POLAR>
0

>  <SCORE.INTER.ROT>
9

>  <SCORE.INTER.SOLV>
5.2558

>  <SCORE.INTER.VDW>
-9.6308

>  <SCORE.INTER.norm>
0.198593

>  <SCORE.INTRA>
-14.368

>  <SCORE.INTRA.DIHEDRAL>
-25.2913

>  <SCORE.INTRA.DIHEDRAL.0>
25.6828

>  <SCORE.INTRA.POLAR>
0

>  <SCORE.INTRA.POLAR.0>
0

>  <SCORE.INTRA.REPUL>
0

>  <SCORE.INTRA.REPUL.0>
0

>  <SCORE.INTRA.SOLV>
-1.28784

>  <SCORE.INTRA.SOLV.lig_0>
-48.5059

>  <SCORE.INTRA.VDW>
-1.07842

>  <SCORE.INTRA.VDW.0>
-0.363643

>  <SCORE.INTRA.norm>
-1.10523

>  <SCORE.RESTR>
0

>  <SCORE.RESTR.CAVITY>
0

>  <SCORE.RESTR.norm>
0

>  <SCORE.SYSTEM>
0

>  <SCORE.SYSTEM.CONST>
0

>  <SCORE.SYSTEM.DIHEDRAL>
0

>  <SCORE.SYSTEM.SOLV>
0

>  <SCORE.SYSTEM.norm>
0

>  <SCORE.heavy>
13

>  <SCORE.norm>
-0.906639

>  <RMSD>
7.479

$$$$
ligand
 OpenBabel11021811453D
libRbt.so/2013.1/901 2013/11/27
 13 12  0  0  0  0  0  0  0  0999 V2000
   36.6759   30.1858   44.6757 O   0  0  0  0  0  0  0  0  0  0  0  0
   34.5768   31.2779   42.8702 O   0  0  0  0  0  0  0  0  0  0  0  0
   36.1425   31.0901   48.8840 P   0  0  2  0  0  0  0  0  0  0  0  0
   34.8394   31.8108   48.9735 O   0  5  0  0  0  0  0  0  0  0  0  0
   37.3052   31.5909   49.6613 O   0  0  0  0  0  0  0  0  0  0  0  0
   36.5854   31.0211   47.3620 O   0  0  0  0  0  0  0  0  0  0  0  0
   34.0895   30.6068   40.0588 O   0  0  0  0  0  0  0  0  0  0  0  0
   37.6021   30.1060   46.9286 C   0  0  0  0  0  0  0  0  0  0  0  0
   35.5093   30.2355   42.4854 C   0  0  0  0  0  0  0  0  0  0  0  0
   33.3462   31.5793   40.7794 C   0  0  0  0  0  0  0  0  0  0  0  0
   37.8940   30.3159   45.4331 C   0  0  0  0  0  0  0  0  0  0  0  0
   36.8548   30.3576   43.2422 C   0  0  0  0  0  0  0  0  0  0  0  0
   33.2772   31.1332   42.2508 C   0  0  0  0  0  0  0  0  0  0  0  0
  1 12  1  0  0  0  0
  1 11  1  0  0  0  0
  2 13  1  0  0  0  0
  2  9  1  0  0  0  0
  3  4  1  6  0  0  0
  3  5  2  0  0  0  0
  3  6  1  0  0  0  0
  6  8  1  0  0  0  0
  7 10  1  0  0  0  0
  8 11  1  0  0  0  0
  9 12  1  0  0  0  0
 10 13  1  0  0  0  0
M  CHG  1   4  -1
M  END
>  <CHROM.1>
-178.84887084,-76.12520128,-163.79032705,-176.32056166,-55.71741219,-175.82656578
63.04573185,71.08731549,-179.49481451,35.77406171,30.89963297,45.25273102
-1.89223615,-0.37786537,1.40906106

>  <Name>
ligand

>  <RI>
0

>  <Rbt.Current_Directory>
/home/itssahil/PROJECTS/Mol_Feturizer/New_Systems/rnas/2NPY

>  <Rbt.Executable>
rbdock ($Id: //depot/dev/client3/rdock/2013.1/src/exe/rbdock.cxx#4 $)

>  <Rbt.Library>
libRbt.so (2013.1, Build901 2013/11/27)

>  <Rbt.Parameter_File>
/export/apps/rDock/src/rDock_2013.1_src/data/scripts/dock_solv.prm

>  <Rbt.Receptor>
prm/pocket_docking_7.prm

>  <SCORE>
-11.2007

>  <SCORE.INTER>
1.03134

>  <SCORE.INTER.CONST>
1

>  <SCORE.INTER.POLAR>
0

>  <SCORE.INTER.ROT>
9

>  <SCORE.INTER.SOLV>
15.3062

>  <SCORE.INTER.VDW>
-14.0145

>  <SCORE.INTER.norm>
0.0793339

>  <SCORE.INTRA>
-12.232

>  <SCORE.INTRA.DIHEDRAL>
-23.6038

>  <SCORE.INTRA.DIHEDRAL.0>
25.6828

>  <SCORE.INTRA.POLAR>
0

>  <SCORE.INTRA.POLAR.0>
0

>  <SCORE.INTRA.REPUL>
0

>  <SCORE.INTRA.REPUL.0>
0

>  <SCORE.INTRA.SOLV>
-0.768887

>  <SCORE.INTRA.SOLV.lig_0>
-48.5059

>  <SCORE.INTRA.VDW>
-0.0457168

>  <SCORE.INTRA.VDW.0>
-0.363643

>  <SCORE.INTRA.norm>
-0.940927

>  <SCORE.RESTR>
0

>  <SCORE.RESTR.CAVITY>
0

>  <SCORE.RESTR.norm>
0

>  <SCORE.SYSTEM>
0

>  <SCORE.SYSTEM.CONST>
0

>  <SCORE.SYSTEM.DIHEDRAL>
0

>  <SCORE.SYSTEM.SOLV>
0

>  <SCORE.SYSTEM.norm>
0

>  <SCORE.heavy>
13

>  <SCORE.norm>
-0.861593

>  <RMSD>
7.483

$$$$
ligand
 OpenBabel11021811453D
libRbt.so/2013.1/901 2013/11/27
 13 12  0  0  0  0  0  0  0  0999 V2000
   32.8711   32.7556   43.6897 O   0  0  0  0  0  0  0  0  0  0  0  0
   35.2933   31.3741   43.0443 O   0  0  0  0  0  0  0  0  0  0  0  0
   28.8557   32.1795   45.4435 P   0  0  2  0  0  0  0  0  0  0  0  0
   27.7707   33.0715   44.9409 O   0  5  0  0  0  0  0  0  0  0  0  0
   28.9042   31.8365   46.8881 O   0  0  0  0  0  0  0  0  0  0  0  0
   30.2584   32.8146   45.0608 O   0  0  0  0  0  0  0  0  0  0  0  0
   38.5083   29.8503   43.9376 O   0  0  0  0  0  0  0  0  0  0  0  0
   30.5027   33.3283   43.7435 C   0  0  0  0  0  0  0  0  0  0  0  0
   34.0268   30.8923   42.5265 C   0  0  0  0  0  0  0  0  0  0  0  0
   37.5635   30.9044   43.8205 C   0  0  0  0  0  0  0  0  0  0  0  0
   31.9439   33.8568   43.6454 C   0  0  0  0  0  0  0  0  0  0  0  0
   32.9730   32.0233   42.4368 C   0  0  0  0  0  0  0  0  0  0  0  0
   36.2708   30.3221   43.2214 C   0  0  0  0  0  0  0  0  0  0  0  0
  1 12  1  0  0  0  0
  1 11  1  0  0  0  0
  2 13  1  0  0  0  0
  2  9  1  0  0  0  0
  3  4  1  1  0  0  0
  3  5  2  0  0  0  0
  3  6  1  0  0  0  0
  6  8  1  0  0  0  0
  7 10  1  0  0  0  0
  8 11  1  0  0  0  0
  9 12  1  0  0  0  0
 10 13  1  0  0  0  0
M  CHG  1   4  -1
M  END
>  <CHROM.1>
177.54480791,-177.91569458,-45.79476770,-178.97505150,69.63814461,176.20968346
-50.50336306,-178.15606405,77.31842581,32.40986532,31.95909748,44.17564696
0.06127463,0.33267190,-0.97917846

>  <Name>
ligand

>  <RI>
0

>  <Rbt.Current_Directory>
/home/itssahil/PROJECTS/Mol_Feturizer/New_Systems/rnas/2NPY

>  <Rbt.Executable>
rbdock ($Id: //depot/dev/client3/rdock/2013.1/src/exe/rbdock.cxx#4 $)

>  <Rbt.Library>
libRbt.so (2013.1, Build901 2013/11/27)

>  <Rbt.Parameter_File>
/export/apps/rDock/src/rDock_2013.1_src/data/scripts/dock_solv.prm

>  <Rbt.Receptor>
prm/pocket_docking_4.prm

>  <SCORE>
-8.276

>  <SCORE.INTER>
4.47114

>  <SCORE.INTER.CONST>
1

>  <SCORE.INTER.POLAR>
0

>  <SCORE.INTER.ROT>
9

>  <SCORE.INTER.SOLV>
11.118

>  <SCORE.INTER.VDW>
-10.3252

>  <SCORE.INTER.norm>
0.343933

>  <SCORE.INTRA>
-12.7471

>  <SCORE.INTRA.DIHEDRAL>
-23.3697

>  <SCORE.INTRA.DIHEDRAL.0>
25.6828

>  <SCORE.INTRA.POLAR>
0

>  <SCORE.INTRA.POLAR.0>
0

>  <SCORE.INTRA.REPUL>
0

>  <SCORE.INTRA.REPUL.0>
0

>  <SCORE.INTRA.SOLV>
-1.27176

>  <SCORE.INTRA.SOLV.lig_0>
-48.5059

>  <SCORE.INTRA.VDW>
-0.426389

>  <SCORE.INTRA.VDW.0>
-0.363643

>  <SCORE.INTRA.norm>
-0.980549

>  <SCORE.RESTR>
0

>  <SCORE.RESTR.CAVITY>
0

>  <SCORE.RESTR.norm>
0

>  <SCORE.SYSTEM>
0

>  <SCORE.SYSTEM.CONST>
0

>  <SCORE.SYSTEM.DIHEDRAL>
0

>  <SCORE.SYSTEM.SOLV>
0

>  <SCORE.SYSTEM.norm>
0

>  <SCORE.heavy>
13

>  <SCORE.norm>
-0.636616

>  <RMSD>
7.486

$$$$
ligand
 OpenBabel11021811453D
libRbt.so/2013.1/901 2013/11/27
 13 12  0  0  0  0  0  0  0  0999 V2000
   31.2162   31.2698   48.6515 O   0  0  0  0  0  0  0  0  0  0  0  0
   34.0551   31.8801   49.0419 O   0  0  0  0  0  0  0  0  0  0  0  0
   27.0115   29.2257   50.5941 P   0  0  2  0  0  0  0  0  0  0  0  0
   26.9481   28.0180   49.7207 O   0  5  0  0  0  0  0  0  0  0  0  0
   25.7481   29.8494   51.0650 O   0  0  0  0  0  0  0  0  0  0  0  0
   27.8463   30.3515   49.8505 O   0  0  0  0  0  0  0  0  0  0  0  0
   35.9583   32.4148   51.0600 O   0  0  0  0  0  0  0  0  0  0  0  0
   29.2466   30.1814   49.5876 C   0  0  0  0  0  0  0  0  0  0  0  0
   33.3595   32.1952   47.8086 C   0  0  0  0  0  0  0  0  0  0  0  0
   36.1292   31.2988   50.1981 C   0  0  0  0  0  0  0  0  0  0  0  0
   29.8052   31.4333   48.8899 C   0  0  0  0  0  0  0  0  0  0  0  0
   31.8472   32.4312   48.0438 C   0  0  0  0  0  0  0  0  0  0  0  0
   35.4674   31.6320   48.8491 C   0  0  0  0  0  0  0  0  0  0  0  0
  1 12  1  0  0  0  0
  1 11  1  0  0  0  0
  2 13  1  0  0  0  0
  2  9  1  0  0  0  0
  3  4  1  6  0  0  0
  3  5  2  0  0  0  0
  3  6  1  0  0  0  0
  6  8  1  0  0  0  0
  7 10  1  0  0  0  0
  8 11  1  0  0  0  0
  9 12  1  0  0  0  0
 10 13  1  0  0  0  0
M  CHG  1   4  -1
M  END
>  <CHROM.1>
-179.84201139,-179.69927277,-66.15898907,-178.66293601,178.86715112,179.01347195
-58.09582263,-60.63425817,-177.52024324,30.74921665,30.78246790,49.60091796
0.23423291,-0.22749549,-1.08038790

>  <Name>
ligand

>  <RI>
0

>  <Rbt.Current_Directory>
/home/itssahil/PROJECTS/Mol_Feturizer/New_Systems/rnas/2NPY

>  <Rbt.Executable>
rbdock ($Id: //depot/dev/client3/rdock/2013.1/src/exe/rbdock.cxx#4 $)

>  <Rbt.Library>
libRbt.so (2013.1, Build901 2013/11/27)

>  <Rbt.Parameter_File>
/export/apps/rDock/src/rDock_2013.1_src/data/scripts/dock_solv.prm

>  <Rbt.Receptor>
prm/pocket_docking_8.prm

>  <SCORE>
-9.14072

>  <SCORE.INTER>
5.2205

>  <SCORE.INTER.CONST>
1

>  <SCORE.INTER.POLAR>
0

>  <SCORE.INTER.ROT>
9

>  <SCORE.INTER.SOLV>
8.29057

>  <SCORE.INTER.VDW>
-8.88319

>  <SCORE.INTER.norm>
0.401577

>  <SCORE.INTRA>
-14.3612

>  <SCORE.INTRA.DIHEDRAL>
-25.4566

>  <SCORE.INTRA.DIHEDRAL.0>
25.6828

>  <SCORE.INTRA.POLAR>
0

>  <SCORE.INTRA.POLAR.0>
0

>  <SCORE.INTRA.REPUL>
0

>  <SCORE.INTRA.REPUL.0>
0

>  <SCORE.INTRA.SOLV>
-1.22619

>  <SCORE.INTRA.SOLV.lig_0>
-48.5059

>  <SCORE.INTRA.VDW>
-1.0198

>  <SCORE.INTRA.VDW.0>
-0.363643

>  <SCORE.INTRA.norm>
-1.10471

>  <SCORE.RESTR>
0

>  <SCORE.RESTR.CAVITY>
0

>  <SCORE.RESTR.norm>
0

>  <SCORE.SYSTEM>
0

>  <SCORE.SYSTEM.CONST>
0

>  <SCORE.SYSTEM.DIHEDRAL>
0

>  <SCORE.SYSTEM.SOLV>
0

>  <SCORE.SYSTEM.norm>
0

>  <SCORE.heavy>
13

>  <SCORE.norm>
-0.703132

>  <RMSD>
7.489

$$$$
ligand
 OpenBabel11021811453D
libRbt.so/2013.1/901 2013/11/27
 13 12  0  0  0  0  0  0  0  0999 V2000
   36.5043   30.5232   48.0214 O   0  0  0  0  0  0  0  0  0  0  0  0
   37.0756   30.7802   45.1159 O   0  0  0  0  0  0  0  0  0  0  0  0
   32.8097   32.3891   49.3096 P   0  0  2  0  0  0  0  0  0  0  0  0
   32.0567   31.1255   49.5581 O   0  5  0  0  0  0  0  0  0  0  0  0
   32.3281   33.3289   48.2648 O   0  0  0  0  0  0  0  0  0  0  0  0
   34.3152   32.0276   48.9630 O   0  0  0  0  0  0  0  0  0  0  0  0
   35.0413   31.8096   43.4696 O   0  0  0  0  0  0  0  0  0  0  0  0
   35.1278   31.2846   49.8830 C   0  0  0  0  0  0  0  0  0  0  0  0
   37.6987   29.7896   45.9730 C   0  0  0  0  0  0  0  0  0  0  0  0
   36.2903   31.4469   42.8988 C   0  0  0  0  0  0  0  0  0  0  0  0
   36.5529   31.1371   49.3234 C   0  0  0  0  0  0  0  0  0  0  0  0
   37.8144   30.2841   47.4359 C   0  0  0  0  0  0  0  0  0  0  0  0
   36.8976   30.3214   43.7552 C   0  0  0  0  0  0  0  0  0  0  0  0
  1 12  1  0  0  0  0
  1 11  1  0  0  0  0
  2 13  1  0  0  0  0
  2  9  1  0  0  0  0
  3  4  1  6  0  0  0
  3  5  2  0  0  0  0
  3  6  1  0  0  0  0
  6  8  1  0  0  0  0
  7 10  1  0  0  0  0
  8 11  1  0  0  0  0
  9 12  1  0  0  0  0
 10 13  1  0  0  0  0
M  CHG  1   4  -1
M  END
>  <CHROM.1>
-172.89838170,-177.51803552,-58.35129582,-177.28674992,-56.09098314,-177.29543941
62.62027913,-59.32652520,-177.26443572,35.16539293,31.36086112,47.26294988
-0.86402056,-0.43890350,1.65510510

>  <Name>
ligand

>  <RI>
0

>  <Rbt.Current_Directory>
/home/itssahil/PROJECTS/Mol_Feturizer/New_Systems/rnas/2NPY

>  <Rbt.Executable>
rbdock ($Id: //depot/dev/client3/rdock/2013.1/src/exe/rbdock.cxx#4 $)

>  <Rbt.Library>
libRbt.so (2013.1, Build901 2013/11/27)

>  <Rbt.Parameter_File>
/export/apps/rDock/src/rDock_2013.1_src/data/scripts/dock_solv.prm

>  <Rbt.Receptor>
prm/pocket_docking_6.prm

>  <SCORE>
-12.453

>  <SCORE.INTER>
1.75616

>  <SCORE.INTER.CONST>
1

>  <SCORE.INTER.POLAR>
0

>  <SCORE.INTER.ROT>
9

>  <SCORE.INTER.SOLV>
7.518

>  <SCORE.INTER.VDW>
-10.9352

>  <SCORE.INTER.norm>
0.13509

>  <SCORE.INTRA>
-14.2092

>  <SCORE.INTRA.DIHEDRAL>
-25.1694

>  <SCORE.INTRA.DIHEDRAL.0>
25.6828

>  <SCORE.INTRA.POLAR>
0

>  <SCORE.INTRA.POLAR.0>
0

>  <SCORE.INTRA.REPUL>
0

>  <SCORE.INTRA.REPUL.0>
0

>  <SCORE.INTRA.SOLV>
-1.04447

>  <SCORE.INTRA.SOLV.lig_0>
-48.5059

>  <SCORE.INTRA.VDW>
-1.10224

>  <SCORE.INTRA.VDW.0>
-0.363643

>  <SCORE.INTRA.norm>
-1.09301

>  <SCORE.RESTR>
0

>  <SCORE.RESTR.CAVITY>
0

>  <SCORE.RESTR.norm>
0

>  <SCORE.SYSTEM>
0

>  <SCORE.SYSTEM.CONST>
0

>  <SCORE.SYSTEM.DIHEDRAL>
0

>  <SCORE.SYSTEM.SOLV>
0

>  <SCORE.SYSTEM.norm>
0

>  <SCORE.heavy>
13

>  <SCORE.norm>
-0.957923

>  <RMSD>
7.490

$$$$
ligand
 OpenBabel11021811453D
libRbt.so/2013.1/901 2013/11/27
 13 12  0  0  0  0  0  0  0  0999 V2000
   35.3214   31.6223   48.5763 O   0  0  0  0  0  0  0  0  0  0  0  0
   36.7775   30.4914   46.3533 O   0  0  0  0  0  0  0  0  0  0  0  0
   31.3145   32.9701   47.5019 P   0  0  2  0  0  0  0  0  0  0  0  0
   30.6441   32.1497   46.4517 O   0  5  0  0  0  0  0  0  0  0  0  0
   31.7975   34.3330   47.1616 O   0  0  0  0  0  0  0  0  0  0  0  0
   32.5525   32.1582   48.0724 O   0  0  0  0  0  0  0  0  0  0  0  0
   37.7830   30.3198   42.8295 O   0  0  0  0  0  0  0  0  0  0  0  0
   33.1839   32.5407   49.3028 C   0  0  0  0  0  0  0  0  0  0  0  0
   37.4464   30.7823   47.6071 C   0  0  0  0  0  0  0  0  0  0  0  0
   36.8701   30.3040   43.9175 C   0  0  0  0  0  0  0  0  0  0  0  0
   34.3352   31.5728   49.6248 C   0  0  0  0  0  0  0  0  0  0  0  0
   36.4649   30.7524   48.8045 C   0  0  0  0  0  0  0  0  0  0  0  0
   37.6702   30.5173   45.2149 C   0  0  0  0  0  0  0  0  0  0  0  0
  1 12  1  0  0  0  0
  1 11  1  0  0  0  0
  2 13  1  0  0  0  0
  2  9  1  0  0  0  0
  3  4  1  6  0  0  0
  3  5  2  0  0  0  0
  3  6  1  0  0  0  0
  6  8  1  0  0  0  0
  7 10  1  0  0  0  0
  8 11  1  0  0  0  0
  9 12  1  0  0  0  0
 10 13  1  0  0  0  0
M  CHG  1   4  -1
M  END
>  <CHROM.1>
176.50374194,-175.81121097,-164.53973641,179.14343303,60.97355462,179.78148329
-53.48079505,-179.29317137,179.03216758,34.46769101,31.70475708,47.04420475
-0.42918109,-0.38640113,1.51768218

>  <Name>
ligand

>  <RI>
0

>  <Rbt.Current_Directory>
/home/itssahil/PROJECTS/Mol_Feturizer/New_Systems/rnas/2NPY

>  <Rbt.Executable>
rbdock ($Id: //depot/dev/client3/rdock/2013.1/src/exe/rbdock.cxx#4 $)

>  <Rbt.Library>
libRbt.so (2013.1, Build901 2013/11/27)

>  <Rbt.Parameter_File>
/export/apps/rDock/src/rDock_2013.1_src/data/scripts/dock_solv.prm

>  <Rbt.Receptor>
prm/pocket_docking_5.prm

>  <SCORE>
-11.6104

>  <SCORE.INTER>
2.76067

>  <SCORE.INTER.CONST>
1

>  <SCORE.INTER.POLAR>
0

>  <SCORE.INTER.ROT>
9

>  <SCORE.INTER.SOLV>
6.14641

>  <SCORE.INTER.VDW>
-9.80836

>  <SCORE.INTER.norm>
0.212359

>  <SCORE.INTRA>
-14.3711

>  <SCORE.INTRA.DIHEDRAL>
-25.2252

>  <SCORE.INTRA.DIHEDRAL.0>
25.6828

>  <SCORE.INTRA.POLAR>
0

>  <SCORE.INTRA.POLAR.0>
0

>  <SCORE.INTRA.REPUL>
0

>  <SCORE.INTRA.REPUL.0>
0

>  <SCORE.INTRA.SOLV>
-1.32158

>  <SCORE.INTRA.SOLV.lig_0>
-48.5059

>  <SCORE.INTRA.VDW>
-1.09772

>  <SCORE.INTRA.VDW.0>
-0.363643

>  <SCORE.INTRA.norm>
-1.10547

>  <SCORE.RESTR>
0

>  <SCORE.RESTR.CAVITY>
0

>  <SCORE.RESTR.norm>
0

>  <SCORE.SYSTEM>
0

>  <SCORE.SYSTEM.CONST>
0

>  <SCORE.SYSTEM.DIHEDRAL>
0

>  <SCORE.SYSTEM.SOLV>
0

>  <SCORE.SYSTEM.norm>
0

>  <SCORE.heavy>
13

>  <SCORE.norm>
-0.893111

>  <RMSD>
7.505

$$$$
ligand
 OpenBabel11021811453D
libRbt.so/2013.1/901 2013/11/27
 13 12  0  0  0  0  0  0  0  0999 V2000
   33.1389   31.5040   42.8766 O   0  0  0  0  0  0  0  0  0  0  0  0
   35.4262   29.7318   43.1676 O   0  0  0  0  0  0  0  0  0  0  0  0
   29.7540   32.4118   45.5766 P   0  0  2  0  0  0  0  0  0  0  0  0
   30.4076   31.7388   46.7365 O   0  5  0  0  0  0  0  0  0  0  0  0
   28.3786   32.0107   45.1838 O   0  0  0  0  0  0  0  0  0  0  0  0
   30.6792   32.2420   44.2989 O   0  0  0  0  0  0  0  0  0  0  0  0
   38.5693   31.2299   44.3227 O   0  0  0  0  0  0  0  0  0  0  0  0
   31.7681   33.1426   44.0495 C   0  0  0  0  0  0  0  0  0  0  0  0
   34.6498   29.7703   41.9428 C   0  0  0  0  0  0  0  0  0  0  0  0
   37.4047   30.4234   44.4261 C   0  0  0  0  0  0  0  0  0  0  0  0
   32.4663   32.7692   42.7308 C   0  0  0  0  0  0  0  0  0  0  0  0
   33.9672   31.1447   41.7359 C   0  0  0  0  0  0  0  0  0  0  0  0
   36.6146   30.5553   43.1119 C   0  0  0  0  0  0  0  0  0  0  0  0
  1 12  1  0  0  0  0
  1 11  1  0  0  0  0
  2 13  1  0  0  0  0
  2  9  1  0  0  0  0
  3  4  1  1  0  0  0
  3  5  2  0  0  0  0
  3  6  1  0  0  0  0
  6  8  1  0  0  0  0
  7 10  1  0  0  0  0
  8 11  1  0  0  0  0
  9 12  1  0  0  0  0
 10 13  1  0  0  0  0
M  CHG  1   4  -1
M  END
>  <CHROM.1>
-179.32561928,-178.09830296,-84.31317395,-178.45325400,-68.09347651,-69.84685518
-55.70997980,179.18920890,-172.73611196,33.00703659,31.51328008,44.02844049
0.28714884,0.21126965,-1.68257361

>  <Name>
ligand

>  <RI>
0

>  <Rbt.Current_Directory>
/home/itssahil/PROJECTS/Mol_Feturizer/New_Systems/rnas/2NPY

>  <Rbt.Executable>
rbdock ($Id: //depot/dev/client3/rdock/2013.1/src/exe/rbdock.cxx#4 $)

>  <Rbt.Library>
libRbt.so (2013.1, Build901 2013/11/27)

>  <Rbt.Parameter_File>
/export/apps/rDock/src/rDock_2013.1_src/data/scripts/dock_solv.prm

>  <Rbt.Receptor>
prm/pocket_docking_4.prm

>  <SCORE>
-10.474

>  <SCORE.INTER>
2.5959

>  <SCORE.INTER.CONST>
1

>  <SCORE.INTER.POLAR>
0

>  <SCORE.INTER.ROT>
9

>  <SCORE.INTER.SOLV>
11.9346

>  <SCORE.INTER.VDW>
-11.8476

>  <SCORE.INTER.norm>
0.199685

>  <SCORE.INTRA>
-13.0699

>  <SCORE.INTRA.DIHEDRAL>
-23.8296

>  <SCORE.INTRA.DIHEDRAL.0>
25.6828

>  <SCORE.INTRA.POLAR>
0

>  <SCORE.INTRA.POLAR.0>
0

>  <SCORE.INTRA.REPUL>
0

>  <SCORE.INTRA.REPUL.0>
0

>  <SCORE.INTRA.SOLV>
-1.41631

>  <SCORE.INTRA.SOLV.lig_0>
-48.5059

>  <SCORE.INTRA.VDW>
-0.446905

>  <SCORE.INTRA.VDW.0>
-0.363643

>  <SCORE.INTRA.norm>
-1.00537

>  <SCORE.RESTR>
0

>  <SCORE.RESTR.CAVITY>
0

>  <SCORE.RESTR.norm>
0

>  <SCORE.SYSTEM>
0

>  <SCORE.SYSTEM.CONST>
0

>  <SCORE.SYSTEM.DIHEDRAL>
0

>  <SCORE.SYSTEM.SOLV>
0

>  <SCORE.SYSTEM.norm>
0

>  <SCORE.heavy>
13

>  <SCORE.norm>
-0.80569

>  <RMSD>
7.522

$$$$
ligand
 OpenBabel11021811453D
libRbt.so/2013.1/901 2013/11/27
 13 12  0  0  0  0  0  0  0  0999 V2000
   32.7677   30.6531   49.8491 O   0  0  0  0  0  0  0  0  0  0  0  0
   35.5081   31.0245   48.7624 O   0  0  0  0  0  0  0  0  0  0  0  0
   29.1371   30.9598   49.2031 P   0  0  2  0  0  0  0  0  0  0  0  0
   27.9447   30.4141   49.9143 O   0  5  0  0  0  0  0  0  0  0  0  0
   28.9581   31.6189   47.8839 O   0  0  0  0  0  0  0  0  0  0  0  0
   30.1954   29.7937   49.0096 O   0  0  0  0  0  0  0  0  0  0  0  0
   38.0693   30.7238   46.1540 O   0  0  0  0  0  0  0  0  0  0  0  0
   30.8420   29.1873   50.1378 C   0  0  0  0  0  0  0  0  0  0  0  0
   34.7078   32.1038   49.3090 C   0  0  0  0  0  0  0  0  0  0  0  0
   37.2394   30.2660   47.2119 C   0  0  0  0  0  0  0  0  0  0  0  0
   31.7907   30.1980   50.8045 C   0  0  0  0  0  0  0  0  0  0  0  0
   33.7266   31.6005   50.3961 C   0  0  0  0  0  0  0  0  0  0  0  0
   36.4174   31.4616   47.7253 C   0  0  0  0  0  0  0  0  0  0  0  0
  1 12  1  0  0  0  0
  1 11  1  0  0  0  0
  2 13  1  0  0  0  0
  2  9  1  0  0  0  0
  3  4  1  6  0  0  0
  3  5  2  0  0  0  0
  3  6  1  0  0  0  0
  6  8  1  0  0  0  0
  7 10  1  0  0  0  0
  8 11  1  0  0  0  0
  9 12  1  0  0  0  0
 10 13  1  0  0  0  0
M  CHG  1   4  -1
M  END
>  <CHROM.1>
-177.31463206,179.28082929,-65.58209268,-68.12109272,-58.29353379,178.90479065
-62.52235152,177.19446701,-179.06630556,32.53469787,30.78124273,48.95118058
-0.23632324,0.02193754,1.68632925

>  <Name>
ligand

>  <RI>
0

>  <Rbt.Current_Directory>
/home/itssahil/PROJECTS/Mol_Feturizer/New_Systems/rnas/2NPY

>  <Rbt.Executable>
rbdock ($Id: //depot/dev/client3/rdock/2013.1/src/exe/rbdock.cxx#4 $)

>  <Rbt.Library>
libRbt.so (2013.1, Build901 2013/11/27)

>  <Rbt.Parameter_File>
/export/apps/rDock/src/rDock_2013.1_src/data/scripts/dock_solv.prm

>  <Rbt.Receptor>
prm/pocket_docking_6.prm

>  <SCORE>
-11.9925

>  <SCORE.INTER>
1.31073

>  <SCORE.INTER.CONST>
1

>  <SCORE.INTER.POLAR>
0

>  <SCORE.INTER.ROT>
9

>  <SCORE.INTER.SOLV>
7.12273

>  <SCORE.INTER.VDW>
-11.1004

>  <SCORE.INTER.norm>
0.100825

>  <SCORE.INTRA>
-13.3032

>  <SCORE.INTRA.DIHEDRAL>
-25.1003

>  <SCORE.INTRA.DIHEDRAL.0>
25.6828

>  <SCORE.INTRA.POLAR>
0

>  <SCORE.INTRA.POLAR.0>
0

>  <SCORE.INTRA.REPUL>
0

>  <SCORE.INTRA.REPUL.0>
0

>  <SCORE.INTRA.SOLV>
0.398528

>  <SCORE.INTRA.SOLV.lig_0>
-48.5059

>  <SCORE.INTRA.VDW>
-0.952293

>  <SCORE.INTRA.VDW.0>
-0.363643

>  <SCORE.INTRA.norm>
-1.02332

>  <SCORE.RESTR>
0

>  <SCORE.RESTR.CAVITY>
0

>  <SCORE.RESTR.norm>
0

>  <SCORE.SYSTEM>
0

>  <SCORE.SYSTEM.CONST>
0

>  <SCORE.SYSTEM.DIHEDRAL>
0

>  <SCORE.SYSTEM.SOLV>
0

>  <SCORE.SYSTEM.norm>
0

>  <SCORE.heavy>
13

>  <SCORE.norm>
-0.922497

>  <RMSD>
7.535

$$$$
ligand
 OpenBabel11021811453D
libRbt.so/2013.1/901 2013/11/27
 13 12  0  0  0  0  0  0  0  0999 V2000
   36.4312   30.5447   47.9909 O   0  0  0  0  0  0  0  0  0  0  0  0
   36.7655   30.7149   45.1127 O   0  0  0  0  0  0  0  0  0  0  0  0
   32.6030   32.1046   49.2392 P   0  0  2  0  0  0  0  0  0  0  0  0
   31.9562   32.7777   48.0756 O   0  5  0  0  0  0  0  0  0  0  0  0
   32.4738   32.7064   50.5912 O   0  0  0  0  0  0  0  0  0  0  0  0
   34.1527   31.9426   48.9398 O   0  0  0  0  0  0  0  0  0  0  0  0
   36.0906   32.4491   42.9997 O   0  0  0  0  0  0  0  0  0  0  0  0
   35.0111   31.2362   49.8470 C   0  0  0  0  0  0  0  0  0  0  0  0
   37.6541   29.9078   45.9271 C   0  0  0  0  0  0  0  0  0  0  0  0
   35.6447   31.1007   42.9746 C   0  0  0  0  0  0  0  0  0  0  0  0
   36.4408   31.1825   49.2822 C   0  0  0  0  0  0  0  0  0  0  0  0
   37.7467   30.4385   47.3789 C   0  0  0  0  0  0  0  0  0  0  0  0
   36.6652   30.2462   43.7475 C   0  0  0  0  0  0  0  0  0  0  0  0
  1 12  1  0  0  0  0
  1 11  1  0  0  0  0
  2 13  1  0  0  0  0
  2  9  1  0  0  0  0
  3  4  1  6  0  0  0
  3  5  2  0  0  0  0
  3  6  1  0  0  0  0
  6  8  1  0  0  0  0
  7 10  1  0  0  0  0
  8 11  1  0  0  0  0
  9 12  1  0  0  0  0
 10 13  1  0  0  0  0
M  CHG  1   4  -1
M  END
>  <CHROM.1>
-172.96682162,176.66629947,-175.32414655,177.63236245,-58.03516005,179.67771574
55.09735246,59.67887993,-179.57069896,35.09567825,31.42577935,47.26922790
-0.90472690,-0.44638059,1.65193414

>  <Name>
ligand

>  <RI>
0

>  <Rbt.Current_Directory>
/home/itssahil/PROJECTS/Mol_Feturizer/New_Systems/rnas/2NPY

>  <Rbt.Executable>
rbdock ($Id: //depot/dev/client3/rdock/2013.1/src/exe/rbdock.cxx#4 $)

>  <Rbt.Library>
libRbt.so (2013.1, Build901 2013/11/27)

>  <Rbt.Parameter_File>
/export/apps/rDock/src/rDock_2013.1_src/data/scripts/dock_solv.prm

>  <Rbt.Receptor>
prm/pocket_docking_8.prm

>  <SCORE>
-12.8416

>  <SCORE.INTER>
1.34721

>  <SCORE.INTER.CONST>
1

>  <SCORE.INTER.POLAR>
0

>  <SCORE.INTER.ROT>
9

>  <SCORE.INTER.SOLV>
6.7063

>  <SCORE.INTER.VDW>
-10.9373

>  <SCORE.INTER.norm>
0.103631

>  <SCORE.INTRA>
-14.1888

>  <SCORE.INTRA.DIHEDRAL>
-25.2226

>  <SCORE.INTRA.DIHEDRAL.0>
25.6828

>  <SCORE.INTRA.POLAR>
0

>  <SCORE.INTRA.POLAR.0>
0

>  <SCORE.INTRA.REPUL>
0

>  <SCORE.INTRA.REPUL.0>
0

>  <SCORE.INTRA.SOLV>
-0.972903

>  <SCORE.INTRA.SOLV.lig_0>
-48.5059

>  <SCORE.INTRA.VDW>
-1.09108

>  <SCORE.INTRA.VDW.0>
-0.363643

>  <SCORE.INTRA.norm>
-1.09145

>  <SCORE.RESTR>
0

>  <SCORE.RESTR.CAVITY>
0

>  <SCORE.RESTR.norm>
0

>  <SCORE.SYSTEM>
0

>  <SCORE.SYSTEM.CONST>
0

>  <SCORE.SYSTEM.DIHEDRAL>
0

>  <SCORE.SYSTEM.SOLV>
0

>  <SCORE.SYSTEM.norm>
0

>  <SCORE.heavy>
13

>  <SCORE.norm>
-0.987818

>  <RMSD>
7.544

$$$$
ligand
 OpenBabel11021811453D
libRbt.so/2013.1/901 2013/11/27
 13 12  0  0  0  0  0  0  0  0999 V2000
   36.4787   30.5320   47.9307 O   0  0  0  0  0  0  0  0  0  0  0  0
   36.7274   30.6847   45.0406 O   0  0  0  0  0  0  0  0  0  0  0  0
   32.7380   32.1853   49.2393 P   0  0  2  0  0  0  0  0  0  0  0  0
   32.0922   32.8422   48.0659 O   0  5  0  0  0  0  0  0  0  0  0  0
   32.6302   32.8199   50.5781 O   0  0  0  0  0  0  0  0  0  0  0  0
   34.2822   31.9910   48.9309 O   0  0  0  0  0  0  0  0  0  0  0  0
   36.0310   32.4518   42.9459 O   0  0  0  0  0  0  0  0  0  0  0  0
   35.1281   31.2550   49.8262 C   0  0  0  0  0  0  0  0  0  0  0  0
   37.6265   29.8672   45.8328 C   0  0  0  0  0  0  0  0  0  0  0  0
   35.5869   31.1029   42.9190 C   0  0  0  0  0  0  0  0  0  0  0  0
   36.5434   31.1395   49.2350 C   0  0  0  0  0  0  0  0  0  0  0  0
   37.7724   30.4049   47.2776 C   0  0  0  0  0  0  0  0  0  0  0  0
   36.6230   30.2444   43.6662 C   0  0  0  0  0  0  0  0  0  0  0  0
  1 12  1  0  0  0  0
  1 11  1  0  0  0  0
  2 13  1  0  0  0  0
  2  9  1  0  0  0  0
  3  4  1  6  0  0  0
  3  5  2  0  0  0  0
  3  6  1  0  0  0  0
  6  8  1  0  0  0  0
  7 10  1  0  0  0  0
  8 11  1  0  0  0  0
  9 12  1  0  0  0  0
 10 13  1  0  0  0  0
M  CHG  1   4  -1
M  END
>  <CHROM.1>
-174.78956566,176.38772732,-173.32535987,175.98892731,-56.31284546,177.11370978
55.34741858,60.89357050,178.81811680,35.15144949,31.44521424,47.22612026
-0.93331642,-0.47378975,1.63966259

>  <Name>
ligand

>  <RI>
0

>  <Rbt.Current_Directory>
/home/itssahil/PROJECTS/Mol_Feturizer/New_Systems/rnas/2NPY

>  <Rbt.Executable>
rbdock ($Id: //depot/dev/client3/rdock/2013.1/src/exe/rbdock.cxx#4 $)

>  <Rbt.Library>
libRbt.so (2013.1, Build901 2013/11/27)

>  <Rbt.Parameter_File>
/export/apps/rDock/src/rDock_2013.1_src/data/scripts/dock_solv.prm

>  <Rbt.Receptor>
prm/pocket_docking_6.prm

>  <SCORE>
-12.8593

>  <SCORE.INTER>
1.33013

>  <SCORE.INTER.CONST>
1

>  <SCORE.INTER.POLAR>
0

>  <SCORE.INTER.ROT>
9

>  <SCORE.INTER.SOLV>
6.60244

>  <SCORE.INTER.VDW>
-10.9141

>  <SCORE.INTER.norm>
0.102318

>  <SCORE.INTRA>
-14.1894

>  <SCORE.INTRA.DIHEDRAL>
-25.191

>  <SCORE.INTRA.DIHEDRAL.0>
25.6828

>  <SCORE.INTRA.POLAR>
0

>  <SCORE.INTRA.POLAR.0>
0

>  <SCORE.INTRA.REPUL>
0

>  <SCORE.INTRA.REPUL.0>
0

>  <SCORE.INTRA.SOLV>
-0.976592

>  <SCORE.INTRA.SOLV.lig_0>
-48.5059

>  <SCORE.INTRA.VDW>
-1.10565

>  <SCORE.INTRA.VDW.0>
-0.363643

>  <SCORE.INTRA.norm>
-1.09149

>  <SCORE.RESTR>
0

>  <SCORE.RESTR.CAVITY>
0

>  <SCORE.RESTR.norm>
0

>  <SCORE.SYSTEM>
0

>  <SCORE.SYSTEM.CONST>
0

>  <SCORE.SYSTEM.DIHEDRAL>
0

>  <SCORE.SYSTEM.SOLV>
0

>  <SCORE.SYSTEM.norm>
0

>  <SCORE.heavy>
13

>  <SCORE.norm>
-0.989177

>  <RMSD>
7.546

$$$$
ligand
 OpenBabel11021811453D
libRbt.so/2013.1/901 2013/11/27
 13 12  0  0  0  0  0  0  0  0999 V2000
   33.8511   32.1202   43.1719 O   0  0  0  0  0  0  0  0  0  0  0  0
   36.7087   31.7056   43.7326 O   0  0  0  0  0  0  0  0  0  0  0  0
   29.2820   33.0001   45.1677 P   0  0  2  0  0  0  0  0  0  0  0  0
   28.0157   32.2142   45.2332 O   0  5  0  0  0  0  0  0  0  0  0  0
   29.2431   34.4018   44.6773 O   0  0  0  0  0  0  0  0  0  0  0  0
   30.3263   32.2134   44.2689 O   0  0  0  0  0  0  0  0  0  0  0  0
   37.8964   29.1659   46.0877 O   0  0  0  0  0  0  0  0  0  0  0  0
   31.6926   32.6419   44.1763 C   0  0  0  0  0  0  0  0  0  0  0  0
   36.1681   31.7016   42.3865 C   0  0  0  0  0  0  0  0  0  0  0  0
   37.4832   30.4660   45.6923 C   0  0  0  0  0  0  0  0  0  0  0  0
   32.4718   31.7101   43.2325 C   0  0  0  0  0  0  0  0  0  0  0  0
   34.6875   31.2486   42.3612 C   0  0  0  0  0  0  0  0  0  0  0  0
   36.9332   30.3761   44.2576 C   0  0  0  0  0  0  0  0  0  0  0  0
  1 12  1  0  0  0  0
  1 11  1  0  0  0  0
  2 13  1  0  0  0  0
  2  9  1  0  0  0  0
  3  4  1  6  0  0  0
  3  5  2  0  0  0  0
  3  6  1  0  0  0  0
  6  8  1  0  0  0  0
  7 10  1  0  0  0  0
  8 11  1  0  0  0  0
  9 12  1  0  0  0  0
 10 13  1  0  0  0  0
M  CHG  1   4  -1
M  END
>  <CHROM.1>
-177.38854656,-179.07376794,-171.46406539,-179.47377962,-178.36382186,72.24281174
59.34332520,-170.49132608,176.62172128,33.06590811,31.87700531,44.28583322
-0.06995294,0.29889536,-1.17063746

>  <Name>
ligand

>  <RI>
0

>  <Rbt.Current_Directory>
/home/itssahil/PROJECTS/Mol_Feturizer/New_Systems/rnas/2NPY

>  <Rbt.Executable>
rbdock ($Id: //depot/dev/client3/rdock/2013.1/src/exe/rbdock.cxx#4 $)

>  <Rbt.Library>
libRbt.so (2013.1, Build901 2013/11/27)

>  <Rbt.Parameter_File>
/export/apps/rDock/src/rDock_2013.1_src/data/scripts/dock_solv.prm

>  <Rbt.Receptor>
prm/pocket_docking_4.prm

>  <SCORE>
-10.3552

>  <SCORE.INTER>
2.84605

>  <SCORE.INTER.CONST>
1

>  <SCORE.INTER.POLAR>
0

>  <SCORE.INTER.ROT>
9

>  <SCORE.INTER.SOLV>
9.1134

>  <SCORE.INTER.VDW>
-10.7404

>  <SCORE.INTER.norm>
0.218927

>  <SCORE.INTRA>
-13.2013

>  <SCORE.INTRA.DIHEDRAL>
-24.4848

>  <SCORE.INTRA.DIHEDRAL.0>
25.6828

>  <SCORE.INTRA.POLAR>
0

>  <SCORE.INTRA.POLAR.0>
0

>  <SCORE.INTRA.REPUL>
0

>  <SCORE.INTRA.REPUL.0>
0

>  <SCORE.INTRA.SOLV>
-1.3399

>  <SCORE.INTRA.SOLV.lig_0>
-48.5059

>  <SCORE.INTRA.VDW>
-0.28891

>  <SCORE.INTRA.VDW.0>
-0.363643

>  <SCORE.INTRA.norm>
-1.01548

>  <SCORE.RESTR>
0

>  <SCORE.RESTR.CAVITY>
0

>  <SCORE.RESTR.norm>
0

>  <SCORE.SYSTEM>
0

>  <SCORE.SYSTEM.CONST>
0

>  <SCORE.SYSTEM.DIHEDRAL>
0

>  <SCORE.SYSTEM.SOLV>
0

>  <SCORE.SYSTEM.norm>
0

>  <SCORE.heavy>
13

>  <SCORE.norm>
-0.796555

>  <RMSD>
7.547

$$$$
ligand
 OpenBabel11021811453D
libRbt.so/2013.1/901 2013/11/27
 13 12  0  0  0  0  0  0  0  0999 V2000
   34.1273   31.4812   49.2602 O   0  0  0  0  0  0  0  0  0  0  0  0
   36.6474   30.4982   48.1984 O   0  0  0  0  0  0  0  0  0  0  0  0
   30.7237   33.2306   47.2239 P   0  0  2  0  0  0  0  0  0  0  0  0
   30.5442   32.1471   46.2142 O   0  5  0  0  0  0  0  0  0  0  0  0
   31.0849   34.5973   46.7672 O   0  0  0  0  0  0  0  0  0  0  0  0
   31.8246   32.7758   48.2720 O   0  0  0  0  0  0  0  0  0  0  0  0
   38.9607   29.8030   45.4375 O   0  0  0  0  0  0  0  0  0  0  0  0
   31.7076   31.5294   48.9733 C   0  0  0  0  0  0  0  0  0  0  0  0
   36.6086   31.4383   49.3024 C   0  0  0  0  0  0  0  0  0  0  0  0
   37.7749   29.6460   46.2035 C   0  0  0  0  0  0  0  0  0  0  0  0
   32.8748   31.3725   49.9627 C   0  0  0  0  0  0  0  0  0  0  0  0
   35.2947   31.3212   50.1134 C   0  0  0  0  0  0  0  0  0  0  0  0
   37.8549   30.6011   47.4078 C   0  0  0  0  0  0  0  0  0  0  0  0
  1 12  1  0  0  0  0
  1 11  1  0  0  0  0
  2 13  1  0  0  0  0
  2  9  1  0  0  0  0
  3  4  1  6  0  0  0
  3  5  2  0  0  0  0
  3  6  1  0  0  0  0
  6  8  1  0  0  0  0
  7 10  1  0  0  0  0
  8 11  1  0  0  0  0
  9 12  1  0  0  0  0
 10 13  1  0  0  0  0
M  CHG  1   4  -1
M  END
>  <CHROM.1>
179.61744200,-175.97171105,-54.07098373,-177.61634898,-56.33513411,178.97676566
-55.47449844,178.52414432,-178.95508836,33.99707439,31.72298248,47.85764549
-0.00685077,-0.39183511,1.65204330

>  <Name>
ligand

>  <RI>
0

>  <Rbt.Current_Directory>
/home/itssahil/PROJECTS/Mol_Feturizer/New_Systems/rnas/2NPY

>  <Rbt.Executable>
rbdock ($Id: //depot/dev/client3/rdock/2013.1/src/exe/rbdock.cxx#4 $)

>  <Rbt.Library>
libRbt.so (2013.1, Build901 2013/11/27)

>  <Rbt.Parameter_File>
/export/apps/rDock/src/rDock_2013.1_src/data/scripts/dock_solv.prm

>  <Rbt.Receptor>
prm/pocket_docking_5.prm

>  <SCORE>
-12.1309

>  <SCORE.INTER>
2.24919

>  <SCORE.INTER.CONST>
1

>  <SCORE.INTER.POLAR>
0

>  <SCORE.INTER.ROT>
9

>  <SCORE.INTER.SOLV>
6.14267

>  <SCORE.INTER.VDW>
-10.1481

>  <SCORE.INTER.norm>
0.173014

>  <SCORE.INTRA>
-14.3801

>  <SCORE.INTRA.DIHEDRAL>
-25.3978

>  <SCORE.INTRA.DIHEDRAL.0>
25.6828

>  <SCORE.INTRA.POLAR>
0

>  <SCORE.INTRA.POLAR.0>
0

>  <SCORE.INTRA.REPUL>
0

>  <SCORE.INTRA.REPUL.0>
0

>  <SCORE.INTRA.SOLV>
-1.26798

>  <SCORE.INTRA.SOLV.lig_0>
-48.5059

>  <SCORE.INTRA.VDW>
-1.04722

>  <SCORE.INTRA.VDW.0>
-0.363643

>  <SCORE.INTRA.norm>
-1.10616

>  <SCORE.RESTR>
0

>  <SCORE.RESTR.CAVITY>
0

>  <SCORE.RESTR.norm>
0

>  <SCORE.SYSTEM>
0

>  <SCORE.SYSTEM.CONST>
0

>  <SCORE.SYSTEM.DIHEDRAL>
0

>  <SCORE.SYSTEM.SOLV>
0

>  <SCORE.SYSTEM.norm>
0

>  <SCORE.heavy>
13

>  <SCORE.norm>
-0.933148

>  <RMSD>
7.547

$$$$
ligand
 OpenBabel11021811453D
libRbt.so/2013.1/901 2013/11/27
 13 12  0  0  0  0  0  0  0  0999 V2000
   35.0447   30.9361   49.2932 O   0  0  0  0  0  0  0  0  0  0  0  0
   36.8559   30.7601   46.9763 O   0  0  0  0  0  0  0  0  0  0  0  0
   30.7263   31.4041   48.4374 P   0  0  2  0  0  0  0  0  0  0  0  0
   30.5617   31.7084   46.9863 O   0  5  0  0  0  0  0  0  0  0  0  0
   29.8966   32.1321   49.4316 O   0  0  0  0  0  0  0  0  0  0  0  0
   32.2458   31.6247   48.8371 O   0  0  0  0  0  0  0  0  0  0  0  0
   37.3451   31.7217   44.3490 O   0  0  0  0  0  0  0  0  0  0  0  0
   32.7543   31.1596   50.0957 C   0  0  0  0  0  0  0  0  0  0  0  0
   37.2964   30.5169   48.3368 C   0  0  0  0  0  0  0  0  0  0  0  0
   37.0997   30.3419   44.5800 C   0  0  0  0  0  0  0  0  0  0  0  0
   34.2175   31.6020   50.2662 C   0  0  0  0  0  0  0  0  0  0  0  0
   36.4500   31.3052   49.3664 C   0  0  0  0  0  0  0  0  0  0  0  0
   37.5984   29.9989   45.9951 C   0  0  0  0  0  0  0  0  0  0  0  0
  1 12  1  0  0  0  0
  1 11  1  0  0  0  0
  2 13  1  0  0  0  0
  2  9  1  0  0  0  0
  3  4  1  6  0  0  0
  3  5  2  0  0  0  0
  3  6  1  0  0  0  0
  6  8  1  0  0  0  0
  7 10  1  0  0  0  0
  8 11  1  0  0  0  0
  9 12  1  0  0  0  0
 10 13  1  0  0  0  0
M  CHG  1   4  -1
M  END
>  <CHROM.1>
177.70663486,-178.39610751,-167.59359634,-175.58115164,-66.36463369,-177.91736664
59.83862992,62.16150404,179.30171851,34.12283945,31.20630511,47.94555356
-0.39915608,-0.14079493,1.56875968

>  <Name>
ligand

>  <RI>
0

>  <Rbt.Current_Directory>
/home/itssahil/PROJECTS/Mol_Feturizer/New_Systems/rnas/2NPY

>  <Rbt.Executable>
rbdock ($Id: //depot/dev/client3/rdock/2013.1/src/exe/rbdock.cxx#4 $)

>  <Rbt.Library>
libRbt.so (2013.1, Build901 2013/11/27)

>  <Rbt.Parameter_File>
/export/apps/rDock/src/rDock_2013.1_src/data/scripts/dock_solv.prm

>  <Rbt.Receptor>
prm/pocket_docking_5.prm

>  <SCORE>
-13.1305

>  <SCORE.INTER>
1.161

>  <SCORE.INTER.CONST>
1

>  <SCORE.INTER.POLAR>
0

>  <SCORE.INTER.ROT>
9

>  <SCORE.INTER.SOLV>
8.79633

>  <SCORE.INTER.VDW>
-11.7581

>  <SCORE.INTER.norm>
0.0893074

>  <SCORE.INTRA>
-14.2915

>  <SCORE.INTRA.DIHEDRAL>
-25.2712

>  <SCORE.INTRA.DIHEDRAL.0>
25.6828

>  <SCORE.INTRA.POLAR>
0

>  <SCORE.INTRA.POLAR.0>
0

>  <SCORE.INTRA.REPUL>
0

>  <SCORE.INTRA.REPUL.0>
0

>  <SCORE.INTRA.SOLV>
-1.09939

>  <SCORE.INTRA.SOLV.lig_0>
-48.5059

>  <SCORE.INTRA.VDW>
-1.10615

>  <SCORE.INTRA.VDW.0>
-0.363643

>  <SCORE.INTRA.norm>
-1.09934

>  <SCORE.RESTR>
0

>  <SCORE.RESTR.CAVITY>
0

>  <SCORE.RESTR.norm>
0

>  <SCORE.SYSTEM>
0

>  <SCORE.SYSTEM.CONST>
0

>  <SCORE.SYSTEM.DIHEDRAL>
0

>  <SCORE.SYSTEM.SOLV>
0

>  <SCORE.SYSTEM.norm>
0

>  <SCORE.heavy>
13

>  <SCORE.norm>
-1.01004

>  <RMSD>
7.559

$$$$
ligand
 OpenBabel11021811453D
libRbt.so/2013.1/901 2013/11/27
 13 12  0  0  0  0  0  0  0  0999 V2000
   33.8445   31.7664   48.3503 O   0  0  0  0  0  0  0  0  0  0  0  0
   36.3897   30.4669   48.0112 O   0  0  0  0  0  0  0  0  0  0  0  0
   29.2737   32.6049   46.3418 P   0  0  2  0  0  0  0  0  0  0  0  0
   28.8938   31.2911   45.7459 O   0  5  0  0  0  0  0  0  0  0  0  0
   29.8609   33.6555   45.4711 O   0  0  0  0  0  0  0  0  0  0  0  0
   30.2933   32.3516   47.5308 O   0  0  0  0  0  0  0  0  0  0  0  0
   39.3642   29.5873   46.0530 O   0  0  0  0  0  0  0  0  0  0  0  0
   31.6895   32.1414   47.2753 C   0  0  0  0  0  0  0  0  0  0  0  0
   36.1264   31.2693   49.1906 C   0  0  0  0  0  0  0  0  0  0  0  0
   37.9759   29.6301   46.3498 C   0  0  0  0  0  0  0  0  0  0  0  0
   32.4288   31.8659   48.5957 C   0  0  0  0  0  0  0  0  0  0  0  0
   34.6132   31.3442   49.5109 C   0  0  0  0  0  0  0  0  0  0  0  0
   37.7910   30.4276   47.6531 C   0  0  0  0  0  0  0  0  0  0  0  0
  1 12  1  0  0  0  0
  1 11  1  0  0  0  0
  2 13  1  0  0  0  0
  2  9  1  0  0  0  0
  3  4  1  6  0  0  0
  3  5  2  0  0  0  0
  3  6  1  0  0  0  0
  6  8  1  0  0  0  0
  7 10  1  0  0  0  0
  8 11  1  0  0  0  0
  9 12  1  0  0  0  0
 10 13  1  0  0  0  0
M  CHG  1   4  -1
M  END
>  <CHROM.1>
-179.43143826,-176.62001587,81.60203043,-177.71007281,-175.22495457,177.42616734
-52.30792865,-178.55374433,-172.84734433,33.34105704,31.51686036,47.27680685
0.06474143,-0.29116246,1.38566556

>  <Name>
ligand

>  <RI>
0

>  <Rbt.Current_Directory>
/home/itssahil/PROJECTS/Mol_Feturizer/New_Systems/rnas/2NPY

>  <Rbt.Executable>
rbdock ($Id: //depot/dev/client3/rdock/2013.1/src/exe/rbdock.cxx#4 $)

>  <Rbt.Library>
libRbt.so (2013.1, Build901 2013/11/27)

>  <Rbt.Parameter_File>
/export/apps/rDock/src/rDock_2013.1_src/data/scripts/dock_solv.prm

>  <Rbt.Receptor>
prm/pocket_docking_7.prm

>  <SCORE>
-12.0286

>  <SCORE.INTER>
1.67468

>  <SCORE.INTER.CONST>
1

>  <SCORE.INTER.POLAR>
0

>  <SCORE.INTER.ROT>
9

>  <SCORE.INTER.SOLV>
9.51544

>  <SCORE.INTER.VDW>
-11.6554

>  <SCORE.INTER.norm>
0.128821

>  <SCORE.INTRA>
-13.7032

>  <SCORE.INTRA.DIHEDRAL>
-24.7057

>  <SCORE.INTRA.DIHEDRAL.0>
25.6828

>  <SCORE.INTRA.POLAR>
0

>  <SCORE.INTRA.POLAR.0>
0

>  <SCORE.INTRA.REPUL>
0

>  <SCORE.INTRA.REPUL.0>
0

>  <SCORE.INTRA.SOLV>
-0.973291

>  <SCORE.INTRA.SOLV.lig_0>
-48.5059

>  <SCORE.INTRA.VDW>
-0.863725

>  <SCORE.INTRA.VDW.0>
-0.363643

>  <SCORE.INTRA.norm>
-1.0541

>  <SCORE.RESTR>
0

>  <SCORE.RESTR.CAVITY>
0

>  <SCORE.RESTR.norm>
0

>  <SCORE.SYSTEM>
0

>  <SCORE.SYSTEM.CONST>
0

>  <SCORE.SYSTEM.DIHEDRAL>
0

>  <SCORE.SYSTEM.SOLV>
0

>  <SCORE.SYSTEM.norm>
0

>  <SCORE.heavy>
13

>  <SCORE.norm>
-0.925274

>  <RMSD>
7.570

$$$$
ligand
 OpenBabel11021811453D
libRbt.so/2013.1/901 2013/11/27
 13 12  0  0  0  0  0  0  0  0999 V2000
   33.6266   31.8477   48.6010 O   0  0  0  0  0  0  0  0  0  0  0  0
   36.1806   30.5647   48.1891 O   0  0  0  0  0  0  0  0  0  0  0  0
   29.0705   32.3521   46.4634 P   0  0  2  0  0  0  0  0  0  0  0  0
   27.6995   31.8930   46.8307 O   0  5  0  0  0  0  0  0  0  0  0  0
   29.6737   31.8914   45.1864 O   0  0  0  0  0  0  0  0  0  0  0  0
   30.0717   31.9571   47.6291 O   0  0  0  0  0  0  0  0  0  0  0  0
   39.1749   29.5986   46.3056 O   0  0  0  0  0  0  0  0  0  0  0  0
   31.4746   32.2406   47.5267 C   0  0  0  0  0  0  0  0  0  0  0  0
   35.9153   31.3164   49.4010 C   0  0  0  0  0  0  0  0  0  0  0  0
   37.7802   29.7351   46.5369 C   0  0  0  0  0  0  0  0  0  0  0  0
   32.2021   31.7530   48.7911 C   0  0  0  0  0  0  0  0  0  0  0  0
   34.4032   31.3625   49.7315 C   0  0  0  0  0  0  0  0  0  0  0  0
   37.5882   30.4941   47.8620 C   0  0  0  0  0  0  0  0  0  0  0  0
  1 12  1  0  0  0  0
  1 11  1  0  0  0  0
  2 13  1  0  0  0  0
  2  9  1  0  0  0  0
  3  4  1  1  0  0  0
  3  5  2  0  0  0  0
  3  6  1  0  0  0  0
  6  8  1  0  0  0  0
  7 10  1  0  0  0  0
  8 11  1  0  0  0  0
  9 12  1  0  0  0  0
 10 13  1  0  0  0  0
M  CHG  1   4  -1
M  END
>  <CHROM.1>
172.59142252,-177.58841154,178.07923744,179.97737191,171.12663411,-179.45690558
-53.42673833,-175.58291553,-177.95970564,33.05929491,31.39106657,47.49897360
0.05636457,-0.23489932,1.34421795

>  <Name>
ligand

>  <RI>
0

>  <Rbt.Current_Directory>
/home/itssahil/PROJECTS/Mol_Feturizer/New_Systems/rnas/2NPY

>  <Rbt.Executable>
rbdock ($Id: //depot/dev/client3/rdock/2013.1/src/exe/rbdock.cxx#4 $)

>  <Rbt.Library>
libRbt.so (2013.1, Build901 2013/11/27)

>  <Rbt.Parameter_File>
/export/apps/rDock/src/rDock_2013.1_src/data/scripts/dock_solv.prm

>  <Rbt.Receptor>
prm/pocket_docking_5.prm

>  <SCORE>
-12.0716

>  <SCORE.INTER>
1.79954

>  <SCORE.INTER.CONST>
1

>  <SCORE.INTER.POLAR>
0

>  <SCORE.INTER.ROT>
9

>  <SCORE.INTER.SOLV>
10.6882

>  <SCORE.INTER.VDW>
-11.963

>  <SCORE.INTER.norm>
0.138426

>  <SCORE.INTRA>
-13.8712

>  <SCORE.INTRA.DIHEDRAL>
-24.7545

>  <SCORE.INTRA.DIHEDRAL.0>
25.6828

>  <SCORE.INTRA.POLAR>
0

>  <SCORE.INTRA.POLAR.0>
0

>  <SCORE.INTRA.REPUL>
0

>  <SCORE.INTRA.REPUL.0>
0

>  <SCORE.INTRA.SOLV>
-1.34066

>  <SCORE.INTRA.SOLV.lig_0>
-48.5059

>  <SCORE.INTRA.VDW>
-0.823571

>  <SCORE.INTRA.VDW.0>
-0.363643

>  <SCORE.INTRA.norm>
-1.06701

>  <SCORE.RESTR>
0

>  <SCORE.RESTR.CAVITY>
0

>  <SCORE.RESTR.norm>
0

>  <SCORE.SYSTEM>
0

>  <SCORE.SYSTEM.CONST>
0

>  <SCORE.SYSTEM.DIHEDRAL>
0

>  <SCORE.SYSTEM.SOLV>
0

>  <SCORE.SYSTEM.norm>
0

>  <SCORE.heavy>
13

>  <SCORE.norm>
-0.928587

>  <RMSD>
7.586

$$$$
ligand
 OpenBabel11021811453D
libRbt.so/2013.1/901 2013/11/27
 13 12  0  0  0  0  0  0  0  0999 V2000
   33.2677   30.7653   42.8549 O   0  0  0  0  0  0  0  0  0  0  0  0
   36.0027   30.1775   43.6791 O   0  0  0  0  0  0  0  0  0  0  0  0
   29.8830   32.2911   45.0925 P   0  0  2  0  0  0  0  0  0  0  0  0
   29.4044   33.6940   44.9241 O   0  5  0  0  0  0  0  0  0  0  0  0
   30.4415   31.8657   46.4017 O   0  0  0  0  0  0  0  0  0  0  0  0
   30.9822   31.9897   43.9889 O   0  0  0  0  0  0  0  0  0  0  0  0
   38.8370   30.5252   45.9817 O   0  0  0  0  0  0  0  0  0  0  0  0
   32.2525   32.6567   44.0089 C   0  0  0  0  0  0  0  0  0  0  0  0
   35.6931   30.6456   42.3415 C   0  0  0  0  0  0  0  0  0  0  0  0
   37.5511   30.0854   45.5687 C   0  0  0  0  0  0  0  0  0  0  0  0
   33.1060   32.1959   42.8152 C   0  0  0  0  0  0  0  0  0  0  0  0
   34.2556   30.2599   41.9141 C   0  0  0  0  0  0  0  0  0  0  0  0
   37.3234   30.5661   44.1244 C   0  0  0  0  0  0  0  0  0  0  0  0
  1 12  1  0  0  0  0
  1 11  1  0  0  0  0
  2 13  1  0  0  0  0
  2  9  1  0  0  0  0
  3  4  1  1  0  0  0
  3  5  2  0  0  0  0
  3  6  1  0  0  0  0
  6  8  1  0  0  0  0
  7 10  1  0  0  0  0
  8 11  1  0  0  0  0
  9 12  1  0  0  0  0
 10 13  1  0  0  0  0
M  CHG  1   4  -1
M  END
>  <CHROM.1>
70.59538502,177.58245326,66.93971058,-178.92225786,-57.33257473,-177.87099390
56.62359392,-178.05452228,-169.37065779,33.42292956,31.44526519,44.23613600
0.10996093,0.28696073,-1.71677871

>  <Name>
ligand

>  <RI>
0

>  <Rbt.Current_Directory>
/home/itssahil/PROJECTS/Mol_Feturizer/New_Systems/rnas/2NPY

>  <Rbt.Executable>
rbdock ($Id: //depot/dev/client3/rdock/2013.1/src/exe/rbdock.cxx#4 $)

>  <Rbt.Library>
libRbt.so (2013.1, Build901 2013/11/27)

>  <Rbt.Parameter_File>
/export/apps/rDock/src/rDock_2013.1_src/data/scripts/dock_solv.prm

>  <Rbt.Receptor>
prm/pocket_docking_5.prm

>  <SCORE>
-11.5275

>  <SCORE.INTER>
1.50627

>  <SCORE.INTER.CONST>
1

>  <SCORE.INTER.POLAR>
0

>  <SCORE.INTER.ROT>
9

>  <SCORE.INTER.SOLV>
11.6978

>  <SCORE.INTER.VDW>
-12.4951

>  <SCORE.INTER.norm>
0.115867

>  <SCORE.INTRA>
-13.0337

>  <SCORE.INTRA.DIHEDRAL>
-24.4259

>  <SCORE.INTRA.DIHEDRAL.0>
25.6828

>  <SCORE.INTRA.POLAR>
0

>  <SCORE.INTRA.POLAR.0>
0

>  <SCORE.INTRA.REPUL>
0

>  <SCORE.INTRA.REPUL.0>
0

>  <SCORE.INTRA.SOLV>
-0.741072

>  <SCORE.INTRA.SOLV.lig_0>
-48.5059

>  <SCORE.INTRA.VDW>
-0.450251

>  <SCORE.INTRA.VDW.0>
-0.363643

>  <SCORE.INTRA.norm>
-1.0026

>  <SCORE.RESTR>
0

>  <SCORE.RESTR.CAVITY>
0

>  <SCORE.RESTR.norm>
0

>  <SCORE.SYSTEM>
0

>  <SCORE.SYSTEM.CONST>
0

>  <SCORE.SYSTEM.DIHEDRAL>
0

>  <SCORE.SYSTEM.SOLV>
0

>  <SCORE.SYSTEM.norm>
0

>  <SCORE.heavy>
13

>  <SCORE.norm>
-0.886728

>  <RMSD>
7.593

$$$$
ligand
 OpenBabel11021811453D
libRbt.so/2013.1/901 2013/11/27
 13 12  0  0  0  0  0  0  0  0999 V2000
   37.0807   30.7378   46.7668 O   0  0  0  0  0  0  0  0  0  0  0  0
   36.2118   30.2305   44.0085 O   0  0  0  0  0  0  0  0  0  0  0  0
   33.9880   31.6582   49.7421 P   0  0  2  0  0  0  0  0  0  0  0  0
   33.6294   32.8851   48.9731 O   0  5  0  0  0  0  0  0  0  0  0  0
   34.3902   31.7847   51.1666 O   0  0  0  0  0  0  0  0  0  0  0  0
   35.1608   30.9043   48.9847 O   0  0  0  0  0  0  0  0  0  0  0  0
   33.8075   31.4401   42.9373 O   0  0  0  0  0  0  0  0  0  0  0  0
   36.5107   31.3870   49.0457 C   0  0  0  0  0  0  0  0  0  0  0  0
   37.6106   30.3517   44.3729 C   0  0  0  0  0  0  0  0  0  0  0  0
   34.4642   30.3519   42.3032 C   0  0  0  0  0  0  0  0  0  0  0  0
   37.4171   30.5246   48.1509 C   0  0  0  0  0  0  0  0  0  0  0  0
   37.8621   29.9313   45.8419 C   0  0  0  0  0  0  0  0  0  0  0  0
   35.9700   30.4642   42.6012 C   0  0  0  0  0  0  0  0  0  0  0  0
  1 12  1  0  0  0  0
  1 11  1  0  0  0  0
  2 13  1  0  0  0  0
  2  9  1  0  0  0  0
  3  4  1  6  0  0  0
  3  5  2  0  0  0  0
  3  6  1  0  0  0  0
  6  8  1  0  0  0  0
  7 10  1  0  0  0  0
  8 11  1  0  0  0  0
  9 12  1  0  0  0  0
 10 13  1  0  0  0  0
M  CHG  1   4  -1
M  END
>  <CHROM.1>
-171.49038703,-178.61007600,76.11433603,-176.25727835,68.35774526,-173.13964640
-58.76960974,67.74564790,-178.28032416,35.52617087,31.04820701,46.82233127
-1.38925174,-0.34255773,1.44926823

>  <Name>
ligand

>  <RI>
0

>  <Rbt.Current_Directory>
/home/itssahil/PROJECTS/Mol_Feturizer/New_Systems/rnas/2NPY

>  <Rbt.Executable>
rbdock ($Id: //depot/dev/client3/rdock/2013.1/src/exe/rbdock.cxx#4 $)

>  <Rbt.Library>
libRbt.so (2013.1, Build901 2013/11/27)

>  <Rbt.Parameter_File>
/export/apps/rDock/src/rDock_2013.1_src/data/scripts/dock_solv.prm

>  <Rbt.Receptor>
prm/pocket_docking_8.prm

>  <SCORE>
-13.6438

>  <SCORE.INTER>
-0.0801093

>  <SCORE.INTER.CONST>
1

>  <SCORE.INTER.POLAR>
0

>  <SCORE.INTER.ROT>
9

>  <SCORE.INTER.SOLV>
11.711

>  <SCORE.INTER.VDW>
-13.5571

>  <SCORE.INTER.norm>
-0.00616225

>  <SCORE.INTRA>
-13.5637

>  <SCORE.INTRA.DIHEDRAL>
-24.3669

>  <SCORE.INTRA.DIHEDRAL.0>
25.6828

>  <SCORE.INTRA.POLAR>
0

>  <SCORE.INTRA.POLAR.0>
0

>  <SCORE.INTRA.REPUL>
0

>  <SCORE.INTRA.REPUL.0>
0

>  <SCORE.INTRA.SOLV>
-0.651374

>  <SCORE.INTRA.SOLV.lig_0>
-48.5059

>  <SCORE.INTRA.VDW>
-1.05452

>  <SCORE.INTRA.VDW.0>
-0.363643

>  <SCORE.INTRA.norm>
-1.04336

>  <SCORE.RESTR>
0

>  <SCORE.RESTR.CAVITY>
0

>  <SCORE.RESTR.norm>
0

>  <SCORE.SYSTEM>
0

>  <SCORE.SYSTEM.CONST>
0

>  <SCORE.SYSTEM.DIHEDRAL>
0

>  <SCORE.SYSTEM.SOLV>
0

>  <SCORE.SYSTEM.norm>
0

>  <SCORE.heavy>
13

>  <SCORE.norm>
-1.04952

>  <RMSD>
7.611

$$$$
ligand
 OpenBabel11021811453D
libRbt.so/2013.1/901 2013/11/27
 13 12  0  0  0  0  0  0  0  0999 V2000
   36.7651   30.4936   45.8803 O   0  0  0  0  0  0  0  0  0  0  0  0
   35.4822   30.9498   43.3232 O   0  0  0  0  0  0  0  0  0  0  0  0
   36.5082   31.4412   50.8425 P   0  0  2  0  0  0  0  0  0  0  0  0
   35.5013   32.5255   50.6537 O   0  5  0  0  0  0  0  0  0  0  0  0
   37.5424   31.5854   51.8992 O   0  0  0  0  0  0  0  0  0  0  0  0
   37.2656   31.2016   49.4691 O   0  0  0  0  0  0  0  0  0  0  0  0
   33.6715   32.6816   41.9489 O   0  0  0  0  0  0  0  0  0  0  0  0
   36.5482   30.8237   48.2853 C   0  0  0  0  0  0  0  0  0  0  0  0
   36.7270   30.2106   43.4147 C   0  0  0  0  0  0  0  0  0  0  0  0
   33.3362   31.3273   42.2147 C   0  0  0  0  0  0  0  0  0  0  0  0
   37.5033   30.7942   47.0800 C   0  0  0  0  0  0  0  0  0  0  0  0
   37.5496   30.6189   44.6615 C   0  0  0  0  0  0  0  0  0  0  0  0
   34.6390   30.5080   42.2336 C   0  0  0  0  0  0  0  0  0  0  0  0
  1 12  1  0  0  0  0
  1 11  1  0  0  0  0
  2 13  1  0  0  0  0
  2  9  1  0  0  0  0
  3  4  1  6  0  0  0
  3  5  2  0  0  0  0
  3  6  1  0  0  0  0
  6  8  1  0  0  0  0
  7 10  1  0  0  0  0
  8 11  1  0  0  0  0
  9 12  1  0  0  0  0
 10 13  1  0  0  0  0
M  CHG  1   4  -1
M  END
>  <CHROM.1>
176.93142968,179.34564826,-59.10065102,174.47202710,-176.55138126,-174.93948919
54.47852333,63.90668715,172.23155611,36.11197465,31.21112391,46.71528328
-1.84549443,-0.51144949,1.38887078

>  <Name>
ligand

>  <RI>
0

>  <Rbt.Current_Directory>
/home/itssahil/PROJECTS/Mol_Feturizer/New_Systems/rnas/2NPY

>  <Rbt.Executable>
rbdock ($Id: //depot/dev/client3/rdock/2013.1/src/exe/rbdock.cxx#4 $)

>  <Rbt.Library>
libRbt.so (2013.1, Build901 2013/11/27)

>  <Rbt.Parameter_File>
/export/apps/rDock/src/rDock_2013.1_src/data/scripts/dock_solv.prm

>  <Rbt.Receptor>
prm/pocket_docking_8.prm

>  <SCORE>
-13.3206

>  <SCORE.INTER>
0.662307

>  <SCORE.INTER.CONST>
1

>  <SCORE.INTER.POLAR>
0

>  <SCORE.INTER.ROT>
9

>  <SCORE.INTER.SOLV>
13.8184

>  <SCORE.INTER.VDW>
-13.7646

>  <SCORE.INTER.norm>
0.0509467

>  <SCORE.INTRA>
-13.9829

>  <SCORE.INTRA.DIHEDRAL>
-24.7995

>  <SCORE.INTRA.DIHEDRAL.0>
25.6828

>  <SCORE.INTRA.POLAR>
0

>  <SCORE.INTRA.POLAR.0>
0

>  <SCORE.INTRA.REPUL>
0

>  <SCORE.INTRA.REPUL.0>
0

>  <SCORE.INTRA.SOLV>
-1.16391

>  <SCORE.INTRA.SOLV.lig_0>
-48.5059

>  <SCORE.INTRA.VDW>
-1.00117

>  <SCORE.INTRA.VDW.0>
-0.363643

>  <SCORE.INTRA.norm>
-1.0756

>  <SCORE.RESTR>
0

>  <SCORE.RESTR.CAVITY>
0

>  <SCORE.RESTR.norm>
0

>  <SCORE.SYSTEM>
0

>  <SCORE.SYSTEM.CONST>
0

>  <SCORE.SYSTEM.DIHEDRAL>
0

>  <SCORE.SYSTEM.SOLV>
0

>  <SCORE.SYSTEM.norm>
0

>  <SCORE.heavy>
13

>  <SCORE.norm>
-1.02466

>  <RMSD>
7.614

$$$$
ligand
 OpenBabel11021811453D
libRbt.so/2013.1/901 2013/11/27
 13 12  0  0  0  0  0  0  0  0999 V2000
   36.3794   30.5763   48.1435 O   0  0  0  0  0  0  0  0  0  0  0  0
   36.8360   30.7596   45.2372 O   0  0  0  0  0  0  0  0  0  0  0  0
   32.5489   32.2090   49.3108 P   0  0  2  0  0  0  0  0  0  0  0  0
   32.4469   33.2844   50.3397 O   0  5  0  0  0  0  0  0  0  0  0  0
   31.9184   30.8897   49.5730 O   0  0  0  0  0  0  0  0  0  0  0  0
   34.0815   31.9464   48.9955 O   0  0  0  0  0  0  0  0  0  0  0  0
   36.4659   32.5245   43.0635 O   0  0  0  0  0  0  0  0  0  0  0  0
   34.9389   31.3226   49.9622 C   0  0  0  0  0  0  0  0  0  0  0  0
   37.6221   29.9019   46.1035 C   0  0  0  0  0  0  0  0  0  0  0  0
   35.8957   31.2241   43.0288 C   0  0  0  0  0  0  0  0  0  0  0  0
   36.3756   31.2470   49.4180 C   0  0  0  0  0  0  0  0  0  0  0  0
   37.7009   30.4571   47.5469 C   0  0  0  0  0  0  0  0  0  0  0  0
   36.7849   30.2905   43.8694 C   0  0  0  0  0  0  0  0  0  0  0  0
  1 12  1  0  0  0  0
  1 11  1  0  0  0  0
  2 13  1  0  0  0  0
  2  9  1  0  0  0  0
  3  4  1  1  0  0  0
  3  5  2  0  0  0  0
  3  6  1  0  0  0  0
  6  8  1  0  0  0  0
  7 10  1  0  0  0  0
  8 11  1  0  0  0  0
  9 12  1  0  0  0  0
 10 13  1  0  0  0  0
M  CHG  1   4  -1
M  END
>  <CHROM.1>
-172.42490633,178.04764177,70.07043130,-177.62190763,-54.97992891,177.90379240
60.00896382,60.56161808,179.96727036,35.11762935,31.37561941,47.45544266
-0.89069918,-0.41879995,1.69569941

>  <Name>
ligand

>  <RI>
0

>  <Rbt.Current_Directory>
/home/itssahil/PROJECTS/Mol_Feturizer/New_Systems/rnas/2NPY

>  <Rbt.Executable>
rbdock ($Id: //depot/dev/client3/rdock/2013.1/src/exe/rbdock.cxx#4 $)

>  <Rbt.Library>
libRbt.so (2013.1, Build901 2013/11/27)

>  <Rbt.Parameter_File>
/export/apps/rDock/src/rDock_2013.1_src/data/scripts/dock_solv.prm

>  <Rbt.Receptor>
prm/pocket_docking_7.prm

>  <SCORE>
-12.2951

>  <SCORE.INTER>
1.70685

>  <SCORE.INTER.CONST>
1

>  <SCORE.INTER.POLAR>
0

>  <SCORE.INTER.ROT>
9

>  <SCORE.INTER.SOLV>
7.72911

>  <SCORE.INTER.VDW>
-11.0385

>  <SCORE.INTER.norm>
0.131296

>  <SCORE.INTRA>
-14.0019

>  <SCORE.INTRA.DIHEDRAL>
-25.1847

>  <SCORE.INTRA.DIHEDRAL.0>
25.6828

>  <SCORE.INTRA.POLAR>
0

>  <SCORE.INTRA.POLAR.0>
0

>  <SCORE.INTRA.REPUL>
0

>  <SCORE.INTRA.REPUL.0>
0

>  <SCORE.INTRA.SOLV>
-0.572629

>  <SCORE.INTRA.SOLV.lig_0>
-48.5059

>  <SCORE.INTRA.VDW>
-1.1233

>  <SCORE.INTRA.VDW.0>
-0.363643

>  <SCORE.INTRA.norm>
-1.07707

>  <SCORE.RESTR>
0

>  <SCORE.RESTR.CAVITY>
0

>  <SCORE.RESTR.norm>
0

>  <SCORE.SYSTEM>
0

>  <SCORE.SYSTEM.CONST>
0

>  <SCORE.SYSTEM.DIHEDRAL>
0

>  <SCORE.SYSTEM.SOLV>
0

>  <SCORE.SYSTEM.norm>
0

>  <SCORE.heavy>
13

>  <SCORE.norm>
-0.945776

>  <RMSD>
7.615

$$$$
ligand
 OpenBabel11021811453D
libRbt.so/2013.1/901 2013/11/27
 13 12  0  0  0  0  0  0  0  0999 V2000
   37.1156   30.6827   46.6346 O   0  0  0  0  0  0  0  0  0  0  0  0
   36.1810   30.2204   43.8618 O   0  0  0  0  0  0  0  0  0  0  0  0
   34.1639   31.6907   49.6904 P   0  0  2  0  0  0  0  0  0  0  0  0
   33.7832   32.9059   48.9133 O   0  5  0  0  0  0  0  0  0  0  0  0
   34.6456   31.8426   51.0875 O   0  0  0  0  0  0  0  0  0  0  0  0
   35.2811   30.8997   48.8882 O   0  0  0  0  0  0  0  0  0  0  0  0
   33.7292   31.3939   42.9174 O   0  0  0  0  0  0  0  0  0  0  0  0
   36.6575   31.3010   48.9471 C   0  0  0  0  0  0  0  0  0  0  0  0
   37.5787   30.3816   44.2148 C   0  0  0  0  0  0  0  0  0  0  0  0
   34.4026   30.3756   42.1915 C   0  0  0  0  0  0  0  0  0  0  0  0
   37.4991   30.4293   47.9995 C   0  0  0  0  0  0  0  0  0  0  0  0
   37.8669   29.9064   45.6601 C   0  0  0  0  0  0  0  0  0  0  0  0
   35.9105   30.5087   42.4700 C   0  0  0  0  0  0  0  0  0  0  0  0
  1 12  1  0  0  0  0
  1 11  1  0  0  0  0
  2 13  1  0  0  0  0
  2  9  1  0  0  0  0
  3  4  1  6  0  0  0
  3  5  2  0  0  0  0
  3  6  1  0  0  0  0
  6  8  1  0  0  0  0
  7 10  1  0  0  0  0
  8 11  1  0  0  0  0
  9 12  1  0  0  0  0
 10 13  1  0  0  0  0
M  CHG  1   4  -1
M  END
>  <CHROM.1>
-170.76552426,-177.51534500,80.93667269,-175.83487200,65.94996238,-173.22175131
-61.56875835,65.86874298,179.61999138,35.59182972,31.04295879,46.71893448
-1.42807286,-0.35575342,1.43770870

>  <Name>
ligand

>  <RI>
0

>  <Rbt.Current_Directory>
/home/itssahil/PROJECTS/Mol_Feturizer/New_Systems/rnas/2NPY

>  <Rbt.Executable>
rbdock ($Id: //depot/dev/client3/rdock/2013.1/src/exe/rbdock.cxx#4 $)

>  <Rbt.Library>
libRbt.so (2013.1, Build901 2013/11/27)

>  <Rbt.Parameter_File>
/export/apps/rDock/src/rDock_2013.1_src/data/scripts/dock_solv.prm

>  <Rbt.Receptor>
prm/pocket_docking_5.prm

>  <SCORE>
-13.5762

>  <SCORE.INTER>
-0.0538497

>  <SCORE.INTER.CONST>
1

>  <SCORE.INTER.POLAR>
0

>  <SCORE.INTER.ROT>
9

>  <SCORE.INTER.SOLV>
11.5711

>  <SCORE.INTER.VDW>
-13.4929

>  <SCORE.INTER.norm>
-0.00414229

>  <SCORE.INTRA>
-13.5224

>  <SCORE.INTRA.DIHEDRAL>
-24.3813

>  <SCORE.INTRA.DIHEDRAL.0>
25.6828

>  <SCORE.INTRA.POLAR>
0

>  <SCORE.INTRA.POLAR.0>
0

>  <SCORE.INTRA.REPUL>
0

>  <SCORE.INTRA.REPUL.0>
0

>  <SCORE.INTRA.SOLV>
-0.634748

>  <SCORE.INTRA.SOLV.lig_0>
-48.5059

>  <SCORE.INTRA.VDW>
-1.01436

>  <SCORE.INTRA.VDW.0>
-0.363643

>  <SCORE.INTRA.norm>
-1.04018

>  <SCORE.RESTR>
0

>  <SCORE.RESTR.CAVITY>
0

>  <SCORE.RESTR.norm>
0

>  <SCORE.SYSTEM>
0

>  <SCORE.SYSTEM.CONST>
0

>  <SCORE.SYSTEM.DIHEDRAL>
0

>  <SCORE.SYSTEM.SOLV>
0

>  <SCORE.SYSTEM.norm>
0

>  <SCORE.heavy>
13

>  <SCORE.norm>
-1.04432

>  <RMSD>
7.617

$$$$
ligand
 OpenBabel11021811453D
libRbt.so/2013.1/901 2013/11/27
 13 12  0  0  0  0  0  0  0  0999 V2000
   33.6596   32.4699   42.6487 O   0  0  0  0  0  0  0  0  0  0  0  0
   36.0795   31.4216   43.8377 O   0  0  0  0  0  0  0  0  0  0  0  0
   29.4636   32.4468   45.4821 P   0  0  2  0  0  0  0  0  0  0  0  0
   28.5789   31.3673   46.0087 O   0  5  0  0  0  0  0  0  0  0  0  0
   28.8602   33.5851   44.7424 O   0  0  0  0  0  0  0  0  0  0  0  0
   30.5583   31.7952   44.5364 O   0  0  0  0  0  0  0  0  0  0  0  0
   38.9018   31.5103   43.5857 O   0  0  0  0  0  0  0  0  0  0  0  0
   31.6589   32.5687   44.0370 C   0  0  0  0  0  0  0  0  0  0  0  0
   35.4311   30.7337   42.7374 C   0  0  0  0  0  0  0  0  0  0  0  0
   38.2385   30.2749   43.8124 C   0  0  0  0  0  0  0  0  0  0  0  0
   32.5759   31.6822   43.1773 C   0  0  0  0  0  0  0  0  0  0  0  0
   34.6088   31.7047   41.8550 C   0  0  0  0  0  0  0  0  0  0  0  0
   36.9527   30.5626   44.6079 C   0  0  0  0  0  0  0  0  0  0  0  0
  1 12  1  0  0  0  0
  1 11  1  0  0  0  0
  2 13  1  0  0  0  0
  2  9  1  0  0  0  0
  3  4  1  6  0  0  0
  3  5  2  0  0  0  0
  3  6  1  0  0  0  0
  6  8  1  0  0  0  0
  7 10  1  0  0  0  0
  8 11  1  0  0  0  0
  9 12  1  0  0  0  0
 10 13  1  0  0  0  0
M  CHG  1   4  -1
M  END
>  <CHROM.1>
-69.37818932,73.85959507,-171.18977571,178.72178082,178.47345771,-174.69235238
-54.01439323,61.62498919,178.06807350,33.13977075,31.77969364,44.06980137
0.12724235,0.23341036,-1.18860502

>  <Name>
ligand

>  <RI>
0

>  <Rbt.Current_Directory>
/home/itssahil/PROJECTS/Mol_Feturizer/New_Systems/rnas/2NPY

>  <Rbt.Executable>
rbdock ($Id: //depot/dev/client3/rdock/2013.1/src/exe/rbdock.cxx#4 $)

>  <Rbt.Library>
libRbt.so (2013.1, Build901 2013/11/27)

>  <Rbt.Parameter_File>
/export/apps/rDock/src/rDock_2013.1_src/data/scripts/dock_solv.prm

>  <Rbt.Receptor>
prm/pocket_docking_5.prm

>  <SCORE>
-8.57168

>  <SCORE.INTER>
3.41323

>  <SCORE.INTER.CONST>
1

>  <SCORE.INTER.POLAR>
0

>  <SCORE.INTER.ROT>
9

>  <SCORE.INTER.SOLV>
10.193

>  <SCORE.INTER.VDW>
-10.7222

>  <SCORE.INTER.norm>
0.262556

>  <SCORE.INTRA>
-11.9849

>  <SCORE.INTRA.DIHEDRAL>
-23.9894

>  <SCORE.INTRA.DIHEDRAL.0>
25.6828

>  <SCORE.INTRA.POLAR>
0

>  <SCORE.INTRA.POLAR.0>
0

>  <SCORE.INTRA.REPUL>
0

>  <SCORE.INTRA.REPUL.0>
0

>  <SCORE.INTRA.SOLV>
-0.966733

>  <SCORE.INTRA.SOLV.lig_0>
-48.5059

>  <SCORE.INTRA.VDW>
0.493177

>  <SCORE.INTRA.VDW.0>
-0.363643

>  <SCORE.INTRA.norm>
-0.921916

>  <SCORE.RESTR>
0

>  <SCORE.RESTR.CAVITY>
0

>  <SCORE.RESTR.norm>
0

>  <SCORE.SYSTEM>
0

>  <SCORE.SYSTEM.CONST>
0

>  <SCORE.SYSTEM.DIHEDRAL>
0

>  <SCORE.SYSTEM.SOLV>
0

>  <SCORE.SYSTEM.norm>
0

>  <SCORE.heavy>
13

>  <SCORE.norm>
-0.65936

>  <RMSD>
7.618

$$$$
ligand
 OpenBabel11021811453D
libRbt.so/2013.1/901 2013/11/27
 13 12  0  0  0  0  0  0  0  0999 V2000
   36.4702   31.1741   48.1752 O   0  0  0  0  0  0  0  0  0  0  0  0
   36.9416   30.3385   45.4253 O   0  0  0  0  0  0  0  0  0  0  0  0
   32.2742   31.9371   49.2548 P   0  0  2  0  0  0  0  0  0  0  0  0
   32.2557   33.2273   48.5061 O   0  5  0  0  0  0  0  0  0  0  0  0
   31.8772   31.9216   50.6862 O   0  0  0  0  0  0  0  0  0  0  0  0
   33.7294   31.3119   49.1607 O   0  0  0  0  0  0  0  0  0  0  0  0
   35.1808   31.4082   43.4302 O   0  0  0  0  0  0  0  0  0  0  0  0
   34.8425   31.9262   49.8259 C   0  0  0  0  0  0  0  0  0  0  0  0
   38.0373   30.5760   46.3458 C   0  0  0  0  0  0  0  0  0  0  0  0
   36.0813   30.3496   43.1370 C   0  0  0  0  0  0  0  0  0  0  0  0
   36.1213   31.1103   49.5711 C   0  0  0  0  0  0  0  0  0  0  0  0
   37.6134   30.3485   47.8176 C   0  0  0  0  0  0  0  0  0  0  0  0
   37.3179   30.5114   44.0389 C   0  0  0  0  0  0  0  0  0  0  0  0
  1 12  1  0  0  0  0
  1 11  1  0  0  0  0
  2 13  1  0  0  0  0
  2  9  1  0  0  0  0
  3  4  1  1  0  0  0
  3  5  2  0  0  0  0
  3  6  1  0  0  0  0
  6  8  1  0  0  0  0
  7 10  1  0  0  0  0
  8 11  1  0  0  0  0
  9 12  1  0  0  0  0
 10 13  1  0  0  0  0
M  CHG  1   4  -1
M  END
>  <CHROM.1>
-173.72995713,-175.65396256,68.74518035,179.75491264,66.13073834,-178.55270696
-56.19103731,64.92156500,-175.64286883,34.99672505,31.31548187,47.50325513
-0.86305085,-0.30357324,1.53696139

>  <Name>
ligand

>  <RI>
0

>  <Rbt.Current_Directory>
/home/itssahil/PROJECTS/Mol_Feturizer/New_Systems/rnas/2NPY

>  <Rbt.Executable>
rbdock ($Id: //depot/dev/client3/rdock/2013.1/src/exe/rbdock.cxx#4 $)

>  <Rbt.Library>
libRbt.so (2013.1, Build901 2013/11/27)

>  <Rbt.Parameter_File>
/export/apps/rDock/src/rDock_2013.1_src/data/scripts/dock_solv.prm

>  <Rbt.Receptor>
prm/pocket_docking_5.prm

>  <SCORE>
-12.3083

>  <SCORE.INTER>
1.65009

>  <SCORE.INTER.CONST>
1

>  <SCORE.INTER.POLAR>
0

>  <SCORE.INTER.ROT>
9

>  <SCORE.INTER.SOLV>
6.4901

>  <SCORE.INTER.VDW>
-10.6633

>  <SCORE.INTER.norm>
0.12693

>  <SCORE.INTRA>
-13.9584

>  <SCORE.INTRA.DIHEDRAL>
-24.9643

>  <SCORE.INTRA.DIHEDRAL.0>
25.6828

>  <SCORE.INTRA.POLAR>
0

>  <SCORE.INTRA.POLAR.0>
0

>  <SCORE.INTRA.REPUL>
0

>  <SCORE.INTRA.REPUL.0>
0

>  <SCORE.INTRA.SOLV>
-0.639487

>  <SCORE.INTRA.SOLV.lig_0>
-48.5059

>  <SCORE.INTRA.VDW>
-1.15644

>  <SCORE.INTRA.VDW.0>
-0.363643

>  <SCORE.INTRA.norm>
-1.07372

>  <SCORE.RESTR>
0

>  <SCORE.RESTR.CAVITY>
0

>  <SCORE.RESTR.norm>
0

>  <SCORE.SYSTEM>
0

>  <SCORE.SYSTEM.CONST>
0

>  <SCORE.SYSTEM.DIHEDRAL>
0

>  <SCORE.SYSTEM.SOLV>
0

>  <SCORE.SYSTEM.norm>
0

>  <SCORE.heavy>
13

>  <SCORE.norm>
-0.94679

>  <RMSD>
7.638

$$$$
ligand
 OpenBabel11021811453D
libRbt.so/2013.1/901 2013/11/27
 13 12  0  0  0  0  0  0  0  0999 V2000
   32.1092   32.5362   42.8942 O   0  0  0  0  0  0  0  0  0  0  0  0
   35.6210   31.2112   42.6627 O   0  0  0  0  0  0  0  0  0  0  0  0
   28.4752   32.2657   46.4077 P   0  0  2  0  0  0  0  0  0  0  0  0
   28.3140   31.4789   47.6647 O   0  5  0  0  0  0  0  0  0  0  0  0
   27.3765   32.2719   45.4078 O   0  0  0  0  0  0  0  0  0  0  0  0
   29.7889   31.7778   45.6638 O   0  0  0  0  0  0  0  0  0  0  0  0
   38.9512   30.2327   43.8479 O   0  0  0  0  0  0  0  0  0  0  0  0
   30.3462   32.5310   44.5770 C   0  0  0  0  0  0  0  0  0  0  0  0
   34.4977   31.9431   43.2164 C   0  0  0  0  0  0  0  0  0  0  0  0
   37.9008   30.3609   42.9005 C   0  0  0  0  0  0  0  0  0  0  0  0
   31.6050   31.8273   44.0420 C   0  0  0  0  0  0  0  0  0  0  0  0
   33.2669   31.9069   42.2776 C   0  0  0  0  0  0  0  0  0  0  0  0
   36.7438   31.1228   43.5711 C   0  0  0  0  0  0  0  0  0  0  0  0
  1 12  1  0  0  0  0
  1 11  1  0  0  0  0
  2 13  1  0  0  0  0
  2  9  1  0  0  0  0
  3  4  1  1  0  0  0
  3  5  2  0  0  0  0
  3  6  1  0  0  0  0
  6  8  1  0  0  0  0
  7 10  1  0  0  0  0
  8 11  1  0  0  0  0
  9 12  1  0  0  0  0
 10 13  1  0  0  0  0
M  CHG  1   4  -1
M  END
>  <CHROM.1>
-66.41156144,-178.78656890,-167.15220893,-179.69402209,176.10165343,-174.62981348
174.70854410,-176.84689927,-177.22241233,32.31627128,31.69686985,44.44012704
0.26718814,0.24428663,-1.23869036

>  <Name>
ligand

>  <RI>
0

>  <Rbt.Current_Directory>
/home/itssahil/PROJECTS/Mol_Feturizer/New_Systems/rnas/2NPY

>  <Rbt.Executable>
rbdock ($Id: //depot/dev/client3/rdock/2013.1/src/exe/rbdock.cxx#4 $)

>  <Rbt.Library>
libRbt.so (2013.1, Build901 2013/11/27)

>  <Rbt.Parameter_File>
/export/apps/rDock/src/rDock_2013.1_src/data/scripts/dock_solv.prm

>  <Rbt.Receptor>
prm/pocket_docking_7.prm

>  <SCORE>
-9.07986

>  <SCORE.INTER>
4.07195

>  <SCORE.INTER.CONST>
1

>  <SCORE.INTER.POLAR>
0

>  <SCORE.INTER.ROT>
9

>  <SCORE.INTER.SOLV>
10.7753

>  <SCORE.INTER.VDW>
-10.4771

>  <SCORE.INTER.norm>
0.313227

>  <SCORE.INTRA>
-13.1518

>  <SCORE.INTRA.DIHEDRAL>
-25.0042

>  <SCORE.INTRA.DIHEDRAL.0>
25.6828

>  <SCORE.INTRA.POLAR>
0

>  <SCORE.INTRA.POLAR.0>
0

>  <SCORE.INTRA.REPUL>
0

>  <SCORE.INTRA.REPUL.0>
0

>  <SCORE.INTRA.SOLV>
-1.56646

>  <SCORE.INTRA.SOLV.lig_0>
-48.5059

>  <SCORE.INTRA.VDW>
0.133541

>  <SCORE.INTRA.VDW.0>
-0.363643

>  <SCORE.INTRA.norm>
-1.01168

>  <SCORE.RESTR>
0

>  <SCORE.RESTR.CAVITY>
0

>  <SCORE.RESTR.norm>
0

>  <SCORE.SYSTEM>
0

>  <SCORE.SYSTEM.CONST>
0

>  <SCORE.SYSTEM.DIHEDRAL>
0

>  <SCORE.SYSTEM.SOLV>
0

>  <SCORE.SYSTEM.norm>
0

>  <SCORE.heavy>
13

>  <SCORE.norm>
-0.698451

>  <RMSD>
7.649

$$$$
ligand
 OpenBabel11021811453D
libRbt.so/2013.1/901 2013/11/27
 13 12  0  0  0  0  0  0  0  0999 V2000
   38.7464   29.1265   46.9345 O   0  0  0  0  0  0  0  0  0  0  0  0
   37.4897   31.0389   48.8809 O   0  0  0  0  0  0  0  0  0  0  0  0
   36.8729   31.8486   43.0985 P   0  0  2  0  0  0  0  0  0  0  0  0
   35.5396   32.4683   42.8463 O   0  5  0  0  0  0  0  0  0  0  0  0
   37.5178   31.0492   42.0251 O   0  0  0  0  0  0  0  0  0  0  0  0
   36.7718   30.9220   44.3824 O   0  0  0  0  0  0  0  0  0  0  0  0
   34.6678   31.1297   49.1284 O   0  0  0  0  0  0  0  0  0  0  0  0
   37.9518   30.4573   45.0537 C   0  0  0  0  0  0  0  0  0  0  0  0
   38.7946   30.4275   49.0477 C   0  0  0  0  0  0  0  0  0  0  0  0
   35.4838   32.0192   49.8770 C   0  0  0  0  0  0  0  0  0  0  0  0
   37.5606   29.6251   46.2867 C   0  0  0  0  0  0  0  0  0  0  0  0
   39.4735   30.1375   47.6865 C   0  0  0  0  0  0  0  0  0  0  0  0
   36.8324   31.3247   50.1377 C   0  0  0  0  0  0  0  0  0  0  0  0
  1 12  1  0  0  0  0
  1 11  1  0  0  0  0
  2 13  1  0  0  0  0
  2  9  1  0  0  0  0
  3  4  1  6  0  0  0
  3  5  2  0  0  0  0
  3  6  1  0  0  0  0
  6  8  1  0  0  0  0
  7 10  1  0  0  0  0
  8 11  1  0  0  0  0
  9 12  1  0  0  0  0
 10 13  1  0  0  0  0
M  CHG  1   4  -1
M  END
>  <CHROM.1>
77.94539395,177.80195774,-164.69562076,177.99699026,178.26118535,-179.85080636
-65.94217791,61.55296342,74.82941670,37.15751553,30.97091259,46.24092059
-1.54242445,0.53476133,-1.48889783

>  <Name>
ligand

>  <RI>
0

>  <Rbt.Current_Directory>
/home/itssahil/PROJECTS/Mol_Feturizer/New_Systems/rnas/2NPY

>  <Rbt.Executable>
rbdock ($Id: //depot/dev/client3/rdock/2013.1/src/exe/rbdock.cxx#4 $)

>  <Rbt.Library>
libRbt.so (2013.1, Build901 2013/11/27)

>  <Rbt.Parameter_File>
/export/apps/rDock/src/rDock_2013.1_src/data/scripts/dock_solv.prm

>  <Rbt.Receptor>
prm/pocket_docking_6.prm

>  <SCORE>
-9.26993

>  <SCORE.INTER>
2.59708

>  <SCORE.INTER.CONST>
1

>  <SCORE.INTER.POLAR>
0

>  <SCORE.INTER.ROT>
9

>  <SCORE.INTER.SOLV>
5.39852

>  <SCORE.INTER.VDW>
-9.66812

>  <SCORE.INTER.norm>
0.199775

>  <SCORE.INTRA>
-11.867

>  <SCORE.INTRA.DIHEDRAL>
-22.8438

>  <SCORE.INTRA.DIHEDRAL.0>
25.6828

>  <SCORE.INTRA.POLAR>
0

>  <SCORE.INTRA.POLAR.0>
0

>  <SCORE.INTRA.REPUL>
0

>  <SCORE.INTRA.REPUL.0>
0

>  <SCORE.INTRA.SOLV>
-0.973794

>  <SCORE.INTRA.SOLV.lig_0>
-48.5059

>  <SCORE.INTRA.VDW>
0.0417746

>  <SCORE.INTRA.VDW.0>
-0.363643

>  <SCORE.INTRA.norm>
-0.912847

>  <SCORE.RESTR>
0

>  <SCORE.RESTR.CAVITY>
0

>  <SCORE.RESTR.norm>
0

>  <SCORE.SYSTEM>
0

>  <SCORE.SYSTEM.CONST>
0

>  <SCORE.SYSTEM.DIHEDRAL>
0

>  <SCORE.SYSTEM.SOLV>
0

>  <SCORE.SYSTEM.norm>
0

>  <SCORE.heavy>
13

>  <SCORE.norm>
-0.713072

>  <RMSD>
7.650

$$$$
ligand
 OpenBabel11021811453D
libRbt.so/2013.1/901 2013/11/27
 13 12  0  0  0  0  0  0  0  0999 V2000
   34.0401   32.0211   41.8290 O   0  0  0  0  0  0  0  0  0  0  0  0
   36.8418   31.3966   42.6452 O   0  0  0  0  0  0  0  0  0  0  0  0
   30.3292   32.3741   45.2548 P   0  0  2  0  0  0  0  0  0  0  0  0
   29.4068   33.2278   44.4513 O   0  5  0  0  0  0  0  0  0  0  0  0
   31.1744   33.0028   46.3023 O   0  0  0  0  0  0  0  0  0  0  0  0
   31.2989   31.5984   44.2671 O   0  0  0  0  0  0  0  0  0  0  0  0
   38.0173   29.7639   45.7128 O   0  0  0  0  0  0  0  0  0  0  0  0
   32.2450   32.3058   43.4527 C   0  0  0  0  0  0  0  0  0  0  0  0
   35.9535   30.4493   41.9988 C   0  0  0  0  0  0  0  0  0  0  0  0
   37.0633   30.3707   44.8532 C   0  0  0  0  0  0  0  0  0  0  0  0
   33.0902   31.3076   42.6433 C   0  0  0  0  0  0  0  0  0  0  0  0
   34.9324   31.1555   41.0734 C   0  0  0  0  0  0  0  0  0  0  0  0
   37.7797   30.7681   43.5502 C   0  0  0  0  0  0  0  0  0  0  0  0
  1 12  1  0  0  0  0
  1 11  1  0  0  0  0
  2 13  1  0  0  0  0
  2  9  1  0  0  0  0
  3  4  1  6  0  0  0
  3  5  2  0  0  0  0
  3  6  1  0  0  0  0
  6  8  1  0  0  0  0
  7 10  1  0  0  0  0
  8 11  1  0  0  0  0
  9 12  1  0  0  0  0
 10 13  1  0  0  0  0
M  CHG  1   4  -1
M  END
>  <CHROM.1>
-71.06920224,-75.97222913,64.73236595,177.57069699,-179.89626625,178.11990538
-63.87820556,-179.78950550,177.14321242,33.68672525,31.60500024,43.84852127
0.18579483,0.30481610,-1.52463701

>  <Name>
ligand

>  <RI>
0

>  <Rbt.Current_Directory>
/home/itssahil/PROJECTS/Mol_Feturizer/New_Systems/rnas/2NPY

>  <Rbt.Executable>
rbdock ($Id: //depot/dev/client3/rdock/2013.1/src/exe/rbdock.cxx#4 $)

>  <Rbt.Library>
libRbt.so (2013.1, Build901 2013/11/27)

>  <Rbt.Parameter_File>
/export/apps/rDock/src/rDock_2013.1_src/data/scripts/dock_solv.prm

>  <Rbt.Receptor>
prm/pocket_docking_4.prm

>  <SCORE>
-8.88307

>  <SCORE.INTER>
3.09321

>  <SCORE.INTER.CONST>
1

>  <SCORE.INTER.POLAR>
0

>  <SCORE.INTER.ROT>
9

>  <SCORE.INTER.SOLV>
9.95105

>  <SCORE.INTER.VDW>
-10.8549

>  <SCORE.INTER.norm>
0.23794

>  <SCORE.INTRA>
-11.9763

>  <SCORE.INTRA.DIHEDRAL>
-23.7344

>  <SCORE.INTRA.DIHEDRAL.0>
25.6828

>  <SCORE.INTRA.POLAR>
0

>  <SCORE.INTRA.POLAR.0>
0

>  <SCORE.INTRA.REPUL>
0

>  <SCORE.INTRA.REPUL.0>
0

>  <SCORE.INTRA.SOLV>
-0.83906

>  <SCORE.INTRA.SOLV.lig_0>
-48.5059

>  <SCORE.INTRA.VDW>
0.310456

>  <SCORE.INTRA.VDW.0>
-0.363643

>  <SCORE.INTRA.norm>
-0.921253

>  <SCORE.RESTR>
0

>  <SCORE.RESTR.CAVITY>
0

>  <SCORE.RESTR.norm>
0

>  <SCORE.SYSTEM>
0

>  <SCORE.SYSTEM.CONST>
0

>  <SCORE.SYSTEM.DIHEDRAL>
0

>  <SCORE.SYSTEM.SOLV>
0

>  <SCORE.SYSTEM.norm>
0

>  <SCORE.heavy>
13

>  <SCORE.norm>
-0.683313

>  <RMSD>
7.659

$$$$
ligand
 OpenBabel11021811453D
libRbt.so/2013.1/901 2013/11/27
 13 12  0  0  0  0  0  0  0  0999 V2000
   36.4760   30.5581   47.9745 O   0  0  0  0  0  0  0  0  0  0  0  0
   36.8304   30.6740   45.0987 O   0  0  0  0  0  0  0  0  0  0  0  0
   32.7481   32.3296   49.2981 P   0  0  2  0  0  0  0  0  0  0  0  0
   32.0084   31.0549   49.5293 O   0  5  0  0  0  0  0  0  0  0  0  0
   32.2468   33.2863   48.2780 O   0  0  0  0  0  0  0  0  0  0  0  0
   34.2525   31.9881   48.9274 O   0  0  0  0  0  0  0  0  0  0  0  0
   35.6802   30.6291   41.6155 O   0  0  0  0  0  0  0  0  0  0  0  0
   35.1005   31.2883   49.8493 C   0  0  0  0  0  0  0  0  0  0  0  0
   37.6655   29.8222   45.9241 C   0  0  0  0  0  0  0  0  0  0  0  0
   35.7707   31.1270   42.9427 C   0  0  0  0  0  0  0  0  0  0  0  0
   36.5227   31.1778   49.2738 C   0  0  0  0  0  0  0  0  0  0  0  0
   37.7849   30.3601   47.3713 C   0  0  0  0  0  0  0  0  0  0  0  0
   36.7132   30.2038   43.7353 C   0  0  0  0  0  0  0  0  0  0  0  0
  1 12  1  0  0  0  0
  1 11  1  0  0  0  0
  2 13  1  0  0  0  0
  2  9  1  0  0  0  0
  3  4  1  6  0  0  0
  3  5  2  0  0  0  0
  3  6  1  0  0  0  0
  6  8  1  0  0  0  0
  7 10  1  0  0  0  0
  8 11  1  0  0  0  0
  9 12  1  0  0  0  0
 10 13  1  0  0  0  0
M  CHG  1   4  -1
M  END
>  <CHROM.1>
-174.36599094,177.77813573,-61.31349471,-176.14958861,-55.23522633,179.32946038
54.80600006,-179.81741680,-177.61527200,35.11471401,31.22681711,47.10054950
-1.00111213,-0.37588180,1.53701635

>  <Name>
ligand

>  <RI>
0

>  <Rbt.Current_Directory>
/home/itssahil/PROJECTS/Mol_Feturizer/New_Systems/rnas/2NPY

>  <Rbt.Executable>
rbdock ($Id: //depot/dev/client3/rdock/2013.1/src/exe/rbdock.cxx#4 $)

>  <Rbt.Library>
libRbt.so (2013.1, Build901 2013/11/27)

>  <Rbt.Parameter_File>
/export/apps/rDock/src/rDock_2013.1_src/data/scripts/dock_solv.prm

>  <Rbt.Receptor>
prm/pocket_docking_5.prm

>  <SCORE>
-12.8498

>  <SCORE.INTER>
1.4588

>  <SCORE.INTER.CONST>
1

>  <SCORE.INTER.POLAR>
0

>  <SCORE.INTER.ROT>
9

>  <SCORE.INTER.SOLV>
7.79374

>  <SCORE.INTER.VDW>
-11.2254

>  <SCORE.INTER.norm>
0.112215

>  <SCORE.INTRA>
-14.3086

>  <SCORE.INTRA.DIHEDRAL>
-25.1391

>  <SCORE.INTRA.DIHEDRAL.0>
25.6828

>  <SCORE.INTRA.POLAR>
0

>  <SCORE.INTRA.POLAR.0>
0

>  <SCORE.INTRA.REPUL>
0

>  <SCORE.INTRA.REPUL.0>
0

>  <SCORE.INTRA.SOLV>
-1.3088

>  <SCORE.INTRA.SOLV.lig_0>
-48.5059

>  <SCORE.INTRA.VDW>
-1.08468

>  <SCORE.INTRA.VDW.0>
-0.363643

>  <SCORE.INTRA.norm>
-1.10066

>  <SCORE.RESTR>
0

>  <SCORE.RESTR.CAVITY>
0

>  <SCORE.RESTR.norm>
0

>  <SCORE.SYSTEM>
0

>  <SCORE.SYSTEM.CONST>
0

>  <SCORE.SYSTEM.DIHEDRAL>
0

>  <SCORE.SYSTEM.SOLV>
0

>  <SCORE.SYSTEM.norm>
0

>  <SCORE.heavy>
13

>  <SCORE.norm>
-0.988448

>  <RMSD>
7.667

$$$$
ligand
 OpenBabel11021811453D
libRbt.so/2013.1/901 2013/11/27
 13 12  0  0  0  0  0  0  0  0999 V2000
   33.9203   31.7219   43.2633 O   0  0  0  0  0  0  0  0  0  0  0  0
   36.4823   30.5102   44.0117 O   0  0  0  0  0  0  0  0  0  0  0  0
   29.4725   33.2410   45.1360 P   0  0  2  0  0  0  0  0  0  0  0  0
   28.2966   32.3904   45.4810 O   0  5  0  0  0  0  0  0  0  0  0  0
   29.2488   34.5868   44.5479 O   0  0  0  0  0  0  0  0  0  0  0  0
   30.4092   32.4385   44.1380 O   0  0  0  0  0  0  0  0  0  0  0  0
   37.7464   29.0597   46.1074 O   0  0  0  0  0  0  0  0  0  0  0  0
   31.8354   32.5912   44.1784 C   0  0  0  0  0  0  0  0  0  0  0  0
   36.1477   30.8245   42.6356 C   0  0  0  0  0  0  0  0  0  0  0  0
   38.1568   30.3815   45.7882 C   0  0  0  0  0  0  0  0  0  0  0  0
   32.4887   31.7026   43.1063 C   0  0  0  0  0  0  0  0  0  0  0  0
   34.6189   30.7898   42.3917 C   0  0  0  0  0  0  0  0  0  0  0  0
   37.8988   30.6122   44.2885 C   0  0  0  0  0  0  0  0  0  0  0  0
  1 12  1  0  0  0  0
  1 11  1  0  0  0  0
  2 13  1  0  0  0  0
  2  9  1  0  0  0  0
  3  4  1  6  0  0  0
  3  5  2  0  0  0  0
  3  6  1  0  0  0  0
  6  8  1  0  0  0  0
  7 10  1  0  0  0  0
  8 11  1  0  0  0  0
  9 12  1  0  0  0  0
 10 13  1  0  0  0  0
M  CHG  1   4  -1
M  END
>  <CHROM.1>
-178.26705829,175.24139001,-145.86719312,-179.92646056,-172.48629501,-176.56696800
58.24105270,62.64215223,173.30750236,33.21218057,31.74542024,44.32857785
-0.01767322,0.36394901,-1.43590960

>  <Name>
ligand

>  <RI>
0

>  <Rbt.Current_Directory>
/home/itssahil/PROJECTS/Mol_Feturizer/New_Systems/rnas/2NPY

>  <Rbt.Executable>
rbdock ($Id: //depot/dev/client3/rdock/2013.1/src/exe/rbdock.cxx#4 $)

>  <Rbt.Library>
libRbt.so (2013.1, Build901 2013/11/27)

>  <Rbt.Parameter_File>
/export/apps/rDock/src/rDock_2013.1_src/data/scripts/dock_solv.prm

>  <Rbt.Receptor>
prm/pocket_docking_4.prm

>  <SCORE>
-11.1136

>  <SCORE.INTER>
2.72993

>  <SCORE.INTER.CONST>
1

>  <SCORE.INTER.POLAR>
0

>  <SCORE.INTER.ROT>
9

>  <SCORE.INTER.SOLV>
9.51203

>  <SCORE.INTER.VDW>
-10.9507

>  <SCORE.INTER.norm>
0.209995

>  <SCORE.INTRA>
-13.8509

>  <SCORE.INTRA.DIHEDRAL>
-24.274

>  <SCORE.INTRA.DIHEDRAL.0>
25.6828

>  <SCORE.INTRA.POLAR>
0

>  <SCORE.INTRA.POLAR.0>
0

>  <SCORE.INTRA.REPUL>
0

>  <SCORE.INTRA.REPUL.0>
0

>  <SCORE.INTRA.SOLV>
-1.30156

>  <SCORE.INTRA.SOLV.lig_0>
-48.5059

>  <SCORE.INTRA.VDW>
-1.06318

>  <SCORE.INTRA.VDW.0>
-0.363643

>  <SCORE.INTRA.norm>
-1.06546

>  <SCORE.RESTR>
0.00742141

>  <SCORE.RESTR.CAVITY>
0.00742141

>  <SCORE.RESTR.norm>
0.000570878

>  <SCORE.SYSTEM>
0

>  <SCORE.SYSTEM.CONST>
0

>  <SCORE.SYSTEM.DIHEDRAL>
0

>  <SCORE.SYSTEM.SOLV>
0

>  <SCORE.SYSTEM.norm>
0

>  <SCORE.heavy>
13

>  <SCORE.norm>
-0.854892

>  <RMSD>
7.740

$$$$
ligand
 OpenBabel11021811453D
libRbt.so/2013.1/901 2013/11/27
 13 12  0  0  0  0  0  0  0  0999 V2000
   38.0531   30.1186   44.9367 O   0  0  0  0  0  0  0  0  0  0  0  0
   36.9484   30.5759   48.4997 O   0  0  0  0  0  0  0  0  0  0  0  0
   38.3644   32.5246   41.2901 P   0  0  2  0  0  0  0  0  0  0  0  0
   39.3234   31.6104   40.6045 O   0  5  0  0  0  0  0  0  0  0  0  0
   38.7746   33.9222   41.5821 O   0  0  0  0  0  0  0  0  0  0  0  0
   37.9217   31.8649   42.6635 O   0  0  0  0  0  0  0  0  0  0  0  0
   35.6129   32.3335   51.4296 O   0  0  0  0  0  0  0  0  0  0  0  0
   37.2384   30.6035   42.6915 C   0  0  0  0  0  0  0  0  0  0  0  0
   37.0494   30.8626   47.0813 C   0  0  0  0  0  0  0  0  0  0  0  0
   36.3389   31.3217   50.7467 C   0  0  0  0  0  0  0  0  0  0  0  0
   36.8608   30.2433   44.1384 C   0  0  0  0  0  0  0  0  0  0  0  0
   37.7976   29.7419   46.3185 C   0  0  0  0  0  0  0  0  0  0  0  0
   36.2390   31.5996   49.2362 C   0  0  0  0  0  0  0  0  0  0  0  0
  1 12  1  0  0  0  0
  1 11  1  0  0  0  0
  2 13  1  0  0  0  0
  2  9  1  0  0  0  0
  3  4  1  1  0  0  0
  3  5  2  0  0  0  0
  3  6  1  0  0  0  0
  6  8  1  0  0  0  0
  7 10  1  0  0  0  0
  8 11  1  0  0  0  0
  9 12  1  0  0  0  0
 10 13  1  0  0  0  0
M  CHG  1   4  -1
M  END
>  <CHROM.1>
-66.68595799,-172.38035410,-61.28454632,-176.79557481,-61.45242160,-179.30122110
-172.26618956,-179.03085556,-178.39930001,37.51970851,31.45090786,45.11273018
-0.07360316,-1.31848489,-3.11846136

>  <Name>
ligand

>  <RI>
0

>  <Rbt.Current_Directory>
/home/itssahil/PROJECTS/Mol_Feturizer/New_Systems/rnas/2NPY

>  <Rbt.Executable>
rbdock ($Id: //depot/dev/client3/rdock/2013.1/src/exe/rbdock.cxx#4 $)

>  <Rbt.Library>
libRbt.so (2013.1, Build901 2013/11/27)

>  <Rbt.Parameter_File>
/export/apps/rDock/src/rDock_2013.1_src/data/scripts/dock_solv.prm

>  <Rbt.Receptor>
prm/pocket_docking_8.prm

>  <SCORE>
-10.0861

>  <SCORE.INTER>
3.11045

>  <SCORE.INTER.CONST>
1

>  <SCORE.INTER.POLAR>
0

>  <SCORE.INTER.ROT>
9

>  <SCORE.INTER.SOLV>
5.2558

>  <SCORE.INTER.VDW>
-9.2783

>  <SCORE.INTER.norm>
0.239265

>  <SCORE.INTRA>
-13.1966

>  <SCORE.INTRA.DIHEDRAL>
-24.8081

>  <SCORE.INTRA.DIHEDRAL.0>
25.6828

>  <SCORE.INTRA.POLAR>
0

>  <SCORE.INTRA.POLAR.0>
0

>  <SCORE.INTRA.REPUL>
0

>  <SCORE.INTRA.REPUL.0>
0

>  <SCORE.INTRA.SOLV>
-1.48447

>  <SCORE.INTRA.SOLV.lig_0>
-48.5059

>  <SCORE.INTRA.VDW>
-0.0503169

>  <SCORE.INTRA.VDW.0>
-0.363643

>  <SCORE.INTRA.norm>
-1.01512

>  <SCORE.RESTR>
0

>  <SCORE.RESTR.CAVITY>
0

>  <SCORE.RESTR.norm>
0

>  <SCORE.SYSTEM>
0

>  <SCORE.SYSTEM.CONST>
0

>  <SCORE.SYSTEM.DIHEDRAL>
0

>  <SCORE.SYSTEM.SOLV>
0

>  <SCORE.SYSTEM.norm>
0

>  <SCORE.heavy>
13

>  <SCORE.norm>
-0.775857

>  <RMSD>
7.765

$$$$
ligand
 OpenBabel11021811453D
libRbt.so/2013.1/901 2013/11/27
 13 12  0  0  0  0  0  0  0  0999 V2000
   37.1424   30.7384   46.8303 O   0  0  0  0  0  0  0  0  0  0  0  0
   36.1897   30.1614   43.9995 O   0  0  0  0  0  0  0  0  0  0  0  0
   34.0746   31.7176   49.5709 P   0  0  2  0  0  0  0  0  0  0  0  0
   33.9041   32.9468   48.7430 O   0  5  0  0  0  0  0  0  0  0  0  0
   34.3476   31.8523   51.0249 O   0  0  0  0  0  0  0  0  0  0  0  0
   35.2416   30.8403   48.9498 O   0  0  0  0  0  0  0  0  0  0  0  0
   34.2110   30.4747   40.9263 O   0  0  0  0  0  0  0  0  0  0  0  0
   36.6185   31.1795   49.1693 C   0  0  0  0  0  0  0  0  0  0  0  0
   37.5469   30.4872   44.3944 C   0  0  0  0  0  0  0  0  0  0  0  0
   34.4573   30.1050   42.2755 C   0  0  0  0  0  0  0  0  0  0  0  0
   37.5123   30.4090   48.1827 C   0  0  0  0  0  0  0  0  0  0  0  0
   37.8690   29.9819   45.8222 C   0  0  0  0  0  0  0  0  0  0  0  0
   35.8917   30.5332   42.6333 C   0  0  0  0  0  0  0  0  0  0  0  0
  1 12  1  0  0  0  0
  1 11  1  0  0  0  0
  2 13  1  0  0  0  0
  2  9  1  0  0  0  0
  3  4  1  6  0  0  0
  3  5  2  0  0  0  0
  3  6  1  0  0  0  0
  6  8  1  0  0  0  0
  7 10  1  0  0  0  0
  8 11  1  0  0  0  0
  9 12  1  0  0  0  0
 10 13  1  0  0  0  0
M  CHG  1   4  -1
M  END
>  <CHROM.1>
-173.63466934,177.74653168,78.16751852,-165.43099016,59.31102406,-175.67567731
-69.82887650,-179.40092491,-175.72501474,35.60020618,30.96258291,46.62885678
-1.67607574,0.31252686,-1.72831071

>  <Name>
ligand

>  <RI>
0

>  <Rbt.Current_Directory>
/home/itssahil/PROJECTS/Mol_Feturizer/New_Systems/rnas/2NPY

>  <Rbt.Executable>
rbdock ($Id: //depot/dev/client3/rdock/2013.1/src/exe/rbdock.cxx#4 $)

>  <Rbt.Library>
libRbt.so (2013.1, Build901 2013/11/27)

>  <Rbt.Parameter_File>
/export/apps/rDock/src/rDock_2013.1_src/data/scripts/dock_solv.prm

>  <Rbt.Receptor>
prm/pocket_docking_5.prm

>  <SCORE>
-13.1488

>  <SCORE.INTER>
0.0895497

>  <SCORE.INTER.CONST>
1

>  <SCORE.INTER.POLAR>
0

>  <SCORE.INTER.ROT>
9

>  <SCORE.INTER.SOLV>
11.3312

>  <SCORE.INTER.VDW>
-13.3174

>  <SCORE.INTER.norm>
0.00688844

>  <SCORE.INTRA>
-13.2383

>  <SCORE.INTRA.DIHEDRAL>
-23.7193

>  <SCORE.INTRA.DIHEDRAL.0>
25.6828

>  <SCORE.INTRA.POLAR>
0

>  <SCORE.INTRA.POLAR.0>
0

>  <SCORE.INTRA.REPUL>
0

>  <SCORE.INTRA.REPUL.0>
0

>  <SCORE.INTRA.SOLV>
-0.720044

>  <SCORE.INTRA.SOLV.lig_0>
-48.5059

>  <SCORE.INTRA.VDW>
-1.01868

>  <SCORE.INTRA.VDW.0>
-0.363643

>  <SCORE.INTRA.norm>
-1.01833

>  <SCORE.RESTR>
0

>  <SCORE.RESTR.CAVITY>
0

>  <SCORE.RESTR.norm>
0

>  <SCORE.SYSTEM>
0

>  <SCORE.SYSTEM.CONST>
0

>  <SCORE.SYSTEM.DIHEDRAL>
0

>  <SCORE.SYSTEM.SOLV>
0

>  <SCORE.SYSTEM.norm>
0

>  <SCORE.heavy>
13

>  <SCORE.norm>
-1.01145

>  <RMSD>
7.814

$$$$
ligand
 OpenBabel11021811453D
libRbt.so/2013.1/901 2013/11/27
 13 12  0  0  0  0  0  0  0  0999 V2000
   35.4073   30.8176   43.5375 O   0  0  0  0  0  0  0  0  0  0  0  0
   36.9814   30.8815   46.0039 O   0  0  0  0  0  0  0  0  0  0  0  0
   31.3685   32.3076   44.1222 P   0  0  2  0  0  0  0  0  0  0  0  0
   30.7729   33.3359   43.2204 O   0  5  0  0  0  0  0  0  0  0  0  0
   31.3012   32.5039   45.5932 O   0  0  0  0  0  0  0  0  0  0  0  0
   32.8963   32.1154   43.7402 O   0  0  0  0  0  0  0  0  0  0  0  0
   39.3471   29.7824   48.5830 O   0  0  0  0  0  0  0  0  0  0  0  0
   33.2772   31.4426   42.5314 C   0  0  0  0  0  0  0  0  0  0  0  0
   37.4467   30.2005   44.8105 C   0  0  0  0  0  0  0  0  0  0  0  0
   38.9454   30.4456   47.3930 C   0  0  0  0  0  0  0  0  0  0  0  0
   34.8087   31.4471   42.3886 C   0  0  0  0  0  0  0  0  0  0  0  0
   36.8619   30.8304   43.5224 C   0  0  0  0  0  0  0  0  0  0  0  0
   37.4277   30.2508   47.2272 C   0  0  0  0  0  0  0  0  0  0  0  0
  1 12  1  0  0  0  0
  1 11  1  0  0  0  0
  2 13  1  0  0  0  0
  2  9  1  0  0  0  0
  3  4  1  6  0  0  0
  3  5  2  0  0  0  0
  3  6  1  0  0  0  0
  6  8  1  0  0  0  0
  7 10  1  0  0  0  0
  8 11  1  0  0  0  0
  9 12  1  0  0  0  0
 10 13  1  0  0  0  0
M  CHG  1   4  -1
M  END
>  <CHROM.1>
177.34495771,69.60316113,-72.33290436,177.84172482,57.73642957,175.45625906
-57.74360333,-178.42892983,-177.27114036,34.80012583,31.36039379,44.78131437
-0.41815823,0.33488985,-1.60093846

>  <Name>
ligand

>  <RI>
0

>  <Rbt.Current_Directory>
/home/itssahil/PROJECTS/Mol_Feturizer/New_Systems/rnas/2NPY

>  <Rbt.Executable>
rbdock ($Id: //depot/dev/client3/rdock/2013.1/src/exe/rbdock.cxx#4 $)

>  <Rbt.Library>
libRbt.so (2013.1, Build901 2013/11/27)

>  <Rbt.Parameter_File>
/export/apps/rDock/src/rDock_2013.1_src/data/scripts/dock_solv.prm

>  <Rbt.Receptor>
prm/pocket_docking_6.prm

>  <SCORE>
-10.0945

>  <SCORE.INTER>
2.97871

>  <SCORE.INTER.CONST>
1

>  <SCORE.INTER.POLAR>
0

>  <SCORE.INTER.ROT>
9

>  <SCORE.INTER.SOLV>
13.7605

>  <SCORE.INTER.VDW>
-12.201

>  <SCORE.INTER.norm>
0.229132

>  <SCORE.INTRA>
-13.0732

>  <SCORE.INTRA.DIHEDRAL>
-24.6618

>  <SCORE.INTRA.DIHEDRAL.0>
25.6828

>  <SCORE.INTRA.POLAR>
0

>  <SCORE.INTRA.POLAR.0>
0

>  <SCORE.INTRA.REPUL>
0

>  <SCORE.INTRA.REPUL.0>
0

>  <SCORE.INTRA.SOLV>
-1.27851

>  <SCORE.INTRA.SOLV.lig_0>
-48.5059

>  <SCORE.INTRA.VDW>
-0.103082

>  <SCORE.INTRA.VDW.0>
-0.363643

>  <SCORE.INTRA.norm>
-1.00563

>  <SCORE.RESTR>
0

>  <SCORE.RESTR.CAVITY>
0

>  <SCORE.RESTR.norm>
0

>  <SCORE.SYSTEM>
0

>  <SCORE.SYSTEM.CONST>
0

>  <SCORE.SYSTEM.DIHEDRAL>
0

>  <SCORE.SYSTEM.SOLV>
0

>  <SCORE.SYSTEM.norm>
0

>  <SCORE.heavy>
13

>  <SCORE.norm>
-0.7765

>  <RMSD>
7.842

$$$$
ligand
 OpenBabel11021811453D
libRbt.so/2013.1/901 2013/11/27
 13 12  0  0  0  0  0  0  0  0999 V2000
   36.6803   30.8477   49.8309 O   0  0  0  0  0  0  0  0  0  0  0  0
   37.5033   30.6564   46.9104 O   0  0  0  0  0  0  0  0  0  0  0  0
   31.7516   31.9442   49.4588 P   0  0  2  0  0  0  0  0  0  0  0  0
   31.2547   30.5581   49.6982 O   0  5  0  0  0  0  0  0  0  0  0  0
   31.0037   32.8352   48.5349 O   0  0  0  0  0  0  0  0  0  0  0  0
   33.2473   31.8680   48.9350 O   0  0  0  0  0  0  0  0  0  0  0  0
   37.3790   31.8288   44.3359 O   0  0  0  0  0  0  0  0  0  0  0  0
   34.2950   31.3434   49.7633 C   0  0  0  0  0  0  0  0  0  0  0  0
   38.2769   30.1932   48.0468 C   0  0  0  0  0  0  0  0  0  0  0  0
   36.9500   30.4895   44.5350 C   0  0  0  0  0  0  0  0  0  0  0  0
   35.6459   31.4595   49.0371 C   0  0  0  0  0  0  0  0  0  0  0  0
   38.0218   31.0551   49.3077 C   0  0  0  0  0  0  0  0  0  0  0  0
   37.7576   29.8986   45.7044 C   0  0  0  0  0  0  0  0  0  0  0  0
  1 12  1  0  0  0  0
  1 11  1  0  0  0  0
  2 13  1  0  0  0  0
  2  9  1  0  0  0  0
  3  4  1  6  0  0  0
  3  5  2  0  0  0  0
  3  6  1  0  0  0  0
  6  8  1  0  0  0  0
  7 10  1  0  0  0  0
  8 11  1  0  0  0  0
  9 12  1  0  0  0  0
 10 13  1  0  0  0  0
M  CHG  1   4  -1
M  END
>  <CHROM.1>
-73.52919886,-177.47405989,-64.03125947,-176.91213483,-175.99687264,177.92789461
69.64713676,61.30250869,-172.63850397,35.02857267,31.23141993,48.12591926
-0.45316575,-0.22025892,1.64217134

>  <Name>
ligand

>  <RI>
0

>  <Rbt.Current_Directory>
/home/itssahil/PROJECTS/Mol_Feturizer/New_Systems/rnas/2NPY

>  <Rbt.Executable>
rbdock ($Id: //depot/dev/client3/rdock/2013.1/src/exe/rbdock.cxx#4 $)

>  <Rbt.Library>
libRbt.so (2013.1, Build901 2013/11/27)

>  <Rbt.Parameter_File>
/export/apps/rDock/src/rDock_2013.1_src/data/scripts/dock_solv.prm

>  <Rbt.Receptor>
prm/pocket_docking_7.prm

>  <SCORE>
-10.998

>  <SCORE.INTER>
1.86116

>  <SCORE.INTER.CONST>
1

>  <SCORE.INTER.POLAR>
0

>  <SCORE.INTER.ROT>
9

>  <SCORE.INTER.SOLV>
6.94389

>  <SCORE.INTER.VDW>
-10.6739

>  <SCORE.INTER.norm>
0.143166

>  <SCORE.INTRA>
-12.8592

>  <SCORE.INTRA.DIHEDRAL>
-23.9239

>  <SCORE.INTRA.DIHEDRAL.0>
25.6828

>  <SCORE.INTRA.POLAR>
0

>  <SCORE.INTRA.POLAR.0>
0

>  <SCORE.INTRA.REPUL>
0

>  <SCORE.INTRA.REPUL.0>
0

>  <SCORE.INTRA.SOLV>
-1.07536

>  <SCORE.INTRA.SOLV.lig_0>
-48.5059

>  <SCORE.INTRA.VDW>
-0.359515

>  <SCORE.INTRA.VDW.0>
-0.363643

>  <SCORE.INTRA.norm>
-0.989166

>  <SCORE.RESTR>
0

>  <SCORE.RESTR.CAVITY>
0

>  <SCORE.RESTR.norm>
0

>  <SCORE.SYSTEM>
0

>  <SCORE.SYSTEM.CONST>
0

>  <SCORE.SYSTEM.DIHEDRAL>
0

>  <SCORE.SYSTEM.SOLV>
0

>  <SCORE.SYSTEM.norm>
0

>  <SCORE.heavy>
13

>  <SCORE.norm>
-0.846

>  <RMSD>
7.916

$$$$
ligand
 OpenBabel11021811453D
libRbt.so/2013.1/901 2013/11/27
 13 12  0  0  0  0  0  0  0  0999 V2000
   36.9176   30.7822   47.9863 O   0  0  0  0  0  0  0  0  0  0  0  0
   37.9329   31.0143   45.1689 O   0  0  0  0  0  0  0  0  0  0  0  0
   33.1238   31.4504   49.9972 P   0  0  2  0  0  0  0  0  0  0  0  0
   32.7659   32.5719   49.0809 O   0  5  0  0  0  0  0  0  0  0  0  0
   33.0768   31.6683   51.4659 O   0  0  0  0  0  0  0  0  0  0  0  0
   34.5848   30.9449   49.6406 O   0  0  0  0  0  0  0  0  0  0  0  0
   35.5124   31.4395   43.7574 O   0  0  0  0  0  0  0  0  0  0  0  0
   35.7313   31.7770   49.8686 C   0  0  0  0  0  0  0  0  0  0  0  0
   37.9071   29.7857   45.9398 C   0  0  0  0  0  0  0  0  0  0  0  0
   36.3801   30.3760   43.3919 C   0  0  0  0  0  0  0  0  0  0  0  0
   37.0054   31.0553   49.3977 C   0  0  0  0  0  0  0  0  0  0  0  0
   38.0604   30.0538   47.4572 C   0  0  0  0  0  0  0  0  0  0  0  0
   37.8195   30.7922   43.7437 C   0  0  0  0  0  0  0  0  0  0  0  0
  1 12  1  0  0  0  0
  1 11  1  0  0  0  0
  2 13  1  0  0  0  0
  2  9  1  0  0  0  0
  3  4  1  6  0  0  0
  3  5  2  0  0  0  0
  3  6  1  0  0  0  0
  6  8  1  0  0  0  0
  7 10  1  0  0  0  0
  8 11  1  0  0  0  0
  9 12  1  0  0  0  0
 10 13  1  0  0  0  0
M  CHG  1   4  -1
M  END
>  <CHROM.1>
179.79812576,72.68620438,67.31940300,-178.40096586,60.92171075,178.79251669
65.89781230,61.54866532,-177.82694113,35.64193533,31.10604460,47.67993733
-0.97134863,-0.29254413,1.59043378

>  <Name>
ligand

>  <RI>
0

>  <Rbt.Current_Directory>
/home/itssahil/PROJECTS/Mol_Feturizer/New_Systems/rnas/2NPY

>  <Rbt.Executable>
rbdock ($Id: //depot/dev/client3/rdock/2013.1/src/exe/rbdock.cxx#4 $)

>  <Rbt.Library>
libRbt.so (2013.1, Build901 2013/11/27)

>  <Rbt.Parameter_File>
/export/apps/rDock/src/rDock_2013.1_src/data/scripts/dock_solv.prm

>  <Rbt.Receptor>
prm/pocket_docking_8.prm

>  <SCORE>
-11.6286

>  <SCORE.INTER>
1.31506

>  <SCORE.INTER.CONST>
1

>  <SCORE.INTER.POLAR>
0

>  <SCORE.INTER.ROT>
9

>  <SCORE.INTER.SOLV>
10.328

>  <SCORE.INTER.VDW>
-12.1659

>  <SCORE.INTER.norm>
0.101158

>  <SCORE.INTRA>
-12.9437

>  <SCORE.INTRA.DIHEDRAL>
-24.6971

>  <SCORE.INTRA.DIHEDRAL.0>
25.6828

>  <SCORE.INTRA.POLAR>
0

>  <SCORE.INTRA.POLAR.0>
0

>  <SCORE.INTRA.REPUL>
0

>  <SCORE.INTRA.REPUL.0>
0

>  <SCORE.INTRA.SOLV>
-0.498019

>  <SCORE.INTRA.SOLV.lig_0>
-48.5059

>  <SCORE.INTRA.VDW>
-0.346085

>  <SCORE.INTRA.VDW.0>
-0.363643

>  <SCORE.INTRA.norm>
-0.995666

>  <SCORE.RESTR>
0

>  <SCORE.RESTR.CAVITY>
0

>  <SCORE.RESTR.norm>
0

>  <SCORE.SYSTEM>
0

>  <SCORE.SYSTEM.CONST>
0

>  <SCORE.SYSTEM.DIHEDRAL>
0

>  <SCORE.SYSTEM.SOLV>
0

>  <SCORE.SYSTEM.norm>
0

>  <SCORE.heavy>
13

>  <SCORE.norm>
-0.894507

>  <RMSD>
7.964

$$$$
ligand
 OpenBabel11021811453D
libRbt.so/2013.1/901 2013/11/27
 13 12  0  0  0  0  0  0  0  0999 V2000
   36.1656   31.2419   48.0291 O   0  0  0  0  0  0  0  0  0  0  0  0
   37.0776   30.2969   45.4774 O   0  0  0  0  0  0  0  0  0  0  0  0
   32.0455   32.3225   50.7661 P   0  0  2  0  0  0  0  0  0  0  0  0
   32.1118   33.8066   50.6306 O   0  5  0  0  0  0  0  0  0  0  0  0
   31.5161   31.7300   52.0213 O   0  0  0  0  0  0  0  0  0  0  0  0
   33.4959   31.7224   50.5348 O   0  0  0  0  0  0  0  0  0  0  0  0
   35.5521   31.3170   43.3034 O   0  0  0  0  0  0  0  0  0  0  0  0
   34.1396   31.8164   49.2559 C   0  0  0  0  0  0  0  0  0  0  0  0
   38.0332   30.5977   46.5265 C   0  0  0  0  0  0  0  0  0  0  0  0
   36.5111   30.2894   43.0993 C   0  0  0  0  0  0  0  0  0  0  0  0
   35.5303   31.1622   49.3192 C   0  0  0  0  0  0  0  0  0  0  0  0
   37.4002   30.4780   47.9346 C   0  0  0  0  0  0  0  0  0  0  0  0
   37.6246   30.4607   44.1480 C   0  0  0  0  0  0  0  0  0  0  0  0
  1 12  1  0  0  0  0
  1 11  1  0  0  0  0
  2 13  1  0  0  0  0
  2  9  1  0  0  0  0
  3  4  1  1  0  0  0
  3  5  2  0  0  0  0
  3  6  1  0  0  0  0
  6  8  1  0  0  0  0
  7 10  1  0  0  0  0
  8 11  1  0  0  0  0
  9 12  1  0  0  0  0
 10 13  1  0  0  0  0
M  CHG  1   4  -1
M  END
>  <CHROM.1>
179.79602027,-173.23454672,-65.82695348,179.70624260,179.20292140,177.31711715
-51.38367639,62.64903156,-171.39716802,34.87110652,31.42639974,48.04444230
-0.89907678,-0.37026948,1.57897884

>  <Name>
ligand

>  <RI>
0

>  <Rbt.Current_Directory>
/home/itssahil/PROJECTS/Mol_Feturizer/New_Systems/rnas/2NPY

>  <Rbt.Executable>
rbdock ($Id: //depot/dev/client3/rdock/2013.1/src/exe/rbdock.cxx#4 $)

>  <Rbt.Library>
libRbt.so (2013.1, Build901 2013/11/27)

>  <Rbt.Parameter_File>
/export/apps/rDock/src/rDock_2013.1_src/data/scripts/dock_solv.prm

>  <Rbt.Receptor>
prm/pocket_docking_5.prm

>  <SCORE>
-11.5465

>  <SCORE.INTER>
2.40439

>  <SCORE.INTER.CONST>
1

>  <SCORE.INTER.POLAR>
0

>  <SCORE.INTER.ROT>
9

>  <SCORE.INTER.SOLV>
5.28372

>  <SCORE.INTER.VDW>
-9.75832

>  <SCORE.INTER.norm>
0.184953

>  <SCORE.INTRA>
-13.9509

>  <SCORE.INTRA.DIHEDRAL>
-24.6049

>  <SCORE.INTRA.DIHEDRAL.0>
25.6828

>  <SCORE.INTRA.POLAR>
0

>  <SCORE.INTRA.POLAR.0>
0

>  <SCORE.INTRA.REPUL>
0

>  <SCORE.INTRA.REPUL.0>
0

>  <SCORE.INTRA.SOLV>
-1.20071

>  <SCORE.INTRA.SOLV.lig_0>
-48.5059

>  <SCORE.INTRA.VDW>
-1.04812

>  <SCORE.INTRA.VDW.0>
-0.363643

>  <SCORE.INTRA.norm>
-1.07315

>  <SCORE.RESTR>
0

>  <SCORE.RESTR.CAVITY>
0

>  <SCORE.RESTR.norm>
0

>  <SCORE.SYSTEM>
0

>  <SCORE.SYSTEM.CONST>
0

>  <SCORE.SYSTEM.DIHEDRAL>
0

>  <SCORE.SYSTEM.SOLV>
0

>  <SCORE.SYSTEM.norm>
0

>  <SCORE.heavy>
13

>  <SCORE.norm>
-0.888194

>  <RMSD>
8.000

$$$$
ligand
 OpenBabel11021811453D
libRbt.so/2013.1/901 2013/11/27
 13 12  0  0  0  0  0  0  0  0999 V2000
   35.6010   30.8346   48.7029 O   0  0  0  0  0  0  0  0  0  0  0  0
   36.9741   30.7597   46.1407 O   0  0  0  0  0  0  0  0  0  0  0  0
   31.2768   32.0029   51.0606 P   0  0  2  0  0  0  0  0  0  0  0  0
   30.6838   32.6882   49.8757 O   0  5  0  0  0  0  0  0  0  0  0  0
   30.9853   32.5217   52.4218 O   0  0  0  0  0  0  0  0  0  0  0  0
   32.8544   31.9686   50.8953 O   0  0  0  0  0  0  0  0  0  0  0  0
   36.8800   32.0110   43.6103 O   0  0  0  0  0  0  0  0  0  0  0  0
   33.4672   31.2932   49.7876 C   0  0  0  0  0  0  0  0  0  0  0  0
   37.6308   30.3380   47.3635 C   0  0  0  0  0  0  0  0  0  0  0  0
   36.7490   30.6003   43.7115 C   0  0  0  0  0  0  0  0  0  0  0  0
   34.9922   31.4892   49.8322 C   0  0  0  0  0  0  0  0  0  0  0  0
   37.0378   31.0423   48.6086 C   0  0  0  0  0  0  0  0  0  0  0  0
   37.5258   30.1371   44.9568 C   0  0  0  0  0  0  0  0  0  0  0  0
  1 12  1  0  0  0  0
  1 11  1  0  0  0  0
  2 13  1  0  0  0  0
  2  9  1  0  0  0  0
  3  4  1  6  0  0  0
  3  5  2  0  0  0  0
  3  6  1  0  0  0  0
  6  8  1  0  0  0  0
  7 10  1  0  0  0  0
  8 11  1  0  0  0  0
  9 12  1  0  0  0  0
 10 13  1  0  0  0  0
M  CHG  1   4  -1
M  END
>  <CHROM.1>
-178.95173303,178.21227824,-60.99805750,176.67559335,-178.75109091,178.84755687
55.69282328,60.57045561,176.01947443,34.48930732,31.43657338,48.47688005
-0.76922841,-0.33330566,1.67291621

>  <Name>
ligand

>  <RI>
0

>  <Rbt.Current_Directory>
/home/itssahil/PROJECTS/Mol_Feturizer/New_Systems/rnas/2NPY

>  <Rbt.Executable>
rbdock ($Id: //depot/dev/client3/rdock/2013.1/src/exe/rbdock.cxx#4 $)

>  <Rbt.Library>
libRbt.so (2013.1, Build901 2013/11/27)

>  <Rbt.Parameter_File>
/export/apps/rDock/src/rDock_2013.1_src/data/scripts/dock_solv.prm

>  <Rbt.Receptor>
prm/pocket_docking_5.prm

>  <SCORE>
-12.151

>  <SCORE.INTER>
2.14244

>  <SCORE.INTER.CONST>
1

>  <SCORE.INTER.POLAR>
0

>  <SCORE.INTER.ROT>
9

>  <SCORE.INTER.SOLV>
4.87042

>  <SCORE.INTER.VDW>
-9.79518

>  <SCORE.INTER.norm>
0.164803

>  <SCORE.INTRA>
-14.2935

>  <SCORE.INTRA.DIHEDRAL>
-25.3762

>  <SCORE.INTRA.DIHEDRAL.0>
25.6828

>  <SCORE.INTRA.POLAR>
0

>  <SCORE.INTRA.POLAR.0>
0

>  <SCORE.INTRA.REPUL>
0

>  <SCORE.INTRA.REPUL.0>
0

>  <SCORE.INTRA.SOLV>
-1.17788

>  <SCORE.INTRA.SOLV.lig_0>
-48.5059

>  <SCORE.INTRA.VDW>
-1.01646

>  <SCORE.INTRA.VDW.0>
-0.363643

>  <SCORE.INTRA.norm>
-1.0995

>  <SCORE.RESTR>
9.63353e-05

>  <SCORE.RESTR.CAVITY>
9.63353e-05

>  <SCORE.RESTR.norm>
7.41041e-06

>  <SCORE.SYSTEM>
0

>  <SCORE.SYSTEM.CONST>
0

>  <SCORE.SYSTEM.DIHEDRAL>
0

>  <SCORE.SYSTEM.SOLV>
0

>  <SCORE.SYSTEM.norm>
0

>  <SCORE.heavy>
13

>  <SCORE.norm>
-0.93469

>  <RMSD>
8.030

$$$$
ligand
 OpenBabel11021811453D
libRbt.so/2013.1/901 2013/11/27
 13 12  0  0  0  0  0  0  0  0999 V2000
   34.7337   32.1216   49.7669 O   0  0  0  0  0  0  0  0  0  0  0  0
   37.6005   30.3500   48.0934 O   0  0  0  0  0  0  0  0  0  0  0  0
   30.8120   33.1529   47.9569 P   0  0  2  0  0  0  0  0  0  0  0  0
   29.6854   32.1806   48.0606 O   0  5  0  0  0  0  0  0  0  0  0  0
   31.0784   33.8211   46.6571 O   0  0  0  0  0  0  0  0  0  0  0  0
   32.1532   32.4310   48.4012 O   0  0  0  0  0  0  0  0  0  0  0  0
   40.2517   30.0989   47.1388 O   0  0  0  0  0  0  0  0  0  0  0  0
   32.3063   31.9072   49.7283 C   0  0  0  0  0  0  0  0  0  0  0  0
   36.2869   30.9513   48.2247 C   0  0  0  0  0  0  0  0  0  0  0  0
   39.2489   29.1884   46.7113 C   0  0  0  0  0  0  0  0  0  0  0  0
   33.6527   31.1737   49.8507 C   0  0  0  0  0  0  0  0  0  0  0  0
   36.0466   31.5059   49.6503 C   0  0  0  0  0  0  0  0  0  0  0  0
   37.8950   29.9198   46.7437 C   0  0  0  0  0  0  0  0  0  0  0  0
  1 12  1  0  0  0  0
  1 11  1  0  0  0  0
  2 13  1  0  0  0  0
  2  9  1  0  0  0  0
  3  4  1  6  0  0  0
  3  5  2  0  0  0  0
  3  6  1  0  0  0  0
  6  8  1  0  0  0  0
  7 10  1  0  0  0  0
  8 11  1  0  0  0  0
  9 12  1  0  0  0  0
 10 13  1  0  0  0  0
M  CHG  1   4  -1
M  END
>  <CHROM.1>
75.50815727,-175.20005175,-61.44745749,175.79575085,68.13207350,-175.30154059
179.27210792,-61.03049532,-170.37755344,34.40599196,31.60505172,48.19587749
-0.05639945,-0.34998860,1.63615308

>  <Name>
ligand

>  <RI>
0

>  <Rbt.Current_Directory>
/home/itssahil/PROJECTS/Mol_Feturizer/New_Systems/rnas/2NPY

>  <Rbt.Executable>
rbdock ($Id: //depot/dev/client3/rdock/2013.1/src/exe/rbdock.cxx#4 $)

>  <Rbt.Library>
libRbt.so (2013.1, Build901 2013/11/27)

>  <Rbt.Parameter_File>
/export/apps/rDock/src/rDock_2013.1_src/data/scripts/dock_solv.prm

>  <Rbt.Receptor>
prm/pocket_docking_6.prm

>  <SCORE>
-10.0496

>  <SCORE.INTER>
2.84242

>  <SCORE.INTER.CONST>
1

>  <SCORE.INTER.POLAR>
0

>  <SCORE.INTER.ROT>
9

>  <SCORE.INTER.SOLV>
4.83721

>  <SCORE.INTER.VDW>
-9.31745

>  <SCORE.INTER.norm>
0.218648

>  <SCORE.INTRA>
-12.892

>  <SCORE.INTRA.DIHEDRAL>
-23.4761

>  <SCORE.INTRA.DIHEDRAL.0>
25.6828

>  <SCORE.INTRA.POLAR>
0

>  <SCORE.INTRA.POLAR.0>
0

>  <SCORE.INTRA.REPUL>
0

>  <SCORE.INTRA.REPUL.0>
0

>  <SCORE.INTRA.SOLV>
-1.27286

>  <SCORE.INTRA.SOLV.lig_0>
-48.5059

>  <SCORE.INTRA.VDW>
-0.517541

>  <SCORE.INTRA.VDW.0>
-0.363643

>  <SCORE.INTRA.norm>
-0.991694

>  <SCORE.RESTR>
0

>  <SCORE.RESTR.CAVITY>
0

>  <SCORE.RESTR.norm>
0

>  <SCORE.SYSTEM>
0

>  <SCORE.SYSTEM.CONST>
0

>  <SCORE.SYSTEM.DIHEDRAL>
0

>  <SCORE.SYSTEM.SOLV>
0

>  <SCORE.SYSTEM.norm>
0

>  <SCORE.heavy>
13

>  <SCORE.norm>
-0.773046

>  <RMSD>
8.035

$$$$
ligand
 OpenBabel11021811453D
libRbt.so/2013.1/901 2013/11/27
 13 12  0  0  0  0  0  0  0  0999 V2000
   36.8442   30.7717   47.8371 O   0  0  0  0  0  0  0  0  0  0  0  0
   37.6948   31.0693   45.0077 O   0  0  0  0  0  0  0  0  0  0  0  0
   33.0756   31.4591   49.8371 P   0  0  2  0  0  0  0  0  0  0  0  0
   32.7296   32.5677   48.9007 O   0  5  0  0  0  0  0  0  0  0  0  0
   33.0287   31.7033   51.3017 O   0  0  0  0  0  0  0  0  0  0  0  0
   34.5322   30.9335   49.4917 O   0  0  0  0  0  0  0  0  0  0  0  0
   35.9974   30.1329   41.8932 O   0  0  0  0  0  0  0  0  0  0  0  0
   35.6903   31.7391   49.7535 C   0  0  0  0  0  0  0  0  0  0  0  0
   37.8122   29.8310   45.7541 C   0  0  0  0  0  0  0  0  0  0  0  0
   36.1128   30.3356   43.2943 C   0  0  0  0  0  0  0  0  0  0  0  0
   36.9540   31.0200   49.2515 C   0  0  0  0  0  0  0  0  0  0  0  0
   37.9959   30.0871   47.2702 C   0  0  0  0  0  0  0  0  0  0  0  0
   37.5299   30.8608   43.5854 C   0  0  0  0  0  0  0  0  0  0  0  0
  1 12  1  0  0  0  0
  1 11  1  0  0  0  0
  2 13  1  0  0  0  0
  2  9  1  0  0  0  0
  3  4  1  6  0  0  0
  3  5  2  0  0  0  0
  3  6  1  0  0  0  0
  6  8  1  0  0  0  0
  7 10  1  0  0  0  0
  8 11  1  0  0  0  0
  9 12  1  0  0  0  0
 10 13  1  0  0  0  0
M  CHG  1   4  -1
M  END
>  <CHROM.1>
179.22315633,73.01671540,69.68423319,-176.85207191,59.19844019,179.65375562
62.32257743,-179.45389753,-179.77374736,35.58389881,31.01538815,47.39516205
-1.06578687,-0.21619780,1.49426955

>  <Name>
ligand

>  <RI>
0

>  <Rbt.Current_Directory>
/home/itssahil/PROJECTS/Mol_Feturizer/New_Systems/rnas/2NPY

>  <Rbt.Executable>
rbdock ($Id: //depot/dev/client3/rdock/2013.1/src/exe/rbdock.cxx#4 $)

>  <Rbt.Library>
libRbt.so (2013.1, Build901 2013/11/27)

>  <Rbt.Parameter_File>
/export/apps/rDock/src/rDock_2013.1_src/data/scripts/dock_solv.prm

>  <Rbt.Receptor>
prm/pocket_docking_7.prm

>  <SCORE>
-11.8842

>  <SCORE.INTER>
1.11968

>  <SCORE.INTER.CONST>
1

>  <SCORE.INTER.POLAR>
0

>  <SCORE.INTER.ROT>
9

>  <SCORE.INTER.SOLV>
10.4739

>  <SCORE.INTER.VDW>
-12.3448

>  <SCORE.INTER.norm>
0.0861296

>  <SCORE.INTRA>
-13.0039

>  <SCORE.INTRA.DIHEDRAL>
-24.7514

>  <SCORE.INTRA.DIHEDRAL.0>
25.6828

>  <SCORE.INTRA.POLAR>
0

>  <SCORE.INTRA.POLAR.0>
0

>  <SCORE.INTRA.REPUL>
0

>  <SCORE.INTRA.REPUL.0>
0

>  <SCORE.INTRA.SOLV>
-0.754742

>  <SCORE.INTRA.SOLV.lig_0>
-48.5059

>  <SCORE.INTRA.VDW>
-0.250813

>  <SCORE.INTRA.VDW.0>
-0.363643

>  <SCORE.INTRA.norm>
-1.0003

>  <SCORE.RESTR>
0

>  <SCORE.RESTR.CAVITY>
0

>  <SCORE.RESTR.norm>
0

>  <SCORE.SYSTEM>
0

>  <SCORE.SYSTEM.CONST>
0

>  <SCORE.SYSTEM.DIHEDRAL>
0

>  <SCORE.SYSTEM.SOLV>
0

>  <SCORE.SYSTEM.norm>
0

>  <SCORE.heavy>
13

>  <SCORE.norm>
-0.91417

>  <RMSD>
8.067

$$$$
ligand
 OpenBabel11021811453D
libRbt.so/2013.1/901 2013/11/27
 13 12  0  0  0  0  0  0  0  0999 V2000
   34.2280   31.5713   49.2719 O   0  0  0  0  0  0  0  0  0  0  0  0
   36.7024   30.5561   48.0735 O   0  0  0  0  0  0  0  0  0  0  0  0
   29.1701   31.7060   49.0870 P   0  0  2  0  0  0  0  0  0  0  0  0
   28.0861   31.4114   50.0687 O   0  5  0  0  0  0  0  0  0  0  0  0
   29.1745   31.0056   47.7769 O   0  0  0  0  0  0  0  0  0  0  0  0
   30.5726   31.4301   49.7756 O   0  0  0  0  0  0  0  0  0  0  0  0
   38.9817   29.8480   45.2876 O   0  0  0  0  0  0  0  0  0  0  0  0
   31.8010   31.6829   49.0784 C   0  0  0  0  0  0  0  0  0  0  0  0
   36.7066   31.4552   49.2119 C   0  0  0  0  0  0  0  0  0  0  0  0
   37.7936   29.7140   46.0544 C   0  0  0  0  0  0  0  0  0  0  0  0
   32.9974   31.3642   49.9911 C   0  0  0  0  0  0  0  0  0  0  0  0
   35.4210   31.3132   50.0634 C   0  0  0  0  0  0  0  0  0  0  0  0
   37.8943   30.6649   47.2605 C   0  0  0  0  0  0  0  0  0  0  0  0
  1 12  1  0  0  0  0
  1 11  1  0  0  0  0
  2 13  1  0  0  0  0
  2  9  1  0  0  0  0
  3  4  1  1  0  0  0
  3  5  2  0  0  0  0
  3  6  1  0  0  0  0
  6  8  1  0  0  0  0
  7 10  1  0  0  0  0
  8 11  1  0  0  0  0
  9 12  1  0  0  0  0
 10 13  1  0  0  0  0
M  CHG  1   4  -1
M  END
>  <CHROM.1>
176.00195914,-178.26615195,-177.42361743,178.50543541,177.86452208,-179.86774764
-58.19566301,-179.79710845,179.12467095,33.38974309,31.10303136,48.57342207
-0.28492302,-0.03952670,1.24578232

>  <Name>
ligand

>  <RI>
0

>  <Rbt.Current_Directory>
/home/itssahil/PROJECTS/Mol_Feturizer/New_Systems/rnas/2NPY

>  <Rbt.Executable>
rbdock ($Id: //depot/dev/client3/rdock/2013.1/src/exe/rbdock.cxx#4 $)

>  <Rbt.Library>
libRbt.so (2013.1, Build901 2013/11/27)

>  <Rbt.Parameter_File>
/export/apps/rDock/src/rDock_2013.1_src/data/scripts/dock_solv.prm

>  <Rbt.Receptor>
prm/pocket_docking_5.prm

>  <SCORE>
-11.6087

>  <SCORE.INTER>
2.6827

>  <SCORE.INTER.CONST>
1

>  <SCORE.INTER.POLAR>
0

>  <SCORE.INTER.ROT>
9

>  <SCORE.INTER.SOLV>
8.37422

>  <SCORE.INTER.VDW>
-10.6029

>  <SCORE.INTER.norm>
0.206361

>  <SCORE.INTRA>
-14.2914

>  <SCORE.INTRA.DIHEDRAL>
-25.5082

>  <SCORE.INTRA.DIHEDRAL.0>
25.6828

>  <SCORE.INTRA.POLAR>
0

>  <SCORE.INTRA.POLAR.0>
0

>  <SCORE.INTRA.REPUL>
0

>  <SCORE.INTRA.REPUL.0>
0

>  <SCORE.INTRA.SOLV>
-1.38398

>  <SCORE.INTRA.SOLV.lig_0>
-48.5059

>  <SCORE.INTRA.VDW>
-0.845337

>  <SCORE.INTRA.VDW.0>
-0.363643

>  <SCORE.INTRA.norm>
-1.09934

>  <SCORE.RESTR>
0

>  <SCORE.RESTR.CAVITY>
0

>  <SCORE.RESTR.norm>
0

>  <SCORE.SYSTEM>
0

>  <SCORE.SYSTEM.CONST>
0

>  <SCORE.SYSTEM.DIHEDRAL>
0

>  <SCORE.SYSTEM.SOLV>
0

>  <SCORE.SYSTEM.norm>
0

>  <SCORE.heavy>
13

>  <SCORE.norm>
-0.892979

>  <RMSD>
8.069

$$$$
ligand
 OpenBabel11021811453D
libRbt.so/2013.1/901 2013/11/27
 13 12  0  0  0  0  0  0  0  0999 V2000
   36.0739   30.6854   48.1994 O   0  0  0  0  0  0  0  0  0  0  0  0
   36.9371   30.8244   45.4351 O   0  0  0  0  0  0  0  0  0  0  0  0
   34.4928   33.2078   51.6078 P   0  0  2  0  0  0  0  0  0  0  0  0
   34.0948   33.3867   53.0343 O   0  5  0  0  0  0  0  0  0  0  0  0
   33.9513   34.1341   50.5803 O   0  0  0  0  0  0  0  0  0  0  0  0
   34.1249   31.7322   51.1553 O   0  0  0  0  0  0  0  0  0  0  0  0
   36.3141   30.6471   41.8251 O   0  0  0  0  0  0  0  0  0  0  0  0
   34.3461   31.2957   49.8064 C   0  0  0  0  0  0  0  0  0  0  0  0
   37.6498   30.0130   46.4037 C   0  0  0  0  0  0  0  0  0  0  0  0
   36.2435   31.2174   43.1241 C   0  0  0  0  0  0  0  0  0  0  0  0
   35.8556   31.1990   49.5272 C   0  0  0  0  0  0  0  0  0  0  0  0
   37.4785   30.5524   47.8450 C   0  0  0  0  0  0  0  0  0  0  0  0
   37.0468   30.3208   44.0831 C   0  0  0  0  0  0  0  0  0  0  0  0
  1 12  1  0  0  0  0
  1 11  1  0  0  0  0
  2 13  1  0  0  0  0
  2  9  1  0  0  0  0
  3  4  1  1  0  0  0
  3  5  2  0  0  0  0
  3  6  1  0  0  0  0
  6  8  1  0  0  0  0
  7 10  1  0  0  0  0
  8 11  1  0  0  0  0
  9 12  1  0  0  0  0
 10 13  1  0  0  0  0
M  CHG  1   4  -1
M  END
>  <CHROM.1>
-179.32253541,178.87322785,177.39067582,68.66917650,176.62156905,-178.27920267
54.73096066,-176.71532363,-179.74758157,35.61166431,31.64073545,48.21919774
-1.12962341,-0.81748980,1.60651875

>  <Name>
ligand

>  <RI>
0

>  <Rbt.Current_Directory>
/home/itssahil/PROJECTS/Mol_Feturizer/New_Systems/rnas/2NPY

>  <Rbt.Executable>
rbdock ($Id: //depot/dev/client3/rdock/2013.1/src/exe/rbdock.cxx#4 $)

>  <Rbt.Library>
libRbt.so (2013.1, Build901 2013/11/27)

>  <Rbt.Parameter_File>
/export/apps/rDock/src/rDock_2013.1_src/data/scripts/dock_solv.prm

>  <Rbt.Receptor>
prm/pocket_docking_7.prm

>  <SCORE>
-11.8482

>  <SCORE.INTER>
1.38478

>  <SCORE.INTER.CONST>
1

>  <SCORE.INTER.POLAR>
0

>  <SCORE.INTER.ROT>
9

>  <SCORE.INTER.SOLV>
6.1955

>  <SCORE.INTER.VDW>
-10.742

>  <SCORE.INTER.norm>
0.106522

>  <SCORE.INTRA>
-13.2329

>  <SCORE.INTRA.DIHEDRAL>
-25.0138

>  <SCORE.INTRA.DIHEDRAL.0>
25.6828

>  <SCORE.INTRA.POLAR>
0

>  <SCORE.INTRA.POLAR.0>
0

>  <SCORE.INTRA.REPUL>
0

>  <SCORE.INTRA.REPUL.0>
0

>  <SCORE.INTRA.SOLV>
-0.19176

>  <SCORE.INTRA.SOLV.lig_0>
-48.5059

>  <SCORE.INTRA.VDW>
-0.630147

>  <SCORE.INTRA.VDW.0>
-0.363643

>  <SCORE.INTRA.norm>
-1.01792

>  <SCORE.RESTR>
0

>  <SCORE.RESTR.CAVITY>
0

>  <SCORE.RESTR.norm>
0

>  <SCORE.SYSTEM>
0

>  <SCORE.SYSTEM.CONST>
0

>  <SCORE.SYSTEM.DIHEDRAL>
0

>  <SCORE.SYSTEM.SOLV>
0

>  <SCORE.SYSTEM.norm>
0

>  <SCORE.heavy>
13

>  <SCORE.norm>
-0.911397

>  <RMSD>
8.154

$$$$
ligand
 OpenBabel11021811453D
libRbt.so/2013.1/901 2013/11/27
 13 12  0  0  0  0  0  0  0  0999 V2000
   34.8541   30.8818   49.3239 O   0  0  0  0  0  0  0  0  0  0  0  0
   36.7773   30.8018   47.0896 O   0  0  0  0  0  0  0  0  0  0  0  0
   30.2039   30.7184   51.3052 P   0  0  2  0  0  0  0  0  0  0  0  0
   29.4017   31.0092   50.0816 O   0  5  0  0  0  0  0  0  0  0  0  0
   29.7029   31.1725   52.6279 O   0  0  0  0  0  0  0  0  0  0  0  0
   31.6593   31.3219   51.1181 O   0  0  0  0  0  0  0  0  0  0  0  0
   37.2911   31.7171   44.4514 O   0  0  0  0  0  0  0  0  0  0  0  0
   32.5532   30.8016   50.1235 C   0  0  0  0  0  0  0  0  0  0  0  0
   37.1769   30.6620   48.4771 C   0  0  0  0  0  0  0  0  0  0  0  0
   37.1838   30.3277   44.7260 C   0  0  0  0  0  0  0  0  0  0  0  0
   33.9207   31.4974   50.2317 C   0  0  0  0  0  0  0  0  0  0  0  0
   36.2086   31.4013   49.4330 C   0  0  0  0  0  0  0  0  0  0  0  0
   37.6444   30.0907   46.1753 C   0  0  0  0  0  0  0  0  0  0  0  0
  1 12  1  0  0  0  0
  1 11  1  0  0  0  0
  2 13  1  0  0  0  0
  2  9  1  0  0  0  0
  3  4  1  6  0  0  0
  3  5  2  0  0  0  0
  3  6  1  0  0  0  0
  6  8  1  0  0  0  0
  7 10  1  0  0  0  0
  8 11  1  0  0  0  0
  9 12  1  0  0  0  0
 10 13  1  0  0  0  0
M  CHG  1   4  -1
M  END
>  <CHROM.1>
177.61120287,-178.06041249,-66.07994278,-175.86867279,174.29294424,-178.44346893
60.16389351,62.07086328,-175.22457580,33.82627030,30.94620520,49.06952894
-0.64858008,0.00927152,1.52665437

>  <Name>
ligand

>  <RI>
0

>  <Rbt.Current_Directory>
/home/itssahil/PROJECTS/Mol_Feturizer/New_Systems/rnas/2NPY

>  <Rbt.Executable>
rbdock ($Id: //depot/dev/client3/rdock/2013.1/src/exe/rbdock.cxx#4 $)

>  <Rbt.Library>
libRbt.so (2013.1, Build901 2013/11/27)

>  <Rbt.Parameter_File>
/export/apps/rDock/src/rDock_2013.1_src/data/scripts/dock_solv.prm

>  <Rbt.Receptor>
prm/pocket_docking_7.prm

>  <SCORE>
-12.8204

>  <SCORE.INTER>
1.37166

>  <SCORE.INTER.CONST>
1

>  <SCORE.INTER.POLAR>
0

>  <SCORE.INTER.ROT>
9

>  <SCORE.INTER.SOLV>
5.05393

>  <SCORE.INTER.VDW>
-10.3702

>  <SCORE.INTER.norm>
0.105513

>  <SCORE.INTRA>
-14.192

>  <SCORE.INTRA.DIHEDRAL>
-25.1299

>  <SCORE.INTRA.DIHEDRAL.0>
25.6828

>  <SCORE.INTRA.POLAR>
0

>  <SCORE.INTRA.POLAR.0>
0

>  <SCORE.INTRA.REPUL>
0

>  <SCORE.INTRA.REPUL.0>
0

>  <SCORE.INTRA.SOLV>
-1.24106

>  <SCORE.INTRA.SOLV.lig_0>
-48.5059

>  <SCORE.INTRA.VDW>
-1.00655

>  <SCORE.INTRA.VDW.0>
-0.363643

>  <SCORE.INTRA.norm>
-1.09169

>  <SCORE.RESTR>
0

>  <SCORE.RESTR.CAVITY>
0

>  <SCORE.RESTR.norm>
0

>  <SCORE.SYSTEM>
0

>  <SCORE.SYSTEM.CONST>
0

>  <SCORE.SYSTEM.DIHEDRAL>
0

>  <SCORE.SYSTEM.SOLV>
0

>  <SCORE.SYSTEM.norm>
0

>  <SCORE.heavy>
13

>  <SCORE.norm>
-0.986182

>  <RMSD>
8.169

$$$$
ligand
 OpenBabel11021811453D
libRbt.so/2013.1/901 2013/11/27
 13 12  0  0  0  0  0  0  0  0999 V2000
   37.7504   30.2474   47.4590 O   0  0  0  0  0  0  0  0  0  0  0  0
   36.1621   31.0210   44.1572 O   0  0  0  0  0  0  0  0  0  0  0  0
   36.6682   32.4308   51.4242 P   0  0  2  0  0  0  0  0  0  0  0  0
   35.5242   33.3642   51.2109 O   0  5  0  0  0  0  0  0  0  0  0  0
   38.0248   32.8270   50.9666 O   0  0  0  0  0  0  0  0  0  0  0  0
   36.3268   31.0392   50.7427 O   0  0  0  0  0  0  0  0  0  0  0  0
   34.7285   30.1655   40.8916 O   0  0  0  0  0  0  0  0  0  0  0  0
   36.3113   30.8993   49.3148 C   0  0  0  0  0  0  0  0  0  0  0  0
   37.1025   30.3956   45.0676 C   0  0  0  0  0  0  0  0  0  0  0  0
   34.9134   30.9570   42.0564 C   0  0  0  0  0  0  0  0  0  0  0  0
   37.7513   30.8223   48.7795 C   0  0  0  0  0  0  0  0  0  0  0  0
   37.1002   31.0784   46.4575 C   0  0  0  0  0  0  0  0  0  0  0  0
   35.9988   30.2894   42.9196 C   0  0  0  0  0  0  0  0  0  0  0  0
  1 12  1  0  0  0  0
  1 11  1  0  0  0  0
  2 13  1  0  0  0  0
  2  9  1  0  0  0  0
  3  4  1  6  0  0  0
  3  5  2  0  0  0  0
  3  6  1  0  0  0  0
  6  8  1  0  0  0  0
  7 10  1  0  0  0  0
  8 11  1  0  0  0  0
  9 12  1  0  0  0  0
 10 13  1  0  0  0  0
M  CHG  1   4  -1
M  END
>  <CHROM.1>
-178.72857964,175.83030101,71.63316157,76.80783339,160.91826273,-171.53507252
164.38536052,-176.57267596,66.44750186,36.49986197,31.30830903,47.41686669
-1.73217565,-0.56640928,1.27814767

>  <Name>
ligand

>  <RI>
0

>  <Rbt.Current_Directory>
/home/itssahil/PROJECTS/Mol_Feturizer/New_Systems/rnas/2NPY

>  <Rbt.Executable>
rbdock ($Id: //depot/dev/client3/rdock/2013.1/src/exe/rbdock.cxx#4 $)

>  <Rbt.Library>
libRbt.so (2013.1, Build901 2013/11/27)

>  <Rbt.Parameter_File>
/export/apps/rDock/src/rDock_2013.1_src/data/scripts/dock_solv.prm

>  <Rbt.Receptor>
prm/pocket_docking_8.prm

>  <SCORE>
-8.89934

>  <SCORE.INTER>
1.12988

>  <SCORE.INTER.CONST>
1

>  <SCORE.INTER.POLAR>
0

>  <SCORE.INTER.ROT>
9

>  <SCORE.INTER.SOLV>
7.01347

>  <SCORE.INTER.VDW>
-11.1846

>  <SCORE.INTER.norm>
0.0869137

>  <SCORE.INTRA>
-10.0292

>  <SCORE.INTRA.DIHEDRAL>
-21.4759

>  <SCORE.INTRA.DIHEDRAL.0>
25.6828

>  <SCORE.INTRA.POLAR>
0

>  <SCORE.INTRA.POLAR.0>
0

>  <SCORE.INTRA.REPUL>
0

>  <SCORE.INTRA.REPUL.0>
0

>  <SCORE.INTRA.SOLV>
0.332946

>  <SCORE.INTRA.SOLV.lig_0>
-48.5059

>  <SCORE.INTRA.VDW>
0.542272

>  <SCORE.INTRA.VDW.0>
-0.363643

>  <SCORE.INTRA.norm>
-0.771479

>  <SCORE.RESTR>
0

>  <SCORE.RESTR.CAVITY>
0

>  <SCORE.RESTR.norm>
0

>  <SCORE.SYSTEM>
0

>  <SCORE.SYSTEM.CONST>
0

>  <SCORE.SYSTEM.DIHEDRAL>
0

>  <SCORE.SYSTEM.SOLV>
0

>  <SCORE.SYSTEM.norm>
0

>  <SCORE.heavy>
13

>  <SCORE.norm>
-0.684565

>  <RMSD>
8.173

$$$$
ligand
 OpenBabel11021811453D
libRbt.so/2013.1/901 2013/11/27
 13 12  0  0  0  0  0  0  0  0999 V2000
   35.5433   30.8449   48.9827 O   0  0  0  0  0  0  0  0  0  0  0  0
   37.3157   30.7399   46.6034 O   0  0  0  0  0  0  0  0  0  0  0  0
   30.9583   31.8868   50.8593 P   0  0  2  0  0  0  0  0  0  0  0  0
   30.4329   33.0214   51.6730 O   0  5  0  0  0  0  0  0  0  0  0  0
   30.6165   30.4942   51.2475 O   0  0  0  0  0  0  0  0  0  0  0  0
   32.5408   31.9872   50.8033 O   0  0  0  0  0  0  0  0  0  0  0  0
   36.1374   30.4076   44.0495 O   0  0  0  0  0  0  0  0  0  0  0  0
   33.2948   31.2460   49.8332 C   0  0  0  0  0  0  0  0  0  0  0  0
   37.7260   30.3128   47.9276 C   0  0  0  0  0  0  0  0  0  0  0  0
   37.5430   30.5686   44.1754 C   0  0  0  0  0  0  0  0  0  0  0  0
   34.7949   31.5448   49.9949 C   0  0  0  0  0  0  0  0  0  0  0  0
   36.9768   31.0859   49.0407 C   0  0  0  0  0  0  0  0  0  0  0  0
   37.9676   30.0032   45.5424 C   0  0  0  0  0  0  0  0  0  0  0  0
  1 12  1  0  0  0  0
  1 11  1  0  0  0  0
  2 13  1  0  0  0  0
  2  9  1  0  0  0  0
  3  4  1  1  0  0  0
  3  5  2  0  0  0  0
  3  6  1  0  0  0  0
  6  8  1  0  0  0  0
  7 10  1  0  0  0  0
  8 11  1  0  0  0  0
  9 12  1  0  0  0  0
 10 13  1  0  0  0  0
M  CHG  1   4  -1
M  END
>  <CHROM.1>
-179.79524061,-176.71579465,-164.18501387,179.27605121,-177.50977339,-178.08125504
62.24984542,-61.35398266,178.96464321,34.39691391,31.16109486,48.72689990
-0.72764566,-0.11621281,1.44405439

>  <Name>
ligand

>  <RI>
0

>  <Rbt.Current_Directory>
/home/itssahil/PROJECTS/Mol_Feturizer/New_Systems/rnas/2NPY

>  <Rbt.Executable>
rbdock ($Id: //depot/dev/client3/rdock/2013.1/src/exe/rbdock.cxx#4 $)

>  <Rbt.Library>
libRbt.so (2013.1, Build901 2013/11/27)

>  <Rbt.Parameter_File>
/export/apps/rDock/src/rDock_2013.1_src/data/scripts/dock_solv.prm

>  <Rbt.Receptor>
prm/pocket_docking_6.prm

>  <SCORE>
-12.5203

>  <SCORE.INTER>
1.7756

>  <SCORE.INTER.CONST>
1

>  <SCORE.INTER.POLAR>
0

>  <SCORE.INTER.ROT>
9

>  <SCORE.INTER.SOLV>
5.92261

>  <SCORE.INTER.VDW>
-10.3905

>  <SCORE.INTER.norm>
0.136584

>  <SCORE.INTRA>
-14.2959

>  <SCORE.INTRA.DIHEDRAL>
-25.4085

>  <SCORE.INTRA.DIHEDRAL.0>
25.6828

>  <SCORE.INTRA.POLAR>
0

>  <SCORE.INTRA.POLAR.0>
0

>  <SCORE.INTRA.REPUL>
0

>  <SCORE.INTRA.REPUL.0>
0

>  <SCORE.INTRA.SOLV>
-1.21532

>  <SCORE.INTRA.SOLV.lig_0>
-48.5059

>  <SCORE.INTRA.VDW>
-0.983985

>  <SCORE.INTRA.VDW.0>
-0.363643

>  <SCORE.INTRA.norm>
-1.09968

>  <SCORE.RESTR>
0

>  <SCORE.RESTR.CAVITY>
0

>  <SCORE.RESTR.norm>
0

>  <SCORE.SYSTEM>
0

>  <SCORE.SYSTEM.CONST>
0

>  <SCORE.SYSTEM.DIHEDRAL>
0

>  <SCORE.SYSTEM.SOLV>
0

>  <SCORE.SYSTEM.norm>
0

>  <SCORE.heavy>
13

>  <SCORE.norm>
-0.9631

>  <RMSD>
8.209

$$$$
ligand
 OpenBabel11021811453D
libRbt.so/2013.1/901 2013/11/27
 13 12  0  0  0  0  0  0  0  0999 V2000
   36.5297   30.6264   47.7577 O   0  0  0  0  0  0  0  0  0  0  0  0
   37.7131   31.0717   45.0026 O   0  0  0  0  0  0  0  0  0  0  0  0
   33.7196   32.2531   51.6427 P   0  0  2  0  0  0  0  0  0  0  0  0
   33.2304   33.4672   50.9272 O   0  5  0  0  0  0  0  0  0  0  0  0
   33.9767   32.3246   53.1041 O   0  0  0  0  0  0  0  0  0  0  0  0
   35.0582   31.7562   50.9508 O   0  0  0  0  0  0  0  0  0  0  0  0
   35.3220   31.2604   43.4439 O   0  0  0  0  0  0  0  0  0  0  0  0
   35.0872   31.4130   49.5579 C   0  0  0  0  0  0  0  0  0  0  0  0
   37.8042   29.8474   45.7754 C   0  0  0  0  0  0  0  0  0  0  0  0
   36.3050   30.2721   43.1711 C   0  0  0  0  0  0  0  0  0  0  0  0
   36.5003   30.9538   49.1600 C   0  0  0  0  0  0  0  0  0  0  0  0
   37.8165   30.1268   47.2985 C   0  0  0  0  0  0  0  0  0  0  0  0
   37.6774   30.8398   43.5749 C   0  0  0  0  0  0  0  0  0  0  0  0
  1 12  1  0  0  0  0
  1 11  1  0  0  0  0
  2 13  1  0  0  0  0
  2  9  1  0  0  0  0
  3  4  1  6  0  0  0
  3  5  2  0  0  0  0
  3  6  1  0  0  0  0
  6  8  1  0  0  0  0
  7 10  1  0  0  0  0
  8 11  1  0  0  0  0
  9 12  1  0  0  0  0
 10 13  1  0  0  0  0
M  CHG  1   4  -1
M  END
>  <CHROM.1>
-177.67029070,73.28336709,-57.95804013,-179.44366856,-179.27621928,-179.04173400
68.74499491,64.18451540,-177.58410586,35.69430623,31.35610893,48.14721028
-1.13338668,-0.51128463,1.56480992

>  <Name>
ligand

>  <RI>
0

>  <Rbt.Current_Directory>
/home/itssahil/PROJECTS/Mol_Feturizer/New_Systems/rnas/2NPY

>  <Rbt.Executable>
rbdock ($Id: //depot/dev/client3/rdock/2013.1/src/exe/rbdock.cxx#4 $)

>  <Rbt.Library>
libRbt.so (2013.1, Build901 2013/11/27)

>  <Rbt.Parameter_File>
/export/apps/rDock/src/rDock_2013.1_src/data/scripts/dock_solv.prm

>  <Rbt.Receptor>
prm/pocket_docking_7.prm

>  <SCORE>
-11.4199

>  <SCORE.INTER>
1.55106

>  <SCORE.INTER.CONST>
1

>  <SCORE.INTER.POLAR>
0

>  <SCORE.INTER.ROT>
9

>  <SCORE.INTER.SOLV>
9.45066

>  <SCORE.INTER.VDW>
-11.7162

>  <SCORE.INTER.norm>
0.119312

>  <SCORE.INTRA>
-12.9709

>  <SCORE.INTRA.DIHEDRAL>
-24.3929

>  <SCORE.INTRA.DIHEDRAL.0>
25.6828

>  <SCORE.INTRA.POLAR>
0

>  <SCORE.INTRA.POLAR.0>
0

>  <SCORE.INTRA.REPUL>
0

>  <SCORE.INTRA.REPUL.0>
0

>  <SCORE.INTRA.SOLV>
-1.10703

>  <SCORE.INTRA.SOLV.lig_0>
-48.5059

>  <SCORE.INTRA.VDW>
-0.220959

>  <SCORE.INTRA.VDW.0>
-0.363643

>  <SCORE.INTRA.norm>
-0.997764

>  <SCORE.RESTR>
0

>  <SCORE.RESTR.CAVITY>
0

>  <SCORE.RESTR.norm>
0

>  <SCORE.SYSTEM>
0

>  <SCORE.SYSTEM.CONST>
0

>  <SCORE.SYSTEM.DIHEDRAL>
0

>  <SCORE.SYSTEM.SOLV>
0

>  <SCORE.SYSTEM.norm>
0

>  <SCORE.heavy>
13

>  <SCORE.norm>
-0.878452

>  <RMSD>
8.223

$$$$
ligand
 OpenBabel11021811453D
libRbt.so/2013.1/901 2013/11/27
 13 12  0  0  0  0  0  0  0  0999 V2000
   34.8606   30.9829   49.9518 O   0  0  0  0  0  0  0  0  0  0  0  0
   37.3606   30.1877   48.5974 O   0  0  0  0  0  0  0  0  0  0  0  0
   29.9086   30.4504   50.8410 P   0  0  2  0  0  0  0  0  0  0  0  0
   29.6388   29.4793   49.7412 O   0  5  0  0  0  0  0  0  0  0  0  0
   28.8599   31.4334   51.2164 O   0  0  0  0  0  0  0  0  0  0  0  0
   31.2208   31.2700   50.4893 O   0  0  0  0  0  0  0  0  0  0  0  0
   37.5975   30.4452   44.9457 O   0  0  0  0  0  0  0  0  0  0  0  0
   32.4769   30.6051   50.2913 C   0  0  0  0  0  0  0  0  0  0  0  0
   37.3253   31.1305   49.6993 C   0  0  0  0  0  0  0  0  0  0  0  0
   37.5547   29.7727   46.1960 C   0  0  0  0  0  0  0  0  0  0  0  0
   33.5807   31.6403   50.0157 C   0  0  0  0  0  0  0  0  0  0  0  0
   35.9793   31.8934   49.7623 C   0  0  0  0  0  0  0  0  0  0  0  0
   37.3893   30.8306   47.3015 C   0  0  0  0  0  0  0  0  0  0  0  0
  1 12  1  0  0  0  0
  1 11  1  0  0  0  0
  2 13  1  0  0  0  0
  2  9  1  0  0  0  0
  3  4  1  6  0  0  0
  3  5  2  0  0  0  0
  3  6  1  0  0  0  0
  6  8  1  0  0  0  0
  7 10  1  0  0  0  0
  8 11  1  0  0  0  0
  9 12  1  0  0  0  0
 10 13  1  0  0  0  0
M  CHG  1   4  -1
M  END
>  <CHROM.1>
-179.91099132,174.88180405,-59.54107147,-177.94069112,174.22058384,68.62704128
60.52398282,-179.17151282,-177.00559824,33.74636269,30.74407740,49.29269119
-0.40310965,0.15931226,1.18351810

>  <Name>
ligand

>  <RI>
0

>  <Rbt.Current_Directory>
/home/itssahil/PROJECTS/Mol_Feturizer/New_Systems/rnas/2NPY

>  <Rbt.Executable>
rbdock ($Id: //depot/dev/client3/rdock/2013.1/src/exe/rbdock.cxx#4 $)

>  <Rbt.Library>
libRbt.so (2013.1, Build901 2013/11/27)

>  <Rbt.Parameter_File>
/export/apps/rDock/src/rDock_2013.1_src/data/scripts/dock_solv.prm

>  <Rbt.Receptor>
prm/pocket_docking_8.prm

>  <SCORE>
-11.1021

>  <SCORE.INTER>
2.19868

>  <SCORE.INTER.CONST>
1

>  <SCORE.INTER.POLAR>
0

>  <SCORE.INTER.ROT>
9

>  <SCORE.INTER.SOLV>
7.99593

>  <SCORE.INTER.VDW>
-10.7995

>  <SCORE.INTER.norm>
0.169129

>  <SCORE.INTRA>
-13.3008

>  <SCORE.INTRA.DIHEDRAL>
-24.9461

>  <SCORE.INTRA.DIHEDRAL.0>
25.6828

>  <SCORE.INTRA.POLAR>
0

>  <SCORE.INTRA.POLAR.0>
0

>  <SCORE.INTRA.REPUL>
0

>  <SCORE.INTRA.REPUL.0>
0

>  <SCORE.INTRA.SOLV>
-1.37682

>  <SCORE.INTRA.SOLV.lig_0>
-48.5059

>  <SCORE.INTRA.VDW>
-0.13935

>  <SCORE.INTRA.VDW.0>
-0.363643

>  <SCORE.INTRA.norm>
-1.02314

>  <SCORE.RESTR>
0

>  <SCORE.RESTR.CAVITY>
0

>  <SCORE.RESTR.norm>
0

>  <SCORE.SYSTEM>
0

>  <SCORE.SYSTEM.CONST>
0

>  <SCORE.SYSTEM.DIHEDRAL>
0

>  <SCORE.SYSTEM.SOLV>
0

>  <SCORE.SYSTEM.norm>
0

>  <SCORE.heavy>
13

>  <SCORE.norm>
-0.854011

>  <RMSD>
8.226

$$$$
ligand
 OpenBabel11021811453D
libRbt.so/2013.1/901 2013/11/27
 13 12  0  0  0  0  0  0  0  0999 V2000
   36.8701   30.9121   45.7632 O   0  0  0  0  0  0  0  0  0  0  0  0
   36.1522   31.0438   42.0724 O   0  0  0  0  0  0  0  0  0  0  0  0
   35.7593   31.3873   49.9128 P   0  0  2  0  0  0  0  0  0  0  0  0
   34.2752   31.4289   50.0589 O   0  5  0  0  0  0  0  0  0  0  0  0
   36.5406   32.6410   50.0691 O   0  0  0  0  0  0  0  0  0  0  0  0
   36.1164   30.7816   48.4905 O   0  0  0  0  0  0  0  0  0  0  0  0
   35.0120   28.1368   40.1505 O   0  0  0  0  0  0  0  0  0  0  0  0
   37.4804   30.5710   48.0979 C   0  0  0  0  0  0  0  0  0  0  0  0
   36.0969   31.4445   43.4655 C   0  0  0  0  0  0  0  0  0  0  0  0
   35.6376   29.3978   40.3396 C   0  0  0  0  0  0  0  0  0  0  0  0
   37.5337   30.0085   46.6673 C   0  0  0  0  0  0  0  0  0  0  0  0
   36.8818   30.4696   44.3774 C   0  0  0  0  0  0  0  0  0  0  0  0
   35.4317   29.8176   41.8060 C   0  0  0  0  0  0  0  0  0  0  0  0
  1 12  1  0  0  0  0
  1 11  1  0  0  0  0
  2 13  1  0  0  0  0
  2  9  1  0  0  0  0
  3  4  1  6  0  0  0
  3  5  2  0  0  0  0
  3  6  1  0  0  0  0
  6  8  1  0  0  0  0
  7 10  1  0  0  0  0
  8 11  1  0  0  0  0
  9 12  1  0  0  0  0
 10 13  1  0  0  0  0
M  CHG  1   4  -1
M  END
>  <CHROM.1>
177.26534938,-175.18744451,-177.36656154,-178.67540638,57.61469272,68.08960752
177.46741022,175.09630656,179.37717373,36.08979672,30.69171259,45.87267713
-1.60128079,0.22426818,1.35660441

>  <Name>
ligand

>  <RI>
0

>  <Rbt.Current_Directory>
/home/itssahil/PROJECTS/Mol_Feturizer/New_Systems/rnas/2NPY

>  <Rbt.Executable>
rbdock ($Id: //depot/dev/client3/rdock/2013.1/src/exe/rbdock.cxx#4 $)

>  <Rbt.Library>
libRbt.so (2013.1, Build901 2013/11/27)

>  <Rbt.Parameter_File>
/export/apps/rDock/src/rDock_2013.1_src/data/scripts/dock_solv.prm

>  <Rbt.Receptor>
prm/pocket_docking_7.prm

>  <SCORE>
-11.5333

>  <SCORE.INTER>
1.65713

>  <SCORE.INTER.CONST>
1

>  <SCORE.INTER.POLAR>
0

>  <SCORE.INTER.ROT>
9

>  <SCORE.INTER.SOLV>
12.7736

>  <SCORE.INTER.VDW>
-12.7531

>  <SCORE.INTER.norm>
0.127472

>  <SCORE.INTRA>
-13.1905

>  <SCORE.INTRA.DIHEDRAL>
-25.0311

>  <SCORE.INTRA.DIHEDRAL.0>
25.6828

>  <SCORE.INTRA.POLAR>
0

>  <SCORE.INTRA.POLAR.0>
0

>  <SCORE.INTRA.REPUL>
0

>  <SCORE.INTRA.REPUL.0>
0

>  <SCORE.INTRA.SOLV>
-1.35013

>  <SCORE.INTRA.SOLV.lig_0>
-48.5059

>  <SCORE.INTRA.VDW>
0.000128572

>  <SCORE.INTRA.VDW.0>
-0.363643

>  <SCORE.INTRA.norm>
-1.01465

>  <SCORE.RESTR>
0

>  <SCORE.RESTR.CAVITY>
0

>  <SCORE.RESTR.norm>
0

>  <SCORE.SYSTEM>
0

>  <SCORE.SYSTEM.CONST>
0

>  <SCORE.SYSTEM.DIHEDRAL>
0

>  <SCORE.SYSTEM.SOLV>
0

>  <SCORE.SYSTEM.norm>
0

>  <SCORE.heavy>
13

>  <SCORE.norm>
-0.88718

>  <RMSD>
8.302

$$$$
ligand
 OpenBabel11021811453D
libRbt.so/2013.1/901 2013/11/27
 13 12  0  0  0  0  0  0  0  0999 V2000
   34.8430   30.8892   49.3784 O   0  0  0  0  0  0  0  0  0  0  0  0
   36.6706   30.8891   47.0628 O   0  0  0  0  0  0  0  0  0  0  0  0
   30.2886   30.6223   51.5572 P   0  0  2  0  0  0  0  0  0  0  0  0
   29.4935   30.7673   50.3034 O   0  5  0  0  0  0  0  0  0  0  0  0
   29.7593   31.1906   52.8236 O   0  0  0  0  0  0  0  0  0  0  0  0
   31.7289   31.2459   51.3246 O   0  0  0  0  0  0  0  0  0  0  0  0
   37.9166   29.9553   43.7415 O   0  0  0  0  0  0  0  0  0  0  0  0
   32.5761   30.7755   50.2663 C   0  0  0  0  0  0  0  0  0  0  0  0
   37.1288   30.7114   48.4276 C   0  0  0  0  0  0  0  0  0  0  0  0
   37.0107   30.5380   44.6675 C   0  0  0  0  0  0  0  0  0  0  0  0
   33.9441   31.4750   50.3392 C   0  0  0  0  0  0  0  0  0  0  0  0
   36.1975   31.4158   49.4447 C   0  0  0  0  0  0  0  0  0  0  0  0
   37.5401   30.2680   46.0872 C   0  0  0  0  0  0  0  0  0  0  0  0
  1 12  1  0  0  0  0
  1 11  1  0  0  0  0
  2 13  1  0  0  0  0
  2  9  1  0  0  0  0
  3  4  1  6  0  0  0
  3  5  2  0  0  0  0
  3  6  1  0  0  0  0
  6  8  1  0  0  0  0
  7 10  1  0  0  0  0
  8 11  1  0  0  0  0
  9 12  1  0  0  0  0
 10 13  1  0  0  0  0
M  CHG  1   4  -1
M  END
>  <CHROM.1>
177.81507304,-178.25302895,-57.20525217,-175.68847620,173.23886278,178.60371628
60.25619933,177.88932808,-175.43946327,33.87437823,30.80983949,49.10648737
-0.69059557,0.12185475,1.34625745

>  <Name>
ligand

>  <RI>
0

>  <Rbt.Current_Directory>
/home/itssahil/PROJECTS/Mol_Feturizer/New_Systems/rnas/2NPY

>  <Rbt.Executable>
rbdock ($Id: //depot/dev/client3/rdock/2013.1/src/exe/rbdock.cxx#4 $)

>  <Rbt.Library>
libRbt.so (2013.1, Build901 2013/11/27)

>  <Rbt.Parameter_File>
/export/apps/rDock/src/rDock_2013.1_src/data/scripts/dock_solv.prm

>  <Rbt.Receptor>
prm/pocket_docking_7.prm

>  <SCORE>
-12.9951

>  <SCORE.INTER>
1.22849

>  <SCORE.INTER.CONST>
1

>  <SCORE.INTER.POLAR>
0

>  <SCORE.INTER.ROT>
9

>  <SCORE.INTER.SOLV>
6.2871

>  <SCORE.INTER.VDW>
-10.8767

>  <SCORE.INTER.norm>
0.0944989

>  <SCORE.INTRA>
-14.2236

>  <SCORE.INTRA.DIHEDRAL>
-25.2174

>  <SCORE.INTRA.DIHEDRAL.0>
25.6828

>  <SCORE.INTRA.POLAR>
0

>  <SCORE.INTRA.POLAR.0>
0

>  <SCORE.INTRA.REPUL>
0

>  <SCORE.INTRA.REPUL.0>
0

>  <SCORE.INTRA.SOLV>
-1.44877

>  <SCORE.INTRA.SOLV.lig_0>
-48.5059

>  <SCORE.INTRA.VDW>
-0.890533

>  <SCORE.INTRA.VDW.0>
-0.363643

>  <SCORE.INTRA.norm>
-1.09413

>  <SCORE.RESTR>
0

>  <SCORE.RESTR.CAVITY>
0

>  <SCORE.RESTR.norm>
0

>  <SCORE.SYSTEM>
0

>  <SCORE.SYSTEM.CONST>
0

>  <SCORE.SYSTEM.DIHEDRAL>
0

>  <SCORE.SYSTEM.SOLV>
0

>  <SCORE.SYSTEM.norm>
0

>  <SCORE.heavy>
13

>  <SCORE.norm>
-0.999626

>  <RMSD>
8.347

$$$$
ligand
 OpenBabel11021811453D
libRbt.so/2013.1/901 2013/11/27
 13 12  0  0  0  0  0  0  0  0999 V2000
   34.0493   31.8052   48.7358 O   0  0  0  0  0  0  0  0  0  0  0  0
   36.4945   30.4653   47.9969 O   0  0  0  0  0  0  0  0  0  0  0  0
   30.7669   34.4275   51.5613 P   0  0  2  0  0  0  0  0  0  0  0  0
   29.4371   34.0986   52.1519 O   0  5  0  0  0  0  0  0  0  0  0  0
   30.9358   35.7003   50.8140 O   0  0  0  0  0  0  0  0  0  0  0  0
   31.2021   33.2488   50.5925 O   0  0  0  0  0  0  0  0  0  0  0  0
   39.1318   29.7050   45.5633 O   0  0  0  0  0  0  0  0  0  0  0  0
   32.5585   33.1254   50.1412 C   0  0  0  0  0  0  0  0  0  0  0  0
   36.4163   31.2381   49.2220 C   0  0  0  0  0  0  0  0  0  0  0  0
   37.8060   29.7210   46.0727 C   0  0  0  0  0  0  0  0  0  0  0  0
   32.6869   31.9256   49.1873 C   0  0  0  0  0  0  0  0  0  0  0  0
   34.9660   31.3240   49.7579 C   0  0  0  0  0  0  0  0  0  0  0  0
   37.8354   30.3894   47.4588 C   0  0  0  0  0  0  0  0  0  0  0  0
  1 12  1  0  0  0  0
  1 11  1  0  0  0  0
  2 13  1  0  0  0  0
  2  9  1  0  0  0  0
  3  4  1  6  0  0  0
  3  5  2  0  0  0  0
  3  6  1  0  0  0  0
  6  8  1  0  0  0  0
  7 10  1  0  0  0  0
  8 11  1  0  0  0  0
  9 12  1  0  0  0  0
 10 13  1  0  0  0  0
M  CHG  1   4  -1
M  END
>  <CHROM.1>
-179.04464942,-172.43693038,-164.59806477,-178.37826708,179.96900128,178.89421877
-53.06733585,178.16952199,72.31076005,33.86671800,32.30110108,49.37277023
0.23308008,-0.67353453,2.74704433

>  <Name>
ligand

>  <RI>
0

>  <Rbt.Current_Directory>
/home/itssahil/PROJECTS/Mol_Feturizer/New_Systems/rnas/2NPY

>  <Rbt.Executable>
rbdock ($Id: //depot/dev/client3/rdock/2013.1/src/exe/rbdock.cxx#4 $)

>  <Rbt.Library>
libRbt.so (2013.1, Build901 2013/11/27)

>  <Rbt.Parameter_File>
/export/apps/rDock/src/rDock_2013.1_src/data/scripts/dock_solv.prm

>  <Rbt.Receptor>
prm/pocket_docking_8.prm

>  <SCORE>
-10.1231

>  <SCORE.INTER>
2.88145

>  <SCORE.INTER.CONST>
1

>  <SCORE.INTER.POLAR>
0

>  <SCORE.INTER.ROT>
9

>  <SCORE.INTER.SOLV>
5.05686

>  <SCORE.INTER.VDW>
-9.36466

>  <SCORE.INTER.norm>
0.22165

>  <SCORE.INTRA>
-13.0045

>  <SCORE.INTRA.DIHEDRAL>
-24.329

>  <SCORE.INTRA.DIHEDRAL.0>
25.6828

>  <SCORE.INTRA.POLAR>
0

>  <SCORE.INTRA.POLAR.0>
0

>  <SCORE.INTRA.REPUL>
0

>  <SCORE.INTRA.REPUL.0>
0

>  <SCORE.INTRA.SOLV>
-1.431

>  <SCORE.INTRA.SOLV.lig_0>
-48.5059

>  <SCORE.INTRA.VDW>
-0.1245

>  <SCORE.INTRA.VDW.0>
-0.363643

>  <SCORE.INTRA.norm>
-1.00035

>  <SCORE.RESTR>
0

>  <SCORE.RESTR.CAVITY>
0

>  <SCORE.RESTR.norm>
0

>  <SCORE.SYSTEM>
0

>  <SCORE.SYSTEM.CONST>
0

>  <SCORE.SYSTEM.DIHEDRAL>
0

>  <SCORE.SYSTEM.SOLV>
0

>  <SCORE.SYSTEM.norm>
0

>  <SCORE.heavy>
13

>  <SCORE.norm>
-0.778696

>  <RMSD>
8.391

$$$$
ligand
 OpenBabel11021811453D
libRbt.so/2013.1/901 2013/11/27
 13 12  0  0  0  0  0  0  0  0999 V2000
   35.7886   31.2174   42.2914 O   0  0  0  0  0  0  0  0  0  0  0  0
   38.0687   29.8291   44.9431 O   0  0  0  0  0  0  0  0  0  0  0  0
   31.9896   33.2216   43.0585 P   0  0  2  0  0  0  0  0  0  0  0  0
   32.2493   34.2027   41.9652 O   0  5  0  0  0  0  0  0  0  0  0  0
   31.7830   33.7153   44.4444 O   0  0  0  0  0  0  0  0  0  0  0  0
   33.1822   32.1762   43.1017 O   0  0  0  0  0  0  0  0  0  0  0  0
   40.4031   29.7033   46.4967 O   0  0  0  0  0  0  0  0  0  0  0  0
   33.3634   31.2173   42.0497 C   0  0  0  0  0  0  0  0  0  0  0  0
   36.8873   30.4579   44.3834 C   0  0  0  0  0  0  0  0  0  0  0  0
   39.2622   28.9536   46.8888 C   0  0  0  0  0  0  0  0  0  0  0  0
   34.6213   30.3742   42.3192 C   0  0  0  0  0  0  0  0  0  0  0  0
   36.9794   30.5898   42.8433 C   0  0  0  0  0  0  0  0  0  0  0  0
   38.0097   29.6907   46.3822 C   0  0  0  0  0  0  0  0  0  0  0  0
  1 12  1  0  0  0  0
  1 11  1  0  0  0  0
  2 13  1  0  0  0  0
  2  9  1  0  0  0  0
  3  4  1  6  0  0  0
  3  5  2  0  0  0  0
  3  6  1  0  0  0  0
  6  8  1  0  0  0  0
  7 10  1  0  0  0  0
  8 11  1  0  0  0  0
  9 12  1  0  0  0  0
 10 13  1  0  0  0  0
M  CHG  1   4  -1
M  END
>  <CHROM.1>
-71.89591007,177.14098010,-69.35919341,177.68730599,-63.82190752,-179.91452793
179.81632662,58.79698813,166.10317334,35.27623954,31.37966421,43.86203893
-2.88819685,-0.56431854,1.31295248

>  <Name>
ligand

>  <RI>
0

>  <Rbt.Current_Directory>
/home/itssahil/PROJECTS/Mol_Feturizer/New_Systems/rnas/2NPY

>  <Rbt.Executable>
rbdock ($Id: //depot/dev/client3/rdock/2013.1/src/exe/rbdock.cxx#4 $)

>  <Rbt.Library>
libRbt.so (2013.1, Build901 2013/11/27)

>  <Rbt.Parameter_File>
/export/apps/rDock/src/rDock_2013.1_src/data/scripts/dock_solv.prm

>  <Rbt.Receptor>
prm/pocket_docking_7.prm

>  <SCORE>
-10.5415

>  <SCORE.INTER>
2.36981

>  <SCORE.INTER.CONST>
1

>  <SCORE.INTER.POLAR>
0

>  <SCORE.INTER.ROT>
9

>  <SCORE.INTER.SOLV>
9.43473

>  <SCORE.INTER.VDW>
-11.165

>  <SCORE.INTER.norm>
0.182293

>  <SCORE.INTRA>
-12.9113

>  <SCORE.INTRA.DIHEDRAL>
-23.7252

>  <SCORE.INTRA.DIHEDRAL.0>
25.6828

>  <SCORE.INTRA.POLAR>
0

>  <SCORE.INTRA.POLAR.0>
0

>  <SCORE.INTRA.REPUL>
0

>  <SCORE.INTRA.REPUL.0>
0

>  <SCORE.INTRA.SOLV>
-1.25347

>  <SCORE.INTRA.SOLV.lig_0>
-48.5059

>  <SCORE.INTRA.VDW>
-0.42197

>  <SCORE.INTRA.VDW.0>
-0.363643

>  <SCORE.INTRA.norm>
-0.993178

>  <SCORE.RESTR>
0

>  <SCORE.RESTR.CAVITY>
0

>  <SCORE.RESTR.norm>
0

>  <SCORE.SYSTEM>
0

>  <SCORE.SYSTEM.CONST>
0

>  <SCORE.SYSTEM.DIHEDRAL>
0

>  <SCORE.SYSTEM.SOLV>
0

>  <SCORE.SYSTEM.norm>
0

>  <SCORE.heavy>
13

>  <SCORE.norm>
-0.810885

>  <RMSD>
8.447

$$$$
ligand
 OpenBabel11021811453D
libRbt.so/2013.1/901 2013/11/27
 13 12  0  0  0  0  0  0  0  0999 V2000
   34.5282   32.4168   50.3335 O   0  0  0  0  0  0  0  0  0  0  0  0
   36.6670   30.4665   47.9300 O   0  0  0  0  0  0  0  0  0  0  0  0
   31.4099   35.2589   51.3486 P   0  0  2  0  0  0  0  0  0  0  0  0
   30.3213   34.9682   52.3262 O   0  5  0  0  0  0  0  0  0  0  0  0
   31.0616   35.8225   50.0190 O   0  0  0  0  0  0  0  0  0  0  0  0
   32.2393   33.9300   51.0965 O   0  0  0  0  0  0  0  0  0  0  0  0
   38.8357   29.8716   45.0316 O   0  0  0  0  0  0  0  0  0  0  0  0
   33.1658   33.4397   52.0763 C   0  0  0  0  0  0  0  0  0  0  0  0
   35.9251   31.5984   48.4521 C   0  0  0  0  0  0  0  0  0  0  0  0
   38.1720   29.5376   46.2421 C   0  0  0  0  0  0  0  0  0  0  0  0
   33.8346   32.1513   51.5675 C   0  0  0  0  0  0  0  0  0  0  0  0
   35.2257   31.2607   49.7918 C   0  0  0  0  0  0  0  0  0  0  0  0
   37.3515   30.7605   46.6896 C   0  0  0  0  0  0  0  0  0  0  0  0
  1 12  1  0  0  0  0
  1 11  1  0  0  0  0
  2 13  1  0  0  0  0
  2  9  1  0  0  0  0
  3  4  1  6  0  0  0
  3  5  2  0  0  0  0
  3  6  1  0  0  0  0
  6  8  1  0  0  0  0
  7 10  1  0  0  0  0
  8 11  1  0  0  0  0
  9 12  1  0  0  0  0
 10 13  1  0  0  0  0
M  CHG  1   4  -1
M  END
>  <CHROM.1>
178.75422573,177.01842008,-75.06675753,-179.49111471,59.22891059,-178.95245517
177.75235623,-179.46508674,178.41481299,34.23649731,32.67699336,49.60636887
-2.85145518,0.77831174,-1.16322730

>  <Name>
ligand

>  <RI>
0

>  <Rbt.Current_Directory>
/home/itssahil/PROJECTS/Mol_Feturizer/New_Systems/rnas/2NPY

>  <Rbt.Executable>
rbdock ($Id: //depot/dev/client3/rdock/2013.1/src/exe/rbdock.cxx#4 $)

>  <Rbt.Library>
libRbt.so (2013.1, Build901 2013/11/27)

>  <Rbt.Parameter_File>
/export/apps/rDock/src/rDock_2013.1_src/data/scripts/dock_solv.prm

>  <Rbt.Receptor>
prm/pocket_docking_6.prm

>  <SCORE>
-10.1683

>  <SCORE.INTER>
4.1751

>  <SCORE.INTER.CONST>
1

>  <SCORE.INTER.POLAR>
0

>  <SCORE.INTER.ROT>
9

>  <SCORE.INTER.SOLV>
4.57585

>  <SCORE.INTER.VDW>
-8.34188

>  <SCORE.INTER.norm>
0.321161

>  <SCORE.INTRA>
-14.3434

>  <SCORE.INTRA.DIHEDRAL>
-25.166

>  <SCORE.INTRA.DIHEDRAL.0>
25.6828

>  <SCORE.INTRA.POLAR>
0

>  <SCORE.INTRA.POLAR.0>
0

>  <SCORE.INTRA.REPUL>
0

>  <SCORE.INTRA.REPUL.0>
0

>  <SCORE.INTRA.SOLV>
-1.56129

>  <SCORE.INTRA.SOLV.lig_0>
-48.5059

>  <SCORE.INTRA.VDW>
-0.979704

>  <SCORE.INTRA.VDW.0>
-0.363643

>  <SCORE.INTRA.norm>
-1.10334

>  <SCORE.RESTR>
0

>  <SCORE.RESTR.CAVITY>
0

>  <SCORE.RESTR.norm>
0

>  <SCORE.SYSTEM>
0

>  <SCORE.SYSTEM.CONST>
0

>  <SCORE.SYSTEM.DIHEDRAL>
0

>  <SCORE.SYSTEM.SOLV>
0

>  <SCORE.SYSTEM.norm>
0

>  <SCORE.heavy>
13

>  <SCORE.norm>
-0.782174

>  <RMSD>
8.461

$$$$
ligand
 OpenBabel11021811453D
libRbt.so/2013.1/901 2013/11/27
 13 12  0  0  0  0  0  0  0  0999 V2000
   35.8695   30.9785   49.8883 O   0  0  0  0  0  0  0  0  0  0  0  0
   37.0885   30.7770   46.3345 O   0  0  0  0  0  0  0  0  0  0  0  0
   30.9225   31.8036   50.5813 P   0  0  2  0  0  0  0  0  0  0  0  0
   30.1739   33.0457   50.9309 O   0  5  0  0  0  0  0  0  0  0  0  0
   30.5529   30.5230   51.2373 O   0  0  0  0  0  0  0  0  0  0  0  0
   32.4674   32.0444   50.8506 O   0  0  0  0  0  0  0  0  0  0  0  0
   39.2019   29.7347   43.5244 O   0  0  0  0  0  0  0  0  0  0  0  0
   33.4664   31.2850   50.1549 C   0  0  0  0  0  0  0  0  0  0  0  0
   37.0330   30.4800   47.7533 C   0  0  0  0  0  0  0  0  0  0  0  0
   38.1317   30.4267   44.1515 C   0  0  0  0  0  0  0  0  0  0  0  0
   34.8692   31.7231   50.6090 C   0  0  0  0  0  0  0  0  0  0  0  0
   35.9456   31.3137   48.4747 C   0  0  0  0  0  0  0  0  0  0  0  0
   38.1095   30.0254   45.6372 C   0  0  0  0  0  0  0  0  0  0  0  0
  1 12  1  0  0  0  0
  1 11  1  0  0  0  0
  2 13  1  0  0  0  0
  2  9  1  0  0  0  0
  3  4  1  1  0  0  0
  3  5  2  0  0  0  0
  3  6  1  0  0  0  0
  6  8  1  0  0  0  0
  7 10  1  0  0  0  0
  8 11  1  0  0  0  0
  9 12  1  0  0  0  0
 10 13  1  0  0  0  0
M  CHG  1   4  -1
M  END
>  <CHROM.1>
-179.81782267,-178.32707116,-155.39222748,-179.97065332,-178.80064425,179.18678766
178.21478930,176.18598916,68.88626777,34.55171566,31.15192057,48.65883273
-0.69900387,-0.11943619,1.43952637

>  <Name>
ligand

>  <RI>
0

>  <Rbt.Current_Directory>
/home/itssahil/PROJECTS/Mol_Feturizer/New_Systems/rnas/2NPY

>  <Rbt.Executable>
rbdock ($Id: //depot/dev/client3/rdock/2013.1/src/exe/rbdock.cxx#4 $)

>  <Rbt.Library>
libRbt.so (2013.1, Build901 2013/11/27)

>  <Rbt.Parameter_File>
/export/apps/rDock/src/rDock_2013.1_src/data/scripts/dock_solv.prm

>  <Rbt.Receptor>
prm/pocket_docking_8.prm

>  <SCORE>
-11.1995

>  <SCORE.INTER>
1.88327

>  <SCORE.INTER.CONST>
1

>  <SCORE.INTER.POLAR>
0

>  <SCORE.INTER.ROT>
9

>  <SCORE.INTER.SOLV>
5.67516

>  <SCORE.INTER.VDW>
-10.2362

>  <SCORE.INTER.norm>
0.144867

>  <SCORE.INTRA>
-13.0827

>  <SCORE.INTRA.DIHEDRAL>
-24.8162

>  <SCORE.INTRA.DIHEDRAL.0>
25.6828

>  <SCORE.INTRA.POLAR>
0

>  <SCORE.INTRA.POLAR.0>
0

>  <SCORE.INTRA.REPUL>
0

>  <SCORE.INTRA.REPUL.0>
0

>  <SCORE.INTRA.SOLV>
-1.67619

>  <SCORE.INTRA.SOLV.lig_0>
-48.5059

>  <SCORE.INTRA.VDW>
0.163473

>  <SCORE.INTRA.VDW.0>
-0.363643

>  <SCORE.INTRA.norm>
-1.00636

>  <SCORE.RESTR>
0

>  <SCORE.RESTR.CAVITY>
0

>  <SCORE.RESTR.norm>
0

>  <SCORE.SYSTEM>
0

>  <SCORE.SYSTEM.CONST>
0

>  <SCORE.SYSTEM.DIHEDRAL>
0

>  <SCORE.SYSTEM.SOLV>
0

>  <SCORE.SYSTEM.norm>
0

>  <SCORE.heavy>
13

>  <SCORE.norm>
-0.861496

>  <RMSD>
8.486

$$$$
ligand
 OpenBabel11021811453D
libRbt.so/2013.1/901 2013/11/27
 13 12  0  0  0  0  0  0  0  0999 V2000
   36.8182   30.3879   45.9762 O   0  0  0  0  0  0  0  0  0  0  0  0
   36.8651   30.1386   42.2236 O   0  0  0  0  0  0  0  0  0  0  0  0
   35.1043   31.6829   49.6883 P   0  0  2  0  0  0  0  0  0  0  0  0
   33.7897   32.2632   49.2875 O   0  5  0  0  0  0  0  0  0  0  0  0
   35.9539   32.4125   50.6643 O   0  0  0  0  0  0  0  0  0  0  0  0
   35.9776   31.4463   48.3850 O   0  0  0  0  0  0  0  0  0  0  0  0
   37.3658   31.0520   39.6098 O   0  0  0  0  0  0  0  0  0  0  0  0
   37.0878   30.5373   48.3938 C   0  0  0  0  0  0  0  0  0  0  0  0
   36.2964   30.2485   43.5536 C   0  0  0  0  0  0  0  0  0  0  0  0
   36.5442   29.9109   39.8108 C   0  0  0  0  0  0  0  0  0  0  0  0
   37.7905   30.5540   47.0257 C   0  0  0  0  0  0  0  0  0  0  0  0
   37.3919   30.3870   44.6393 C   0  0  0  0  0  0  0  0  0  0  0  0
   35.8628   30.0494   41.1839 C   0  0  0  0  0  0  0  0  0  0  0  0
  1 12  1  0  0  0  0
  1 11  1  0  0  0  0
  2 13  1  0  0  0  0
  2  9  1  0  0  0  0
  3  4  1  6  0  0  0
  3  5  2  0  0  0  0
  3  6  1  0  0  0  0
  6  8  1  0  0  0  0
  7 10  1  0  0  0  0
  8 11  1  0  0  0  0
  9 12  1  0  0  0  0
 10 13  1  0  0  0  0
M  CHG  1   4  -1
M  END
>  <CHROM.1>
-178.27632713,-179.00451272,-160.29688351,-177.33128815,-49.94608997,-178.20196434
-175.38729194,-59.49000271,-179.83380383,36.25739197,30.94251342,45.79527097
-1.72924712,0.35888941,-1.68233183

>  <Name>
ligand

>  <RI>
0

>  <Rbt.Current_Directory>
/home/itssahil/PROJECTS/Mol_Feturizer/New_Systems/rnas/2NPY

>  <Rbt.Executable>
rbdock ($Id: //depot/dev/client3/rdock/2013.1/src/exe/rbdock.cxx#4 $)

>  <Rbt.Library>
libRbt.so (2013.1, Build901 2013/11/27)

>  <Rbt.Parameter_File>
/export/apps/rDock/src/rDock_2013.1_src/data/scripts/dock_solv.prm

>  <Rbt.Receptor>
prm/pocket_docking_8.prm

>  <SCORE>
-11.147

>  <SCORE.INTER>
2.89336

>  <SCORE.INTER.CONST>
1

>  <SCORE.INTER.POLAR>
0

>  <SCORE.INTER.ROT>
9

>  <SCORE.INTER.SOLV>
9.65865

>  <SCORE.INTER.VDW>
-10.8906

>  <SCORE.INTER.norm>
0.222566

>  <SCORE.INTRA>
-14.0404

>  <SCORE.INTRA.DIHEDRAL>
-24.9161

>  <SCORE.INTRA.DIHEDRAL.0>
25.6828

>  <SCORE.INTRA.POLAR>
0

>  <SCORE.INTRA.POLAR.0>
0

>  <SCORE.INTRA.REPUL>
0

>  <SCORE.INTRA.REPUL.0>
0

>  <SCORE.INTRA.SOLV>
-1.1962

>  <SCORE.INTRA.SOLV.lig_0>
-48.5059

>  <SCORE.INTRA.VDW>
-0.984212

>  <SCORE.INTRA.VDW.0>
-0.363643

>  <SCORE.INTRA.norm>
-1.08003

>  <SCORE.RESTR>
0

>  <SCORE.RESTR.CAVITY>
0

>  <SCORE.RESTR.norm>
0

>  <SCORE.SYSTEM>
0

>  <SCORE.SYSTEM.CONST>
0

>  <SCORE.SYSTEM.DIHEDRAL>
0

>  <SCORE.SYSTEM.SOLV>
0

>  <SCORE.SYSTEM.norm>
0

>  <SCORE.heavy>
13

>  <SCORE.norm>
-0.857462

>  <RMSD>
8.556

$$$$
ligand
 OpenBabel11021811453D
libRbt.so/2013.1/901 2013/11/27
 13 12  0  0  0  0  0  0  0  0999 V2000
   35.3289   31.1599   49.6494 O   0  0  0  0  0  0  0  0  0  0  0  0
   38.1393   30.5042   47.2362 O   0  0  0  0  0  0  0  0  0  0  0  0
   31.2184   32.1883   50.6402 P   0  0  2  0  0  0  0  0  0  0  0  0
   30.7828   30.7804   50.8715 O   0  5  0  0  0  0  0  0  0  0  0  0
   30.5778   32.9789   49.5578 O   0  0  0  0  0  0  0  0  0  0  0  0
   32.7825   32.2026   50.3742 O   0  0  0  0  0  0  0  0  0  0  0  0
   40.4836   29.1202   46.4839 O   0  0  0  0  0  0  0  0  0  0  0  0
   33.7063   31.7438   51.3716 C   0  0  0  0  0  0  0  0  0  0  0  0
   36.7790   30.5181   47.7399 C   0  0  0  0  0  0  0  0  0  0  0  0
   39.7363   29.8352   45.5103 C   0  0  0  0  0  0  0  0  0  0  0  0
   35.1495   31.9096   50.8659 C   0  0  0  0  0  0  0  0  0  0  0  0
   36.6810   31.2215   49.1160 C   0  0  0  0  0  0  0  0  0  0  0  0
   38.2624   29.8461   45.9535 C   0  0  0  0  0  0  0  0  0  0  0  0
  1 12  1  0  0  0  0
  1 11  1  0  0  0  0
  2 13  1  0  0  0  0
  2  9  1  0  0  0  0
  3  4  1  6  0  0  0
  3  5  2  0  0  0  0
  3  6  1  0  0  0  0
  6  8  1  0  0  0  0
  7 10  1  0  0  0  0
  8 11  1  0  0  0  0
  9 12  1  0  0  0  0
 10 13  1  0  0  0  0
M  CHG  1   4  -1
M  END
>  <CHROM.1>
-174.30893487,-178.26646536,-61.44839580,-178.26739039,-58.97389312,179.68519195
-176.57442745,60.57012980,-178.14229868,34.98611406,31.16936256,49.02501157
-0.51559804,-0.18591122,1.39067608

>  <Name>
ligand

>  <RI>
0

>  <Rbt.Current_Directory>
/home/itssahil/PROJECTS/Mol_Feturizer/New_Systems/rnas/2NPY

>  <Rbt.Executable>
rbdock ($Id: //depot/dev/client3/rdock/2013.1/src/exe/rbdock.cxx#4 $)

>  <Rbt.Library>
libRbt.so (2013.1, Build901 2013/11/27)

>  <Rbt.Parameter_File>
/export/apps/rDock/src/rDock_2013.1_src/data/scripts/dock_solv.prm

>  <Rbt.Receptor>
prm/pocket_docking_6.prm

>  <SCORE>
-11.1413

>  <SCORE.INTER>
3.15554

>  <SCORE.INTER.CONST>
1

>  <SCORE.INTER.POLAR>
0

>  <SCORE.INTER.ROT>
9

>  <SCORE.INTER.SOLV>
4.16797

>  <SCORE.INTER.VDW>
-8.88563

>  <SCORE.INTER.norm>
0.242734

>  <SCORE.INTRA>
-14.2968

>  <SCORE.INTRA.DIHEDRAL>
-25.352

>  <SCORE.INTRA.DIHEDRAL.0>
25.6828

>  <SCORE.INTRA.POLAR>
0

>  <SCORE.INTRA.POLAR.0>
0

>  <SCORE.INTRA.REPUL>
0

>  <SCORE.INTRA.REPUL.0>
0

>  <SCORE.INTRA.SOLV>
-1.23795

>  <SCORE.INTRA.SOLV.lig_0>
-48.5059

>  <SCORE.INTRA.VDW>
-1.00185

>  <SCORE.INTRA.VDW.0>
-0.363643

>  <SCORE.INTRA.norm>
-1.09976

>  <SCORE.RESTR>
0

>  <SCORE.RESTR.CAVITY>
0

>  <SCORE.RESTR.norm>
0

>  <SCORE.SYSTEM>
0

>  <SCORE.SYSTEM.CONST>
0

>  <SCORE.SYSTEM.DIHEDRAL>
0

>  <SCORE.SYSTEM.SOLV>
0

>  <SCORE.SYSTEM.norm>
0

>  <SCORE.heavy>
13

>  <SCORE.norm>
-0.857023

>  <RMSD>
8.724

$$$$
ligand
 OpenBabel11021811453D
libRbt.so/2013.1/901 2013/11/27
 13 12  0  0  0  0  0  0  0  0999 V2000
   36.3799   31.0722   42.6756 O   0  0  0  0  0  0  0  0  0  0  0  0
   37.6586   30.5966   45.3030 O   0  0  0  0  0  0  0  0  0  0  0  0
   35.8111   28.5708   39.2373 P   0  0  2  0  0  0  0  0  0  0  0  0
   36.8232   29.0781   38.2658 O   0  5  0  0  0  0  0  0  0  0  0  0
   34.4621   28.1866   38.7477 O   0  0  0  0  0  0  0  0  0  0  0  0
   35.6091   29.6545   40.3784 O   0  0  0  0  0  0  0  0  0  0  0  0
   40.0907   29.8817   46.5376 O   0  0  0  0  0  0  0  0  0  0  0  0
   35.0659   29.2908   41.6557 C   0  0  0  0  0  0  0  0  0  0  0  0
   36.5367   31.4969   45.1160 C   0  0  0  0  0  0  0  0  0  0  0  0
   38.9296   29.0919   46.7511 C   0  0  0  0  0  0  0  0  0  0  0  0
   35.0551   30.5136   42.5887 C   0  0  0  0  0  0  0  0  0  0  0  0
   36.5162   32.1043   43.6917 C   0  0  0  0  0  0  0  0  0  0  0  0
   37.6993   30.0079   46.6241 C   0  0  0  0  0  0  0  0  0  0  0  0
  1 12  1  0  0  0  0
  1 11  1  0  0  0  0
  2 13  1  0  0  0  0
  2  9  1  0  0  0  0
  3  4  1  6  0  0  0
  3  5  2  0  0  0  0
  3  6  1  0  0  0  0
  6  8  1  0  0  0  0
  7 10  1  0  0  0  0
  8 11  1  0  0  0  0
  9 12  1  0  0  0  0
 10 13  1  0  0  0  0
M  CHG  1   4  -1
M  END
>  <CHROM.1>
74.20110622,-178.84841850,-158.84934077,176.83184463,-54.92750751,-179.69035174
61.38557522,60.08417138,-171.04225579,36.60561573,29.84081990,42.54621850
1.08995594,-0.65429559,1.05645090

>  <Name>
ligand

>  <RI>
0

>  <Rbt.Current_Directory>
/home/itssahil/PROJECTS/Mol_Feturizer/New_Systems/rnas/2NPY

>  <Rbt.Executable>
rbdock ($Id: //depot/dev/client3/rdock/2013.1/src/exe/rbdock.cxx#4 $)

>  <Rbt.Library>
libRbt.so (2013.1, Build901 2013/11/27)

>  <Rbt.Parameter_File>
/export/apps/rDock/src/rDock_2013.1_src/data/scripts/dock_solv.prm

>  <Rbt.Receptor>
prm/pocket_docking_8.prm

>  <SCORE>
-7.50684

>  <SCORE.INTER>
5.55813

>  <SCORE.INTER.CONST>
1

>  <SCORE.INTER.POLAR>
0

>  <SCORE.INTER.ROT>
9

>  <SCORE.INTER.SOLV>
5.69326

>  <SCORE.INTER.VDW>
-7.79234

>  <SCORE.INTER.norm>
0.427548

>  <SCORE.INTRA>
-13.065

>  <SCORE.INTRA.DIHEDRAL>
-23.9003

>  <SCORE.INTRA.DIHEDRAL.0>
25.6828

>  <SCORE.INTRA.POLAR>
0

>  <SCORE.INTRA.POLAR.0>
0

>  <SCORE.INTRA.REPUL>
0

>  <SCORE.INTRA.REPUL.0>
0

>  <SCORE.INTRA.SOLV>
-0.991817

>  <SCORE.INTRA.SOLV.lig_0>
-48.5059

>  <SCORE.INTRA.VDW>
-0.618886

>  <SCORE.INTRA.VDW.0>
-0.363643

>  <SCORE.INTRA.norm>
-1.005

>  <SCORE.RESTR>
0

>  <SCORE.RESTR.CAVITY>
0

>  <SCORE.RESTR.norm>
0

>  <SCORE.SYSTEM>
0

>  <SCORE.SYSTEM.CONST>
0

>  <SCORE.SYSTEM.DIHEDRAL>
0

>  <SCORE.SYSTEM.SOLV>
0

>  <SCORE.SYSTEM.norm>
0

>  <SCORE.heavy>
13

>  <SCORE.norm>
-0.577449

>  <RMSD>
8.744

$$$$
ligand
 OpenBabel11021811453D
libRbt.so/2013.1/901 2013/11/27
 13 12  0  0  0  0  0  0  0  0999 V2000
   36.3971   30.7044   47.6604 O   0  0  0  0  0  0  0  0  0  0  0  0
   38.5726   30.3049   44.6181 O   0  0  0  0  0  0  0  0  0  0  0  0
   32.9301   32.4607   49.4918 P   0  0  2  0  0  0  0  0  0  0  0  0
   33.0050   33.0946   50.8401 O   0  5  0  0  0  0  0  0  0  0  0  0
   32.1100   31.2357   49.3089 O   0  0  0  0  0  0  0  0  0  0  0  0
   34.4012   32.1224   49.0032 O   0  0  0  0  0  0  0  0  0  0  0  0
   40.3248   28.9125   42.8034 O   0  0  0  0  0  0  0  0  0  0  0  0
   35.2354   31.2174   49.7407 C   0  0  0  0  0  0  0  0  0  0  0  0
   37.3506   30.3331   45.3991 C   0  0  0  0  0  0  0  0  0  0  0  0
   39.6757   30.1236   42.4439 C   0  0  0  0  0  0  0  0  0  0  0  0
   36.5964   31.0687   49.0395 C   0  0  0  0  0  0  0  0  0  0  0  0
   37.6321   30.5819   46.9013 C   0  0  0  0  0  0  0  0  0  0  0  0
   38.3342   30.1874   43.1958 C   0  0  0  0  0  0  0  0  0  0  0  0
  1 12  1  0  0  0  0
  1 11  1  0  0  0  0
  2 13  1  0  0  0  0
  2  9  1  0  0  0  0
  3  4  1  1  0  0  0
  3  5  2  0  0  0  0
  3  6  1  0  0  0  0
  6  8  1  0  0  0  0
  7 10  1  0  0  0  0
  8 11  1  0  0  0  0
  9 12  1  0  0  0  0
 10 13  1  0  0  0  0
M  CHG  1   4  -1
M  END
>  <CHROM.1>
-174.15192506,-178.37947869,61.11472130,179.67745297,-53.31037182,-175.07289961
175.88233110,66.23442123,178.15506324,36.04576625,31.07738023,47.18410383
-2.32623331,0.26729998,-1.68554184

>  <Name>
ligand

>  <RI>
0

>  <Rbt.Current_Directory>
/home/itssahil/PROJECTS/Mol_Feturizer/New_Systems/rnas/2NPY

>  <Rbt.Executable>
rbdock ($Id: //depot/dev/client3/rdock/2013.1/src/exe/rbdock.cxx#4 $)

>  <Rbt.Library>
libRbt.so (2013.1, Build901 2013/11/27)

>  <Rbt.Parameter_File>
/export/apps/rDock/src/rDock_2013.1_src/data/scripts/dock_solv.prm

>  <Rbt.Receptor>
prm/pocket_docking_8.prm

>  <SCORE>
-10.8302

>  <SCORE.INTER>
2.99085

>  <SCORE.INTER.CONST>
1

>  <SCORE.INTER.POLAR>
0

>  <SCORE.INTER.ROT>
9

>  <SCORE.INTER.SOLV>
7.21554

>  <SCORE.INTER.VDW>
-10.0113

>  <SCORE.INTER.norm>
0.230065

>  <SCORE.INTRA>
-13.8211

>  <SCORE.INTRA.DIHEDRAL>
-24.9418

>  <SCORE.INTRA.DIHEDRAL.0>
25.6828

>  <SCORE.INTRA.POLAR>
0

>  <SCORE.INTRA.POLAR.0>
0

>  <SCORE.INTRA.REPUL>
0

>  <SCORE.INTRA.REPUL.0>
0

>  <SCORE.INTRA.SOLV>
-0.736662

>  <SCORE.INTRA.SOLV.lig_0>
-48.5059

>  <SCORE.INTRA.VDW>
-0.981816

>  <SCORE.INTRA.VDW.0>
-0.363643

>  <SCORE.INTRA.norm>
-1.06316

>  <SCORE.RESTR>
0

>  <SCORE.RESTR.CAVITY>
0

>  <SCORE.RESTR.norm>
0

>  <SCORE.SYSTEM>
0

>  <SCORE.SYSTEM.CONST>
0

>  <SCORE.SYSTEM.DIHEDRAL>
0

>  <SCORE.SYSTEM.SOLV>
0

>  <SCORE.SYSTEM.norm>
0

>  <SCORE.heavy>
13

>  <SCORE.norm>
-0.833094

>  <RMSD>
8.868

$$$$
ligand
 OpenBabel11021811453D
libRbt.so/2013.1/901 2013/11/27
 13 12  0  0  0  0  0  0  0  0999 V2000
   35.1295   31.1789   49.2680 O   0  0  0  0  0  0  0  0  0  0  0  0
   38.3058   30.0489   47.6112 O   0  0  0  0  0  0  0  0  0  0  0  0
   31.0006   30.3645   50.4940 P   0  0  2  0  0  0  0  0  0  0  0  0
   30.4905   30.9446   51.7702 O   0  5  0  0  0  0  0  0  0  0  0  0
   30.6806   28.9533   50.1577 O   0  0  0  0  0  0  0  0  0  0  0  0
   32.5800   30.5122   50.4602 O   0  0  0  0  0  0  0  0  0  0  0  0
   40.2144   27.9868   47.1533 O   0  0  0  0  0  0  0  0  0  0  0  0
   33.2068   31.7910   50.6350 C   0  0  0  0  0  0  0  0  0  0  0  0
   36.9243   30.4819   47.7017 C   0  0  0  0  0  0  0  0  0  0  0  0
   40.1322   29.1085   46.2858 C   0  0  0  0  0  0  0  0  0  0  0  0
   34.7362   31.6382   50.5752 C   0  0  0  0  0  0  0  0  0  0  0  0
   36.5600   30.9520   49.1314 C   0  0  0  0  0  0  0  0  0  0  0  0
   38.6754   29.6051   46.2846 C   0  0  0  0  0  0  0  0  0  0  0  0
  1 12  1  0  0  0  0
  1 11  1  0  0  0  0
  2 13  1  0  0  0  0
  2  9  1  0  0  0  0
  3  4  1  1  0  0  0
  3  5  2  0  0  0  0
  3  6  1  0  0  0  0
  6  8  1  0  0  0  0
  7 10  1  0  0  0  0
  8 11  1  0  0  0  0
  9 12  1  0  0  0  0
 10 13  1  0  0  0  0
M  CHG  1   4  -1
M  END
>  <CHROM.1>
-179.10608720,-177.62713634,-54.81250390,179.27151393,63.77527531,-179.92996729
-170.80781744,62.82315639,-177.64248021,34.89629160,30.26265068,49.17765111
-0.32515266,0.33889483,0.49348712

>  <Name>
ligand

>  <RI>
0

>  <Rbt.Current_Directory>
/home/itssahil/PROJECTS/Mol_Feturizer/New_Systems/rnas/2NPY

>  <Rbt.Executable>
rbdock ($Id: //depot/dev/client3/rdock/2013.1/src/exe/rbdock.cxx#4 $)

>  <Rbt.Library>
libRbt.so (2013.1, Build901 2013/11/27)

>  <Rbt.Parameter_File>
/export/apps/rDock/src/rDock_2013.1_src/data/scripts/dock_solv.prm

>  <Rbt.Receptor>
prm/pocket_docking_8.prm

>  <SCORE>
-12.0859

>  <SCORE.INTER>
2.08902

>  <SCORE.INTER.CONST>
1

>  <SCORE.INTER.POLAR>
0

>  <SCORE.INTER.ROT>
9

>  <SCORE.INTER.SOLV>
9.67647

>  <SCORE.INTER.VDW>
-11.4328

>  <SCORE.INTER.norm>
0.160694

>  <SCORE.INTRA>
-14.1749

>  <SCORE.INTRA.DIHEDRAL>
-25.1943

>  <SCORE.INTRA.DIHEDRAL.0>
25.6828

>  <SCORE.INTRA.POLAR>
0

>  <SCORE.INTRA.POLAR.0>
0

>  <SCORE.INTRA.REPUL>
0

>  <SCORE.INTRA.REPUL.0>
0

>  <SCORE.INTRA.SOLV>
-1.22606

>  <SCORE.INTRA.SOLV.lig_0>
-48.5059

>  <SCORE.INTRA.VDW>
-0.96474

>  <SCORE.INTRA.VDW.0>
-0.363643

>  <SCORE.INTRA.norm>
-1.09038

>  <SCORE.RESTR>
0

>  <SCORE.RESTR.CAVITY>
0

>  <SCORE.RESTR.norm>
0

>  <SCORE.SYSTEM>
0

>  <SCORE.SYSTEM.CONST>
0

>  <SCORE.SYSTEM.DIHEDRAL>
0

>  <SCORE.SYSTEM.SOLV>
0

>  <SCORE.SYSTEM.norm>
0

>  <SCORE.heavy>
13

>  <SCORE.norm>
-0.929685

>  <RMSD>
9.019

$$$$
ligand
 OpenBabel11021811453D
libRbt.so/2013.1/901 2013/11/27
 13 12  0  0  0  0  0  0  0  0999 V2000
   23.9869   30.3278   50.9403 O   0  0  0  0  0  0  0  0  0  0  0  0
   22.6091   31.9023   48.8308 O   0  0  0  0  0  0  0  0  0  0  0  0
   28.0686   29.9985   52.5785 P   0  0  2  0  0  0  0  0  0  0  0  0
   28.3661   30.8031   53.7989 O   0  5  0  0  0  0  0  0  0  0  0  0
   28.6617   30.4037   51.2781 O   0  0  0  0  0  0  0  0  0  0  0  0
   26.4958   29.9318   52.3806 O   0  0  0  0  0  0  0  0  0  0  0  0
   23.1094   34.6005   49.8541 O   0  0  0  0  0  0  0  0  0  0  0  0
   25.8984   28.9379   51.5354 C   0  0  0  0  0  0  0  0  0  0  0  0
   22.2018   31.8961   50.2230 C   0  0  0  0  0  0  0  0  0  0  0  0
   23.3136   34.2200   48.5010 C   0  0  0  0  0  0  0  0  0  0  0  0
   24.3673   29.0829   51.5565 C   0  0  0  0  0  0  0  0  0  0  0  0
   22.5505   30.5578   50.9197 C   0  0  0  0  0  0  0  0  0  0  0  0
   22.2799   33.1353   48.1490 C   0  0  0  0  0  0  0  0  0  0  0  0
  1 12  1  0  0  0  0
  1 11  1  0  0  0  0
  2 13  1  0  0  0  0
  2  9  1  0  0  0  0
  3  4  1  1  0  0  0
  3  5  2  0  0  0  0
  3  6  1  0  0  0  0
  6  8  1  0  0  0  0
  7 10  1  0  0  0  0
  8 11  1  0  0  0  0
  9 12  1  0  0  0  0
 10 13  1  0  0  0  0
M  CHG  1   4  -1
M  END
>  <CHROM.1>
-178.93599664,79.26655707,-162.18666693,178.54997273,66.53850088,179.24960615
62.49570579,-70.85207246,-179.69524837,25.07113547,31.12387649,50.97377038
2.51375504,-0.35744011,-0.40286361

>  <Name>
ligand

>  <RI>
0

>  <Rbt.Current_Directory>
/home/itssahil/PROJECTS/Mol_Feturizer/New_Systems/rnas/2NPY

>  <Rbt.Executable>
rbdock ($Id: //depot/dev/client3/rdock/2013.1/src/exe/rbdock.cxx#4 $)

>  <Rbt.Library>
libRbt.so (2013.1, Build901 2013/11/27)

>  <Rbt.Parameter_File>
/export/apps/rDock/src/rDock_2013.1_src/data/scripts/dock_solv.prm

>  <Rbt.Receptor>
prm/blind_docking_100.prm

>  <SCORE>
-11.1907

>  <SCORE.INTER>
1.16306

>  <SCORE.INTER.CONST>
1

>  <SCORE.INTER.POLAR>
0

>  <SCORE.INTER.ROT>
9

>  <SCORE.INTER.SOLV>
8.13865

>  <SCORE.INTER.VDW>
-11.5375

>  <SCORE.INTER.norm>
0.0894665

>  <SCORE.INTRA>
-12.3538

>  <SCORE.INTRA.DIHEDRAL>
-23.1731

>  <SCORE.INTRA.DIHEDRAL.0>
25.6828

>  <SCORE.INTRA.POLAR>
0

>  <SCORE.INTRA.POLAR.0>
0

>  <SCORE.INTRA.REPUL>
0

>  <SCORE.INTRA.REPUL.0>
0

>  <SCORE.INTRA.SOLV>
-0.86196

>  <SCORE.INTRA.SOLV.lig_0>
-48.5059

>  <SCORE.INTRA.VDW>
-0.336274

>  <SCORE.INTRA.VDW.0>
-0.363643

>  <SCORE.INTRA.norm>
-0.950291

>  <SCORE.RESTR>
0

>  <SCORE.RESTR.CAVITY>
0

>  <SCORE.RESTR.norm>
0

>  <SCORE.SYSTEM>
0

>  <SCORE.SYSTEM.CONST>
0

>  <SCORE.SYSTEM.DIHEDRAL>
0

>  <SCORE.SYSTEM.SOLV>
0

>  <SCORE.SYSTEM.norm>
0

>  <SCORE.heavy>
13

>  <SCORE.norm>
-0.860824

>  <RMSD>
9.125

$$$$
ligand
 OpenBabel11021811453D
libRbt.so/2013.1/901 2013/11/27
 13 12  0  0  0  0  0  0  0  0999 V2000
   22.2076   34.4397   48.7030 O   0  0  0  0  0  0  0  0  0  0  0  0
   21.4806   31.9698   47.4869 O   0  0  0  0  0  0  0  0  0  0  0  0
   26.2821   31.4356   48.6104 P   0  0  2  0  0  0  0  0  0  0  0  0
   25.7386   30.5273   49.6616 O   0  5  0  0  0  0  0  0  0  0  0  0
   27.7399   31.7192   48.5775 O   0  0  0  0  0  0  0  0  0  0  0  0
   25.5309   32.8302   48.7011 O   0  0  0  0  0  0  0  0  0  0  0  0
   21.6191   28.3198   47.1829 O   0  0  0  0  0  0  0  0  0  0  0  0
   24.0989   32.9034   48.6487 C   0  0  0  0  0  0  0  0  0  0  0  0
   21.8408   33.0971   46.6479 C   0  0  0  0  0  0  0  0  0  0  0  0
   21.4917   29.5556   47.8714 C   0  0  0  0  0  0  0  0  0  0  0  0
   23.6463   34.3725   48.7032 C   0  0  0  0  0  0  0  0  0  0  0  0
   21.6206   34.4481   47.3719 C   0  0  0  0  0  0  0  0  0  0  0  0
   21.7494   30.6913   46.8651 C   0  0  0  0  0  0  0  0  0  0  0  0
  1 12  1  0  0  0  0
  1 11  1  0  0  0  0
  2 13  1  0  0  0  0
  2  9  1  0  0  0  0
  3  4  1  1  0  0  0
  3  5  2  0  0  0  0
  3  6  1  0  0  0  0
  6  8  1  0  0  0  0
  7 10  1  0  0  0  0
  8 11  1  0  0  0  0
  9 12  1  0  0  0  0
 10 13  1  0  0  0  0
M  CHG  1   4  -1
M  END
>  <CHROM.1>
67.19501808,173.64134186,-54.34227363,-177.83155897,-177.77180107,-176.60760381
48.76447230,173.51571983,-87.01909277,23.72416494,31.95476747,48.13915600
3.09980211,0.28893623,-3.05835933

>  <Name>
ligand

>  <RI>
0

>  <Rbt.Current_Directory>
/home/itssahil/PROJECTS/Mol_Feturizer/New_Systems/rnas/2NPY

>  <Rbt.Executable>
rbdock ($Id: //depot/dev/client3/rdock/2013.1/src/exe/rbdock.cxx#4 $)

>  <Rbt.Library>
libRbt.so (2013.1, Build901 2013/11/27)

>  <Rbt.Parameter_File>
/export/apps/rDock/src/rDock_2013.1_src/data/scripts/dock_solv.prm

>  <Rbt.Receptor>
prm/blind_docking_80.prm

>  <SCORE>
-7.10011

>  <SCORE.INTER>
3.50762

>  <SCORE.INTER.CONST>
1

>  <SCORE.INTER.POLAR>
0

>  <SCORE.INTER.ROT>
9

>  <SCORE.INTER.SOLV>
13.3466

>  <SCORE.INTER.VDW>
-11.7105

>  <SCORE.INTER.norm>
0.269817

>  <SCORE.INTRA>
-10.6077

>  <SCORE.INTRA.DIHEDRAL>
-21.4425

>  <SCORE.INTRA.DIHEDRAL.0>
25.6828

>  <SCORE.INTRA.POLAR>
0

>  <SCORE.INTRA.POLAR.0>
0

>  <SCORE.INTRA.REPUL>
0

>  <SCORE.INTRA.REPUL.0>
0

>  <SCORE.INTRA.SOLV>
-1.0996

>  <SCORE.INTRA.SOLV.lig_0>
-48.5059

>  <SCORE.INTRA.VDW>
0.663344

>  <SCORE.INTRA.VDW.0>
-0.363643

>  <SCORE.INTRA.norm>
-0.815979

>  <SCORE.RESTR>
0

>  <SCORE.RESTR.CAVITY>
0

>  <SCORE.RESTR.norm>
0

>  <SCORE.SYSTEM>
0

>  <SCORE.SYSTEM.CONST>
0

>  <SCORE.SYSTEM.DIHEDRAL>
0

>  <SCORE.SYSTEM.SOLV>
0

>  <SCORE.SYSTEM.norm>
0

>  <SCORE.heavy>
13

>  <SCORE.norm>
-0.546162

>  <RMSD>
9.425

$$$$
ligand
 OpenBabel11021811453D
libRbt.so/2013.1/901 2013/11/27
 13 12  0  0  0  0  0  0  0  0999 V2000
   25.6305   30.3260   50.4911 O   0  0  0  0  0  0  0  0  0  0  0  0
   24.3499   31.6520   48.2533 O   0  0  0  0  0  0  0  0  0  0  0  0
   24.2288   27.0451   52.9988 P   0  0  2  0  0  0  0  0  0  0  0  0
   24.7930   26.7950   54.3569 O   0  5  0  0  0  0  0  0  0  0  0  0
   24.0215   25.8999   52.0755 O   0  0  0  0  0  0  0  0  0  0  0  0
   25.1493   28.0971   52.2482 O   0  0  0  0  0  0  0  0  0  0  0  0
   22.7049   34.7943   49.1893 O   0  0  0  0  0  0  0  0  0  0  0  0
   25.2863   29.4398   52.7352 C   0  0  0  0  0  0  0  0  0  0  0  0
   25.7233   31.1929   48.1672 C   0  0  0  0  0  0  0  0  0  0  0  0
   22.7640   33.4240   48.8201 C   0  0  0  0  0  0  0  0  0  0  0  0
   26.2122   30.2430   51.8060 C   0  0  0  0  0  0  0  0  0  0  0  0
   26.4001   31.1352   49.5588 C   0  0  0  0  0  0  0  0  0  0  0  0
   24.2408   33.0536   48.5954 C   0  0  0  0  0  0  0  0  0  0  0  0
  1 12  1  0  0  0  0
  1 11  1  0  0  0  0
  2 13  1  0  0  0  0
  2  9  1  0  0  0  0
  3  4  1  1  0  0  0
  3  5  2  0  0  0  0
  3  6  1  0  0  0  0
  6  8  1  0  0  0  0
  7 10  1  0  0  0  0
  8 11  1  0  0  0  0
  9 12  1  0  0  0  0
 10 13  1  0  0  0  0
M  CHG  1   4  -1
M  END
>  <CHROM.1>
-179.71796290,-173.74458296,-64.09983649,-178.98915001,62.38700730,70.18899832
54.73445706,178.38744437,176.65302063,24.67457056,29.94587673,50.92008110
-1.66331478,-0.41944616,2.48153858

>  <Name>
ligand

>  <RI>
0

>  <Rbt.Current_Directory>
/home/itssahil/PROJECTS/Mol_Feturizer/New_Systems/rnas/2NPY

>  <Rbt.Executable>
rbdock ($Id: //depot/dev/client3/rdock/2013.1/src/exe/rbdock.cxx#4 $)

>  <Rbt.Library>
libRbt.so (2013.1, Build901 2013/11/27)

>  <Rbt.Parameter_File>
/export/apps/rDock/src/rDock_2013.1_src/data/scripts/dock_solv.prm

>  <Rbt.Receptor>
prm/blind_docking_80.prm

>  <SCORE>
-9.33046

>  <SCORE.INTER>
4.07641

>  <SCORE.INTER.CONST>
1

>  <SCORE.INTER.POLAR>
0

>  <SCORE.INTER.ROT>
9

>  <SCORE.INTER.SOLV>
7.49271

>  <SCORE.INTER.VDW>
-9.37996

>  <SCORE.INTER.norm>
0.31357

>  <SCORE.INTRA>
-13.4069

>  <SCORE.INTRA.DIHEDRAL>
-24.6761

>  <SCORE.INTRA.DIHEDRAL.0>
25.6828

>  <SCORE.INTRA.POLAR>
0

>  <SCORE.INTRA.POLAR.0>
0

>  <SCORE.INTRA.REPUL>
0

>  <SCORE.INTRA.REPUL.0>
0

>  <SCORE.INTRA.SOLV>
-1.25193

>  <SCORE.INTRA.SOLV.lig_0>
-48.5059

>  <SCORE.INTRA.VDW>
-0.442839

>  <SCORE.INTRA.VDW.0>
-0.363643

>  <SCORE.INTRA.norm>
-1.0313

>  <SCORE.RESTR>
0

>  <SCORE.RESTR.CAVITY>
0

>  <SCORE.RESTR.norm>
0

>  <SCORE.SYSTEM>
0

>  <SCORE.SYSTEM.CONST>
0

>  <SCORE.SYSTEM.DIHEDRAL>
0

>  <SCORE.SYSTEM.SOLV>
0

>  <SCORE.SYSTEM.norm>
0

>  <SCORE.heavy>
13

>  <SCORE.norm>
-0.717728

>  <RMSD>
9.664

$$$$
ligand
 OpenBabel11021811453D
libRbt.so/2013.1/901 2013/11/27
 13 12  0  0  0  0  0  0  0  0999 V2000
   36.7334   31.3301   49.4944 O   0  0  0  0  0  0  0  0  0  0  0  0
   38.1230   29.6578   47.5702 O   0  0  0  0  0  0  0  0  0  0  0  0
   34.3456   32.8867   52.9826 P   0  0  2  0  0  0  0  0  0  0  0  0
   33.2797   32.5511   51.9943 O   0  5  0  0  0  0  0  0  0  0  0  0
   35.0353   34.1992   52.8906 O   0  0  0  0  0  0  0  0  0  0  0  0
   35.4626   31.7610   52.9323 O   0  0  0  0  0  0  0  0  0  0  0  0
   41.0674   27.9385   46.2171 O   0  0  0  0  0  0  0  0  0  0  0  0
   36.4374   31.7332   51.8798 C   0  0  0  0  0  0  0  0  0  0  0  0
   37.2770   30.7555   47.1418 C   0  0  0  0  0  0  0  0  0  0  0  0
   40.0305   28.1860   47.1556 C   0  0  0  0  0  0  0  0  0  0  0  0
   35.7438   31.4909   50.5285 C   0  0  0  0  0  0  0  0  0  0  0  0
   36.1704   31.0691   48.1786 C   0  0  0  0  0  0  0  0  0  0  0  0
   39.1747   29.3501   46.6253 C   0  0  0  0  0  0  0  0  0  0  0  0
  1 12  1  0  0  0  0
  1 11  1  0  0  0  0
  2 13  1  0  0  0  0
  2  9  1  0  0  0  0
  3  4  1  6  0  0  0
  3  5  2  0  0  0  0
  3  6  1  0  0  0  0
  6  8  1  0  0  0  0
  7 10  1  0  0  0  0
  8 11  1  0  0  0  0
  9 12  1  0  0  0  0
 10 13  1  0  0  0  0
M  CHG  1   4  -1
M  END
>  <CHROM.1>
-173.89853978,179.59547970,77.83086816,-63.96527223,-174.28154457,-179.47714020
55.20526041,-178.58719788,178.85718457,36.62467064,31.15883093,49.95674740
0.83978668,0.54163807,-1.73077121

>  <Name>
ligand

>  <RI>
0

>  <Rbt.Current_Directory>
/home/itssahil/PROJECTS/Mol_Feturizer/New_Systems/rnas/2NPY

>  <Rbt.Executable>
rbdock ($Id: //depot/dev/client3/rdock/2013.1/src/exe/rbdock.cxx#4 $)

>  <Rbt.Library>
libRbt.so (2013.1, Build901 2013/11/27)

>  <Rbt.Parameter_File>
/export/apps/rDock/src/rDock_2013.1_src/data/scripts/dock_solv.prm

>  <Rbt.Receptor>
prm/pocket_docking_8.prm

>  <SCORE>
-11.7488

>  <SCORE.INTER>
0.949745

>  <SCORE.INTER.CONST>
1

>  <SCORE.INTER.POLAR>
0

>  <SCORE.INTER.ROT>
9

>  <SCORE.INTER.SOLV>
8.50873

>  <SCORE.INTER.VDW>
-11.8031

>  <SCORE.INTER.norm>
0.0730573

>  <SCORE.INTRA>
-12.6985

>  <SCORE.INTRA.DIHEDRAL>
-25.0059

>  <SCORE.INTRA.DIHEDRAL.0>
25.6828

>  <SCORE.INTRA.POLAR>
0

>  <SCORE.INTRA.POLAR.0>
0

>  <SCORE.INTRA.REPUL>
0

>  <SCORE.INTRA.REPUL.0>
0

>  <SCORE.INTRA.SOLV>
0.804214

>  <SCORE.INTRA.SOLV.lig_0>
-48.5059

>  <SCORE.INTRA.VDW>
-0.59767

>  <SCORE.INTRA.VDW.0>
-0.363643

>  <SCORE.INTRA.norm>
-0.976809

>  <SCORE.RESTR>
0

>  <SCORE.RESTR.CAVITY>
0

>  <SCORE.RESTR.norm>
0

>  <SCORE.SYSTEM>
0

>  <SCORE.SYSTEM.CONST>
0

>  <SCORE.SYSTEM.DIHEDRAL>
0

>  <SCORE.SYSTEM.SOLV>
0

>  <SCORE.SYSTEM.norm>
0

>  <SCORE.heavy>
13

>  <SCORE.norm>
-0.903752

>  <RMSD>
9.685

$$$$
ligand
 OpenBabel11021811453D
libRbt.so/2013.1/901 2013/11/27
 13 12  0  0  0  0  0  0  0  0999 V2000
   23.4235   30.6043   51.8807 O   0  0  0  0  0  0  0  0  0  0  0  0
   23.3114   31.9132   49.0849 O   0  0  0  0  0  0  0  0  0  0  0  0
   25.5011   29.7915   55.6299 P   0  0  2  0  0  0  0  0  0  0  0  0
   26.6956   30.6654   55.4433 O   0  5  0  0  0  0  0  0  0  0  0  0
   25.6921   28.3783   56.0461 O   0  0  0  0  0  0  0  0  0  0  0  0
   24.6612   29.7788   54.2839 O   0  0  0  0  0  0  0  0  0  0  0  0
   23.5422   34.7227   49.5808 O   0  0  0  0  0  0  0  0  0  0  0  0
   25.2945   29.5354   53.0195 C   0  0  0  0  0  0  0  0  0  0  0  0
   22.8642   30.5859   49.4626 C   0  0  0  0  0  0  0  0  0  0  0  0
   22.7771   34.2242   48.4928 C   0  0  0  0  0  0  0  0  0  0  0  0
   24.2310   29.4121   51.9152 C   0  0  0  0  0  0  0  0  0  0  0  0
   22.3349   30.5482   50.9173 C   0  0  0  0  0  0  0  0  0  0  0  0
   22.2218   32.8454   48.8921 C   0  0  0  0  0  0  0  0  0  0  0  0
  1 12  1  0  0  0  0
  1 11  1  0  0  0  0
  2 13  1  0  0  0  0
  2  9  1  0  0  0  0
  3  4  1  6  0  0  0
  3  5  2  0  0  0  0
  3  6  1  0  0  0  0
  6  8  1  0  0  0  0
  7 10  1  0  0  0  0
  8 11  1  0  0  0  0
  9 12  1  0  0  0  0
 10 13  1  0  0  0  0
M  CHG  1   4  -1
M  END
>  <CHROM.1>
-69.63068846,-179.91377078,49.16963757,173.22884970,56.96468773,-72.09584556
-74.59193786,-64.34961518,-176.51921597,24.18815073,30.90393182,52.24198365
2.30042074,-0.98795522,-0.42421252

>  <Name>
ligand

>  <RI>
0

>  <Rbt.Current_Directory>
/home/itssahil/PROJECTS/Mol_Feturizer/New_Systems/rnas/2NPY

>  <Rbt.Executable>
rbdock ($Id: //depot/dev/client3/rdock/2013.1/src/exe/rbdock.cxx#4 $)

>  <Rbt.Library>
libRbt.so (2013.1, Build901 2013/11/27)

>  <Rbt.Parameter_File>
/export/apps/rDock/src/rDock_2013.1_src/data/scripts/dock_solv.prm

>  <Rbt.Receptor>
prm/blind_docking_80.prm

>  <SCORE>
-11.5978

>  <SCORE.INTER>
-0.10649

>  <SCORE.INTER.CONST>
1

>  <SCORE.INTER.POLAR>
0

>  <SCORE.INTER.ROT>
9

>  <SCORE.INTER.SOLV>
11.1006

>  <SCORE.INTER.VDW>
-13.3712

>  <SCORE.INTER.norm>
-0.00819154

>  <SCORE.INTRA>
-11.4918

>  <SCORE.INTRA.DIHEDRAL>
-23.0947

>  <SCORE.INTRA.DIHEDRAL.0>
25.6828

>  <SCORE.INTRA.POLAR>
0

>  <SCORE.INTRA.POLAR.0>
0

>  <SCORE.INTRA.REPUL>
0

>  <SCORE.INTRA.REPUL.0>
0

>  <SCORE.INTRA.SOLV>
-0.521212

>  <SCORE.INTRA.SOLV.lig_0>
-48.5059

>  <SCORE.INTRA.VDW>
0.316153

>  <SCORE.INTRA.VDW.0>
-0.363643

>  <SCORE.INTRA.norm>
-0.883984

>  <SCORE.RESTR>
0.000461899

>  <SCORE.RESTR.CAVITY>
0.000461899

>  <SCORE.RESTR.norm>
3.55307e-05

>  <SCORE.SYSTEM>
0

>  <SCORE.SYSTEM.CONST>
0

>  <SCORE.SYSTEM.DIHEDRAL>
0

>  <SCORE.SYSTEM.SOLV>
0

>  <SCORE.SYSTEM.norm>
0

>  <SCORE.heavy>
13

>  <SCORE.norm>
-0.89214

>  <RMSD>
10.614

$$$$
ligand
 OpenBabel11021811453D
libRbt.so/2013.1/901 2013/11/27
 13 12  0  0  0  0  0  0  0  0999 V2000
   26.4830   27.8321   51.8128 O   0  0  0  0  0  0  0  0  0  0  0  0
   29.3000   28.4136   52.1467 O   0  0  0  0  0  0  0  0  0  0  0  0
   23.3026   25.5348   48.6266 P   0  0  2  0  0  0  0  0  0  0  0  0
   22.1729   24.5753   48.7953 O   0  5  0  0  0  0  0  0  0  0  0  0
   24.4119   25.1958   47.6986 O   0  0  0  0  0  0  0  0  0  0  0  0
   23.9462   25.8221   50.0481 O   0  0  0  0  0  0  0  0  0  0  0  0
   30.7102   29.1399   49.7812 O   0  0  0  0  0  0  0  0  0  0  0  0
   24.8807   26.8951   50.2333 C   0  0  0  0  0  0  0  0  0  0  0  0
   28.3378   28.7623   53.1747 C   0  0  0  0  0  0  0  0  0  0  0  0
   31.4042   28.8799   50.9929 C   0  0  0  0  0  0  0  0  0  0  0  0
   25.3910   26.9017   51.6843 C   0  0  0  0  0  0  0  0  0  0  0  0
   27.0920   27.8434   53.1339 C   0  0  0  0  0  0  0  0  0  0  0  0
   30.4775   29.2542   52.1634 C   0  0  0  0  0  0  0  0  0  0  0  0
  1 12  1  0  0  0  0
  1 11  1  0  0  0  0
  2 13  1  0  0  0  0
  2  9  1  0  0  0  0
  3  4  1  1  0  0  0
  3  5  2  0  0  0  0
  3  6  1  0  0  0  0
  6  8  1  0  0  0  0
  7 10  1  0  0  0  0
  8 11  1  0  0  0  0
  9 12  1  0  0  0  0
 10 13  1  0  0  0  0
M  CHG  1   4  -1
M  END
>  <CHROM.1>
174.74962854,-176.45373982,-167.97507970,-177.34286443,170.67172143,-179.83189110
-54.33271308,62.95165231,-176.14150543,26.45142907,27.14192270,50.57616279
0.47482642,0.38296910,1.31221785

>  <Name>
ligand

>  <RI>
0

>  <Rbt.Current_Directory>
/home/itssahil/PROJECTS/Mol_Feturizer/New_Systems/rnas/2NPY

>  <Rbt.Executable>
rbdock ($Id: //depot/dev/client3/rdock/2013.1/src/exe/rbdock.cxx#4 $)

>  <Rbt.Library>
libRbt.so (2013.1, Build901 2013/11/27)

>  <Rbt.Parameter_File>
/export/apps/rDock/src/rDock_2013.1_src/data/scripts/dock_solv.prm

>  <Rbt.Receptor>
prm/blind_docking_100.prm

>  <SCORE>
-10.0414

>  <SCORE.INTER>
3.96226

>  <SCORE.INTER.CONST>
1

>  <SCORE.INTER.POLAR>
0

>  <SCORE.INTER.ROT>
9

>  <SCORE.INTER.SOLV>
9.50812

>  <SCORE.INTER.VDW>
-10.1279

>  <SCORE.INTER.norm>
0.304789

>  <SCORE.INTRA>
-14.0037

>  <SCORE.INTRA.DIHEDRAL>
-24.8232

>  <SCORE.INTRA.DIHEDRAL.0>
25.6828

>  <SCORE.INTRA.POLAR>
0

>  <SCORE.INTRA.POLAR.0>
0

>  <SCORE.INTRA.REPUL>
0

>  <SCORE.INTRA.REPUL.0>
0

>  <SCORE.INTRA.SOLV>
-1.15982

>  <SCORE.INTRA.SOLV.lig_0>
-48.5059

>  <SCORE.INTRA.VDW>
-1.01213

>  <SCORE.INTRA.VDW.0>
-0.363643

>  <SCORE.INTRA.norm>
-1.0772

>  <SCORE.RESTR>
0

>  <SCORE.RESTR.CAVITY>
0

>  <SCORE.RESTR.norm>
0

>  <SCORE.SYSTEM>
0

>  <SCORE.SYSTEM.CONST>
0

>  <SCORE.SYSTEM.DIHEDRAL>
0

>  <SCORE.SYSTEM.SOLV>
0

>  <SCORE.SYSTEM.norm>
0

>  <SCORE.heavy>
13

>  <SCORE.norm>
-0.772415

>  <RMSD>
10.848

$$$$
ligand
 OpenBabel11021811453D
libRbt.so/2013.1/901 2013/11/27
 13 12  0  0  0  0  0  0  0  0999 V2000
   23.1280   30.9910   50.1098 O   0  0  0  0  0  0  0  0  0  0  0  0
   24.8214   29.5100   52.0099 O   0  0  0  0  0  0  0  0  0  0  0  0
   22.2501   34.8153   46.9234 P   0  0  2  0  0  0  0  0  0  0  0  0
   21.0183   35.5337   46.4851 O   0  5  0  0  0  0  0  0  0  0  0  0
   23.0573   34.0767   45.9185 O   0  0  0  0  0  0  0  0  0  0  0  0
   21.8625   33.7866   48.0674 O   0  0  0  0  0  0  0  0  0  0  0  0
   27.5918   30.0728   52.0298 O   0  0  0  0  0  0  0  0  0  0  0  0
   22.8489   32.9226   48.6500 C   0  0  0  0  0  0  0  0  0  0  0  0
   23.6127   28.9497   51.4360 C   0  0  0  0  0  0  0  0  0  0  0  0
   27.0394   29.1753   52.9821 C   0  0  0  0  0  0  0  0  0  0  0  0
   22.1899   31.9997   49.6892 C   0  0  0  0  0  0  0  0  0  0  0  0
   22.5831   30.0485   51.0748 C   0  0  0  0  0  0  0  0  0  0  0  0
   25.8069   28.5060   52.3481 C   0  0  0  0  0  0  0  0  0  0  0  0
  1 12  1  0  0  0  0
  1 11  1  0  0  0  0
  2 13  1  0  0  0  0
  2  9  1  0  0  0  0
  3  4  1  6  0  0  0
  3  5  2  0  0  0  0
  3  6  1  0  0  0  0
  6  8  1  0  0  0  0
  7 10  1  0  0  0  0
  8 11  1  0  0  0  0
  9 12  1  0  0  0  0
 10 13  1  0  0  0  0
M  CHG  1   4  -1
M  END
>  <CHROM.1>
177.21498202,-178.55023799,177.96610458,-177.89067167,170.55959787,-179.54774342
59.69800311,-60.83927837,-178.70222389,23.55763184,31.87155359,49.55158704
1.10637465,0.09448977,2.40666704

>  <Name>
ligand

>  <RI>
0

>  <Rbt.Current_Directory>
/home/itssahil/PROJECTS/Mol_Feturizer/New_Systems/rnas/2NPY

>  <Rbt.Executable>
rbdock ($Id: //depot/dev/client3/rdock/2013.1/src/exe/rbdock.cxx#4 $)

>  <Rbt.Library>
libRbt.so (2013.1, Build901 2013/11/27)

>  <Rbt.Parameter_File>
/export/apps/rDock/src/rDock_2013.1_src/data/scripts/dock_solv.prm

>  <Rbt.Receptor>
prm/blind_docking_80.prm

>  <SCORE>
-11.1072

>  <SCORE.INTER>
2.88493

>  <SCORE.INTER.CONST>
1

>  <SCORE.INTER.POLAR>
0

>  <SCORE.INTER.ROT>
9

>  <SCORE.INTER.SOLV>
9.65969

>  <SCORE.INTER.VDW>
-10.8966

>  <SCORE.INTER.norm>
0.221918

>  <SCORE.INTRA>
-13.9922

>  <SCORE.INTRA.DIHEDRAL>
-25.1857

>  <SCORE.INTRA.DIHEDRAL.0>
25.6828

>  <SCORE.INTRA.POLAR>
0

>  <SCORE.INTRA.POLAR.0>
0

>  <SCORE.INTRA.REPUL>
0

>  <SCORE.INTRA.REPUL.0>
0

>  <SCORE.INTRA.SOLV>
-1.09747

>  <SCORE.INTRA.SOLV.lig_0>
-48.5059

>  <SCORE.INTRA.VDW>
-0.850577

>  <SCORE.INTRA.VDW.0>
-0.363643

>  <SCORE.INTRA.norm>
-1.07632

>  <SCORE.RESTR>
0

>  <SCORE.RESTR.CAVITY>
0

>  <SCORE.RESTR.norm>
0

>  <SCORE.SYSTEM>
0

>  <SCORE.SYSTEM.CONST>
0

>  <SCORE.SYSTEM.DIHEDRAL>
0

>  <SCORE.SYSTEM.SOLV>
0

>  <SCORE.SYSTEM.norm>
0

>  <SCORE.heavy>
13

>  <SCORE.norm>
-0.854402

>  <RMSD>
10.920

$$$$
ligand
 OpenBabel11021811453D
libRbt.so/2013.1/901 2013/11/27
 13 12  0  0  0  0  0  0  0  0999 V2000
   24.6335   26.7173   47.8705 O   0  0  0  0  0  0  0  0  0  0  0  0
   22.4543   25.4702   49.3192 O   0  0  0  0  0  0  0  0  0  0  0  0
   27.1125   30.6084   49.9512 P   0  0  2  0  0  0  0  0  0  0  0  0
   27.3611   31.2519   48.6285 O   0  5  0  0  0  0  0  0  0  0  0  0
   28.1557   30.6879   51.0058 O   0  0  0  0  0  0  0  0  0  0  0  0
   26.7897   29.0723   49.7201 O   0  0  0  0  0  0  0  0  0  0  0  0
   20.5180   27.3495   48.4303 O   0  0  0  0  0  0  0  0  0  0  0  0
   25.7147   28.6636   48.8620 C   0  0  0  0  0  0  0  0  0  0  0  0
   23.7010   24.7657   49.0879 C   0  0  0  0  0  0  0  0  0  0  0  0
   20.1700   25.9850   48.6165 C   0  0  0  0  0  0  0  0  0  0  0  0
   25.6136   27.1289   48.8424 C   0  0  0  0  0  0  0  0  0  0  0  0
   24.4260   25.2783   47.8193 C   0  0  0  0  0  0  0  0  0  0  0  0
   21.4257   25.1330   48.3591 C   0  0  0  0  0  0  0  0  0  0  0  0
  1 12  1  0  0  0  0
  1 11  1  0  0  0  0
  2 13  1  0  0  0  0
  2  9  1  0  0  0  0
  3  4  1  6  0  0  0
  3  5  2  0  0  0  0
  3  6  1  0  0  0  0
  6  8  1  0  0  0  0
  7 10  1  0  0  0  0
  8 11  1  0  0  0  0
  9 12  1  0  0  0  0
 10 13  1  0  0  0  0
M  CHG  1   4  -1
M  END
>  <CHROM.1>
70.30656956,-176.37446598,-56.41992973,-178.98518319,-173.72545326,70.88899448
54.68375634,62.23352415,-177.54002614,24.70873952,27.84201710,49.05309910
-2.41983648,-0.06809659,0.18463273

>  <Name>
ligand

>  <RI>
0

>  <Rbt.Current_Directory>
/home/itssahil/PROJECTS/Mol_Feturizer/New_Systems/rnas/2NPY

>  <Rbt.Executable>
rbdock ($Id: //depot/dev/client3/rdock/2013.1/src/exe/rbdock.cxx#4 $)

>  <Rbt.Library>
libRbt.so (2013.1, Build901 2013/11/27)

>  <Rbt.Parameter_File>
/export/apps/rDock/src/rDock_2013.1_src/data/scripts/dock_solv.prm

>  <Rbt.Receptor>
prm/blind_docking_100.prm

>  <SCORE>
-9.43834

>  <SCORE.INTER>
2.88709

>  <SCORE.INTER.CONST>
1

>  <SCORE.INTER.POLAR>
0

>  <SCORE.INTER.ROT>
9

>  <SCORE.INTER.SOLV>
7.41064

>  <SCORE.INTER.VDW>
-10.1455

>  <SCORE.INTER.norm>
0.222084

>  <SCORE.INTRA>
-12.3254

>  <SCORE.INTRA.DIHEDRAL>
-24.1974

>  <SCORE.INTRA.DIHEDRAL.0>
25.6828

>  <SCORE.INTRA.POLAR>
0

>  <SCORE.INTRA.POLAR.0>
0

>  <SCORE.INTRA.REPUL>
0

>  <SCORE.INTRA.REPUL.0>
0

>  <SCORE.INTRA.SOLV>
-0.970225

>  <SCORE.INTRA.SOLV.lig_0>
-48.5059

>  <SCORE.INTRA.VDW>
0.258361

>  <SCORE.INTRA.VDW.0>
-0.363643

>  <SCORE.INTRA.norm>
-0.94811

>  <SCORE.RESTR>
0

>  <SCORE.RESTR.CAVITY>
0

>  <SCORE.RESTR.norm>
0

>  <SCORE.SYSTEM>
0

>  <SCORE.SYSTEM.CONST>
0

>  <SCORE.SYSTEM.DIHEDRAL>
0

>  <SCORE.SYSTEM.SOLV>
0

>  <SCORE.SYSTEM.norm>
0

>  <SCORE.heavy>
13

>  <SCORE.norm>
-0.726026

>  <RMSD>
11.065

$$$$
ligand
 OpenBabel11021811453D
libRbt.so/2013.1/901 2013/11/27
 13 12  0  0  0  0  0  0  0  0999 V2000
   26.4411   27.0445   51.2758 O   0  0  0  0  0  0  0  0  0  0  0  0
   25.8098   25.5855   53.7702 O   0  0  0  0  0  0  0  0  0  0  0  0
   29.0242   30.1763   49.7340 P   0  0  2  0  0  0  0  0  0  0  0  0
   30.4450   29.7428   49.5965 O   0  5  0  0  0  0  0  0  0  0  0  0
   28.6457   31.0846   50.8469 O   0  0  0  0  0  0  0  0  0  0  0  0
   28.1044   28.8880   49.8414 O   0  0  0  0  0  0  0  0  0  0  0  0
   26.1221   22.8195   53.8123 O   0  0  0  0  0  0  0  0  0  0  0  0
   26.6738   28.9985   49.8379 C   0  0  0  0  0  0  0  0  0  0  0  0
   26.2194   26.9769   53.7470 C   0  0  0  0  0  0  0  0  0  0  0  0
   25.6329   23.4673   54.9779 C   0  0  0  0  0  0  0  0  0  0  0  0
   26.0398   27.6081   50.0126 C   0  0  0  0  0  0  0  0  0  0  0  0
   25.8129   27.6756   52.4263 C   0  0  0  0  0  0  0  0  0  0  0  0
   26.1828   24.9047   54.9913 C   0  0  0  0  0  0  0  0  0  0  0  0
  1 12  1  0  0  0  0
  1 11  1  0  0  0  0
  2 13  1  0  0  0  0
  2  9  1  0  0  0  0
  3  4  1  1  0  0  0
  3  5  2  0  0  0  0
  3  6  1  0  0  0  0
  6  8  1  0  0  0  0
  7 10  1  0  0  0  0
  8 11  1  0  0  0  0
  9 12  1  0  0  0  0
 10 13  1  0  0  0  0
M  CHG  1   4  -1
M  END
>  <CHROM.1>
176.75710811,176.23821646,-173.22628096,-177.61955025,61.23960657,179.70825827
-61.10571958,56.42245773,72.36686398,27.20605997,27.54841204,51.71636245
2.00567137,0.42008217,2.29347861

>  <Name>
ligand

>  <RI>
0

>  <Rbt.Current_Directory>
/home/itssahil/PROJECTS/Mol_Feturizer/New_Systems/rnas/2NPY

>  <Rbt.Executable>
rbdock ($Id: //depot/dev/client3/rdock/2013.1/src/exe/rbdock.cxx#4 $)

>  <Rbt.Library>
libRbt.so (2013.1, Build901 2013/11/27)

>  <Rbt.Parameter_File>
/export/apps/rDock/src/rDock_2013.1_src/data/scripts/dock_solv.prm

>  <Rbt.Receptor>
prm/blind_docking_100.prm

>  <SCORE>
-9.64053

>  <SCORE.INTER>
3.53971

>  <SCORE.INTER.CONST>
1

>  <SCORE.INTER.POLAR>
0

>  <SCORE.INTER.ROT>
9

>  <SCORE.INTER.SOLV>
11.1901

>  <SCORE.INTER.VDW>
-10.9702

>  <SCORE.INTER.norm>
0.272286

>  <SCORE.INTRA>
-13.1802

>  <SCORE.INTRA.DIHEDRAL>
-24.7136

>  <SCORE.INTRA.DIHEDRAL.0>
25.6828

>  <SCORE.INTRA.POLAR>
0

>  <SCORE.INTRA.POLAR.0>
0

>  <SCORE.INTRA.REPUL>
0

>  <SCORE.INTRA.REPUL.0>
0

>  <SCORE.INTRA.SOLV>
-0.943286

>  <SCORE.INTRA.SOLV.lig_0>
-48.5059

>  <SCORE.INTRA.VDW>
-0.351785

>  <SCORE.INTRA.VDW.0>
-0.363643

>  <SCORE.INTRA.norm>
-1.01387

>  <SCORE.RESTR>
0

>  <SCORE.RESTR.CAVITY>
0

>  <SCORE.RESTR.norm>
0

>  <SCORE.SYSTEM>
0

>  <SCORE.SYSTEM.CONST>
0

>  <SCORE.SYSTEM.DIHEDRAL>
0

>  <SCORE.SYSTEM.SOLV>
0

>  <SCORE.SYSTEM.norm>
0

>  <SCORE.heavy>
13

>  <SCORE.norm>
-0.741579

>  <RMSD>
11.142

$$$$
ligand
 OpenBabel11021811453D
libRbt.so/2013.1/901 2013/11/27
 13 12  0  0  0  0  0  0  0  0999 V2000
   22.3484   28.8913   51.2239 O   0  0  0  0  0  0  0  0  0  0  0  0
   24.8860   27.8668   50.4501 O   0  0  0  0  0  0  0  0  0  0  0  0
   22.7776   32.5109   48.5807 P   0  0  2  0  0  0  0  0  0  0  0  0
   22.0960   31.7717   47.4787 O   0  5  0  0  0  0  0  0  0  0  0  0
   24.1961   32.2012   48.8952 O   0  0  0  0  0  0  0  0  0  0  0  0
   21.9441   32.3194   49.9171 O   0  0  0  0  0  0  0  0  0  0  0  0
   27.4656   27.6175   51.5940 O   0  0  0  0  0  0  0  0  0  0  0  0
   22.2927   31.3015   50.8664 C   0  0  0  0  0  0  0  0  0  0  0  0
   23.6917   27.3749   49.7899 C   0  0  0  0  0  0  0  0  0  0  0  0
   27.2846   28.3347   50.3815 C   0  0  0  0  0  0  0  0  0  0  0  0
   22.1140   29.9109   50.2340 C   0  0  0  0  0  0  0  0  0  0  0  0
   22.4320   27.5472   50.6737 C   0  0  0  0  0  0  0  0  0  0  0  0
   26.0787   27.7269   49.6430 C   0  0  0  0  0  0  0  0  0  0  0  0
  1 12  1  0  0  0  0
  1 11  1  0  0  0  0
  2 13  1  0  0  0  0
  2  9  1  0  0  0  0
  3  4  1  6  0  0  0
  3  5  2  0  0  0  0
  3  6  1  0  0  0  0
  6  8  1  0  0  0  0
  7 10  1  0  0  0  0
  8 11  1  0  0  0  0
  9 12  1  0  0  0  0
 10 13  1  0  0  0  0
M  CHG  1   4  -1
M  END
>  <CHROM.1>
67.30726823,177.11486246,95.80832727,-64.09158695,-174.87098542,-179.60137061
48.35171458,61.42303170,-169.89229665,23.73298998,29.90050784,49.86390178
0.92850349,-0.11061210,2.68674969

>  <Name>
ligand

>  <RI>
0

>  <Rbt.Current_Directory>
/home/itssahil/PROJECTS/Mol_Feturizer/New_Systems/rnas/2NPY

>  <Rbt.Executable>
rbdock ($Id: //depot/dev/client3/rdock/2013.1/src/exe/rbdock.cxx#4 $)

>  <Rbt.Library>
libRbt.so (2013.1, Build901 2013/11/27)

>  <Rbt.Parameter_File>
/export/apps/rDock/src/rDock_2013.1_src/data/scripts/dock_solv.prm

>  <Rbt.Receptor>
prm/blind_docking_80.prm

>  <SCORE>
-8.23228

>  <SCORE.INTER>
2.77346

>  <SCORE.INTER.CONST>
1

>  <SCORE.INTER.POLAR>
0

>  <SCORE.INTER.ROT>
9

>  <SCORE.INTER.SOLV>
7.76821

>  <SCORE.INTER.VDW>
-10.3404

>  <SCORE.INTER.norm>
0.213343

>  <SCORE.INTRA>
-11.0057

>  <SCORE.INTRA.DIHEDRAL>
-23.377

>  <SCORE.INTRA.DIHEDRAL.0>
25.6828

>  <SCORE.INTRA.POLAR>
0

>  <SCORE.INTRA.POLAR.0>
0

>  <SCORE.INTRA.REPUL>
0

>  <SCORE.INTRA.REPUL.0>
0

>  <SCORE.INTRA.SOLV>
1.17417

>  <SCORE.INTRA.SOLV.lig_0>
-48.5059

>  <SCORE.INTRA.VDW>
0.095679

>  <SCORE.INTRA.VDW.0>
-0.363643

>  <SCORE.INTRA.norm>
-0.846596

>  <SCORE.RESTR>
0

>  <SCORE.RESTR.CAVITY>
0

>  <SCORE.RESTR.norm>
0

>  <SCORE.SYSTEM>
0

>  <SCORE.SYSTEM.CONST>
0

>  <SCORE.SYSTEM.DIHEDRAL>
0

>  <SCORE.SYSTEM.SOLV>
0

>  <SCORE.SYSTEM.norm>
0

>  <SCORE.heavy>
13

>  <SCORE.norm>
-0.633252

>  <RMSD>
11.190

$$$$
ligand
 OpenBabel11021811453D
libRbt.so/2013.1/901 2013/11/27
 13 12  0  0  0  0  0  0  0  0999 V2000
   21.8089   30.4649   49.0369 O   0  0  0  0  0  0  0  0  0  0  0  0
   21.3708   33.3192   48.4715 O   0  0  0  0  0  0  0  0  0  0  0  0
   21.1510   26.1666   50.3004 P   0  0  2  0  0  0  0  0  0  0  0  0
   22.4483   25.7926   49.6662 O   0  5  0  0  0  0  0  0  0  0  0  0
   20.2288   25.0948   50.7562 O   0  0  0  0  0  0  0  0  0  0  0  0
   20.3408   27.0937   49.2996 O   0  0  0  0  0  0  0  0  0  0  0  0
   21.9322   33.4893   45.7172 O   0  0  0  0  0  0  0  0  0  0  0  0
   20.9692   28.2095   48.6523 C   0  0  0  0  0  0  0  0  0  0  0  0
   22.5320   32.8341   49.1930 C   0  0  0  0  0  0  0  0  0  0  0  0
   22.5432   34.4009   46.6190 C   0  0  0  0  0  0  0  0  0  0  0  0
   21.3806   29.2594   49.6984 C   0  0  0  0  0  0  0  0  0  0  0  0
   22.2320   31.5164   49.9489 C   0  0  0  0  0  0  0  0  0  0  0  0
   21.5986   34.5904   47.8192 C   0  0  0  0  0  0  0  0  0  0  0  0
  1 12  1  0  0  0  0
  1 11  1  0  0  0  0
  2 13  1  0  0  0  0
  2  9  1  0  0  0  0
  3  4  1  6  0  0  0
  3  5  2  0  0  0  0
  3  6  1  0  0  0  0
  6  8  1  0  0  0  0
  7 10  1  0  0  0  0
  8 11  1  0  0  0  0
  9 12  1  0  0  0  0
 10 13  1  0  0  0  0
M  CHG  1   4  -1
M  END
>  <CHROM.1>
-173.76891149,71.26493078,-47.90378026,-64.84082404,-170.67970461,176.59431559
59.46296620,59.72023794,-179.42626977,21.53270160,29.79623852,48.97355065
-0.81338509,1.39717917,2.06599863

>  <Name>
ligand

>  <RI>
0

>  <Rbt.Current_Directory>
/home/itssahil/PROJECTS/Mol_Feturizer/New_Systems/rnas/2NPY

>  <Rbt.Executable>
rbdock ($Id: //depot/dev/client3/rdock/2013.1/src/exe/rbdock.cxx#4 $)

>  <Rbt.Library>
libRbt.so (2013.1, Build901 2013/11/27)

>  <Rbt.Parameter_File>
/export/apps/rDock/src/rDock_2013.1_src/data/scripts/dock_solv.prm

>  <Rbt.Receptor>
prm/blind_docking_80.prm

>  <SCORE>
-9.82937

>  <SCORE.INTER>
2.00976

>  <SCORE.INTER.CONST>
1

>  <SCORE.INTER.POLAR>
0

>  <SCORE.INTER.ROT>
9

>  <SCORE.INTER.SOLV>
5.99531

>  <SCORE.INTER.VDW>
-10.2586

>  <SCORE.INTER.norm>
0.154597

>  <SCORE.INTRA>
-11.8391

>  <SCORE.INTRA.DIHEDRAL>
-24.3082

>  <SCORE.INTRA.DIHEDRAL.0>
25.6828

>  <SCORE.INTRA.POLAR>
0

>  <SCORE.INTRA.POLAR.0>
0

>  <SCORE.INTRA.REPUL>
0

>  <SCORE.INTRA.REPUL.0>
0

>  <SCORE.INTRA.SOLV>
0.23615

>  <SCORE.INTRA.SOLV.lig_0>
-48.5059

>  <SCORE.INTRA.VDW>
0.196885

>  <SCORE.INTRA.VDW.0>
-0.363643

>  <SCORE.INTRA.norm>
-0.910703

>  <SCORE.RESTR>
0

>  <SCORE.RESTR.CAVITY>
0

>  <SCORE.RESTR.norm>
0

>  <SCORE.SYSTEM>
0

>  <SCORE.SYSTEM.CONST>
0

>  <SCORE.SYSTEM.DIHEDRAL>
0

>  <SCORE.SYSTEM.SOLV>
0

>  <SCORE.SYSTEM.norm>
0

>  <SCORE.heavy>
13

>  <SCORE.norm>
-0.756106

>  <RMSD>
11.639

$$$$
ligand
 OpenBabel11021811453D
libRbt.so/2013.1/901 2013/11/27
 13 12  0  0  0  0  0  0  0  0999 V2000
   24.7704   26.4181   49.3112 O   0  0  0  0  0  0  0  0  0  0  0  0
   21.8019   24.1484   48.8734 O   0  0  0  0  0  0  0  0  0  0  0  0
   28.6031   29.3553   50.8278 P   0  0  2  0  0  0  0  0  0  0  0  0
   29.0561   29.8220   52.1703 O   0  5  0  0  0  0  0  0  0  0  0  0
   28.4870   30.3361   49.7181 O   0  0  0  0  0  0  0  0  0  0  0  0
   27.1920   28.6464   50.9820 O   0  0  0  0  0  0  0  0  0  0  0  0
   18.3061   25.2531   49.0024 O   0  0  0  0  0  0  0  0  0  0  0  0
   26.6361   27.8658   49.9140 C   0  0  0  0  0  0  0  0  0  0  0  0
   23.0736   24.7708   48.5578 C   0  0  0  0  0  0  0  0  0  0  0  0
   19.3748   24.3235   49.1086 C   0  0  0  0  0  0  0  0  0  0  0  0
   25.2667   27.3042   50.3324 C   0  0  0  0  0  0  0  0  0  0  0  0
   23.5173   25.7658   49.6582 C   0  0  0  0  0  0  0  0  0  0  0  0
   20.6805   25.0541   48.7479 C   0  0  0  0  0  0  0  0  0  0  0  0
  1 12  1  0  0  0  0
  1 11  1  0  0  0  0
  2 13  1  0  0  0  0
  2  9  1  0  0  0  0
  3  4  1  1  0  0  0
  3  5  2  0  0  0  0
  3  6  1  0  0  0  0
  6  8  1  0  0  0  0
  7 10  1  0  0  0  0
  8 11  1  0  0  0  0
  9 12  1  0  0  0  0
 10 13  1  0  0  0  0
M  CHG  1   4  -1
M  END
>  <CHROM.1>
-176.95030698,-179.57543037,-167.34550853,-179.77381126,-174.49957772,71.95612123
-178.05578434,178.69483765,176.09886777,24.73853045,27.08492008,49.88122041
-2.58073710,0.04869232,0.46991261

>  <Name>
ligand

>  <RI>
0

>  <Rbt.Current_Directory>
/home/itssahil/PROJECTS/Mol_Feturizer/New_Systems/rnas/2NPY

>  <Rbt.Executable>
rbdock ($Id: //depot/dev/client3/rdock/2013.1/src/exe/rbdock.cxx#4 $)

>  <Rbt.Library>
libRbt.so (2013.1, Build901 2013/11/27)

>  <Rbt.Parameter_File>
/export/apps/rDock/src/rDock_2013.1_src/data/scripts/dock_solv.prm

>  <Rbt.Receptor>
prm/blind_docking_100.prm

>  <SCORE>
-9.30352

>  <SCORE.INTER>
3.91039

>  <SCORE.INTER.CONST>
1

>  <SCORE.INTER.POLAR>
0

>  <SCORE.INTER.ROT>
9

>  <SCORE.INTER.SOLV>
7.20196

>  <SCORE.INTER.VDW>
-9.39372

>  <SCORE.INTER.norm>
0.3008

>  <SCORE.INTRA>
-13.2139

>  <SCORE.INTRA.DIHEDRAL>
-24.6565

>  <SCORE.INTRA.DIHEDRAL.0>
25.6828

>  <SCORE.INTRA.POLAR>
0

>  <SCORE.INTRA.POLAR.0>
0

>  <SCORE.INTRA.REPUL>
0

>  <SCORE.INTRA.REPUL.0>
0

>  <SCORE.INTRA.SOLV>
-1.57067

>  <SCORE.INTRA.SOLV.lig_0>
-48.5059

>  <SCORE.INTRA.VDW>
-0.100317

>  <SCORE.INTRA.VDW.0>
-0.363643

>  <SCORE.INTRA.norm>
-1.01645

>  <SCORE.RESTR>
0

>  <SCORE.RESTR.CAVITY>
0

>  <SCORE.RESTR.norm>
0

>  <SCORE.SYSTEM>
0

>  <SCORE.SYSTEM.CONST>
0

>  <SCORE.SYSTEM.DIHEDRAL>
0

>  <SCORE.SYSTEM.SOLV>
0

>  <SCORE.SYSTEM.norm>
0

>  <SCORE.heavy>
13

>  <SCORE.norm>
-0.715655

>  <RMSD>
11.838

$$$$
ligand
 OpenBabel11021811453D
libRbt.so/2013.1/901 2013/11/27
 13 12  0  0  0  0  0  0  0  0999 V2000
   24.3031   27.2543   47.8821 O   0  0  0  0  0  0  0  0  0  0  0  0
   21.5590   25.9777   47.8588 O   0  0  0  0  0  0  0  0  0  0  0  0
   26.9846   28.2305   51.1359 P   0  0  2  0  0  0  0  0  0  0  0  0
   26.0642   29.1034   51.9209 O   0  5  0  0  0  0  0  0  0  0  0  0
   28.1842   28.8287   50.4956 O   0  0  0  0  0  0  0  0  0  0  0  0
   26.1530   27.5041   49.9966 O   0  0  0  0  0  0  0  0  0  0  0  0
   18.2382   25.0792   49.1307 O   0  0  0  0  0  0  0  0  0  0  0  0
   24.8306   27.0075   50.2488 C   0  0  0  0  0  0  0  0  0  0  0  0
   22.0699   26.8969   46.8596 C   0  0  0  0  0  0  0  0  0  0  0  0
   19.6550   25.0149   49.0522 C   0  0  0  0  0  0  0  0  0  0  0  0
   24.2753   26.3286   48.9852 C   0  0  0  0  0  0  0  0  0  0  0  0
   23.6053   26.7775   46.6980 C   0  0  0  0  0  0  0  0  0  0  0  0
   20.1238   26.0590   48.0232 C   0  0  0  0  0  0  0  0  0  0  0  0
  1 12  1  0  0  0  0
  1 11  1  0  0  0  0
  2 13  1  0  0  0  0
  2  9  1  0  0  0  0
  3  4  1  6  0  0  0
  3  5  2  0  0  0  0
  3  6  1  0  0  0  0
  6  8  1  0  0  0  0
  7 10  1  0  0  0  0
  8 11  1  0  0  0  0
  9 12  1  0  0  0  0
 10 13  1  0  0  0  0
M  CHG  1   4  -1
M  END
>  <CHROM.1>
76.62702929,177.57671602,-39.63918810,-178.83481799,-56.33800174,-179.49740456
-68.25524398,-176.93908239,-170.80020635,23.84869921,27.05281819,49.28767859
-2.77175439,0.34961566,1.48656239

>  <Name>
ligand

>  <RI>
0

>  <Rbt.Current_Directory>
/home/itssahil/PROJECTS/Mol_Feturizer/New_Systems/rnas/2NPY

>  <Rbt.Executable>
rbdock ($Id: //depot/dev/client3/rdock/2013.1/src/exe/rbdock.cxx#4 $)

>  <Rbt.Library>
libRbt.so (2013.1, Build901 2013/11/27)

>  <Rbt.Parameter_File>
/export/apps/rDock/src/rDock_2013.1_src/data/scripts/dock_solv.prm

>  <Rbt.Receptor>
prm/blind_docking_80.prm

>  <SCORE>
-10.5258

>  <SCORE.INTER>
2.06259

>  <SCORE.INTER.CONST>
1

>  <SCORE.INTER.POLAR>
0

>  <SCORE.INTER.ROT>
9

>  <SCORE.INTER.SOLV>
10.8484

>  <SCORE.INTER.VDW>
-11.8411

>  <SCORE.INTER.norm>
0.158661

>  <SCORE.INTRA>
-12.5884

>  <SCORE.INTRA.DIHEDRAL>
-23.3564

>  <SCORE.INTRA.DIHEDRAL.0>
25.6828

>  <SCORE.INTRA.POLAR>
0

>  <SCORE.INTRA.POLAR.0>
0

>  <SCORE.INTRA.REPUL>
0

>  <SCORE.INTRA.REPUL.0>
0

>  <SCORE.INTRA.SOLV>
-1.01916

>  <SCORE.INTRA.SOLV.lig_0>
-48.5059

>  <SCORE.INTRA.VDW>
-0.400629

>  <SCORE.INTRA.VDW.0>
-0.363643

>  <SCORE.INTRA.norm>
-0.96834

>  <SCORE.RESTR>
0

>  <SCORE.RESTR.CAVITY>
0

>  <SCORE.RESTR.norm>
0

>  <SCORE.SYSTEM>
0

>  <SCORE.SYSTEM.CONST>
0

>  <SCORE.SYSTEM.DIHEDRAL>
0

>  <SCORE.SYSTEM.SOLV>
0

>  <SCORE.SYSTEM.norm>
0

>  <SCORE.heavy>
13

>  <SCORE.norm>
-0.809679

>  <RMSD>
11.897

$$$$
ligand
 OpenBabel11021811453D
libRbt.so/2013.1/901 2013/11/27
 13 12  0  0  0  0  0  0  0  0999 V2000
   23.4233   26.8769   48.1545 O   0  0  0  0  0  0  0  0  0  0  0  0
   20.6339   26.3179   48.7071 O   0  0  0  0  0  0  0  0  0  0  0  0
   27.4640   28.6751   50.5740 P   0  0  2  0  0  0  0  0  0  0  0  0
   26.6645   28.7694   51.8299 O   0  5  0  0  0  0  0  0  0  0  0  0
   28.4493   29.7409   50.2575 O   0  0  0  0  0  0  0  0  0  0  0  0
   26.4702   28.5687   49.3418 O   0  0  0  0  0  0  0  0  0  0  0  0
   17.9233   24.6916   50.5674 O   0  0  0  0  0  0  0  0  0  0  0  0
   25.4940   27.5197   49.2677 C   0  0  0  0  0  0  0  0  0  0  0  0
   21.1623   26.2323   47.3588 C   0  0  0  0  0  0  0  0  0  0  0  0
   19.0594   25.5280   50.4022 C   0  0  0  0  0  0  0  0  0  0  0  0
   24.5624   27.7538   48.0663 C   0  0  0  0  0  0  0  0  0  0  0  0
   22.3942   27.1500   47.1631 C   0  0  0  0  0  0  0  0  0  0  0  0
   19.5171   25.4270   48.9362 C   0  0  0  0  0  0  0  0  0  0  0  0
  1 12  1  0  0  0  0
  1 11  1  0  0  0  0
  2 13  1  0  0  0  0
  2  9  1  0  0  0  0
  3  4  1  1  0  0  0
  3  5  2  0  0  0  0
  3  6  1  0  0  0  0
  6  8  1  0  0  0  0
  7 10  1  0  0  0  0
  8 11  1  0  0  0  0
  9 12  1  0  0  0  0
 10 13  1  0  0  0  0
M  CHG  1   4  -1
M  END
>  <CHROM.1>
-176.69642598,177.29783987,-57.06965986,173.21196189,-167.81162812,-177.47376850
54.59082182,177.11133954,172.02665958,23.69053377,27.31172649,49.41266475
-3.02088652,0.40247878,1.58500441

>  <Name>
ligand

>  <RI>
0

>  <Rbt.Current_Directory>
/home/itssahil/PROJECTS/Mol_Feturizer/New_Systems/rnas/2NPY

>  <Rbt.Executable>
rbdock ($Id: //depot/dev/client3/rdock/2013.1/src/exe/rbdock.cxx#4 $)

>  <Rbt.Library>
libRbt.so (2013.1, Build901 2013/11/27)

>  <Rbt.Parameter_File>
/export/apps/rDock/src/rDock_2013.1_src/data/scripts/dock_solv.prm

>  <Rbt.Receptor>
prm/blind_docking_100.prm

>  <SCORE>
-11.8404

>  <SCORE.INTER>
1.94589

>  <SCORE.INTER.CONST>
1

>  <SCORE.INTER.POLAR>
0

>  <SCORE.INTER.ROT>
9

>  <SCORE.INTER.SOLV>
10.8024

>  <SCORE.INTER.VDW>
-11.9035

>  <SCORE.INTER.norm>
0.149684

>  <SCORE.INTRA>
-13.7863

>  <SCORE.INTRA.DIHEDRAL>
-24.308

>  <SCORE.INTRA.DIHEDRAL.0>
25.6828

>  <SCORE.INTRA.POLAR>
0

>  <SCORE.INTRA.POLAR.0>
0

>  <SCORE.INTRA.REPUL>
0

>  <SCORE.INTRA.REPUL.0>
0

>  <SCORE.INTRA.SOLV>
-1.39209

>  <SCORE.INTRA.SOLV.lig_0>
-48.5059

>  <SCORE.INTRA.VDW>
-0.936219

>  <SCORE.INTRA.VDW.0>
-0.363643

>  <SCORE.INTRA.norm>
-1.06048

>  <SCORE.RESTR>
0

>  <SCORE.RESTR.CAVITY>
0

>  <SCORE.RESTR.norm>
0

>  <SCORE.SYSTEM>
0

>  <SCORE.SYSTEM.CONST>
0

>  <SCORE.SYSTEM.DIHEDRAL>
0

>  <SCORE.SYSTEM.SOLV>
0

>  <SCORE.SYSTEM.norm>
0

>  <SCORE.heavy>
13

>  <SCORE.norm>
-0.910798

>  <RMSD>
11.995

$$$$
ligand
 OpenBabel11021811453D
libRbt.so/2013.1/901 2013/11/27
 13 12  0  0  0  0  0  0  0  0999 V2000
   24.5685   26.0774   49.0202 O   0  0  0  0  0  0  0  0  0  0  0  0
   21.8125   24.9657   49.0554 O   0  0  0  0  0  0  0  0  0  0  0  0
   27.1556   28.0987   51.8643 P   0  0  2  0  0  0  0  0  0  0  0  0
   26.0239   28.8453   52.4865 O   0  5  0  0  0  0  0  0  0  0  0  0
   28.3474   28.8481   51.3899 O   0  0  0  0  0  0  0  0  0  0  0  0
   26.6022   27.2627   50.6345 O   0  0  0  0  0  0  0  0  0  0  0  0
   19.0900   25.5814   48.5666 O   0  0  0  0  0  0  0  0  0  0  0  0
   26.1047   27.9180   49.4590 C   0  0  0  0  0  0  0  0  0  0  0  0
   23.0014   24.1602   48.8505 C   0  0  0  0  0  0  0  0  0  0  0  0
   19.5095   25.1523   49.8540 C   0  0  0  0  0  0  0  0  0  0  0  0
   25.6206   26.8720   48.4404 C   0  0  0  0  0  0  0  0  0  0  0  0
   24.1382   24.9704   48.1803 C   0  0  0  0  0  0  0  0  0  0  0  0
   20.7306   24.2325   49.6761 C   0  0  0  0  0  0  0  0  0  0  0  0
  1 12  1  0  0  0  0
  1 11  1  0  0  0  0
  2 13  1  0  0  0  0
  2  9  1  0  0  0  0
  3  4  1  6  0  0  0
  3  5  2  0  0  0  0
  3  6  1  0  0  0  0
  6  8  1  0  0  0  0
  7 10  1  0  0  0  0
  8 11  1  0  0  0  0
  9 12  1  0  0  0  0
 10 13  1  0  0  0  0
M  CHG  1   4  -1
M  END
>  <CHROM.1>
-179.60706098,-179.81792644,67.07671921,-179.34250413,59.87418285,179.77056137
62.59172309,61.50872361,-174.07309628,24.32297217,26.55177303,49.99284372
-2.62219566,0.22250892,0.96897918

>  <Name>
ligand

>  <RI>
0

>  <Rbt.Current_Directory>
/home/itssahil/PROJECTS/Mol_Feturizer/New_Systems/rnas/2NPY

>  <Rbt.Executable>
rbdock ($Id: //depot/dev/client3/rdock/2013.1/src/exe/rbdock.cxx#4 $)

>  <Rbt.Library>
libRbt.so (2013.1, Build901 2013/11/27)

>  <Rbt.Parameter_File>
/export/apps/rDock/src/rDock_2013.1_src/data/scripts/dock_solv.prm

>  <Rbt.Receptor>
prm/blind_docking_100.prm

>  <SCORE>
-12.5244

>  <SCORE.INTER>
1.62537

>  <SCORE.INTER.CONST>
1

>  <SCORE.INTER.POLAR>
0

>  <SCORE.INTER.ROT>
9

>  <SCORE.INTER.SOLV>
9.03177

>  <SCORE.INTER.VDW>
-11.527

>  <SCORE.INTER.norm>
0.125029

>  <SCORE.INTRA>
-14.1497

>  <SCORE.INTRA.DIHEDRAL>
-25.4404

>  <SCORE.INTRA.DIHEDRAL.0>
25.6828

>  <SCORE.INTRA.POLAR>
0

>  <SCORE.INTRA.POLAR.0>
0

>  <SCORE.INTRA.REPUL>
0

>  <SCORE.INTRA.REPUL.0>
0

>  <SCORE.INTRA.SOLV>
-0.600371

>  <SCORE.INTRA.SOLV.lig_0>
-48.5059

>  <SCORE.INTRA.VDW>
-1.12938

>  <SCORE.INTRA.VDW.0>
-0.363643

>  <SCORE.INTRA.norm>
-1.08844

>  <SCORE.RESTR>
0

>  <SCORE.RESTR.CAVITY>
0

>  <SCORE.RESTR.norm>
0

>  <SCORE.SYSTEM>
0

>  <SCORE.SYSTEM.CONST>
0

>  <SCORE.SYSTEM.DIHEDRAL>
0

>  <SCORE.SYSTEM.SOLV>
0

>  <SCORE.SYSTEM.norm>
0

>  <SCORE.heavy>
13

>  <SCORE.norm>
-0.963413

>  <RMSD>
12.216

$$$$
ligand
 OpenBabel11021811453D
libRbt.so/2013.1/901 2013/11/27
 13 12  0  0  0  0  0  0  0  0999 V2000
   21.5376   28.4122   48.7090 O   0  0  0  0  0  0  0  0  0  0  0  0
   22.3053   32.0595   48.1966 O   0  0  0  0  0  0  0  0  0  0  0  0
   20.1441   27.5470   51.0522 P   0  0  2  0  0  0  0  0  0  0  0  0
   21.1545   26.8817   51.9251 O   0  5  0  0  0  0  0  0  0  0  0  0
   18.9021   28.0894   51.6606 O   0  0  0  0  0  0  0  0  0  0  0  0
   19.7086   26.5347   49.9107 O   0  0  0  0  0  0  0  0  0  0  0  0
   21.4353   34.7143   47.8825 O   0  0  0  0  0  0  0  0  0  0  0  0
   20.6198   26.1600   48.8676 C   0  0  0  0  0  0  0  0  0  0  0  0
   22.2444   30.7848   48.8864 C   0  0  0  0  0  0  0  0  0  0  0  0
   22.7834   34.4565   48.2477 C   0  0  0  0  0  0  0  0  0  0  0  0
   20.8965   27.3663   47.9543 C   0  0  0  0  0  0  0  0  0  0  0  0
   21.6448   29.6729   47.9909 C   0  0  0  0  0  0  0  0  0  0  0  0
   22.8218   33.1281   49.0242 C   0  0  0  0  0  0  0  0  0  0  0  0
  1 12  1  0  0  0  0
  1 11  1  0  0  0  0
  2 13  1  0  0  0  0
  2  9  1  0  0  0  0
  3  4  1  1  0  0  0
  3  5  2  0  0  0  0
  3  6  1  0  0  0  0
  6  8  1  0  0  0  0
  7 10  1  0  0  0  0
  8 11  1  0  0  0  0
  9 12  1  0  0  0  0
 10 13  1  0  0  0  0
M  CHG  1   4  -1
M  END
>  <CHROM.1>
175.75840062,-176.95581661,-69.25714581,-68.26577710,62.87398486,178.12003776
-177.67791197,59.24437955,-170.58283830,21.13484049,29.49364869,49.42452818
-2.38342755,1.16005040,0.43916948

>  <Name>
ligand

>  <RI>
0

>  <Rbt.Current_Directory>
/home/itssahil/PROJECTS/Mol_Feturizer/New_Systems/rnas/2NPY

>  <Rbt.Executable>
rbdock ($Id: //depot/dev/client3/rdock/2013.1/src/exe/rbdock.cxx#4 $)

>  <Rbt.Library>
libRbt.so (2013.1, Build901 2013/11/27)

>  <Rbt.Parameter_File>
/export/apps/rDock/src/rDock_2013.1_src/data/scripts/dock_solv.prm

>  <Rbt.Receptor>
prm/blind_docking_100.prm

>  <SCORE>
-11.8893

>  <SCORE.INTER>
-0.00948985

>  <SCORE.INTER.CONST>
1

>  <SCORE.INTER.POLAR>
0

>  <SCORE.INTER.ROT>
9

>  <SCORE.INTER.SOLV>
18.7932

>  <SCORE.INTER.VDW>
-15.8707

>  <SCORE.INTER.norm>
-0.000729989

>  <SCORE.INTRA>
-11.8798

>  <SCORE.INTRA.DIHEDRAL>
-24.4772

>  <SCORE.INTRA.DIHEDRAL.0>
25.6828

>  <SCORE.INTRA.POLAR>
0

>  <SCORE.INTRA.POLAR.0>
0

>  <SCORE.INTRA.REPUL>
0

>  <SCORE.INTRA.REPUL.0>
0

>  <SCORE.INTRA.SOLV>
2.59364

>  <SCORE.INTRA.SOLV.lig_0>
-48.5059

>  <SCORE.INTRA.VDW>
-0.938002

>  <SCORE.INTRA.VDW.0>
-0.363643

>  <SCORE.INTRA.norm>
-0.913828

>  <SCORE.RESTR>
0

>  <SCORE.RESTR.CAVITY>
0

>  <SCORE.RESTR.norm>
0

>  <SCORE.SYSTEM>
0

>  <SCORE.SYSTEM.CONST>
0

>  <SCORE.SYSTEM.DIHEDRAL>
0

>  <SCORE.SYSTEM.SOLV>
0

>  <SCORE.SYSTEM.norm>
0

>  <SCORE.heavy>
13

>  <SCORE.norm>
-0.914558

>  <RMSD>
12.263

$$$$
ligand
 OpenBabel11021811453D
libRbt.so/2013.1/901 2013/11/27
 13 12  0  0  0  0  0  0  0  0999 V2000
   22.7669   26.6512   52.1694 O   0  0  0  0  0  0  0  0  0  0  0  0
   20.7156   27.4024   50.2176 O   0  0  0  0  0  0  0  0  0  0  0  0
   26.1012   27.4921   49.4361 P   0  0  2  0  0  0  0  0  0  0  0  0
   26.8822   28.7529   49.5975 O   0  5  0  0  0  0  0  0  0  0  0  0
   25.6219   27.1018   48.0852 O   0  0  0  0  0  0  0  0  0  0  0  0
   24.8342   27.5496   50.3892 O   0  0  0  0  0  0  0  0  0  0  0  0
   19.9122   26.7472   47.6401 O   0  0  0  0  0  0  0  0  0  0  0  0
   24.9835   27.6004   51.8154 C   0  0  0  0  0  0  0  0  0  0  0  0
   20.6607   27.8350   51.6012 C   0  0  0  0  0  0  0  0  0  0  0  0
   20.2252   25.6935   48.5396 C   0  0  0  0  0  0  0  0  0  0  0  0
   23.6082   27.7779   52.4810 C   0  0  0  0  0  0  0  0  0  0  0  0
   21.3740   26.8368   52.5460 C   0  0  0  0  0  0  0  0  0  0  0  0
   19.9600   26.1934   49.9709 C   0  0  0  0  0  0  0  0  0  0  0  0
  1 12  1  0  0  0  0
  1 11  1  0  0  0  0
  2 13  1  0  0  0  0
  2  9  1  0  0  0  0
  3  4  1  6  0  0  0
  3  5  2  0  0  0  0
  3  6  1  0  0  0  0
  6  8  1  0  0  0  0
  7 10  1  0  0  0  0
  8 11  1  0  0  0  0
  9 12  1  0  0  0  0
 10 13  1  0  0  0  0
M  CHG  1   4  -1
M  END
>  <CHROM.1>
72.88691912,-172.14961658,-63.80484726,174.89221475,61.73014266,66.53804838
58.04733659,-55.82780754,-169.38174436,23.18448462,27.23511094,50.23522470
-3.13442679,-0.19473332,-1.69491785

>  <Name>
ligand

>  <RI>
0

>  <Rbt.Current_Directory>
/home/itssahil/PROJECTS/Mol_Feturizer/New_Systems/rnas/2NPY

>  <Rbt.Executable>
rbdock ($Id: //depot/dev/client3/rdock/2013.1/src/exe/rbdock.cxx#4 $)

>  <Rbt.Library>
libRbt.so (2013.1, Build901 2013/11/27)

>  <Rbt.Parameter_File>
/export/apps/rDock/src/rDock_2013.1_src/data/scripts/dock_solv.prm

>  <Rbt.Receptor>
prm/blind_docking_80.prm

>  <SCORE>
-8.84188

>  <SCORE.INTER>
3.19422

>  <SCORE.INTER.CONST>
1

>  <SCORE.INTER.POLAR>
0

>  <SCORE.INTER.ROT>
9

>  <SCORE.INTER.SOLV>
15.2188

>  <SCORE.INTER.VDW>
-12.5434

>  <SCORE.INTER.norm>
0.245709

>  <SCORE.INTRA>
-12.0361

>  <SCORE.INTRA.DIHEDRAL>
-23.5103

>  <SCORE.INTRA.DIHEDRAL.0>
25.6828

>  <SCORE.INTRA.POLAR>
0

>  <SCORE.INTRA.POLAR.0>
0

>  <SCORE.INTRA.REPUL>
0

>  <SCORE.INTRA.REPUL.0>
0

>  <SCORE.INTRA.SOLV>
-0.932603

>  <SCORE.INTRA.SOLV.lig_0>
-48.5059

>  <SCORE.INTRA.VDW>
0.18534

>  <SCORE.INTRA.VDW.0>
-0.363643

>  <SCORE.INTRA.norm>
-0.925853

>  <SCORE.RESTR>
0

>  <SCORE.RESTR.CAVITY>
0

>  <SCORE.RESTR.norm>
0

>  <SCORE.SYSTEM>
0

>  <SCORE.SYSTEM.CONST>
0

>  <SCORE.SYSTEM.DIHEDRAL>
0

>  <SCORE.SYSTEM.SOLV>
0

>  <SCORE.SYSTEM.norm>
0

>  <SCORE.heavy>
13

>  <SCORE.norm>
-0.680144

>  <RMSD>
12.285

$$$$
ligand
 OpenBabel11021811453D
libRbt.so/2013.1/901 2013/11/27
 13 12  0  0  0  0  0  0  0  0999 V2000
   21.1845   28.6087   51.6001 O   0  0  0  0  0  0  0  0  0  0  0  0
   21.0424   27.3873   48.9021 O   0  0  0  0  0  0  0  0  0  0  0  0
   25.2708   29.6797   52.5127 P   0  0  2  0  0  0  0  0  0  0  0  0
   26.3769   28.7371   52.1761 O   0  5  0  0  0  0  0  0  0  0  0  0
   24.8844   29.8691   53.9346 O   0  0  0  0  0  0  0  0  0  0  0  0
   23.9666   29.2410   51.7227 O   0  0  0  0  0  0  0  0  0  0  0  0
   23.3832   27.5319   47.3108 O   0  0  0  0  0  0  0  0  0  0  0  0
   22.9968   30.2106   51.3005 C   0  0  0  0  0  0  0  0  0  0  0  0
   20.3746   26.8344   50.0651 C   0  0  0  0  0  0  0  0  0  0  0  0
   22.1719   27.0315   46.7633 C   0  0  0  0  0  0  0  0  0  0  0  0
   21.7958   29.5027   50.6506 C   0  0  0  0  0  0  0  0  0  0  0  0
   20.0014   27.9320   51.0916 C   0  0  0  0  0  0  0  0  0  0  0  0
   21.3619   26.3898   47.9039 C   0  0  0  0  0  0  0  0  0  0  0  0
  1 12  1  0  0  0  0
  1 11  1  0  0  0  0
  2 13  1  0  0  0  0
  2  9  1  0  0  0  0
  3  4  1  1  0  0  0
  3  5  2  0  0  0  0
  3  6  1  0  0  0  0
  6  8  1  0  0  0  0
  7 10  1  0  0  0  0
  8 11  1  0  0  0  0
  9 12  1  0  0  0  0
 10 13  1  0  0  0  0
M  CHG  1   4  -1
M  END
>  <CHROM.1>
73.15667602,-175.15532908,-149.02999730,-176.00161994,60.02432475,-177.98085211
-61.85622549,61.55465336,177.59742412,22.93050922,28.49559559,50.64869331
2.22306742,-0.13958484,-1.98024171

>  <Name>
ligand

>  <RI>
0

>  <Rbt.Current_Directory>
/home/itssahil/PROJECTS/Mol_Feturizer/New_Systems/rnas/2NPY

>  <Rbt.Executable>
rbdock ($Id: //depot/dev/client3/rdock/2013.1/src/exe/rbdock.cxx#4 $)

>  <Rbt.Library>
libRbt.so (2013.1, Build901 2013/11/27)

>  <Rbt.Parameter_File>
/export/apps/rDock/src/rDock_2013.1_src/data/scripts/dock_solv.prm

>  <Rbt.Receptor>
prm/blind_docking_80.prm

>  <SCORE>
-11.2364

>  <SCORE.INTER>
1.67582

>  <SCORE.INTER.CONST>
1

>  <SCORE.INTER.POLAR>
0

>  <SCORE.INTER.ROT>
9

>  <SCORE.INTER.SOLV>
10.7978

>  <SCORE.INTER.VDW>
-12.0821

>  <SCORE.INTER.norm>
0.128909

>  <SCORE.INTRA>
-12.9122

>  <SCORE.INTRA.DIHEDRAL>
-23.9665

>  <SCORE.INTRA.DIHEDRAL.0>
25.6828

>  <SCORE.INTRA.POLAR>
0

>  <SCORE.INTRA.POLAR.0>
0

>  <SCORE.INTRA.REPUL>
0

>  <SCORE.INTRA.REPUL.0>
0

>  <SCORE.INTRA.SOLV>
-0.852567

>  <SCORE.INTRA.SOLV.lig_0>
-48.5059

>  <SCORE.INTRA.VDW>
-0.502702

>  <SCORE.INTRA.VDW.0>
-0.363643

>  <SCORE.INTRA.norm>
-0.993247

>  <SCORE.RESTR>
0

>  <SCORE.RESTR.CAVITY>
0

>  <SCORE.RESTR.norm>
0

>  <SCORE.SYSTEM>
0

>  <SCORE.SYSTEM.CONST>
0

>  <SCORE.SYSTEM.DIHEDRAL>
0

>  <SCORE.SYSTEM.SOLV>
0

>  <SCORE.SYSTEM.norm>
0

>  <SCORE.heavy>
13

>  <SCORE.norm>
-0.864338

>  <RMSD>
12.340

$$$$
ligand
 OpenBabel11021811453D
libRbt.so/2013.1/901 2013/11/27
 13 12  0  0  0  0  0  0  0  0999 V2000
   23.3295   27.1809   50.4685 O   0  0  0  0  0  0  0  0  0  0  0  0
   20.6765   25.8900   50.6109 O   0  0  0  0  0  0  0  0  0  0  0  0
   27.4826   28.8609   50.1478 P   0  0  2  0  0  0  0  0  0  0  0  0
   27.2599   28.7770   51.6205 O   0  5  0  0  0  0  0  0  0  0  0  0
   26.9811   30.0444   49.4030 O   0  0  0  0  0  0  0  0  0  0  0  0
   26.8608   27.5722   49.4622 O   0  0  0  0  0  0  0  0  0  0  0  0
   19.2890   23.4706   50.0643 O   0  0  0  0  0  0  0  0  0  0  0  0
   25.4431   27.4411   49.2833 C   0  0  0  0  0  0  0  0  0  0  0  0
   21.0614   27.0009   51.4605 C   0  0  0  0  0  0  0  0  0  0  0  0
   18.9366   24.6743   49.3977 C   0  0  0  0  0  0  0  0  0  0  0  0
   24.7558   27.2686   50.6485 C   0  0  0  0  0  0  0  0  0  0  0  0
   22.5890   27.0320   51.7119 C   0  0  0  0  0  0  0  0  0  0  0  0
   19.2563   25.8510   50.3369 C   0  0  0  0  0  0  0  0  0  0  0  0
  1 12  1  0  0  0  0
  1 11  1  0  0  0  0
  2 13  1  0  0  0  0
  2  9  1  0  0  0  0
  3  4  1  1  0  0  0
  3  5  2  0  0  0  0
  3  6  1  0  0  0  0
  6  8  1  0  0  0  0
  7 10  1  0  0  0  0
  8 11  1  0  0  0  0
  9 12  1  0  0  0  0
 10 13  1  0  0  0  0
M  CHG  1   4  -1
M  END
>  <CHROM.1>
177.69179605,178.25184170,76.04348824,-68.66983114,178.14829121,-178.84972718
60.67154842,62.34586307,-179.28832871,23.74654771,27.16234790,50.33376956
2.88656580,-0.39012613,-2.21338086

>  <Name>
ligand

>  <RI>
0

>  <Rbt.Current_Directory>
/home/itssahil/PROJECTS/Mol_Feturizer/New_Systems/rnas/2NPY

>  <Rbt.Executable>
rbdock ($Id: //depot/dev/client3/rdock/2013.1/src/exe/rbdock.cxx#4 $)

>  <Rbt.Library>
libRbt.so (2013.1, Build901 2013/11/27)

>  <Rbt.Parameter_File>
/export/apps/rDock/src/rDock_2013.1_src/data/scripts/dock_solv.prm

>  <Rbt.Receptor>
prm/blind_docking_80.prm

>  <SCORE>
-10.7242

>  <SCORE.INTER>
2.11409

>  <SCORE.INTER.CONST>
1

>  <SCORE.INTER.POLAR>
0

>  <SCORE.INTER.ROT>
9

>  <SCORE.INTER.SOLV>
6.79586

>  <SCORE.INTER.VDW>
-10.4559

>  <SCORE.INTER.norm>
0.162622

>  <SCORE.INTRA>
-12.8383

>  <SCORE.INTRA.DIHEDRAL>
-25.082

>  <SCORE.INTRA.DIHEDRAL.0>
25.6828

>  <SCORE.INTRA.POLAR>
0

>  <SCORE.INTRA.POLAR.0>
0

>  <SCORE.INTRA.REPUL>
0

>  <SCORE.INTRA.REPUL.0>
0

>  <SCORE.INTRA.SOLV>
0.957651

>  <SCORE.INTRA.SOLV.lig_0>
-48.5059

>  <SCORE.INTRA.VDW>
-0.776098

>  <SCORE.INTRA.VDW.0>
-0.363643

>  <SCORE.INTRA.norm>
-0.98756

>  <SCORE.RESTR>
0

>  <SCORE.RESTR.CAVITY>
0

>  <SCORE.RESTR.norm>
0

>  <SCORE.SYSTEM>
0

>  <SCORE.SYSTEM.CONST>
0

>  <SCORE.SYSTEM.DIHEDRAL>
0

>  <SCORE.SYSTEM.SOLV>
0

>  <SCORE.SYSTEM.norm>
0

>  <SCORE.heavy>
13

>  <SCORE.norm>
-0.824938

>  <RMSD>
12.343

$$$$
ligand
 OpenBabel11021811453D
libRbt.so/2013.1/901 2013/11/27
 13 12  0  0  0  0  0  0  0  0999 V2000
   21.4650   29.8506   51.3935 O   0  0  0  0  0  0  0  0  0  0  0  0
   19.9761   26.4301   50.9115 O   0  0  0  0  0  0  0  0  0  0  0  0
   25.1400   30.7920   48.9802 P   0  0  2  0  0  0  0  0  0  0  0  0
   26.2481   31.7794   48.8299 O   0  5  0  0  0  0  0  0  0  0  0  0
   24.9712   29.7274   47.9580 O   0  0  0  0  0  0  0  0  0  0  0  0
   23.7647   31.5773   49.0769 O   0  0  0  0  0  0  0  0  0  0  0  0
   19.9323   24.5335   47.7732 O   0  0  0  0  0  0  0  0  0  0  0  0
   22.5628   30.9147   49.4955 C   0  0  0  0  0  0  0  0  0  0  0  0
   20.0231   27.8338   51.2744 C   0  0  0  0  0  0  0  0  0  0  0  0
   19.8177   24.7143   49.1773 C   0  0  0  0  0  0  0  0  0  0  0  0
   22.6629   30.5367   50.9831 C   0  0  0  0  0  0  0  0  0  0  0  0
   21.3946   28.4701   50.9398 C   0  0  0  0  0  0  0  0  0  0  0  0
   19.9892   26.2134   49.4810 C   0  0  0  0  0  0  0  0  0  0  0  0
  1 12  1  0  0  0  0
  1 11  1  0  0  0  0
  2 13  1  0  0  0  0
  2  9  1  0  0  0  0
  3  4  1  6  0  0  0
  3  5  2  0  0  0  0
  3  6  1  0  0  0  0
  6  8  1  0  0  0  0
  7 10  1  0  0  0  0
  8 11  1  0  0  0  0
  9 12  1  0  0  0  0
 10 13  1  0  0  0  0
M  CHG  1   4  -1
M  END
>  <CHROM.1>
-173.71568869,-175.24752949,-167.20652089,68.52701477,-178.96606336,-68.99603635
-175.93113241,-175.87272718,76.00941713,22.42214164,28.90195455,49.63272236
2.61275905,-0.66432202,-2.44022537

>  <Name>
ligand

>  <RI>
0

>  <Rbt.Current_Directory>
/home/itssahil/PROJECTS/Mol_Feturizer/New_Systems/rnas/2NPY

>  <Rbt.Executable>
rbdock ($Id: //depot/dev/client3/rdock/2013.1/src/exe/rbdock.cxx#4 $)

>  <Rbt.Library>
libRbt.so (2013.1, Build901 2013/11/27)

>  <Rbt.Parameter_File>
/export/apps/rDock/src/rDock_2013.1_src/data/scripts/dock_solv.prm

>  <Rbt.Receptor>
prm/blind_docking_80.prm

>  <SCORE>
-9.51886

>  <SCORE.INTER>
1.4596

>  <SCORE.INTER.CONST>
1

>  <SCORE.INTER.POLAR>
0

>  <SCORE.INTER.ROT>
9

>  <SCORE.INTER.SOLV>
8.72628

>  <SCORE.INTER.VDW>
-11.5357

>  <SCORE.INTER.norm>
0.112277

>  <SCORE.INTRA>
-10.9785

>  <SCORE.INTRA.DIHEDRAL>
-23.2212

>  <SCORE.INTRA.DIHEDRAL.0>
25.6828

>  <SCORE.INTRA.POLAR>
0

>  <SCORE.INTRA.POLAR.0>
0

>  <SCORE.INTRA.REPUL>
0

>  <SCORE.INTRA.REPUL.0>
0

>  <SCORE.INTRA.SOLV>
-0.352445

>  <SCORE.INTRA.SOLV.lig_0>
-48.5059

>  <SCORE.INTRA.VDW>
0.808366

>  <SCORE.INTRA.VDW.0>
-0.363643

>  <SCORE.INTRA.norm>
-0.844497

>  <SCORE.RESTR>
0

>  <SCORE.RESTR.CAVITY>
0

>  <SCORE.RESTR.norm>
0

>  <SCORE.SYSTEM>
0

>  <SCORE.SYSTEM.CONST>
0

>  <SCORE.SYSTEM.DIHEDRAL>
0

>  <SCORE.SYSTEM.SOLV>
0

>  <SCORE.SYSTEM.norm>
0

>  <SCORE.heavy>
13

>  <SCORE.norm>
-0.73222

>  <RMSD>
12.393

$$$$
ligand
 OpenBabel11021811453D
libRbt.so/2013.1/901 2013/11/27
 13 12  0  0  0  0  0  0  0  0999 V2000
   22.2043   28.6950   50.6070 O   0  0  0  0  0  0  0  0  0  0  0  0
   19.9687   26.6060   50.1491 O   0  0  0  0  0  0  0  0  0  0  0  0
   26.5527   29.1358   50.4515 P   0  0  2  0  0  0  0  0  0  0  0  0
   27.1529   28.2280   51.4719 O   0  5  0  0  0  0  0  0  0  0  0  0
   27.1369   30.4862   50.2465 O   0  0  0  0  0  0  0  0  0  0  0  0
   25.0136   29.3316   50.7832 O   0  0  0  0  0  0  0  0  0  0  0  0
   20.0827   24.6190   48.1183 O   0  0  0  0  0  0  0  0  0  0  0  0
   24.1335   29.9797   49.8535 C   0  0  0  0  0  0  0  0  0  0  0  0
   20.4087   27.1795   51.4068 C   0  0  0  0  0  0  0  0  0  0  0  0
   18.9247   24.7633   48.9279 C   0  0  0  0  0  0  0  0  0  0  0  0
   22.7083   30.0325   50.4297 C   0  0  0  0  0  0  0  0  0  0  0  0
   20.8937   28.6401   51.2360 C   0  0  0  0  0  0  0  0  0  0  0  0
   19.3665   25.2993   50.3014 C   0  0  0  0  0  0  0  0  0  0  0  0
  1 12  1  0  0  0  0
  1 11  1  0  0  0  0
  2 13  1  0  0  0  0
  2  9  1  0  0  0  0
  3  4  1  1  0  0  0
  3  5  2  0  0  0  0
  3  6  1  0  0  0  0
  6  8  1  0  0  0  0
  7 10  1  0  0  0  0
  8 11  1  0  0  0  0
  9 12  1  0  0  0  0
 10 13  1  0  0  0  0
M  CHG  1   4  -1
M  END
>  <CHROM.1>
-179.68878232,179.84610770,-169.88453208,-179.99183240,-63.11295959,-173.26098003
-75.06066892,62.49067182,175.95867193,23.02258863,28.02414162,50.31369108
2.62111218,-0.09154676,-2.73796738

>  <Name>
ligand

>  <RI>
0

>  <Rbt.Current_Directory>
/home/itssahil/PROJECTS/Mol_Feturizer/New_Systems/rnas/2NPY

>  <Rbt.Executable>
rbdock ($Id: //depot/dev/client3/rdock/2013.1/src/exe/rbdock.cxx#4 $)

>  <Rbt.Library>
libRbt.so (2013.1, Build901 2013/11/27)

>  <Rbt.Parameter_File>
/export/apps/rDock/src/rDock_2013.1_src/data/scripts/dock_solv.prm

>  <Rbt.Receptor>
prm/blind_docking_100.prm

>  <SCORE>
-12.6652

>  <SCORE.INTER>
1.17525

>  <SCORE.INTER.CONST>
1

>  <SCORE.INTER.POLAR>
0

>  <SCORE.INTER.ROT>
9

>  <SCORE.INTER.SOLV>
6.12474

>  <SCORE.INTER.VDW>
-10.8581

>  <SCORE.INTER.norm>
0.0904035

>  <SCORE.INTRA>
-13.8405

>  <SCORE.INTRA.DIHEDRAL>
-24.4507

>  <SCORE.INTRA.DIHEDRAL.0>
25.6828

>  <SCORE.INTRA.POLAR>
0

>  <SCORE.INTRA.POLAR.0>
0

>  <SCORE.INTRA.REPUL>
0

>  <SCORE.INTRA.REPUL.0>
0

>  <SCORE.INTRA.SOLV>
-1.10472

>  <SCORE.INTRA.SOLV.lig_0>
-48.5059

>  <SCORE.INTRA.VDW>
-1.06278

>  <SCORE.INTRA.VDW.0>
-0.363643

>  <SCORE.INTRA.norm>
-1.06465

>  <SCORE.RESTR>
0

>  <SCORE.RESTR.CAVITY>
0

>  <SCORE.RESTR.norm>
0

>  <SCORE.SYSTEM>
0

>  <SCORE.SYSTEM.CONST>
0

>  <SCORE.SYSTEM.DIHEDRAL>
0

>  <SCORE.SYSTEM.SOLV>
0

>  <SCORE.SYSTEM.norm>
0

>  <SCORE.heavy>
13

>  <SCORE.norm>
-0.97425

>  <RMSD>
12.458

$$$$
ligand
 OpenBabel11021811453D
libRbt.so/2013.1/901 2013/11/27
 13 12  0  0  0  0  0  0  0  0999 V2000
   22.9028   26.6602   48.0565 O   0  0  0  0  0  0  0  0  0  0  0  0
   20.1937   26.2516   49.1751 O   0  0  0  0  0  0  0  0  0  0  0  0
   26.6375   28.0842   49.7409 P   0  0  2  0  0  0  0  0  0  0  0  0
   26.4543   27.3702   51.0378 O   0  5  0  0  0  0  0  0  0  0  0  0
   26.7324   29.5667   49.7342 O   0  0  0  0  0  0  0  0  0  0  0  0
   25.4541   27.6816   48.7637 O   0  0  0  0  0  0  0  0  0  0  0  0
   19.2109   23.0071   47.7733 O   0  0  0  0  0  0  0  0  0  0  0  0
   25.3056   26.3323   48.2989 C   0  0  0  0  0  0  0  0  0  0  0  0
   20.4613   27.1068   48.0343 C   0  0  0  0  0  0  0  0  0  0  0  0
   20.1050   24.0668   48.0816 C   0  0  0  0  0  0  0  0  0  0  0  0
   24.0895   26.2307   47.3626 C   0  0  0  0  0  0  0  0  0  0  0  0
   21.7012   26.6328   47.2368 C   0  0  0  0  0  0  0  0  0  0  0  0
   19.3227   25.1404   48.8590 C   0  0  0  0  0  0  0  0  0  0  0  0
  1 12  1  0  0  0  0
  1 11  1  0  0  0  0
  2 13  1  0  0  0  0
  2  9  1  0  0  0  0
  3  4  1  1  0  0  0
  3  5  2  0  0  0  0
  3  6  1  0  0  0  0
  6  8  1  0  0  0  0
  7 10  1  0  0  0  0
  8 11  1  0  0  0  0
  9 12  1  0  0  0  0
 10 13  1  0  0  0  0
M  CHG  1   4  -1
M  END
>  <CHROM.1>
-179.88025244,75.74322194,-64.64916676,-179.55342350,-58.15521839,-89.22901763
-61.24623720,-179.07588622,178.45708262,23.29102816,26.61702432,48.74259996
2.63715032,0.05743540,-2.80913173

>  <Name>
ligand

>  <RI>
0

>  <Rbt.Current_Directory>
/home/itssahil/PROJECTS/Mol_Feturizer/New_Systems/rnas/2NPY

>  <Rbt.Executable>
rbdock ($Id: //depot/dev/client3/rdock/2013.1/src/exe/rbdock.cxx#4 $)

>  <Rbt.Library>
libRbt.so (2013.1, Build901 2013/11/27)

>  <Rbt.Parameter_File>
/export/apps/rDock/src/rDock_2013.1_src/data/scripts/dock_solv.prm

>  <Rbt.Receptor>
prm/blind_docking_100.prm

>  <SCORE>
-10.0598

>  <SCORE.INTER>
0.826189

>  <SCORE.INTER.CONST>
1

>  <SCORE.INTER.POLAR>
0

>  <SCORE.INTER.ROT>
9

>  <SCORE.INTER.SOLV>
15.6686

>  <SCORE.INTER.VDW>
-14.2721

>  <SCORE.INTER.norm>
0.063553

>  <SCORE.INTRA>
-10.886

>  <SCORE.INTRA.DIHEDRAL>
-20.9085

>  <SCORE.INTRA.DIHEDRAL.0>
25.6828

>  <SCORE.INTRA.POLAR>
0

>  <SCORE.INTRA.POLAR.0>
0

>  <SCORE.INTRA.REPUL>
0

>  <SCORE.INTRA.REPUL.0>
0

>  <SCORE.INTRA.SOLV>
-1.10352

>  <SCORE.INTRA.SOLV.lig_0>
-48.5059

>  <SCORE.INTRA.VDW>
0.119995

>  <SCORE.INTRA.VDW.0>
-0.363643

>  <SCORE.INTRA.norm>
-0.837384

>  <SCORE.RESTR>
0

>  <SCORE.RESTR.CAVITY>
0

>  <SCORE.RESTR.norm>
0

>  <SCORE.SYSTEM>
0

>  <SCORE.SYSTEM.CONST>
0

>  <SCORE.SYSTEM.DIHEDRAL>
0

>  <SCORE.SYSTEM.SOLV>
0

>  <SCORE.SYSTEM.norm>
0

>  <SCORE.heavy>
13

>  <SCORE.norm>
-0.773831

>  <RMSD>
12.501

$$$$
ligand
 OpenBabel11021811453D
libRbt.so/2013.1/901 2013/11/27
 13 12  0  0  0  0  0  0  0  0999 V2000
   21.6789   28.5698   50.3550 O   0  0  0  0  0  0  0  0  0  0  0  0
   23.5102   31.7093   49.3818 O   0  0  0  0  0  0  0  0  0  0  0  0
   19.3319   25.1868   49.1773 P   0  0  2  0  0  0  0  0  0  0  0  0
   18.7221   24.3862   50.2784 O   0  5  0  0  0  0  0  0  0  0  0  0
   20.5034   24.6413   48.4445 O   0  0  0  0  0  0  0  0  0  0  0  0
   19.7506   26.6066   49.7485 O   0  0  0  0  0  0  0  0  0  0  0  0
   22.0071   34.8937   48.3603 O   0  0  0  0  0  0  0  0  0  0  0  0
   20.2351   26.7497   51.0915 C   0  0  0  0  0  0  0  0  0  0  0  0
   23.1069   30.3172   49.3216 C   0  0  0  0  0  0  0  0  0  0  0  0
   23.0234   34.0538   48.8887 C   0  0  0  0  0  0  0  0  0  0  0  0
   20.6895   28.1991   51.3338 C   0  0  0  0  0  0  0  0  0  0  0  0
   22.0890   29.9634   50.4336 C   0  0  0  0  0  0  0  0  0  0  0  0
   22.4673   32.6206   48.9629 C   0  0  0  0  0  0  0  0  0  0  0  0
  1 12  1  0  0  0  0
  1 11  1  0  0  0  0
  2 13  1  0  0  0  0
  2  9  1  0  0  0  0
  3  4  1  1  0  0  0
  3  5  2  0  0  0  0
  3  6  1  0  0  0  0
  6  8  1  0  0  0  0
  7 10  1  0  0  0  0
  8 11  1  0  0  0  0
  9 12  1  0  0  0  0
 10 13  1  0  0  0  0
M  CHG  1   4  -1
M  END
>  <CHROM.1>
-177.60223057,-173.05902896,34.88588116,174.64354993,-56.05269021,-71.71200953
179.32134282,174.81498245,175.12685964,21.14112027,28.72371822,49.62139114
-2.58526314,-1.12105925,-1.04913121

>  <Name>
ligand

>  <RI>
0

>  <Rbt.Current_Directory>
/home/itssahil/PROJECTS/Mol_Feturizer/New_Systems/rnas/2NPY

>  <Rbt.Executable>
rbdock ($Id: //depot/dev/client3/rdock/2013.1/src/exe/rbdock.cxx#4 $)

>  <Rbt.Library>
libRbt.so (2013.1, Build901 2013/11/27)

>  <Rbt.Parameter_File>
/export/apps/rDock/src/rDock_2013.1_src/data/scripts/dock_solv.prm

>  <Rbt.Receptor>
prm/blind_docking_100.prm

>  <SCORE>
-13.962

>  <SCORE.INTER>
-1.62566

>  <SCORE.INTER.CONST>
1

>  <SCORE.INTER.POLAR>
0

>  <SCORE.INTER.ROT>
9

>  <SCORE.INTER.SOLV>
13.0999

>  <SCORE.INTER.VDW>
-15.0504

>  <SCORE.INTER.norm>
-0.125051

>  <SCORE.INTRA>
-12.3363

>  <SCORE.INTRA.DIHEDRAL>
-23.5321

>  <SCORE.INTRA.DIHEDRAL.0>
25.6828

>  <SCORE.INTRA.POLAR>
0

>  <SCORE.INTRA.POLAR.0>
0

>  <SCORE.INTRA.REPUL>
0

>  <SCORE.INTRA.REPUL.0>
0

>  <SCORE.INTRA.SOLV>
-0.951106

>  <SCORE.INTRA.SOLV.lig_0>
-48.5059

>  <SCORE.INTRA.VDW>
-0.09467

>  <SCORE.INTRA.VDW.0>
-0.363643

>  <SCORE.INTRA.norm>
-0.948946

>  <SCORE.RESTR>
0

>  <SCORE.RESTR.CAVITY>
0

>  <SCORE.RESTR.norm>
0

>  <SCORE.SYSTEM>
0

>  <SCORE.SYSTEM.CONST>
0

>  <SCORE.SYSTEM.DIHEDRAL>
0

>  <SCORE.SYSTEM.SOLV>
0

>  <SCORE.SYSTEM.norm>
0

>  <SCORE.heavy>
13

>  <SCORE.norm>
-1.074

>  <RMSD>
12.539

$$$$
ligand
 OpenBabel11021811453D
libRbt.so/2013.1/901 2013/11/27
 13 12  0  0  0  0  0  0  0  0999 V2000
   21.0632   28.6827   50.0946 O   0  0  0  0  0  0  0  0  0  0  0  0
   22.7030   32.0147   49.5797 O   0  0  0  0  0  0  0  0  0  0  0  0
   19.4405   24.7392   49.0947 P   0  0  2  0  0  0  0  0  0  0  0  0
   20.1148   24.1958   47.8800 O   0  5  0  0  0  0  0  0  0  0  0  0
   18.0157   25.1515   49.0122 O   0  0  0  0  0  0  0  0  0  0  0  0
   20.2647   25.9884   49.6216 O   0  0  0  0  0  0  0  0  0  0  0  0
   23.4422   35.2034   47.9254 O   0  0  0  0  0  0  0  0  0  0  0  0
   19.8745   26.6811   50.8161 C   0  0  0  0  0  0  0  0  0  0  0  0
   22.0489   30.7772   49.1990 C   0  0  0  0  0  0  0  0  0  0  0  0
   23.3978   34.2886   49.0110 C   0  0  0  0  0  0  0  0  0  0  0  0
   20.9293   27.7411   51.1762 C   0  0  0  0  0  0  0  0  0  0  0  0
   21.9828   29.7740   50.3768 C   0  0  0  0  0  0  0  0  0  0  0  0
   22.6985   33.0061   48.5259 C   0  0  0  0  0  0  0  0  0  0  0  0
  1 12  1  0  0  0  0
  1 11  1  0  0  0  0
  2 13  1  0  0  0  0
  2  9  1  0  0  0  0
  3  4  1  6  0  0  0
  3  5  2  0  0  0  0
  3  6  1  0  0  0  0
  6  8  1  0  0  0  0
  7 10  1  0  0  0  0
  8 11  1  0  0  0  0
  9 12  1  0  0  0  0
 10 13  1  0  0  0  0
M  CHG  1   4  -1
M  END
>  <CHROM.1>
-178.08439132,179.52508131,-177.47655293,173.71944492,59.39578245,-176.03660137
166.45482464,176.59050892,176.45058587,21.06882611,28.71481543,49.36166556
-3.01165576,-1.16849197,-1.47514300

>  <Name>
ligand

>  <RI>
0

>  <Rbt.Current_Directory>
/home/itssahil/PROJECTS/Mol_Feturizer/New_Systems/rnas/2NPY

>  <Rbt.Executable>
rbdock ($Id: //depot/dev/client3/rdock/2013.1/src/exe/rbdock.cxx#4 $)

>  <Rbt.Library>
libRbt.so (2013.1, Build901 2013/11/27)

>  <Rbt.Parameter_File>
/export/apps/rDock/src/rDock_2013.1_src/data/scripts/dock_solv.prm

>  <Rbt.Receptor>
prm/blind_docking_80.prm

>  <SCORE>
-12.9988

>  <SCORE.INTER>
0.863914

>  <SCORE.INTER.CONST>
1

>  <SCORE.INTER.POLAR>
0

>  <SCORE.INTER.ROT>
9

>  <SCORE.INTER.SOLV>
19.5494

>  <SCORE.INTER.VDW>
-15.5405

>  <SCORE.INTER.norm>
0.0664549

>  <SCORE.INTRA>
-13.8627

>  <SCORE.INTRA.DIHEDRAL>
-24.5838

>  <SCORE.INTRA.DIHEDRAL.0>
25.6828

>  <SCORE.INTRA.POLAR>
0

>  <SCORE.INTRA.POLAR.0>
0

>  <SCORE.INTRA.REPUL>
0

>  <SCORE.INTRA.REPUL.0>
0

>  <SCORE.INTRA.SOLV>
-1.45749

>  <SCORE.INTRA.SOLV.lig_0>
-48.5059

>  <SCORE.INTRA.VDW>
-0.8421

>  <SCORE.INTRA.VDW.0>
-0.363643

>  <SCORE.INTRA.norm>
-1.06636

>  <SCORE.RESTR>
0

>  <SCORE.RESTR.CAVITY>
0

>  <SCORE.RESTR.norm>
0

>  <SCORE.SYSTEM>
0

>  <SCORE.SYSTEM.CONST>
0

>  <SCORE.SYSTEM.DIHEDRAL>
0

>  <SCORE.SYSTEM.SOLV>
0

>  <SCORE.SYSTEM.norm>
0

>  <SCORE.heavy>
13

>  <SCORE.norm>
-0.99991

>  <RMSD>
12.568

$$$$
ligand
 OpenBabel11021811453D
libRbt.so/2013.1/901 2013/11/27
 13 12  0  0  0  0  0  0  0  0999 V2000
   22.9659   26.5347   47.8715 O   0  0  0  0  0  0  0  0  0  0  0  0
   20.3681   25.4912   48.6536 O   0  0  0  0  0  0  0  0  0  0  0  0
   26.5481   27.9463   49.9779 P   0  0  2  0  0  0  0  0  0  0  0  0
   26.2101   27.2194   51.2359 O   0  5  0  0  0  0  0  0  0  0  0  0
   26.7425   29.4185   50.0187 O   0  0  0  0  0  0  0  0  0  0  0  0
   25.4259   27.6472   48.8969 O   0  0  0  0  0  0  0  0  0  0  0  0
   19.3604   23.0596   49.6222 O   0  0  0  0  0  0  0  0  0  0  0  0
   25.3743   26.3863   48.2141 C   0  0  0  0  0  0  0  0  0  0  0  0
   20.4880   26.6318   47.7655 C   0  0  0  0  0  0  0  0  0  0  0  0
   19.0792   24.2602   50.3270 C   0  0  0  0  0  0  0  0  0  0  0  0
   24.2266   26.3907   47.1901 C   0  0  0  0  0  0  0  0  0  0  0  0
   21.8208   26.6112   46.9774 C   0  0  0  0  0  0  0  0  0  0  0  0
   19.0832   25.4198   49.3150 C   0  0  0  0  0  0  0  0  0  0  0  0
  1 12  1  0  0  0  0
  1 11  1  0  0  0  0
  2 13  1  0  0  0  0
  2  9  1  0  0  0  0
  3  4  1  1  0  0  0
  3  5  2  0  0  0  0
  3  6  1  0  0  0  0
  6  8  1  0  0  0  0
  7 10  1  0  0  0  0
  8 11  1  0  0  0  0
  9 12  1  0  0  0  0
 10 13  1  0  0  0  0
M  CHG  1   4  -1
M  END
>  <CHROM.1>
174.69194135,-175.06014803,-75.64563996,-177.83679839,-63.33110882,-174.84562511
-55.56068695,-58.55979626,177.33209225,23.22669382,26.52101457,49.03790189
3.11565129,0.45877546,1.84479356

>  <Name>
ligand

>  <RI>
0

>  <Rbt.Current_Directory>
/home/itssahil/PROJECTS/Mol_Feturizer/New_Systems/rnas/2NPY

>  <Rbt.Executable>
rbdock ($Id: //depot/dev/client3/rdock/2013.1/src/exe/rbdock.cxx#4 $)

>  <Rbt.Library>
libRbt.so (2013.1, Build901 2013/11/27)

>  <Rbt.Parameter_File>
/export/apps/rDock/src/rDock_2013.1_src/data/scripts/dock_solv.prm

>  <Rbt.Receptor>
prm/blind_docking_100.prm

>  <SCORE>
-13.5237

>  <SCORE.INTER>
0.583713

>  <SCORE.INTER.CONST>
1

>  <SCORE.INTER.POLAR>
0

>  <SCORE.INTER.ROT>
9

>  <SCORE.INTER.SOLV>
13.398

>  <SCORE.INTER.VDW>
-13.6769

>  <SCORE.INTER.norm>
0.044901

>  <SCORE.INTRA>
-14.1074

>  <SCORE.INTRA.DIHEDRAL>
-24.6681

>  <SCORE.INTRA.DIHEDRAL.0>
25.6828

>  <SCORE.INTRA.POLAR>
0

>  <SCORE.INTRA.POLAR.0>
0

>  <SCORE.INTRA.REPUL>
0

>  <SCORE.INTRA.REPUL.0>
0

>  <SCORE.INTRA.SOLV>
-1.16966

>  <SCORE.INTRA.SOLV.lig_0>
-48.5059

>  <SCORE.INTRA.VDW>
-1.18855

>  <SCORE.INTRA.VDW.0>
-0.363643

>  <SCORE.INTRA.norm>
-1.08519

>  <SCORE.RESTR>
0

>  <SCORE.RESTR.CAVITY>
0

>  <SCORE.RESTR.norm>
0

>  <SCORE.SYSTEM>
0

>  <SCORE.SYSTEM.CONST>
0

>  <SCORE.SYSTEM.DIHEDRAL>
0

>  <SCORE.SYSTEM.SOLV>
0

>  <SCORE.SYSTEM.norm>
0

>  <SCORE.heavy>
13

>  <SCORE.norm>
-1.04029

>  <RMSD>
12.638

$$$$
ligand
 OpenBabel11021811453D
libRbt.so/2013.1/901 2013/11/27
 13 12  0  0  0  0  0  0  0  0999 V2000
   21.5331   28.9361   50.6237 O   0  0  0  0  0  0  0  0  0  0  0  0
   22.0655   31.6402   49.1782 O   0  0  0  0  0  0  0  0  0  0  0  0
   19.4613   25.3859   49.0352 P   0  0  2  0  0  0  0  0  0  0  0  0
   18.5892   24.5875   49.9447 O   0  5  0  0  0  0  0  0  0  0  0  0
   20.7232   24.7882   48.5280 O   0  0  0  0  0  0  0  0  0  0  0  0
   19.8392   26.7486   49.7547 O   0  0  0  0  0  0  0  0  0  0  0  0
   21.1171   34.0834   48.0432 O   0  0  0  0  0  0  0  0  0  0  0  0
   20.5219   26.7537   51.0168 C   0  0  0  0  0  0  0  0  0  0  0  0
   22.8936   30.9583   50.1546 C   0  0  0  0  0  0  0  0  0  0  0  0
   21.8812   33.1644   47.2757 C   0  0  0  0  0  0  0  0  0  0  0  0
   20.6818   28.1981   51.5209 C   0  0  0  0  0  0  0  0  0  0  0  0
   22.0435   30.1768   51.1863 C   0  0  0  0  0  0  0  0  0  0  0  0
   22.8317   32.4199   48.2303 C   0  0  0  0  0  0  0  0  0  0  0  0
  1 12  1  0  0  0  0
  1 11  1  0  0  0  0
  2 13  1  0  0  0  0
  2  9  1  0  0  0  0
  3  4  1  1  0  0  0
  3  5  2  0  0  0  0
  3  6  1  0  0  0  0
  6  8  1  0  0  0  0
  7 10  1  0  0  0  0
  8 11  1  0  0  0  0
  9 12  1  0  0  0  0
 10 13  1  0  0  0  0
M  CHG  1   4  -1
M  END
>  <CHROM.1>
-177.22482723,-177.22082870,58.62677614,-176.48688974,-64.53140386,177.83836293
76.90991475,63.73227811,-163.97325616,20.93510493,28.73574378,49.51995058
-0.79730902,1.10931840,2.29036493

>  <Name>
ligand

>  <RI>
0

>  <Rbt.Current_Directory>
/home/itssahil/PROJECTS/Mol_Feturizer/New_Systems/rnas/2NPY

>  <Rbt.Executable>
rbdock ($Id: //depot/dev/client3/rdock/2013.1/src/exe/rbdock.cxx#4 $)

>  <Rbt.Library>
libRbt.so (2013.1, Build901 2013/11/27)

>  <Rbt.Parameter_File>
/export/apps/rDock/src/rDock_2013.1_src/data/scripts/dock_solv.prm

>  <Rbt.Receptor>
prm/blind_docking_100.prm

>  <SCORE>
-12.676

>  <SCORE.INTER>
0.30804

>  <SCORE.INTER.CONST>
1

>  <SCORE.INTER.POLAR>
0

>  <SCORE.INTER.ROT>
9

>  <SCORE.INTER.SOLV>
13.1373

>  <SCORE.INTER.VDW>
-13.7737

>  <SCORE.INTER.norm>
0.0236954

>  <SCORE.INTRA>
-12.984

>  <SCORE.INTRA.DIHEDRAL>
-23.1108

>  <SCORE.INTRA.DIHEDRAL.0>
25.6828

>  <SCORE.INTRA.POLAR>
0

>  <SCORE.INTRA.POLAR.0>
0

>  <SCORE.INTRA.REPUL>
0

>  <SCORE.INTRA.REPUL.0>
0

>  <SCORE.INTRA.SOLV>
-0.685963

>  <SCORE.INTRA.SOLV.lig_0>
-48.5059

>  <SCORE.INTRA.VDW>
-1.08563

>  <SCORE.INTRA.VDW.0>
-0.363643

>  <SCORE.INTRA.norm>
-0.998772

>  <SCORE.RESTR>
0

>  <SCORE.RESTR.CAVITY>
0

>  <SCORE.RESTR.norm>
0

>  <SCORE.SYSTEM>
0

>  <SCORE.SYSTEM.CONST>
0

>  <SCORE.SYSTEM.DIHEDRAL>
0

>  <SCORE.SYSTEM.SOLV>
0

>  <SCORE.SYSTEM.norm>
0

>  <SCORE.heavy>
13

>  <SCORE.norm>
-0.975077

>  <RMSD>
12.653

$$$$
ligand
 OpenBabel11021811453D
libRbt.so/2013.1/901 2013/11/27
 13 12  0  0  0  0  0  0  0  0999 V2000
   21.4904   29.4303   50.4825 O   0  0  0  0  0  0  0  0  0  0  0  0
   20.5438   26.7200   49.7393 O   0  0  0  0  0  0  0  0  0  0  0  0
   22.2890   33.2996   48.3872 P   0  0  2  0  0  0  0  0  0  0  0  0
   21.0157   33.9574   47.9733 O   0  5  0  0  0  0  0  0  0  0  0  0
   23.1855   32.7319   47.3476 O   0  0  0  0  0  0  0  0  0  0  0  0
   21.9536   32.1341   49.4102 O   0  0  0  0  0  0  0  0  0  0  0  0
   20.4721   25.4837   47.2212 O   0  0  0  0  0  0  0  0  0  0  0  0
   22.9839   31.2691   49.9092 C   0  0  0  0  0  0  0  0  0  0  0  0
   19.9640   27.5016   50.8151 C   0  0  0  0  0  0  0  0  0  0  0  0
   21.3458   26.5832   47.4340 C   0  0  0  0  0  0  0  0  0  0  0  0
   22.4238   30.3795   51.0322 C   0  0  0  0  0  0  0  0  0  0  0  0
   20.9980   28.4630   51.4511 C   0  0  0  0  0  0  0  0  0  0  0  0
   20.7283   27.4798   48.5219 C   0  0  0  0  0  0  0  0  0  0  0  0
  1 12  1  0  0  0  0
  1 11  1  0  0  0  0
  2 13  1  0  0  0  0
  2  9  1  0  0  0  0
  3  4  1  6  0  0  0
  3  5  2  0  0  0  0
  3  6  1  0  0  0  0
  6  8  1  0  0  0  0
  7 10  1  0  0  0  0
  8 11  1  0  0  0  0
  9 12  1  0  0  0  0
 10 13  1  0  0  0  0
M  CHG  1   4  -1
M  END
>  <CHROM.1>
178.05171157,179.97260357,175.84116707,171.47734461,69.04993150,-75.65539671
61.91178033,58.71128962,174.69064966,21.55311022,29.96571365,49.11476230
3.11494614,-1.32762938,-1.68107907

>  <Name>
ligand

>  <RI>
0

>  <Rbt.Current_Directory>
/home/itssahil/PROJECTS/Mol_Feturizer/New_Systems/rnas/2NPY

>  <Rbt.Executable>
rbdock ($Id: //depot/dev/client3/rdock/2013.1/src/exe/rbdock.cxx#4 $)

>  <Rbt.Library>
libRbt.so (2013.1, Build901 2013/11/27)

>  <Rbt.Parameter_File>
/export/apps/rDock/src/rDock_2013.1_src/data/scripts/dock_solv.prm

>  <Rbt.Receptor>
prm/blind_docking_80.prm

>  <SCORE>
-12.8304

>  <SCORE.INTER>
-0.326996

>  <SCORE.INTER.CONST>
1

>  <SCORE.INTER.POLAR>
0

>  <SCORE.INTER.ROT>
9

>  <SCORE.INTER.SOLV>
13.9333

>  <SCORE.INTER.VDW>
-14.4624

>  <SCORE.INTER.norm>
-0.0251535

>  <SCORE.INTRA>
-12.5034

>  <SCORE.INTRA.DIHEDRAL>
-23.5859

>  <SCORE.INTRA.DIHEDRAL.0>
25.6828

>  <SCORE.INTRA.POLAR>
0

>  <SCORE.INTRA.POLAR.0>
0

>  <SCORE.INTRA.REPUL>
0

>  <SCORE.INTRA.REPUL.0>
0

>  <SCORE.INTRA.SOLV>
-0.873007

>  <SCORE.INTRA.SOLV.lig_0>
-48.5059

>  <SCORE.INTRA.VDW>
-0.273899

>  <SCORE.INTRA.VDW.0>
-0.363643

>  <SCORE.INTRA.norm>
-0.961797

>  <SCORE.RESTR>
0

>  <SCORE.RESTR.CAVITY>
0

>  <SCORE.RESTR.norm>
0

>  <SCORE.SYSTEM>
0

>  <SCORE.SYSTEM.CONST>
0

>  <SCORE.SYSTEM.DIHEDRAL>
0

>  <SCORE.SYSTEM.SOLV>
0

>  <SCORE.SYSTEM.norm>
0

>  <SCORE.heavy>
13

>  <SCORE.norm>
-0.986951

>  <RMSD>
12.658

$$$$
ligand
 OpenBabel11021811453D
libRbt.so/2013.1/901 2013/11/27
 13 12  0  0  0  0  0  0  0  0999 V2000
   21.5855   28.5125   50.7582 O   0  0  0  0  0  0  0  0  0  0  0  0
   22.8749   31.8795   49.6947 O   0  0  0  0  0  0  0  0  0  0  0  0
   19.0701   25.1181   50.3548 P   0  0  2  0  0  0  0  0  0  0  0  0
   19.3721   23.8515   51.0826 O   0  5  0  0  0  0  0  0  0  0  0  0
   18.6612   25.0570   48.9280 O   0  0  0  0  0  0  0  0  0  0  0  0
   20.3339   26.0732   50.4441 O   0  0  0  0  0  0  0  0  0  0  0  0
   24.5911   33.7215   48.4325 O   0  0  0  0  0  0  0  0  0  0  0  0
   20.9601   26.3552   51.7040 C   0  0  0  0  0  0  0  0  0  0  0  0
   21.9963   30.7253   49.7117 C   0  0  0  0  0  0  0  0  0  0  0  0
   23.3397   34.1588   48.9428 C   0  0  0  0  0  0  0  0  0  0  0  0
   22.0815   27.3903   51.5125 C   0  0  0  0  0  0  0  0  0  0  0  0
   22.5472   29.5947   50.6150 C   0  0  0  0  0  0  0  0  0  0  0  0
   22.3629   32.9704   48.8940 C   0  0  0  0  0  0  0  0  0  0  0  0
  1 12  1  0  0  0  0
  1 11  1  0  0  0  0
  2 13  1  0  0  0  0
  2  9  1  0  0  0  0
  3  4  1  6  0  0  0
  3  5  2  0  0  0  0
  3  6  1  0  0  0  0
  6  8  1  0  0  0  0
  7 10  1  0  0  0  0
  8 11  1  0  0  0  0
  9 12  1  0  0  0  0
 10 13  1  0  0  0  0
M  CHG  1   4  -1
M  END
>  <CHROM.1>
175.88934270,179.23487701,-50.50378804,-175.46700076,49.66793426,-178.02340725
172.91036303,59.74243278,175.44701581,21.30856624,28.53682154,50.09374428
-2.20514102,-0.75366440,-0.64015671

>  <Name>
ligand

>  <RI>
0

>  <Rbt.Current_Directory>
/home/itssahil/PROJECTS/Mol_Feturizer/New_Systems/rnas/2NPY

>  <Rbt.Executable>
rbdock ($Id: //depot/dev/client3/rdock/2013.1/src/exe/rbdock.cxx#4 $)

>  <Rbt.Library>
libRbt.so (2013.1, Build901 2013/11/27)

>  <Rbt.Parameter_File>
/export/apps/rDock/src/rDock_2013.1_src/data/scripts/dock_solv.prm

>  <Rbt.Receptor>
prm/blind_docking_80.prm

>  <SCORE>
-13.1168

>  <SCORE.INTER>
0.703647

>  <SCORE.INTER.CONST>
1

>  <SCORE.INTER.POLAR>
0

>  <SCORE.INTER.ROT>
9

>  <SCORE.INTER.SOLV>
15.5857

>  <SCORE.INTER.VDW>
-14.3261

>  <SCORE.INTER.norm>
0.0541267

>  <SCORE.INTRA>
-13.8204

>  <SCORE.INTRA.DIHEDRAL>
-24.7437

>  <SCORE.INTRA.DIHEDRAL.0>
25.6828

>  <SCORE.INTRA.POLAR>
0

>  <SCORE.INTRA.POLAR.0>
0

>  <SCORE.INTRA.REPUL>
0

>  <SCORE.INTRA.REPUL.0>
0

>  <SCORE.INTRA.SOLV>
-1.09385

>  <SCORE.INTRA.SOLV.lig_0>
-48.5059

>  <SCORE.INTRA.VDW>
-0.901651

>  <SCORE.INTRA.VDW.0>
-0.363643

>  <SCORE.INTRA.norm>
-1.06311

>  <SCORE.RESTR>
0

>  <SCORE.RESTR.CAVITY>
0

>  <SCORE.RESTR.norm>
0

>  <SCORE.SYSTEM>
0

>  <SCORE.SYSTEM.CONST>
0

>  <SCORE.SYSTEM.DIHEDRAL>
0

>  <SCORE.SYSTEM.SOLV>
0

>  <SCORE.SYSTEM.norm>
0

>  <SCORE.heavy>
13

>  <SCORE.norm>
-1.00898

>  <RMSD>
12.659

$$$$
ligand
 OpenBabel11021811453D
libRbt.so/2013.1/901 2013/11/27
 13 12  0  0  0  0  0  0  0  0999 V2000
   21.8997   28.4892   50.8382 O   0  0  0  0  0  0  0  0  0  0  0  0
   20.2575   25.9699   50.9415 O   0  0  0  0  0  0  0  0  0  0  0  0
   25.4847   30.1724   49.0710 P   0  0  2  0  0  0  0  0  0  0  0  0
   26.1513   28.8378   49.0714 O   0  5  0  0  0  0  0  0  0  0  0  0
   26.1016   31.2934   49.8256 O   0  0  0  0  0  0  0  0  0  0  0  0
   24.0003   30.0029   49.6051 O   0  0  0  0  0  0  0  0  0  0  0  0
   20.3214   24.9782   48.2973 O   0  0  0  0  0  0  0  0  0  0  0  0
   23.0102   29.3112   48.8304 C   0  0  0  0  0  0  0  0  0  0  0  0
   19.7165   27.3157   50.9677 C   0  0  0  0  0  0  0  0  0  0  0  0
   19.0776   25.1650   48.9573 C   0  0  0  0  0  0  0  0  0  0  0  0
   21.6921   29.2268   49.6186 C   0  0  0  0  0  0  0  0  0  0  0  0
   20.6932   28.3167   51.6325 C   0  0  0  0  0  0  0  0  0  0  0  0
   19.3078   24.9860   50.4686 C   0  0  0  0  0  0  0  0  0  0  0  0
  1 12  1  0  0  0  0
  1 11  1  0  0  0  0
  2 13  1  0  0  0  0
  2  9  1  0  0  0  0
  3  4  1  1  0  0  0
  3  5  2  0  0  0  0
  3  6  1  0  0  0  0
  6  8  1  0  0  0  0
  7 10  1  0  0  0  0
  8 11  1  0  0  0  0
  9 12  1  0  0  0  0
 10 13  1  0  0  0  0
M  CHG  1   4  -1
M  END
>  <CHROM.1>
71.46006790,71.17521666,-69.14121516,176.77513167,-61.26498632,173.25368005
66.45324907,60.60844838,-178.00230902,22.45646378,28.19338724,49.78759977
2.72383081,-0.53296212,-2.44009677

>  <Name>
ligand

>  <RI>
0

>  <Rbt.Current_Directory>
/home/itssahil/PROJECTS/Mol_Feturizer/New_Systems/rnas/2NPY

>  <Rbt.Executable>
rbdock ($Id: //depot/dev/client3/rdock/2013.1/src/exe/rbdock.cxx#4 $)

>  <Rbt.Library>
libRbt.so (2013.1, Build901 2013/11/27)

>  <Rbt.Parameter_File>
/export/apps/rDock/src/rDock_2013.1_src/data/scripts/dock_solv.prm

>  <Rbt.Receptor>
prm/blind_docking_80.prm

>  <SCORE>
-9.70686

>  <SCORE.INTER>
2.36476

>  <SCORE.INTER.CONST>
1

>  <SCORE.INTER.POLAR>
0

>  <SCORE.INTER.ROT>
9

>  <SCORE.INTER.SOLV>
7.3681

>  <SCORE.INTER.VDW>
-10.4795

>  <SCORE.INTER.norm>
0.181905

>  <SCORE.INTRA>
-12.0716

>  <SCORE.INTRA.DIHEDRAL>
-23.7619

>  <SCORE.INTRA.DIHEDRAL.0>
25.6828

>  <SCORE.INTRA.POLAR>
0

>  <SCORE.INTRA.POLAR.0>
0

>  <SCORE.INTRA.REPUL>
0

>  <SCORE.INTRA.REPUL.0>
0

>  <SCORE.INTRA.SOLV>
-0.921759

>  <SCORE.INTRA.SOLV.lig_0>
-48.5059

>  <SCORE.INTRA.VDW>
0.270197

>  <SCORE.INTRA.VDW.0>
-0.363643

>  <SCORE.INTRA.norm>
-0.928587

>  <SCORE.RESTR>
0

>  <SCORE.RESTR.CAVITY>
0

>  <SCORE.RESTR.norm>
0

>  <SCORE.SYSTEM>
0

>  <SCORE.SYSTEM.CONST>
0

>  <SCORE.SYSTEM.DIHEDRAL>
0

>  <SCORE.SYSTEM.SOLV>
0

>  <SCORE.SYSTEM.norm>
0

>  <SCORE.heavy>
13

>  <SCORE.norm>
-0.746682

>  <RMSD>
12.665

$$$$
ligand
 OpenBabel11021811453D
libRbt.so/2013.1/901 2013/11/27
 13 12  0  0  0  0  0  0  0  0999 V2000
   21.5598   28.8480   49.2037 O   0  0  0  0  0  0  0  0  0  0  0  0
   21.9085   31.7308   49.2608 O   0  0  0  0  0  0  0  0  0  0  0  0
   18.9385   25.1445   49.0249 P   0  0  2  0  0  0  0  0  0  0  0  0
   19.1574   25.4059   50.4772 O   0  5  0  0  0  0  0  0  0  0  0  0
   18.5543   23.7796   48.5816 O   0  0  0  0  0  0  0  0  0  0  0  0
   20.2504   25.5484   48.2291 O   0  0  0  0  0  0  0  0  0  0  0  0
   22.5076   34.9913   47.6900 O   0  0  0  0  0  0  0  0  0  0  0  0
   20.6094   26.9255   48.0458 C   0  0  0  0  0  0  0  0  0  0  0  0
   22.6448   30.8644   50.1616 C   0  0  0  0  0  0  0  0  0  0  0  0
   21.7739   33.8112   47.9838 C   0  0  0  0  0  0  0  0  0  0  0  0
   20.9255   27.5708   49.4058 C   0  0  0  0  0  0  0  0  0  0  0  0
   21.8862   29.5433   50.4392 C   0  0  0  0  0  0  0  0  0  0  0  0
   22.6128   32.9559   48.9501 C   0  0  0  0  0  0  0  0  0  0  0  0
  1 12  1  0  0  0  0
  1 11  1  0  0  0  0
  2 13  1  0  0  0  0
  2  9  1  0  0  0  0
  3  4  1  1  0  0  0
  3  5  2  0  0  0  0
  3  6  1  0  0  0  0
  6  8  1  0  0  0  0
  7 10  1  0  0  0  0
  8 11  1  0  0  0  0
  9 12  1  0  0  0  0
 10 13  1  0  0  0  0
M  CHG  1   4  -1
M  END
>  <CHROM.1>
176.38223484,179.52836012,-72.30106113,64.83863545,167.54141490,-178.19288021
55.30052857,-179.15010682,179.42647880,20.83711914,28.66394114,49.02690164
-0.81746722,1.03041188,2.41683409

>  <Name>
ligand

>  <RI>
0

>  <Rbt.Current_Directory>
/home/itssahil/PROJECTS/Mol_Feturizer/New_Systems/rnas/2NPY

>  <Rbt.Executable>
rbdock ($Id: //depot/dev/client3/rdock/2013.1/src/exe/rbdock.cxx#4 $)

>  <Rbt.Library>
libRbt.so (2013.1, Build901 2013/11/27)

>  <Rbt.Parameter_File>
/export/apps/rDock/src/rDock_2013.1_src/data/scripts/dock_solv.prm

>  <Rbt.Receptor>
prm/blind_docking_100.prm

>  <SCORE>
-14.3839

>  <SCORE.INTER>
-1.55726

>  <SCORE.INTER.CONST>
1

>  <SCORE.INTER.POLAR>
0

>  <SCORE.INTER.ROT>
9

>  <SCORE.INTER.SOLV>
16.5833

>  <SCORE.INTER.VDW>
-16.1659

>  <SCORE.INTER.norm>
-0.119789

>  <SCORE.INTRA>
-12.8266

>  <SCORE.INTRA.DIHEDRAL>
-24.5014

>  <SCORE.INTRA.DIHEDRAL.0>
25.6828

>  <SCORE.INTRA.POLAR>
0

>  <SCORE.INTRA.POLAR.0>
0

>  <SCORE.INTRA.REPUL>
0

>  <SCORE.INTRA.REPUL.0>
0

>  <SCORE.INTRA.SOLV>
0.0535775

>  <SCORE.INTRA.SOLV.lig_0>
-48.5059

>  <SCORE.INTRA.VDW>
-0.602741

>  <SCORE.INTRA.VDW.0>
-0.363643

>  <SCORE.INTRA.norm>
-0.986664

>  <SCORE.RESTR>
0

>  <SCORE.RESTR.CAVITY>
0

>  <SCORE.RESTR.norm>
0

>  <SCORE.SYSTEM>
0

>  <SCORE.SYSTEM.CONST>
0

>  <SCORE.SYSTEM.DIHEDRAL>
0

>  <SCORE.SYSTEM.SOLV>
0

>  <SCORE.SYSTEM.norm>
0

>  <SCORE.heavy>
13

>  <SCORE.norm>
-1.10645

>  <RMSD>
12.684

$$$$
ligand
 OpenBabel11021811453D
libRbt.so/2013.1/901 2013/11/27
 13 12  0  0  0  0  0  0  0  0999 V2000
   21.3134   29.2735   50.6637 O   0  0  0  0  0  0  0  0  0  0  0  0
   22.2446   31.6461   49.0797 O   0  0  0  0  0  0  0  0  0  0  0  0
   19.3895   25.4570   49.0968 P   0  0  2  0  0  0  0  0  0  0  0  0
   18.8243   24.6177   50.1928 O   0  5  0  0  0  0  0  0  0  0  0  0
   20.1177   24.8010   47.9804 O   0  0  0  0  0  0  0  0  0  0  0  0
   20.3665   26.5350   49.7299 O   0  0  0  0  0  0  0  0  0  0  0  0
   20.9891   32.3055   46.6043 O   0  0  0  0  0  0  0  0  0  0  0  0
   20.0216   27.2253   50.9396 C   0  0  0  0  0  0  0  0  0  0  0  0
   22.2738   31.5582   50.5274 C   0  0  0  0  0  0  0  0  0  0  0  0
   22.1332   33.0150   47.0573 C   0  0  0  0  0  0  0  0  0  0  0  0
   21.2195   28.0569   51.4289 C   0  0  0  0  0  0  0  0  0  0  0  0
   22.4591   30.0994   51.0127 C   0  0  0  0  0  0  0  0  0  0  0  0
   22.1228   33.0044   48.5963 C   0  0  0  0  0  0  0  0  0  0  0  0
  1 12  1  0  0  0  0
  1 11  1  0  0  0  0
  2 13  1  0  0  0  0
  2  9  1  0  0  0  0
  3  4  1  1  0  0  0
  3  5  2  0  0  0  0
  3  6  1  0  0  0  0
  6  8  1  0  0  0  0
  7 10  1  0  0  0  0
  8 11  1  0  0  0  0
  9 12  1  0  0  0  0
 10 13  1  0  0  0  0
M  CHG  1   4  -1
M  END
>  <CHROM.1>
-161.35286537,178.64358090,-41.67495711,172.13363896,78.74532038,-177.81120869
-65.60519947,63.42162692,-177.21735033,20.88225706,28.71010810,49.40272203
-0.68133126,1.13702200,2.14924857

>  <Name>
ligand

>  <RI>
0

>  <Rbt.Current_Directory>
/home/itssahil/PROJECTS/Mol_Feturizer/New_Systems/rnas/2NPY

>  <Rbt.Executable>
rbdock ($Id: //depot/dev/client3/rdock/2013.1/src/exe/rbdock.cxx#4 $)

>  <Rbt.Library>
libRbt.so (2013.1, Build901 2013/11/27)

>  <Rbt.Parameter_File>
/export/apps/rDock/src/rDock_2013.1_src/data/scripts/dock_solv.prm

>  <Rbt.Receptor>
prm/blind_docking_80.prm

>  <SCORE>
-12.915

>  <SCORE.INTER>
-0.35811

>  <SCORE.INTER.CONST>
1

>  <SCORE.INTER.POLAR>
0

>  <SCORE.INTER.ROT>
9

>  <SCORE.INTER.SOLV>
14.6723

>  <SCORE.INTER.VDW>
-14.7295

>  <SCORE.INTER.norm>
-0.0275469

>  <SCORE.INTRA>
-12.5569

>  <SCORE.INTRA.DIHEDRAL>
-22.1344

>  <SCORE.INTRA.DIHEDRAL.0>
25.6828

>  <SCORE.INTRA.POLAR>
0

>  <SCORE.INTRA.POLAR.0>
0

>  <SCORE.INTRA.REPUL>
0

>  <SCORE.INTRA.REPUL.0>
0

>  <SCORE.INTRA.SOLV>
-1.09748

>  <SCORE.INTRA.SOLV.lig_0>
-48.5059

>  <SCORE.INTRA.VDW>
-0.940939

>  <SCORE.INTRA.VDW.0>
-0.363643

>  <SCORE.INTRA.norm>
-0.965913

>  <SCORE.RESTR>
0

>  <SCORE.RESTR.CAVITY>
0

>  <SCORE.RESTR.norm>
0

>  <SCORE.SYSTEM>
0

>  <SCORE.SYSTEM.CONST>
0

>  <SCORE.SYSTEM.DIHEDRAL>
0

>  <SCORE.SYSTEM.SOLV>
0

>  <SCORE.SYSTEM.norm>
0

>  <SCORE.heavy>
13

>  <SCORE.norm>
-0.99346

>  <RMSD>
12.686

$$$$
ligand
 OpenBabel11021811453D
libRbt.so/2013.1/901 2013/11/27
 13 12  0  0  0  0  0  0  0  0999 V2000
   22.4993   26.6823   47.1057 O   0  0  0  0  0  0  0  0  0  0  0  0
   20.7219   25.7220   49.3955 O   0  0  0  0  0  0  0  0  0  0  0  0
   25.8423   28.2843   49.5620 P   0  0  2  0  0  0  0  0  0  0  0  0
   27.1759   28.3766   50.2241 O   0  5  0  0  0  0  0  0  0  0  0  0
   24.6282   28.6974   50.3118 O   0  0  0  0  0  0  0  0  0  0  0  0
   25.6138   26.7907   49.0779 O   0  0  0  0  0  0  0  0  0  0  0  0
   17.8721   24.9867   49.1193 O   0  0  0  0  0  0  0  0  0  0  0  0
   24.7791   26.4992   47.9478 C   0  0  0  0  0  0  0  0  0  0  0  0
   20.3323   25.8742   48.0065 C   0  0  0  0  0  0  0  0  0  0  0  0
   18.5856   25.0099   50.3472 C   0  0  0  0  0  0  0  0  0  0  0  0
   23.3090   26.7939   48.2916 C   0  0  0  0  0  0  0  0  0  0  0  0
   21.1014   27.0266   47.3149 C   0  0  0  0  0  0  0  0  0  0  0  0
   20.0476   24.6260   50.0569 C   0  0  0  0  0  0  0  0  0  0  0  0
  1 12  1  0  0  0  0
  1 11  1  0  0  0  0
  2 13  1  0  0  0  0
  2  9  1  0  0  0  0
  3  4  1  1  0  0  0
  3  5  2  0  0  0  0
  3  6  1  0  0  0  0
  6  8  1  0  0  0  0
  7 10  1  0  0  0  0
  8 11  1  0  0  0  0
  9 12  1  0  0  0  0
 10 13  1  0  0  0  0
M  CHG  1   4  -1
M  END
>  <CHROM.1>
-77.92386311,-74.30516014,-151.96629841,-69.15591184,171.94978933,-178.28139755
71.00008217,73.48820367,-176.34521692,22.80165308,26.72207311,49.04078309
-3.08762842,0.38784409,1.56479199

>  <Name>
ligand

>  <RI>
0

>  <Rbt.Current_Directory>
/home/itssahil/PROJECTS/Mol_Feturizer/New_Systems/rnas/2NPY

>  <Rbt.Executable>
rbdock ($Id: //depot/dev/client3/rdock/2013.1/src/exe/rbdock.cxx#4 $)

>  <Rbt.Library>
libRbt.so (2013.1, Build901 2013/11/27)

>  <Rbt.Parameter_File>
/export/apps/rDock/src/rDock_2013.1_src/data/scripts/dock_solv.prm

>  <Rbt.Receptor>
prm/blind_docking_80.prm

>  <SCORE>
-8.62022

>  <SCORE.INTER>
0.755306

>  <SCORE.INTER.CONST>
1

>  <SCORE.INTER.POLAR>
0

>  <SCORE.INTER.ROT>
9

>  <SCORE.INTER.SOLV>
10.5321

>  <SCORE.INTER.VDW>
-12.6072

>  <SCORE.INTER.norm>
0.0581005

>  <SCORE.INTRA>
-9.37552

>  <SCORE.INTRA.DIHEDRAL>
-20.8961

>  <SCORE.INTRA.DIHEDRAL.0>
25.6828

>  <SCORE.INTRA.POLAR>
0

>  <SCORE.INTRA.POLAR.0>
0

>  <SCORE.INTRA.REPUL>
0

>  <SCORE.INTRA.REPUL.0>
0

>  <SCORE.INTRA.SOLV>
0.673137

>  <SCORE.INTRA.SOLV.lig_0>
-48.5059

>  <SCORE.INTRA.VDW>
0.735935

>  <SCORE.INTRA.VDW.0>
-0.363643

>  <SCORE.INTRA.norm>
-0.721194

>  <SCORE.RESTR>
0

>  <SCORE.RESTR.CAVITY>
0

>  <SCORE.RESTR.norm>
0

>  <SCORE.SYSTEM>
0

>  <SCORE.SYSTEM.CONST>
0

>  <SCORE.SYSTEM.DIHEDRAL>
0

>  <SCORE.SYSTEM.SOLV>
0

>  <SCORE.SYSTEM.norm>
0

>  <SCORE.heavy>
13

>  <SCORE.norm>
-0.663094

>  <RMSD>
12.706

$$$$
ligand
 OpenBabel11021811453D
libRbt.so/2013.1/901 2013/11/27
 13 12  0  0  0  0  0  0  0  0999 V2000
   21.2810   28.9423   50.6671 O   0  0  0  0  0  0  0  0  0  0  0  0
   22.3961   31.4407   49.3345 O   0  0  0  0  0  0  0  0  0  0  0  0
   20.6194   24.5205   50.0006 P   0  0  2  0  0  0  0  0  0  0  0  0
   19.9443   24.4291   48.6734 O   0  5  0  0  0  0  0  0  0  0  0  0
   20.8121   23.2864   50.8048 O   0  0  0  0  0  0  0  0  0  0  0  0
   19.8292   25.5564   50.9061 O   0  0  0  0  0  0  0  0  0  0  0  0
   21.2316   32.6017   47.0355 O   0  0  0  0  0  0  0  0  0  0  0  0
   19.8607   26.9623   50.6207 C   0  0  0  0  0  0  0  0  0  0  0  0
   22.5022   31.1019   50.7410 C   0  0  0  0  0  0  0  0  0  0  0  0
   22.4313   33.1375   47.5749 C   0  0  0  0  0  0  0  0  0  0  0  0
   21.2749   27.5157   50.8647 C   0  0  0  0  0  0  0  0  0  0  0  0
   22.5596   29.5703   50.9623 C   0  0  0  0  0  0  0  0  0  0  0  0
   22.4362   32.8662   49.0899 C   0  0  0  0  0  0  0  0  0  0  0  0
  1 12  1  0  0  0  0
  1 11  1  0  0  0  0
  2 13  1  0  0  0  0
  2  9  1  0  0  0  0
  3  4  1  6  0  0  0
  3  5  2  0  0  0  0
  3  6  1  0  0  0  0
  6  8  1  0  0  0  0
  7 10  1  0  0  0  0
  8 11  1  0  0  0  0
  9 12  1  0  0  0  0
 10 13  1  0  0  0  0
M  CHG  1   4  -1
M  END
>  <CHROM.1>
-179.62394171,175.52473254,-70.32585673,-67.50368950,-176.03616987,-175.86527253
-69.94873749,60.79142066,176.15314938,21.24233247,28.23132261,49.79495865
-0.98600388,1.15655535,2.40117188

>  <Name>
ligand

>  <RI>
0

>  <Rbt.Current_Directory>
/home/itssahil/PROJECTS/Mol_Feturizer/New_Systems/rnas/2NPY

>  <Rbt.Executable>
rbdock ($Id: //depot/dev/client3/rdock/2013.1/src/exe/rbdock.cxx#4 $)

>  <Rbt.Library>
libRbt.so (2013.1, Build901 2013/11/27)

>  <Rbt.Parameter_File>
/export/apps/rDock/src/rDock_2013.1_src/data/scripts/dock_solv.prm

>  <Rbt.Receptor>
prm/blind_docking_100.prm

>  <SCORE>
-11.0671

>  <SCORE.INTER>
1.96239

>  <SCORE.INTER.CONST>
1

>  <SCORE.INTER.POLAR>
0

>  <SCORE.INTER.ROT>
9

>  <SCORE.INTER.SOLV>
4.98336

>  <SCORE.INTER.VDW>
-9.95286

>  <SCORE.INTER.norm>
0.150953

>  <SCORE.INTRA>
-13.0313

>  <SCORE.INTRA.DIHEDRAL>
-24.4548

>  <SCORE.INTRA.DIHEDRAL.0>
25.6828

>  <SCORE.INTRA.POLAR>
0

>  <SCORE.INTRA.POLAR.0>
0

>  <SCORE.INTRA.REPUL>
0

>  <SCORE.INTRA.REPUL.0>
0

>  <SCORE.INTRA.SOLV>
-0.109002

>  <SCORE.INTRA.SOLV.lig_0>
-48.5059

>  <SCORE.INTRA.VDW>
-0.749387

>  <SCORE.INTRA.VDW.0>
-0.363643

>  <SCORE.INTRA.norm>
-1.00241

>  <SCORE.RESTR>
0.00185118

>  <SCORE.RESTR.CAVITY>
0.00185118

>  <SCORE.RESTR.norm>
0.000142398

>  <SCORE.SYSTEM>
0

>  <SCORE.SYSTEM.CONST>
0

>  <SCORE.SYSTEM.DIHEDRAL>
0

>  <SCORE.SYSTEM.SOLV>
0

>  <SCORE.SYSTEM.norm>
0

>  <SCORE.heavy>
13

>  <SCORE.norm>
-0.851312

>  <RMSD>
12.717

$$$$
ligand
 OpenBabel11021811453D
libRbt.so/2013.1/901 2013/11/27
 13 12  0  0  0  0  0  0  0  0999 V2000
   21.3171   28.6327   49.0568 O   0  0  0  0  0  0  0  0  0  0  0  0
   22.3343   32.1732   48.3343 O   0  0  0  0  0  0  0  0  0  0  0  0
   18.8513   24.2191   49.2039 P   0  0  2  0  0  0  0  0  0  0  0  0
   19.6502   23.7457   50.3715 O   0  5  0  0  0  0  0  0  0  0  0  0
   18.4538   23.2474   48.1530 O   0  0  0  0  0  0  0  0  0  0  0  0
   19.6401   25.3945   48.4873 O   0  0  0  0  0  0  0  0  0  0  0  0
   23.5967   34.3251   47.0817 O   0  0  0  0  0  0  0  0  0  0  0  0
   20.2296   26.4599   49.2465 C   0  0  0  0  0  0  0  0  0  0  0  0
   22.1893   30.9559   49.1097 C   0  0  0  0  0  0  0  0  0  0  0  0
   22.8402   34.5639   48.2599 C   0  0  0  0  0  0  0  0  0  0  0  0
   20.8344   27.5083   48.2973 C   0  0  0  0  0  0  0  0  0  0  0  0
   21.7031   29.7718   48.2383 C   0  0  0  0  0  0  0  0  0  0  0  0
   22.8578   33.2789   49.1069 C   0  0  0  0  0  0  0  0  0  0  0  0
  1 12  1  0  0  0  0
  1 11  1  0  0  0  0
  2 13  1  0  0  0  0
  2  9  1  0  0  0  0
  3  4  1  1  0  0  0
  3  5  2  0  0  0  0
  3  6  1  0  0  0  0
  6  8  1  0  0  0  0
  7 10  1  0  0  0  0
  8 11  1  0  0  0  0
  9 12  1  0  0  0  0
 10 13  1  0  0  0  0
M  CHG  1   4  -1
M  END
>  <CHROM.1>
179.00512772,-173.97464579,-45.90072191,-175.74688582,174.83964043,-176.79887161
-169.09166191,-57.21418268,-170.28262610,20.91763509,28.37473831,48.72360035
-0.47235614,1.13196299,1.98615921

>  <Name>
ligand

>  <RI>
0

>  <Rbt.Current_Directory>
/home/itssahil/PROJECTS/Mol_Feturizer/New_Systems/rnas/2NPY

>  <Rbt.Executable>
rbdock ($Id: //depot/dev/client3/rdock/2013.1/src/exe/rbdock.cxx#4 $)

>  <Rbt.Library>
libRbt.so (2013.1, Build901 2013/11/27)

>  <Rbt.Parameter_File>
/export/apps/rDock/src/rDock_2013.1_src/data/scripts/dock_solv.prm

>  <Rbt.Receptor>
prm/blind_docking_80.prm

>  <SCORE>
-12.7411

>  <SCORE.INTER>
0.752941

>  <SCORE.INTER.CONST>
1

>  <SCORE.INTER.POLAR>
0

>  <SCORE.INTER.ROT>
9

>  <SCORE.INTER.SOLV>
15.6508

>  <SCORE.INTER.VDW>
-14.315

>  <SCORE.INTER.norm>
0.0579186

>  <SCORE.INTRA>
-13.494

>  <SCORE.INTRA.DIHEDRAL>
-24.2257

>  <SCORE.INTRA.DIHEDRAL.0>
25.6828

>  <SCORE.INTRA.POLAR>
0

>  <SCORE.INTRA.POLAR.0>
0

>  <SCORE.INTRA.REPUL>
0

>  <SCORE.INTRA.REPUL.0>
0

>  <SCORE.INTRA.SOLV>
-1.28464

>  <SCORE.INTRA.SOLV.lig_0>
-48.5059

>  <SCORE.INTRA.VDW>
-0.738815

>  <SCORE.INTRA.VDW.0>
-0.363643

>  <SCORE.INTRA.norm>
-1.038

>  <SCORE.RESTR>
0

>  <SCORE.RESTR.CAVITY>
0

>  <SCORE.RESTR.norm>
0

>  <SCORE.SYSTEM>
0

>  <SCORE.SYSTEM.CONST>
0

>  <SCORE.SYSTEM.DIHEDRAL>
0

>  <SCORE.SYSTEM.SOLV>
0

>  <SCORE.SYSTEM.norm>
0

>  <SCORE.heavy>
13

>  <SCORE.norm>
-0.980082

>  <RMSD>
12.717

$$$$
ligand
 OpenBabel11021811453D
libRbt.so/2013.1/901 2013/11/27
 13 12  0  0  0  0  0  0  0  0999 V2000
   21.6196   28.8268   50.0387 O   0  0  0  0  0  0  0  0  0  0  0  0
   22.0135   25.9182   49.6599 O   0  0  0  0  0  0  0  0  0  0  0  0
   22.6691   32.8456   48.4264 P   0  0  2  0  0  0  0  0  0  0  0  0
   23.0148   33.9591   49.3570 O   0  5  0  0  0  0  0  0  0  0  0  0
   21.7627   33.1114   47.2798 O   0  0  0  0  0  0  0  0  0  0  0  0
   22.0356   31.6566   49.2643 O   0  0  0  0  0  0  0  0  0  0  0  0
   23.7821   23.7409   50.1330 O   0  0  0  0  0  0  0  0  0  0  0  0
   22.8110   30.9436   50.2387 C   0  0  0  0  0  0  0  0  0  0  0  0
   20.7049   26.5396   49.7346 C   0  0  0  0  0  0  0  0  0  0  0  0
   23.4486   24.1314   48.8087 C   0  0  0  0  0  0  0  0  0  0  0  0
   21.9313   29.8998   50.9476 C   0  0  0  0  0  0  0  0  0  0  0  0
   20.7254   27.8248   50.5981 C   0  0  0  0  0  0  0  0  0  0  0  0
   22.0319   24.7325   48.8309 C   0  0  0  0  0  0  0  0  0  0  0  0
  1 12  1  0  0  0  0
  1 11  1  0  0  0  0
  2 13  1  0  0  0  0
  2  9  1  0  0  0  0
  3  4  1  1  0  0  0
  3  5  2  0  0  0  0
  3  6  1  0  0  0  0
  6  8  1  0  0  0  0
  7 10  1  0  0  0  0
  8 11  1  0  0  0  0
  9 12  1  0  0  0  0
 10 13  1  0  0  0  0
M  CHG  1   4  -1
M  END
>  <CHROM.1>
-165.78318579,-179.74046446,-64.90149021,177.05461546,70.81328835,-178.53084573
61.27521648,62.61025420,-176.70022917,22.24396406,29.14804436,49.38987272
1.55706683,-0.85937338,3.02614741

>  <Name>
ligand

>  <RI>
0

>  <Rbt.Current_Directory>
/home/itssahil/PROJECTS/Mol_Feturizer/New_Systems/rnas/2NPY

>  <Rbt.Executable>
rbdock ($Id: //depot/dev/client3/rdock/2013.1/src/exe/rbdock.cxx#4 $)

>  <Rbt.Library>
libRbt.so (2013.1, Build901 2013/11/27)

>  <Rbt.Parameter_File>
/export/apps/rDock/src/rDock_2013.1_src/data/scripts/dock_solv.prm

>  <Rbt.Receptor>
prm/blind_docking_100.prm

>  <SCORE>
-11.171

>  <SCORE.INTER>
2.59286

>  <SCORE.INTER.CONST>
1

>  <SCORE.INTER.POLAR>
0

>  <SCORE.INTER.ROT>
9

>  <SCORE.INTER.SOLV>
10.9693

>  <SCORE.INTER.VDW>
-11.5278

>  <SCORE.INTER.norm>
0.199451

>  <SCORE.INTRA>
-13.7639

>  <SCORE.INTRA.DIHEDRAL>
-24.0262

>  <SCORE.INTRA.DIHEDRAL.0>
25.6828

>  <SCORE.INTRA.POLAR>
0

>  <SCORE.INTRA.POLAR.0>
0

>  <SCORE.INTRA.REPUL>
0

>  <SCORE.INTRA.REPUL.0>
0

>  <SCORE.INTRA.SOLV>
-1.16075

>  <SCORE.INTRA.SOLV.lig_0>
-48.5059

>  <SCORE.INTRA.VDW>
-1.17042

>  <SCORE.INTRA.VDW.0>
-0.363643

>  <SCORE.INTRA.norm>
-1.05876

>  <SCORE.RESTR>
0

>  <SCORE.RESTR.CAVITY>
0

>  <SCORE.RESTR.norm>
0

>  <SCORE.SYSTEM>
0

>  <SCORE.SYSTEM.CONST>
0

>  <SCORE.SYSTEM.DIHEDRAL>
0

>  <SCORE.SYSTEM.SOLV>
0

>  <SCORE.SYSTEM.norm>
0

>  <SCORE.heavy>
13

>  <SCORE.norm>
-0.859308

>  <RMSD>
12.827

$$$$
ligand
 OpenBabel11021811453D
libRbt.so/2013.1/901 2013/11/27
 13 12  0  0  0  0  0  0  0  0999 V2000
   21.3806   29.3723   50.3807 O   0  0  0  0  0  0  0  0  0  0  0  0
   22.8014   31.6076   48.9984 O   0  0  0  0  0  0  0  0  0  0  0  0
   18.9792   24.9167   50.4751 P   0  0  2  0  0  0  0  0  0  0  0  0
   18.9079   23.8034   51.4656 O   0  5  0  0  0  0  0  0  0  0  0  0
   19.3065   24.6100   49.0589 O   0  0  0  0  0  0  0  0  0  0  0  0
   20.0345   25.9868   50.9834 O   0  0  0  0  0  0  0  0  0  0  0  0
   21.7690   34.7968   47.5082 O   0  0  0  0  0  0  0  0  0  0  0  0
   20.1985   27.2422   50.3081 C   0  0  0  0  0  0  0  0  0  0  0  0
   22.3143   31.6719   50.3633 C   0  0  0  0  0  0  0  0  0  0  0  0
   21.5728   33.5157   48.0894 C   0  0  0  0  0  0  0  0  0  0  0  0
   21.2445   28.0994   51.0408 C   0  0  0  0  0  0  0  0  0  0  0  0
   22.3083   30.2789   51.0394 C   0  0  0  0  0  0  0  0  0  0  0  0
   22.9560   32.9110   48.3894 C   0  0  0  0  0  0  0  0  0  0  0  0
  1 12  1  0  0  0  0
  1 11  1  0  0  0  0
  2 13  1  0  0  0  0
  2  9  1  0  0  0  0
  3  4  1  1  0  0  0
  3  5  2  0  0  0  0
  3  6  1  0  0  0  0
  6  8  1  0  0  0  0
  7 10  1  0  0  0  0
  8 11  1  0  0  0  0
  9 12  1  0  0  0  0
 10 13  1  0  0  0  0
M  CHG  1   4  -1
M  END
>  <CHROM.1>
-174.72096699,-71.87689073,-172.71964885,177.94517503,-178.48854792,-173.67686254
-64.23670400,179.35044173,177.38810643,20.87236673,28.75696200,49.89695968
-1.00186186,0.90633608,2.44072948

>  <Name>
ligand

>  <RI>
0

>  <Rbt.Current_Directory>
/home/itssahil/PROJECTS/Mol_Feturizer/New_Systems/rnas/2NPY

>  <Rbt.Executable>
rbdock ($Id: //depot/dev/client3/rdock/2013.1/src/exe/rbdock.cxx#4 $)

>  <Rbt.Library>
libRbt.so (2013.1, Build901 2013/11/27)

>  <Rbt.Parameter_File>
/export/apps/rDock/src/rDock_2013.1_src/data/scripts/dock_solv.prm

>  <Rbt.Receptor>
prm/blind_docking_80.prm

>  <SCORE>
-14.1834

>  <SCORE.INTER>
-1.2731

>  <SCORE.INTER.CONST>
1

>  <SCORE.INTER.POLAR>
0

>  <SCORE.INTER.ROT>
9

>  <SCORE.INTER.SOLV>
13.6224

>  <SCORE.INTER.VDW>
-14.9896

>  <SCORE.INTER.norm>
-0.0979311

>  <SCORE.INTRA>
-12.9103

>  <SCORE.INTRA.DIHEDRAL>
-24.5104

>  <SCORE.INTRA.DIHEDRAL.0>
25.6828

>  <SCORE.INTRA.POLAR>
0

>  <SCORE.INTRA.POLAR.0>
0

>  <SCORE.INTRA.REPUL>
0

>  <SCORE.INTRA.REPUL.0>
0

>  <SCORE.INTRA.SOLV>
-1.35381

>  <SCORE.INTRA.SOLV.lig_0>
-48.5059

>  <SCORE.INTRA.VDW>
0.0218498

>  <SCORE.INTRA.VDW.0>
-0.363643

>  <SCORE.INTRA.norm>
-0.993098

>  <SCORE.RESTR>
0

>  <SCORE.RESTR.CAVITY>
0

>  <SCORE.RESTR.norm>
0

>  <SCORE.SYSTEM>
0

>  <SCORE.SYSTEM.CONST>
0

>  <SCORE.SYSTEM.DIHEDRAL>
0

>  <SCORE.SYSTEM.SOLV>
0

>  <SCORE.SYSTEM.norm>
0

>  <SCORE.heavy>
13

>  <SCORE.norm>
-1.09103

>  <RMSD>
12.836

$$$$
ligand
 OpenBabel11021811453D
libRbt.so/2013.1/901 2013/11/27
 13 12  0  0  0  0  0  0  0  0999 V2000
   21.2558   29.2482   50.6179 O   0  0  0  0  0  0  0  0  0  0  0  0
   22.2547   31.5664   49.0794 O   0  0  0  0  0  0  0  0  0  0  0  0
   18.9788   24.7317   50.4975 P   0  0  2  0  0  0  0  0  0  0  0  0
   19.1709   23.4529   51.2412 O   0  5  0  0  0  0  0  0  0  0  0  0
   18.9565   24.7127   49.0123 O   0  0  0  0  0  0  0  0  0  0  0  0
   20.1071   25.7555   50.9405 O   0  0  0  0  0  0  0  0  0  0  0  0
   23.4085   34.9523   48.2658 O   0  0  0  0  0  0  0  0  0  0  0  0
   20.0287   27.1428   50.5823 C   0  0  0  0  0  0  0  0  0  0  0  0
   22.3169   31.4901   50.5267 C   0  0  0  0  0  0  0  0  0  0  0  0
   23.5235   33.6353   48.7853 C   0  0  0  0  0  0  0  0  0  0  0  0
   21.2786   27.8856   51.0840 C   0  0  0  0  0  0  0  0  0  0  0  0
   22.4161   30.0267   51.0231 C   0  0  0  0  0  0  0  0  0  0  0  0
   22.1732   32.9242   48.5860 C   0  0  0  0  0  0  0  0  0  0  0  0
  1 12  1  0  0  0  0
  1 11  1  0  0  0  0
  2 13  1  0  0  0  0
  2  9  1  0  0  0  0
  3  4  1  6  0  0  0
  3  5  2  0  0  0  0
  3  6  1  0  0  0  0
  6  8  1  0  0  0  0
  7 10  1  0  0  0  0
  8 11  1  0  0  0  0
  9 12  1  0  0  0  0
 10 13  1  0  0  0  0
M  CHG  1   4  -1
M  END
>  <CHROM.1>
-178.44611371,71.41378388,-168.21350392,-177.42664794,174.76005011,-179.49625068
-60.91914315,178.88107534,-178.89948518,21.02047651,28.65194899,50.04813395
-0.78071159,0.99227669,2.26213726

>  <Name>
ligand

>  <RI>
0

>  <Rbt.Current_Directory>
/home/itssahil/PROJECTS/Mol_Feturizer/New_Systems/rnas/2NPY

>  <Rbt.Executable>
rbdock ($Id: //depot/dev/client3/rdock/2013.1/src/exe/rbdock.cxx#4 $)

>  <Rbt.Library>
libRbt.so (2013.1, Build901 2013/11/27)

>  <Rbt.Parameter_File>
/export/apps/rDock/src/rDock_2013.1_src/data/scripts/dock_solv.prm

>  <Rbt.Receptor>
prm/blind_docking_80.prm

>  <SCORE>
-14.8046

>  <SCORE.INTER>
-1.73847

>  <SCORE.INTER.CONST>
1

>  <SCORE.INTER.POLAR>
0

>  <SCORE.INTER.ROT>
9

>  <SCORE.INTER.SOLV>
15.5986

>  <SCORE.INTER.VDW>
-15.9585

>  <SCORE.INTER.norm>
-0.133729

>  <SCORE.INTRA>
-13.0662

>  <SCORE.INTRA.DIHEDRAL>
-24.8211

>  <SCORE.INTRA.DIHEDRAL.0>
25.6828

>  <SCORE.INTRA.POLAR>
0

>  <SCORE.INTRA.POLAR.0>
0

>  <SCORE.INTRA.REPUL>
0

>  <SCORE.INTRA.REPUL.0>
0

>  <SCORE.INTRA.SOLV>
-1.35226

>  <SCORE.INTRA.SOLV.lig_0>
-48.5059

>  <SCORE.INTRA.VDW>
0.0205239

>  <SCORE.INTRA.VDW.0>
-0.363643

>  <SCORE.INTRA.norm>
-1.00509

>  <SCORE.RESTR>
0

>  <SCORE.RESTR.CAVITY>
0

>  <SCORE.RESTR.norm>
0

>  <SCORE.SYSTEM>
0

>  <SCORE.SYSTEM.CONST>
0

>  <SCORE.SYSTEM.DIHEDRAL>
0

>  <SCORE.SYSTEM.SOLV>
0

>  <SCORE.SYSTEM.norm>
0

>  <SCORE.heavy>
13

>  <SCORE.norm>
-1.13882

>  <RMSD>
12.839

$$$$
ligand
 OpenBabel11021811453D
libRbt.so/2013.1/901 2013/11/27
 13 12  0  0  0  0  0  0  0  0999 V2000
   22.7867   29.0913   50.2517 O   0  0  0  0  0  0  0  0  0  0  0  0
   20.6249   27.0727   49.3966 O   0  0  0  0  0  0  0  0  0  0  0  0
   24.7637   28.6662   53.7256 P   0  0  2  0  0  0  0  0  0  0  0  0
   25.7047   29.6571   54.3240 O   0  5  0  0  0  0  0  0  0  0  0  0
   24.7835   27.2613   54.2083 O   0  0  0  0  0  0  0  0  0  0  0  0
   24.9892   28.6301   52.1555 O   0  0  0  0  0  0  0  0  0  0  0  0
   19.1297   23.9101   48.2920 O   0  0  0  0  0  0  0  0  0  0  0  0
   24.8342   29.8134   51.3589 C   0  0  0  0  0  0  0  0  0  0  0  0
   20.9424   28.3415   48.7694 C   0  0  0  0  0  0  0  0  0  0  0  0
   19.6581   24.8332   49.2333 C   0  0  0  0  0  0  0  0  0  0  0  0
   23.3406   30.0953   51.1232 C   0  0  0  0  0  0  0  0  0  0  0  0
   21.4356   29.3866   49.8002 C   0  0  0  0  0  0  0  0  0  0  0  0
   20.0678   26.1075   48.4737 C   0  0  0  0  0  0  0  0  0  0  0  0
  1 12  1  0  0  0  0
  1 11  1  0  0  0  0
  2 13  1  0  0  0  0
  2  9  1  0  0  0  0
  3  4  1  1  0  0  0
  3  5  2  0  0  0  0
  3  6  1  0  0  0  0
  6  8  1  0  0  0  0
  7 10  1  0  0  0  0
  8 11  1  0  0  0  0
  9 12  1  0  0  0  0
 10 13  1  0  0  0  0
M  CHG  1   4  -1
M  END
>  <CHROM.1>
174.86490033,-175.62499517,-58.56440265,-78.08930348,-69.28287397,175.70360342
73.56227132,-179.45932170,-170.83788117,22.74718172,27.95593354,51.11794645
3.05678865,0.83260954,2.64904463

>  <Name>
ligand

>  <RI>
0

>  <Rbt.Current_Directory>
/home/itssahil/PROJECTS/Mol_Feturizer/New_Systems/rnas/2NPY

>  <Rbt.Executable>
rbdock ($Id: //depot/dev/client3/rdock/2013.1/src/exe/rbdock.cxx#4 $)

>  <Rbt.Library>
libRbt.so (2013.1, Build901 2013/11/27)

>  <Rbt.Parameter_File>
/export/apps/rDock/src/rDock_2013.1_src/data/scripts/dock_solv.prm

>  <Rbt.Receptor>
prm/blind_docking_80.prm

>  <SCORE>
-9.50075

>  <SCORE.INTER>
2.74366

>  <SCORE.INTER.CONST>
1

>  <SCORE.INTER.POLAR>
0

>  <SCORE.INTER.ROT>
9

>  <SCORE.INTER.SOLV>
7.62166

>  <SCORE.INTER.VDW>
-10.3114

>  <SCORE.INTER.norm>
0.211051

>  <SCORE.INTRA>
-12.2444

>  <SCORE.INTRA.DIHEDRAL>
-22.4326

>  <SCORE.INTRA.DIHEDRAL.0>
25.6828

>  <SCORE.INTRA.POLAR>
0

>  <SCORE.INTRA.POLAR.0>
0

>  <SCORE.INTRA.REPUL>
0

>  <SCORE.INTRA.REPUL.0>
0

>  <SCORE.INTRA.SOLV>
-0.11717

>  <SCORE.INTRA.SOLV.lig_0>
-48.5059

>  <SCORE.INTRA.VDW>
-0.969531

>  <SCORE.INTRA.VDW.0>
-0.363643

>  <SCORE.INTRA.norm>
-0.941878

>  <SCORE.RESTR>
0

>  <SCORE.RESTR.CAVITY>
0

>  <SCORE.RESTR.norm>
0

>  <SCORE.SYSTEM>
0

>  <SCORE.SYSTEM.CONST>
0

>  <SCORE.SYSTEM.DIHEDRAL>
0

>  <SCORE.SYSTEM.SOLV>
0

>  <SCORE.SYSTEM.norm>
0

>  <SCORE.heavy>
13

>  <SCORE.norm>
-0.730827

>  <RMSD>
12.848

$$$$
ligand
 OpenBabel11021811453D
libRbt.so/2013.1/901 2013/11/27
 13 12  0  0  0  0  0  0  0  0999 V2000
   21.2119   29.0652   50.2959 O   0  0  0  0  0  0  0  0  0  0  0  0
   20.2089   26.5143   49.3732 O   0  0  0  0  0  0  0  0  0  0  0  0
   23.3299   32.4531   48.2959 P   0  0  2  0  0  0  0  0  0  0  0  0
   22.0756   33.1408   47.8726 O   0  5  0  0  0  0  0  0  0  0  0  0
   24.3181   32.0439   47.2649 O   0  0  0  0  0  0  0  0  0  0  0  0
   22.9471   31.1560   49.1255 O   0  0  0  0  0  0  0  0  0  0  0  0
   19.5657   24.1106   50.6388 O   0  0  0  0  0  0  0  0  0  0  0  0
   22.2717   31.2580   50.3873 C   0  0  0  0  0  0  0  0  0  0  0  0
   20.7577   27.4804   48.4405 C   0  0  0  0  0  0  0  0  0  0  0  0
   18.5897   24.7379   49.8195 C   0  0  0  0  0  0  0  0  0  0  0  0
   22.1541   29.8670   51.0333 C   0  0  0  0  0  0  0  0  0  0  0  0
   21.7809   28.4221   49.1216 C   0  0  0  0  0  0  0  0  0  0  0  0
   19.3248   25.5573   48.7438 C   0  0  0  0  0  0  0  0  0  0  0  0
  1 12  1  0  0  0  0
  1 11  1  0  0  0  0
  2 13  1  0  0  0  0
  2  9  1  0  0  0  0
  3  4  1  6  0  0  0
  3  5  2  0  0  0  0
  3  6  1  0  0  0  0
  6  8  1  0  0  0  0
  7 10  1  0  0  0  0
  8 11  1  0  0  0  0
  9 12  1  0  0  0  0
 10 13  1  0  0  0  0
M  CHG  1   4  -1
M  END
>  <CHROM.1>
175.11046734,-169.72909870,-64.82402580,-174.28327105,-70.35660554,-175.66659596
-53.93328358,-57.22084587,82.94116396,21.59523747,29.21685220,49.17555114
-3.01650731,-1.09292398,-1.62443454

>  <Name>
ligand

>  <RI>
0

>  <Rbt.Current_Directory>
/home/itssahil/PROJECTS/Mol_Feturizer/New_Systems/rnas/2NPY

>  <Rbt.Executable>
rbdock ($Id: //depot/dev/client3/rdock/2013.1/src/exe/rbdock.cxx#4 $)

>  <Rbt.Library>
libRbt.so (2013.1, Build901 2013/11/27)

>  <Rbt.Parameter_File>
/export/apps/rDock/src/rDock_2013.1_src/data/scripts/dock_solv.prm

>  <Rbt.Receptor>
prm/blind_docking_100.prm

>  <SCORE>
-12.033

>  <SCORE.INTER>
0.0198799

>  <SCORE.INTER.CONST>
1

>  <SCORE.INTER.POLAR>
0

>  <SCORE.INTER.ROT>
9

>  <SCORE.INTER.SOLV>
6.96203

>  <SCORE.INTER.VDW>
-11.9074

>  <SCORE.INTER.norm>
0.00152922

>  <SCORE.INTRA>
-12.0615

>  <SCORE.INTRA.DIHEDRAL>
-21.8092

>  <SCORE.INTRA.DIHEDRAL.0>
25.6828

>  <SCORE.INTRA.POLAR>
0

>  <SCORE.INTRA.POLAR.0>
0

>  <SCORE.INTRA.REPUL>
0

>  <SCORE.INTRA.REPUL.0>
0

>  <SCORE.INTRA.SOLV>
-0.824352

>  <SCORE.INTRA.SOLV.lig_0>
-48.5059

>  <SCORE.INTRA.VDW>
-0.744675

>  <SCORE.INTRA.VDW.0>
-0.363643

>  <SCORE.INTRA.norm>
-0.927806

>  <SCORE.RESTR>
0.00860961

>  <SCORE.RESTR.CAVITY>
0.00860961

>  <SCORE.RESTR.norm>
0.000662278

>  <SCORE.SYSTEM>
0

>  <SCORE.SYSTEM.CONST>
0

>  <SCORE.SYSTEM.DIHEDRAL>
0

>  <SCORE.SYSTEM.SOLV>
0

>  <SCORE.SYSTEM.norm>
0

>  <SCORE.heavy>
13

>  <SCORE.norm>
-0.925614

>  <RMSD>
12.901

$$$$
ligand
 OpenBabel11021811453D
libRbt.so/2013.1/901 2013/11/27
 13 12  0  0  0  0  0  0  0  0999 V2000
   22.0187   29.2747   49.5676 O   0  0  0  0  0  0  0  0  0  0  0  0
   20.2277   26.9248   48.7820 O   0  0  0  0  0  0  0  0  0  0  0  0
   24.6839   29.4568   52.7795 P   0  0  2  0  0  0  0  0  0  0  0  0
   26.0862   29.9520   52.6621 O   0  5  0  0  0  0  0  0  0  0  0  0
   24.4425   28.0311   53.1201 O   0  0  0  0  0  0  0  0  0  0  0  0
   23.9209   29.7542   51.4206 O   0  0  0  0  0  0  0  0  0  0  0  0
   18.6805   23.5986   48.7969 O   0  0  0  0  0  0  0  0  0  0  0  0
   22.8381   30.6945   51.3711 C   0  0  0  0  0  0  0  0  0  0  0  0
   21.1591   27.6286   47.9208 C   0  0  0  0  0  0  0  0  0  0  0  0
   18.9012   24.9258   49.2521 C   0  0  0  0  0  0  0  0  0  0  0  0
   22.1621   30.6440   49.9904 C   0  0  0  0  0  0  0  0  0  0  0  0
   21.2948   29.1199   48.3153 C   0  0  0  0  0  0  0  0  0  0  0  0
   19.9704   25.5680   48.3503 C   0  0  0  0  0  0  0  0  0  0  0  0
  1 12  1  0  0  0  0
  1 11  1  0  0  0  0
  2 13  1  0  0  0  0
  2  9  1  0  0  0  0
  3  4  1  6  0  0  0
  3  5  2  0  0  0  0
  3  6  1  0  0  0  0
  6  8  1  0  0  0  0
  7 10  1  0  0  0  0
  8 11  1  0  0  0  0
  9 12  1  0  0  0  0
 10 13  1  0  0  0  0
M  CHG  1   4  -1
M  END
>  <CHROM.1>
-179.37698973,-175.94983681,-113.45620880,-172.25594577,42.40137452,173.72426382
71.37348809,-179.91340548,175.52327321,22.27261815,28.21710546,50.41846586
0.27389200,-0.80119142,-0.47487929

>  <Name>
ligand

>  <RI>
0

>  <Rbt.Current_Directory>
/home/itssahil/PROJECTS/Mol_Feturizer/New_Systems/rnas/2NPY

>  <Rbt.Executable>
rbdock ($Id: //depot/dev/client3/rdock/2013.1/src/exe/rbdock.cxx#4 $)

>  <Rbt.Library>
libRbt.so (2013.1, Build901 2013/11/27)

>  <Rbt.Parameter_File>
/export/apps/rDock/src/rDock_2013.1_src/data/scripts/dock_solv.prm

>  <Rbt.Receptor>
prm/blind_docking_80.prm

>  <SCORE>
-11.7924

>  <SCORE.INTER>
0.901126

>  <SCORE.INTER.CONST>
1

>  <SCORE.INTER.POLAR>
0

>  <SCORE.INTER.ROT>
9

>  <SCORE.INTER.SOLV>
11.3279

>  <SCORE.INTER.VDW>
-12.7752

>  <SCORE.INTER.norm>
0.0693173

>  <SCORE.INTRA>
-12.6935

>  <SCORE.INTRA.DIHEDRAL>
-21.8824

>  <SCORE.INTRA.DIHEDRAL.0>
25.6828

>  <SCORE.INTRA.POLAR>
0

>  <SCORE.INTRA.POLAR.0>
0

>  <SCORE.INTRA.REPUL>
0

>  <SCORE.INTRA.REPUL.0>
0

>  <SCORE.INTRA.SOLV>
-1.39493

>  <SCORE.INTRA.SOLV.lig_0>
-48.5059

>  <SCORE.INTRA.VDW>
-1.05489

>  <SCORE.INTRA.VDW.0>
-0.363643

>  <SCORE.INTRA.norm>
-0.976426

>  <SCORE.RESTR>
0

>  <SCORE.RESTR.CAVITY>
0

>  <SCORE.RESTR.norm>
0

>  <SCORE.SYSTEM>
0

>  <SCORE.SYSTEM.CONST>
0

>  <SCORE.SYSTEM.DIHEDRAL>
0

>  <SCORE.SYSTEM.SOLV>
0

>  <SCORE.SYSTEM.norm>
0

>  <SCORE.heavy>
13

>  <SCORE.norm>
-0.907109

>  <RMSD>
12.924

$$$$
ligand
 OpenBabel11021811453D
libRbt.so/2013.1/901 2013/11/27
 13 12  0  0  0  0  0  0  0  0999 V2000
   20.8996   29.1880   50.3895 O   0  0  0  0  0  0  0  0  0  0  0  0
   21.9539   31.9305   50.3570 O   0  0  0  0  0  0  0  0  0  0  0  0
   19.1143   25.0506   50.4304 P   0  0  2  0  0  0  0  0  0  0  0  0
   18.9165   23.6541   50.9161 O   0  5  0  0  0  0  0  0  0  0  0  0
   18.9556   25.3464   48.9832 O   0  0  0  0  0  0  0  0  0  0  0  0
   20.5618   25.5405   50.8573 O   0  0  0  0  0  0  0  0  0  0  0  0
   22.9109   33.5479   47.2075 O   0  0  0  0  0  0  0  0  0  0  0  0
   20.7993   26.9043   51.2348 C   0  0  0  0  0  0  0  0  0  0  0  0
   22.5131   30.8909   51.2001 C   0  0  0  0  0  0  0  0  0  0  0  0
   22.1571   33.3813   48.3998 C   0  0  0  0  0  0  0  0  0  0  0  0
   20.6388   27.8229   50.0116 C   0  0  0  0  0  0  0  0  0  0  0  0
   22.3102   29.4824   50.5897 C   0  0  0  0  0  0  0  0  0  0  0  0
   22.7459   32.1884   49.1739 C   0  0  0  0  0  0  0  0  0  0  0  0
  1 12  1  0  0  0  0
  1 11  1  0  0  0  0
  2 13  1  0  0  0  0
  2  9  1  0  0  0  0
  3  4  1  6  0  0  0
  3  5  2  0  0  0  0
  3  6  1  0  0  0  0
  6  8  1  0  0  0  0
  7 10  1  0  0  0  0
  8 11  1  0  0  0  0
  9 12  1  0  0  0  0
 10 13  1  0  0  0  0
M  CHG  1   4  -1
M  END
>  <CHROM.1>
-171.29109674,-175.05925148,-144.43714841,-68.09425345,-179.05530828,-74.06053542
-59.01782025,-176.43569462,74.75747137,20.92993261,28.50057277,50.00594920
-0.78339795,1.01368231,2.24315894

>  <Name>
ligand

>  <RI>
0

>  <Rbt.Current_Directory>
/home/itssahil/PROJECTS/Mol_Feturizer/New_Systems/rnas/2NPY

>  <Rbt.Executable>
rbdock ($Id: //depot/dev/client3/rdock/2013.1/src/exe/rbdock.cxx#4 $)

>  <Rbt.Library>
libRbt.so (2013.1, Build901 2013/11/27)

>  <Rbt.Parameter_File>
/export/apps/rDock/src/rDock_2013.1_src/data/scripts/dock_solv.prm

>  <Rbt.Receptor>
prm/blind_docking_100.prm

>  <SCORE>
-11.6117

>  <SCORE.INTER>
-1.05409

>  <SCORE.INTER.CONST>
1

>  <SCORE.INTER.POLAR>
0

>  <SCORE.INTER.ROT>
9

>  <SCORE.INTER.SOLV>
13.4212

>  <SCORE.INTER.VDW>
-14.7765

>  <SCORE.INTER.norm>
-0.0810842

>  <SCORE.INTRA>
-10.5576

>  <SCORE.INTRA.DIHEDRAL>
-22.0523

>  <SCORE.INTRA.DIHEDRAL.0>
25.6828

>  <SCORE.INTRA.POLAR>
0

>  <SCORE.INTRA.POLAR.0>
0

>  <SCORE.INTRA.REPUL>
0

>  <SCORE.INTRA.REPUL.0>
0

>  <SCORE.INTRA.SOLV>
-0.0552588

>  <SCORE.INTRA.SOLV.lig_0>
-48.5059

>  <SCORE.INTRA.VDW>
0.496149

>  <SCORE.INTRA.VDW.0>
-0.363643

>  <SCORE.INTRA.norm>
-0.812125

>  <SCORE.RESTR>
0

>  <SCORE.RESTR.CAVITY>
0

>  <SCORE.RESTR.norm>
0

>  <SCORE.SYSTEM>
0

>  <SCORE.SYSTEM.CONST>
0

>  <SCORE.SYSTEM.DIHEDRAL>
0

>  <SCORE.SYSTEM.SOLV>
0

>  <SCORE.SYSTEM.norm>
0

>  <SCORE.heavy>
13

>  <SCORE.norm>
-0.89321

>  <RMSD>
12.927

$$$$
ligand
 OpenBabel11021811453D
libRbt.so/2013.1/901 2013/11/27
 13 12  0  0  0  0  0  0  0  0999 V2000
   21.4382   29.0788   50.2751 O   0  0  0  0  0  0  0  0  0  0  0  0
   21.9103   31.9831   49.4621 O   0  0  0  0  0  0  0  0  0  0  0  0
   18.7399   24.7976   50.1929 P   0  0  2  0  0  0  0  0  0  0  0  0
   19.7991   23.7515   50.2884 O   0  5  0  0  0  0  0  0  0  0  0  0
   18.1796   25.1455   48.8618 O   0  0  0  0  0  0  0  0  0  0  0  0
   19.2856   26.1388   50.8415 O   0  0  0  0  0  0  0  0  0  0  0  0
   22.2378   34.8829   47.2392 O   0  0  0  0  0  0  0  0  0  0  0  0
   20.2223   26.9707   50.1419 C   0  0  0  0  0  0  0  0  0  0  0  0
   22.8271   31.1344   50.1992 C   0  0  0  0  0  0  0  0  0  0  0  0
   21.5430   33.8659   47.9466 C   0  0  0  0  0  0  0  0  0  0  0  0
   20.6580   28.1406   51.0404 C   0  0  0  0  0  0  0  0  0  0  0  0
   22.0778   30.1064   51.0822 C   0  0  0  0  0  0  0  0  0  0  0  0
   22.5797   33.0209   48.7082 C   0  0  0  0  0  0  0  0  0  0  0  0
  1 12  1  0  0  0  0
  1 11  1  0  0  0  0
  2 13  1  0  0  0  0
  2  9  1  0  0  0  0
  3  4  1  6  0  0  0
  3  5  2  0  0  0  0
  3  6  1  0  0  0  0
  6  8  1  0  0  0  0
  7 10  1  0  0  0  0
  8 11  1  0  0  0  0
  9 12  1  0  0  0  0
 10 13  1  0  0  0  0
M  CHG  1   4  -1
M  END
>  <CHROM.1>
-176.43692516,179.44893171,76.32044319,-175.78117133,-171.50987627,175.49978827
70.91557503,179.07690680,-170.55442875,20.68940001,28.76849538,49.73997778
-1.03152626,0.82703171,2.54052266

>  <Name>
ligand

>  <RI>
0

>  <Rbt.Current_Directory>
/home/itssahil/PROJECTS/Mol_Feturizer/New_Systems/rnas/2NPY

>  <Rbt.Executable>
rbdock ($Id: //depot/dev/client3/rdock/2013.1/src/exe/rbdock.cxx#4 $)

>  <Rbt.Library>
libRbt.so (2013.1, Build901 2013/11/27)

>  <Rbt.Parameter_File>
/export/apps/rDock/src/rDock_2013.1_src/data/scripts/dock_solv.prm

>  <Rbt.Receptor>
prm/blind_docking_80.prm

>  <SCORE>
-15.0453

>  <SCORE.INTER>
-1.62543

>  <SCORE.INTER.CONST>
1

>  <SCORE.INTER.POLAR>
0

>  <SCORE.INTER.ROT>
9

>  <SCORE.INTER.SOLV>
15.9114

>  <SCORE.INTER.VDW>
-15.9874

>  <SCORE.INTER.norm>
-0.125033

>  <SCORE.INTRA>
-13.4199

>  <SCORE.INTRA.DIHEDRAL>
-24.1339

>  <SCORE.INTRA.DIHEDRAL.0>
25.6828

>  <SCORE.INTRA.POLAR>
0

>  <SCORE.INTRA.POLAR.0>
0

>  <SCORE.INTRA.REPUL>
0

>  <SCORE.INTRA.REPUL.0>
0

>  <SCORE.INTRA.SOLV>
-1.0127

>  <SCORE.INTRA.SOLV.lig_0>
-48.5059

>  <SCORE.INTRA.VDW>
-0.846603

>  <SCORE.INTRA.VDW.0>
-0.363643

>  <SCORE.INTRA.norm>
-1.0323

>  <SCORE.RESTR>
0

>  <SCORE.RESTR.CAVITY>
0

>  <SCORE.RESTR.norm>
0

>  <SCORE.SYSTEM>
0

>  <SCORE.SYSTEM.CONST>
0

>  <SCORE.SYSTEM.DIHEDRAL>
0

>  <SCORE.SYSTEM.SOLV>
0

>  <SCORE.SYSTEM.norm>
0

>  <SCORE.heavy>
13

>  <SCORE.norm>
-1.15733

>  <RMSD>
12.929

$$$$
ligand
 OpenBabel11021811453D
libRbt.so/2013.1/901 2013/11/27
 13 12  0  0  0  0  0  0  0  0999 V2000
   21.4935   29.5958   50.2902 O   0  0  0  0  0  0  0  0  0  0  0  0
   20.2810   26.8523   50.1604 O   0  0  0  0  0  0  0  0  0  0  0  0
   23.0503   33.9342   48.1960 P   0  0  2  0  0  0  0  0  0  0  0  0
   21.8156   34.7244   48.4729 O   0  5  0  0  0  0  0  0  0  0  0  0
   23.2623   33.3687   46.8388 O   0  0  0  0  0  0  0  0  0  0  0  0
   23.1297   32.7312   49.2274 O   0  0  0  0  0  0  0  0  0  0  0  0
   20.2549   24.4977   48.5835 O   0  0  0  0  0  0  0  0  0  0  0  0
   22.1343   31.6977   49.2360 C   0  0  0  0  0  0  0  0  0  0  0  0
   20.5387   27.5839   51.3862 C   0  0  0  0  0  0  0  0  0  0  0  0
   19.0367   25.1192   48.9669 C   0  0  0  0  0  0  0  0  0  0  0  0
   22.5066   30.6194   50.2677 C   0  0  0  0  0  0  0  0  0  0  0  0
   21.7554   28.5317   51.2470 C   0  0  0  0  0  0  0  0  0  0  0  0
   19.2669   25.8315   50.3117 C   0  0  0  0  0  0  0  0  0  0  0  0
  1 12  1  0  0  0  0
  1 11  1  0  0  0  0
  2 13  1  0  0  0  0
  2  9  1  0  0  0  0
  3  4  1  6  0  0  0
  3  5  2  0  0  0  0
  3  6  1  0  0  0  0
  6  8  1  0  0  0  0
  7 10  1  0  0  0  0
  8 11  1  0  0  0  0
  9 12  1  0  0  0  0
 10 13  1  0  0  0  0
M  CHG  1   4  -1
M  END
>  <CHROM.1>
171.13797090,179.08904566,63.66747551,176.32831851,179.00084120,172.22601573
65.75134264,61.54033575,-179.61803462,21.57127909,30.00597137,49.34237296
-2.81974413,-1.20525120,-1.42355789

>  <Name>
ligand

>  <RI>
0

>  <Rbt.Current_Directory>
/home/itssahil/PROJECTS/Mol_Feturizer/New_Systems/rnas/2NPY

>  <Rbt.Executable>
rbdock ($Id: //depot/dev/client3/rdock/2013.1/src/exe/rbdock.cxx#4 $)

>  <Rbt.Library>
libRbt.so (2013.1, Build901 2013/11/27)

>  <Rbt.Parameter_File>
/export/apps/rDock/src/rDock_2013.1_src/data/scripts/dock_solv.prm

>  <Rbt.Receptor>
prm/blind_docking_100.prm

>  <SCORE>
-14.5975

>  <SCORE.INTER>
-0.879155

>  <SCORE.INTER.CONST>
1

>  <SCORE.INTER.POLAR>
0

>  <SCORE.INTER.ROT>
9

>  <SCORE.INTER.SOLV>
13.8398

>  <SCORE.INTER.VDW>
-14.7994

>  <SCORE.INTER.norm>
-0.0676273

>  <SCORE.INTRA>
-13.7184

>  <SCORE.INTRA.DIHEDRAL>
-24.7681

>  <SCORE.INTRA.DIHEDRAL.0>
25.6828

>  <SCORE.INTRA.POLAR>
0

>  <SCORE.INTRA.POLAR.0>
0

>  <SCORE.INTRA.REPUL>
0

>  <SCORE.INTRA.REPUL.0>
0

>  <SCORE.INTRA.SOLV>
-0.75093

>  <SCORE.INTRA.SOLV.lig_0>
-48.5059

>  <SCORE.INTRA.VDW>
-0.958868

>  <SCORE.INTRA.VDW.0>
-0.363643

>  <SCORE.INTRA.norm>
-1.05526

>  <SCORE.RESTR>
0

>  <SCORE.RESTR.CAVITY>
0

>  <SCORE.RESTR.norm>
0

>  <SCORE.SYSTEM>
0

>  <SCORE.SYSTEM.CONST>
0

>  <SCORE.SYSTEM.DIHEDRAL>
0

>  <SCORE.SYSTEM.SOLV>
0

>  <SCORE.SYSTEM.norm>
0

>  <SCORE.heavy>
13

>  <SCORE.norm>
-1.12289

>  <RMSD>
12.943

$$$$
ligand
 OpenBabel11021811453D
libRbt.so/2013.1/901 2013/11/27
 13 12  0  0  0  0  0  0  0  0999 V2000
   21.8364   28.5988   50.5414 O   0  0  0  0  0  0  0  0  0  0  0  0
   23.9178   30.4705   49.3738 O   0  0  0  0  0  0  0  0  0  0  0  0
   18.5739   24.7302   50.4533 P   0  0  2  0  0  0  0  0  0  0  0  0
   19.2252   23.8707   51.4841 O   0  5  0  0  0  0  0  0  0  0  0  0
   18.7981   24.4363   49.0145 O   0  0  0  0  0  0  0  0  0  0  0  0
   19.0013   26.2381   50.7003 O   0  0  0  0  0  0  0  0  0  0  0  0
   24.7128   32.0530   47.1662 O   0  0  0  0  0  0  0  0  0  0  0  0
   20.3278   26.6904   50.3926 C   0  0  0  0  0  0  0  0  0  0  0  0
   23.6058   30.3226   50.7827 C   0  0  0  0  0  0  0  0  0  0  0  0
   25.5415   30.9935   47.6225 C   0  0  0  0  0  0  0  0  0  0  0  0
   20.4924   28.1599   50.8161 C   0  0  0  0  0  0  0  0  0  0  0  0
   22.1205   29.9471   51.0080 C   0  0  0  0  0  0  0  0  0  0  0  0
   25.3018   30.8167   49.1326 C   0  0  0  0  0  0  0  0  0  0  0  0
  1 12  1  0  0  0  0
  1 11  1  0  0  0  0
  2 13  1  0  0  0  0
  2  9  1  0  0  0  0
  3  4  1  1  0  0  0
  3  5  2  0  0  0  0
  3  6  1  0  0  0  0
  6  8  1  0  0  0  0
  7 10  1  0  0  0  0
  8 11  1  0  0  0  0
  9 12  1  0  0  0  0
 10 13  1  0  0  0  0
M  CHG  1   4  -1
M  END
>  <CHROM.1>
175.65475546,-178.42131459,72.80004350,-176.23253316,178.33956323,-179.77811896
68.90142114,61.14880572,-175.31289705,21.51381771,27.93683253,49.91987343
0.07809123,0.84521226,1.18465109

>  <Name>
ligand

>  <RI>
0

>  <Rbt.Current_Directory>
/home/itssahil/PROJECTS/Mol_Feturizer/New_Systems/rnas/2NPY

>  <Rbt.Executable>
rbdock ($Id: //depot/dev/client3/rdock/2013.1/src/exe/rbdock.cxx#4 $)

>  <Rbt.Library>
libRbt.so (2013.1, Build901 2013/11/27)

>  <Rbt.Parameter_File>
/export/apps/rDock/src/rDock_2013.1_src/data/scripts/dock_solv.prm

>  <Rbt.Receptor>
prm/blind_docking_80.prm

>  <SCORE>
-12.9646

>  <SCORE.INTER>
0.847444

>  <SCORE.INTER.CONST>
1

>  <SCORE.INTER.POLAR>
0

>  <SCORE.INTER.ROT>
9

>  <SCORE.INTER.SOLV>
13.38

>  <SCORE.INTER.VDW>
-13.495

>  <SCORE.INTER.norm>
0.065188

>  <SCORE.INTRA>
-13.8121

>  <SCORE.INTRA.DIHEDRAL>
-25.0003

>  <SCORE.INTRA.DIHEDRAL.0>
25.6828

>  <SCORE.INTRA.POLAR>
0

>  <SCORE.INTRA.POLAR.0>
0

>  <SCORE.INTRA.REPUL>
0

>  <SCORE.INTRA.REPUL.0>
0

>  <SCORE.INTRA.SOLV>
-0.749673

>  <SCORE.INTRA.SOLV.lig_0>
-48.5059

>  <SCORE.INTRA.VDW>
-0.937044

>  <SCORE.INTRA.VDW.0>
-0.363643

>  <SCORE.INTRA.norm>
-1.06247

>  <SCORE.RESTR>
0

>  <SCORE.RESTR.CAVITY>
0

>  <SCORE.RESTR.norm>
0

>  <SCORE.SYSTEM>
0

>  <SCORE.SYSTEM.CONST>
0

>  <SCORE.SYSTEM.DIHEDRAL>
0

>  <SCORE.SYSTEM.SOLV>
0

>  <SCORE.SYSTEM.norm>
0

>  <SCORE.heavy>
13

>  <SCORE.norm>
-0.997278

>  <RMSD>
12.948

$$$$
ligand
 OpenBabel11021811453D
libRbt.so/2013.1/901 2013/11/27
 13 12  0  0  0  0  0  0  0  0999 V2000
   21.3692   29.3613   50.6786 O   0  0  0  0  0  0  0  0  0  0  0  0
   20.4986   26.5313   49.7702 O   0  0  0  0  0  0  0  0  0  0  0  0
   22.4086   32.8601   48.1934 P   0  0  2  0  0  0  0  0  0  0  0  0
   21.9845   32.5074   46.8074 O   0  5  0  0  0  0  0  0  0  0  0  0
   23.7149   33.5354   48.4043 O   0  0  0  0  0  0  0  0  0  0  0  0
   22.4082   31.5437   49.0790 O   0  0  0  0  0  0  0  0  0  0  0  0
   20.5306   25.6422   47.1180 O   0  0  0  0  0  0  0  0  0  0  0  0
   22.2852   31.6133   50.5070 C   0  0  0  0  0  0  0  0  0  0  0  0
   20.0624   27.2676   50.9414 C   0  0  0  0  0  0  0  0  0  0  0  0
   20.0942   24.7561   48.1387 C   0  0  0  0  0  0  0  0  0  0  0  0
   22.4471   30.2104   51.1165 C   0  0  0  0  0  0  0  0  0  0  0  0
   21.1840   28.1763   51.5019 C   0  0  0  0  0  0  0  0  0  0  0  0
   19.5045   25.5997   49.2830 C   0  0  0  0  0  0  0  0  0  0  0  0
  1 12  1  0  0  0  0
  1 11  1  0  0  0  0
  2 13  1  0  0  0  0
  2  9  1  0  0  0  0
  3  4  1  6  0  0  0
  3  5  2  0  0  0  0
  3  6  1  0  0  0  0
  6  8  1  0  0  0  0
  7 10  1  0  0  0  0
  8 11  1  0  0  0  0
  9 12  1  0  0  0  0
 10 13  1  0  0  0  0
M  CHG  1   4  -1
M  END
>  <CHROM.1>
-177.05744853,-174.02775342,-156.78221779,-174.69425722,-64.38761156,175.69366032
75.39669503,-57.81579173,-161.65579954,21.52002871,29.53075239,49.21680715
-2.97701097,-1.21497140,-1.49258045

>  <Name>
ligand

>  <RI>
0

>  <Rbt.Current_Directory>
/home/itssahil/PROJECTS/Mol_Feturizer/New_Systems/rnas/2NPY

>  <Rbt.Executable>
rbdock ($Id: //depot/dev/client3/rdock/2013.1/src/exe/rbdock.cxx#4 $)

>  <Rbt.Library>
libRbt.so (2013.1, Build901 2013/11/27)

>  <Rbt.Parameter_File>
/export/apps/rDock/src/rDock_2013.1_src/data/scripts/dock_solv.prm

>  <Rbt.Receptor>
prm/blind_docking_80.prm

>  <SCORE>
-13.5583

>  <SCORE.INTER>
-0.667408

>  <SCORE.INTER.CONST>
1

>  <SCORE.INTER.POLAR>
0

>  <SCORE.INTER.ROT>
9

>  <SCORE.INTER.SOLV>
11.1491

>  <SCORE.INTER.VDW>
-13.7613

>  <SCORE.INTER.norm>
-0.0513391

>  <SCORE.INTRA>
-12.8909

>  <SCORE.INTRA.DIHEDRAL>
-22.412

>  <SCORE.INTRA.DIHEDRAL.0>
25.6828

>  <SCORE.INTRA.POLAR>
0

>  <SCORE.INTRA.POLAR.0>
0

>  <SCORE.INTRA.REPUL>
0

>  <SCORE.INTRA.REPUL.0>
0

>  <SCORE.INTRA.SOLV>
-1.17139

>  <SCORE.INTRA.SOLV.lig_0>
-48.5059

>  <SCORE.INTRA.VDW>
-1.09919

>  <SCORE.INTRA.VDW.0>
-0.363643

>  <SCORE.INTRA.norm>
-0.991605

>  <SCORE.RESTR>
0

>  <SCORE.RESTR.CAVITY>
0

>  <SCORE.RESTR.norm>
0

>  <SCORE.SYSTEM>
0

>  <SCORE.SYSTEM.CONST>
0

>  <SCORE.SYSTEM.DIHEDRAL>
0

>  <SCORE.SYSTEM.SOLV>
0

>  <SCORE.SYSTEM.norm>
0

>  <SCORE.heavy>
13

>  <SCORE.norm>
-1.04294

>  <RMSD>
12.957

$$$$
ligand
 OpenBabel11021811453D
libRbt.so/2013.1/901 2013/11/27
 13 12  0  0  0  0  0  0  0  0999 V2000
   22.5839   28.7360   50.1633 O   0  0  0  0  0  0  0  0  0  0  0  0
   20.3366   27.0988   49.1501 O   0  0  0  0  0  0  0  0  0  0  0  0
   25.4171   29.6370   54.2510 P   0  0  2  0  0  0  0  0  0  0  0  0
   26.7609   29.2475   53.7333 O   0  5  0  0  0  0  0  0  0  0  0  0
   24.6450   28.6682   55.0708 O   0  0  0  0  0  0  0  0  0  0  0  0
   24.4996   30.0576   53.0268 O   0  0  0  0  0  0  0  0  0  0  0  0
   18.7302   23.8687   48.4902 O   0  0  0  0  0  0  0  0  0  0  0  0
   24.0940   29.0959   52.0421 C   0  0  0  0  0  0  0  0  0  0  0  0
   21.0106   28.1042   48.3505 C   0  0  0  0  0  0  0  0  0  0  0  0
   19.0966   24.9956   49.2733 C   0  0  0  0  0  0  0  0  0  0  0  0
   23.0996   29.7382   51.0599 C   0  0  0  0  0  0  0  0  0  0  0  0
   21.5931   29.2413   49.2255 C   0  0  0  0  0  0  0  0  0  0  0  0
   19.8678   25.9742   48.3698 C   0  0  0  0  0  0  0  0  0  0  0  0
  1 12  1  0  0  0  0
  1 11  1  0  0  0  0
  2 13  1  0  0  0  0
  2  9  1  0  0  0  0
  3  4  1  6  0  0  0
  3  5  2  0  0  0  0
  3  6  1  0  0  0  0
  6  8  1  0  0  0  0
  7 10  1  0  0  0  0
  8 11  1  0  0  0  0
  9 12  1  0  0  0  0
 10 13  1  0  0  0  0
M  CHG  1   4  -1
M  END
>  <CHROM.1>
-176.37178541,-176.75957662,66.40958282,174.16609618,-173.78488927,-175.71470299
61.24354657,-176.28018008,177.80717817,22.70720026,28.15912625,51.24219891
-3.05627917,0.84022426,2.41712180

>  <Name>
ligand

>  <RI>
0

>  <Rbt.Current_Directory>
/home/itssahil/PROJECTS/Mol_Feturizer/New_Systems/rnas/2NPY

>  <Rbt.Executable>
rbdock ($Id: //depot/dev/client3/rdock/2013.1/src/exe/rbdock.cxx#4 $)

>  <Rbt.Library>
libRbt.so (2013.1, Build901 2013/11/27)

>  <Rbt.Parameter_File>
/export/apps/rDock/src/rDock_2013.1_src/data/scripts/dock_solv.prm

>  <Rbt.Receptor>
prm/blind_docking_80.prm

>  <SCORE>
-12.4804

>  <SCORE.INTER>
1.44884

>  <SCORE.INTER.CONST>
1

>  <SCORE.INTER.POLAR>
0

>  <SCORE.INTER.ROT>
9

>  <SCORE.INTER.SOLV>
10.0333

>  <SCORE.INTER.VDW>
-11.9785

>  <SCORE.INTER.norm>
0.111449

>  <SCORE.INTRA>
-13.9292

>  <SCORE.INTRA.DIHEDRAL>
-25.0519

>  <SCORE.INTRA.DIHEDRAL.0>
25.6828

>  <SCORE.INTRA.POLAR>
0

>  <SCORE.INTRA.POLAR.0>
0

>  <SCORE.INTRA.REPUL>
0

>  <SCORE.INTRA.REPUL.0>
0

>  <SCORE.INTRA.SOLV>
-0.979178

>  <SCORE.INTRA.SOLV.lig_0>
-48.5059

>  <SCORE.INTRA.VDW>
-0.91365

>  <SCORE.INTRA.VDW.0>
-0.363643

>  <SCORE.INTRA.norm>
-1.07148

>  <SCORE.RESTR>
0

>  <SCORE.RESTR.CAVITY>
0

>  <SCORE.RESTR.norm>
0

>  <SCORE.SYSTEM>
0

>  <SCORE.SYSTEM.CONST>
0

>  <SCORE.SYSTEM.DIHEDRAL>
0

>  <SCORE.SYSTEM.SOLV>
0

>  <SCORE.SYSTEM.norm>
0

>  <SCORE.heavy>
13

>  <SCORE.norm>
-0.960028

>  <RMSD>
12.962

$$$$
ligand
 OpenBabel11021811453D
libRbt.so/2013.1/901 2013/11/27
 13 12  0  0  0  0  0  0  0  0999 V2000
   21.8189   30.2966   49.1733 O   0  0  0  0  0  0  0  0  0  0  0  0
   20.1341   26.9447   49.3635 O   0  0  0  0  0  0  0  0  0  0  0  0
   22.0417   34.3097   47.5098 P   0  0  2  0  0  0  0  0  0  0  0  0
   20.7513   34.8553   46.9974 O   0  5  0  0  0  0  0  0  0  0  0  0
   23.0812   33.8721   46.5428 O   0  0  0  0  0  0  0  0  0  0  0  0
   21.7343   33.0791   48.4628 O   0  0  0  0  0  0  0  0  0  0  0  0
   19.5236   24.3207   50.1975 O   0  0  0  0  0  0  0  0  0  0  0  0
   22.7447   32.5456   49.3308 C   0  0  0  0  0  0  0  0  0  0  0  0
   20.8804   28.0354   48.7654 C   0  0  0  0  0  0  0  0  0  0  0  0
   18.8528   24.8822   49.0785 C   0  0  0  0  0  0  0  0  0  0  0  0
   22.1896   31.3349   50.1001 C   0  0  0  0  0  0  0  0  0  0  0  0
   21.2658   29.1114   49.8102 C   0  0  0  0  0  0  0  0  0  0  0  0
   19.7977   25.9022   48.4183 C   0  0  0  0  0  0  0  0  0  0  0  0
  1 12  1  0  0  0  0
  1 11  1  0  0  0  0
  2 13  1  0  0  0  0
  2  9  1  0  0  0  0
  3  4  1  6  0  0  0
  3  5  2  0  0  0  0
  3  6  1  0  0  0  0
  6  8  1  0  0  0  0
  7 10  1  0  0  0  0
  8 11  1  0  0  0  0
  9 12  1  0  0  0  0
 10 13  1  0  0  0  0
M  CHG  1   4  -1
M  END
>  <CHROM.1>
179.72182399,-172.45428066,-165.87943081,-178.05757305,61.80239585,-178.10888218
-170.72841371,-60.15353052,-179.30528340,21.21401492,30.34351202,48.63402301
-1.13404746,0.89890167,2.58128500

>  <Name>
ligand

>  <RI>
0

>  <Rbt.Current_Directory>
/home/itssahil/PROJECTS/Mol_Feturizer/New_Systems/rnas/2NPY

>  <Rbt.Executable>
rbdock ($Id: //depot/dev/client3/rdock/2013.1/src/exe/rbdock.cxx#4 $)

>  <Rbt.Library>
libRbt.so (2013.1, Build901 2013/11/27)

>  <Rbt.Parameter_File>
/export/apps/rDock/src/rDock_2013.1_src/data/scripts/dock_solv.prm

>  <Rbt.Receptor>
prm/blind_docking_80.prm

>  <SCORE>
-14.3954

>  <SCORE.INTER>
-0.325271

>  <SCORE.INTER.CONST>
1

>  <SCORE.INTER.POLAR>
0

>  <SCORE.INTER.ROT>
9

>  <SCORE.INTER.SOLV>
13.2633

>  <SCORE.INTER.VDW>
-14.238

>  <SCORE.INTER.norm>
-0.0250209

>  <SCORE.INTRA>
-14.0701

>  <SCORE.INTRA.DIHEDRAL>
-24.9232

>  <SCORE.INTRA.DIHEDRAL.0>
25.6828

>  <SCORE.INTRA.POLAR>
0

>  <SCORE.INTRA.POLAR.0>
0

>  <SCORE.INTRA.REPUL>
0

>  <SCORE.INTRA.REPUL.0>
0

>  <SCORE.INTRA.SOLV>
-1.22461

>  <SCORE.INTRA.SOLV.lig_0>
-48.5059

>  <SCORE.INTRA.VDW>
-0.996188

>  <SCORE.INTRA.VDW.0>
-0.363643

>  <SCORE.INTRA.norm>
-1.08231

>  <SCORE.RESTR>
0

>  <SCORE.RESTR.CAVITY>
0

>  <SCORE.RESTR.norm>
0

>  <SCORE.SYSTEM>
0

>  <SCORE.SYSTEM.CONST>
0

>  <SCORE.SYSTEM.DIHEDRAL>
0

>  <SCORE.SYSTEM.SOLV>
0

>  <SCORE.SYSTEM.norm>
0

>  <SCORE.heavy>
13

>  <SCORE.norm>
-1.10734

>  <RMSD>
12.962

$$$$
ligand
 OpenBabel11021811453D
libRbt.so/2013.1/901 2013/11/27
 13 12  0  0  0  0  0  0  0  0999 V2000
   22.6243   27.8977   50.6235 O   0  0  0  0  0  0  0  0  0  0  0  0
   20.5274   25.9470   50.0467 O   0  0  0  0  0  0  0  0  0  0  0  0
   24.3651   26.5396   48.6412 P   0  0  2  0  0  0  0  0  0  0  0  0
   24.6365   25.0781   48.5151 O   0  5  0  0  0  0  0  0  0  0  0  0
   24.5419   27.4168   47.4554 O   0  0  0  0  0  0  0  0  0  0  0  0
   25.2686   27.1291   49.8046 O   0  0  0  0  0  0  0  0  0  0  0  0
   18.8940   23.9386   51.1635 O   0  0  0  0  0  0  0  0  0  0  0  0
   24.9926   28.4165   50.3750 C   0  0  0  0  0  0  0  0  0  0  0  0
   20.2335   27.2314   50.6535 C   0  0  0  0  0  0  0  0  0  0  0  0
   18.3222   24.9272   50.3190 C   0  0  0  0  0  0  0  0  0  0  0  0
   23.8002   28.3174   51.3415 C   0  0  0  0  0  0  0  0  0  0  0  0
   21.4385   27.7781   51.4578 C   0  0  0  0  0  0  0  0  0  0  0  0
   19.4033   25.3898   49.3259 C   0  0  0  0  0  0  0  0  0  0  0  0
  1 12  1  0  0  0  0
  1 11  1  0  0  0  0
  2 13  1  0  0  0  0
  2  9  1  0  0  0  0
  3  4  1  6  0  0  0
  3  5  2  0  0  0  0
  3  6  1  0  0  0  0
  6  8  1  0  0  0  0
  7 10  1  0  0  0  0
  8 11  1  0  0  0  0
  9 12  1  0  0  0  0
 10 13  1  0  0  0  0
M  CHG  1   4  -1
M  END
>  <CHROM.1>
-176.07254193,-71.15949698,-164.41853958,77.05650914,-61.79861517,178.01673066
57.17702167,-60.05775127,-179.85858944,22.43432409,26.58841204,49.85016672
0.09140388,0.39254050,0.73904290

>  <Name>
ligand

>  <RI>
0

>  <Rbt.Current_Directory>
/home/itssahil/PROJECTS/Mol_Feturizer/New_Systems/rnas/2NPY

>  <Rbt.Executable>
rbdock ($Id: //depot/dev/client3/rdock/2013.1/src/exe/rbdock.cxx#4 $)

>  <Rbt.Library>
libRbt.so (2013.1, Build901 2013/11/27)

>  <Rbt.Parameter_File>
/export/apps/rDock/src/rDock_2013.1_src/data/scripts/dock_solv.prm

>  <Rbt.Receptor>
prm/blind_docking_80.prm

>  <SCORE>
-9.09787

>  <SCORE.INTER>
1.94364

>  <SCORE.INTER.CONST>
1

>  <SCORE.INTER.POLAR>
0

>  <SCORE.INTER.ROT>
9

>  <SCORE.INTER.SOLV>
8.45437

>  <SCORE.INTER.VDW>
-11.1224

>  <SCORE.INTER.norm>
0.149511

>  <SCORE.INTRA>
-11.0415

>  <SCORE.INTRA.DIHEDRAL>
-23.4646

>  <SCORE.INTRA.DIHEDRAL.0>
25.6828

>  <SCORE.INTRA.POLAR>
0

>  <SCORE.INTRA.POLAR.0>
0

>  <SCORE.INTRA.REPUL>
0

>  <SCORE.INTRA.REPUL.0>
0

>  <SCORE.INTRA.SOLV>
2.51701

>  <SCORE.INTRA.SOLV.lig_0>
-48.5059

>  <SCORE.INTRA.VDW>
-0.56772

>  <SCORE.INTRA.VDW.0>
-0.363643

>  <SCORE.INTRA.norm>
-0.849346

>  <SCORE.RESTR>
0

>  <SCORE.RESTR.CAVITY>
0

>  <SCORE.RESTR.norm>
0

>  <SCORE.SYSTEM>
0

>  <SCORE.SYSTEM.CONST>
0

>  <SCORE.SYSTEM.DIHEDRAL>
0

>  <SCORE.SYSTEM.SOLV>
0

>  <SCORE.SYSTEM.norm>
0

>  <SCORE.heavy>
13

>  <SCORE.norm>
-0.699836

>  <RMSD>
12.979

$$$$
ligand
 OpenBabel11021811453D
libRbt.so/2013.1/901 2013/11/27
 13 12  0  0  0  0  0  0  0  0999 V2000
   21.4811   29.1994   49.3815 O   0  0  0  0  0  0  0  0  0  0  0  0
   20.7578   25.7406   48.0888 O   0  0  0  0  0  0  0  0  0  0  0  0
   22.8513   33.2881   48.7480 P   0  0  2  0  0  0  0  0  0  0  0  0
   22.0867   33.5719   47.4990 O   0  5  0  0  0  0  0  0  0  0  0  0
   24.2950   33.6326   48.8108 O   0  0  0  0  0  0  0  0  0  0  0  0
   22.7182   31.7445   49.0897 O   0  0  0  0  0  0  0  0  0  0  0  0
   18.1232   24.7169   50.4136 O   0  0  0  0  0  0  0  0  0  0  0  0
   22.2105   31.3093   50.3593 C   0  0  0  0  0  0  0  0  0  0  0  0
   20.6791   27.1867   48.1705 C   0  0  0  0  0  0  0  0  0  0  0  0
   18.6435   25.1501   49.1650 C   0  0  0  0  0  0  0  0  0  0  0  0
   22.2616   29.7745   50.4467 C   0  0  0  0  0  0  0  0  0  0  0  0
   21.5603   27.7484   49.3133 C   0  0  0  0  0  0  0  0  0  0  0  0
   20.1792   25.0754   49.2362 C   0  0  0  0  0  0  0  0  0  0  0  0
  1 12  1  0  0  0  0
  1 11  1  0  0  0  0
  2 13  1  0  0  0  0
  2  9  1  0  0  0  0
  3  4  1  6  0  0  0
  3  5  2  0  0  0  0
  3  6  1  0  0  0  0
  6  8  1  0  0  0  0
  7 10  1  0  0  0  0
  8 11  1  0  0  0  0
  9 12  1  0  0  0  0
 10 13  1  0  0  0  0
M  CHG  1   4  -1
M  END
>  <CHROM.1>
178.79002728,74.36877618,-123.78290598,-176.97133972,-58.89116742,66.76435434
179.64101217,-169.23134453,175.09882165,21.50299114,29.46285429,49.08751348
-2.98865015,-1.13934330,-1.47251512

>  <Name>
ligand

>  <RI>
0

>  <Rbt.Current_Directory>
/home/itssahil/PROJECTS/Mol_Feturizer/New_Systems/rnas/2NPY

>  <Rbt.Executable>
rbdock ($Id: //depot/dev/client3/rdock/2013.1/src/exe/rbdock.cxx#4 $)

>  <Rbt.Library>
libRbt.so (2013.1, Build901 2013/11/27)

>  <Rbt.Parameter_File>
/export/apps/rDock/src/rDock_2013.1_src/data/scripts/dock_solv.prm

>  <Rbt.Receptor>
prm/blind_docking_80.prm

>  <SCORE>
-12.201

>  <SCORE.INTER>
-0.846827

>  <SCORE.INTER.CONST>
1

>  <SCORE.INTER.POLAR>
0

>  <SCORE.INTER.ROT>
9

>  <SCORE.INTER.SOLV>
14.707

>  <SCORE.INTER.VDW>
-15.0669

>  <SCORE.INTER.norm>
-0.0651406

>  <SCORE.INTRA>
-11.3542

>  <SCORE.INTRA.DIHEDRAL>
-22.3981

>  <SCORE.INTRA.DIHEDRAL.0>
25.6828

>  <SCORE.INTRA.POLAR>
0

>  <SCORE.INTRA.POLAR.0>
0

>  <SCORE.INTRA.REPUL>
0

>  <SCORE.INTRA.REPUL.0>
0

>  <SCORE.INTRA.SOLV>
-1.5348

>  <SCORE.INTRA.SOLV.lig_0>
-48.5059

>  <SCORE.INTRA.VDW>
0.612251

>  <SCORE.INTRA.VDW.0>
-0.363643

>  <SCORE.INTRA.norm>
-0.873398

>  <SCORE.RESTR>
0

>  <SCORE.RESTR.CAVITY>
0

>  <SCORE.RESTR.norm>
0

>  <SCORE.SYSTEM>
0

>  <SCORE.SYSTEM.CONST>
0

>  <SCORE.SYSTEM.DIHEDRAL>
0

>  <SCORE.SYSTEM.SOLV>
0

>  <SCORE.SYSTEM.norm>
0

>  <SCORE.heavy>
13

>  <SCORE.norm>
-0.938539

>  <RMSD>
12.983

$$$$
ligand
 OpenBabel11021811453D
libRbt.so/2013.1/901 2013/11/27
 13 12  0  0  0  0  0  0  0  0999 V2000
   23.3601   24.8904   48.4074 O   0  0  0  0  0  0  0  0  0  0  0  0
   20.7513   24.2008   49.5991 O   0  0  0  0  0  0  0  0  0  0  0  0
   25.4201   28.5589   49.7281 P   0  0  2  0  0  0  0  0  0  0  0  0
   24.4999   29.4487   48.9621 O   0  5  0  0  0  0  0  0  0  0  0  0
   26.8876   28.7001   49.5451 O   0  0  0  0  0  0  0  0  0  0  0  0
   25.0479   27.0483   49.4167 O   0  0  0  0  0  0  0  0  0  0  0  0
   19.2751   26.3713   50.4775 O   0  0  0  0  0  0  0  0  0  0  0  0
   25.1399   26.5237   48.0843 C   0  0  0  0  0  0  0  0  0  0  0  0
   21.4246   23.3530   48.6336 C   0  0  0  0  0  0  0  0  0  0  0  0
   18.6717   25.0866   50.5305 C   0  0  0  0  0  0  0  0  0  0  0  0
   24.7550   25.0345   48.0790 C   0  0  0  0  0  0  0  0  0  0  0  0
   22.9629   23.5204   48.6934 C   0  0  0  0  0  0  0  0  0  0  0  0
   19.3134   24.2126   49.4381 C   0  0  0  0  0  0  0  0  0  0  0  0
  1 12  1  0  0  0  0
  1 11  1  0  0  0  0
  2 13  1  0  0  0  0
  2  9  1  0  0  0  0
  3  4  1  6  0  0  0
  3  5  2  0  0  0  0
  3  6  1  0  0  0  0
  6  8  1  0  0  0  0
  7 10  1  0  0  0  0
  8 11  1  0  0  0  0
  9 12  1  0  0  0  0
 10 13  1  0  0  0  0
M  CHG  1   4  -1
M  END
>  <CHROM.1>
-163.51126035,177.75080507,61.64590310,178.62390100,66.50182317,171.59575932
-60.24587437,54.75105554,-168.20766757,23.11224981,26.17913214,49.25333823
-2.61850491,0.28638439,0.35235044

>  <Name>
ligand

>  <RI>
0

>  <Rbt.Current_Directory>
/home/itssahil/PROJECTS/Mol_Feturizer/New_Systems/rnas/2NPY

>  <Rbt.Executable>
rbdock ($Id: //depot/dev/client3/rdock/2013.1/src/exe/rbdock.cxx#4 $)

>  <Rbt.Library>
libRbt.so (2013.1, Build901 2013/11/27)

>  <Rbt.Parameter_File>
/export/apps/rDock/src/rDock_2013.1_src/data/scripts/dock_solv.prm

>  <Rbt.Receptor>
prm/blind_docking_100.prm

>  <SCORE>
-10.5409

>  <SCORE.INTER>
2.40602

>  <SCORE.INTER.CONST>
1

>  <SCORE.INTER.POLAR>
0

>  <SCORE.INTER.ROT>
9

>  <SCORE.INTER.SOLV>
10.0781

>  <SCORE.INTER.VDW>
-11.3554

>  <SCORE.INTER.norm>
0.185079

>  <SCORE.INTRA>
-12.9469

>  <SCORE.INTRA.DIHEDRAL>
-23.0756

>  <SCORE.INTRA.DIHEDRAL.0>
25.6828

>  <SCORE.INTRA.POLAR>
0

>  <SCORE.INTRA.POLAR.0>
0

>  <SCORE.INTRA.REPUL>
0

>  <SCORE.INTRA.REPUL.0>
0

>  <SCORE.INTRA.SOLV>
-0.631333

>  <SCORE.INTRA.SOLV.lig_0>
-48.5059

>  <SCORE.INTRA.VDW>
-1.09345

>  <SCORE.INTRA.VDW.0>
-0.363643

>  <SCORE.INTRA.norm>
-0.995918

>  <SCORE.RESTR>
0

>  <SCORE.RESTR.CAVITY>
0

>  <SCORE.RESTR.norm>
0

>  <SCORE.SYSTEM>
0

>  <SCORE.SYSTEM.CONST>
0

>  <SCORE.SYSTEM.DIHEDRAL>
0

>  <SCORE.SYSTEM.SOLV>
0

>  <SCORE.SYSTEM.norm>
0

>  <SCORE.heavy>
13

>  <SCORE.norm>
-0.81084

>  <RMSD>
12.999

$$$$
ligand
 OpenBabel11021811453D
libRbt.so/2013.1/901 2013/11/27
 13 12  0  0  0  0  0  0  0  0999 V2000
   21.7557   28.9525   50.3172 O   0  0  0  0  0  0  0  0  0  0  0  0
   19.8573   26.6720   50.2591 O   0  0  0  0  0  0  0  0  0  0  0  0
   22.6469   33.1298   48.7971 P   0  0  2  0  0  0  0  0  0  0  0  0
   22.0634   32.9645   47.4342 O   0  5  0  0  0  0  0  0  0  0  0  0
   23.3993   34.3692   49.1205 O   0  0  0  0  0  0  0  0  0  0  0  0
   23.6070   31.9023   49.0949 O   0  0  0  0  0  0  0  0  0  0  0  0
   19.9006   24.9112   48.0326 O   0  0  0  0  0  0  0  0  0  0  0  0
   23.1119   30.5556   49.0799 C   0  0  0  0  0  0  0  0  0  0  0  0
   20.5161   27.1347   51.4658 C   0  0  0  0  0  0  0  0  0  0  0  0
   18.8519   24.8417   48.9880 C   0  0  0  0  0  0  0  0  0  0  0  0
   22.1545   30.3354   50.2635 C   0  0  0  0  0  0  0  0  0  0  0  0
   20.8369   28.6483   51.4033 C   0  0  0  0  0  0  0  0  0  0  0  0
   19.4130   25.2978   50.3466 C   0  0  0  0  0  0  0  0  0  0  0  0
  1 12  1  0  0  0  0
  1 11  1  0  0  0  0
  2 13  1  0  0  0  0
  2  9  1  0  0  0  0
  3  4  1  6  0  0  0
  3  5  2  0  0  0  0
  3  6  1  0  0  0  0
  6  8  1  0  0  0  0
  7 10  1  0  0  0  0
  8 11  1  0  0  0  0
  9 12  1  0  0  0  0
 10 13  1  0  0  0  0
M  CHG  1   4  -1
M  END
>  <CHROM.1>
-176.34775618,-174.49128276,-59.26188508,-68.34559374,-174.75879188,-173.58729172
-62.15129437,62.03012770,-179.53637287,21.51480285,29.56578069,49.49121661
-2.79741810,-1.13165491,-1.32630321

>  <Name>
ligand

>  <RI>
0

>  <Rbt.Current_Directory>
/home/itssahil/PROJECTS/Mol_Feturizer/New_Systems/rnas/2NPY

>  <Rbt.Executable>
rbdock ($Id: //depot/dev/client3/rdock/2013.1/src/exe/rbdock.cxx#4 $)

>  <Rbt.Library>
libRbt.so (2013.1, Build901 2013/11/27)

>  <Rbt.Parameter_File>
/export/apps/rDock/src/rDock_2013.1_src/data/scripts/dock_solv.prm

>  <Rbt.Receptor>
prm/blind_docking_100.prm

>  <SCORE>
-13.3282

>  <SCORE.INTER>
-0.178451

>  <SCORE.INTER.CONST>
1

>  <SCORE.INTER.POLAR>
0

>  <SCORE.INTER.ROT>
9

>  <SCORE.INTER.SOLV>
14.1367

>  <SCORE.INTER.VDW>
-14.4312

>  <SCORE.INTER.norm>
-0.013727

>  <SCORE.INTRA>
-13.1497

>  <SCORE.INTRA.DIHEDRAL>
-24.7415

>  <SCORE.INTRA.DIHEDRAL.0>
25.6828

>  <SCORE.INTRA.POLAR>
0

>  <SCORE.INTRA.POLAR.0>
0

>  <SCORE.INTRA.REPUL>
0

>  <SCORE.INTRA.REPUL.0>
0

>  <SCORE.INTRA.SOLV>
-0.0428273

>  <SCORE.INTRA.SOLV.lig_0>
-48.5059

>  <SCORE.INTRA.VDW>
-0.757568

>  <SCORE.INTRA.VDW.0>
-0.363643

>  <SCORE.INTRA.norm>
-1.01152

>  <SCORE.RESTR>
0

>  <SCORE.RESTR.CAVITY>
0

>  <SCORE.RESTR.norm>
0

>  <SCORE.SYSTEM>
0

>  <SCORE.SYSTEM.CONST>
0

>  <SCORE.SYSTEM.DIHEDRAL>
0

>  <SCORE.SYSTEM.SOLV>
0

>  <SCORE.SYSTEM.norm>
0

>  <SCORE.heavy>
13

>  <SCORE.norm>
-1.02524

>  <RMSD>
13.072

$$$$
ligand
 OpenBabel11021811453D
libRbt.so/2013.1/901 2013/11/27
 13 12  0  0  0  0  0  0  0  0999 V2000
   22.1058   27.0137   48.3934 O   0  0  0  0  0  0  0  0  0  0  0  0
   19.5211   26.0702   49.6303 O   0  0  0  0  0  0  0  0  0  0  0  0
   26.1706   27.8413   49.5648 P   0  0  2  0  0  0  0  0  0  0  0  0
   26.0247   27.4661   51.0012 O   0  5  0  0  0  0  0  0  0  0  0  0
   26.4441   29.2571   49.2073 O   0  0  0  0  0  0  0  0  0  0  0  0
   24.8605   27.4014   48.7855 O   0  0  0  0  0  0  0  0  0  0  0  0
   18.9430   22.8677   51.3220 O   0  0  0  0  0  0  0  0  0  0  0  0
   24.2884   26.0994   48.9769 C   0  0  0  0  0  0  0  0  0  0  0  0
   19.9650   25.7626   48.2840 C   0  0  0  0  0  0  0  0  0  0  0  0
   19.7145   23.8659   50.6695 C   0  0  0  0  0  0  0  0  0  0  0  0
   23.0295   25.9464   48.1066 C   0  0  0  0  0  0  0  0  0  0  0  0
   20.8371   26.8965   47.6912 C   0  0  0  0  0  0  0  0  0  0  0  0
   18.7643   24.9968   50.2372 C   0  0  0  0  0  0  0  0  0  0  0  0
  1 12  1  0  0  0  0
  1 11  1  0  0  0  0
  2 13  1  0  0  0  0
  2  9  1  0  0  0  0
  3  4  1  1  0  0  0
  3  5  2  0  0  0  0
  3  6  1  0  0  0  0
  6  8  1  0  0  0  0
  7 10  1  0  0  0  0
  8 11  1  0  0  0  0
  9 12  1  0  0  0  0
 10 13  1  0  0  0  0
M  CHG  1   4  -1
M  END
>  <CHROM.1>
72.74529792,75.44897189,-46.17022767,179.77234741,-55.14136033,-176.84139684
67.24175468,176.95662669,-175.52527674,22.70005241,26.41741369,49.40942632
2.80770522,0.34948798,2.20937402

>  <Name>
ligand

>  <RI>
0

>  <Rbt.Current_Directory>
/home/itssahil/PROJECTS/Mol_Feturizer/New_Systems/rnas/2NPY

>  <Rbt.Executable>
rbdock ($Id: //depot/dev/client3/rdock/2013.1/src/exe/rbdock.cxx#4 $)

>  <Rbt.Library>
libRbt.so (2013.1, Build901 2013/11/27)

>  <Rbt.Parameter_File>
/export/apps/rDock/src/rDock_2013.1_src/data/scripts/dock_solv.prm

>  <Rbt.Receptor>
prm/blind_docking_100.prm

>  <SCORE>
-10.4947

>  <SCORE.INTER>
1.3954

>  <SCORE.INTER.CONST>
1

>  <SCORE.INTER.POLAR>
0

>  <SCORE.INTER.ROT>
9

>  <SCORE.INTER.SOLV>
11.3346

>  <SCORE.INTER.VDW>
-12.4479

>  <SCORE.INTER.norm>
0.107338

>  <SCORE.INTRA>
-11.8901

>  <SCORE.INTRA.DIHEDRAL>
-23.2212

>  <SCORE.INTRA.DIHEDRAL.0>
25.6828

>  <SCORE.INTRA.POLAR>
0

>  <SCORE.INTRA.POLAR.0>
0

>  <SCORE.INTRA.REPUL>
0

>  <SCORE.INTRA.REPUL.0>
0

>  <SCORE.INTRA.SOLV>
-1.07432

>  <SCORE.INTRA.SOLV.lig_0>
-48.5059

>  <SCORE.INTRA.VDW>
0.257676

>  <SCORE.INTRA.VDW.0>
-0.363643

>  <SCORE.INTRA.norm>
-0.914621

>  <SCORE.RESTR>
0

>  <SCORE.RESTR.CAVITY>
0

>  <SCORE.RESTR.norm>
0

>  <SCORE.SYSTEM>
0

>  <SCORE.SYSTEM.CONST>
0

>  <SCORE.SYSTEM.DIHEDRAL>
0

>  <SCORE.SYSTEM.SOLV>
0

>  <SCORE.SYSTEM.norm>
0

>  <SCORE.heavy>
13

>  <SCORE.norm>
-0.807282

>  <RMSD>
13.128

$$$$
ligand
 OpenBabel11021811453D
libRbt.so/2013.1/901 2013/11/27
 13 12  0  0  0  0  0  0  0  0999 V2000
   22.6090   25.9310   48.2789 O   0  0  0  0  0  0  0  0  0  0  0  0
   25.0319   27.5337   49.0227 O   0  0  0  0  0  0  0  0  0  0  0  0
   18.7941   25.1793   50.1396 P   0  0  2  0  0  0  0  0  0  0  0  0
   19.3687   24.1175   51.0158 O   0  5  0  0  0  0  0  0  0  0  0  0
   17.7513   24.8163   49.1457 O   0  0  0  0  0  0  0  0  0  0  0  0
   19.9752   25.8852   49.3495 O   0  0  0  0  0  0  0  0  0  0  0  0
   25.8494   30.0360   50.0659 O   0  0  0  0  0  0  0  0  0  0  0  0
   21.0458   26.5372   50.0478 C   0  0  0  0  0  0  0  0  0  0  0  0
   25.0312   26.4336   48.0772 C   0  0  0  0  0  0  0  0  0  0  0  0
   26.1991   28.8322   50.7338 C   0  0  0  0  0  0  0  0  0  0  0  0
   22.0979   27.0390   49.0442 C   0  0  0  0  0  0  0  0  0  0  0  0
   23.6695   26.2970   47.3527 C   0  0  0  0  0  0  0  0  0  0  0  0
   26.3080   27.7160   49.6798 C   0  0  0  0  0  0  0  0  0  0  0  0
  1 12  1  0  0  0  0
  1 11  1  0  0  0  0
  2 13  1  0  0  0  0
  2  9  1  0  0  0  0
  3  4  1  6  0  0  0
  3  5  2  0  0  0  0
  3  6  1  0  0  0  0
  6  8  1  0  0  0  0
  7 10  1  0  0  0  0
  8 11  1  0  0  0  0
  9 12  1  0  0  0  0
 10 13  1  0  0  0  0
M  CHG  1   4  -1
M  END
>  <CHROM.1>
79.73079159,-176.03677102,-59.15871394,175.77507118,-58.75517166,-177.87873875
-65.38265552,-61.30234115,-176.64463161,22.24308049,26.51079769,49.44745494
-0.18598276,-0.41174898,-2.13821009

>  <Name>
ligand

>  <RI>
0

>  <Rbt.Current_Directory>
/home/itssahil/PROJECTS/Mol_Feturizer/New_Systems/rnas/2NPY

>  <Rbt.Executable>
rbdock ($Id: //depot/dev/client3/rdock/2013.1/src/exe/rbdock.cxx#4 $)

>  <Rbt.Library>
libRbt.so (2013.1, Build901 2013/11/27)

>  <Rbt.Parameter_File>
/export/apps/rDock/src/rDock_2013.1_src/data/scripts/dock_solv.prm

>  <Rbt.Receptor>
prm/blind_docking_100.prm

>  <SCORE>
-9.96635

>  <SCORE.INTER>
2.97016

>  <SCORE.INTER.CONST>
1

>  <SCORE.INTER.POLAR>
0

>  <SCORE.INTER.ROT>
9

>  <SCORE.INTER.SOLV>
16.7734

>  <SCORE.INTER.VDW>
-13.211

>  <SCORE.INTER.norm>
0.228474

>  <SCORE.INTRA>
-12.9365

>  <SCORE.INTRA.DIHEDRAL>
-23.5135

>  <SCORE.INTRA.DIHEDRAL.0>
25.6828

>  <SCORE.INTRA.POLAR>
0

>  <SCORE.INTRA.POLAR.0>
0

>  <SCORE.INTRA.REPUL>
0

>  <SCORE.INTRA.REPUL.0>
0

>  <SCORE.INTRA.SOLV>
-0.853335

>  <SCORE.INTRA.SOLV.lig_0>
-48.5059

>  <SCORE.INTRA.VDW>
-0.753084

>  <SCORE.INTRA.VDW.0>
-0.363643

>  <SCORE.INTRA.norm>
-0.995117

>  <SCORE.RESTR>
0

>  <SCORE.RESTR.CAVITY>
0

>  <SCORE.RESTR.norm>
0

>  <SCORE.SYSTEM>
0

>  <SCORE.SYSTEM.CONST>
0

>  <SCORE.SYSTEM.DIHEDRAL>
0

>  <SCORE.SYSTEM.SOLV>
0

>  <SCORE.SYSTEM.norm>
0

>  <SCORE.heavy>
13

>  <SCORE.norm>
-0.766643

>  <RMSD>
13.146

$$$$
ligand
 OpenBabel11021811453D
libRbt.so/2013.1/901 2013/11/27
 13 12  0  0  0  0  0  0  0  0999 V2000
   21.4291   29.4817   51.3340 O   0  0  0  0  0  0  0  0  0  0  0  0
   20.2018   26.0549   50.3810 O   0  0  0  0  0  0  0  0  0  0  0  0
   23.0276   33.4974   48.7002 P   0  0  2  0  0  0  0  0  0  0  0  0
   21.7110   34.0214   48.2342 O   0  5  0  0  0  0  0  0  0  0  0  0
   24.2256   33.6723   47.8394 O   0  0  0  0  0  0  0  0  0  0  0  0
   22.8835   31.9462   49.0007 O   0  0  0  0  0  0  0  0  0  0  0  0
   20.4780   23.4306   49.3421 O   0  0  0  0  0  0  0  0  0  0  0  0
   22.2097   31.4808   50.1790 C   0  0  0  0  0  0  0  0  0  0  0  0
   20.3601   27.4946   50.2999 C   0  0  0  0  0  0  0  0  0  0  0  0
   19.1898   23.9984   49.5306 C   0  0  0  0  0  0  0  0  0  0  0  0
   22.1630   29.9434   50.1840 C   0  0  0  0  0  0  0  0  0  0  0  0
   21.3002   28.0344   51.4057 C   0  0  0  0  0  0  0  0  0  0  0  0
   19.3127   25.5243   49.3704 C   0  0  0  0  0  0  0  0  0  0  0  0
  1 12  1  0  0  0  0
  1 11  1  0  0  0  0
  2 13  1  0  0  0  0
  2  9  1  0  0  0  0
  3  4  1  6  0  0  0
  3  5  2  0  0  0  0
  3  6  1  0  0  0  0
  6  8  1  0  0  0  0
  7 10  1  0  0  0  0
  8 11  1  0  0  0  0
  9 12  1  0  0  0  0
 10 13  1  0  0  0  0
M  CHG  1   4  -1
M  END
>  <CHROM.1>
-69.62115672,-179.55717301,-74.98459389,177.47774358,-177.19924911,179.18138332
-178.74475956,-61.73385402,178.43157866,21.57368547,29.50902682,49.58057245
3.11080440,-1.22609402,-1.75242285

>  <Name>
ligand

>  <RI>
0

>  <Rbt.Current_Directory>
/home/itssahil/PROJECTS/Mol_Feturizer/New_Systems/rnas/2NPY

>  <Rbt.Executable>
rbdock ($Id: //depot/dev/client3/rdock/2013.1/src/exe/rbdock.cxx#4 $)

>  <Rbt.Library>
libRbt.so (2013.1, Build901 2013/11/27)

>  <Rbt.Parameter_File>
/export/apps/rDock/src/rDock_2013.1_src/data/scripts/dock_solv.prm

>  <Rbt.Receptor>
prm/blind_docking_80.prm

>  <SCORE>
-13.1976

>  <SCORE.INTER>
0.00978767

>  <SCORE.INTER.CONST>
1

>  <SCORE.INTER.POLAR>
0

>  <SCORE.INTER.ROT>
9

>  <SCORE.INTER.SOLV>
15.1818

>  <SCORE.INTER.VDW>
-14.6541

>  <SCORE.INTER.norm>
0.000752898

>  <SCORE.INTRA>
-13.2074

>  <SCORE.INTRA.DIHEDRAL>
-24.7199

>  <SCORE.INTRA.DIHEDRAL.0>
25.6828

>  <SCORE.INTRA.POLAR>
0

>  <SCORE.INTRA.POLAR.0>
0

>  <SCORE.INTRA.REPUL>
0

>  <SCORE.INTRA.REPUL.0>
0

>  <SCORE.INTRA.SOLV>
-1.39492

>  <SCORE.INTRA.SOLV.lig_0>
-48.5059

>  <SCORE.INTRA.VDW>
-0.150013

>  <SCORE.INTRA.VDW.0>
-0.363643

>  <SCORE.INTRA.norm>
-1.01596

>  <SCORE.RESTR>
0

>  <SCORE.RESTR.CAVITY>
0

>  <SCORE.RESTR.norm>
0

>  <SCORE.SYSTEM>
0

>  <SCORE.SYSTEM.CONST>
0

>  <SCORE.SYSTEM.DIHEDRAL>
0

>  <SCORE.SYSTEM.SOLV>
0

>  <SCORE.SYSTEM.norm>
0

>  <SCORE.heavy>
13

>  <SCORE.norm>
-1.0152

>  <RMSD>
13.238

$$$$
ligand
 OpenBabel11021811453D
libRbt.so/2013.1/901 2013/11/27
 13 12  0  0  0  0  0  0  0  0999 V2000
   21.3252   28.6397   48.8424 O   0  0  0  0  0  0  0  0  0  0  0  0
   19.9802   26.1033   49.0516 O   0  0  0  0  0  0  0  0  0  0  0  0
   24.1655   29.7111   51.5098 P   0  0  2  0  0  0  0  0  0  0  0  0
   24.8707   29.3393   50.2489 O   0  5  0  0  0  0  0  0  0  0  0  0
   24.2773   28.8219   52.6946 O   0  0  0  0  0  0  0  0  0  0  0  0
   22.6204   29.8912   51.1977 O   0  0  0  0  0  0  0  0  0  0  0  0
   19.7438   24.0008   50.9202 O   0  0  0  0  0  0  0  0  0  0  0  0
   22.1796   30.5917   50.0256 C   0  0  0  0  0  0  0  0  0  0  0  0
   20.2515   26.6860   47.7512 C   0  0  0  0  0  0  0  0  0  0  0  0
   18.5828   24.6829   50.4681 C   0  0  0  0  0  0  0  0  0  0  0  0
   22.3149   29.6848   48.7905 C   0  0  0  0  0  0  0  0  0  0  0  0
   21.4674   27.6441   47.7912 C   0  0  0  0  0  0  0  0  0  0  0  0
   18.8546   25.1942   49.0421 C   0  0  0  0  0  0  0  0  0  0  0  0
  1 12  1  0  0  0  0
  1 11  1  0  0  0  0
  2 13  1  0  0  0  0
  2  9  1  0  0  0  0
  3  4  1  6  0  0  0
  3  5  2  0  0  0  0
  3  6  1  0  0  0  0
  6  8  1  0  0  0  0
  7 10  1  0  0  0  0
  8 11  1  0  0  0  0
  9 12  1  0  0  0  0
 10 13  1  0  0  0  0
M  CHG  1   4  -1
M  END
>  <CHROM.1>
-170.54201639,-176.78695329,-43.36786471,77.78528652,71.00132819,-179.52594721
-52.40015700,-60.39999487,-173.62587353,21.82496670,27.92617103,50.03810145
2.94209305,0.79945195,2.19573098

>  <Name>
ligand

>  <RI>
0

>  <Rbt.Current_Directory>
/home/itssahil/PROJECTS/Mol_Feturizer/New_Systems/rnas/2NPY

>  <Rbt.Executable>
rbdock ($Id: //depot/dev/client3/rdock/2013.1/src/exe/rbdock.cxx#4 $)

>  <Rbt.Library>
libRbt.so (2013.1, Build901 2013/11/27)

>  <Rbt.Parameter_File>
/export/apps/rDock/src/rDock_2013.1_src/data/scripts/dock_solv.prm

>  <Rbt.Receptor>
prm/blind_docking_100.prm

>  <SCORE>
-11.9659

>  <SCORE.INTER>
-0.231662

>  <SCORE.INTER.CONST>
1

>  <SCORE.INTER.POLAR>
0

>  <SCORE.INTER.ROT>
9

>  <SCORE.INTER.SOLV>
8.12163

>  <SCORE.INTER.VDW>
-12.4617

>  <SCORE.INTER.norm>
-0.0178202

>  <SCORE.INTRA>
-11.7342

>  <SCORE.INTRA.DIHEDRAL>
-22.7233

>  <SCORE.INTRA.DIHEDRAL.0>
25.6828

>  <SCORE.INTRA.POLAR>
0

>  <SCORE.INTRA.POLAR.0>
0

>  <SCORE.INTRA.REPUL>
0

>  <SCORE.INTRA.REPUL.0>
0

>  <SCORE.INTRA.SOLV>
1.06582

>  <SCORE.INTRA.SOLV.lig_0>
-48.5059

>  <SCORE.INTRA.VDW>
-0.90548

>  <SCORE.INTRA.VDW.0>
-0.363643

>  <SCORE.INTRA.norm>
-0.902632

>  <SCORE.RESTR>
0

>  <SCORE.RESTR.CAVITY>
0

>  <SCORE.RESTR.norm>
0

>  <SCORE.SYSTEM>
0

>  <SCORE.SYSTEM.CONST>
0

>  <SCORE.SYSTEM.DIHEDRAL>
0

>  <SCORE.SYSTEM.SOLV>
0

>  <SCORE.SYSTEM.norm>
0

>  <SCORE.heavy>
13

>  <SCORE.norm>
-0.920452

>  <RMSD>
13.256

$$$$
ligand
 OpenBabel11021811453D
libRbt.so/2013.1/901 2013/11/27
 13 12  0  0  0  0  0  0  0  0999 V2000
   22.2616   29.1145   51.2408 O   0  0  0  0  0  0  0  0  0  0  0  0
   19.6686   26.6133   50.1833 O   0  0  0  0  0  0  0  0  0  0  0  0
   22.4539   33.3159   48.4253 P   0  0  2  0  0  0  0  0  0  0  0  0
   23.4005   32.6512   47.4832 O   0  5  0  0  0  0  0  0  0  0  0  0
   22.6517   34.7486   48.7646 O   0  0  0  0  0  0  0  0  0  0  0  0
   22.4357   32.5051   49.7890 O   0  0  0  0  0  0  0  0  0  0  0  0
   18.5839   23.5207   48.5527 O   0  0  0  0  0  0  0  0  0  0  0  0
   22.2685   31.0800   49.7998 C   0  0  0  0  0  0  0  0  0  0  0  0
   20.9163   27.0868   50.7520 C   0  0  0  0  0  0  0  0  0  0  0  0
   18.4134   24.8276   49.0823 C   0  0  0  0  0  0  0  0  0  0  0  0
   22.3721   30.5505   51.2402 C   0  0  0  0  0  0  0  0  0  0  0  0
   20.9329   28.6278   50.9029 C   0  0  0  0  0  0  0  0  0  0  0  0
   19.7011   25.2096   49.8338 C   0  0  0  0  0  0  0  0  0  0  0  0
  1 12  1  0  0  0  0
  1 11  1  0  0  0  0
  2 13  1  0  0  0  0
  2  9  1  0  0  0  0
  3  4  1  6  0  0  0
  3  5  2  0  0  0  0
  3  6  1  0  0  0  0
  6  8  1  0  0  0  0
  7 10  1  0  0  0  0
  8 11  1  0  0  0  0
  9 12  1  0  0  0  0
 10 13  1  0  0  0  0
M  CHG  1   4  -1
M  END
>  <CHROM.1>
173.13275971,-173.02850746,-49.21042212,176.68688060,-177.52981303,170.78348971
-169.60531052,169.79783742,-69.58142285,21.34804282,29.58401650,49.57392109
-2.50944569,-1.06987046,-0.96984274

>  <Name>
ligand

>  <RI>
0

>  <Rbt.Current_Directory>
/home/itssahil/PROJECTS/Mol_Feturizer/New_Systems/rnas/2NPY

>  <Rbt.Executable>
rbdock ($Id: //depot/dev/client3/rdock/2013.1/src/exe/rbdock.cxx#4 $)

>  <Rbt.Library>
libRbt.so (2013.1, Build901 2013/11/27)

>  <Rbt.Parameter_File>
/export/apps/rDock/src/rDock_2013.1_src/data/scripts/dock_solv.prm

>  <Rbt.Receptor>
prm/blind_docking_80.prm

>  <SCORE>
-13.6598

>  <SCORE.INTER>
-1.39657

>  <SCORE.INTER.CONST>
1

>  <SCORE.INTER.POLAR>
0

>  <SCORE.INTER.ROT>
9

>  <SCORE.INTER.SOLV>
13.777

>  <SCORE.INTER.VDW>
-15.1234

>  <SCORE.INTER.norm>
-0.107429

>  <SCORE.INTRA>
-12.2632

>  <SCORE.INTRA.DIHEDRAL>
-23.4381

>  <SCORE.INTRA.DIHEDRAL.0>
25.6828

>  <SCORE.INTRA.POLAR>
0

>  <SCORE.INTRA.POLAR.0>
0

>  <SCORE.INTRA.REPUL>
0

>  <SCORE.INTRA.REPUL.0>
0

>  <SCORE.INTRA.SOLV>
-1.54179

>  <SCORE.INTRA.SOLV.lig_0>
-48.5059

>  <SCORE.INTRA.VDW>
0.226704

>  <SCORE.INTRA.VDW.0>
-0.363643

>  <SCORE.INTRA.norm>
-0.943326

>  <SCORE.RESTR>
0

>  <SCORE.RESTR.CAVITY>
0

>  <SCORE.RESTR.norm>
0

>  <SCORE.SYSTEM>
0

>  <SCORE.SYSTEM.CONST>
0

>  <SCORE.SYSTEM.DIHEDRAL>
0

>  <SCORE.SYSTEM.SOLV>
0

>  <SCORE.SYSTEM.norm>
0

>  <SCORE.heavy>
13

>  <SCORE.norm>
-1.05075

>  <RMSD>
13.277

$$$$
ligand
 OpenBabel11021811453D
libRbt.so/2013.1/901 2013/11/27
 13 12  0  0  0  0  0  0  0  0999 V2000
   21.6618   29.5472   51.3279 O   0  0  0  0  0  0  0  0  0  0  0  0
   20.3089   26.1364   50.4947 O   0  0  0  0  0  0  0  0  0  0  0  0
   22.8318   33.7414   48.7465 P   0  0  2  0  0  0  0  0  0  0  0  0
   22.1175   34.2805   47.5529 O   0  5  0  0  0  0  0  0  0  0  0  0
   24.3097   33.8680   48.8279 O   0  0  0  0  0  0  0  0  0  0  0  0
   22.4796   32.2022   48.9014 O   0  0  0  0  0  0  0  0  0  0  0  0
   18.8977   23.7628   51.1180 O   0  0  0  0  0  0  0  0  0  0  0  0
   22.2503   31.6226   50.1938 C   0  0  0  0  0  0  0  0  0  0  0  0
   20.3975   27.5843   50.4857 C   0  0  0  0  0  0  0  0  0  0  0  0
   19.1795   24.0943   49.7659 C   0  0  0  0  0  0  0  0  0  0  0  0
   22.0653   30.1014   50.0613 C   0  0  0  0  0  0  0  0  0  0  0  0
   21.5870   28.0943   51.3359 C   0  0  0  0  0  0  0  0  0  0  0  0
   19.2463   25.6279   49.6546 C   0  0  0  0  0  0  0  0  0  0  0  0
  1 12  1  0  0  0  0
  1 11  1  0  0  0  0
  2 13  1  0  0  0  0
  2  9  1  0  0  0  0
  3  4  1  6  0  0  0
  3  5  2  0  0  0  0
  3  6  1  0  0  0  0
  6  8  1  0  0  0  0
  7 10  1  0  0  0  0
  8 11  1  0  0  0  0
  9 12  1  0  0  0  0
 10 13  1  0  0  0  0
M  CHG  1   4  -1
M  END
>  <CHROM.1>
-70.21707757,-177.55867333,-140.28152638,-174.56651753,-172.45810502,-177.11062498
-179.60718288,61.22481265,-174.35753206,21.47016967,29.67812423,49.78089732
-2.22011820,-0.92110496,-0.75505078

>  <Name>
ligand

>  <RI>
0

>  <Rbt.Current_Directory>
/home/itssahil/PROJECTS/Mol_Feturizer/New_Systems/rnas/2NPY

>  <Rbt.Executable>
rbdock ($Id: //depot/dev/client3/rdock/2013.1/src/exe/rbdock.cxx#4 $)

>  <Rbt.Library>
libRbt.so (2013.1, Build901 2013/11/27)

>  <Rbt.Parameter_File>
/export/apps/rDock/src/rDock_2013.1_src/data/scripts/dock_solv.prm

>  <Rbt.Receptor>
prm/blind_docking_80.prm

>  <SCORE>
-13.6727

>  <SCORE.INTER>
-0.96425

>  <SCORE.INTER.CONST>
1

>  <SCORE.INTER.POLAR>
0

>  <SCORE.INTER.ROT>
9

>  <SCORE.INTER.SOLV>
16.4041

>  <SCORE.INTER.VDW>
-15.7109

>  <SCORE.INTER.norm>
-0.074173

>  <SCORE.INTRA>
-12.7085

>  <SCORE.INTRA.DIHEDRAL>
-23.6092

>  <SCORE.INTRA.DIHEDRAL.0>
25.6828

>  <SCORE.INTRA.POLAR>
0

>  <SCORE.INTRA.POLAR.0>
0

>  <SCORE.INTRA.REPUL>
0

>  <SCORE.INTRA.REPUL.0>
0

>  <SCORE.INTRA.SOLV>
-1.42725

>  <SCORE.INTRA.SOLV.lig_0>
-48.5059

>  <SCORE.INTRA.VDW>
-0.19022

>  <SCORE.INTRA.VDW.0>
-0.363643

>  <SCORE.INTRA.norm>
-0.977574

>  <SCORE.RESTR>
0

>  <SCORE.RESTR.CAVITY>
0

>  <SCORE.RESTR.norm>
0

>  <SCORE.SYSTEM>
0

>  <SCORE.SYSTEM.CONST>
0

>  <SCORE.SYSTEM.DIHEDRAL>
0

>  <SCORE.SYSTEM.SOLV>
0

>  <SCORE.SYSTEM.norm>
0

>  <SCORE.heavy>
13

>  <SCORE.norm>
-1.05175

>  <RMSD>
13.281

$$$$
ligand
 OpenBabel11021811453D
libRbt.so/2013.1/901 2013/11/27
 13 12  0  0  0  0  0  0  0  0999 V2000
   24.2464   24.2057   49.3184 O   0  0  0  0  0  0  0  0  0  0  0  0
   24.5031   22.7397   51.7707 O   0  0  0  0  0  0  0  0  0  0  0  0
   25.3086   28.3353   48.8286 P   0  0  2  0  0  0  0  0  0  0  0  0
   26.5553   28.1698   49.6310 O   0  5  0  0  0  0  0  0  0  0  0  0
   24.2520   29.2620   49.3097 O   0  0  0  0  0  0  0  0  0  0  0  0
   24.6353   26.9124   48.6304 O   0  0  0  0  0  0  0  0  0  0  0  0
   26.4918   21.7402   53.6024 O   0  0  0  0  0  0  0  0  0  0  0  0
   25.2984   25.8772   47.8903 C   0  0  0  0  0  0  0  0  0  0  0  0
   23.3050   22.6042   50.9644 C   0  0  0  0  0  0  0  0  0  0  0  0
   25.5651   22.7508   53.9728 C   0  0  0  0  0  0  0  0  0  0  0  0
   24.4725   24.5809   47.9463 C   0  0  0  0  0  0  0  0  0  0  0  0
   23.5741   22.9249   49.4735 C   0  0  0  0  0  0  0  0  0  0  0  0
   24.2656   22.5200   53.1810 C   0  0  0  0  0  0  0  0  0  0  0  0
  1 12  1  0  0  0  0
  1 11  1  0  0  0  0
  2 13  1  0  0  0  0
  2  9  1  0  0  0  0
  3  4  1  1  0  0  0
  3  5  2  0  0  0  0
  3  6  1  0  0  0  0
  6  8  1  0  0  0  0
  7 10  1  0  0  0  0
  8 11  1  0  0  0  0
  9 12  1  0  0  0  0
 10 13  1  0  0  0  0
M  CHG  1   4  -1
M  END
>  <CHROM.1>
-177.57442140,-177.15789101,-64.05205424,175.77259293,-56.25246103,176.69866313
-51.25820070,-66.35323672,-174.80907953,24.86328634,25.13811264,50.22737237
1.63172448,1.04880754,2.49276773

>  <Name>
ligand

>  <RI>
0

>  <Rbt.Current_Directory>
/home/itssahil/PROJECTS/Mol_Feturizer/New_Systems/rnas/2NPY

>  <Rbt.Executable>
rbdock ($Id: //depot/dev/client3/rdock/2013.1/src/exe/rbdock.cxx#4 $)

>  <Rbt.Library>
libRbt.so (2013.1, Build901 2013/11/27)

>  <Rbt.Parameter_File>
/export/apps/rDock/src/rDock_2013.1_src/data/scripts/dock_solv.prm

>  <Rbt.Receptor>
prm/blind_docking_100.prm

>  <SCORE>
-15.1514

>  <SCORE.INTER>
-1.11024

>  <SCORE.INTER.CONST>
1

>  <SCORE.INTER.POLAR>
0

>  <SCORE.INTER.ROT>
9

>  <SCORE.INTER.SOLV>
12.6901

>  <SCORE.INTER.VDW>
-14.5702

>  <SCORE.INTER.norm>
-0.0854034

>  <SCORE.INTRA>
-14.0411

>  <SCORE.INTRA.DIHEDRAL>
-24.7341

>  <SCORE.INTRA.DIHEDRAL.0>
25.6828

>  <SCORE.INTRA.POLAR>
0

>  <SCORE.INTRA.POLAR.0>
0

>  <SCORE.INTRA.REPUL>
0

>  <SCORE.INTRA.REPUL.0>
0

>  <SCORE.INTRA.SOLV>
-1.02035

>  <SCORE.INTRA.SOLV.lig_0>
-48.5059

>  <SCORE.INTRA.VDW>
-1.16394

>  <SCORE.INTRA.VDW.0>
-0.363643

>  <SCORE.INTRA.norm>
-1.08009

>  <SCORE.RESTR>
0

>  <SCORE.RESTR.CAVITY>
0

>  <SCORE.RESTR.norm>
0

>  <SCORE.SYSTEM>
0

>  <SCORE.SYSTEM.CONST>
0

>  <SCORE.SYSTEM.DIHEDRAL>
0

>  <SCORE.SYSTEM.SOLV>
0

>  <SCORE.SYSTEM.norm>
0

>  <SCORE.heavy>
13

>  <SCORE.norm>
-1.16549

>  <RMSD>
13.327

$$$$
ligand
 OpenBabel11021811453D
libRbt.so/2013.1/901 2013/11/27
 13 12  0  0  0  0  0  0  0  0999 V2000
   21.0198   28.7055   51.6181 O   0  0  0  0  0  0  0  0  0  0  0  0
   23.9324   29.2055   51.8046 O   0  0  0  0  0  0  0  0  0  0  0  0
   19.7324   24.6123   48.9306 P   0  0  2  0  0  0  0  0  0  0  0  0
   20.5758   24.9833   47.7574 O   0  5  0  0  0  0  0  0  0  0  0  0
   18.4325   23.9296   48.7046 O   0  0  0  0  0  0  0  0  0  0  0  0
   19.4391   25.9179   49.7830 O   0  0  0  0  0  0  0  0  0  0  0  0
   25.1806   28.2294   54.1617 O   0  0  0  0  0  0  0  0  0  0  0  0
   20.5107   26.7034   50.3248 C   0  0  0  0  0  0  0  0  0  0  0  0
   23.0041   30.1324   51.1856 C   0  0  0  0  0  0  0  0  0  0  0  0
   25.9522   28.8248   53.1284 C   0  0  0  0  0  0  0  0  0  0  0  0
   19.9413   27.9019   51.1028 C   0  0  0  0  0  0  0  0  0  0  0  0
   21.7743   29.4046   50.5892 C   0  0  0  0  0  0  0  0  0  0  0  0
   25.0699   29.8623   52.4115 C   0  0  0  0  0  0  0  0  0  0  0  0
  1 12  1  0  0  0  0
  1 11  1  0  0  0  0
  2 13  1  0  0  0  0
  2  9  1  0  0  0  0
  3  4  1  6  0  0  0
  3  5  2  0  0  0  0
  3  6  1  0  0  0  0
  6  8  1  0  0  0  0
  7 10  1  0  0  0  0
  8 11  1  0  0  0  0
  9 12  1  0  0  0  0
 10 13  1  0  0  0  0
M  CHG  1   4  -1
M  END
>  <CHROM.1>
-174.16306960,176.06080095,-58.19586197,-179.91638411,-178.63499675,-177.99600207
61.44302017,-62.15566739,68.76801251,21.69070219,27.29122041,50.71411423
0.74134709,-0.45367971,0.26661837

>  <Name>
ligand

>  <RI>
0

>  <Rbt.Current_Directory>
/home/itssahil/PROJECTS/Mol_Feturizer/New_Systems/rnas/2NPY

>  <Rbt.Executable>
rbdock ($Id: //depot/dev/client3/rdock/2013.1/src/exe/rbdock.cxx#4 $)

>  <Rbt.Library>
libRbt.so (2013.1, Build901 2013/11/27)

>  <Rbt.Parameter_File>
/export/apps/rDock/src/rDock_2013.1_src/data/scripts/dock_solv.prm

>  <Rbt.Receptor>
prm/blind_docking_80.prm

>  <SCORE>
-11.7481

>  <SCORE.INTER>
1.34942

>  <SCORE.INTER.CONST>
1

>  <SCORE.INTER.POLAR>
0

>  <SCORE.INTER.ROT>
9

>  <SCORE.INTER.SOLV>
12.5047

>  <SCORE.INTER.VDW>
-12.8686

>  <SCORE.INTER.norm>
0.103801

>  <SCORE.INTRA>
-13.0975

>  <SCORE.INTRA.DIHEDRAL>
-24.9731

>  <SCORE.INTRA.DIHEDRAL.0>
25.6828

>  <SCORE.INTRA.POLAR>
0

>  <SCORE.INTRA.POLAR.0>
0

>  <SCORE.INTRA.REPUL>
0

>  <SCORE.INTRA.REPUL.0>
0

>  <SCORE.INTRA.SOLV>
-1.16642

>  <SCORE.INTRA.SOLV.lig_0>
-48.5059

>  <SCORE.INTRA.VDW>
-0.0277416

>  <SCORE.INTRA.VDW.0>
-0.363643

>  <SCORE.INTRA.norm>
-1.0075

>  <SCORE.RESTR>
0

>  <SCORE.RESTR.CAVITY>
0

>  <SCORE.RESTR.norm>
0

>  <SCORE.SYSTEM>
0

>  <SCORE.SYSTEM.CONST>
0

>  <SCORE.SYSTEM.DIHEDRAL>
0

>  <SCORE.SYSTEM.SOLV>
0

>  <SCORE.SYSTEM.norm>
0

>  <SCORE.heavy>
13

>  <SCORE.norm>
-0.9037

>  <RMSD>
13.344

$$$$
ligand
 OpenBabel11021811453D
libRbt.so/2013.1/901 2013/11/27
 13 12  0  0  0  0  0  0  0  0999 V2000
   25.7431   25.4782   53.3835 O   0  0  0  0  0  0  0  0  0  0  0  0
   24.1273   23.6041   51.7617 O   0  0  0  0  0  0  0  0  0  0  0  0
   23.9366   29.0355   51.2665 P   0  0  2  0  0  0  0  0  0  0  0  0
   22.7589   28.1676   51.5584 O   0  5  0  0  0  0  0  0  0  0  0  0
   23.8201   30.0956   50.2323 O   0  0  0  0  0  0  0  0  0  0  0  0
   25.1636   28.1141   50.8631 O   0  0  0  0  0  0  0  0  0  0  0  0
   24.1637   23.8657   48.9342 O   0  0  0  0  0  0  0  0  0  0  0  0
   25.8871   27.3704   51.8543 C   0  0  0  0  0  0  0  0  0  0  0  0
   24.8433   23.2044   52.9584 C   0  0  0  0  0  0  0  0  0  0  0  0
   23.2162   23.0197   49.5697 C   0  0  0  0  0  0  0  0  0  0  0  0
   25.0019   26.2446   52.4153 C   0  0  0  0  0  0  0  0  0  0  0  0
   24.9897   24.3756   53.9607 C   0  0  0  0  0  0  0  0  0  0  0  0
   23.8428   22.4970   50.8746 C   0  0  0  0  0  0  0  0  0  0  0  0
  1 12  1  0  0  0  0
  1 11  1  0  0  0  0
  2 13  1  0  0  0  0
  2  9  1  0  0  0  0
  3  4  1  6  0  0  0
  3  5  2  0  0  0  0
  3  6  1  0  0  0  0
  6  8  1  0  0  0  0
  7 10  1  0  0  0  0
  8 11  1  0  0  0  0
  9 12  1  0  0  0  0
 10 13  1  0  0  0  0
M  CHG  1   4  -1
M  END
>  <CHROM.1>
74.41756596,-174.15762548,-75.38323550,69.01655138,178.46424003,-173.43029529
-61.17915048,62.12669853,-179.32034284,24.37654472,26.08024150,51.46889788
-1.49906372,-1.12538259,0.00414924

>  <Name>
ligand

>  <RI>
0

>  <Rbt.Current_Directory>
/home/itssahil/PROJECTS/Mol_Feturizer/New_Systems/rnas/2NPY

>  <Rbt.Executable>
rbdock ($Id: //depot/dev/client3/rdock/2013.1/src/exe/rbdock.cxx#4 $)

>  <Rbt.Library>
libRbt.so (2013.1, Build901 2013/11/27)

>  <Rbt.Parameter_File>
/export/apps/rDock/src/rDock_2013.1_src/data/scripts/dock_solv.prm

>  <Rbt.Receptor>
prm/blind_docking_100.prm

>  <SCORE>
-9.02131

>  <SCORE.INTER>
2.65581

>  <SCORE.INTER.CONST>
1

>  <SCORE.INTER.POLAR>
0

>  <SCORE.INTER.ROT>
9

>  <SCORE.INTER.SOLV>
8.25326

>  <SCORE.INTER.VDW>
-10.5805

>  <SCORE.INTER.norm>
0.204293

>  <SCORE.INTRA>
-11.6771

>  <SCORE.INTRA.DIHEDRAL>
-23.4644

>  <SCORE.INTRA.DIHEDRAL.0>
25.6828

>  <SCORE.INTRA.POLAR>
0

>  <SCORE.INTRA.POLAR.0>
0

>  <SCORE.INTRA.REPUL>
0

>  <SCORE.INTRA.REPUL.0>
0

>  <SCORE.INTRA.SOLV>
0.427281

>  <SCORE.INTRA.SOLV.lig_0>
-48.5059

>  <SCORE.INTRA.VDW>
-0.158556

>  <SCORE.INTRA.VDW.0>
-0.363643

>  <SCORE.INTRA.norm>
-0.89824

>  <SCORE.RESTR>
0

>  <SCORE.RESTR.CAVITY>
0

>  <SCORE.RESTR.norm>
0

>  <SCORE.SYSTEM>
0

>  <SCORE.SYSTEM.CONST>
0

>  <SCORE.SYSTEM.DIHEDRAL>
0

>  <SCORE.SYSTEM.SOLV>
0

>  <SCORE.SYSTEM.norm>
0

>  <SCORE.heavy>
13

>  <SCORE.norm>
-0.693947

>  <RMSD>
13.351

$$$$
ligand
 OpenBabel11021811453D
libRbt.so/2013.1/901 2013/11/27
 13 12  0  0  0  0  0  0  0  0999 V2000
   22.9796   27.0200   52.0982 O   0  0  0  0  0  0  0  0  0  0  0  0
   19.5528   26.7484   50.6069 O   0  0  0  0  0  0  0  0  0  0  0  0
   26.7491   28.6839   53.6533 P   0  0  2  0  0  0  0  0  0  0  0  0
   26.6658   29.5751   54.8467 O   0  5  0  0  0  0  0  0  0  0  0  0
   27.0649   29.2730   52.3266 O   0  0  0  0  0  0  0  0  0  0  0  0
   25.3800   27.8956   53.5069 O   0  0  0  0  0  0  0  0  0  0  0  0
   18.7279   23.8920   48.4585 O   0  0  0  0  0  0  0  0  0  0  0  0
   25.3040   26.6804   52.7477 C   0  0  0  0  0  0  0  0  0  0  0  0
   20.7737   27.4085   51.0287 C   0  0  0  0  0  0  0  0  0  0  0  0
   18.4492   24.9982   49.3048 C   0  0  0  0  0  0  0  0  0  0  0  0
   23.8705   26.1243   52.7898 C   0  0  0  0  0  0  0  0  0  0  0  0
   21.6256   26.5072   51.9559 C   0  0  0  0  0  0  0  0  0  0  0  0
   19.7882   25.6471   49.6985 C   0  0  0  0  0  0  0  0  0  0  0  0
  1 12  1  0  0  0  0
  1 11  1  0  0  0  0
  2 13  1  0  0  0  0
  2  9  1  0  0  0  0
  3  4  1  1  0  0  0
  3  5  2  0  0  0  0
  3  6  1  0  0  0  0
  6  8  1  0  0  0  0
  7 10  1  0  0  0  0
  8 11  1  0  0  0  0
  9 12  1  0  0  0  0
 10 13  1  0  0  0  0
M  CHG  1   4  -1
M  END
>  <CHROM.1>
-171.51652999,179.74024449,-159.55096189,179.25816698,66.31842095,-69.24725186
165.41840514,-177.68959295,173.56742550,23.18564632,27.12133351,51.93343149
2.58001393,0.28891665,-2.69712715

>  <Name>
ligand

>  <RI>
0

>  <Rbt.Current_Directory>
/home/itssahil/PROJECTS/Mol_Feturizer/New_Systems/rnas/2NPY

>  <Rbt.Executable>
rbdock ($Id: //depot/dev/client3/rdock/2013.1/src/exe/rbdock.cxx#4 $)

>  <Rbt.Library>
libRbt.so (2013.1, Build901 2013/11/27)

>  <Rbt.Parameter_File>
/export/apps/rDock/src/rDock_2013.1_src/data/scripts/dock_solv.prm

>  <Rbt.Receptor>
prm/blind_docking_100.prm

>  <SCORE>
-10.3799

>  <SCORE.INTER>
2.29858

>  <SCORE.INTER.CONST>
1

>  <SCORE.INTER.POLAR>
0

>  <SCORE.INTER.ROT>
9

>  <SCORE.INTER.SOLV>
5.0274

>  <SCORE.INTER.VDW>
-9.74341

>  <SCORE.INTER.norm>
0.176814

>  <SCORE.INTRA>
-12.6785

>  <SCORE.INTRA.DIHEDRAL>
-23.516

>  <SCORE.INTRA.DIHEDRAL.0>
25.6828

>  <SCORE.INTRA.POLAR>
0

>  <SCORE.INTRA.POLAR.0>
0

>  <SCORE.INTRA.REPUL>
0

>  <SCORE.INTRA.REPUL.0>
0

>  <SCORE.INTRA.SOLV>
-1.50932

>  <SCORE.INTRA.SOLV.lig_0>
-48.5059

>  <SCORE.INTRA.VDW>
-0.165854

>  <SCORE.INTRA.VDW.0>
-0.363643

>  <SCORE.INTRA.norm>
-0.975271

>  <SCORE.RESTR>
0

>  <SCORE.RESTR.CAVITY>
0

>  <SCORE.RESTR.norm>
0

>  <SCORE.SYSTEM>
0

>  <SCORE.SYSTEM.CONST>
0

>  <SCORE.SYSTEM.DIHEDRAL>
0

>  <SCORE.SYSTEM.SOLV>
0

>  <SCORE.SYSTEM.norm>
0

>  <SCORE.heavy>
13

>  <SCORE.norm>
-0.798457

>  <RMSD>
13.372

$$$$
ligand
 OpenBabel11021811453D
libRbt.so/2013.1/901 2013/11/27
 13 12  0  0  0  0  0  0  0  0999 V2000
   21.8291   28.5041   51.2028 O   0  0  0  0  0  0  0  0  0  0  0  0
   24.6108   29.3916   51.0460 O   0  0  0  0  0  0  0  0  0  0  0  0
   19.0300   24.5005   49.9331 P   0  0  2  0  0  0  0  0  0  0  0  0
   18.1863   24.2318   48.7325 O   0  5  0  0  0  0  0  0  0  0  0  0
   18.5299   24.1081   51.2758 O   0  0  0  0  0  0  0  0  0  0  0  0
   19.3640   26.0506   49.9872 O   0  0  0  0  0  0  0  0  0  0  0  0
   28.1671   28.9569   51.8310 O   0  0  0  0  0  0  0  0  0  0  0  0
   20.4260   26.5498   50.8129 C   0  0  0  0  0  0  0  0  0  0  0  0
   23.5492   30.2681   51.5031 C   0  0  0  0  0  0  0  0  0  0  0  0
   26.9518   28.6939   51.1445 C   0  0  0  0  0  0  0  0  0  0  0  0
   20.6145   28.0570   50.5708 C   0  0  0  0  0  0  0  0  0  0  0  0
   22.1796   29.8815   50.8927 C   0  0  0  0  0  0  0  0  0  0  0  0
   25.8863   29.6734   51.6682 C   0  0  0  0  0  0  0  0  0  0  0  0
  1 12  1  0  0  0  0
  1 11  1  0  0  0  0
  2 13  1  0  0  0  0
  2  9  1  0  0  0  0
  3  4  1  6  0  0  0
  3  5  2  0  0  0  0
  3  6  1  0  0  0  0
  6  8  1  0  0  0  0
  7 10  1  0  0  0  0
  8 11  1  0  0  0  0
  9 12  1  0  0  0  0
 10 13  1  0  0  0  0
M  CHG  1   4  -1
M  END
>  <CHROM.1>
-175.32342902,179.34081918,-163.60192129,174.60491269,-169.30876992,-176.15097148
57.46867726,-176.90972463,172.87045384,21.97020570,27.31498070,50.73695911
0.58235032,-0.11879070,0.13027750

>  <Name>
ligand

>  <RI>
0

>  <Rbt.Current_Directory>
/home/itssahil/PROJECTS/Mol_Feturizer/New_Systems/rnas/2NPY

>  <Rbt.Executable>
rbdock ($Id: //depot/dev/client3/rdock/2013.1/src/exe/rbdock.cxx#4 $)

>  <Rbt.Library>
libRbt.so (2013.1, Build901 2013/11/27)

>  <Rbt.Parameter_File>
/export/apps/rDock/src/rDock_2013.1_src/data/scripts/dock_solv.prm

>  <Rbt.Receptor>
prm/blind_docking_80.prm

>  <SCORE>
-11.3479

>  <SCORE.INTER>
2.581

>  <SCORE.INTER.CONST>
1

>  <SCORE.INTER.POLAR>
0

>  <SCORE.INTER.ROT>
9

>  <SCORE.INTER.SOLV>
14.6902

>  <SCORE.INTER.VDW>
-12.7761

>  <SCORE.INTER.norm>
0.198539

>  <SCORE.INTRA>
-13.9289

>  <SCORE.INTRA.DIHEDRAL>
-24.4701

>  <SCORE.INTRA.DIHEDRAL.0>
25.6828

>  <SCORE.INTRA.POLAR>
0

>  <SCORE.INTRA.POLAR.0>
0

>  <SCORE.INTRA.REPUL>
0

>  <SCORE.INTRA.REPUL.0>
0

>  <SCORE.INTRA.SOLV>
-1.46809

>  <SCORE.INTRA.SOLV.lig_0>
-48.5059

>  <SCORE.INTRA.VDW>
-0.9598

>  <SCORE.INTRA.VDW.0>
-0.363643

>  <SCORE.INTRA.norm>
-1.07145

>  <SCORE.RESTR>
0

>  <SCORE.RESTR.CAVITY>
0

>  <SCORE.RESTR.norm>
0

>  <SCORE.SYSTEM>
0

>  <SCORE.SYSTEM.CONST>
0

>  <SCORE.SYSTEM.DIHEDRAL>
0

>  <SCORE.SYSTEM.SOLV>
0

>  <SCORE.SYSTEM.norm>
0

>  <SCORE.heavy>
13

>  <SCORE.norm>
-0.872914

>  <RMSD>
13.392

$$$$
ligand
 OpenBabel11021811453D
libRbt.so/2013.1/901 2013/11/27
 13 12  0  0  0  0  0  0  0  0999 V2000
   21.5290   29.5871   50.4884 O   0  0  0  0  0  0  0  0  0  0  0  0
   20.6715   26.0045   51.2508 O   0  0  0  0  0  0  0  0  0  0  0  0
   22.7002   33.0673   47.9798 P   0  0  2  0  0  0  0  0  0  0  0  0
   21.2944   33.4438   47.6521 O   0  5  0  0  0  0  0  0  0  0  0  0
   23.6467   32.7607   46.8766 O   0  0  0  0  0  0  0  0  0  0  0  0
   22.6806   31.8113   48.9491 O   0  0  0  0  0  0  0  0  0  0  0  0
   19.0468   22.7431   50.8260 O   0  0  0  0  0  0  0  0  0  0  0  0
   22.1956   31.9234   50.2948 C   0  0  0  0  0  0  0  0  0  0  0  0
   20.5520   27.3098   50.6295 C   0  0  0  0  0  0  0  0  0  0  0  0
   19.9403   23.6774   51.4143 C   0  0  0  0  0  0  0  0  0  0  0  0
   22.4006   30.5929   51.0389 C   0  0  0  0  0  0  0  0  0  0  0  0
   21.6088   28.3043   51.1699 C   0  0  0  0  0  0  0  0  0  0  0  0
   19.7537   25.0293   50.7028 C   0  0  0  0  0  0  0  0  0  0  0  0
  1 12  1  0  0  0  0
  1 11  1  0  0  0  0
  2 13  1  0  0  0  0
  2  9  1  0  0  0  0
  3  4  1  6  0  0  0
  3  5  2  0  0  0  0
  3  6  1  0  0  0  0
  6  8  1  0  0  0  0
  7 10  1  0  0  0  0
  8 11  1  0  0  0  0
  9 12  1  0  0  0  0
 10 13  1  0  0  0  0
M  CHG  1   4  -1
M  END
>  <CHROM.1>
174.26460713,-179.86368590,-68.42254075,-175.26066770,-68.51616338,-176.19708443
176.83071243,-178.58613577,-177.41030062,21.49680151,29.29892542,49.75256674
-0.69031065,1.17761662,1.96370461

>  <Name>
ligand

>  <RI>
0

>  <Rbt.Current_Directory>
/home/itssahil/PROJECTS/Mol_Feturizer/New_Systems/rnas/2NPY

>  <Rbt.Executable>
rbdock ($Id: //depot/dev/client3/rdock/2013.1/src/exe/rbdock.cxx#4 $)

>  <Rbt.Library>
libRbt.so (2013.1, Build901 2013/11/27)

>  <Rbt.Parameter_File>
/export/apps/rDock/src/rDock_2013.1_src/data/scripts/dock_solv.prm

>  <Rbt.Receptor>
prm/blind_docking_80.prm

>  <SCORE>
-12.6523

>  <SCORE.INTER>
1.49715

>  <SCORE.INTER.CONST>
1

>  <SCORE.INTER.POLAR>
0

>  <SCORE.INTER.ROT>
9

>  <SCORE.INTER.SOLV>
7.84782

>  <SCORE.INTER.VDW>
-11.2178

>  <SCORE.INTER.norm>
0.115166

>  <SCORE.INTRA>
-14.1494

>  <SCORE.INTRA.DIHEDRAL>
-24.7747

>  <SCORE.INTRA.DIHEDRAL.0>
25.6828

>  <SCORE.INTRA.POLAR>
0

>  <SCORE.INTRA.POLAR.0>
0

>  <SCORE.INTRA.REPUL>
0

>  <SCORE.INTRA.REPUL.0>
0

>  <SCORE.INTRA.SOLV>
-1.62431

>  <SCORE.INTRA.SOLV.lig_0>
-48.5059

>  <SCORE.INTRA.VDW>
-0.949908

>  <SCORE.INTRA.VDW.0>
-0.363643

>  <SCORE.INTRA.norm>
-1.08842

>  <SCORE.RESTR>
0

>  <SCORE.RESTR.CAVITY>
0

>  <SCORE.RESTR.norm>
0

>  <SCORE.SYSTEM>
0

>  <SCORE.SYSTEM.CONST>
0

>  <SCORE.SYSTEM.DIHEDRAL>
0

>  <SCORE.SYSTEM.SOLV>
0

>  <SCORE.SYSTEM.norm>
0

>  <SCORE.heavy>
13

>  <SCORE.norm>
-0.973251

>  <RMSD>
13.393

$$$$
ligand
 OpenBabel11021811453D
libRbt.so/2013.1/901 2013/11/27
 13 12  0  0  0  0  0  0  0  0999 V2000
   21.8221   28.0553   50.8703 O   0  0  0  0  0  0  0  0  0  0  0  0
   24.3087   28.1779   49.5148 O   0  0  0  0  0  0  0  0  0  0  0  0
   19.3328   24.9572   49.1076 P   0  0  2  0  0  0  0  0  0  0  0  0
   20.0520   24.4922   47.8861 O   0  5  0  0  0  0  0  0  0  0  0  0
   17.8514   25.0648   49.0823 O   0  0  0  0  0  0  0  0  0  0  0  0
   19.9031   26.3769   49.5276 O   0  0  0  0  0  0  0  0  0  0  0  0
   24.7634   25.6514   48.4977 O   0  0  0  0  0  0  0  0  0  0  0  0
   19.6723   26.9074   50.8407 C   0  0  0  0  0  0  0  0  0  0  0  0
   24.0980   29.0256   50.6729 C   0  0  0  0  0  0  0  0  0  0  0  0
   25.7566   26.6431   48.2800 C   0  0  0  0  0  0  0  0  0  0  0  0
   20.4012   28.2527   50.9986 C   0  0  0  0  0  0  0  0  0  0  0  0
   22.5936   29.2872   50.9298 C   0  0  0  0  0  0  0  0  0  0  0  0
   25.6611   27.6725   49.4202 C   0  0  0  0  0  0  0  0  0  0  0  0
  1 12  1  0  0  0  0
  1 11  1  0  0  0  0
  2 13  1  0  0  0  0
  2  9  1  0  0  0  0
  3  4  1  6  0  0  0
  3  5  2  0  0  0  0
  3  6  1  0  0  0  0
  6  8  1  0  0  0  0
  7 10  1  0  0  0  0
  8 11  1  0  0  0  0
  9 12  1  0  0  0  0
 10 13  1  0  0  0  0
M  CHG  1   4  -1
M  END
>  <CHROM.1>
-175.41744507,172.64801647,-163.02923438,176.78383537,-62.65863901,-167.03418826
47.23995271,-54.02510075,176.68958223,21.76945676,26.76799729,49.59478766
0.35245330,0.20626504,0.64322227

>  <Name>
ligand

>  <RI>
0

>  <Rbt.Current_Directory>
/home/itssahil/PROJECTS/Mol_Feturizer/New_Systems/rnas/2NPY

>  <Rbt.Executable>
rbdock ($Id: //depot/dev/client3/rdock/2013.1/src/exe/rbdock.cxx#4 $)

>  <Rbt.Library>
libRbt.so (2013.1, Build901 2013/11/27)

>  <Rbt.Parameter_File>
/export/apps/rDock/src/rDock_2013.1_src/data/scripts/dock_solv.prm

>  <Rbt.Receptor>
prm/blind_docking_100.prm

>  <SCORE>
-11.1671

>  <SCORE.INTER>
2.26731

>  <SCORE.INTER.CONST>
1

>  <SCORE.INTER.POLAR>
0

>  <SCORE.INTER.ROT>
9

>  <SCORE.INTER.SOLV>
16.5046

>  <SCORE.INTER.VDW>
-13.59

>  <SCORE.INTER.norm>
0.174408

>  <SCORE.INTRA>
-13.4344

>  <SCORE.INTRA.DIHEDRAL>
-23.4878

>  <SCORE.INTRA.DIHEDRAL.0>
25.6828

>  <SCORE.INTRA.POLAR>
0

>  <SCORE.INTRA.POLAR.0>
0

>  <SCORE.INTRA.REPUL>
0

>  <SCORE.INTRA.REPUL.0>
0

>  <SCORE.INTRA.SOLV>
-1.01683

>  <SCORE.INTRA.SOLV.lig_0>
-48.5059

>  <SCORE.INTRA.VDW>
-1.18212

>  <SCORE.INTRA.VDW.0>
-0.363643

>  <SCORE.INTRA.norm>
-1.03342

>  <SCORE.RESTR>
0

>  <SCORE.RESTR.CAVITY>
0

>  <SCORE.RESTR.norm>
0

>  <SCORE.SYSTEM>
0

>  <SCORE.SYSTEM.CONST>
0

>  <SCORE.SYSTEM.DIHEDRAL>
0

>  <SCORE.SYSTEM.SOLV>
0

>  <SCORE.SYSTEM.norm>
0

>  <SCORE.heavy>
13

>  <SCORE.norm>
-0.859009

>  <RMSD>
13.421

$$$$
ligand
 OpenBabel11021811453D
libRbt.so/2013.1/901 2013/11/27
 13 12  0  0  0  0  0  0  0  0999 V2000
   22.9334   25.4160   52.0213 O   0  0  0  0  0  0  0  0  0  0  0  0
   20.3816   24.5709   50.7534 O   0  0  0  0  0  0  0  0  0  0  0  0
   27.1926   28.1468   51.8326 P   0  0  2  0  0  0  0  0  0  0  0  0
   26.9754   28.9913   53.0430 O   0  5  0  0  0  0  0  0  0  0  0  0
   26.8919   28.7086   50.4906 O   0  0  0  0  0  0  0  0  0  0  0  0
   26.3526   26.8094   51.9846 O   0  0  0  0  0  0  0  0  0  0  0  0
   19.1194   23.9443   48.2861 O   0  0  0  0  0  0  0  0  0  0  0  0
   24.9190   26.8260   51.9258 C   0  0  0  0  0  0  0  0  0  0  0  0
   20.7769   24.1894   52.0959 C   0  0  0  0  0  0  0  0  0  0  0  0
   18.6100   24.9766   49.1183 C   0  0  0  0  0  0  0  0  0  0  0  0
   24.3686   25.4061   52.1419 C   0  0  0  0  0  0  0  0  0  0  0  0
   22.3166   24.1176   52.2450 C   0  0  0  0  0  0  0  0  0  0  0  0
   18.9463   24.6225   50.5779 C   0  0  0  0  0  0  0  0  0  0  0  0
  1 12  1  0  0  0  0
  1 11  1  0  0  0  0
  2 13  1  0  0  0  0
  2  9  1  0  0  0  0
  3  4  1  1  0  0  0
  3  5  2  0  0  0  0
  3  6  1  0  0  0  0
  6  8  1  0  0  0  0
  7 10  1  0  0  0  0
  8 11  1  0  0  0  0
  9 12  1  0  0  0  0
 10 13  1  0  0  0  0
M  CHG  1   4  -1
M  END
>  <CHROM.1>
-179.73758773,-177.69236635,69.43916926,-178.37966006,-177.37806022,178.94271596
62.60519873,62.27255081,-178.50242859,23.43210582,26.11043628,51.30585316
-3.10385763,-0.51955782,-1.03142662

>  <Name>
ligand

>  <RI>
0

>  <Rbt.Current_Directory>
/home/itssahil/PROJECTS/Mol_Feturizer/New_Systems/rnas/2NPY

>  <Rbt.Executable>
rbdock ($Id: //depot/dev/client3/rdock/2013.1/src/exe/rbdock.cxx#4 $)

>  <Rbt.Library>
libRbt.so (2013.1, Build901 2013/11/27)

>  <Rbt.Parameter_File>
/export/apps/rDock/src/rDock_2013.1_src/data/scripts/dock_solv.prm

>  <Rbt.Receptor>
prm/blind_docking_100.prm

>  <SCORE>
-10.5528

>  <SCORE.INTER>
3.54486

>  <SCORE.INTER.CONST>
1

>  <SCORE.INTER.POLAR>
0

>  <SCORE.INTER.ROT>
9

>  <SCORE.INTER.SOLV>
7.86959

>  <SCORE.INTER.VDW>
-9.85995

>  <SCORE.INTER.norm>
0.272682

>  <SCORE.INTRA>
-14.0977

>  <SCORE.INTRA.DIHEDRAL>
-25.5072

>  <SCORE.INTRA.DIHEDRAL.0>
25.6828

>  <SCORE.INTRA.POLAR>
0

>  <SCORE.INTRA.POLAR.0>
0

>  <SCORE.INTRA.REPUL>
0

>  <SCORE.INTRA.REPUL.0>
0

>  <SCORE.INTRA.SOLV>
-0.737041

>  <SCORE.INTRA.SOLV.lig_0>
-48.5059

>  <SCORE.INTRA.VDW>
-0.975527

>  <SCORE.INTRA.VDW.0>
-0.363643

>  <SCORE.INTRA.norm>
-1.08444

>  <SCORE.RESTR>
0

>  <SCORE.RESTR.CAVITY>
0

>  <SCORE.RESTR.norm>
0

>  <SCORE.SYSTEM>
0

>  <SCORE.SYSTEM.CONST>
0

>  <SCORE.SYSTEM.DIHEDRAL>
0

>  <SCORE.SYSTEM.SOLV>
0

>  <SCORE.SYSTEM.norm>
0

>  <SCORE.heavy>
13

>  <SCORE.norm>
-0.811754

>  <RMSD>
13.593

$$$$
ligand
 OpenBabel11021811453D
libRbt.so/2013.1/901 2013/11/27
 13 12  0  0  0  0  0  0  0  0999 V2000
   20.6475   27.5340   50.0185 O   0  0  0  0  0  0  0  0  0  0  0  0
   23.0577   29.1122   50.4494 O   0  0  0  0  0  0  0  0  0  0  0  0
   19.3458   23.1047   47.9950 P   0  0  2  0  0  0  0  0  0  0  0  0
   18.4953   21.9561   48.4226 O   0  5  0  0  0  0  0  0  0  0  0  0
   20.7855   22.8765   47.7088 O   0  0  0  0  0  0  0  0  0  0  0  0
   19.2572   24.2443   49.0954 O   0  0  0  0  0  0  0  0  0  0  0  0
   24.2386   32.1773   48.8159 O   0  0  0  0  0  0  0  0  0  0  0  0
   19.8585   25.5291   48.8794 C   0  0  0  0  0  0  0  0  0  0  0  0
   21.7816   29.5025   51.0182 C   0  0  0  0  0  0  0  0  0  0  0  0
   23.3525   31.0910   49.0444 C   0  0  0  0  0  0  0  0  0  0  0  0
   19.8917   26.3211   50.1975 C   0  0  0  0  0  0  0  0  0  0  0  0
   20.8558   28.2828   51.2483 C   0  0  0  0  0  0  0  0  0  0  0  0
   23.9295   30.2368   50.1873 C   0  0  0  0  0  0  0  0  0  0  0  0
  1 12  1  0  0  0  0
  1 11  1  0  0  0  0
  2 13  1  0  0  0  0
  2  9  1  0  0  0  0
  3  4  1  1  0  0  0
  3  5  2  0  0  0  0
  3  6  1  0  0  0  0
  6  8  1  0  0  0  0
  7 10  1  0  0  0  0
  8 11  1  0  0  0  0
  9 12  1  0  0  0  0
 10 13  1  0  0  0  0
M  CHG  1   4  -1
M  END
>  <CHROM.1>
174.73086167,-68.20046739,-173.07619656,-167.73111161,172.60884591,178.31438366
-56.24435745,-179.75440666,-173.82304497,21.03763336,26.71336969,49.32808692
0.88120106,0.77158342,0.72159434

>  <Name>
ligand

>  <RI>
0

>  <Rbt.Current_Directory>
/home/itssahil/PROJECTS/Mol_Feturizer/New_Systems/rnas/2NPY

>  <Rbt.Executable>
rbdock ($Id: //depot/dev/client3/rdock/2013.1/src/exe/rbdock.cxx#4 $)

>  <Rbt.Library>
libRbt.so (2013.1, Build901 2013/11/27)

>  <Rbt.Parameter_File>
/export/apps/rDock/src/rDock_2013.1_src/data/scripts/dock_solv.prm

>  <Rbt.Receptor>
prm/blind_docking_100.prm

>  <SCORE>
-6.63956

>  <SCORE.INTER>
5.81892

>  <SCORE.INTER.CONST>
1

>  <SCORE.INTER.POLAR>
0

>  <SCORE.INTER.ROT>
9

>  <SCORE.INTER.SOLV>
21.7718

>  <SCORE.INTER.VDW>
-12.978

>  <SCORE.INTER.norm>
0.447609

>  <SCORE.INTRA>
-12.4585

>  <SCORE.INTRA.DIHEDRAL>
-24.0115

>  <SCORE.INTRA.DIHEDRAL.0>
25.6828

>  <SCORE.INTRA.POLAR>
0

>  <SCORE.INTRA.POLAR.0>
0

>  <SCORE.INTRA.REPUL>
0

>  <SCORE.INTRA.REPUL.0>
0

>  <SCORE.INTRA.SOLV>
-1.25226

>  <SCORE.INTRA.SOLV.lig_0>
-48.5059

>  <SCORE.INTRA.VDW>
0.173417

>  <SCORE.INTRA.VDW.0>
-0.363643

>  <SCORE.INTRA.norm>
-0.958345

>  <SCORE.RESTR>
0

>  <SCORE.RESTR.CAVITY>
0

>  <SCORE.RESTR.norm>
0

>  <SCORE.SYSTEM>
0

>  <SCORE.SYSTEM.CONST>
0

>  <SCORE.SYSTEM.DIHEDRAL>
0

>  <SCORE.SYSTEM.SOLV>
0

>  <SCORE.SYSTEM.norm>
0

>  <SCORE.heavy>
13

>  <SCORE.norm>
-0.510735

>  <RMSD>
13.596

$$$$
ligand
 OpenBabel11021811453D
libRbt.so/2013.1/901 2013/11/27
 13 12  0  0  0  0  0  0  0  0999 V2000
   20.4240   28.2301   48.6220 O   0  0  0  0  0  0  0  0  0  0  0  0
   22.7705   28.0776   50.5045 O   0  0  0  0  0  0  0  0  0  0  0  0
   19.1288   25.1919   50.2932 P   0  0  2  0  0  0  0  0  0  0  0  0
   20.0768   26.0337   51.0793 O   0  5  0  0  0  0  0  0  0  0  0  0
   19.4017   23.7397   50.1394 O   0  0  0  0  0  0  0  0  0  0  0  0
   18.9888   25.8038   48.8361 O   0  0  0  0  0  0  0  0  0  0  0  0
   24.8691   26.6843   53.1711 O   0  0  0  0  0  0  0  0  0  0  0  0
   20.1236   25.9028   47.9636 C   0  0  0  0  0  0  0  0  0  0  0  0
   21.8789   29.2146   50.3754 C   0  0  0  0  0  0  0  0  0  0  0  0
   24.2773   26.7316   51.8808 C   0  0  0  0  0  0  0  0  0  0  0  0
   21.1014   26.9656   48.4931 C   0  0  0  0  0  0  0  0  0  0  0  0
   21.3086   29.3400   48.9412 C   0  0  0  0  0  0  0  0  0  0  0  0
   23.3673   27.9713   51.8183 C   0  0  0  0  0  0  0  0  0  0  0  0
  1 12  1  0  0  0  0
  1 11  1  0  0  0  0
  2 13  1  0  0  0  0
  2  9  1  0  0  0  0
  3  4  1  6  0  0  0
  3  5  2  0  0  0  0
  3  6  1  0  0  0  0
  6  8  1  0  0  0  0
  7 10  1  0  0  0  0
  8 11  1  0  0  0  0
  9 12  1  0  0  0  0
 10 13  1  0  0  0  0
M  CHG  1   4  -1
M  END
>  <CHROM.1>
-68.73940614,179.05359871,61.48539154,-69.54551373,-57.04067120,177.30618651
66.77113146,178.47335194,-172.03046422,21.16814976,26.74884769,50.18622003
3.05458065,0.62952729,2.53966778

>  <Name>
ligand

>  <RI>
0

>  <Rbt.Current_Directory>
/home/itssahil/PROJECTS/Mol_Feturizer/New_Systems/rnas/2NPY

>  <Rbt.Executable>
rbdock ($Id: //depot/dev/client3/rdock/2013.1/src/exe/rbdock.cxx#4 $)

>  <Rbt.Library>
libRbt.so (2013.1, Build901 2013/11/27)

>  <Rbt.Parameter_File>
/export/apps/rDock/src/rDock_2013.1_src/data/scripts/dock_solv.prm

>  <Rbt.Receptor>
prm/blind_docking_100.prm

>  <SCORE>
-8.66088

>  <SCORE.INTER>
1.94644

>  <SCORE.INTER.CONST>
1

>  <SCORE.INTER.POLAR>
0

>  <SCORE.INTER.ROT>
9

>  <SCORE.INTER.SOLV>
9.58245

>  <SCORE.INTER.VDW>
-11.4965

>  <SCORE.INTER.norm>
0.149726

>  <SCORE.INTRA>
-10.6073

>  <SCORE.INTRA.DIHEDRAL>
-24.2656

>  <SCORE.INTRA.DIHEDRAL.0>
25.6828

>  <SCORE.INTRA.POLAR>
0

>  <SCORE.INTRA.POLAR.0>
0

>  <SCORE.INTRA.REPUL>
0

>  <SCORE.INTRA.REPUL.0>
0

>  <SCORE.INTRA.SOLV>
3.62359

>  <SCORE.INTRA.SOLV.lig_0>
-48.5059

>  <SCORE.INTRA.VDW>
-0.286314

>  <SCORE.INTRA.VDW.0>
-0.363643

>  <SCORE.INTRA.norm>
-0.815948

>  <SCORE.RESTR>
0

>  <SCORE.RESTR.CAVITY>
0

>  <SCORE.RESTR.norm>
0

>  <SCORE.SYSTEM>
0

>  <SCORE.SYSTEM.CONST>
0

>  <SCORE.SYSTEM.DIHEDRAL>
0

>  <SCORE.SYSTEM.SOLV>
0

>  <SCORE.SYSTEM.norm>
0

>  <SCORE.heavy>
13

>  <SCORE.norm>
-0.666222

>  <RMSD>
13.847

$$$$
ligand
 OpenBabel11021811453D
libRbt.so/2013.1/901 2013/11/27
 13 12  0  0  0  0  0  0  0  0999 V2000
   21.8673   28.2479   49.8873 O   0  0  0  0  0  0  0  0  0  0  0  0
   24.0590   26.5108   48.9404 O   0  0  0  0  0  0  0  0  0  0  0  0
   19.1452   24.8722   49.8124 P   0  0  2  0  0  0  0  0  0  0  0  0
   19.2003   24.2723   48.4477 O   0  5  0  0  0  0  0  0  0  0  0  0
   17.8443   24.9348   50.5270 O   0  0  0  0  0  0  0  0  0  0  0  0
   19.7195   26.3497   49.7452 O   0  0  0  0  0  0  0  0  0  0  0  0
   24.4875   23.9666   47.9424 O   0  0  0  0  0  0  0  0  0  0  0  0
   20.0012   27.0886   50.9426 C   0  0  0  0  0  0  0  0  0  0  0  0
   24.2495   27.5525   49.9317 C   0  0  0  0  0  0  0  0  0  0  0  0
   24.9910   25.0682   47.2005 C   0  0  0  0  0  0  0  0  0  0  0  0
   20.6236   28.4491   50.5853 C   0  0  0  0  0  0  0  0  0  0  0  0
   22.9592   27.8161   50.7462 C   0  0  0  0  0  0  0  0  0  0  0  0
   25.2575   26.2230   48.1825 C   0  0  0  0  0  0  0  0  0  0  0  0
  1 12  1  0  0  0  0
  1 11  1  0  0  0  0
  2 13  1  0  0  0  0
  2  9  1  0  0  0  0
  3  4  1  6  0  0  0
  3  5  2  0  0  0  0
  3  6  1  0  0  0  0
  6  8  1  0  0  0  0
  7 10  1  0  0  0  0
  8 11  1  0  0  0  0
  9 12  1  0  0  0  0
 10 13  1  0  0  0  0
M  CHG  1   4  -1
M  END
>  <CHROM.1>
177.32238435,177.44862005,-169.26988139,176.58994532,-61.48696036,-178.76567539
-60.54690220,-54.55993992,-74.33190975,21.61984053,26.11610949,49.47050965
-0.04870874,0.27230369,0.52015317

>  <Name>
ligand

>  <RI>
0

>  <Rbt.Current_Directory>
/home/itssahil/PROJECTS/Mol_Feturizer/New_Systems/rnas/2NPY

>  <Rbt.Executable>
rbdock ($Id: //depot/dev/client3/rdock/2013.1/src/exe/rbdock.cxx#4 $)

>  <Rbt.Library>
libRbt.so (2013.1, Build901 2013/11/27)

>  <Rbt.Parameter_File>
/export/apps/rDock/src/rDock_2013.1_src/data/scripts/dock_solv.prm

>  <Rbt.Receptor>
prm/blind_docking_100.prm

>  <SCORE>
-12.4522

>  <SCORE.INTER>
0.750668

>  <SCORE.INTER.CONST>
1

>  <SCORE.INTER.POLAR>
0

>  <SCORE.INTER.ROT>
9

>  <SCORE.INTER.SOLV>
17.1234

>  <SCORE.INTER.VDW>
-14.8074

>  <SCORE.INTER.norm>
0.0577437

>  <SCORE.INTRA>
-13.2029

>  <SCORE.INTRA.DIHEDRAL>
-24.4015

>  <SCORE.INTRA.DIHEDRAL.0>
25.6828

>  <SCORE.INTRA.POLAR>
0

>  <SCORE.INTRA.POLAR.0>
0

>  <SCORE.INTRA.REPUL>
0

>  <SCORE.INTRA.REPUL.0>
0

>  <SCORE.INTRA.SOLV>
-1.01888

>  <SCORE.INTRA.SOLV.lig_0>
-48.5059

>  <SCORE.INTRA.VDW>
-0.492662

>  <SCORE.INTRA.VDW.0>
-0.363643

>  <SCORE.INTRA.norm>
-1.0156

>  <SCORE.RESTR>
0

>  <SCORE.RESTR.CAVITY>
0

>  <SCORE.RESTR.norm>
0

>  <SCORE.SYSTEM>
0

>  <SCORE.SYSTEM.CONST>
0

>  <SCORE.SYSTEM.DIHEDRAL>
0

>  <SCORE.SYSTEM.SOLV>
0

>  <SCORE.SYSTEM.norm>
0

>  <SCORE.heavy>
13

>  <SCORE.norm>
-0.95786

>  <RMSD>
14.011

$$$$
ligand
 OpenBabel11021811453D
libRbt.so/2013.1/901 2013/11/27
 13 12  0  0  0  0  0  0  0  0999 V2000
   23.6588   23.6420   49.8868 O   0  0  0  0  0  0  0  0  0  0  0  0
   21.7584   22.8978   52.0561 O   0  0  0  0  0  0  0  0  0  0  0  0
   23.3364   27.6538   48.2480 P   0  0  2  0  0  0  0  0  0  0  0  0
   24.4434   28.1964   49.0880 O   0  5  0  0  0  0  0  0  0  0  0  0
   21.9651   28.2015   48.4102 O   0  0  0  0  0  0  0  0  0  0  0  0
   23.2484   26.0851   48.4688 O   0  0  0  0  0  0  0  0  0  0  0  0
   19.4167   24.2590   51.1545 O   0  0  0  0  0  0  0  0  0  0  0  0
   24.3680   25.2343   48.1834 C   0  0  0  0  0  0  0  0  0  0  0  0
   23.0026   22.1987   51.7964 C   0  0  0  0  0  0  0  0  0  0  0  0
   19.3264   23.0165   51.8369 C   0  0  0  0  0  0  0  0  0  0  0  0
   24.0085   23.7717   48.4956 C   0  0  0  0  0  0  0  0  0  0  0  0
   23.4038   22.2714   50.3026 C   0  0  0  0  0  0  0  0  0  0  0  0
   20.6002   22.2093   51.5289 C   0  0  0  0  0  0  0  0  0  0  0  0
  1 12  1  0  0  0  0
  1 11  1  0  0  0  0
  2 13  1  0  0  0  0
  2  9  1  0  0  0  0
  3  4  1  1  0  0  0
  3  5  2  0  0  0  0
  3  6  1  0  0  0  0
  6  8  1  0  0  0  0
  7 10  1  0  0  0  0
  8 11  1  0  0  0  0
  9 12  1  0  0  0  0
 10 13  1  0  0  0  0
M  CHG  1   4  -1
M  END
>  <CHROM.1>
-178.72555174,-179.64709984,-59.03541755,179.62591978,-59.89732506,71.72221853
63.27202544,63.61060681,-175.44282476,22.56481054,24.88742342,49.81450660
-2.00240847,0.39875728,-0.40598800

>  <Name>
ligand

>  <RI>
0

>  <Rbt.Current_Directory>
/home/itssahil/PROJECTS/Mol_Feturizer/New_Systems/rnas/2NPY

>  <Rbt.Executable>
rbdock ($Id: //depot/dev/client3/rdock/2013.1/src/exe/rbdock.cxx#4 $)

>  <Rbt.Library>
libRbt.so (2013.1, Build901 2013/11/27)

>  <Rbt.Parameter_File>
/export/apps/rDock/src/rDock_2013.1_src/data/scripts/dock_solv.prm

>  <Rbt.Receptor>
prm/blind_docking_100.prm

>  <SCORE>
-10.4492

>  <SCORE.INTER>
2.96262

>  <SCORE.INTER.CONST>
1

>  <SCORE.INTER.POLAR>
0

>  <SCORE.INTER.ROT>
9

>  <SCORE.INTER.SOLV>
5.99788

>  <SCORE.INTER.VDW>
-9.62421

>  <SCORE.INTER.norm>
0.227894

>  <SCORE.INTRA>
-13.4118

>  <SCORE.INTRA.DIHEDRAL>
-24.7766

>  <SCORE.INTRA.DIHEDRAL.0>
25.6828

>  <SCORE.INTRA.POLAR>
0

>  <SCORE.INTRA.POLAR.0>
0

>  <SCORE.INTRA.REPUL>
0

>  <SCORE.INTRA.REPUL.0>
0

>  <SCORE.INTRA.SOLV>
-0.982084

>  <SCORE.INTRA.SOLV.lig_0>
-48.5059

>  <SCORE.INTRA.VDW>
-0.53249

>  <SCORE.INTRA.VDW.0>
-0.363643

>  <SCORE.INTRA.norm>
-1.03168

>  <SCORE.RESTR>
0

>  <SCORE.RESTR.CAVITY>
0

>  <SCORE.RESTR.norm>
0

>  <SCORE.SYSTEM>
0

>  <SCORE.SYSTEM.CONST>
0

>  <SCORE.SYSTEM.DIHEDRAL>
0

>  <SCORE.SYSTEM.SOLV>
0

>  <SCORE.SYSTEM.norm>
0

>  <SCORE.heavy>
13

>  <SCORE.norm>
-0.803785

>  <RMSD>
14.402

$$$$
ligand
 OpenBabel11021811453D
libRbt.so/2013.1/901 2013/11/27
 13 12  0  0  0  0  0  0  0  0999 V2000
   20.3123   26.1717   50.9973 O   0  0  0  0  0  0  0  0  0  0  0  0
   21.4074   23.6528   50.3054 O   0  0  0  0  0  0  0  0  0  0  0  0
   23.0890   29.6905   50.9260 P   0  0  2  0  0  0  0  0  0  0  0  0
   23.6535   30.1768   49.6336 O   0  5  0  0  0  0  0  0  0  0  0  0
   23.9904   29.0488   51.9174 O   0  0  0  0  0  0  0  0  0  0  0  0
   21.9174   28.6655   50.6191 O   0  0  0  0  0  0  0  0  0  0  0  0
   23.7921   22.8792   49.1167 O   0  0  0  0  0  0  0  0  0  0  0  0
   20.8277   28.4920   51.5363 C   0  0  0  0  0  0  0  0  0  0  0  0
   19.9839   23.7493   50.5676 C   0  0  0  0  0  0  0  0  0  0  0  0
   23.4693   22.3421   50.3914 C   0  0  0  0  0  0  0  0  0  0  0  0
   19.7961   27.5153   50.9466 C   0  0  0  0  0  0  0  0  0  0  0  0
   19.4546   25.1887   50.3536 C   0  0  0  0  0  0  0  0  0  0  0  0
   21.9363   22.3245   50.5274 C   0  0  0  0  0  0  0  0  0  0  0  0
  1 12  1  0  0  0  0
  1 11  1  0  0  0  0
  2 13  1  0  0  0  0
  2  9  1  0  0  0  0
  3  4  1  6  0  0  0
  3  5  2  0  0  0  0
  3  6  1  0  0  0  0
  6  8  1  0  0  0  0
  7 10  1  0  0  0  0
  8 11  1  0  0  0  0
  9 12  1  0  0  0  0
 10 13  1  0  0  0  0
M  CHG  1   4  -1
M  END
>  <CHROM.1>
-174.04180457,-173.33379199,-151.72337523,176.19424845,73.42662247,178.65895874
-46.95954044,-55.43797219,-174.89455185,21.95867970,26.46519168,50.61927269
1.71893893,-0.15181491,-3.01617274

>  <Name>
ligand

>  <RI>
0

>  <Rbt.Current_Directory>
/home/itssahil/PROJECTS/Mol_Feturizer/New_Systems/rnas/2NPY

>  <Rbt.Executable>
rbdock ($Id: //depot/dev/client3/rdock/2013.1/src/exe/rbdock.cxx#4 $)

>  <Rbt.Library>
libRbt.so (2013.1, Build901 2013/11/27)

>  <Rbt.Parameter_File>
/export/apps/rDock/src/rDock_2013.1_src/data/scripts/dock_solv.prm

>  <Rbt.Receptor>
prm/blind_docking_80.prm

>  <SCORE>
-12.5293

>  <SCORE.INTER>
0.843017

>  <SCORE.INTER.CONST>
1

>  <SCORE.INTER.POLAR>
0

>  <SCORE.INTER.ROT>
9

>  <SCORE.INTER.SOLV>
8.25935

>  <SCORE.INTER.VDW>
-11.7911

>  <SCORE.INTER.norm>
0.0648475

>  <SCORE.INTRA>
-13.3723

>  <SCORE.INTRA.DIHEDRAL>
-23.2056

>  <SCORE.INTRA.DIHEDRAL.0>
25.6828

>  <SCORE.INTRA.POLAR>
0

>  <SCORE.INTRA.POLAR.0>
0

>  <SCORE.INTRA.REPUL>
0

>  <SCORE.INTRA.REPUL.0>
0

>  <SCORE.INTRA.SOLV>
-1.21782

>  <SCORE.INTRA.SOLV.lig_0>
-48.5059

>  <SCORE.INTRA.VDW>
-1.16062

>  <SCORE.INTRA.VDW.0>
-0.363643

>  <SCORE.INTRA.norm>
-1.02864

>  <SCORE.RESTR>
0

>  <SCORE.RESTR.CAVITY>
0

>  <SCORE.RESTR.norm>
0

>  <SCORE.SYSTEM>
0

>  <SCORE.SYSTEM.CONST>
0

>  <SCORE.SYSTEM.DIHEDRAL>
0

>  <SCORE.SYSTEM.SOLV>
0

>  <SCORE.SYSTEM.norm>
0

>  <SCORE.heavy>
13

>  <SCORE.norm>
-0.963792

>  <RMSD>
14.508

$$$$
ligand
 OpenBabel11021811453D
libRbt.so/2013.1/901 2013/11/27
 13 12  0  0  0  0  0  0  0  0999 V2000
   38.6976   24.5682   57.2486 O   0  0  0  0  0  0  0  0  0  0  0  0
   36.7315   26.6225   59.7093 O   0  0  0  0  0  0  0  0  0  0  0  0
   41.5273   21.1830   54.7665 P   0  0  2  0  0  0  0  0  0  0  0  0
   41.9530   19.8240   55.2106 O   0  5  0  0  0  0  0  0  0  0  0  0
   42.4765   22.0263   53.9952 O   0  0  0  0  0  0  0  0  0  0  0  0
   41.0773   22.0191   56.0376 O   0  0  0  0  0  0  0  0  0  0  0  0
   35.6449   25.2923   62.9505 O   0  0  0  0  0  0  0  0  0  0  0  0
   40.0246   22.9901   55.9492 C   0  0  0  0  0  0  0  0  0  0  0  0
   37.0943   26.0533   58.4253 C   0  0  0  0  0  0  0  0  0  0  0  0
   35.9201   26.3052   61.9935 C   0  0  0  0  0  0  0  0  0  0  0  0
   39.8190   23.6669   57.3150 C   0  0  0  0  0  0  0  0  0  0  0  0
   38.4109   25.2421   58.5056 C   0  0  0  0  0  0  0  0  0  0  0  0
   36.3932   25.6218   60.6981 C   0  0  0  0  0  0  0  0  0  0  0  0
  1 12  1  0  0  0  0
  1 11  1  0  0  0  0
  2 13  1  0  0  0  0
  2  9  1  0  0  0  0
  3  4  1  1  0  0  0
  3  5  2  0  0  0  0
  3  6  1  0  0  0  0
  6  8  1  0  0  0  0
  7 10  1  0  0  0  0
  8 11  1  0  0  0  0
  9 12  1  0  0  0  0
 10 13  1  0  0  0  0
M  CHG  1   4  -1
M  END
>  <CHROM.1>
-172.68599475,-175.77164551,-146.69908458,-178.81548826,-175.75871660,-66.17593993
174.41113130,-177.94180315,179.05849446,39.14529107,23.70092625,57.63443778
3.09834128,-0.96002768,2.44237076

>  <Name>
ligand

>  <RI>
0

>  <Rbt.Current_Directory>
/home/itssahil/PROJECTS/Mol_Feturizer/New_Systems/rnas/2NPY

>  <Rbt.Executable>
rbdock ($Id: //depot/dev/client3/rdock/2013.1/src/exe/rbdock.cxx#4 $)

>  <Rbt.Library>
libRbt.so (2013.1, Build901 2013/11/27)

>  <Rbt.Parameter_File>
/export/apps/rDock/src/rDock_2013.1_src/data/scripts/dock_solv.prm

>  <Rbt.Receptor>
prm/blind_docking_80.prm

>  <SCORE>
-11.0622

>  <SCORE.INTER>
1.77708

>  <SCORE.INTER.CONST>
1

>  <SCORE.INTER.POLAR>
0

>  <SCORE.INTER.ROT>
9

>  <SCORE.INTER.SOLV>
14.946

>  <SCORE.INTER.VDW>
-13.3973

>  <SCORE.INTER.norm>
0.136699

>  <SCORE.INTRA>
-12.8393

>  <SCORE.INTRA.DIHEDRAL>
-24.2115

>  <SCORE.INTRA.DIHEDRAL.0>
25.6828

>  <SCORE.INTRA.POLAR>
0

>  <SCORE.INTRA.POLAR.0>
0

>  <SCORE.INTRA.REPUL>
0

>  <SCORE.INTRA.REPUL.0>
0

>  <SCORE.INTRA.SOLV>
-1.66808

>  <SCORE.INTRA.SOLV.lig_0>
-48.5059

>  <SCORE.INTRA.VDW>
0.100472

>  <SCORE.INTRA.VDW.0>
-0.363643

>  <SCORE.INTRA.norm>
-0.98764

>  <SCORE.RESTR>
0

>  <SCORE.RESTR.CAVITY>
0

>  <SCORE.RESTR.norm>
0

>  <SCORE.SYSTEM>
0

>  <SCORE.SYSTEM.CONST>
0

>  <SCORE.SYSTEM.DIHEDRAL>
0

>  <SCORE.SYSTEM.SOLV>
0

>  <SCORE.SYSTEM.norm>
0

>  <SCORE.heavy>
13

>  <SCORE.norm>
-0.850941

>  <RMSD>
17.215

$$$$
ligand
 OpenBabel11021811453D
libRbt.so/2013.1/901 2013/11/27
 13 12  0  0  0  0  0  0  0  0999 V2000
   38.6744   20.8922   57.5857 O   0  0  0  0  0  0  0  0  0  0  0  0
   37.5620   23.2100   58.9689 O   0  0  0  0  0  0  0  0  0  0  0  0
   41.5536   20.7291   54.5120 P   0  0  2  0  0  0  0  0  0  0  0  0
   42.4817   19.6056   54.8310 O   0  5  0  0  0  0  0  0  0  0  0  0
   42.0876   22.1131   54.4328 O   0  0  0  0  0  0  0  0  0  0  0  0
   40.3755   20.7369   55.5748 O   0  0  0  0  0  0  0  0  0  0  0  0
   35.7343   25.3458   58.7716 O   0  0  0  0  0  0  0  0  0  0  0  0
   39.3581   19.7253   55.5582 C   0  0  0  0  0  0  0  0  0  0  0  0
   38.4026   22.2436   59.6498 C   0  0  0  0  0  0  0  0  0  0  0  0
   35.3258   24.0317   58.4202 C   0  0  0  0  0  0  0  0  0  0  0  0
   38.7205   19.5995   56.9523 C   0  0  0  0  0  0  0  0  0  0  0  0
   38.3172   20.8429   58.9951 C   0  0  0  0  0  0  0  0  0  0  0  0
   36.1538   23.0361   59.2522 C   0  0  0  0  0  0  0  0  0  0  0  0
  1 12  1  0  0  0  0
  1 11  1  0  0  0  0
  2 13  1  0  0  0  0
  2  9  1  0  0  0  0
  3  4  1  1  0  0  0
  3  5  2  0  0  0  0
  3  6  1  0  0  0  0
  6  8  1  0  0  0  0
  7 10  1  0  0  0  0
  8 11  1  0  0  0  0
  9 12  1  0  0  0  0
 10 13  1  0  0  0  0
M  CHG  1   4  -1
M  END
>  <CHROM.1>
175.09985999,-176.08326233,-71.79184404,156.48911720,34.31035122,74.68413495
56.95728090,-59.91824395,-169.31444198,39.08252181,21.63876713,56.94955974
2.94022581,0.77444943,-0.35742684

>  <Name>
ligand

>  <RI>
0

>  <Rbt.Current_Directory>
/home/itssahil/PROJECTS/Mol_Feturizer/New_Systems/rnas/2NPY

>  <Rbt.Executable>
rbdock ($Id: //depot/dev/client3/rdock/2013.1/src/exe/rbdock.cxx#4 $)

>  <Rbt.Library>
libRbt.so (2013.1, Build901 2013/11/27)

>  <Rbt.Parameter_File>
/export/apps/rDock/src/rDock_2013.1_src/data/scripts/dock_solv.prm

>  <Rbt.Receptor>
prm/blind_docking_80.prm

>  <SCORE>
-11.9701

>  <SCORE.INTER>
-1.52047

>  <SCORE.INTER.CONST>
1

>  <SCORE.INTER.POLAR>
0

>  <SCORE.INTER.ROT>
9

>  <SCORE.INTER.SOLV>
18.543

>  <SCORE.INTER.VDW>
-16.7946

>  <SCORE.INTER.norm>
-0.116959

>  <SCORE.INTRA>
-10.4497

>  <SCORE.INTRA.DIHEDRAL>
-19.0358

>  <SCORE.INTRA.DIHEDRAL.0>
25.6828

>  <SCORE.INTRA.POLAR>
0

>  <SCORE.INTRA.POLAR.0>
0

>  <SCORE.INTRA.REPUL>
0

>  <SCORE.INTRA.REPUL.0>
0

>  <SCORE.INTRA.SOLV>
-0.806991

>  <SCORE.INTRA.SOLV.lig_0>
-48.5059

>  <SCORE.INTRA.VDW>
-0.528278

>  <SCORE.INTRA.VDW.0>
-0.363643

>  <SCORE.INTRA.norm>
-0.803819

>  <SCORE.RESTR>
0

>  <SCORE.RESTR.CAVITY>
0

>  <SCORE.RESTR.norm>
0

>  <SCORE.SYSTEM>
0

>  <SCORE.SYSTEM.CONST>
0

>  <SCORE.SYSTEM.DIHEDRAL>
0

>  <SCORE.SYSTEM.SOLV>
0

>  <SCORE.SYSTEM.norm>
0

>  <SCORE.heavy>
13

>  <SCORE.norm>
-0.920778

>  <RMSD>
18.145

$$$$
ligand
 OpenBabel11021811453D
libRbt.so/2013.1/901 2013/11/27
 13 12  0  0  0  0  0  0  0  0999 V2000
   38.5959   20.3653   57.2053 O   0  0  0  0  0  0  0  0  0  0  0  0
   38.7899   22.5560   59.0541 O   0  0  0  0  0  0  0  0  0  0  0  0
   41.5865   21.3233   54.2548 P   0  0  2  0  0  0  0  0  0  0  0  0
   42.4792   20.2770   53.6773 O   0  5  0  0  0  0  0  0  0  0  0  0
   42.1829   22.5772   54.7829 O   0  0  0  0  0  0  0  0  0  0  0  0
   40.7310   20.6772   55.4245 O   0  0  0  0  0  0  0  0  0  0  0  0
   38.9869   24.8626   56.2084 O   0  0  0  0  0  0  0  0  0  0  0  0
   39.7178   19.6999   55.1466 C   0  0  0  0  0  0  0  0  0  0  0  0
   37.9968   21.3877   59.3862 C   0  0  0  0  0  0  0  0  0  0  0  0
   39.3513   24.3375   57.4768 C   0  0  0  0  0  0  0  0  0  0  0  0
   39.0699   19.2281   56.4594 C   0  0  0  0  0  0  0  0  0  0  0  0
   38.4880   20.1252   58.6361 C   0  0  0  0  0  0  0  0  0  0  0  0
   38.4315   23.1414   57.7804 C   0  0  0  0  0  0  0  0  0  0  0  0
  1 12  1  0  0  0  0
  1 11  1  0  0  0  0
  2 13  1  0  0  0  0
  2  9  1  0  0  0  0
  3  4  1  1  0  0  0
  3  5  2  0  0  0  0
  3  6  1  0  0  0  0
  6  8  1  0  0  0  0
  7 10  1  0  0  0  0
  8 11  1  0  0  0  0
  9 12  1  0  0  0  0
 10 13  1  0  0  0  0
M  CHG  1   4  -1
M  END
>  <CHROM.1>
179.07357329,-177.79951074,-68.58182145,178.93540818,53.90205738,78.93101125
-51.76671557,178.70380528,-155.69953828,39.90517436,21.57777749,56.36100369
2.83826226,0.88628723,0.08045278

>  <Name>
ligand

>  <RI>
0

>  <Rbt.Current_Directory>
/home/itssahil/PROJECTS/Mol_Feturizer/New_Systems/rnas/2NPY

>  <Rbt.Executable>
rbdock ($Id: //depot/dev/client3/rdock/2013.1/src/exe/rbdock.cxx#4 $)

>  <Rbt.Library>
libRbt.so (2013.1, Build901 2013/11/27)

>  <Rbt.Parameter_File>
/export/apps/rDock/src/rDock_2013.1_src/data/scripts/dock_solv.prm

>  <Rbt.Receptor>
prm/blind_docking_80.prm

>  <SCORE>
-11.7671

>  <SCORE.INTER>
-0.0552397

>  <SCORE.INTER.CONST>
1

>  <SCORE.INTER.POLAR>
0

>  <SCORE.INTER.ROT>
9

>  <SCORE.INTER.SOLV>
16.8543

>  <SCORE.INTER.VDW>
-15.2549

>  <SCORE.INTER.norm>
-0.00424921

>  <SCORE.INTRA>
-11.7119

>  <SCORE.INTRA.DIHEDRAL>
-20.8595

>  <SCORE.INTRA.DIHEDRAL.0>
25.6828

>  <SCORE.INTRA.POLAR>
0

>  <SCORE.INTRA.POLAR.0>
0

>  <SCORE.INTRA.REPUL>
0

>  <SCORE.INTRA.REPUL.0>
0

>  <SCORE.INTRA.SOLV>
-0.775467

>  <SCORE.INTRA.SOLV.lig_0>
-48.5059

>  <SCORE.INTRA.VDW>
-0.894427

>  <SCORE.INTRA.VDW.0>
-0.363643

>  <SCORE.INTRA.norm>
-0.900916

>  <SCORE.RESTR>
0

>  <SCORE.RESTR.CAVITY>
0

>  <SCORE.RESTR.norm>
0

>  <SCORE.SYSTEM>
0

>  <SCORE.SYSTEM.CONST>
0

>  <SCORE.SYSTEM.DIHEDRAL>
0

>  <SCORE.SYSTEM.SOLV>
0

>  <SCORE.SYSTEM.norm>
0

>  <SCORE.heavy>
13

>  <SCORE.norm>
-0.905165

>  <RMSD>
18.328

$$$$
ligand
 OpenBabel11021811453D
libRbt.so/2013.1/901 2013/11/27
 13 12  0  0  0  0  0  0  0  0999 V2000
   36.1066   22.6924   59.3544 O   0  0  0  0  0  0  0  0  0  0  0  0
   33.6073   23.8079   60.2943 O   0  0  0  0  0  0  0  0  0  0  0  0
   40.5250   22.8861   60.0577 P   0  0  2  0  0  0  0  0  0  0  0  0
   41.5895   22.9934   59.0181 O   0  5  0  0  0  0  0  0  0  0  0  0
   40.9129   22.7993   61.4891 O   0  0  0  0  0  0  0  0  0  0  0  0
   39.6207   21.6229   59.7354 O   0  0  0  0  0  0  0  0  0  0  0  0
   32.5857   25.2082   62.5184 O   0  0  0  0  0  0  0  0  0  0  0  0
   38.2093   21.6388   59.9936 C   0  0  0  0  0  0  0  0  0  0  0  0
   33.8565   23.6250   58.8770 C   0  0  0  0  0  0  0  0  0  0  0  0
   32.0220   23.9579   62.1493 C   0  0  0  0  0  0  0  0  0  0  0  0
   37.5223   22.6766   59.0898 C   0  0  0  0  0  0  0  0  0  0  0  0
   35.3697   23.6543   58.5494 C   0  0  0  0  0  0  0  0  0  0  0  0
   32.2002   23.7838   60.6305 C   0  0  0  0  0  0  0  0  0  0  0  0
  1 12  1  0  0  0  0
  1 11  1  0  0  0  0
  2 13  1  0  0  0  0
  2  9  1  0  0  0  0
  3  4  1  6  0  0  0
  3  5  2  0  0  0  0
  3  6  1  0  0  0  0
  6  8  1  0  0  0  0
  7 10  1  0  0  0  0
  8 11  1  0  0  0  0
  9 12  1  0  0  0  0
 10 13  1  0  0  0  0
M  CHG  1   4  -1
M  END
>  <CHROM.1>
179.97770785,178.96757095,-144.48265055,65.11844528,-179.83617673,-179.94874665
54.12445040,60.10095981,179.61552585,36.84901462,23.15725335,60.14388700
2.96270133,-0.15066021,1.27974023

>  <Name>
ligand

>  <RI>
0

>  <Rbt.Current_Directory>
/home/itssahil/PROJECTS/Mol_Feturizer/New_Systems/rnas/2NPY

>  <Rbt.Executable>
rbdock ($Id: //depot/dev/client3/rdock/2013.1/src/exe/rbdock.cxx#4 $)

>  <Rbt.Library>
libRbt.so (2013.1, Build901 2013/11/27)

>  <Rbt.Parameter_File>
/export/apps/rDock/src/rDock_2013.1_src/data/scripts/dock_solv.prm

>  <Rbt.Receptor>
prm/blind_docking_80.prm

>  <SCORE>
-11.7801

>  <SCORE.INTER>
1.33152

>  <SCORE.INTER.CONST>
1

>  <SCORE.INTER.POLAR>
0

>  <SCORE.INTER.ROT>
9

>  <SCORE.INTER.SOLV>
15.157

>  <SCORE.INTER.VDW>
-13.7647

>  <SCORE.INTER.norm>
0.102425

>  <SCORE.INTRA>
-13.1116

>  <SCORE.INTRA.DIHEDRAL>
-24.6056

>  <SCORE.INTRA.DIHEDRAL.0>
25.6828

>  <SCORE.INTRA.POLAR>
0

>  <SCORE.INTRA.POLAR.0>
0

>  <SCORE.INTRA.REPUL>
0

>  <SCORE.INTRA.REPUL.0>
0

>  <SCORE.INTRA.SOLV>
-0.0295897

>  <SCORE.INTRA.SOLV.lig_0>
-48.5059

>  <SCORE.INTRA.VDW>
-0.79399

>  <SCORE.INTRA.VDW.0>
-0.363643

>  <SCORE.INTRA.norm>
-1.00858

>  <SCORE.RESTR>
0

>  <SCORE.RESTR.CAVITY>
0

>  <SCORE.RESTR.norm>
0

>  <SCORE.SYSTEM>
0

>  <SCORE.SYSTEM.CONST>
0

>  <SCORE.SYSTEM.DIHEDRAL>
0

>  <SCORE.SYSTEM.SOLV>
0

>  <SCORE.SYSTEM.norm>
0

>  <SCORE.heavy>
13

>  <SCORE.norm>
-0.906159

>  <RMSD>
18.459

$$$$
ligand
 OpenBabel11021811453D
libRbt.so/2013.1/901 2013/11/27
 13 12  0  0  0  0  0  0  0  0999 V2000
   39.2134   21.5137   56.7401 O   0  0  0  0  0  0  0  0  0  0  0  0
   40.5849   20.0838   54.4610 O   0  0  0  0  0  0  0  0  0  0  0  0
   38.2694   25.5476   59.6467 P   0  0  2  0  0  0  0  0  0  0  0  0
   37.0395   26.0131   60.3510 O   0  5  0  0  0  0  0  0  0  0  0  0
   39.0818   26.5260   58.8788 O   0  0  0  0  0  0  0  0  0  0  0  0
   37.8767   24.3752   58.6524 O   0  0  0  0  0  0  0  0  0  0  0  0
   41.4647   22.4023   53.0414 O   0  0  0  0  0  0  0  0  0  0  0  0
   38.8778   23.5103   58.0969 C   0  0  0  0  0  0  0  0  0  0  0  0
   39.7876   19.4467   55.4918 C   0  0  0  0  0  0  0  0  0  0  0  0
   42.3621   21.6430   53.8385 C   0  0  0  0  0  0  0  0  0  0  0  0
   38.2129   22.4247   57.2336 C   0  0  0  0  0  0  0  0  0  0  0  0
   38.6662   20.3792   56.0121 C   0  0  0  0  0  0  0  0  0  0  0  0
   41.5600   21.0122   54.9908 C   0  0  0  0  0  0  0  0  0  0  0  0
  1 12  1  0  0  0  0
  1 11  1  0  0  0  0
  2 13  1  0  0  0  0
  2  9  1  0  0  0  0
  3  4  1  6  0  0  0
  3  5  2  0  0  0  0
  3  6  1  0  0  0  0
  6  8  1  0  0  0  0
  7 10  1  0  0  0  0
  8 11  1  0  0  0  0
  9 12  1  0  0  0  0
 10 13  1  0  0  0  0
M  CHG  1   4  -1
M  END
>  <CHROM.1>
179.27854290,179.98197504,-164.03452118,176.95876511,-176.73793839,78.70018376
-67.56996873,63.87372561,174.67033151,39.35155509,22.95786159,56.97676648
1.00704498,-0.77535766,-2.74335919

>  <Name>
ligand

>  <RI>
0

>  <Rbt.Current_Directory>
/home/itssahil/PROJECTS/Mol_Feturizer/New_Systems/rnas/2NPY

>  <Rbt.Executable>
rbdock ($Id: //depot/dev/client3/rdock/2013.1/src/exe/rbdock.cxx#4 $)

>  <Rbt.Library>
libRbt.so (2013.1, Build901 2013/11/27)

>  <Rbt.Parameter_File>
/export/apps/rDock/src/rDock_2013.1_src/data/scripts/dock_solv.prm

>  <Rbt.Receptor>
prm/blind_docking_100.prm

>  <SCORE>
-10.656

>  <SCORE.INTER>
2.18825

>  <SCORE.INTER.CONST>
1

>  <SCORE.INTER.POLAR>
0

>  <SCORE.INTER.ROT>
9

>  <SCORE.INTER.SOLV>
12.2128

>  <SCORE.INTER.VDW>
-12.2121

>  <SCORE.INTER.norm>
0.168327

>  <SCORE.INTRA>
-12.8443

>  <SCORE.INTRA.DIHEDRAL>
-23.4439

>  <SCORE.INTRA.DIHEDRAL.0>
25.6828

>  <SCORE.INTRA.POLAR>
0

>  <SCORE.INTRA.POLAR.0>
0

>  <SCORE.INTRA.REPUL>
0

>  <SCORE.INTRA.REPUL.0>
0

>  <SCORE.INTRA.SOLV>
-1.05317

>  <SCORE.INTRA.SOLV.lig_0>
-48.5059

>  <SCORE.INTRA.VDW>
-0.595733

>  <SCORE.INTRA.VDW.0>
-0.363643

>  <SCORE.INTRA.norm>
-0.988019

>  <SCORE.RESTR>
0

>  <SCORE.RESTR.CAVITY>
0

>  <SCORE.RESTR.norm>
0

>  <SCORE.SYSTEM>
0

>  <SCORE.SYSTEM.CONST>
0

>  <SCORE.SYSTEM.DIHEDRAL>
0

>  <SCORE.SYSTEM.SOLV>
0

>  <SCORE.SYSTEM.norm>
0

>  <SCORE.heavy>
13

>  <SCORE.norm>
-0.819692

>  <RMSD>
18.485

$$$$
ligand
 OpenBabel11021811453D
libRbt.so/2013.1/901 2013/11/27
 13 12  0  0  0  0  0  0  0  0999 V2000
   36.8358   21.9949   60.1187 O   0  0  0  0  0  0  0  0  0  0  0  0
   36.2546   24.8670   60.8911 O   0  0  0  0  0  0  0  0  0  0  0  0
   38.7523   19.2758   57.2127 P   0  0  2  0  0  0  0  0  0  0  0  0
   38.4872   20.1927   56.0662 O   0  5  0  0  0  0  0  0  0  0  0  0
   38.1870   17.9021   57.1909 O   0  0  0  0  0  0  0  0  0  0  0  0
   38.2546   19.9709   58.5493 O   0  0  0  0  0  0  0  0  0  0  0  0
   35.1610   25.4767   58.3640 O   0  0  0  0  0  0  0  0  0  0  0  0
   38.8547   21.1871   59.0179 C   0  0  0  0  0  0  0  0  0  0  0  0
   36.6382   23.8066   61.8036 C   0  0  0  0  0  0  0  0  0  0  0  0
   36.4732   25.9109   58.6913 C   0  0  0  0  0  0  0  0  0  0  0  0
   38.2063   21.6144   60.3457 C   0  0  0  0  0  0  0  0  0  0  0  0
   36.1384   22.4225   61.3217 C   0  0  0  0  0  0  0  0  0  0  0  0
   37.0701   24.9100   59.6967 C   0  0  0  0  0  0  0  0  0  0  0  0
  1 12  1  0  0  0  0
  1 11  1  0  0  0  0
  2 13  1  0  0  0  0
  2  9  1  0  0  0  0
  3  4  1  6  0  0  0
  3  5  2  0  0  0  0
  3  6  1  0  0  0  0
  6  8  1  0  0  0  0
  7 10  1  0  0  0  0
  8 11  1  0  0  0  0
  9 12  1  0  0  0  0
 10 13  1  0  0  0  0
M  CHG  1   4  -1
M  END
>  <CHROM.1>
71.70093713,171.45888339,-63.51399668,-178.53055092,-67.33249348,-76.84381750
68.64619589,-60.15645050,-179.72196151,37.43825234,22.00104937,58.98098558
-2.89085403,1.20332520,-1.37420152

>  <Name>
ligand

>  <RI>
0

>  <Rbt.Current_Directory>
/home/itssahil/PROJECTS/Mol_Feturizer/New_Systems/rnas/2NPY

>  <Rbt.Executable>
rbdock ($Id: //depot/dev/client3/rdock/2013.1/src/exe/rbdock.cxx#4 $)

>  <Rbt.Library>
libRbt.so (2013.1, Build901 2013/11/27)

>  <Rbt.Parameter_File>
/export/apps/rDock/src/rDock_2013.1_src/data/scripts/dock_solv.prm

>  <Rbt.Receptor>
prm/blind_docking_100.prm

>  <SCORE>
-11.5214

>  <SCORE.INTER>
0.389225

>  <SCORE.INTER.CONST>
1

>  <SCORE.INTER.POLAR>
0

>  <SCORE.INTER.ROT>
9

>  <SCORE.INTER.SOLV>
24.8037

>  <SCORE.INTER.VDW>
-17.6084

>  <SCORE.INTER.norm>
0.0299404

>  <SCORE.INTRA>
-11.9107

>  <SCORE.INTRA.DIHEDRAL>
-22.7642

>  <SCORE.INTRA.DIHEDRAL.0>
25.6828

>  <SCORE.INTRA.POLAR>
0

>  <SCORE.INTRA.POLAR.0>
0

>  <SCORE.INTRA.REPUL>
0

>  <SCORE.INTRA.REPUL.0>
0

>  <SCORE.INTRA.SOLV>
-0.835865

>  <SCORE.INTRA.SOLV.lig_0>
-48.5059

>  <SCORE.INTRA.VDW>
-0.110648

>  <SCORE.INTRA.VDW.0>
-0.363643

>  <SCORE.INTRA.norm>
-0.916205

>  <SCORE.RESTR>
0

>  <SCORE.RESTR.CAVITY>
0

>  <SCORE.RESTR.norm>
0

>  <SCORE.SYSTEM>
0

>  <SCORE.SYSTEM.CONST>
0

>  <SCORE.SYSTEM.DIHEDRAL>
0

>  <SCORE.SYSTEM.SOLV>
0

>  <SCORE.SYSTEM.norm>
0

>  <SCORE.heavy>
13

>  <SCORE.norm>
-0.886264

>  <RMSD>
18.532

$$$$
ligand
 OpenBabel11021811453D
libRbt.so/2013.1/901 2013/11/27
 13 12  0  0  0  0  0  0  0  0999 V2000
   38.3721   20.4135   57.8380 O   0  0  0  0  0  0  0  0  0  0  0  0
   39.3102   19.8679   55.1857 O   0  0  0  0  0  0  0  0  0  0  0  0
   37.8541   24.6253   58.7513 P   0  0  2  0  0  0  0  0  0  0  0  0
   36.3638   24.6429   58.8156 O   0  5  0  0  0  0  0  0  0  0  0  0
   38.5460   25.4195   57.7037 O   0  0  0  0  0  0  0  0  0  0  0  0
   38.3420   23.1226   58.6050 O   0  0  0  0  0  0  0  0  0  0  0  0
   40.8187   22.2370   55.0033 O   0  0  0  0  0  0  0  0  0  0  0  0
   37.9052   22.1107   59.5237 C   0  0  0  0  0  0  0  0  0  0  0  0
   38.7155   18.8075   55.9770 C   0  0  0  0  0  0  0  0  0  0  0  0
   41.3080   21.0435   54.4087 C   0  0  0  0  0  0  0  0  0  0  0  0
   38.6086   20.7791   59.2108 C   0  0  0  0  0  0  0  0  0  0  0  0
   38.8435   19.0805   57.4958 C   0  0  0  0  0  0  0  0  0  0  0  0
   40.7568   19.8505   55.2099 C   0  0  0  0  0  0  0  0  0  0  0  0
  1 12  1  0  0  0  0
  1 11  1  0  0  0  0
  2 13  1  0  0  0  0
  2  9  1  0  0  0  0
  3  4  1  6  0  0  0
  3  5  2  0  0  0  0
  3  6  1  0  0  0  0
  6  8  1  0  0  0  0
  7 10  1  0  0  0  0
  8 11  1  0  0  0  0
  9 12  1  0  0  0  0
 10 13  1  0  0  0  0
M  CHG  1   4  -1
M  END
>  <CHROM.1>
-173.27429524,-177.15295273,-52.88269512,-175.86292513,-55.83233322,73.47703271
50.91190249,59.55945852,-172.07939767,38.80360709,21.97960696,57.33259186
0.83796656,-0.94466005,-3.14081807

>  <Name>
ligand

>  <RI>
0

>  <Rbt.Current_Directory>
/home/itssahil/PROJECTS/Mol_Feturizer/New_Systems/rnas/2NPY

>  <Rbt.Executable>
rbdock ($Id: //depot/dev/client3/rdock/2013.1/src/exe/rbdock.cxx#4 $)

>  <Rbt.Library>
libRbt.so (2013.1, Build901 2013/11/27)

>  <Rbt.Parameter_File>
/export/apps/rDock/src/rDock_2013.1_src/data/scripts/dock_solv.prm

>  <Rbt.Receptor>
prm/blind_docking_100.prm

>  <SCORE>
-14.0749

>  <SCORE.INTER>
-1.07758

>  <SCORE.INTER.CONST>
1

>  <SCORE.INTER.POLAR>
0

>  <SCORE.INTER.ROT>
9

>  <SCORE.INTER.SOLV>
9.50338

>  <SCORE.INTER.VDW>
-13.4862

>  <SCORE.INTER.norm>
-0.0828906

>  <SCORE.INTRA>
-12.9973

>  <SCORE.INTRA.DIHEDRAL>
-23.7668

>  <SCORE.INTRA.DIHEDRAL.0>
25.6828

>  <SCORE.INTRA.POLAR>
0

>  <SCORE.INTRA.POLAR.0>
0

>  <SCORE.INTRA.REPUL>
0

>  <SCORE.INTRA.REPUL.0>
0

>  <SCORE.INTRA.SOLV>
-0.869195

>  <SCORE.INTRA.SOLV.lig_0>
-48.5059

>  <SCORE.INTRA.VDW>
-0.679321

>  <SCORE.INTRA.VDW.0>
-0.363643

>  <SCORE.INTRA.norm>
-0.999795

>  <SCORE.RESTR>
0

>  <SCORE.RESTR.CAVITY>
0

>  <SCORE.RESTR.norm>
0

>  <SCORE.SYSTEM>
0

>  <SCORE.SYSTEM.CONST>
0

>  <SCORE.SYSTEM.DIHEDRAL>
0

>  <SCORE.SYSTEM.SOLV>
0

>  <SCORE.SYSTEM.norm>
0

>  <SCORE.heavy>
13

>  <SCORE.norm>
-1.08269

>  <RMSD>
18.963

$$$$
ligand
 OpenBabel11021811453D
libRbt.so/2013.1/901 2013/11/27
 13 12  0  0  0  0  0  0  0  0999 V2000
   38.1185   21.1394   58.4502 O   0  0  0  0  0  0  0  0  0  0  0  0
   39.6917   20.5508   56.1319 O   0  0  0  0  0  0  0  0  0  0  0  0
   37.1067   25.2443   59.3400 P   0  0  2  0  0  0  0  0  0  0  0  0
   35.7482   25.1703   58.7282 O   0  5  0  0  0  0  0  0  0  0  0  0
   38.1107   26.1793   58.7701 O   0  0  0  0  0  0  0  0  0  0  0  0
   37.7516   23.7947   59.3306 O   0  0  0  0  0  0  0  0  0  0  0  0
   42.2235   20.5818   53.4793 O   0  0  0  0  0  0  0  0  0  0  0  0
   37.1368   22.7074   60.0368 C   0  0  0  0  0  0  0  0  0  0  0  0
   38.7826   19.5520   56.6614 C   0  0  0  0  0  0  0  0  0  0  0  0
   41.5132   21.0979   54.5958 C   0  0  0  0  0  0  0  0  0  0  0  0
   37.9678   21.4261   59.8535 C   0  0  0  0  0  0  0  0  0  0  0  0
   38.5068   19.7657   58.1701 C   0  0  0  0  0  0  0  0  0  0  0  0
   40.3784   20.1151   54.9352 C   0  0  0  0  0  0  0  0  0  0  0  0
  1 12  1  0  0  0  0
  1 11  1  0  0  0  0
  2 13  1  0  0  0  0
  2  9  1  0  0  0  0
  3  4  1  6  0  0  0
  3  5  2  0  0  0  0
  3  6  1  0  0  0  0
  6  8  1  0  0  0  0
  7 10  1  0  0  0  0
  8 11  1  0  0  0  0
  9 12  1  0  0  0  0
 10 13  1  0  0  0  0
M  CHG  1   4  -1
M  END
>  <CHROM.1>
-174.64898789,-168.87618384,-61.09868440,179.81814922,-56.43647210,157.00107440
50.58099703,175.63289773,-161.65080031,38.56269892,22.39903898,57.71197611
0.58503467,-0.90829973,3.03612533

>  <Name>
ligand

>  <RI>
0

>  <Rbt.Current_Directory>
/home/itssahil/PROJECTS/Mol_Feturizer/New_Systems/rnas/2NPY

>  <Rbt.Executable>
rbdock ($Id: //depot/dev/client3/rdock/2013.1/src/exe/rbdock.cxx#4 $)

>  <Rbt.Library>
libRbt.so (2013.1, Build901 2013/11/27)

>  <Rbt.Parameter_File>
/export/apps/rDock/src/rDock_2013.1_src/data/scripts/dock_solv.prm

>  <Rbt.Receptor>
prm/blind_docking_80.prm

>  <SCORE>
-12.3098

>  <SCORE.INTER>
-0.34332

>  <SCORE.INTER.CONST>
1

>  <SCORE.INTER.POLAR>
0

>  <SCORE.INTER.ROT>
9

>  <SCORE.INTER.SOLV>
11.6619

>  <SCORE.INTER.VDW>
-13.7162

>  <SCORE.INTER.norm>
-0.0264092

>  <SCORE.INTRA>
-11.9664

>  <SCORE.INTRA.DIHEDRAL>
-20.582

>  <SCORE.INTRA.DIHEDRAL.0>
25.6828

>  <SCORE.INTRA.POLAR>
0

>  <SCORE.INTRA.POLAR.0>
0

>  <SCORE.INTRA.REPUL>
0

>  <SCORE.INTRA.REPUL.0>
0

>  <SCORE.INTRA.SOLV>
-1.2751

>  <SCORE.INTRA.SOLV.lig_0>
-48.5059

>  <SCORE.INTRA.VDW>
-1.03791

>  <SCORE.INTRA.VDW.0>
-0.363643

>  <SCORE.INTRA.norm>
-0.920495

>  <SCORE.RESTR>
0

>  <SCORE.RESTR.CAVITY>
0

>  <SCORE.RESTR.norm>
0

>  <SCORE.SYSTEM>
0

>  <SCORE.SYSTEM.CONST>
0

>  <SCORE.SYSTEM.DIHEDRAL>
0

>  <SCORE.SYSTEM.SOLV>
0

>  <SCORE.SYSTEM.norm>
0

>  <SCORE.heavy>
13

>  <SCORE.norm>
-0.946905

>  <RMSD>
19.026

$$$$
ligand
 OpenBabel11021811453D
libRbt.so/2013.1/901 2013/11/27
 13 12  0  0  0  0  0  0  0  0999 V2000
   38.7274   20.4808   57.7435 O   0  0  0  0  0  0  0  0  0  0  0  0
   40.1919   18.9340   55.6552 O   0  0  0  0  0  0  0  0  0  0  0  0
   37.7456   24.7229   58.4514 P   0  0  2  0  0  0  0  0  0  0  0  0
   37.7535   25.2483   59.8476 O   0  5  0  0  0  0  0  0  0  0  0  0
   36.6531   25.1262   57.5291 O   0  0  0  0  0  0  0  0  0  0  0  0
   37.7610   23.1372   58.5015 O   0  0  0  0  0  0  0  0  0  0  0  0
   41.9361   21.9019   54.3878 O   0  0  0  0  0  0  0  0  0  0  0  0
   38.7918   22.4297   59.2056 C   0  0  0  0  0  0  0  0  0  0  0  0
   38.8408   18.6337   56.0895 C   0  0  0  0  0  0  0  0  0  0  0  0
   41.8149   20.5457   54.7920 C   0  0  0  0  0  0  0  0  0  0  0  0
   38.5501   20.9139   59.1056 C   0  0  0  0  0  0  0  0  0  0  0  0
   38.6052   19.0422   57.5644 C   0  0  0  0  0  0  0  0  0  0  0  0
   40.3541   20.3013   55.2105 C   0  0  0  0  0  0  0  0  0  0  0  0
  1 12  1  0  0  0  0
  1 11  1  0  0  0  0
  2 13  1  0  0  0  0
  2  9  1  0  0  0  0
  3  4  1  1  0  0  0
  3  5  2  0  0  0  0
  3  6  1  0  0  0  0
  6  8  1  0  0  0  0
  7 10  1  0  0  0  0
  8 11  1  0  0  0  0
  9 12  1  0  0  0  0
 10 13  1  0  0  0  0
M  CHG  1   4  -1
M  END
>  <CHROM.1>
-178.54870247,178.98758433,-55.83436028,179.24263687,67.19731816,-84.25262715
63.75434298,-178.91266156,176.16927677,38.93837417,21.94057219,57.33692964
0.80231779,-0.87375501,3.10043187

>  <Name>
ligand

>  <RI>
0

>  <Rbt.Current_Directory>
/home/itssahil/PROJECTS/Mol_Feturizer/New_Systems/rnas/2NPY

>  <Rbt.Executable>
rbdock ($Id: //depot/dev/client3/rdock/2013.1/src/exe/rbdock.cxx#4 $)

>  <Rbt.Library>
libRbt.so (2013.1, Build901 2013/11/27)

>  <Rbt.Parameter_File>
/export/apps/rDock/src/rDock_2013.1_src/data/scripts/dock_solv.prm

>  <Rbt.Receptor>
prm/blind_docking_80.prm

>  <SCORE>
-16.7099

>  <SCORE.INTER>
-3.91411

>  <SCORE.INTER.CONST>
1

>  <SCORE.INTER.POLAR>
0

>  <SCORE.INTER.ROT>
9

>  <SCORE.INTER.SOLV>
11.3612

>  <SCORE.INTER.VDW>
-15.9965

>  <SCORE.INTER.norm>
-0.301086

>  <SCORE.INTRA>
-12.7958

>  <SCORE.INTRA.DIHEDRAL>
-22.7776

>  <SCORE.INTRA.DIHEDRAL.0>
25.6828

>  <SCORE.INTRA.POLAR>
0

>  <SCORE.INTRA.POLAR.0>
0

>  <SCORE.INTRA.REPUL>
0

>  <SCORE.INTRA.REPUL.0>
0

>  <SCORE.INTRA.SOLV>
-1.18244

>  <SCORE.INTRA.SOLV.lig_0>
-48.5059

>  <SCORE.INTRA.VDW>
-0.81575

>  <SCORE.INTRA.VDW.0>
-0.363643

>  <SCORE.INTRA.norm>
-0.984291

>  <SCORE.RESTR>
0

>  <SCORE.RESTR.CAVITY>
0

>  <SCORE.RESTR.norm>
0

>  <SCORE.SYSTEM>
0

>  <SCORE.SYSTEM.CONST>
0

>  <SCORE.SYSTEM.DIHEDRAL>
0

>  <SCORE.SYSTEM.SOLV>
0

>  <SCORE.SYSTEM.norm>
0

>  <SCORE.heavy>
13

>  <SCORE.norm>
-1.28538

>  <RMSD>
19.151

$$$$
ligand
 OpenBabel11021811453D
libRbt.so/2013.1/901 2013/11/27
 13 12  0  0  0  0  0  0  0  0999 V2000
   38.6934   20.5300   57.4219 O   0  0  0  0  0  0  0  0  0  0  0  0
   40.6569   20.5805   55.4372 O   0  0  0  0  0  0  0  0  0  0  0  0
   36.9801   23.9480   59.5122 P   0  0  2  0  0  0  0  0  0  0  0  0
   35.5673   24.3158   59.2054 O   0  5  0  0  0  0  0  0  0  0  0  0
   38.0808   24.8135   59.0160 O   0  0  0  0  0  0  0  0  0  0  0  0
   37.2545   22.4800   58.9763 O   0  0  0  0  0  0  0  0  0  0  0  0
   43.0458   21.8855   55.5654 O   0  0  0  0  0  0  0  0  0  0  0  0
   38.2968   21.6703   59.5391 C   0  0  0  0  0  0  0  0  0  0  0  0
   39.6113   19.5820   55.3197 C   0  0  0  0  0  0  0  0  0  0  0  0
   42.3340   21.9806   54.3399 C   0  0  0  0  0  0  0  0  0  0  0  0
   38.3638   20.3187   58.8079 C   0  0  0  0  0  0  0  0  0  0  0  0
   38.9274   19.3006   56.6801 C   0  0  0  0  0  0  0  0  0  0  0  0
   41.4223   20.7463   54.2206 C   0  0  0  0  0  0  0  0  0  0  0  0
  1 12  1  0  0  0  0
  1 11  1  0  0  0  0
  2 13  1  0  0  0  0
  2  9  1  0  0  0  0
  3  4  1  6  0  0  0
  3  5  2  0  0  0  0
  3  6  1  0  0  0  0
  6  8  1  0  0  0  0
  7 10  1  0  0  0  0
  8 11  1  0  0  0  0
  9 12  1  0  0  0  0
 10 13  1  0  0  0  0
M  CHG  1   4  -1
M  END
>  <CHROM.1>
-165.83126818,169.99409407,-156.08730703,-178.43525213,62.42579647,172.89633003
41.89296577,50.10474398,173.46780091,38.97976068,21.92504040,57.43755639
0.57788840,-0.66677231,-2.91444190

>  <Name>
ligand

>  <RI>
0

>  <Rbt.Current_Directory>
/home/itssahil/PROJECTS/Mol_Feturizer/New_Systems/rnas/2NPY

>  <Rbt.Executable>
rbdock ($Id: //depot/dev/client3/rdock/2013.1/src/exe/rbdock.cxx#4 $)

>  <Rbt.Library>
libRbt.so (2013.1, Build901 2013/11/27)

>  <Rbt.Parameter_File>
/export/apps/rDock/src/rDock_2013.1_src/data/scripts/dock_solv.prm

>  <Rbt.Receptor>
prm/blind_docking_80.prm

>  <SCORE>
-14.2103

>  <SCORE.INTER>
-1.64058

>  <SCORE.INTER.CONST>
1

>  <SCORE.INTER.POLAR>
0

>  <SCORE.INTER.ROT>
9

>  <SCORE.INTER.SOLV>
8.17112

>  <SCORE.INTER.VDW>
-13.4174

>  <SCORE.INTER.norm>
-0.126198

>  <SCORE.INTRA>
-12.5697

>  <SCORE.INTRA.DIHEDRAL>
-21.8816

>  <SCORE.INTRA.DIHEDRAL.0>
25.6828

>  <SCORE.INTRA.POLAR>
0

>  <SCORE.INTRA.POLAR.0>
0

>  <SCORE.INTRA.REPUL>
0

>  <SCORE.INTRA.REPUL.0>
0

>  <SCORE.INTRA.SOLV>
-1.04194

>  <SCORE.INTRA.SOLV.lig_0>
-48.5059

>  <SCORE.INTRA.VDW>
-1.10794

>  <SCORE.INTRA.VDW.0>
-0.363643

>  <SCORE.INTRA.norm>
-0.966902

>  <SCORE.RESTR>
0

>  <SCORE.RESTR.CAVITY>
0

>  <SCORE.RESTR.norm>
0

>  <SCORE.SYSTEM>
0

>  <SCORE.SYSTEM.CONST>
0

>  <SCORE.SYSTEM.DIHEDRAL>
0

>  <SCORE.SYSTEM.SOLV>
0

>  <SCORE.SYSTEM.norm>
0

>  <SCORE.heavy>
13

>  <SCORE.norm>
-1.0931

>  <RMSD>
19.180

$$$$
ligand
 OpenBabel11021811453D
libRbt.so/2013.1/901 2013/11/27
 13 12  0  0  0  0  0  0  0  0999 V2000
   38.9953   20.6497   57.6082 O   0  0  0  0  0  0  0  0  0  0  0  0
   40.3375   20.7817   55.1559 O   0  0  0  0  0  0  0  0  0  0  0  0
   37.2135   23.4318   59.3510 P   0  0  2  0  0  0  0  0  0  0  0  0
   37.2981   24.6714   58.5255 O   0  5  0  0  0  0  0  0  0  0  0  0
   36.6403   23.5073   60.7194 O   0  0  0  0  0  0  0  0  0  0  0  0
   38.6646   22.8031   59.4801 O   0  0  0  0  0  0  0  0  0  0  0  0
   42.5612   22.5732   55.1652 O   0  0  0  0  0  0  0  0  0  0  0  0
   38.8469   21.4454   59.9070 C   0  0  0  0  0  0  0  0  0  0  0  0
   39.7496   19.5111   55.5357 C   0  0  0  0  0  0  0  0  0  0  0  0
   42.0660   22.0233   53.9528 C   0  0  0  0  0  0  0  0  0  0  0  0
   38.2827   20.4824   58.8486 C   0  0  0  0  0  0  0  0  0  0  0  0
   38.6224   19.6875   56.5827 C   0  0  0  0  0  0  0  0  0  0  0  0
   41.4689   20.6396   54.2652 C   0  0  0  0  0  0  0  0  0  0  0  0
  1 12  1  0  0  0  0
  1 11  1  0  0  0  0
  2 13  1  0  0  0  0
  2  9  1  0  0  0  0
  3  4  1  1  0  0  0
  3  5  2  0  0  0  0
  3  6  1  0  0  0  0
  6  8  1  0  0  0  0
  7 10  1  0  0  0  0
  8 11  1  0  0  0  0
  9 12  1  0  0  0  0
 10 13  1  0  0  0  0
M  CHG  1   4  -1
M  END
>  <CHROM.1>
-156.62348673,-177.89369928,-163.44106133,66.66370945,61.74675274,175.04739815
-42.72529621,63.68653486,174.19476916,39.11018894,21.89087024,57.50441119
0.47414614,-0.84850026,-2.95649701

>  <Name>
ligand

>  <RI>
0

>  <Rbt.Current_Directory>
/home/itssahil/PROJECTS/Mol_Feturizer/New_Systems/rnas/2NPY

>  <Rbt.Executable>
rbdock ($Id: //depot/dev/client3/rdock/2013.1/src/exe/rbdock.cxx#4 $)

>  <Rbt.Library>
libRbt.so (2013.1, Build901 2013/11/27)

>  <Rbt.Parameter_File>
/export/apps/rDock/src/rDock_2013.1_src/data/scripts/dock_solv.prm

>  <Rbt.Receptor>
prm/blind_docking_100.prm

>  <SCORE>
-12.145

>  <SCORE.INTER>
-0.73084

>  <SCORE.INTER.CONST>
1

>  <SCORE.INTER.POLAR>
0

>  <SCORE.INTER.ROT>
9

>  <SCORE.INTER.SOLV>
7.58234

>  <SCORE.INTER.VDW>
-12.6147

>  <SCORE.INTER.norm>
-0.0562185

>  <SCORE.INTRA>
-11.4142

>  <SCORE.INTRA.DIHEDRAL>
-21.5035

>  <SCORE.INTRA.DIHEDRAL.0>
25.6828

>  <SCORE.INTRA.POLAR>
0

>  <SCORE.INTRA.POLAR.0>
0

>  <SCORE.INTRA.REPUL>
0

>  <SCORE.INTRA.REPUL.0>
0

>  <SCORE.INTRA.SOLV>
0.622314

>  <SCORE.INTRA.SOLV.lig_0>
-48.5059

>  <SCORE.INTRA.VDW>
-0.973591

>  <SCORE.INTRA.VDW.0>
-0.363643

>  <SCORE.INTRA.norm>
-0.878016

>  <SCORE.RESTR>
0

>  <SCORE.RESTR.CAVITY>
0

>  <SCORE.RESTR.norm>
0

>  <SCORE.SYSTEM>
0

>  <SCORE.SYSTEM.CONST>
0

>  <SCORE.SYSTEM.DIHEDRAL>
0

>  <SCORE.SYSTEM.SOLV>
0

>  <SCORE.SYSTEM.norm>
0

>  <SCORE.heavy>
13

>  <SCORE.norm>
-0.934234

>  <RMSD>
19.204

$$$$
ligand
 OpenBabel11021811453D
libRbt.so/2013.1/901 2013/11/27
 13 12  0  0  0  0  0  0  0  0999 V2000
   39.5072   20.5109   55.3484 O   0  0  0  0  0  0  0  0  0  0  0  0
   41.3497   21.9580   53.7994 O   0  0  0  0  0  0  0  0  0  0  0  0
   38.5006   21.3921   59.4341 P   0  0  2  0  0  0  0  0  0  0  0  0
   37.1207   21.1355   59.9393 O   0  5  0  0  0  0  0  0  0  0  0  0
   39.0916   22.7462   59.5893 O   0  0  0  0  0  0  0  0  0  0  0  0
   38.5571   21.0254   57.8915 O   0  0  0  0  0  0  0  0  0  0  0  0
   43.5502   20.9576   52.5028 O   0  0  0  0  0  0  0  0  0  0  0  0
   38.6341   19.6595   57.4586 C   0  0  0  0  0  0  0  0  0  0  0  0
   41.8683   21.0432   54.7986 C   0  0  0  0  0  0  0  0  0  0  0  0
   43.0872   22.2395   52.1028 C   0  0  0  0  0  0  0  0  0  0  0  0
   38.5603   19.5907   55.9237 C   0  0  0  0  0  0  0  0  0  0  0  0
   40.8371   19.9491   55.1690 C   0  0  0  0  0  0  0  0  0  0  0  0
   42.3499   22.8741   53.2955 C   0  0  0  0  0  0  0  0  0  0  0  0
  1 12  1  0  0  0  0
  1 11  1  0  0  0  0
  2 13  1  0  0  0  0
  2  9  1  0  0  0  0
  3  4  1  6  0  0  0
  3  5  2  0  0  0  0
  3  6  1  0  0  0  0
  6  8  1  0  0  0  0
  7 10  1  0  0  0  0
  8 11  1  0  0  0  0
  9 12  1  0  0  0  0
 10 13  1  0  0  0  0
M  CHG  1   4  -1
M  END
>  <CHROM.1>
-169.48248358,87.95897618,-77.32058530,175.42048132,50.06477419,-171.79781923
-43.99706633,-52.07752146,87.32886159,40.07218273,21.19157896,56.25471074
0.56439267,-0.81681410,-2.36316128

>  <Name>
ligand

>  <RI>
0

>  <Rbt.Current_Directory>
/home/itssahil/PROJECTS/Mol_Feturizer/New_Systems/rnas/2NPY

>  <Rbt.Executable>
rbdock ($Id: //depot/dev/client3/rdock/2013.1/src/exe/rbdock.cxx#4 $)

>  <Rbt.Library>
libRbt.so (2013.1, Build901 2013/11/27)

>  <Rbt.Parameter_File>
/export/apps/rDock/src/rDock_2013.1_src/data/scripts/dock_solv.prm

>  <Rbt.Receptor>
prm/blind_docking_100.prm

>  <SCORE>
-10.5

>  <SCORE.INTER>
-1.77769

>  <SCORE.INTER.CONST>
1

>  <SCORE.INTER.POLAR>
0

>  <SCORE.INTER.ROT>
9

>  <SCORE.INTER.SOLV>
17.7294

>  <SCORE.INTER.VDW>
-16.6949

>  <SCORE.INTER.norm>
-0.136746

>  <SCORE.INTRA>
-8.7223

>  <SCORE.INTRA.DIHEDRAL>
-16.3882

>  <SCORE.INTRA.DIHEDRAL.0>
25.6828

>  <SCORE.INTRA.POLAR>
0

>  <SCORE.INTRA.POLAR.0>
0

>  <SCORE.INTRA.REPUL>
0

>  <SCORE.INTRA.REPUL.0>
0

>  <SCORE.INTRA.SOLV>
-0.710465

>  <SCORE.INTRA.SOLV.lig_0>
-48.5059

>  <SCORE.INTRA.VDW>
-0.172981

>  <SCORE.INTRA.VDW.0>
-0.363643

>  <SCORE.INTRA.norm>
-0.670946

>  <SCORE.RESTR>
0

>  <SCORE.RESTR.CAVITY>
0

>  <SCORE.RESTR.norm>
0

>  <SCORE.SYSTEM>
0

>  <SCORE.SYSTEM.CONST>
0

>  <SCORE.SYSTEM.DIHEDRAL>
0

>  <SCORE.SYSTEM.SOLV>
0

>  <SCORE.SYSTEM.norm>
0

>  <SCORE.heavy>
13

>  <SCORE.norm>
-0.807691

>  <RMSD>
19.215

$$$$
ligand
 OpenBabel11021811453D
libRbt.so/2013.1/901 2013/11/27
 13 12  0  0  0  0  0  0  0  0999 V2000
   38.7017   20.4945   57.4023 O   0  0  0  0  0  0  0  0  0  0  0  0
   40.7289   20.4677   55.3870 O   0  0  0  0  0  0  0  0  0  0  0  0
   36.6820   23.7363   59.5829 P   0  0  2  0  0  0  0  0  0  0  0  0
   36.5516   23.6459   61.0662 O   0  5  0  0  0  0  0  0  0  0  0  0
   35.5305   24.2228   58.7802 O   0  0  0  0  0  0  0  0  0  0  0  0
   37.0841   22.3097   59.0168 O   0  0  0  0  0  0  0  0  0  0  0  0
   43.0506   22.0680   53.0406 O   0  0  0  0  0  0  0  0  0  0  0  0
   38.2349   21.6135   59.5166 C   0  0  0  0  0  0  0  0  0  0  0  0
   39.5860   19.5819   55.2703 C   0  0  0  0  0  0  0  0  0  0  0  0
   42.4666   21.8072   54.3088 C   0  0  0  0  0  0  0  0  0  0  0  0
   38.3898   20.2667   58.7899 C   0  0  0  0  0  0  0  0  0  0  0  0
   38.9512   19.2752   56.6490 C   0  0  0  0  0  0  0  0  0  0  0  0
   41.3336   20.7845   54.1113 C   0  0  0  0  0  0  0  0  0  0  0  0
  1 12  1  0  0  0  0
  1 11  1  0  0  0  0
  2 13  1  0  0  0  0
  2  9  1  0  0  0  0
  3  4  1  1  0  0  0
  3  5  2  0  0  0  0
  3  6  1  0  0  0  0
  6  8  1  0  0  0  0
  7 10  1  0  0  0  0
  8 11  1  0  0  0  0
  9 12  1  0  0  0  0
 10 13  1  0  0  0  0
M  CHG  1   4  -1
M  END
>  <CHROM.1>
-167.15512561,175.75679850,-54.43971541,-179.73483720,66.40501048,-179.32670218
50.08584389,178.75949918,176.30709745,38.81133969,21.77024145,57.36016408
0.27783693,-0.83109580,3.10567772

>  <Name>
ligand

>  <RI>
0

>  <Rbt.Current_Directory>
/home/itssahil/PROJECTS/Mol_Feturizer/New_Systems/rnas/2NPY

>  <Rbt.Executable>
rbdock ($Id: //depot/dev/client3/rdock/2013.1/src/exe/rbdock.cxx#4 $)

>  <Rbt.Library>
libRbt.so (2013.1, Build901 2013/11/27)

>  <Rbt.Parameter_File>
/export/apps/rDock/src/rDock_2013.1_src/data/scripts/dock_solv.prm

>  <Rbt.Receptor>
prm/blind_docking_80.prm

>  <SCORE>
-14.9577

>  <SCORE.INTER>
-1.16372

>  <SCORE.INTER.CONST>
1

>  <SCORE.INTER.POLAR>
0

>  <SCORE.INTER.ROT>
9

>  <SCORE.INTER.SOLV>
8.79665

>  <SCORE.INTER.VDW>
-13.308

>  <SCORE.INTER.norm>
-0.0895173

>  <SCORE.INTRA>
-13.794

>  <SCORE.INTRA.DIHEDRAL>
-24.188

>  <SCORE.INTRA.DIHEDRAL.0>
25.6828

>  <SCORE.INTRA.POLAR>
0

>  <SCORE.INTRA.POLAR.0>
0

>  <SCORE.INTRA.REPUL>
0

>  <SCORE.INTRA.REPUL.0>
0

>  <SCORE.INTRA.SOLV>
-1.29377

>  <SCORE.INTRA.SOLV.lig_0>
-48.5059

>  <SCORE.INTRA.VDW>
-1.05312

>  <SCORE.INTRA.VDW.0>
-0.363643

>  <SCORE.INTRA.norm>
-1.06108

>  <SCORE.RESTR>
0

>  <SCORE.RESTR.CAVITY>
0

>  <SCORE.RESTR.norm>
0

>  <SCORE.SYSTEM>
0

>  <SCORE.SYSTEM.CONST>
0

>  <SCORE.SYSTEM.DIHEDRAL>
0

>  <SCORE.SYSTEM.SOLV>
0

>  <SCORE.SYSTEM.norm>
0

>  <SCORE.heavy>
13

>  <SCORE.norm>
-1.15059

>  <RMSD>
19.244

$$$$
ligand
 OpenBabel11021811453D
libRbt.so/2013.1/901 2013/11/27
 13 12  0  0  0  0  0  0  0  0999 V2000
   34.8593   22.9333   60.1710 O   0  0  0  0  0  0  0  0  0  0  0  0
   38.3673   21.6858   60.6313 O   0  0  0  0  0  0  0  0  0  0  0  0
   30.8344   23.7546   61.3781 P   0  0  2  0  0  0  0  0  0  0  0  0
   31.3022   24.6592   62.4683 O   0  5  0  0  0  0  0  0  0  0  0  0
   29.9813   22.5870   61.7182 O   0  0  0  0  0  0  0  0  0  0  0  0
   32.0982   23.2042   60.5926 O   0  0  0  0  0  0  0  0  0  0  0  0
   41.0984   22.0695   61.2605 O   0  0  0  0  0  0  0  0  0  0  0  0
   32.7453   23.9956   59.5857 C   0  0  0  0  0  0  0  0  0  0  0  0
   36.9883   21.9563   60.9914 C   0  0  0  0  0  0  0  0  0  0  0  0
   40.5783   22.5329   60.0227 C   0  0  0  0  0  0  0  0  0  0  0  0
   33.9955   23.2649   59.0672 C   0  0  0  0  0  0  0  0  0  0  0  0
   36.1474   22.3917   59.7662 C   0  0  0  0  0  0  0  0  0  0  0  0
   39.0909   22.8718   60.2270 C   0  0  0  0  0  0  0  0  0  0  0  0
  1 12  1  0  0  0  0
  1 11  1  0  0  0  0
  2 13  1  0  0  0  0
  2  9  1  0  0  0  0
  3  4  1  1  0  0  0
  3  5  2  0  0  0  0
  3  6  1  0  0  0  0
  6  8  1  0  0  0  0
  7 10  1  0  0  0  0
  8 11  1  0  0  0  0
  9 12  1  0  0  0  0
 10 13  1  0  0  0  0
M  CHG  1   4  -1
M  END
>  <CHROM.1>
-175.73531447,173.36397202,-80.83567305,175.76114747,-54.80408250,67.56210859
-167.70619175,-61.01988406,-172.58317619,34.84929322,22.97988585,60.69807457
0.08222340,0.16154716,-1.53616238

>  <Name>
ligand

>  <RI>
0

>  <Rbt.Current_Directory>
/home/itssahil/PROJECTS/Mol_Feturizer/New_Systems/rnas/2NPY

>  <Rbt.Executable>
rbdock ($Id: //depot/dev/client3/rdock/2013.1/src/exe/rbdock.cxx#4 $)

>  <Rbt.Library>
libRbt.so (2013.1, Build901 2013/11/27)

>  <Rbt.Parameter_File>
/export/apps/rDock/src/rDock_2013.1_src/data/scripts/dock_solv.prm

>  <Rbt.Receptor>
prm/blind_docking_80.prm

>  <SCORE>
-9.34095

>  <SCORE.INTER>
3.14572

>  <SCORE.INTER.CONST>
1

>  <SCORE.INTER.POLAR>
0

>  <SCORE.INTER.ROT>
9

>  <SCORE.INTER.SOLV>
13.2217

>  <SCORE.INTER.VDW>
-11.9101

>  <SCORE.INTER.norm>
0.241978

>  <SCORE.INTRA>
-12.4867

>  <SCORE.INTRA.DIHEDRAL>
-23.4446

>  <SCORE.INTRA.DIHEDRAL.0>
25.6828

>  <SCORE.INTRA.POLAR>
0

>  <SCORE.INTRA.POLAR.0>
0

>  <SCORE.INTRA.REPUL>
0

>  <SCORE.INTRA.REPUL.0>
0

>  <SCORE.INTRA.SOLV>
-1.1992

>  <SCORE.INTRA.SOLV.lig_0>
-48.5059

>  <SCORE.INTRA.VDW>
-0.164749

>  <SCORE.INTRA.VDW.0>
-0.363643

>  <SCORE.INTRA.norm>
-0.960513

>  <SCORE.RESTR>
0

>  <SCORE.RESTR.CAVITY>
0

>  <SCORE.RESTR.norm>
0

>  <SCORE.SYSTEM>
0

>  <SCORE.SYSTEM.CONST>
0

>  <SCORE.SYSTEM.DIHEDRAL>
0

>  <SCORE.SYSTEM.SOLV>
0

>  <SCORE.SYSTEM.norm>
0

>  <SCORE.heavy>
13

>  <SCORE.norm>
-0.718535

>  <RMSD>
19.669

$$$$
ligand
 OpenBabel11021811453D
libRbt.so/2013.1/901 2013/11/27
 13 12  0  0  0  0  0  0  0  0999 V2000
   37.9210   19.4138   58.2711 O   0  0  0  0  0  0  0  0  0  0  0  0
   40.3361   19.3542   55.8001 O   0  0  0  0  0  0  0  0  0  0  0  0
   36.2858   23.3315   59.9484 P   0  0  2  0  0  0  0  0  0  0  0  0
   35.6969   22.7447   61.1870 O   0  5  0  0  0  0  0  0  0  0  0  0
   35.4030   24.0492   58.9932 O   0  0  0  0  0  0  0  0  0  0  0  0
   37.0239   22.1836   59.1394 O   0  0  0  0  0  0  0  0  0  0  0  0
   42.4310   21.5513   53.7414 O   0  0  0  0  0  0  0  0  0  0  0  0
   37.9830   21.3283   59.7779 C   0  0  0  0  0  0  0  0  0  0  0  0
   38.9105   19.1825   56.0066 C   0  0  0  0  0  0  0  0  0  0  0  0
   42.1720   20.5338   54.6981 C   0  0  0  0  0  0  0  0  0  0  0  0
   38.7416   20.5089   58.7201 C   0  0  0  0  0  0  0  0  0  0  0  0
   38.6024   18.5033   57.3637 C   0  0  0  0  0  0  0  0  0  0  0  0
   40.6478   20.3397   54.7876 C   0  0  0  0  0  0  0  0  0  0  0  0
  1 12  1  0  0  0  0
  1 11  1  0  0  0  0
  2 13  1  0  0  0  0
  2  9  1  0  0  0  0
  3  4  1  1  0  0  0
  3  5  2  0  0  0  0
  3  6  1  0  0  0  0
  6  8  1  0  0  0  0
  7 10  1  0  0  0  0
  8 11  1  0  0  0  0
  9 12  1  0  0  0  0
 10 13  1  0  0  0  0
M  CHG  1   4  -1
M  END
>  <CHROM.1>
-67.85345030,176.06287412,-51.38711587,-168.63680468,-78.14423370,-161.32988968
113.09783353,-177.27533904,-174.30949818,38.41177922,21.21960025,57.77853486
0.28790145,-0.82193403,3.02658979

>  <Name>
ligand

>  <RI>
0

>  <Rbt.Current_Directory>
/home/itssahil/PROJECTS/Mol_Feturizer/New_Systems/rnas/2NPY

>  <Rbt.Executable>
rbdock ($Id: //depot/dev/client3/rdock/2013.1/src/exe/rbdock.cxx#4 $)

>  <Rbt.Library>
libRbt.so (2013.1, Build901 2013/11/27)

>  <Rbt.Parameter_File>
/export/apps/rDock/src/rDock_2013.1_src/data/scripts/dock_solv.prm

>  <Rbt.Receptor>
prm/blind_docking_100.prm

>  <SCORE>
-11.6074

>  <SCORE.INTER>
-2.47258

>  <SCORE.INTER.CONST>
1

>  <SCORE.INTER.POLAR>
0

>  <SCORE.INTER.ROT>
9

>  <SCORE.INTER.SOLV>
12.9037

>  <SCORE.INTER.VDW>
-15.5496

>  <SCORE.INTER.norm>
-0.190198

>  <SCORE.INTRA>
-9.13478

>  <SCORE.INTRA.DIHEDRAL>
-16.3757

>  <SCORE.INTRA.DIHEDRAL.0>
25.6828

>  <SCORE.INTRA.POLAR>
0

>  <SCORE.INTRA.POLAR.0>
0

>  <SCORE.INTRA.REPUL>
0

>  <SCORE.INTRA.REPUL.0>
0

>  <SCORE.INTRA.SOLV>
-1.41293

>  <SCORE.INTRA.SOLV.lig_0>
-48.5059

>  <SCORE.INTRA.VDW>
-0.240441

>  <SCORE.INTRA.VDW.0>
-0.363643

>  <SCORE.INTRA.norm>
-0.702675

>  <SCORE.RESTR>
0

>  <SCORE.RESTR.CAVITY>
0

>  <SCORE.RESTR.norm>
0

>  <SCORE.SYSTEM>
0

>  <SCORE.SYSTEM.CONST>
0

>  <SCORE.SYSTEM.DIHEDRAL>
0

>  <SCORE.SYSTEM.SOLV>
0

>  <SCORE.SYSTEM.norm>
0

>  <SCORE.heavy>
13

>  <SCORE.norm>
-0.892874

>  <RMSD>
19.699

$$$$
ligand
 OpenBabel11021811453D
libRbt.so/2013.1/901 2013/11/27
 13 12  0  0  0  0  0  0  0  0999 V2000
   38.9360   20.4215   57.2541 O   0  0  0  0  0  0  0  0  0  0  0  0
   41.2603   19.9546   55.3484 O   0  0  0  0  0  0  0  0  0  0  0  0
   39.9216   22.8349   60.8056 P   0  0  2  0  0  0  0  0  0  0  0  0
   39.0880   23.9979   60.3839 O   0  5  0  0  0  0  0  0  0  0  0  0
   41.3918   23.0035   60.9365 O   0  0  0  0  0  0  0  0  0  0  0  0
   39.6710   21.6342   59.7992 O   0  0  0  0  0  0  0  0  0  0  0  0
   40.7102   22.5472   54.3660 O   0  0  0  0  0  0  0  0  0  0  0  0
   38.3406   21.1968   59.4867 C   0  0  0  0  0  0  0  0  0  0  0  0
   39.8532   19.7921   55.0353 C   0  0  0  0  0  0  0  0  0  0  0  0
   42.0482   22.0733   54.4174 C   0  0  0  0  0  0  0  0  0  0  0  0
   38.3948   20.0010   58.5208 C   0  0  0  0  0  0  0  0  0  0  0  0
   39.0343   19.3515   56.2735 C   0  0  0  0  0  0  0  0  0  0  0  0
   42.0183   20.5421   54.2650 C   0  0  0  0  0  0  0  0  0  0  0  0
  1 12  1  0  0  0  0
  1 11  1  0  0  0  0
  2 13  1  0  0  0  0
  2  9  1  0  0  0  0
  3  4  1  6  0  0  0
  3  5  2  0  0  0  0
  3  6  1  0  0  0  0
  6  8  1  0  0  0  0
  7 10  1  0  0  0  0
  8 11  1  0  0  0  0
  9 12  1  0  0  0  0
 10 13  1  0  0  0  0
M  CHG  1   4  -1
M  END
>  <CHROM.1>
-169.56423459,91.21660834,-51.21568744,-178.49456917,-65.89221380,-171.93434693
69.79701416,-60.78792617,179.63588357,40.04797869,21.48826944,57.75382061
1.29907487,-0.78496473,-2.09910251

>  <Name>
ligand

>  <RI>
0

>  <Rbt.Current_Directory>
/home/itssahil/PROJECTS/Mol_Feturizer/New_Systems/rnas/2NPY

>  <Rbt.Executable>
rbdock ($Id: //depot/dev/client3/rdock/2013.1/src/exe/rbdock.cxx#4 $)

>  <Rbt.Library>
libRbt.so (2013.1, Build901 2013/11/27)

>  <Rbt.Parameter_File>
/export/apps/rDock/src/rDock_2013.1_src/data/scripts/dock_solv.prm

>  <Rbt.Receptor>
prm/blind_docking_80.prm

>  <SCORE>
-14.6889

>  <SCORE.INTER>
-3.31983

>  <SCORE.INTER.CONST>
1

>  <SCORE.INTER.POLAR>
0

>  <SCORE.INTER.ROT>
9

>  <SCORE.INTER.SOLV>
14.5454

>  <SCORE.INTER.VDW>
-16.6617

>  <SCORE.INTER.norm>
-0.255372

>  <SCORE.INTRA>
-11.3691

>  <SCORE.INTRA.DIHEDRAL>
-20.4705

>  <SCORE.INTRA.DIHEDRAL.0>
25.6828

>  <SCORE.INTRA.POLAR>
0

>  <SCORE.INTRA.POLAR.0>
0

>  <SCORE.INTRA.REPUL>
0

>  <SCORE.INTRA.REPUL.0>
0

>  <SCORE.INTRA.SOLV>
-0.714785

>  <SCORE.INTRA.SOLV.lig_0>
-48.5059

>  <SCORE.INTRA.VDW>
-0.776467

>  <SCORE.INTRA.VDW.0>
-0.363643

>  <SCORE.INTRA.norm>
-0.874546

>  <SCORE.RESTR>
0

>  <SCORE.RESTR.CAVITY>
0

>  <SCORE.RESTR.norm>
0

>  <SCORE.SYSTEM>
0

>  <SCORE.SYSTEM.CONST>
0

>  <SCORE.SYSTEM.DIHEDRAL>
0

>  <SCORE.SYSTEM.SOLV>
0

>  <SCORE.SYSTEM.norm>
0

>  <SCORE.heavy>
13

>  <SCORE.norm>
-1.12992

>  <RMSD>
19.715

$$$$
ligand
 OpenBabel11021811453D
libRbt.so/2013.1/901 2013/11/27
 13 12  0  0  0  0  0  0  0  0999 V2000
   38.9581   20.5259   58.7419 O   0  0  0  0  0  0  0  0  0  0  0  0
   39.6080   20.2640   56.0271 O   0  0  0  0  0  0  0  0  0  0  0  0
   38.6348   24.2446   62.1510 P   0  0  2  0  0  0  0  0  0  0  0  0
   37.5310   24.7903   62.9933 O   0  5  0  0  0  0  0  0  0  0  0  0
   39.3758   25.1576   61.2432 O   0  0  0  0  0  0  0  0  0  0  0  0
   38.0641   23.0580   61.2659 O   0  0  0  0  0  0  0  0  0  0  0  0
   42.0224   21.7559   55.5377 O   0  0  0  0  0  0  0  0  0  0  0  0
   38.9376   22.2390   60.4753 C   0  0  0  0  0  0  0  0  0  0  0  0
   39.0756   19.1016   56.7125 C   0  0  0  0  0  0  0  0  0  0  0  0
   41.2508   21.2048   54.4803 C   0  0  0  0  0  0  0  0  0  0  0  0
   38.1186   21.1880   59.7069 C   0  0  0  0  0  0  0  0  0  0  0  0
   38.2731   19.4954   57.9769 C   0  0  0  0  0  0  0  0  0  0  0  0
   40.5711   19.9261   55.0017 C   0  0  0  0  0  0  0  0  0  0  0  0
  1 12  1  0  0  0  0
  1 11  1  0  0  0  0
  2 13  1  0  0  0  0
  2  9  1  0  0  0  0
  3  4  1  6  0  0  0
  3  5  2  0  0  0  0
  3  6  1  0  0  0  0
  6  8  1  0  0  0  0
  7 10  1  0  0  0  0
  8 11  1  0  0  0  0
  9 12  1  0  0  0  0
 10 13  1  0  0  0  0
M  CHG  1   4  -1
M  END
>  <CHROM.1>
163.98055891,-171.02246267,-172.41605597,-179.11840386,169.94230593,168.66301494
-43.37260636,66.11354495,179.10394198,39.21253910,22.01081379,58.95848600
1.17807131,-0.82525764,-2.41418857

>  <Name>
ligand

>  <RI>
0

>  <Rbt.Current_Directory>
/home/itssahil/PROJECTS/Mol_Feturizer/New_Systems/rnas/2NPY

>  <Rbt.Executable>
rbdock ($Id: //depot/dev/client3/rdock/2013.1/src/exe/rbdock.cxx#4 $)

>  <Rbt.Library>
libRbt.so (2013.1, Build901 2013/11/27)

>  <Rbt.Parameter_File>
/export/apps/rDock/src/rDock_2013.1_src/data/scripts/dock_solv.prm

>  <Rbt.Receptor>
prm/blind_docking_80.prm

>  <SCORE>
-13.6496

>  <SCORE.INTER>
-1.12757

>  <SCORE.INTER.CONST>
1

>  <SCORE.INTER.POLAR>
0

>  <SCORE.INTER.ROT>
9

>  <SCORE.INTER.SOLV>
11.7795

>  <SCORE.INTER.VDW>
-14.2782

>  <SCORE.INTER.norm>
-0.0867363

>  <SCORE.INTRA>
-12.522

>  <SCORE.INTRA.DIHEDRAL>
-21.9437

>  <SCORE.INTRA.DIHEDRAL.0>
25.6828

>  <SCORE.INTRA.POLAR>
0

>  <SCORE.INTRA.POLAR.0>
0

>  <SCORE.INTRA.REPUL>
0

>  <SCORE.INTRA.REPUL.0>
0

>  <SCORE.INTRA.SOLV>
-1.10785

>  <SCORE.INTRA.SOLV.lig_0>
-48.5059

>  <SCORE.INTRA.VDW>
-0.996206

>  <SCORE.INTRA.VDW.0>
-0.363643

>  <SCORE.INTRA.norm>
-0.963231

>  <SCORE.RESTR>
0

>  <SCORE.RESTR.CAVITY>
0

>  <SCORE.RESTR.norm>
0

>  <SCORE.SYSTEM>
0

>  <SCORE.SYSTEM.CONST>
0

>  <SCORE.SYSTEM.DIHEDRAL>
0

>  <SCORE.SYSTEM.SOLV>
0

>  <SCORE.SYSTEM.norm>
0

>  <SCORE.heavy>
13

>  <SCORE.norm>
-1.04997

>  <RMSD>
20.054

$$$$
ligand
 OpenBabel11021811453D
libRbt.so/2013.1/901 2013/11/27
 13 12  0  0  0  0  0  0  0  0999 V2000
   34.3474   15.6906   52.4713 O   0  0  0  0  0  0  0  0  0  0  0  0
   32.4246   17.2381   51.3830 O   0  0  0  0  0  0  0  0  0  0  0  0
   36.2836   11.7732   53.5835 P   0  0  2  0  0  0  0  0  0  0  0  0
   37.7638   11.8733   53.4280 O   0  5  0  0  0  0  0  0  0  0  0  0
   35.4245   11.7592   52.3716 O   0  0  0  0  0  0  0  0  0  0  0  0
   35.7841   12.9655   54.5035 O   0  0  0  0  0  0  0  0  0  0  0  0
   30.2004   15.5959   50.8244 O   0  0  0  0  0  0  0  0  0  0  0  0
   34.7784   13.8811   54.0460 C   0  0  0  0  0  0  0  0  0  0  0  0
   33.7761   17.6255   51.0256 C   0  0  0  0  0  0  0  0  0  0  0  0
   30.0741   17.0087   50.7513 C   0  0  0  0  0  0  0  0  0  0  0  0
   35.3850   14.8605   53.0269 C   0  0  0  0  0  0  0  0  0  0  0  0
   34.8290   16.9581   51.9441 C   0  0  0  0  0  0  0  0  0  0  0  0
   31.4480   17.5918   50.3757 C   0  0  0  0  0  0  0  0  0  0  0  0
  1 12  1  0  0  0  0
  1 11  1  0  0  0  0
  2 13  1  0  0  0  0
  2  9  1  0  0  0  0
  3  4  1  6  0  0  0
  3  5  2  0  0  0  0
  3  6  1  0  0  0  0
  6  8  1  0  0  0  0
  7 10  1  0  0  0  0
  8 11  1  0  0  0  0
  9 12  1  0  0  0  0
 10 13  1  0  0  0  0
M  CHG  1   4  -1
M  END
>  <CHROM.1>
164.23657808,173.56798406,123.96949476,-75.21319015,174.32761695,-166.81943687
27.48642644,-60.19292785,156.38511262,34.23594944,14.68356222,52.40308774
-2.33792670,0.32528250,2.93758378

>  <Name>
ligand

>  <RI>
0

>  <Rbt.Current_Directory>
/home/itssahil/PROJECTS/Mol_Feturizer/New_Systems/rnas/2NPY

>  <Rbt.Executable>
rbdock ($Id: //depot/dev/client3/rdock/2013.1/src/exe/rbdock.cxx#4 $)

>  <Rbt.Library>
libRbt.so (2013.1, Build901 2013/11/27)

>  <Rbt.Parameter_File>
/export/apps/rDock/src/rDock_2013.1_src/data/scripts/dock_solv.prm

>  <Rbt.Receptor>
prm/blind_docking_100.prm

>  <SCORE>
-14.37

>  <SCORE.INTER>
-6.92219

>  <SCORE.INTER.CONST>
1

>  <SCORE.INTER.POLAR>
0

>  <SCORE.INTER.ROT>
9

>  <SCORE.INTER.SOLV>
29.0395

>  <SCORE.INTER.VDW>
-23.8946

>  <SCORE.INTER.norm>
-0.532476

>  <SCORE.INTRA>
-7.44783

>  <SCORE.INTRA.DIHEDRAL>
-15.1847

>  <SCORE.INTRA.DIHEDRAL.0>
25.6828

>  <SCORE.INTRA.POLAR>
0

>  <SCORE.INTRA.POLAR.0>
0

>  <SCORE.INTRA.REPUL>
0

>  <SCORE.INTRA.REPUL.0>
0

>  <SCORE.INTRA.SOLV>
0.962069

>  <SCORE.INTRA.SOLV.lig_0>
-48.5059

>  <SCORE.INTRA.VDW>
-0.3365

>  <SCORE.INTRA.VDW.0>
-0.363643

>  <SCORE.INTRA.norm>
-0.57291

>  <SCORE.RESTR>
0

>  <SCORE.RESTR.CAVITY>
0

>  <SCORE.RESTR.norm>
0

>  <SCORE.SYSTEM>
0

>  <SCORE.SYSTEM.CONST>
0

>  <SCORE.SYSTEM.DIHEDRAL>
0

>  <SCORE.SYSTEM.SOLV>
0

>  <SCORE.SYSTEM.norm>
0

>  <SCORE.heavy>
13

>  <SCORE.norm>
-1.10539

>  <RMSD>
20.333

$$$$
ligand
 OpenBabel11021811453D
libRbt.so/2013.1/901 2013/11/27
 13 12  0  0  0  0  0  0  0  0999 V2000
   27.6621   13.4939   43.1995 O   0  0  0  0  0  0  0  0  0  0  0  0
   24.7464   14.4610   43.5729 O   0  0  0  0  0  0  0  0  0  0  0  0
   32.6837   13.5699   42.5880 P   0  0  2  0  0  0  0  0  0  0  0  0
   32.7631   15.0505   42.4232 O   0  5  0  0  0  0  0  0  0  0  0  0
   32.7548   12.6998   41.3860 O   0  0  0  0  0  0  0  0  0  0  0  0
   31.3403   13.2117   43.3524 O   0  0  0  0  0  0  0  0  0  0  0  0
   23.7236   17.0981   43.0977 O   0  0  0  0  0  0  0  0  0  0  0  0
   30.0705   13.6783   42.8743 C   0  0  0  0  0  0  0  0  0  0  0  0
   25.2035   13.1772   43.0757 C   0  0  0  0  0  0  0  0  0  0  0  0
   22.9628   16.1188   43.7903 C   0  0  0  0  0  0  0  0  0  0  0  0
   28.9376   13.0826   43.7272 C   0  0  0  0  0  0  0  0  0  0  0  0
   26.5360   12.7448   43.7354 C   0  0  0  0  0  0  0  0  0  0  0  0
   23.3626   14.7341   43.2502 C   0  0  0  0  0  0  0  0  0  0  0  0
  1 12  1  0  0  0  0
  1 11  1  0  0  0  0
  2 13  1  0  0  0  0
  2  9  1  0  0  0  0
  3  4  1  6  0  0  0
  3  5  2  0  0  0  0
  3  6  1  0  0  0  0
  6  8  1  0  0  0  0
  7 10  1  0  0  0  0
  8 11  1  0  0  0  0
  9 12  1  0  0  0  0
 10 13  1  0  0  0  0
M  CHG  1   4  -1
M  END
>  <CHROM.1>
-176.88046544,-179.07652702,53.84737733,174.95234965,-176.85744850,-165.00614836
-75.14377572,64.93684327,166.51683746,28.33931775,14.05876089,43.02914771
2.96624818,0.13783487,-0.12729772

>  <Name>
ligand

>  <RI>
-1

>  <Rbt.Current_Directory>
/home/itssahil/PROJECTS/Mol_Feturizer/New_Systems/rnas/2NPY

>  <Rbt.Executable>
rbdock ($Id: //depot/dev/client3/rdock/2013.1/src/exe/rbdock.cxx#4 $)

>  <Rbt.Library>
libRbt.so (2013.1, Build901 2013/11/27)

>  <Rbt.Parameter_File>
/export/apps/rDock/src/rDock_2013.1_src/data/scripts/dock_solv.prm

>  <Rbt.Receptor>
prm/blind_docking_60.prm

>  <SCORE>
-15.5519

>  <SCORE.INTER>
-2.99739

>  <SCORE.INTER.CONST>
1

>  <SCORE.INTER.POLAR>
0

>  <SCORE.INTER.ROT>
9

>  <SCORE.INTER.SOLV>
18.723

>  <SCORE.INTER.VDW>
-17.8393

>  <SCORE.INTER.norm>
-0.230569

>  <SCORE.INTRA>
-12.5546

>  <SCORE.INTRA.DIHEDRAL>
-22.4781

>  <SCORE.INTRA.DIHEDRAL.0>
25.6828

>  <SCORE.INTRA.POLAR>
0

>  <SCORE.INTRA.POLAR.0>
0

>  <SCORE.INTRA.REPUL>
0

>  <SCORE.INTRA.REPUL.0>
0

>  <SCORE.INTRA.SOLV>
-0.785163

>  <SCORE.INTRA.SOLV.lig_0>
-48.5059

>  <SCORE.INTRA.VDW>
-0.922941

>  <SCORE.INTRA.VDW.0>
-0.363643

>  <SCORE.INTRA.norm>
-0.965735

>  <SCORE.RESTR>
0

>  <SCORE.RESTR.CAVITY>
0

>  <SCORE.RESTR.norm>
0

>  <SCORE.SYSTEM>
0

>  <SCORE.SYSTEM.CONST>
0

>  <SCORE.SYSTEM.DIHEDRAL>
0

>  <SCORE.SYSTEM.SOLV>
0

>  <SCORE.SYSTEM.norm>
0

>  <SCORE.heavy>
13

>  <SCORE.norm>
-1.1963

>  <RMSD>
20.778

$$$$
ligand
 OpenBabel11021811453D
libRbt.so/2013.1/901 2013/11/27
 13 12  0  0  0  0  0  0  0  0999 V2000
   29.7222   14.9103   51.8442 O   0  0  0  0  0  0  0  0  0  0  0  0
   32.2283   16.6346   51.0912 O   0  0  0  0  0  0  0  0  0  0  0  0
   25.5475   13.0184   53.8939 P   0  0  2  0  0  0  0  0  0  0  0  0
   25.1484   14.4101   54.2534 O   0  5  0  0  0  0  0  0  0  0  0  0
   26.0091   12.0954   54.9625 O   0  0  0  0  0  0  0  0  0  0  0  0
   26.6919   13.0817   52.7967 O   0  0  0  0  0  0  0  0  0  0  0  0
   34.6481   16.7437   52.5287 O   0  0  0  0  0  0  0  0  0  0  0  0
   27.9083   13.8037   53.0379 C   0  0  0  0  0  0  0  0  0  0  0  0
   30.8388   16.8197   50.7181 C   0  0  0  0  0  0  0  0  0  0  0  0
   34.4398   17.6199   51.4304 C   0  0  0  0  0  0  0  0  0  0  0  0
   28.7567   13.8453   51.7555 C   0  0  0  0  0  0  0  0  0  0  0  0
   30.1007   15.4682   50.5550 C   0  0  0  0  0  0  0  0  0  0  0  0
   32.9281   17.8821   51.3092 C   0  0  0  0  0  0  0  0  0  0  0  0
  1 12  1  0  0  0  0
  1 11  1  0  0  0  0
  2 13  1  0  0  0  0
  2  9  1  0  0  0  0
  3  4  1  1  0  0  0
  3  5  2  0  0  0  0
  3  6  1  0  0  0  0
  6  8  1  0  0  0  0
  7 10  1  0  0  0  0
  8 11  1  0  0  0  0
  9 12  1  0  0  0  0
 10 13  1  0  0  0  0
M  CHG  1   4  -1
M  END
>  <CHROM.1>
165.32928111,-169.11507842,56.37393256,-173.02271943,160.77835546,-177.39784109
79.08352514,-59.79201460,-151.42034325,29.25643232,14.90965519,52.48066878
0.46000664,-0.34664973,-1.16169192

>  <Name>
ligand

>  <RI>
0

>  <Rbt.Current_Directory>
/home/itssahil/PROJECTS/Mol_Feturizer/New_Systems/rnas/2NPY

>  <Rbt.Executable>
rbdock ($Id: //depot/dev/client3/rdock/2013.1/src/exe/rbdock.cxx#4 $)

>  <Rbt.Library>
libRbt.so (2013.1, Build901 2013/11/27)

>  <Rbt.Parameter_File>
/export/apps/rDock/src/rDock_2013.1_src/data/scripts/dock_solv.prm

>  <Rbt.Receptor>
prm/blind_docking_100.prm

>  <SCORE>
-16.3386

>  <SCORE.INTER>
-6.0923

>  <SCORE.INTER.CONST>
1

>  <SCORE.INTER.POLAR>
0

>  <SCORE.INTER.ROT>
9

>  <SCORE.INTER.SOLV>
15.4675

>  <SCORE.INTER.VDW>
-18.8174

>  <SCORE.INTER.norm>
-0.468639

>  <SCORE.INTRA>
-10.2463

>  <SCORE.INTRA.DIHEDRAL>
-17.8384

>  <SCORE.INTRA.DIHEDRAL.0>
25.6828

>  <SCORE.INTRA.POLAR>
0

>  <SCORE.INTRA.POLAR.0>
0

>  <SCORE.INTRA.REPUL>
0

>  <SCORE.INTRA.REPUL.0>
0

>  <SCORE.INTRA.SOLV>
-0.782454

>  <SCORE.INTRA.SOLV.lig_0>
-48.5059

>  <SCORE.INTRA.VDW>
-0.935836

>  <SCORE.INTRA.VDW.0>
-0.363643

>  <SCORE.INTRA.norm>
-0.788176

>  <SCORE.RESTR>
0

>  <SCORE.RESTR.CAVITY>
0

>  <SCORE.RESTR.norm>
0

>  <SCORE.SYSTEM>
0

>  <SCORE.SYSTEM.CONST>
0

>  <SCORE.SYSTEM.DIHEDRAL>
0

>  <SCORE.SYSTEM.SOLV>
0

>  <SCORE.SYSTEM.norm>
0

>  <SCORE.heavy>
13

>  <SCORE.norm>
-1.25681

>  <RMSD>
20.831

$$$$
ligand
 OpenBabel11021811453D
libRbt.so/2013.1/901 2013/11/27
 13 12  0  0  0  0  0  0  0  0999 V2000
   26.7803   12.9363   43.3900 O   0  0  0  0  0  0  0  0  0  0  0  0
   24.3062   14.4584   43.2259 O   0  0  0  0  0  0  0  0  0  0  0  0
   31.1887   14.0163   43.2269 P   0  0  2  0  0  0  0  0  0  0  0  0
   30.2919   14.5911   42.1825 O   0  5  0  0  0  0  0  0  0  0  0  0
   32.5273   13.5053   42.8346 O   0  0  0  0  0  0  0  0  0  0  0  0
   30.4272   12.8334   43.9604 O   0  0  0  0  0  0  0  0  0  0  0  0
   23.5535   17.1733   43.1544 O   0  0  0  0  0  0  0  0  0  0  0  0
   29.0391   12.9491   44.3052 C   0  0  0  0  0  0  0  0  0  0  0  0
   24.4181   13.1303   42.6533 C   0  0  0  0  0  0  0  0  0  0  0  0
   22.9029   16.2829   44.0496 C   0  0  0  0  0  0  0  0  0  0  0  0
   28.1698   12.7706   43.0489 C   0  0  0  0  0  0  0  0  0  0  0  0
   25.8771   12.7938   42.2585 C   0  0  0  0  0  0  0  0  0  0  0  0
   22.9355   14.8746   43.4296 C   0  0  0  0  0  0  0  0  0  0  0  0
  1 12  1  0  0  0  0
  1 11  1  0  0  0  0
  2 13  1  0  0  0  0
  2  9  1  0  0  0  0
  3  4  1  6  0  0  0
  3  5  2  0  0  0  0
  3  6  1  0  0  0  0
  6  8  1  0  0  0  0
  7 10  1  0  0  0  0
  8 11  1  0  0  0  0
  9 12  1  0  0  0  0
 10 13  1  0  0  0  0
M  CHG  1   4  -1
M  END
>  <CHROM.1>
-173.91722906,179.48008088,-41.19299164,75.95377900,-177.89483694,171.77749586
55.86106029,59.94816499,179.59459344,27.48541274,14.03623359,43.20589113
2.92420047,0.01253953,0.02385587

>  <Name>
ligand

>  <RI>
-1

>  <Rbt.Current_Directory>
/home/itssahil/PROJECTS/Mol_Feturizer/New_Systems/rnas/2NPY

>  <Rbt.Executable>
rbdock ($Id: //depot/dev/client3/rdock/2013.1/src/exe/rbdock.cxx#4 $)

>  <Rbt.Library>
libRbt.so (2013.1, Build901 2013/11/27)

>  <Rbt.Parameter_File>
/export/apps/rDock/src/rDock_2013.1_src/data/scripts/dock_solv.prm

>  <Rbt.Receptor>
prm/blind_docking_60.prm

>  <SCORE>
-16.0161

>  <SCORE.INTER>
-3.83242

>  <SCORE.INTER.CONST>
1

>  <SCORE.INTER.POLAR>
0

>  <SCORE.INTER.ROT>
9

>  <SCORE.INTER.SOLV>
17.2518

>  <SCORE.INTER.VDW>
-17.9056

>  <SCORE.INTER.norm>
-0.294802

>  <SCORE.INTRA>
-12.1836

>  <SCORE.INTRA.DIHEDRAL>
-23.6882

>  <SCORE.INTRA.DIHEDRAL.0>
25.6828

>  <SCORE.INTRA.POLAR>
0

>  <SCORE.INTRA.POLAR.0>
0

>  <SCORE.INTRA.REPUL>
0

>  <SCORE.INTRA.REPUL.0>
0

>  <SCORE.INTRA.SOLV>
0.568266

>  <SCORE.INTRA.SOLV.lig_0>
-48.5059

>  <SCORE.INTRA.VDW>
-0.623695

>  <SCORE.INTRA.VDW.0>
-0.363643

>  <SCORE.INTRA.norm>
-0.937204

>  <SCORE.RESTR>
0

>  <SCORE.RESTR.CAVITY>
0

>  <SCORE.RESTR.norm>
0

>  <SCORE.SYSTEM>
0

>  <SCORE.SYSTEM.CONST>
0

>  <SCORE.SYSTEM.DIHEDRAL>
0

>  <SCORE.SYSTEM.SOLV>
0

>  <SCORE.SYSTEM.norm>
0

>  <SCORE.heavy>
13

>  <SCORE.norm>
-1.23201

>  <RMSD>
20.963

$$$$
ligand
 OpenBabel11021811453D
libRbt.so/2013.1/901 2013/11/27
 13 12  0  0  0  0  0  0  0  0999 V2000
   27.6180   13.1593   43.9950 O   0  0  0  0  0  0  0  0  0  0  0  0
   24.8123   14.1101   44.0787 O   0  0  0  0  0  0  0  0  0  0  0  0
   31.8451   13.6432   42.5025 P   0  0  2  0  0  0  0  0  0  0  0  0
   32.8064   12.5286   42.7456 O   0  5  0  0  0  0  0  0  0  0  0  0
   32.2846   15.0443   42.7273 O   0  0  0  0  0  0  0  0  0  0  0  0
   30.5512   13.4053   43.3893 O   0  0  0  0  0  0  0  0  0  0  0  0
   22.0277   16.1870   42.9022 O   0  0  0  0  0  0  0  0  0  0  0  0
   29.7332   12.2407   43.2062 C   0  0  0  0  0  0  0  0  0  0  0  0
   25.4913   13.7360   42.8526 C   0  0  0  0  0  0  0  0  0  0  0  0
   22.7557   14.9811   43.0844 C   0  0  0  0  0  0  0  0  0  0  0  0
   28.6422   12.1903   44.2893 C   0  0  0  0  0  0  0  0  0  0  0  0
   26.5818   12.6652   43.1014 C   0  0  0  0  0  0  0  0  0  0  0  0
   23.9978   15.2976   43.9364 C   0  0  0  0  0  0  0  0  0  0  0  0
  1 12  1  0  0  0  0
  1 11  1  0  0  0  0
  2 13  1  0  0  0  0
  2  9  1  0  0  0  0
  3  4  1  1  0  0  0
  3  5  2  0  0  0  0
  3  6  1  0  0  0  0
  6  8  1  0  0  0  0
  7 10  1  0  0  0  0
  8 11  1  0  0  0  0
  9 12  1  0  0  0  0
 10 13  1  0  0  0  0
M  CHG  1   4  -1
M  END
>  <CHROM.1>
178.46915298,71.37140140,-61.71813185,173.99048234,74.92585468,167.56420823
-61.71730798,-176.55370589,86.49058423,28.00586874,13.78863427,43.23042077
2.98260999,0.11710715,-0.32009673

>  <Name>
ligand

>  <RI>
-1

>  <Rbt.Current_Directory>
/home/itssahil/PROJECTS/Mol_Feturizer/New_Systems/rnas/2NPY

>  <Rbt.Executable>
rbdock ($Id: //depot/dev/client3/rdock/2013.1/src/exe/rbdock.cxx#4 $)

>  <Rbt.Library>
libRbt.so (2013.1, Build901 2013/11/27)

>  <Rbt.Parameter_File>
/export/apps/rDock/src/rDock_2013.1_src/data/scripts/dock_solv.prm

>  <Rbt.Receptor>
prm/blind_docking_60.prm

>  <SCORE>
-12.5779

>  <SCORE.INTER>
-1.93023

>  <SCORE.INTER.CONST>
1

>  <SCORE.INTER.POLAR>
0

>  <SCORE.INTER.ROT>
9

>  <SCORE.INTER.SOLV>
16.1585

>  <SCORE.INTER.VDW>
-16.273

>  <SCORE.INTER.norm>
-0.148479

>  <SCORE.INTRA>
-10.6477

>  <SCORE.INTRA.DIHEDRAL>
-20.2601

>  <SCORE.INTRA.DIHEDRAL.0>
25.6828

>  <SCORE.INTRA.POLAR>
0

>  <SCORE.INTRA.POLAR.0>
0

>  <SCORE.INTRA.REPUL>
0

>  <SCORE.INTRA.REPUL.0>
0

>  <SCORE.INTRA.SOLV>
-1.33828

>  <SCORE.INTRA.SOLV.lig_0>
-48.5059

>  <SCORE.INTRA.VDW>
0.151548

>  <SCORE.INTRA.VDW.0>
-0.363643

>  <SCORE.INTRA.norm>
-0.819051

>  <SCORE.RESTR>
0

>  <SCORE.RESTR.CAVITY>
0

>  <SCORE.RESTR.norm>
0

>  <SCORE.SYSTEM>
0

>  <SCORE.SYSTEM.CONST>
0

>  <SCORE.SYSTEM.DIHEDRAL>
0

>  <SCORE.SYSTEM.SOLV>
0

>  <SCORE.SYSTEM.norm>
0

>  <SCORE.heavy>
13

>  <SCORE.norm>
-0.96753

>  <RMSD>
21.073

$$$$
ligand
 OpenBabel11021811453D
libRbt.so/2013.1/901 2013/11/27
 13 12  0  0  0  0  0  0  0  0999 V2000
   26.6588   12.4580   43.2778 O   0  0  0  0  0  0  0  0  0  0  0  0
   23.5828   14.6183   43.1200 O   0  0  0  0  0  0  0  0  0  0  0  0
   31.6377   13.3617   43.2479 P   0  0  2  0  0  0  0  0  0  0  0  0
   32.4892   14.4887   42.7680 O   0  5  0  0  0  0  0  0  0  0  0  0
   31.8671   11.9966   42.7088 O   0  0  0  0  0  0  0  0  0  0  0  0
   30.1152   13.7237   42.9867 O   0  0  0  0  0  0  0  0  0  0  0  0
   20.8558   15.2389   43.5752 O   0  0  0  0  0  0  0  0  0  0  0  0
   29.0638   12.8356   43.3926 C   0  0  0  0  0  0  0  0  0  0  0  0
   24.8758   14.1565   43.5881 C   0  0  0  0  0  0  0  0  0  0  0  0
   21.7746   16.2608   43.2162 C   0  0  0  0  0  0  0  0  0  0  0  0
   27.7045   13.3841   42.9267 C   0  0  0  0  0  0  0  0  0  0  0  0
   25.3342   12.8770   42.8461 C   0  0  0  0  0  0  0  0  0  0  0  0
   23.1650   15.8576   43.7388 C   0  0  0  0  0  0  0  0  0  0  0  0
  1 12  1  0  0  0  0
  1 11  1  0  0  0  0
  2 13  1  0  0  0  0
  2  9  1  0  0  0  0
  3  4  1  6  0  0  0
  3  5  2  0  0  0  0
  3  6  1  0  0  0  0
  6  8  1  0  0  0  0
  7 10  1  0  0  0  0
  8 11  1  0  0  0  0
  9 12  1  0  0  0  0
 10 13  1  0  0  0  0
M  CHG  1   4  -1
M  END
>  <CHROM.1>
-65.96188251,-178.65274118,-177.87540057,-175.89270253,177.18045034,-176.51216923
177.31115988,61.48769631,-178.54527964,27.28097999,13.88565513,43.18295049
2.93153006,0.03453597,0.04915589

>  <Name>
ligand

>  <RI>
-1

>  <Rbt.Current_Directory>
/home/itssahil/PROJECTS/Mol_Feturizer/New_Systems/rnas/2NPY

>  <Rbt.Executable>
rbdock ($Id: //depot/dev/client3/rdock/2013.1/src/exe/rbdock.cxx#4 $)

>  <Rbt.Library>
libRbt.so (2013.1, Build901 2013/11/27)

>  <Rbt.Parameter_File>
/export/apps/rDock/src/rDock_2013.1_src/data/scripts/dock_solv.prm

>  <Rbt.Receptor>
prm/blind_docking_60.prm

>  <SCORE>
-16.6323

>  <SCORE.INTER>
-3.55732

>  <SCORE.INTER.CONST>
1

>  <SCORE.INTER.POLAR>
0

>  <SCORE.INTER.ROT>
9

>  <SCORE.INTER.SOLV>
13.8512

>  <SCORE.INTER.VDW>
-16.5886

>  <SCORE.INTER.norm>
-0.27364

>  <SCORE.INTRA>
-13.075

>  <SCORE.INTRA.DIHEDRAL>
-25.2416

>  <SCORE.INTRA.DIHEDRAL.0>
25.6828

>  <SCORE.INTRA.POLAR>
0

>  <SCORE.INTRA.POLAR.0>
0

>  <SCORE.INTRA.REPUL>
0

>  <SCORE.INTRA.REPUL.0>
0

>  <SCORE.INTRA.SOLV>
-1.23478

>  <SCORE.INTRA.SOLV.lig_0>
-48.5059

>  <SCORE.INTRA.VDW>
0.163218

>  <SCORE.INTRA.VDW.0>
-0.363643

>  <SCORE.INTRA.norm>
-1.00577

>  <SCORE.RESTR>
0

>  <SCORE.RESTR.CAVITY>
0

>  <SCORE.RESTR.norm>
0

>  <SCORE.SYSTEM>
0

>  <SCORE.SYSTEM.CONST>
0

>  <SCORE.SYSTEM.DIHEDRAL>
0

>  <SCORE.SYSTEM.SOLV>
0

>  <SCORE.SYSTEM.norm>
0

>  <SCORE.heavy>
13

>  <SCORE.norm>
-1.27941

>  <RMSD>
21.104

$$$$
ligand
 OpenBabel11021811453D
libRbt.so/2013.1/901 2013/11/27
 13 12  0  0  0  0  0  0  0  0999 V2000
   26.4483   13.5488   43.6797 O   0  0  0  0  0  0  0  0  0  0  0  0
   22.7178   13.9940   43.5518 O   0  0  0  0  0  0  0  0  0  0  0  0
   31.4188   12.9354   42.9894 P   0  0  2  0  0  0  0  0  0  0  0  0
   31.7208   11.7590   43.8556 O   0  5  0  0  0  0  0  0  0  0  0  0
   31.6757   14.3041   43.5066 O   0  0  0  0  0  0  0  0  0  0  0  0
   29.8942   12.8725   42.5546 O   0  0  0  0  0  0  0  0  0  0  0  0
   23.4545   16.7883   43.2843 O   0  0  0  0  0  0  0  0  0  0  0  0
   28.8455   13.1503   43.4937 C   0  0  0  0  0  0  0  0  0  0  0  0
   24.0704   14.1557   44.0507 C   0  0  0  0  0  0  0  0  0  0  0  0
   22.2166   16.2714   42.8178 C   0  0  0  0  0  0  0  0  0  0  0  0
   27.4792   13.0782   42.7908 C   0  0  0  0  0  0  0  0  0  0  0  0
   25.1156   13.5271   43.0966 C   0  0  0  0  0  0  0  0  0  0  0  0
   22.4406   14.8101   42.3897 C   0  0  0  0  0  0  0  0  0  0  0  0
  1 12  1  0  0  0  0
  1 11  1  0  0  0  0
  2 13  1  0  0  0  0
  2  9  1  0  0  0  0
  3  4  1  1  0  0  0
  3  5  2  0  0  0  0
  3  6  1  0  0  0  0
  6  8  1  0  0  0  0
  7 10  1  0  0  0  0
  8 11  1  0  0  0  0
  9 12  1  0  0  0  0
 10 13  1  0  0  0  0
M  CHG  1   4  -1
M  END
>  <CHROM.1>
-175.10108882,-76.69814294,72.38280458,177.49141294,-171.51893629,-70.67963068
-173.02846552,68.27396062,179.56915502,27.15857542,13.85420386,43.22524887
2.87194994,0.01161040,-0.08554323

>  <Name>
ligand

>  <RI>
-1

>  <Rbt.Current_Directory>
/home/itssahil/PROJECTS/Mol_Feturizer/New_Systems/rnas/2NPY

>  <Rbt.Executable>
rbdock ($Id: //depot/dev/client3/rdock/2013.1/src/exe/rbdock.cxx#4 $)

>  <Rbt.Library>
libRbt.so (2013.1, Build901 2013/11/27)

>  <Rbt.Parameter_File>
/export/apps/rDock/src/rDock_2013.1_src/data/scripts/dock_solv.prm

>  <Rbt.Receptor>
prm/blind_docking_60.prm

>  <SCORE>
-13.7182

>  <SCORE.INTER>
-2.97268

>  <SCORE.INTER.CONST>
1

>  <SCORE.INTER.POLAR>
0

>  <SCORE.INTER.ROT>
9

>  <SCORE.INTER.SOLV>
14.7166

>  <SCORE.INTER.VDW>
-16.4873

>  <SCORE.INTER.norm>
-0.228668

>  <SCORE.INTRA>
-10.7456

>  <SCORE.INTRA.DIHEDRAL>
-22.9064

>  <SCORE.INTRA.DIHEDRAL.0>
25.6828

>  <SCORE.INTRA.POLAR>
0

>  <SCORE.INTRA.POLAR.0>
0

>  <SCORE.INTRA.REPUL>
0

>  <SCORE.INTRA.REPUL.0>
0

>  <SCORE.INTRA.SOLV>
-0.478706

>  <SCORE.INTRA.SOLV.lig_0>
-48.5059

>  <SCORE.INTRA.VDW>
0.94701

>  <SCORE.INTRA.VDW.0>
-0.363643

>  <SCORE.INTRA.norm>
-0.826582

>  <SCORE.RESTR>
0

>  <SCORE.RESTR.CAVITY>
0

>  <SCORE.RESTR.norm>
0

>  <SCORE.SYSTEM>
0

>  <SCORE.SYSTEM.CONST>
0

>  <SCORE.SYSTEM.DIHEDRAL>
0

>  <SCORE.SYSTEM.SOLV>
0

>  <SCORE.SYSTEM.norm>
0

>  <SCORE.heavy>
13

>  <SCORE.norm>
-1.05525

>  <RMSD>
21.139

$$$$
ligand
 OpenBabel11021811453D
libRbt.so/2013.1/901 2013/11/27
 13 12  0  0  0  0  0  0  0  0999 V2000
   26.6395   13.7841   43.5266 O   0  0  0  0  0  0  0  0  0  0  0  0
   24.3003   15.7408   43.6818 O   0  0  0  0  0  0  0  0  0  0  0  0
   31.2748   11.7798   43.8362 P   0  0  2  0  0  0  0  0  0  0  0  0
   32.1173   12.9887   43.6034 O   0  5  0  0  0  0  0  0  0  0  0  0
   31.7667   10.4528   43.3846 O   0  0  0  0  0  0  0  0  0  0  0  0
   29.8541   12.0100   43.1683 O   0  0  0  0  0  0  0  0  0  0  0  0
   21.5092   14.9230   43.2852 O   0  0  0  0  0  0  0  0  0  0  0  0
   28.9219   12.9514   43.7193 C   0  0  0  0  0  0  0  0  0  0  0  0
   24.2439   14.3092   43.9090 C   0  0  0  0  0  0  0  0  0  0  0  0
   21.9627   16.2661   43.1960 C   0  0  0  0  0  0  0  0  0  0  0  0
   27.6327   12.9655   42.8803 C   0  0  0  0  0  0  0  0  0  0  0  0
   25.2848   13.5480   43.0516 C   0  0  0  0  0  0  0  0  0  0  0  0
   23.1349   16.4401   44.1780 C   0  0  0  0  0  0  0  0  0  0  0  0
  1 12  1  0  0  0  0
  1 11  1  0  0  0  0
  2 13  1  0  0  0  0
  2  9  1  0  0  0  0
  3  4  1  6  0  0  0
  3  5  2  0  0  0  0
  3  6  1  0  0  0  0
  6  8  1  0  0  0  0
  7 10  1  0  0  0  0
  8 11  1  0  0  0  0
  9 12  1  0  0  0  0
 10 13  1  0  0  0  0
M  CHG  1   4  -1
M  END
>  <CHROM.1>
172.25818418,-78.35708755,-70.49396720,-179.74950854,172.92800571,164.53997879
71.00147373,71.49190268,-162.34490245,27.22564481,13.52830565,43.51840954
-2.74133801,0.11174460,-2.89094275

>  <Name>
ligand

>  <RI>
-1

>  <Rbt.Current_Directory>
/home/itssahil/PROJECTS/Mol_Feturizer/New_Systems/rnas/2NPY

>  <Rbt.Executable>
rbdock ($Id: //depot/dev/client3/rdock/2013.1/src/exe/rbdock.cxx#4 $)

>  <Rbt.Library>
libRbt.so (2013.1, Build901 2013/11/27)

>  <Rbt.Parameter_File>
/export/apps/rDock/src/rDock_2013.1_src/data/scripts/dock_solv.prm

>  <Rbt.Receptor>
prm/blind_docking_60.prm

>  <SCORE>
-14.4999

>  <SCORE.INTER>
-3.93085

>  <SCORE.INTER.CONST>
1

>  <SCORE.INTER.POLAR>
0

>  <SCORE.INTER.ROT>
9

>  <SCORE.INTER.SOLV>
16.7807

>  <SCORE.INTER.VDW>
-17.8141

>  <SCORE.INTER.norm>
-0.302373

>  <SCORE.INTRA>
-10.569

>  <SCORE.INTRA.DIHEDRAL>
-19.9115

>  <SCORE.INTRA.DIHEDRAL.0>
25.6828

>  <SCORE.INTRA.POLAR>
0

>  <SCORE.INTRA.POLAR.0>
0

>  <SCORE.INTRA.REPUL>
0

>  <SCORE.INTRA.REPUL.0>
0

>  <SCORE.INTRA.SOLV>
-0.977206

>  <SCORE.INTRA.SOLV.lig_0>
-48.5059

>  <SCORE.INTRA.VDW>
-0.124675

>  <SCORE.INTRA.VDW.0>
-0.363643

>  <SCORE.INTRA.norm>
-0.813002

>  <SCORE.RESTR>
0

>  <SCORE.RESTR.CAVITY>
0

>  <SCORE.RESTR.norm>
0

>  <SCORE.SYSTEM>
0

>  <SCORE.SYSTEM.CONST>
0

>  <SCORE.SYSTEM.DIHEDRAL>
0

>  <SCORE.SYSTEM.SOLV>
0

>  <SCORE.SYSTEM.norm>
0

>  <SCORE.heavy>
13

>  <SCORE.norm>
-1.11538

>  <RMSD>
21.261

$$$$
ligand
 OpenBabel11021811453D
libRbt.so/2013.1/901 2013/11/27
 13 12  0  0  0  0  0  0  0  0999 V2000
   27.0841   13.3887   43.7091 O   0  0  0  0  0  0  0  0  0  0  0  0
   23.4093   14.0015   43.1839 O   0  0  0  0  0  0  0  0  0  0  0  0
   31.3966   14.1406   43.3153 P   0  0  2  0  0  0  0  0  0  0  0  0
   31.6496   15.1360   42.2333 O   0  5  0  0  0  0  0  0  0  0  0  0
   32.2913   12.9616   43.4423 O   0  0  0  0  0  0  0  0  0  0  0  0
   29.9134   13.5956   43.1722 O   0  0  0  0  0  0  0  0  0  0  0  0
   20.6539   13.7239   43.8488 O   0  0  0  0  0  0  0  0  0  0  0  0
   29.3741   12.6623   44.1193 C   0  0  0  0  0  0  0  0  0  0  0  0
   24.7832   14.3037   43.5377 C   0  0  0  0  0  0  0  0  0  0  0  0
   21.0883   14.7318   42.9472 C   0  0  0  0  0  0  0  0  0  0  0  0
   27.9567   12.2429   43.6938 C   0  0  0  0  0  0  0  0  0  0  0  0
   25.7187   13.0920   43.3041 C   0  0  0  0  0  0  0  0  0  0  0  0
   22.5220   15.1342   43.3361 C   0  0  0  0  0  0  0  0  0  0  0  0
  1 12  1  0  0  0  0
  1 11  1  0  0  0  0
  2 13  1  0  0  0  0
  2  9  1  0  0  0  0
  3  4  1  6  0  0  0
  3  5  2  0  0  0  0
  3  6  1  0  0  0  0
  6  8  1  0  0  0  0
  7 10  1  0  0  0  0
  8 11  1  0  0  0  0
  9 12  1  0  0  0  0
 10 13  1  0  0  0  0
M  CHG  1   4  -1
M  END
>  <CHROM.1>
171.63055308,-179.79997653,-177.27698321,-176.65685817,-63.25054075,-177.43176289
-177.84041236,62.94859808,179.32816339,27.17108062,13.80846196,43.36192221
3.10364800,0.03901171,-0.41546846

>  <Name>
ligand

>  <RI>
-1

>  <Rbt.Current_Directory>
/home/itssahil/PROJECTS/Mol_Feturizer/New_Systems/rnas/2NPY

>  <Rbt.Executable>
rbdock ($Id: //depot/dev/client3/rdock/2013.1/src/exe/rbdock.cxx#4 $)

>  <Rbt.Library>
libRbt.so (2013.1, Build901 2013/11/27)

>  <Rbt.Parameter_File>
/export/apps/rDock/src/rDock_2013.1_src/data/scripts/dock_solv.prm

>  <Rbt.Receptor>
prm/blind_docking_60.prm

>  <SCORE>
-16.9125

>  <SCORE.INTER>
-2.85994

>  <SCORE.INTER.CONST>
1

>  <SCORE.INTER.POLAR>
0

>  <SCORE.INTER.ROT>
9

>  <SCORE.INTER.SOLV>
17.1908

>  <SCORE.INTER.VDW>
-17.2369

>  <SCORE.INTER.norm>
-0.219995

>  <SCORE.INTRA>
-14.0525

>  <SCORE.INTRA.DIHEDRAL>
-25.1265

>  <SCORE.INTRA.DIHEDRAL.0>
25.6828

>  <SCORE.INTRA.POLAR>
0

>  <SCORE.INTRA.POLAR.0>
0

>  <SCORE.INTRA.REPUL>
0

>  <SCORE.INTRA.REPUL.0>
0

>  <SCORE.INTRA.SOLV>
-1.1952

>  <SCORE.INTRA.SOLV.lig_0>
-48.5059

>  <SCORE.INTRA.VDW>
-0.89168

>  <SCORE.INTRA.VDW.0>
-0.363643

>  <SCORE.INTRA.norm>
-1.08097

>  <SCORE.RESTR>
0

>  <SCORE.RESTR.CAVITY>
0

>  <SCORE.RESTR.norm>
0

>  <SCORE.SYSTEM>
0

>  <SCORE.SYSTEM.CONST>
0

>  <SCORE.SYSTEM.DIHEDRAL>
0

>  <SCORE.SYSTEM.SOLV>
0

>  <SCORE.SYSTEM.norm>
0

>  <SCORE.heavy>
13

>  <SCORE.norm>
-1.30096

>  <RMSD>
21.320

$$$$
ligand
 OpenBabel11021811453D
libRbt.so/2013.1/901 2013/11/27
 13 12  0  0  0  0  0  0  0  0999 V2000
   27.0463   13.0678   43.7702 O   0  0  0  0  0  0  0  0  0  0  0  0
   23.5455   14.1241   42.8874 O   0  0  0  0  0  0  0  0  0  0  0  0
   30.5544   14.0229   42.7841 P   0  0  2  0  0  0  0  0  0  0  0  0
   31.6019   15.0112   43.1732 O   0  5  0  0  0  0  0  0  0  0  0  0
   29.4790   14.4348   41.8457 O   0  0  0  0  0  0  0  0  0  0  0  0
   29.8522   13.4775   44.0981 O   0  0  0  0  0  0  0  0  0  0  0  0
   20.7435   13.6928   43.1221 O   0  0  0  0  0  0  0  0  0  0  0  0
   29.2790   12.1627   44.1389 C   0  0  0  0  0  0  0  0  0  0  0  0
   24.8198   14.1481   43.5801 C   0  0  0  0  0  0  0  0  0  0  0  0
   21.2520   14.9481   42.6940 C   0  0  0  0  0  0  0  0  0  0  0  0
   28.0080   12.1175   43.2738 C   0  0  0  0  0  0  0  0  0  0  0  0
   25.8025   13.0926   43.0160 C   0  0  0  0  0  0  0  0  0  0  0  0
   22.6328   15.1501   43.3432 C   0  0  0  0  0  0  0  0  0  0  0  0
  1 12  1  0  0  0  0
  1 11  1  0  0  0  0
  2 13  1  0  0  0  0
  2  9  1  0  0  0  0
  3  4  1  1  0  0  0
  3  5  2  0  0  0  0
  3  6  1  0  0  0  0
  6  8  1  0  0  0  0
  7 10  1  0  0  0  0
  8 11  1  0  0  0  0
  9 12  1  0  0  0  0
 10 13  1  0  0  0  0
M  CHG  1   4  -1
M  END
>  <CHROM.1>
-179.01098535,-172.84185996,-151.65905790,-70.73788861,-59.90925459,-176.75920399
-176.45719402,62.61732993,-179.70177052,26.86373492,13.83065064,43.17221221
0.05169899,-0.01445965,2.71411635

>  <Name>
ligand

>  <RI>
-1

>  <Rbt.Current_Directory>
/home/itssahil/PROJECTS/Mol_Feturizer/New_Systems/rnas/2NPY

>  <Rbt.Executable>
rbdock ($Id: //depot/dev/client3/rdock/2013.1/src/exe/rbdock.cxx#4 $)

>  <Rbt.Library>
libRbt.so (2013.1, Build901 2013/11/27)

>  <Rbt.Parameter_File>
/export/apps/rDock/src/rDock_2013.1_src/data/scripts/dock_solv.prm

>  <Rbt.Receptor>
prm/blind_docking_60.prm

>  <SCORE>
-14.6647

>  <SCORE.INTER>
-2.1601

>  <SCORE.INTER.CONST>
1

>  <SCORE.INTER.POLAR>
0

>  <SCORE.INTER.ROT>
9

>  <SCORE.INTER.SOLV>
16.4073

>  <SCORE.INTER.VDW>
-16.5092

>  <SCORE.INTER.norm>
-0.166162

>  <SCORE.INTRA>
-12.5046

>  <SCORE.INTRA.DIHEDRAL>
-24.2192

>  <SCORE.INTRA.DIHEDRAL.0>
25.6828

>  <SCORE.INTRA.POLAR>
0

>  <SCORE.INTRA.POLAR.0>
0

>  <SCORE.INTRA.REPUL>
0

>  <SCORE.INTRA.REPUL.0>
0

>  <SCORE.INTRA.SOLV>
1.36729

>  <SCORE.INTRA.SOLV.lig_0>
-48.5059

>  <SCORE.INTRA.VDW>
-1.07864

>  <SCORE.INTRA.VDW.0>
-0.363643

>  <SCORE.INTRA.norm>
-0.961892

>  <SCORE.RESTR>
0

>  <SCORE.RESTR.CAVITY>
0

>  <SCORE.RESTR.norm>
0

>  <SCORE.SYSTEM>
0

>  <SCORE.SYSTEM.CONST>
0

>  <SCORE.SYSTEM.DIHEDRAL>
0

>  <SCORE.SYSTEM.SOLV>
0

>  <SCORE.SYSTEM.norm>
0

>  <SCORE.heavy>
13

>  <SCORE.norm>
-1.12805

>  <RMSD>
21.343

$$$$
ligand
 OpenBabel11021811453D
libRbt.so/2013.1/901 2013/11/27
 13 12  0  0  0  0  0  0  0  0999 V2000
   27.3178   13.1344   43.9707 O   0  0  0  0  0  0  0  0  0  0  0  0
   24.8358   14.6471   43.4377 O   0  0  0  0  0  0  0  0  0  0  0  0
   31.5827   11.6590   43.8356 P   0  0  2  0  0  0  0  0  0  0  0  0
   31.7883   13.1089   43.5513 O   0  5  0  0  0  0  0  0  0  0  0  0
   32.6735   10.6970   43.5332 O   0  0  0  0  0  0  0  0  0  0  0  0
   30.2883   11.1646   43.0626 O   0  0  0  0  0  0  0  0  0  0  0  0
   21.9693   16.8511   44.0563 O   0  0  0  0  0  0  0  0  0  0  0  0
   28.9764   11.3877   43.5992 C   0  0  0  0  0  0  0  0  0  0  0  0
   25.0087   13.2550   43.0686 C   0  0  0  0  0  0  0  0  0  0  0  0
   23.3445   16.5242   43.9166 C   0  0  0  0  0  0  0  0  0  0  0  0
   28.7212   12.8969   43.7509 C   0  0  0  0  0  0  0  0  0  0  0  0
   26.4933   12.9117   42.7930 C   0  0  0  0  0  0  0  0  0  0  0  0
   23.4491   15.0173   43.6211 C   0  0  0  0  0  0  0  0  0  0  0  0
  1 12  1  0  0  0  0
  1 11  1  0  0  0  0
  2 13  1  0  0  0  0
  2  9  1  0  0  0  0
  3  4  1  6  0  0  0
  3  5  2  0  0  0  0
  3  6  1  0  0  0  0
  6  8  1  0  0  0  0
  7 10  1  0  0  0  0
  8 11  1  0  0  0  0
  9 12  1  0  0  0  0
 10 13  1  0  0  0  0
M  CHG  1   4  -1
M  END
>  <CHROM.1>
-176.95359551,-176.21440870,-81.49649782,60.70068797,165.98409968,176.42026925
60.80644314,178.56605020,-71.53875804,27.79405252,13.19002411,43.57894950
2.69235039,-0.11709536,0.26810412

>  <Name>
ligand

>  <RI>
-1

>  <Rbt.Current_Directory>
/home/itssahil/PROJECTS/Mol_Feturizer/New_Systems/rnas/2NPY

>  <Rbt.Executable>
rbdock ($Id: //depot/dev/client3/rdock/2013.1/src/exe/rbdock.cxx#4 $)

>  <Rbt.Library>
libRbt.so (2013.1, Build901 2013/11/27)

>  <Rbt.Parameter_File>
/export/apps/rDock/src/rDock_2013.1_src/data/scripts/dock_solv.prm

>  <Rbt.Receptor>
prm/blind_docking_60.prm

>  <SCORE>
-14.5889

>  <SCORE.INTER>
-3.19999

>  <SCORE.INTER.CONST>
1

>  <SCORE.INTER.POLAR>
0

>  <SCORE.INTER.ROT>
9

>  <SCORE.INTER.SOLV>
18.4378

>  <SCORE.INTER.VDW>
-17.8793

>  <SCORE.INTER.norm>
-0.246153

>  <SCORE.INTRA>
-11.3889

>  <SCORE.INTRA.DIHEDRAL>
-23.476

>  <SCORE.INTRA.DIHEDRAL.0>
25.6828

>  <SCORE.INTRA.POLAR>
0

>  <SCORE.INTRA.POLAR.0>
0

>  <SCORE.INTRA.REPUL>
0

>  <SCORE.INTRA.REPUL.0>
0

>  <SCORE.INTRA.SOLV>
0.00841246

>  <SCORE.INTRA.SOLV.lig_0>
-48.5059

>  <SCORE.INTRA.VDW>
0.344932

>  <SCORE.INTRA.VDW.0>
-0.363643

>  <SCORE.INTRA.norm>
-0.876067

>  <SCORE.RESTR>
0

>  <SCORE.RESTR.CAVITY>
0

>  <SCORE.RESTR.norm>
0

>  <SCORE.SYSTEM>
0

>  <SCORE.SYSTEM.CONST>
0

>  <SCORE.SYSTEM.DIHEDRAL>
0

>  <SCORE.SYSTEM.SOLV>
0

>  <SCORE.SYSTEM.norm>
0

>  <SCORE.heavy>
13

>  <SCORE.norm>
-1.12222

>  <RMSD>
21.473

$$$$
ligand
 OpenBabel11021811453D
libRbt.so/2013.1/901 2013/11/27
 13 12  0  0  0  0  0  0  0  0999 V2000
   26.8444   13.2543   43.4877 O   0  0  0  0  0  0  0  0  0  0  0  0
   23.7932   13.8160   43.7103 O   0  0  0  0  0  0  0  0  0  0  0  0
   30.5454   11.9203   42.4256 P   0  0  2  0  0  0  0  0  0  0  0  0
   31.6255   11.4700   43.3508 O   0  5  0  0  0  0  0  0  0  0  0  0
   30.8767   12.2078   41.0063 O   0  0  0  0  0  0  0  0  0  0  0  0
   29.8676   13.2231   43.0262 O   0  0  0  0  0  0  0  0  0  0  0  0
   23.5369   16.5654   44.2867 O   0  0  0  0  0  0  0  0  0  0  0  0
   29.1517   13.1782   44.2690 C   0  0  0  0  0  0  0  0  0  0  0  0
   24.5648   13.4738   42.5306 C   0  0  0  0  0  0  0  0  0  0  0  0
   22.9267   16.0254   43.1233 C   0  0  0  0  0  0  0  0  0  0  0  0
   27.8366   12.4010   44.0890 C   0  0  0  0  0  0  0  0  0  0  0  0
   25.7454   12.5301   42.8677 C   0  0  0  0  0  0  0  0  0  0  0  0
   22.5851   14.5512   43.4043 C   0  0  0  0  0  0  0  0  0  0  0  0
  1 12  1  0  0  0  0
  1 11  1  0  0  0  0
  2 13  1  0  0  0  0
  2  9  1  0  0  0  0
  3  4  1  1  0  0  0
  3  5  2  0  0  0  0
  3  6  1  0  0  0  0
  6  8  1  0  0  0  0
  7 10  1  0  0  0  0
  8 11  1  0  0  0  0
  9 12  1  0  0  0  0
 10 13  1  0  0  0  0
M  CHG  1   4  -1
M  END
>  <CHROM.1>
166.96324242,-78.41129206,-64.33193096,-70.43542502,-80.11458638,-172.37492044
-76.73990403,-60.21238499,160.31305917,27.25395797,13.31018595,43.13325353
-2.78172731,0.17592311,-2.41113610

>  <Name>
ligand

>  <RI>
-1

>  <Rbt.Current_Directory>
/home/itssahil/PROJECTS/Mol_Feturizer/New_Systems/rnas/2NPY

>  <Rbt.Executable>
rbdock ($Id: //depot/dev/client3/rdock/2013.1/src/exe/rbdock.cxx#4 $)

>  <Rbt.Library>
libRbt.so (2013.1, Build901 2013/11/27)

>  <Rbt.Parameter_File>
/export/apps/rDock/src/rDock_2013.1_src/data/scripts/dock_solv.prm

>  <Rbt.Receptor>
prm/blind_docking_60.prm

>  <SCORE>
-11.2659

>  <SCORE.INTER>
-1.88629

>  <SCORE.INTER.CONST>
1

>  <SCORE.INTER.POLAR>
0

>  <SCORE.INTER.ROT>
9

>  <SCORE.INTER.SOLV>
9.94751

>  <SCORE.INTER.VDW>
-14.1734

>  <SCORE.INTER.norm>
-0.1451

>  <SCORE.INTRA>
-9.37957

>  <SCORE.INTRA.DIHEDRAL>
-18.2607

>  <SCORE.INTRA.DIHEDRAL.0>
25.6828

>  <SCORE.INTRA.POLAR>
0

>  <SCORE.INTRA.POLAR.0>
0

>  <SCORE.INTRA.REPUL>
0

>  <SCORE.INTRA.REPUL.0>
0

>  <SCORE.INTRA.SOLV>
0.329677

>  <SCORE.INTRA.SOLV.lig_0>
-48.5059

>  <SCORE.INTRA.VDW>
-0.414042

>  <SCORE.INTRA.VDW.0>
-0.363643

>  <SCORE.INTRA.norm>
-0.721505

>  <SCORE.RESTR>
0

>  <SCORE.RESTR.CAVITY>
0

>  <SCORE.RESTR.norm>
0

>  <SCORE.SYSTEM>
0

>  <SCORE.SYSTEM.CONST>
0

>  <SCORE.SYSTEM.DIHEDRAL>
0

>  <SCORE.SYSTEM.SOLV>
0

>  <SCORE.SYSTEM.norm>
0

>  <SCORE.heavy>
13

>  <SCORE.norm>
-0.866605

>  <RMSD>
21.510

$$$$
ligand
 OpenBabel11021811453D
libRbt.so/2013.1/901 2013/11/27
 13 12  0  0  0  0  0  0  0  0999 V2000
   26.4521   12.8940   44.1162 O   0  0  0  0  0  0  0  0  0  0  0  0
   23.6526   13.6572   41.7228 O   0  0  0  0  0  0  0  0  0  0  0  0
   30.6539   13.9482   43.0009 P   0  0  2  0  0  0  0  0  0  0  0  0
   29.8425   14.6696   41.9779 O   0  5  0  0  0  0  0  0  0  0  0  0
   32.1090   13.7559   42.7713 O   0  0  0  0  0  0  0  0  0  0  0  0
   30.0190   12.5138   43.2389 O   0  0  0  0  0  0  0  0  0  0  0  0
   22.0355   16.0047   41.9643 O   0  0  0  0  0  0  0  0  0  0  0  0
   28.8267   12.3535   44.0209 C   0  0  0  0  0  0  0  0  0  0  0  0
   24.7411   12.9055   42.3182 C   0  0  0  0  0  0  0  0  0  0  0  0
   21.4583   14.7069   41.9673 C   0  0  0  0  0  0  0  0  0  0  0  0
   27.6434   13.0432   43.3207 C   0  0  0  0  0  0  0  0  0  0  0  0
   25.2983   13.6024   43.5838 C   0  0  0  0  0  0  0  0  0  0  0  0
   22.4830   13.7303   42.5715 C   0  0  0  0  0  0  0  0  0  0  0  0
  1 12  1  0  0  0  0
  1 11  1  0  0  0  0
  2 13  1  0  0  0  0
  2  9  1  0  0  0  0
  3  4  1  6  0  0  0
  3  5  2  0  0  0  0
  3  6  1  0  0  0  0
  6  8  1  0  0  0  0
  7 10  1  0  0  0  0
  8 11  1  0  0  0  0
  9 12  1  0  0  0  0
 10 13  1  0  0  0  0
M  CHG  1   4  -1
M  END
>  <CHROM.1>
72.60749442,171.75310932,-76.42531854,64.91083483,-179.31067716,-65.27179555
-175.76389293,-64.20550432,175.58485092,26.92870194,13.71110658,42.81831895
3.00106392,-0.02118074,-0.58755614

>  <Name>
ligand

>  <RI>
-1

>  <Rbt.Current_Directory>
/home/itssahil/PROJECTS/Mol_Feturizer/New_Systems/rnas/2NPY

>  <Rbt.Executable>
rbdock ($Id: //depot/dev/client3/rdock/2013.1/src/exe/rbdock.cxx#4 $)

>  <Rbt.Library>
libRbt.so (2013.1, Build901 2013/11/27)

>  <Rbt.Parameter_File>
/export/apps/rDock/src/rDock_2013.1_src/data/scripts/dock_solv.prm

>  <Rbt.Receptor>
prm/blind_docking_60.prm

>  <SCORE>
-12.3878

>  <SCORE.INTER>
-1.72285

>  <SCORE.INTER.CONST>
1

>  <SCORE.INTER.POLAR>
0

>  <SCORE.INTER.ROT>
9

>  <SCORE.INTER.SOLV>
17.1929

>  <SCORE.INTER.VDW>
-16.4795

>  <SCORE.INTER.norm>
-0.132527

>  <SCORE.INTRA>
-10.665

>  <SCORE.INTRA.DIHEDRAL>
-23.637

>  <SCORE.INTRA.DIHEDRAL.0>
25.6828

>  <SCORE.INTRA.POLAR>
0

>  <SCORE.INTRA.POLAR.0>
0

>  <SCORE.INTRA.REPUL>
0

>  <SCORE.INTRA.REPUL.0>
0

>  <SCORE.INTRA.SOLV>
0.258301

>  <SCORE.INTRA.SOLV.lig_0>
-48.5059

>  <SCORE.INTRA.VDW>
1.02436

>  <SCORE.INTRA.VDW.0>
-0.363643

>  <SCORE.INTRA.norm>
-0.820384

>  <SCORE.RESTR>
0

>  <SCORE.RESTR.CAVITY>
0

>  <SCORE.RESTR.norm>
0

>  <SCORE.SYSTEM>
0

>  <SCORE.SYSTEM.CONST>
0

>  <SCORE.SYSTEM.DIHEDRAL>
0

>  <SCORE.SYSTEM.SOLV>
0

>  <SCORE.SYSTEM.norm>
0

>  <SCORE.heavy>
13

>  <SCORE.norm>
-0.952911

>  <RMSD>
21.536

$$$$
ligand
 OpenBabel11021811453D
libRbt.so/2013.1/901 2013/11/27
 13 12  0  0  0  0  0  0  0  0999 V2000
   25.2231   13.1822   42.7991 O   0  0  0  0  0  0  0  0  0  0  0  0
   22.8689   15.0650   42.3393 O   0  0  0  0  0  0  0  0  0  0  0  0
   30.1046   11.8441   42.8785 P   0  0  2  0  0  0  0  0  0  0  0  0
   30.2728   12.2626   44.3004 O   0  5  0  0  0  0  0  0  0  0  0  0
   30.6370   12.7126   41.7972 O   0  0  0  0  0  0  0  0  0  0  0  0
   28.5603   11.6223   42.5897 O   0  0  0  0  0  0  0  0  0  0  0  0
   23.7440   15.7831   44.9190 O   0  0  0  0  0  0  0  0  0  0  0  0
   27.6025   12.6574   42.8544 C   0  0  0  0  0  0  0  0  0  0  0  0
   22.8386   13.8142   43.0734 C   0  0  0  0  0  0  0  0  0  0  0  0
   23.3111   16.7894   44.0149 C   0  0  0  0  0  0  0  0  0  0  0  0
   26.2048   12.2087   42.3953 C   0  0  0  0  0  0  0  0  0  0  0  0
   23.8529   12.7895   42.5084 C   0  0  0  0  0  0  0  0  0  0  0  0
   22.2723   16.1642   43.0668 C   0  0  0  0  0  0  0  0  0  0  0  0
  1 12  1  0  0  0  0
  1 11  1  0  0  0  0
  2 13  1  0  0  0  0
  2  9  1  0  0  0  0
  3  4  1  1  0  0  0
  3  5  2  0  0  0  0
  3  6  1  0  0  0  0
  6  8  1  0  0  0  0
  7 10  1  0  0  0  0
  8 11  1  0  0  0  0
  9 12  1  0  0  0  0
 10 13  1  0  0  0  0
M  CHG  1   4  -1
M  END
>  <CHROM.1>
175.05092594,84.64795332,54.67341251,176.17416356,173.48034264,-161.62900514
70.57528873,-59.83389754,-175.05316183,26.34536478,13.45632081,43.03285116
2.73921222,-0.19744610,0.58319301

>  <Name>
ligand

>  <RI>
-1

>  <Rbt.Current_Directory>
/home/itssahil/PROJECTS/Mol_Feturizer/New_Systems/rnas/2NPY

>  <Rbt.Executable>
rbdock ($Id: //depot/dev/client3/rdock/2013.1/src/exe/rbdock.cxx#4 $)

>  <Rbt.Library>
libRbt.so (2013.1, Build901 2013/11/27)

>  <Rbt.Parameter_File>
/export/apps/rDock/src/rDock_2013.1_src/data/scripts/dock_solv.prm

>  <Rbt.Receptor>
prm/blind_docking_60.prm

>  <SCORE>
-11.6785

>  <SCORE.INTER>
-0.930394

>  <SCORE.INTER.CONST>
1

>  <SCORE.INTER.POLAR>
0

>  <SCORE.INTER.ROT>
9

>  <SCORE.INTER.SOLV>
12.6634

>  <SCORE.INTER.VDW>
-14.4414

>  <SCORE.INTER.norm>
-0.0715688

>  <SCORE.INTRA>
-10.7512

>  <SCORE.INTRA.DIHEDRAL>
-20.5101

>  <SCORE.INTRA.DIHEDRAL.0>
25.6828

>  <SCORE.INTRA.POLAR>
0

>  <SCORE.INTRA.POLAR.0>
0

>  <SCORE.INTRA.REPUL>
0

>  <SCORE.INTRA.REPUL.0>
0

>  <SCORE.INTRA.SOLV>
-0.239394

>  <SCORE.INTRA.SOLV.lig_0>
-48.5059

>  <SCORE.INTRA.VDW>
-0.376445

>  <SCORE.INTRA.VDW.0>
-0.363643

>  <SCORE.INTRA.norm>
-0.827015

>  <SCORE.RESTR>
0.00314092

>  <SCORE.RESTR.CAVITY>
0.00314092

>  <SCORE.RESTR.norm>
0.000241609

>  <SCORE.SYSTEM>
0

>  <SCORE.SYSTEM.CONST>
0

>  <SCORE.SYSTEM.DIHEDRAL>
0

>  <SCORE.SYSTEM.SOLV>
0

>  <SCORE.SYSTEM.norm>
0

>  <SCORE.heavy>
13

>  <SCORE.norm>
-0.898342

>  <RMSD>
21.598

$$$$
ligand
 OpenBabel11021811453D
libRbt.so/2013.1/901 2013/11/27
 13 12  0  0  0  0  0  0  0  0999 V2000
   23.2165   13.0386   41.8146 O   0  0  0  0  0  0  0  0  0  0  0  0
   21.7227   15.0425   43.4494 O   0  0  0  0  0  0  0  0  0  0  0  0
   28.0580   13.2350   43.2819 P   0  0  2  0  0  0  0  0  0  0  0  0
   28.4500   13.9895   42.0562 O   0  5  0  0  0  0  0  0  0  0  0  0
   28.3922   11.7911   43.3848 O   0  0  0  0  0  0  0  0  0  0  0  0
   26.4910   13.3736   43.4886 O   0  0  0  0  0  0  0  0  0  0  0  0
   23.9292   15.7932   44.9899 O   0  0  0  0  0  0  0  0  0  0  0  0
   25.5786   13.1341   42.4075 C   0  0  0  0  0  0  0  0  0  0  0  0
   21.1282   14.2510   42.3890 C   0  0  0  0  0  0  0  0  0  0  0  0
   23.3152   16.7600   44.1497 C   0  0  0  0  0  0  0  0  0  0  0  0
   24.1291   13.2562   42.9074 C   0  0  0  0  0  0  0  0  0  0  0  0
   21.8311   12.8804   42.2294 C   0  0  0  0  0  0  0  0  0  0  0  0
   22.6712   16.0210   42.9632 C   0  0  0  0  0  0  0  0  0  0  0  0
  1 12  1  0  0  0  0
  1 11  1  0  0  0  0
  2 13  1  0  0  0  0
  2  9  1  0  0  0  0
  3  4  1  6  0  0  0
  3  5  2  0  0  0  0
  3  6  1  0  0  0  0
  6  8  1  0  0  0  0
  7 10  1  0  0  0  0
  8 11  1  0  0  0  0
  9 12  1  0  0  0  0
 10 13  1  0  0  0  0
M  CHG  1   4  -1
M  END
>  <CHROM.1>
85.17165556,-176.72157621,48.86539733,176.61648273,178.98331222,98.10689819
-64.11433869,57.44499259,168.90462586,24.86162670,13.96712980,43.06768600
2.87359298,-0.14848516,0.52781762

>  <Name>
ligand

>  <RI>
-1

>  <Rbt.Current_Directory>
/home/itssahil/PROJECTS/Mol_Feturizer/New_Systems/rnas/2NPY

>  <Rbt.Executable>
rbdock ($Id: //depot/dev/client3/rdock/2013.1/src/exe/rbdock.cxx#4 $)

>  <Rbt.Library>
libRbt.so (2013.1, Build901 2013/11/27)

>  <Rbt.Parameter_File>
/export/apps/rDock/src/rDock_2013.1_src/data/scripts/dock_solv.prm

>  <Rbt.Receptor>
prm/blind_docking_60.prm

>  <SCORE>
-11.909

>  <SCORE.INTER>
-2.78503

>  <SCORE.INTER.CONST>
1

>  <SCORE.INTER.POLAR>
0

>  <SCORE.INTER.ROT>
9

>  <SCORE.INTER.SOLV>
15.708

>  <SCORE.INTER.VDW>
-16.6927

>  <SCORE.INTER.norm>
-0.214233

>  <SCORE.INTRA>
-9.12398

>  <SCORE.INTRA.DIHEDRAL>
-16.8141

>  <SCORE.INTRA.DIHEDRAL.0>
25.6828

>  <SCORE.INTRA.POLAR>
0

>  <SCORE.INTRA.POLAR.0>
0

>  <SCORE.INTRA.REPUL>
0

>  <SCORE.INTRA.REPUL.0>
0

>  <SCORE.INTRA.SOLV>
-0.0620852

>  <SCORE.INTRA.SOLV.lig_0>
-48.5059

>  <SCORE.INTRA.VDW>
-0.685894

>  <SCORE.INTRA.VDW.0>
-0.363643

>  <SCORE.INTRA.norm>
-0.701845

>  <SCORE.RESTR>
0

>  <SCORE.RESTR.CAVITY>
0

>  <SCORE.RESTR.norm>
0

>  <SCORE.SYSTEM>
0

>  <SCORE.SYSTEM.CONST>
0

>  <SCORE.SYSTEM.DIHEDRAL>
0

>  <SCORE.SYSTEM.SOLV>
0

>  <SCORE.SYSTEM.norm>
0

>  <SCORE.heavy>
13

>  <SCORE.norm>
-0.916078

>  <RMSD>
21.634

$$$$
ligand
 OpenBabel11021811453D
libRbt.so/2013.1/901 2013/11/27
 13 12  0  0  0  0  0  0  0  0999 V2000
   25.1021   12.8598   42.9353 O   0  0  0  0  0  0  0  0  0  0  0  0
   22.6358   14.4426   42.1301 O   0  0  0  0  0  0  0  0  0  0  0  0
   29.6010   12.6027   42.9577 P   0  0  2  0  0  0  0  0  0  0  0  0
   30.5439   11.4925   42.6356 O   0  5  0  0  0  0  0  0  0  0  0  0
   30.1404   13.8907   43.4647 O   0  0  0  0  0  0  0  0  0  0  0  0
   28.5422   12.0829   44.0189 O   0  0  0  0  0  0  0  0  0  0  0  0
   23.4033   16.9691   44.6768 O   0  0  0  0  0  0  0  0  0  0  0  0
   27.2327   12.6635   44.1023 C   0  0  0  0  0  0  0  0  0  0  0  0
   22.8023   13.0063   42.0132 C   0  0  0  0  0  0  0  0  0  0  0  0
   22.8996   16.4913   43.4377 C   0  0  0  0  0  0  0  0  0  0  0  0
   26.4649   12.4164   42.7925 C   0  0  0  0  0  0  0  0  0  0  0  0
   24.2794   12.6159   41.7605 C   0  0  0  0  0  0  0  0  0  0  0  0
   23.1382   14.9719   43.3795 C   0  0  0  0  0  0  0  0  0  0  0  0
  1 12  1  0  0  0  0
  1 11  1  0  0  0  0
  2 13  1  0  0  0  0
  2  9  1  0  0  0  0
  3  4  1  1  0  0  0
  3  5  2  0  0  0  0
  3  6  1  0  0  0  0
  6  8  1  0  0  0  0
  7 10  1  0  0  0  0
  8 11  1  0  0  0  0
  9 12  1  0  0  0  0
 10 13  1  0  0  0  0
M  CHG  1   4  -1
M  END
>  <CHROM.1>
175.36511164,-178.87224557,-153.24367728,63.49181220,173.27742883,-73.39716910
69.52402922,179.89265966,-177.61701167,26.24918070,13.50168380,43.10069029
2.81535788,-0.19845702,0.49370653

>  <Name>
ligand

>  <RI>
-1

>  <Rbt.Current_Directory>
/home/itssahil/PROJECTS/Mol_Feturizer/New_Systems/rnas/2NPY

>  <Rbt.Executable>
rbdock ($Id: //depot/dev/client3/rdock/2013.1/src/exe/rbdock.cxx#4 $)

>  <Rbt.Library>
libRbt.so (2013.1, Build901 2013/11/27)

>  <Rbt.Parameter_File>
/export/apps/rDock/src/rDock_2013.1_src/data/scripts/dock_solv.prm

>  <Rbt.Receptor>
prm/blind_docking_60.prm

>  <SCORE>
-14.4541

>  <SCORE.INTER>
-2.63826

>  <SCORE.INTER.CONST>
1

>  <SCORE.INTER.POLAR>
0

>  <SCORE.INTER.ROT>
9

>  <SCORE.INTER.SOLV>
12.7922

>  <SCORE.INTER.VDW>
-15.6229

>  <SCORE.INTER.norm>
-0.202943

>  <SCORE.INTRA>
-11.8158

>  <SCORE.INTRA.DIHEDRAL>
-23.6572

>  <SCORE.INTRA.DIHEDRAL.0>
25.6828

>  <SCORE.INTRA.POLAR>
0

>  <SCORE.INTRA.POLAR.0>
0

>  <SCORE.INTRA.REPUL>
0

>  <SCORE.INTRA.REPUL.0>
0

>  <SCORE.INTRA.SOLV>
-0.112596

>  <SCORE.INTRA.SOLV.lig_0>
-48.5059

>  <SCORE.INTRA.VDW>
0.0690869

>  <SCORE.INTRA.VDW.0>
-0.363643

>  <SCORE.INTRA.norm>
-0.90891

>  <SCORE.RESTR>
0

>  <SCORE.RESTR.CAVITY>
0

>  <SCORE.RESTR.norm>
0

>  <SCORE.SYSTEM>
0

>  <SCORE.SYSTEM.CONST>
0

>  <SCORE.SYSTEM.DIHEDRAL>
0

>  <SCORE.SYSTEM.SOLV>
0

>  <SCORE.SYSTEM.norm>
0

>  <SCORE.heavy>
13

>  <SCORE.norm>
-1.11185

>  <RMSD>
21.636

$$$$
ligand
 OpenBabel11021811453D
libRbt.so/2013.1/901 2013/11/27
 13 12  0  0  0  0  0  0  0  0999 V2000
   27.0387   13.4077   43.8985 O   0  0  0  0  0  0  0  0  0  0  0  0
   23.4477   13.9857   42.9391 O   0  0  0  0  0  0  0  0  0  0  0  0
   31.9898   12.4268   43.6727 P   0  0  2  0  0  0  0  0  0  0  0  0
   32.2754   13.5715   42.7596 O   0  5  0  0  0  0  0  0  0  0  0  0
   32.7650   11.1682   43.5251 O   0  0  0  0  0  0  0  0  0  0  0  0
   30.4525   12.0517   43.5573 O   0  0  0  0  0  0  0  0  0  0  0  0
   20.6239   13.5997   43.1807 O   0  0  0  0  0  0  0  0  0  0  0  0
   29.4340   12.9665   43.9871 C   0  0  0  0  0  0  0  0  0  0  0  0
   24.7221   14.2411   43.5833 C   0  0  0  0  0  0  0  0  0  0  0  0
   21.1594   14.6952   42.4522 C   0  0  0  0  0  0  0  0  0  0  0  0
   28.0455   12.4165   43.6189 C   0  0  0  0  0  0  0  0  0  0  0  0
   25.7379   13.1015   43.3236 C   0  0  0  0  0  0  0  0  0  0  0  0
   22.5087   15.0765   43.0870 C   0  0  0  0  0  0  0  0  0  0  0  0
  1 12  1  0  0  0  0
  1 11  1  0  0  0  0
  2 13  1  0  0  0  0
  2  9  1  0  0  0  0
  3  4  1  6  0  0  0
  3  5  2  0  0  0  0
  3  6  1  0  0  0  0
  6  8  1  0  0  0  0
  7 10  1  0  0  0  0
  8 11  1  0  0  0  0
  9 12  1  0  0  0  0
 10 13  1  0  0  0  0
M  CHG  1   4  -1
M  END
>  <CHROM.1>
-176.52440017,-176.61617710,-65.52849488,173.73341634,-172.84220111,-175.98420445
176.21408893,64.15750827,167.46582914,27.39042296,13.19835848,43.37599216
2.94113841,0.00846017,-0.28253447

>  <Name>
ligand

>  <RI>
-1

>  <Rbt.Current_Directory>
/home/itssahil/PROJECTS/Mol_Feturizer/New_Systems/rnas/2NPY

>  <Rbt.Executable>
rbdock ($Id: //depot/dev/client3/rdock/2013.1/src/exe/rbdock.cxx#4 $)

>  <Rbt.Library>
libRbt.so (2013.1, Build901 2013/11/27)

>  <Rbt.Parameter_File>
/export/apps/rDock/src/rDock_2013.1_src/data/scripts/dock_solv.prm

>  <Rbt.Receptor>
prm/blind_docking_60.prm

>  <SCORE>
-15.2418

>  <SCORE.INTER>
-1.63831

>  <SCORE.INTER.CONST>
1

>  <SCORE.INTER.POLAR>
0

>  <SCORE.INTER.ROT>
9

>  <SCORE.INTER.SOLV>
14.8265

>  <SCORE.INTER.VDW>
-15.6344

>  <SCORE.INTER.norm>
-0.126024

>  <SCORE.INTRA>
-13.6034

>  <SCORE.INTRA.DIHEDRAL>
-24.0894

>  <SCORE.INTRA.DIHEDRAL.0>
25.6828

>  <SCORE.INTRA.POLAR>
0

>  <SCORE.INTRA.POLAR.0>
0

>  <SCORE.INTRA.REPUL>
0

>  <SCORE.INTRA.REPUL.0>
0

>  <SCORE.INTRA.SOLV>
-1.37508

>  <SCORE.INTRA.SOLV.lig_0>
-48.5059

>  <SCORE.INTRA.VDW>
-0.871226

>  <SCORE.INTRA.VDW.0>
-0.363643

>  <SCORE.INTRA.norm>
-1.04642

>  <SCORE.RESTR>
0

>  <SCORE.RESTR.CAVITY>
0

>  <SCORE.RESTR.norm>
0

>  <SCORE.SYSTEM>
0

>  <SCORE.SYSTEM.CONST>
0

>  <SCORE.SYSTEM.DIHEDRAL>
0

>  <SCORE.SYSTEM.SOLV>
0

>  <SCORE.SYSTEM.norm>
0

>  <SCORE.heavy>
13

>  <SCORE.norm>
-1.17244

>  <RMSD>
21.740

$$$$
ligand
 OpenBabel11021811453D
libRbt.so/2013.1/901 2013/11/27
 13 12  0  0  0  0  0  0  0  0999 V2000
   27.2396   14.2682   42.3132 O   0  0  0  0  0  0  0  0  0  0  0  0
   30.8999   13.3994   42.2987 O   0  0  0  0  0  0  0  0  0  0  0  0
   23.2713   15.1414   43.6718 P   0  0  2  0  0  0  0  0  0  0  0  0
   22.4302   14.3605   42.7189 O   0  5  0  0  0  0  0  0  0  0  0  0
   23.2599   16.6254   43.6040 O   0  0  0  0  0  0  0  0  0  0  0  0
   24.7800   14.6729   43.5249 O   0  0  0  0  0  0  0  0  0  0  0  0
   33.5380   14.1263   41.7938 O   0  0  0  0  0  0  0  0  0  0  0  0
   25.1029   13.3574   43.0514 C   0  0  0  0  0  0  0  0  0  0  0  0
   29.5831   13.6531   42.8517 C   0  0  0  0  0  0  0  0  0  0  0  0
   33.2895   13.0185   42.6473 C   0  0  0  0  0  0  0  0  0  0  0  0
   26.6294   13.1713   43.0195 C   0  0  0  0  0  0  0  0  0  0  0  0
   28.5407   13.9497   41.7457 C   0  0  0  0  0  0  0  0  0  0  0  0
   31.9175   13.2271   43.3128 C   0  0  0  0  0  0  0  0  0  0  0  0
  1 12  1  0  0  0  0
  1 11  1  0  0  0  0
  2 13  1  0  0  0  0
  2  9  1  0  0  0  0
  3  4  1  6  0  0  0
  3  5  2  0  0  0  0
  3  6  1  0  0  0  0
  6  8  1  0  0  0  0
  7 10  1  0  0  0  0
  8 11  1  0  0  0  0
  9 12  1  0  0  0  0
 10 13  1  0  0  0  0
M  CHG  1   4  -1
M  END
>  <CHROM.1>
-65.11769658,-177.77238476,-25.87053749,-179.55229046,-51.01359661,175.24252898
-177.15068118,56.27391046,-155.84999507,27.33203812,14.18839329,42.87508694
-2.95898639,-0.08424183,-3.01569257

>  <Name>
ligand

>  <RI>
-1

>  <Rbt.Current_Directory>
/home/itssahil/PROJECTS/Mol_Feturizer/New_Systems/rnas/2NPY

>  <Rbt.Executable>
rbdock ($Id: //depot/dev/client3/rdock/2013.1/src/exe/rbdock.cxx#4 $)

>  <Rbt.Library>
libRbt.so (2013.1, Build901 2013/11/27)

>  <Rbt.Parameter_File>
/export/apps/rDock/src/rDock_2013.1_src/data/scripts/dock_solv.prm

>  <Rbt.Receptor>
prm/blind_docking_60.prm

>  <SCORE>
-12.6207

>  <SCORE.INTER>
-1.61825

>  <SCORE.INTER.CONST>
1

>  <SCORE.INTER.POLAR>
0

>  <SCORE.INTER.ROT>
9

>  <SCORE.INTER.SOLV>
16.5673

>  <SCORE.INTER.VDW>
-16.2013

>  <SCORE.INTER.norm>
-0.124481

>  <SCORE.INTRA>
-11.0024

>  <SCORE.INTRA.DIHEDRAL>
-21.7634

>  <SCORE.INTRA.DIHEDRAL.0>
25.6828

>  <SCORE.INTRA.POLAR>
0

>  <SCORE.INTRA.POLAR.0>
0

>  <SCORE.INTRA.REPUL>
0

>  <SCORE.INTRA.REPUL.0>
0

>  <SCORE.INTRA.SOLV>
-0.922124

>  <SCORE.INTRA.SOLV.lig_0>
-48.5059

>  <SCORE.INTRA.VDW>
0.340332

>  <SCORE.INTRA.VDW.0>
-0.363643

>  <SCORE.INTRA.norm>
-0.846339

>  <SCORE.RESTR>
0

>  <SCORE.RESTR.CAVITY>
0

>  <SCORE.RESTR.norm>
0

>  <SCORE.SYSTEM>
0

>  <SCORE.SYSTEM.CONST>
0

>  <SCORE.SYSTEM.DIHEDRAL>
0

>  <SCORE.SYSTEM.SOLV>
0

>  <SCORE.SYSTEM.norm>
0

>  <SCORE.heavy>
13

>  <SCORE.norm>
-0.97082

>  <RMSD>
21.744

$$$$
ligand
 OpenBabel11021811453D
libRbt.so/2013.1/901 2013/11/27
 13 12  0  0  0  0  0  0  0  0999 V2000
   26.7201   12.8555   42.8667 O   0  0  0  0  0  0  0  0  0  0  0  0
   23.0041   13.4351   42.7837 O   0  0  0  0  0  0  0  0  0  0  0  0
   31.6941   12.5466   43.7517 P   0  0  2  0  0  0  0  0  0  0  0  0
   32.1113   13.6899   42.8891 O   0  5  0  0  0  0  0  0  0  0  0  0
   31.8354   11.1595   43.2389 O   0  0  0  0  0  0  0  0  0  0  0  0
   30.1753   12.7454   44.1654 O   0  0  0  0  0  0  0  0  0  0  0  0
   20.5093   14.6240   42.4540 O   0  0  0  0  0  0  0  0  0  0  0  0
   29.1229   12.6178   43.1985 C   0  0  0  0  0  0  0  0  0  0  0  0
   24.3166   13.0703   42.2854 C   0  0  0  0  0  0  0  0  0  0  0  0
   21.4026   15.1718   43.4129 C   0  0  0  0  0  0  0  0  0  0  0  0
   27.7728   12.9772   43.8420 C   0  0  0  0  0  0  0  0  0  0  0  0
   25.4201   13.2967   43.3480 C   0  0  0  0  0  0  0  0  0  0  0  0
   22.8399   14.8621   42.9577 C   0  0  0  0  0  0  0  0  0  0  0  0
  1 12  1  0  0  0  0
  1 11  1  0  0  0  0
  2 13  1  0  0  0  0
  2  9  1  0  0  0  0
  3  4  1  6  0  0  0
  3  5  2  0  0  0  0
  3  6  1  0  0  0  0
  6  8  1  0  0  0  0
  7 10  1  0  0  0  0
  8 11  1  0  0  0  0
  9 12  1  0  0  0  0
 10 13  1  0  0  0  0
M  CHG  1   4  -1
M  END
>  <CHROM.1>
-176.88254629,176.90277803,69.62087887,-175.18863392,179.67006258,70.01843806
176.67138970,-56.34021571,-174.52546156,27.12802567,13.23754841,43.20981357
2.96329005,-0.10713030,0.18671810

>  <Name>
ligand

>  <RI>
0

>  <Rbt.Current_Directory>
/home/itssahil/PROJECTS/Mol_Feturizer/New_Systems/rnas/2NPY

>  <Rbt.Executable>
rbdock ($Id: //depot/dev/client3/rdock/2013.1/src/exe/rbdock.cxx#4 $)

>  <Rbt.Library>
libRbt.so (2013.1, Build901 2013/11/27)

>  <Rbt.Parameter_File>
/export/apps/rDock/src/rDock_2013.1_src/data/scripts/dock_solv.prm

>  <Rbt.Receptor>
prm/blind_docking_100.prm

>  <SCORE>
-14.5851

>  <SCORE.INTER>
-1.77195

>  <SCORE.INTER.CONST>
1

>  <SCORE.INTER.POLAR>
0

>  <SCORE.INTER.ROT>
9

>  <SCORE.INTER.SOLV>
12.8301

>  <SCORE.INTER.VDW>
-15.058

>  <SCORE.INTER.norm>
-0.136304

>  <SCORE.INTRA>
-12.8131

>  <SCORE.INTRA.DIHEDRAL>
-24.7004

>  <SCORE.INTRA.DIHEDRAL.0>
25.6828

>  <SCORE.INTRA.POLAR>
0

>  <SCORE.INTRA.POLAR.0>
0

>  <SCORE.INTRA.REPUL>
0

>  <SCORE.INTRA.REPUL.0>
0

>  <SCORE.INTRA.SOLV>
-0.832404

>  <SCORE.INTRA.SOLV.lig_0>
-48.5059

>  <SCORE.INTRA.VDW>
-0.0466947

>  <SCORE.INTRA.VDW.0>
-0.363643

>  <SCORE.INTRA.norm>
-0.985624

>  <SCORE.RESTR>
0

>  <SCORE.RESTR.CAVITY>
0

>  <SCORE.RESTR.norm>
0

>  <SCORE.SYSTEM>
0

>  <SCORE.SYSTEM.CONST>
0

>  <SCORE.SYSTEM.DIHEDRAL>
0

>  <SCORE.SYSTEM.SOLV>
0

>  <SCORE.SYSTEM.norm>
0

>  <SCORE.heavy>
13

>  <SCORE.norm>
-1.12193

>  <RMSD>
21.780

$$$$
ligand
 OpenBabel11021811453D
libRbt.so/2013.1/901 2013/11/27
 13 12  0  0  0  0  0  0  0  0999 V2000
   30.3544   12.1803   43.7588 O   0  0  0  0  0  0  0  0  0  0  0  0
   26.6302   12.5335   44.1603 O   0  0  0  0  0  0  0  0  0  0  0  0
   32.7508   14.3548   42.4464 P   0  0  2  0  0  0  0  0  0  0  0  0
   31.3033   14.7024   42.3500 O   0  5  0  0  0  0  0  0  0  0  0  0
   33.4754   13.9141   41.2267 O   0  0  0  0  0  0  0  0  0  0  0  0
   32.9327   13.2202   43.5404 O   0  0  0  0  0  0  0  0  0  0  0  0
   24.3820   13.2784   41.3630 O   0  0  0  0  0  0  0  0  0  0  0  0
   32.7066   11.8401   43.2191 C   0  0  0  0  0  0  0  0  0  0  0  0
   28.0369   12.7505   44.4403 C   0  0  0  0  0  0  0  0  0  0  0  0
   24.7218   12.7965   42.6552 C   0  0  0  0  0  0  0  0  0  0  0  0
   31.2497   11.6380   42.7694 C   0  0  0  0  0  0  0  0  0  0  0  0
   28.9469   11.9931   43.4422 C   0  0  0  0  0  0  0  0  0  0  0  0
   26.1989   13.1390   42.9190 C   0  0  0  0  0  0  0  0  0  0  0  0
  1 12  1  0  0  0  0
  1 11  1  0  0  0  0
  2 13  1  0  0  0  0
  2  9  1  0  0  0  0
  3  4  1  6  0  0  0
  3  5  2  0  0  0  0
  3  6  1  0  0  0  0
  6  8  1  0  0  0  0
  7 10  1  0  0  0  0
  8 11  1  0  0  0  0
  9 12  1  0  0  0  0
 10 13  1  0  0  0  0
M  CHG  1   4  -1
M  END
>  <CHROM.1>
-172.66975596,176.76512543,82.25343551,-60.88736402,-52.90506852,-68.06101172
-178.05414111,-173.51909825,-177.94673802,29.79293676,13.08203684,42.89350322
-0.09237397,0.03926226,2.36050802

>  <Name>
ligand

>  <RI>
-1

>  <Rbt.Current_Directory>
/home/itssahil/PROJECTS/Mol_Feturizer/New_Systems/rnas/2NPY

>  <Rbt.Executable>
rbdock ($Id: //depot/dev/client3/rdock/2013.1/src/exe/rbdock.cxx#4 $)

>  <Rbt.Library>
libRbt.so (2013.1, Build901 2013/11/27)

>  <Rbt.Parameter_File>
/export/apps/rDock/src/rDock_2013.1_src/data/scripts/dock_solv.prm

>  <Rbt.Receptor>
prm/blind_docking_60.prm

>  <SCORE>
-12.1409

>  <SCORE.INTER>
-1.47855

>  <SCORE.INTER.CONST>
1

>  <SCORE.INTER.POLAR>
0

>  <SCORE.INTER.ROT>
9

>  <SCORE.INTER.SOLV>
19.1325

>  <SCORE.INTER.VDW>
-16.9632

>  <SCORE.INTER.norm>
-0.113735

>  <SCORE.INTRA>
-10.6624

>  <SCORE.INTRA.DIHEDRAL>
-24.352

>  <SCORE.INTRA.DIHEDRAL.0>
25.6828

>  <SCORE.INTRA.POLAR>
0

>  <SCORE.INTRA.POLAR.0>
0

>  <SCORE.INTRA.REPUL>
0

>  <SCORE.INTRA.REPUL.0>
0

>  <SCORE.INTRA.SOLV>
3.00966

>  <SCORE.INTRA.SOLV.lig_0>
-48.5059

>  <SCORE.INTRA.VDW>
0.00875649

>  <SCORE.INTRA.VDW.0>
-0.363643

>  <SCORE.INTRA.norm>
-0.820184

>  <SCORE.RESTR>
0

>  <SCORE.RESTR.CAVITY>
0

>  <SCORE.RESTR.norm>
0

>  <SCORE.SYSTEM>
0

>  <SCORE.SYSTEM.CONST>
0

>  <SCORE.SYSTEM.DIHEDRAL>
0

>  <SCORE.SYSTEM.SOLV>
0

>  <SCORE.SYSTEM.norm>
0

>  <SCORE.heavy>
13

>  <SCORE.norm>
-0.933919

>  <RMSD>
21.799

$$$$
ligand
 OpenBabel11021811453D
libRbt.so/2013.1/901 2013/11/27
 13 12  0  0  0  0  0  0  0  0999 V2000
   26.7451   12.3835   43.2114 O   0  0  0  0  0  0  0  0  0  0  0  0
   23.5371   14.0836   42.2628 O   0  0  0  0  0  0  0  0  0  0  0  0
   31.7000   11.5855   43.7154 P   0  0  2  0  0  0  0  0  0  0  0  0
   32.1409   12.2140   42.4363 O   0  5  0  0  0  0  0  0  0  0  0  0
   31.5541   10.1089   43.7874 O   0  0  0  0  0  0  0  0  0  0  0  0
   30.3103   12.2196   44.1445 O   0  0  0  0  0  0  0  0  0  0  0  0
   22.9248   16.8175   42.8127 O   0  0  0  0  0  0  0  0  0  0  0  0
   29.0811   11.7772   43.5511 C   0  0  0  0  0  0  0  0  0  0  0  0
   24.4560   12.9783   42.4585 C   0  0  0  0  0  0  0  0  0  0  0  0
   22.0533   15.7732   43.2220 C   0  0  0  0  0  0  0  0  0  0  0  0
   27.9378   12.7294   43.9409 C   0  0  0  0  0  0  0  0  0  0  0  0
   25.7124   13.4073   43.2555 C   0  0  0  0  0  0  0  0  0  0  0  0
   22.9041   14.5188   43.4890 C   0  0  0  0  0  0  0  0  0  0  0  0
  1 12  1  0  0  0  0
  1 11  1  0  0  0  0
  2 13  1  0  0  0  0
  2  9  1  0  0  0  0
  3  4  1  6  0  0  0
  3  5  2  0  0  0  0
  3  6  1  0  0  0  0
  6  8  1  0  0  0  0
  7 10  1  0  0  0  0
  8 11  1  0  0  0  0
  9 12  1  0  0  0  0
 10 13  1  0  0  0  0
M  CHG  1   4  -1
M  END
>  <CHROM.1>
-179.85223517,174.59661275,80.23558520,-169.15355401,172.75911031,-68.67733203
-168.20800317,-63.64463513,-165.72581243,27.42974238,12.99092583,43.28194817
2.72879616,-0.03847006,-0.08307128

>  <Name>
ligand

>  <RI>
-1

>  <Rbt.Current_Directory>
/home/itssahil/PROJECTS/Mol_Feturizer/New_Systems/rnas/2NPY

>  <Rbt.Executable>
rbdock ($Id: //depot/dev/client3/rdock/2013.1/src/exe/rbdock.cxx#4 $)

>  <Rbt.Library>
libRbt.so (2013.1, Build901 2013/11/27)

>  <Rbt.Parameter_File>
/export/apps/rDock/src/rDock_2013.1_src/data/scripts/dock_solv.prm

>  <Rbt.Receptor>
prm/blind_docking_60.prm

>  <SCORE>
-15.1879

>  <SCORE.INTER>
-3.46361

>  <SCORE.INTER.CONST>
1

>  <SCORE.INTER.POLAR>
0

>  <SCORE.INTER.ROT>
9

>  <SCORE.INTER.SOLV>
16.3387

>  <SCORE.INTER.VDW>
-17.3553

>  <SCORE.INTER.norm>
-0.266432

>  <SCORE.INTRA>
-11.7243

>  <SCORE.INTRA.DIHEDRAL>
-22.6378

>  <SCORE.INTRA.DIHEDRAL.0>
25.6828

>  <SCORE.INTRA.POLAR>
0

>  <SCORE.INTRA.POLAR.0>
0

>  <SCORE.INTRA.REPUL>
0

>  <SCORE.INTRA.REPUL.0>
0

>  <SCORE.INTRA.SOLV>
-0.807423

>  <SCORE.INTRA.SOLV.lig_0>
-48.5059

>  <SCORE.INTRA.VDW>
-0.00172717

>  <SCORE.INTRA.VDW.0>
-0.363643

>  <SCORE.INTRA.norm>
-0.901872

>  <SCORE.RESTR>
0

>  <SCORE.RESTR.CAVITY>
0

>  <SCORE.RESTR.norm>
0

>  <SCORE.SYSTEM>
0

>  <SCORE.SYSTEM.CONST>
0

>  <SCORE.SYSTEM.DIHEDRAL>
0

>  <SCORE.SYSTEM.SOLV>
0

>  <SCORE.SYSTEM.norm>
0

>  <SCORE.heavy>
13

>  <SCORE.norm>
-1.1683

>  <RMSD>
21.820

$$$$
ligand
 OpenBabel11021811453D
libRbt.so/2013.1/901 2013/11/27
 13 12  0  0  0  0  0  0  0  0999 V2000
   27.0939   13.4238   42.8875 O   0  0  0  0  0  0  0  0  0  0  0  0
   23.3747   13.2810   43.4347 O   0  0  0  0  0  0  0  0  0  0  0  0
   32.1553   13.3170   42.9521 P   0  0  2  0  0  0  0  0  0  0  0  0
   32.3834   14.7542   42.6237 O   0  5  0  0  0  0  0  0  0  0  0  0
   32.2799   12.2974   41.8790 O   0  0  0  0  0  0  0  0  0  0  0  0
   30.7100   13.1606   43.5877 O   0  0  0  0  0  0  0  0  0  0  0  0
   19.8101   13.2957   42.5741 O   0  0  0  0  0  0  0  0  0  0  0  0
   29.5294   13.3875   42.8044 C   0  0  0  0  0  0  0  0  0  0  0  0
   24.6189   13.4140   42.7008 C   0  0  0  0  0  0  0  0  0  0  0  0
   20.9300   13.2790   43.4476 C   0  0  0  0  0  0  0  0  0  0  0  0
   28.2760   13.1565   43.6656 C   0  0  0  0  0  0  0  0  0  0  0  0
   25.8520   13.2150   43.6160 C   0  0  0  0  0  0  0  0  0  0  0  0
   22.2041   13.3985   42.5925 C   0  0  0  0  0  0  0  0  0  0  0  0
  1 12  1  0  0  0  0
  1 11  1  0  0  0  0
  2 13  1  0  0  0  0
  2  9  1  0  0  0  0
  3  4  1  6  0  0  0
  3  5  2  0  0  0  0
  3  6  1  0  0  0  0
  6  8  1  0  0  0  0
  7 10  1  0  0  0  0
  8 11  1  0  0  0  0
  9 12  1  0  0  0  0
 10 13  1  0  0  0  0
M  CHG  1   4  -1
M  END
>  <CHROM.1>
-175.73263907,-178.70492788,67.31754551,179.58028409,178.29675253,-177.20763689
-176.81106946,-175.57669493,179.26055686,27.32951304,13.33712207,42.97113235
-3.13227974,-0.01913327,-2.35858600

>  <Name>
ligand

>  <RI>
-1

>  <Rbt.Current_Directory>
/home/itssahil/PROJECTS/Mol_Feturizer/New_Systems/rnas/2NPY

>  <Rbt.Executable>
rbdock ($Id: //depot/dev/client3/rdock/2013.1/src/exe/rbdock.cxx#4 $)

>  <Rbt.Library>
libRbt.so (2013.1, Build901 2013/11/27)

>  <Rbt.Parameter_File>
/export/apps/rDock/src/rDock_2013.1_src/data/scripts/dock_solv.prm

>  <Rbt.Receptor>
prm/blind_docking_60.prm

>  <SCORE>
-13.8771

>  <SCORE.INTER>
0.176436

>  <SCORE.INTER.CONST>
1

>  <SCORE.INTER.POLAR>
0

>  <SCORE.INTER.ROT>
9

>  <SCORE.INTER.SOLV>
11.2832

>  <SCORE.INTER.VDW>
-13.2434

>  <SCORE.INTER.norm>
0.013572

>  <SCORE.INTRA>
-14.0536

>  <SCORE.INTRA.DIHEDRAL>
-25.3859

>  <SCORE.INTRA.DIHEDRAL.0>
25.6828

>  <SCORE.INTRA.POLAR>
0

>  <SCORE.INTRA.POLAR.0>
0

>  <SCORE.INTRA.REPUL>
0

>  <SCORE.INTRA.REPUL.0>
0

>  <SCORE.INTRA.SOLV>
-1.15868

>  <SCORE.INTRA.SOLV.lig_0>
-48.5059

>  <SCORE.INTRA.VDW>
-0.781271

>  <SCORE.INTRA.VDW.0>
-0.363643

>  <SCORE.INTRA.norm>
-1.08104

>  <SCORE.RESTR>
0

>  <SCORE.RESTR.CAVITY>
0

>  <SCORE.RESTR.norm>
0

>  <SCORE.SYSTEM>
0

>  <SCORE.SYSTEM.CONST>
0

>  <SCORE.SYSTEM.DIHEDRAL>
0

>  <SCORE.SYSTEM.SOLV>
0

>  <SCORE.SYSTEM.norm>
0

>  <SCORE.heavy>
13

>  <SCORE.norm>
-1.06747

>  <RMSD>
21.832

$$$$
ligand
 OpenBabel11021811453D
libRbt.so/2013.1/901 2013/11/27
 13 12  0  0  0  0  0  0  0  0999 V2000
   27.3721   13.2784   43.5620 O   0  0  0  0  0  0  0  0  0  0  0  0
   30.1767   12.7779   42.6031 O   0  0  0  0  0  0  0  0  0  0  0  0
   22.6708   15.1072   43.1289 P   0  0  2  0  0  0  0  0  0  0  0  0
   22.8643   16.2331   44.0883 O   0  5  0  0  0  0  0  0  0  0  0  0
   21.3465   14.4388   43.0499 O   0  0  0  0  0  0  0  0  0  0  0  0
   23.7499   13.9846   43.4333 O   0  0  0  0  0  0  0  0  0  0  0  0
   30.7750   15.4683   42.2394 O   0  0  0  0  0  0  0  0  0  0  0  0
   25.1541   14.2630   43.3362 C   0  0  0  0  0  0  0  0  0  0  0  0
   29.7167   12.5694   43.9630 C   0  0  0  0  0  0  0  0  0  0  0  0
   31.6598   14.6764   43.0188 C   0  0  0  0  0  0  0  0  0  0  0  0
   25.9631   12.9859   43.6198 C   0  0  0  0  0  0  0  0  0  0  0  0
   28.2179   12.1835   44.0118 C   0  0  0  0  0  0  0  0  0  0  0  0
   31.5523   13.2205   42.5312 C   0  0  0  0  0  0  0  0  0  0  0  0
  1 12  1  0  0  0  0
  1 11  1  0  0  0  0
  2 13  1  0  0  0  0
  2  9  1  0  0  0  0
  3  4  1  1  0  0  0
  3  5  2  0  0  0  0
  3  6  1  0  0  0  0
  6  8  1  0  0  0  0
  7 10  1  0  0  0  0
  8 11  1  0  0  0  0
  9 12  1  0  0  0  0
 10 13  1  0  0  0  0
M  CHG  1   4  -1
M  END
>  <CHROM.1>
-178.47122592,-71.66009912,-60.78410916,-177.40564524,-178.24075152,176.39425438
-66.12519848,-56.00891899,171.31050335,26.61367739,14.05524708,43.25767959
0.14028298,-0.09001117,2.90610355

>  <Name>
ligand

>  <RI>
-1

>  <Rbt.Current_Directory>
/home/itssahil/PROJECTS/Mol_Feturizer/New_Systems/rnas/2NPY

>  <Rbt.Executable>
rbdock ($Id: //depot/dev/client3/rdock/2013.1/src/exe/rbdock.cxx#4 $)

>  <Rbt.Library>
libRbt.so (2013.1, Build901 2013/11/27)

>  <Rbt.Parameter_File>
/export/apps/rDock/src/rDock_2013.1_src/data/scripts/dock_solv.prm

>  <Rbt.Receptor>
prm/blind_docking_60.prm

>  <SCORE>
-16.1199

>  <SCORE.INTER>
-3.2838

>  <SCORE.INTER.CONST>
1

>  <SCORE.INTER.POLAR>
0

>  <SCORE.INTER.ROT>
9

>  <SCORE.INTER.SOLV>
14.5731

>  <SCORE.INTER.VDW>
-16.6469

>  <SCORE.INTER.norm>
-0.2526

>  <SCORE.INTRA>
-12.8361

>  <SCORE.INTRA.DIHEDRAL>
-24.2783

>  <SCORE.INTRA.DIHEDRAL.0>
25.6828

>  <SCORE.INTRA.POLAR>
0

>  <SCORE.INTRA.POLAR.0>
0

>  <SCORE.INTRA.REPUL>
0

>  <SCORE.INTRA.REPUL.0>
0

>  <SCORE.INTRA.SOLV>
-1.0589

>  <SCORE.INTRA.SOLV.lig_0>
-48.5059

>  <SCORE.INTRA.VDW>
-0.167499

>  <SCORE.INTRA.VDW.0>
-0.363643

>  <SCORE.INTRA.norm>
-0.987391

>  <SCORE.RESTR>
0

>  <SCORE.RESTR.CAVITY>
0

>  <SCORE.RESTR.norm>
0

>  <SCORE.SYSTEM>
0

>  <SCORE.SYSTEM.CONST>
0

>  <SCORE.SYSTEM.DIHEDRAL>
0

>  <SCORE.SYSTEM.SOLV>
0

>  <SCORE.SYSTEM.norm>
0

>  <SCORE.heavy>
13

>  <SCORE.norm>
-1.23999

>  <RMSD>
21.848

$$$$
ligand
 OpenBabel11021811453D
libRbt.so/2013.1/901 2013/11/27
 13 12  0  0  0  0  0  0  0  0999 V2000
   26.7858   13.1005   43.7075 O   0  0  0  0  0  0  0  0  0  0  0  0
   29.7696   13.2777   44.1382 O   0  0  0  0  0  0  0  0  0  0  0  0
   22.2731   15.3653   43.3468 P   0  0  2  0  0  0  0  0  0  0  0  0
   20.9448   14.7589   43.0412 O   0  5  0  0  0  0  0  0  0  0  0  0
   22.6094   16.6995   42.7866 O   0  0  0  0  0  0  0  0  0  0  0  0
   23.4119   14.3597   42.8896 O   0  0  0  0  0  0  0  0  0  0  0  0
   32.2287   15.0759   42.0961 O   0  0  0  0  0  0  0  0  0  0  0  0
   24.6132   14.2039   43.6587 C   0  0  0  0  0  0  0  0  0  0  0  0
   29.0145   12.0472   43.9970 C   0  0  0  0  0  0  0  0  0  0  0  0
   31.4193   14.8423   43.2397 C   0  0  0  0  0  0  0  0  0  0  0  0
   25.5728   13.2380   42.9432 C   0  0  0  0  0  0  0  0  0  0  0  0
   27.7751   12.2326   43.0874 C   0  0  0  0  0  0  0  0  0  0  0  0
   30.5512   13.6016   42.9644 C   0  0  0  0  0  0  0  0  0  0  0  0
  1 12  1  0  0  0  0
  1 11  1  0  0  0  0
  2 13  1  0  0  0  0
  2  9  1  0  0  0  0
  3  4  1  6  0  0  0
  3  5  2  0  0  0  0
  3  6  1  0  0  0  0
  6  8  1  0  0  0  0
  7 10  1  0  0  0  0
  8 11  1  0  0  0  0
  9 12  1  0  0  0  0
 10 13  1  0  0  0  0
M  CHG  1   4  -1
M  END
>  <CHROM.1>
-176.14965161,-174.77543640,-142.66016295,-176.51585200,179.10443203,-75.28402751
-67.57494917,176.44939208,-178.29121519,26.29441430,14.19352094,43.22642162
0.15651352,-0.04383948,2.86027222

>  <Name>
ligand

>  <RI>
0

>  <Rbt.Current_Directory>
/home/itssahil/PROJECTS/Mol_Feturizer/New_Systems/rnas/2NPY

>  <Rbt.Executable>
rbdock ($Id: //depot/dev/client3/rdock/2013.1/src/exe/rbdock.cxx#4 $)

>  <Rbt.Library>
libRbt.so (2013.1, Build901 2013/11/27)

>  <Rbt.Parameter_File>
/export/apps/rDock/src/rDock_2013.1_src/data/scripts/dock_solv.prm

>  <Rbt.Receptor>
prm/blind_docking_80.prm

>  <SCORE>
-17.1291

>  <SCORE.INTER>
-4.34064

>  <SCORE.INTER.CONST>
1

>  <SCORE.INTER.POLAR>
0

>  <SCORE.INTER.ROT>
9

>  <SCORE.INTER.SOLV>
18.7639

>  <SCORE.INTER.VDW>
-18.7484

>  <SCORE.INTER.norm>
-0.333895

>  <SCORE.INTRA>
-12.7885

>  <SCORE.INTRA.DIHEDRAL>
-23.1582

>  <SCORE.INTRA.DIHEDRAL.0>
25.6828

>  <SCORE.INTRA.POLAR>
0

>  <SCORE.INTRA.POLAR.0>
0

>  <SCORE.INTRA.REPUL>
0

>  <SCORE.INTRA.REPUL.0>
0

>  <SCORE.INTRA.SOLV>
-1.51808

>  <SCORE.INTRA.SOLV.lig_0>
-48.5059

>  <SCORE.INTRA.VDW>
-0.45033

>  <SCORE.INTRA.VDW.0>
-0.363643

>  <SCORE.INTRA.norm>
-0.983728

>  <SCORE.RESTR>
0

>  <SCORE.RESTR.CAVITY>
0

>  <SCORE.RESTR.norm>
0

>  <SCORE.SYSTEM>
0

>  <SCORE.SYSTEM.CONST>
0

>  <SCORE.SYSTEM.DIHEDRAL>
0

>  <SCORE.SYSTEM.SOLV>
0

>  <SCORE.SYSTEM.norm>
0

>  <SCORE.heavy>
13

>  <SCORE.norm>
-1.31762

>  <RMSD>
21.864

$$$$
ligand
 OpenBabel11021811453D
libRbt.so/2013.1/901 2013/11/27
 13 12  0  0  0  0  0  0  0  0999 V2000
   26.9512   13.3245   43.7359 O   0  0  0  0  0  0  0  0  0  0  0  0
   30.6678   12.7816   43.5649 O   0  0  0  0  0  0  0  0  0  0  0  0
   22.1051   14.6337   43.0763 P   0  0  2  0  0  0  0  0  0  0  0  0
   21.0806   14.2228   42.0729 O   0  5  0  0  0  0  0  0  0  0  0  0
   22.2559   16.0724   43.4141 O   0  0  0  0  0  0  0  0  0  0  0  0
   23.5251   14.1079   42.6023 O   0  0  0  0  0  0  0  0  0  0  0  0
   32.9860   15.1319   41.9653 O   0  0  0  0  0  0  0  0  0  0  0  0
   24.6063   13.9572   43.5335 C   0  0  0  0  0  0  0  0  0  0  0  0
   29.3530   12.8742   44.1708 C   0  0  0  0  0  0  0  0  0  0  0  0
   32.5573   13.8720   42.4617 C   0  0  0  0  0  0  0  0  0  0  0  0
   25.8742   13.4955   42.7951 C   0  0  0  0  0  0  0  0  0  0  0  0
   28.2441   13.0896   43.1116 C   0  0  0  0  0  0  0  0  0  0  0  0
   31.1536   14.0503   43.0672 C   0  0  0  0  0  0  0  0  0  0  0  0
  1 12  1  0  0  0  0
  1 11  1  0  0  0  0
  2 13  1  0  0  0  0
  2  9  1  0  0  0  0
  3  4  1  6  0  0  0
  3  5  2  0  0  0  0
  3  6  1  0  0  0  0
  6  8  1  0  0  0  0
  7 10  1  0  0  0  0
  8 11  1  0  0  0  0
  9 12  1  0  0  0  0
 10 13  1  0  0  0  0
M  CHG  1   4  -1
M  END
>  <CHROM.1>
-178.39437766,179.13761406,-159.32030337,-177.44052825,-179.07797337,72.07821718
-173.85738248,178.98414194,-171.02476661,26.58867292,14.04051930,43.03807109
0.07633449,-0.04106032,2.66431322

>  <Name>
ligand

>  <RI>
-1

>  <Rbt.Current_Directory>
/home/itssahil/PROJECTS/Mol_Feturizer/New_Systems/rnas/2NPY

>  <Rbt.Executable>
rbdock ($Id: //depot/dev/client3/rdock/2013.1/src/exe/rbdock.cxx#4 $)

>  <Rbt.Library>
libRbt.so (2013.1, Build901 2013/11/27)

>  <Rbt.Parameter_File>
/export/apps/rDock/src/rDock_2013.1_src/data/scripts/dock_solv.prm

>  <Rbt.Receptor>
prm/blind_docking_60.prm

>  <SCORE>
-16.5713

>  <SCORE.INTER>
-3.55959

>  <SCORE.INTER.CONST>
1

>  <SCORE.INTER.POLAR>
0

>  <SCORE.INTER.ROT>
9

>  <SCORE.INTER.SOLV>
14.6859

>  <SCORE.INTER.VDW>
-16.8684

>  <SCORE.INTER.norm>
-0.273815

>  <SCORE.INTRA>
-13.0117

>  <SCORE.INTRA.DIHEDRAL>
-24.1299

>  <SCORE.INTRA.DIHEDRAL.0>
25.6828

>  <SCORE.INTRA.POLAR>
0

>  <SCORE.INTRA.POLAR.0>
0

>  <SCORE.INTRA.REPUL>
0

>  <SCORE.INTRA.REPUL.0>
0

>  <SCORE.INTRA.SOLV>
-1.60329

>  <SCORE.INTRA.SOLV.lig_0>
-48.5059

>  <SCORE.INTRA.VDW>
-0.145133

>  <SCORE.INTRA.VDW.0>
-0.363643

>  <SCORE.INTRA.norm>
-1.0009

>  <SCORE.RESTR>
0

>  <SCORE.RESTR.CAVITY>
0

>  <SCORE.RESTR.norm>
0

>  <SCORE.SYSTEM>
0

>  <SCORE.SYSTEM.CONST>
0

>  <SCORE.SYSTEM.DIHEDRAL>
0

>  <SCORE.SYSTEM.SOLV>
0

>  <SCORE.SYSTEM.norm>
0

>  <SCORE.heavy>
13

>  <SCORE.norm>
-1.27472

>  <RMSD>
21.971

$$$$
ligand
 OpenBabel11021811453D
libRbt.so/2013.1/901 2013/11/27
 13 12  0  0  0  0  0  0  0  0999 V2000
   27.5810   12.5251   43.3467 O   0  0  0  0  0  0  0  0  0  0  0  0
   24.2249   14.1202   42.7559 O   0  0  0  0  0  0  0  0  0  0  0  0
   31.1719   10.6581   41.6554 P   0  0  2  0  0  0  0  0  0  0  0  0
   31.6499   11.1342   40.3249 O   0  5  0  0  0  0  0  0  0  0  0  0
   30.5785    9.3012   41.7718 O   0  0  0  0  0  0  0  0  0  0  0  0
   30.1051   11.6905   42.2151 O   0  0  0  0  0  0  0  0  0  0  0  0
   21.8056   15.5167   43.2650 O   0  0  0  0  0  0  0  0  0  0  0  0
   29.9085   11.8584   43.6265 C   0  0  0  0  0  0  0  0  0  0  0  0
   25.1965   13.0533   42.9044 C   0  0  0  0  0  0  0  0  0  0  0  0
   23.0483   16.0363   43.7156 C   0  0  0  0  0  0  0  0  0  0  0  0
   28.8500   12.9446   43.8832 C   0  0  0  0  0  0  0  0  0  0  0  0
   26.6073   13.6001   43.2335 C   0  0  0  0  0  0  0  0  0  0  0  0
   23.9925   14.8506   43.9831 C   0  0  0  0  0  0  0  0  0  0  0  0
  1 12  1  0  0  0  0
  1 11  1  0  0  0  0
  2 13  1  0  0  0  0
  2  9  1  0  0  0  0
  3  4  1  6  0  0  0
  3  5  2  0  0  0  0
  3  6  1  0  0  0  0
  6  8  1  0  0  0  0
  7 10  1  0  0  0  0
  8 11  1  0  0  0  0
  9 12  1  0  0  0  0
 10 13  1  0  0  0  0
M  CHG  1   4  -1
M  END
>  <CHROM.1>
-169.47794465,175.08343931,-152.21397513,178.38802286,63.45772662,-65.20623149
-178.53839611,62.08248109,-165.29521497,27.61887418,12.66366826,42.69765494
-2.74068950,0.38043461,-2.03947070

>  <Name>
ligand

>  <RI>
-1

>  <Rbt.Current_Directory>
/home/itssahil/PROJECTS/Mol_Feturizer/New_Systems/rnas/2NPY

>  <Rbt.Executable>
rbdock ($Id: //depot/dev/client3/rdock/2013.1/src/exe/rbdock.cxx#4 $)

>  <Rbt.Library>
libRbt.so (2013.1, Build901 2013/11/27)

>  <Rbt.Parameter_File>
/export/apps/rDock/src/rDock_2013.1_src/data/scripts/dock_solv.prm

>  <Rbt.Receptor>
prm/blind_docking_60.prm

>  <SCORE>
-13.9569

>  <SCORE.INTER>
-1.633

>  <SCORE.INTER.CONST>
1

>  <SCORE.INTER.POLAR>
0

>  <SCORE.INTER.ROT>
9

>  <SCORE.INTER.SOLV>
8.24429

>  <SCORE.INTER.VDW>
-13.4368

>  <SCORE.INTER.norm>
-0.125616

>  <SCORE.INTRA>
-12.3239

>  <SCORE.INTRA.DIHEDRAL>
-23.2923

>  <SCORE.INTRA.DIHEDRAL.0>
25.6828

>  <SCORE.INTRA.POLAR>
0

>  <SCORE.INTRA.POLAR.0>
0

>  <SCORE.INTRA.REPUL>
0

>  <SCORE.INTRA.REPUL.0>
0

>  <SCORE.INTRA.SOLV>
-1.30123

>  <SCORE.INTRA.SOLV.lig_0>
-48.5059

>  <SCORE.INTRA.VDW>
-0.0270759

>  <SCORE.INTRA.VDW.0>
-0.363643

>  <SCORE.INTRA.norm>
-0.947989

>  <SCORE.RESTR>
0

>  <SCORE.RESTR.CAVITY>
0

>  <SCORE.RESTR.norm>
0

>  <SCORE.SYSTEM>
0

>  <SCORE.SYSTEM.CONST>
0

>  <SCORE.SYSTEM.DIHEDRAL>
0

>  <SCORE.SYSTEM.SOLV>
0

>  <SCORE.SYSTEM.norm>
0

>  <SCORE.heavy>
13

>  <SCORE.norm>
-1.07361

>  <RMSD>
22.015

$$$$
ligand
 OpenBabel11021811453D
libRbt.so/2013.1/901 2013/11/27
 13 12  0  0  0  0  0  0  0  0999 V2000
   29.3938   13.0968   43.4207 O   0  0  0  0  0  0  0  0  0  0  0  0
   32.1688   13.4304   42.3716 O   0  0  0  0  0  0  0  0  0  0  0  0
   24.3963   13.8396   43.1162 P   0  0  2  0  0  0  0  0  0  0  0  0
   24.3996   15.0631   43.9696 O   0  5  0  0  0  0  0  0  0  0  0  0
   23.2419   12.9072   43.1866 O   0  0  0  0  0  0  0  0  0  0  0  0
   25.7045   12.9967   43.4253 O   0  0  0  0  0  0  0  0  0  0  0  0
   33.7172   13.4584   39.9968 O   0  0  0  0  0  0  0  0  0  0  0  0
   27.0095   13.5401   43.1791 C   0  0  0  0  0  0  0  0  0  0  0  0
   31.8539   12.8975   43.6835 C   0  0  0  0  0  0  0  0  0  0  0  0
   33.7416   14.5669   40.8846 C   0  0  0  0  0  0  0  0  0  0  0  0
   28.0866   12.5059   43.5482 C   0  0  0  0  0  0  0  0  0  0  0  0
   30.4844   12.1749   43.6986 C   0  0  0  0  0  0  0  0  0  0  0  0
   33.4775   14.0442   42.3079 C   0  0  0  0  0  0  0  0  0  0  0  0
  1 12  1  0  0  0  0
  1 11  1  0  0  0  0
  2 13  1  0  0  0  0
  2  9  1  0  0  0  0
  3  4  1  1  0  0  0
  3  5  2  0  0  0  0
  3  6  1  0  0  0  0
  6  8  1  0  0  0  0
  7 10  1  0  0  0  0
  8 11  1  0  0  0  0
  9 12  1  0  0  0  0
 10 13  1  0  0  0  0
M  CHG  1   4  -1
M  END
>  <CHROM.1>
-174.37160604,179.29121400,-62.02132053,-179.19911654,-174.58470307,-176.65112972
-63.99023153,-61.64790375,-177.67026946,28.62513094,13.46180687,42.84718718
-0.15013191,-0.11795030,2.19551119

>  <Name>
ligand

>  <RI>
-1

>  <Rbt.Current_Directory>
/home/itssahil/PROJECTS/Mol_Feturizer/New_Systems/rnas/2NPY

>  <Rbt.Executable>
rbdock ($Id: //depot/dev/client3/rdock/2013.1/src/exe/rbdock.cxx#4 $)

>  <Rbt.Library>
libRbt.so (2013.1, Build901 2013/11/27)

>  <Rbt.Parameter_File>
/export/apps/rDock/src/rDock_2013.1_src/data/scripts/dock_solv.prm

>  <Rbt.Receptor>
prm/blind_docking_60.prm

>  <SCORE>
-17.0498

>  <SCORE.INTER>
-2.88253

>  <SCORE.INTER.CONST>
1

>  <SCORE.INTER.POLAR>
0

>  <SCORE.INTER.ROT>
9

>  <SCORE.INTER.SOLV>
16.6565

>  <SCORE.INTER.VDW>
-17.0739

>  <SCORE.INTER.norm>
-0.221733

>  <SCORE.INTRA>
-14.1672

>  <SCORE.INTRA.DIHEDRAL>
-25.1758

>  <SCORE.INTRA.DIHEDRAL.0>
25.6828

>  <SCORE.INTRA.POLAR>
0

>  <SCORE.INTRA.POLAR.0>
0

>  <SCORE.INTRA.REPUL>
0

>  <SCORE.INTRA.REPUL.0>
0

>  <SCORE.INTRA.SOLV>
-1.22292

>  <SCORE.INTRA.SOLV.lig_0>
-48.5059

>  <SCORE.INTRA.VDW>
-0.967865

>  <SCORE.INTRA.VDW.0>
-0.363643

>  <SCORE.INTRA.norm>
-1.08979

>  <SCORE.RESTR>
0

>  <SCORE.RESTR.CAVITY>
0

>  <SCORE.RESTR.norm>
0

>  <SCORE.SYSTEM>
0

>  <SCORE.SYSTEM.CONST>
0

>  <SCORE.SYSTEM.DIHEDRAL>
0

>  <SCORE.SYSTEM.SOLV>
0

>  <SCORE.SYSTEM.norm>
0

>  <SCORE.heavy>
13

>  <SCORE.norm>
-1.31152

>  <RMSD>
22.109

$$$$
ligand
 OpenBabel11021811453D
libRbt.so/2013.1/901 2013/11/27
 13 12  0  0  0  0  0  0  0  0999 V2000
   25.6035   13.8267   43.7269 O   0  0  0  0  0  0  0  0  0  0  0  0
   22.0914   14.9409   42.9643 O   0  0  0  0  0  0  0  0  0  0  0  0
   30.3354   12.0596   43.7134 P   0  0  2  0  0  0  0  0  0  0  0  0
   30.8362   13.4288   43.3975 O   0  5  0  0  0  0  0  0  0  0  0  0
   30.9779   10.8843   43.0711 O   0  0  0  0  0  0  0  0  0  0  0  0
   28.7856   11.9923   43.3802 O   0  0  0  0  0  0  0  0  0  0  0  0
   19.0733   12.9101   43.4221 O   0  0  0  0  0  0  0  0  0  0  0  0
   27.8694   12.9516   43.9272 C   0  0  0  0  0  0  0  0  0  0  0  0
   23.4133   14.9824   43.5603 C   0  0  0  0  0  0  0  0  0  0  0  0
   19.8922   13.8868   42.7951 C   0  0  0  0  0  0  0  0  0  0  0  0
   26.4771   12.7638   43.3009 C   0  0  0  0  0  0  0  0  0  0  0  0
   24.2793   13.7742   43.1267 C   0  0  0  0  0  0  0  0  0  0  0  0
   21.2650   13.8763   43.4908 C   0  0  0  0  0  0  0  0  0  0  0  0
  1 12  1  0  0  0  0
  1 11  1  0  0  0  0
  2 13  1  0  0  0  0
  2  9  1  0  0  0  0
  3  4  1  6  0  0  0
  3  5  2  0  0  0  0
  3  6  1  0  0  0  0
  6  8  1  0  0  0  0
  7 10  1  0  0  0  0
  8 11  1  0  0  0  0
  9 12  1  0  0  0  0
 10 13  1  0  0  0  0
M  CHG  1   4  -1
M  END
>  <CHROM.1>
-176.84940542,-179.14660222,-53.31681671,172.67640947,-173.01518844,69.52019769
179.86058407,-174.80090130,176.88041162,25.88904518,13.14212665,43.39957709
-2.95320700,0.03622428,-3.09590096

>  <Name>
ligand

>  <RI>
-1

>  <Rbt.Current_Directory>
/home/itssahil/PROJECTS/Mol_Feturizer/New_Systems/rnas/2NPY

>  <Rbt.Executable>
rbdock ($Id: //depot/dev/client3/rdock/2013.1/src/exe/rbdock.cxx#4 $)

>  <Rbt.Library>
libRbt.so (2013.1, Build901 2013/11/27)

>  <Rbt.Parameter_File>
/export/apps/rDock/src/rDock_2013.1_src/data/scripts/dock_solv.prm

>  <Rbt.Receptor>
prm/blind_docking_60.prm

>  <SCORE>
-14.204

>  <SCORE.INTER>
-1.19655

>  <SCORE.INTER.CONST>
1

>  <SCORE.INTER.POLAR>
0

>  <SCORE.INTER.ROT>
9

>  <SCORE.INTER.SOLV>
11.2505

>  <SCORE.INTER.VDW>
-14.1479

>  <SCORE.INTER.norm>
-0.0920421

>  <SCORE.INTRA>
-13.0074

>  <SCORE.INTRA.DIHEDRAL>
-24.5669

>  <SCORE.INTRA.DIHEDRAL.0>
25.6828

>  <SCORE.INTRA.POLAR>
0

>  <SCORE.INTRA.POLAR.0>
0

>  <SCORE.INTRA.REPUL>
0

>  <SCORE.INTRA.REPUL.0>
0

>  <SCORE.INTRA.SOLV>
-1.51182

>  <SCORE.INTRA.SOLV.lig_0>
-48.5059

>  <SCORE.INTRA.VDW>
0.0319568

>  <SCORE.INTRA.VDW.0>
-0.363643

>  <SCORE.INTRA.norm>
-1.00057

>  <SCORE.RESTR>
0

>  <SCORE.RESTR.CAVITY>
0

>  <SCORE.RESTR.norm>
0

>  <SCORE.SYSTEM>
0

>  <SCORE.SYSTEM.CONST>
0

>  <SCORE.SYSTEM.DIHEDRAL>
0

>  <SCORE.SYSTEM.SOLV>
0

>  <SCORE.SYSTEM.norm>
0

>  <SCORE.heavy>
13

>  <SCORE.norm>
-1.09261

>  <RMSD>
22.126

$$$$
ligand
 OpenBabel11021811453D
libRbt.so/2013.1/901 2013/11/27
 13 12  0  0  0  0  0  0  0  0999 V2000
   26.5879   13.1256   43.7823 O   0  0  0  0  0  0  0  0  0  0  0  0
   30.0589   11.7026   43.4926 O   0  0  0  0  0  0  0  0  0  0  0  0
   22.1995   15.5363   43.1371 P   0  0  2  0  0  0  0  0  0  0  0  0
   22.7325   16.6453   43.9806 O   0  5  0  0  0  0  0  0  0  0  0  0
   21.1489   14.6431   43.6897 O   0  0  0  0  0  0  0  0  0  0  0  0
   23.4081   14.6170   42.6774 O   0  0  0  0  0  0  0  0  0  0  0  0
   30.8573   14.4918   43.8514 O   0  0  0  0  0  0  0  0  0  0  0  0
   24.3814   14.1482   43.6217 C   0  0  0  0  0  0  0  0  0  0  0  0
   28.9238   12.3559   44.1162 C   0  0  0  0  0  0  0  0  0  0  0  0
   31.6524   13.5291   43.1743 C   0  0  0  0  0  0  0  0  0  0  0  0
   25.4767   13.3503   42.8940 C   0  0  0  0  0  0  0  0  0  0  0  0
   27.7127   12.4486   43.1557 C   0  0  0  0  0  0  0  0  0  0  0  0
   30.7071   12.5236   42.4929 C   0  0  0  0  0  0  0  0  0  0  0  0
  1 12  1  0  0  0  0
  1 11  1  0  0  0  0
  2 13  1  0  0  0  0
  2  9  1  0  0  0  0
  3  4  1  1  0  0  0
  3  5  2  0  0  0  0
  3  6  1  0  0  0  0
  6  8  1  0  0  0  0
  7 10  1  0  0  0  0
  8 11  1  0  0  0  0
  9 12  1  0  0  0  0
 10 13  1  0  0  0  0
M  CHG  1   4  -1
M  END
>  <CHROM.1>
174.56519836,80.87579344,48.48005837,-176.79287141,167.86318906,72.40445298
-179.00823939,-70.33281679,-176.35303052,26.20501805,13.94325584,43.38003448
0.28827767,0.02894463,-3.03622283

>  <Name>
ligand

>  <RI>
0

>  <Rbt.Current_Directory>
/home/itssahil/PROJECTS/Mol_Feturizer/New_Systems/rnas/2NPY

>  <Rbt.Executable>
rbdock ($Id: //depot/dev/client3/rdock/2013.1/src/exe/rbdock.cxx#4 $)

>  <Rbt.Library>
libRbt.so (2013.1, Build901 2013/11/27)

>  <Rbt.Parameter_File>
/export/apps/rDock/src/rDock_2013.1_src/data/scripts/dock_solv.prm

>  <Rbt.Receptor>
prm/blind_docking_100.prm

>  <SCORE>
-13.7934

>  <SCORE.INTER>
-3.30564

>  <SCORE.INTER.CONST>
1

>  <SCORE.INTER.POLAR>
0

>  <SCORE.INTER.ROT>
9

>  <SCORE.INTER.SOLV>
16.6425

>  <SCORE.INTER.VDW>
-17.3513

>  <SCORE.INTER.norm>
-0.25428

>  <SCORE.INTRA>
-10.4877

>  <SCORE.INTRA.DIHEDRAL>
-21.5013

>  <SCORE.INTRA.DIHEDRAL.0>
25.6828

>  <SCORE.INTRA.POLAR>
0

>  <SCORE.INTRA.POLAR.0>
0

>  <SCORE.INTRA.REPUL>
0

>  <SCORE.INTRA.REPUL.0>
0

>  <SCORE.INTRA.SOLV>
-0.531702

>  <SCORE.INTRA.SOLV.lig_0>
-48.5059

>  <SCORE.INTRA.VDW>
0.528763

>  <SCORE.INTRA.VDW.0>
-0.363643

>  <SCORE.INTRA.norm>
-0.80675

>  <SCORE.RESTR>
0

>  <SCORE.RESTR.CAVITY>
0

>  <SCORE.RESTR.norm>
0

>  <SCORE.SYSTEM>
0

>  <SCORE.SYSTEM.CONST>
0

>  <SCORE.SYSTEM.DIHEDRAL>
0

>  <SCORE.SYSTEM.SOLV>
0

>  <SCORE.SYSTEM.norm>
0

>  <SCORE.heavy>
13

>  <SCORE.norm>
-1.06103

>  <RMSD>
22.129

$$$$
ligand
 OpenBabel11021811453D
libRbt.so/2013.1/901 2013/11/27
 13 12  0  0  0  0  0  0  0  0999 V2000
   27.2356   12.6452   43.2563 O   0  0  0  0  0  0  0  0  0  0  0  0
   30.3623   12.3716   42.9417 O   0  0  0  0  0  0  0  0  0  0  0  0
   22.8746   15.2053   43.1538 P   0  0  2  0  0  0  0  0  0  0  0  0
   23.5750   16.1364   44.0855 O   0  5  0  0  0  0  0  0  0  0  0  0
   21.6668   14.4791   43.6235 O   0  0  0  0  0  0  0  0  0  0  0  0
   23.9109   14.1184   42.6421 O   0  0  0  0  0  0  0  0  0  0  0  0
   32.4965   14.1645   43.0036 O   0  0  0  0  0  0  0  0  0  0  0  0
   25.1210   13.8521   43.3658 C   0  0  0  0  0  0  0  0  0  0  0  0
   29.3900   11.4303   43.4640 C   0  0  0  0  0  0  0  0  0  0  0  0
   31.1870   14.6674   42.7805 C   0  0  0  0  0  0  0  0  0  0  0  0
   25.9413   12.7737   42.6377 C   0  0  0  0  0  0  0  0  0  0  0  0
   28.0289   11.5431   42.7343 C   0  0  0  0  0  0  0  0  0  0  0  0
   30.1874   13.7123   43.4569 C   0  0  0  0  0  0  0  0  0  0  0  0
  1 12  1  0  0  0  0
  1 11  1  0  0  0  0
  2 13  1  0  0  0  0
  2  9  1  0  0  0  0
  3  4  1  1  0  0  0
  3  5  2  0  0  0  0
  3  6  1  0  0  0  0
  6  8  1  0  0  0  0
  7 10  1  0  0  0  0
  8 11  1  0  0  0  0
  9 12  1  0  0  0  0
 10 13  1  0  0  0  0
M  CHG  1   4  -1
M  END
>  <CHROM.1>
-178.36452688,-175.90542948,20.23341947,-179.24232280,171.83026461,79.75141225
-81.15338292,-56.84153855,173.36150226,26.70807036,13.77038757,43.16941252
0.21618950,-0.01653042,-3.03915946

>  <Name>
ligand

>  <RI>
-1

>  <Rbt.Current_Directory>
/home/itssahil/PROJECTS/Mol_Feturizer/New_Systems/rnas/2NPY

>  <Rbt.Executable>
rbdock ($Id: //depot/dev/client3/rdock/2013.1/src/exe/rbdock.cxx#4 $)

>  <Rbt.Library>
libRbt.so (2013.1, Build901 2013/11/27)

>  <Rbt.Parameter_File>
/export/apps/rDock/src/rDock_2013.1_src/data/scripts/dock_solv.prm

>  <Rbt.Receptor>
prm/blind_docking_60.prm

>  <SCORE>
-13.2351

>  <SCORE.INTER>
-2.35374

>  <SCORE.INTER.CONST>
1

>  <SCORE.INTER.POLAR>
0

>  <SCORE.INTER.ROT>
9

>  <SCORE.INTER.SOLV>
14.274

>  <SCORE.INTER.VDW>
-15.9271

>  <SCORE.INTER.norm>
-0.181057

>  <SCORE.INTRA>
-10.8814

>  <SCORE.INTRA.DIHEDRAL>
-20.4526

>  <SCORE.INTRA.DIHEDRAL.0>
25.6828

>  <SCORE.INTRA.POLAR>
0

>  <SCORE.INTRA.POLAR.0>
0

>  <SCORE.INTRA.REPUL>
0

>  <SCORE.INTRA.REPUL.0>
0

>  <SCORE.INTRA.SOLV>
-0.702357

>  <SCORE.INTRA.SOLV.lig_0>
-48.5059

>  <SCORE.INTRA.VDW>
-0.303914

>  <SCORE.INTRA.VDW.0>
-0.363643

>  <SCORE.INTRA.norm>
-0.837031

>  <SCORE.RESTR>
0

>  <SCORE.RESTR.CAVITY>
0

>  <SCORE.RESTR.norm>
0

>  <SCORE.SYSTEM>
0

>  <SCORE.SYSTEM.CONST>
0

>  <SCORE.SYSTEM.DIHEDRAL>
0

>  <SCORE.SYSTEM.SOLV>
0

>  <SCORE.SYSTEM.norm>
0

>  <SCORE.heavy>
13

>  <SCORE.norm>
-1.01809

>  <RMSD>
22.136

$$$$
ligand
 OpenBabel11021811453D
libRbt.so/2013.1/901 2013/11/27
 13 12  0  0  0  0  0  0  0  0999 V2000
   27.8517   13.2700   43.5979 O   0  0  0  0  0  0  0  0  0  0  0  0
   24.0961   13.3985   43.4098 O   0  0  0  0  0  0  0  0  0  0  0  0
   31.5905   10.6961   43.3141 P   0  0  2  0  0  0  0  0  0  0  0  0
   32.2466   11.1759   42.0632 O   0  5  0  0  0  0  0  0  0  0  0  0
   30.3630    9.8648   43.2185 O   0  0  0  0  0  0  0  0  0  0  0  0
   31.2432   11.9496   44.2227 O   0  0  0  0  0  0  0  0  0  0  0  0
   20.7726   14.8283   42.8070 O   0  0  0  0  0  0  0  0  0  0  0  0
   30.2512   12.9040   43.8180 C   0  0  0  0  0  0  0  0  0  0  0  0
   25.4629   13.8697   43.2905 C   0  0  0  0  0  0  0  0  0  0  0  0
   21.6981   13.8252   43.2004 C   0  0  0  0  0  0  0  0  0  0  0  0
   28.8461   12.2971   43.9705 C   0  0  0  0  0  0  0  0  0  0  0  0
   26.4862   12.7750   43.6807 C   0  0  0  0  0  0  0  0  0  0  0  0
   23.1164   14.4105   43.0791 C   0  0  0  0  0  0  0  0  0  0  0  0
  1 12  1  0  0  0  0
  1 11  1  0  0  0  0
  2 13  1  0  0  0  0
  2  9  1  0  0  0  0
  3  4  1  6  0  0  0
  3  5  2  0  0  0  0
  3  6  1  0  0  0  0
  6  8  1  0  0  0  0
  7 10  1  0  0  0  0
  8 11  1  0  0  0  0
  9 12  1  0  0  0  0
 10 13  1  0  0  0  0
M  CHG  1   4  -1
M  END
>  <CHROM.1>
179.11224139,178.78352086,67.34068084,73.35553153,178.44916715,178.73560843
-178.21448193,-177.26299196,178.65740957,27.61212799,12.53411217,43.34794274
-2.83313066,0.12977083,-2.80307762

>  <Name>
ligand

>  <RI>
0

>  <Rbt.Current_Directory>
/home/itssahil/PROJECTS/Mol_Feturizer/New_Systems/rnas/2NPY

>  <Rbt.Executable>
rbdock ($Id: //depot/dev/client3/rdock/2013.1/src/exe/rbdock.cxx#4 $)

>  <Rbt.Library>
libRbt.so (2013.1, Build901 2013/11/27)

>  <Rbt.Parameter_File>
/export/apps/rDock/src/rDock_2013.1_src/data/scripts/dock_solv.prm

>  <Rbt.Receptor>
prm/blind_docking_100.prm

>  <SCORE>
-15.2177

>  <SCORE.INTER>
-2.51775

>  <SCORE.INTER.CONST>
1

>  <SCORE.INTER.POLAR>
0

>  <SCORE.INTER.ROT>
9

>  <SCORE.INTER.SOLV>
12.7447

>  <SCORE.INTER.VDW>
-15.5267

>  <SCORE.INTER.norm>
-0.193673

>  <SCORE.INTRA>
-12.6999

>  <SCORE.INTRA.DIHEDRAL>
-24.7262

>  <SCORE.INTRA.DIHEDRAL.0>
25.6828

>  <SCORE.INTRA.POLAR>
0

>  <SCORE.INTRA.POLAR.0>
0

>  <SCORE.INTRA.REPUL>
0

>  <SCORE.INTRA.REPUL.0>
0

>  <SCORE.INTRA.SOLV>
0.461808

>  <SCORE.INTRA.SOLV.lig_0>
-48.5059

>  <SCORE.INTRA.VDW>
-0.567727

>  <SCORE.INTRA.VDW.0>
-0.363643

>  <SCORE.INTRA.norm>
-0.976918

>  <SCORE.RESTR>
0

>  <SCORE.RESTR.CAVITY>
0

>  <SCORE.RESTR.norm>
0

>  <SCORE.SYSTEM>
0

>  <SCORE.SYSTEM.CONST>
0

>  <SCORE.SYSTEM.DIHEDRAL>
0

>  <SCORE.SYSTEM.SOLV>
0

>  <SCORE.SYSTEM.norm>
0

>  <SCORE.heavy>
13

>  <SCORE.norm>
-1.17059

>  <RMSD>
22.174

$$$$
ligand
 OpenBabel11021811453D
libRbt.so/2013.1/901 2013/11/27
 13 12  0  0  0  0  0  0  0  0999 V2000
   27.8688   12.7771   43.2149 O   0  0  0  0  0  0  0  0  0  0  0  0
   30.8654   13.4777   43.1047 O   0  0  0  0  0  0  0  0  0  0  0  0
   23.0731   14.2907   42.6728 P   0  0  2  0  0  0  0  0  0  0  0  0
   22.2596   15.1572   43.5744 O   0  5  0  0  0  0  0  0  0  0  0  0
   22.4290   13.1322   42.0020 O   0  0  0  0  0  0  0  0  0  0  0  0
   24.3184   13.7351   43.4839 O   0  0  0  0  0  0  0  0  0  0  0  0
   33.7799   14.6832   41.2436 O   0  0  0  0  0  0  0  0  0  0  0  0
   25.5503   13.4166   42.8207 C   0  0  0  0  0  0  0  0  0  0  0  0
   30.2729   12.1822   43.3788 C   0  0  0  0  0  0  0  0  0  0  0  0
   32.6778   14.7989   42.1321 C   0  0  0  0  0  0  0  0  0  0  0  0
   26.5786   12.9027   43.8426 C   0  0  0  0  0  0  0  0  0  0  0  0
   28.9155   12.3127   44.1123 C   0  0  0  0  0  0  0  0  0  0  0  0
   32.1145   13.3882   42.3800 C   0  0  0  0  0  0  0  0  0  0  0  0
  1 12  1  0  0  0  0
  1 11  1  0  0  0  0
  2 13  1  0  0  0  0
  2  9  1  0  0  0  0
  3  4  1  1  0  0  0
  3  5  2  0  0  0  0
  3  6  1  0  0  0  0
  6  8  1  0  0  0  0
  7 10  1  0  0  0  0
  8 11  1  0  0  0  0
  9 12  1  0  0  0  0
 10 13  1  0  0  0  0
M  CHG  1   4  -1
M  END
>  <CHROM.1>
179.35262221,-179.88214411,-151.11369319,179.98683625,-171.32294049,-178.07619312
73.60995836,-170.88464747,179.19086493,27.32500876,13.63193849,42.89197029
-0.01166168,-0.06446474,2.53855440

>  <Name>
ligand

>  <RI>
-1

>  <Rbt.Current_Directory>
/home/itssahil/PROJECTS/Mol_Feturizer/New_Systems/rnas/2NPY

>  <Rbt.Executable>
rbdock ($Id: //depot/dev/client3/rdock/2013.1/src/exe/rbdock.cxx#4 $)

>  <Rbt.Library>
libRbt.so (2013.1, Build901 2013/11/27)

>  <Rbt.Parameter_File>
/export/apps/rDock/src/rDock_2013.1_src/data/scripts/dock_solv.prm

>  <Rbt.Receptor>
prm/blind_docking_60.prm

>  <SCORE>
-16.357

>  <SCORE.INTER>
-2.71529

>  <SCORE.INTER.CONST>
1

>  <SCORE.INTER.POLAR>
0

>  <SCORE.INTER.ROT>
9

>  <SCORE.INTER.SOLV>
12.755

>  <SCORE.INTER.VDW>
-15.6619

>  <SCORE.INTER.norm>
-0.208868

>  <SCORE.INTRA>
-13.6417

>  <SCORE.INTRA.DIHEDRAL>
-23.8491

>  <SCORE.INTRA.DIHEDRAL.0>
25.6828

>  <SCORE.INTRA.POLAR>
0

>  <SCORE.INTRA.POLAR.0>
0

>  <SCORE.INTRA.REPUL>
0

>  <SCORE.INTRA.REPUL.0>
0

>  <SCORE.INTRA.SOLV>
-1.56315

>  <SCORE.INTRA.SOLV.lig_0>
-48.5059

>  <SCORE.INTRA.VDW>
-0.935549

>  <SCORE.INTRA.VDW.0>
-0.363643

>  <SCORE.INTRA.norm>
-1.04936

>  <SCORE.RESTR>
0

>  <SCORE.RESTR.CAVITY>
0

>  <SCORE.RESTR.norm>
0

>  <SCORE.SYSTEM>
0

>  <SCORE.SYSTEM.CONST>
0

>  <SCORE.SYSTEM.DIHEDRAL>
0

>  <SCORE.SYSTEM.SOLV>
0

>  <SCORE.SYSTEM.norm>
0

>  <SCORE.heavy>
13

>  <SCORE.norm>
-1.25823

>  <RMSD>
22.184

$$$$
ligand
 OpenBabel11021811453D
libRbt.so/2013.1/901 2013/11/27
 13 12  0  0  0  0  0  0  0  0999 V2000
   29.7947   12.4557   44.4027 O   0  0  0  0  0  0  0  0  0  0  0  0
   33.0591   13.6856   42.9946 O   0  0  0  0  0  0  0  0  0  0  0  0
   25.4719   12.3718   41.7686 P   0  0  2  0  0  0  0  0  0  0  0  0
   26.1696   12.7036   40.4925 O   0  5  0  0  0  0  0  0  0  0  0  0
   24.1227   12.9369   42.0278 O   0  0  0  0  0  0  0  0  0  0  0  0
   26.4017   12.7909   42.9839 O   0  0  0  0  0  0  0  0  0  0  0  0
   35.1132   14.2803   40.9845 O   0  0  0  0  0  0  0  0  0  0  0  0
   27.7740   12.3760   43.0423 C   0  0  0  0  0  0  0  0  0  0  0  0
   32.1572   12.8266   43.7382 C   0  0  0  0  0  0  0  0  0  0  0  0
   33.7462   14.6427   40.8525 C   0  0  0  0  0  0  0  0  0  0  0  0
   28.4154   12.8672   44.3513 C   0  0  0  0  0  0  0  0  0  0  0  0
   30.6824   13.2755   43.5925 C   0  0  0  0  0  0  0  0  0  0  0  0
   32.8981   13.5716   41.5612 C   0  0  0  0  0  0  0  0  0  0  0  0
  1 12  1  0  0  0  0
  1 11  1  0  0  0  0
  2 13  1  0  0  0  0
  2  9  1  0  0  0  0
  3  4  1  6  0  0  0
  3  5  2  0  0  0  0
  3  6  1  0  0  0  0
  6  8  1  0  0  0  0
  7 10  1  0  0  0  0
  8 11  1  0  0  0  0
  9 12  1  0  0  0  0
 10 13  1  0  0  0  0
M  CHG  1   4  -1
M  END
>  <CHROM.1>
177.39758460,172.35938561,-50.65898932,-177.43688868,-179.65957622,-67.81930451
-176.70401255,71.44649168,78.19799742,29.30803127,13.07610033,42.45031361
-0.04232614,0.15198026,1.79663403

>  <Name>
ligand

>  <RI>
0

>  <Rbt.Current_Directory>
/home/itssahil/PROJECTS/Mol_Feturizer/New_Systems/rnas/2NPY

>  <Rbt.Executable>
rbdock ($Id: //depot/dev/client3/rdock/2013.1/src/exe/rbdock.cxx#4 $)

>  <Rbt.Library>
libRbt.so (2013.1, Build901 2013/11/27)

>  <Rbt.Parameter_File>
/export/apps/rDock/src/rDock_2013.1_src/data/scripts/dock_solv.prm

>  <Rbt.Receptor>
prm/blind_docking_80.prm

>  <SCORE>
-12.4269

>  <SCORE.INTER>
-0.94001

>  <SCORE.INTER.CONST>
1

>  <SCORE.INTER.POLAR>
0

>  <SCORE.INTER.ROT>
9

>  <SCORE.INTER.SOLV>
16.0863

>  <SCORE.INTER.VDW>
-15.5888

>  <SCORE.INTER.norm>
-0.0723085

>  <SCORE.INTRA>
-11.5001

>  <SCORE.INTRA.DIHEDRAL>
-22.9511

>  <SCORE.INTRA.DIHEDRAL.0>
25.6828

>  <SCORE.INTRA.POLAR>
0

>  <SCORE.INTRA.POLAR.0>
0

>  <SCORE.INTRA.REPUL>
0

>  <SCORE.INTRA.REPUL.0>
0

>  <SCORE.INTRA.SOLV>
-1.30874

>  <SCORE.INTRA.SOLV.lig_0>
-48.5059

>  <SCORE.INTRA.VDW>
0.629785

>  <SCORE.INTRA.VDW.0>
-0.363643

>  <SCORE.INTRA.norm>
-0.884624

>  <SCORE.RESTR>
0.0132323

>  <SCORE.RESTR.CAVITY>
0.0132323

>  <SCORE.RESTR.norm>
0.00101787

>  <SCORE.SYSTEM>
0

>  <SCORE.SYSTEM.CONST>
0

>  <SCORE.SYSTEM.DIHEDRAL>
0

>  <SCORE.SYSTEM.SOLV>
0

>  <SCORE.SYSTEM.norm>
0

>  <SCORE.heavy>
13

>  <SCORE.norm>
-0.955914

>  <RMSD>
22.208

$$$$
ligand
 OpenBabel11021811453D
libRbt.so/2013.1/901 2013/11/27
 13 12  0  0  0  0  0  0  0  0999 V2000
   27.4631   13.0376   43.5859 O   0  0  0  0  0  0  0  0  0  0  0  0
   24.0438   14.4196   42.8423 O   0  0  0  0  0  0  0  0  0  0  0  0
   29.7591   10.0654   42.6273 P   0  0  2  0  0  0  0  0  0  0  0  0
   31.1707   10.2740   42.1920 O   0  5  0  0  0  0  0  0  0  0  0  0
   28.6578   10.2940   41.6569 O   0  0  0  0  0  0  0  0  0  0  0  0
   29.4731   10.9804   43.8915 O   0  0  0  0  0  0  0  0  0  0  0  0
   21.6185   14.8217   41.4583 O   0  0  0  0  0  0  0  0  0  0  0  0
   29.7914   12.3795   43.8788 C   0  0  0  0  0  0  0  0  0  0  0  0
   25.0627   13.6680   43.5502 C   0  0  0  0  0  0  0  0  0  0  0  0
   21.7778   15.3347   42.7732 C   0  0  0  0  0  0  0  0  0  0  0  0
   28.7779   13.1402   43.0070 C   0  0  0  0  0  0  0  0  0  0  0  0
   26.4360   13.7473   42.8391 C   0  0  0  0  0  0  0  0  0  0  0  0
   22.7673   14.4254   43.5236 C   0  0  0  0  0  0  0  0  0  0  0  0
  1 12  1  0  0  0  0
  1 11  1  0  0  0  0
  2 13  1  0  0  0  0
  2  9  1  0  0  0  0
  3  4  1  6  0  0  0
  3  5  2  0  0  0  0
  3  6  1  0  0  0  0
  6  8  1  0  0  0  0
  7 10  1  0  0  0  0
  8 11  1  0  0  0  0
  9 12  1  0  0  0  0
 10 13  1  0  0  0  0
M  CHG  1   4  -1
M  END
>  <CHROM.1>
-176.79711916,175.35199671,50.59936775,73.89899174,63.77300798,-176.74717314
177.59436828,60.24097198,179.07485082,26.94636980,12.56519659,42.86993880
-0.36665392,-0.36252664,0.71648926

>  <Name>
ligand

>  <RI>
0

>  <Rbt.Current_Directory>
/home/itssahil/PROJECTS/Mol_Feturizer/New_Systems/rnas/2NPY

>  <Rbt.Executable>
rbdock ($Id: //depot/dev/client3/rdock/2013.1/src/exe/rbdock.cxx#4 $)

>  <Rbt.Library>
libRbt.so (2013.1, Build901 2013/11/27)

>  <Rbt.Parameter_File>
/export/apps/rDock/src/rDock_2013.1_src/data/scripts/dock_solv.prm

>  <Rbt.Receptor>
prm/blind_docking_80.prm

>  <SCORE>
-14.0078

>  <SCORE.INTER>
-1.75147

>  <SCORE.INTER.CONST>
1

>  <SCORE.INTER.POLAR>
0

>  <SCORE.INTER.ROT>
9

>  <SCORE.INTER.SOLV>
10.898

>  <SCORE.INTER.VDW>
-14.4003

>  <SCORE.INTER.norm>
-0.134728

>  <SCORE.INTRA>
-12.2563

>  <SCORE.INTRA.DIHEDRAL>
-24.2385

>  <SCORE.INTRA.DIHEDRAL.0>
25.6828

>  <SCORE.INTRA.POLAR>
0

>  <SCORE.INTRA.POLAR.0>
0

>  <SCORE.INTRA.REPUL>
0

>  <SCORE.INTRA.REPUL.0>
0

>  <SCORE.INTRA.SOLV>
1.7707

>  <SCORE.INTRA.SOLV.lig_0>
-48.5059

>  <SCORE.INTRA.VDW>
-1.02242

>  <SCORE.INTRA.VDW.0>
-0.363643

>  <SCORE.INTRA.norm>
-0.942794

>  <SCORE.RESTR>
0

>  <SCORE.RESTR.CAVITY>
0

>  <SCORE.RESTR.norm>
0

>  <SCORE.SYSTEM>
0

>  <SCORE.SYSTEM.CONST>
0

>  <SCORE.SYSTEM.DIHEDRAL>
0

>  <SCORE.SYSTEM.SOLV>
0

>  <SCORE.SYSTEM.norm>
0

>  <SCORE.heavy>
13

>  <SCORE.norm>
-1.07752

>  <RMSD>
22.208

$$$$
ligand
 OpenBabel11021811453D
libRbt.so/2013.1/901 2013/11/27
 13 12  0  0  0  0  0  0  0  0999 V2000
   27.6388   12.4792   43.0222 O   0  0  0  0  0  0  0  0  0  0  0  0
   30.5678   12.7652   42.4667 O   0  0  0  0  0  0  0  0  0  0  0  0
   22.9966   14.4798   42.7439 P   0  0  2  0  0  0  0  0  0  0  0  0
   22.2795   15.3894   43.6840 O   0  5  0  0  0  0  0  0  0  0  0  0
   22.2529   13.3668   42.0997 O   0  0  0  0  0  0  0  0  0  0  0  0
   24.2408   13.8444   43.4960 O   0  0  0  0  0  0  0  0  0  0  0  0
   32.7018   14.5637   41.9166 O   0  0  0  0  0  0  0  0  0  0  0  0
   25.4026   13.4154   42.7715 C   0  0  0  0  0  0  0  0  0  0  0  0
   29.9528   11.5816   43.0369 C   0  0  0  0  0  0  0  0  0  0  0  0
   31.6465   14.9349   42.7917 C   0  0  0  0  0  0  0  0  0  0  0  0
   26.4545   12.8612   43.7473 C   0  0  0  0  0  0  0  0  0  0  0  0
   28.6904   11.9292   43.8636 C   0  0  0  0  0  0  0  0  0  0  0  0
   31.1141   13.6578   43.4659 C   0  0  0  0  0  0  0  0  0  0  0  0
  1 12  1  0  0  0  0
  1 11  1  0  0  0  0
  2 13  1  0  0  0  0
  2  9  1  0  0  0  0
  3  4  1  1  0  0  0
  3  5  2  0  0  0  0
  3  6  1  0  0  0  0
  6  8  1  0  0  0  0
  7 10  1  0  0  0  0
  8 11  1  0  0  0  0
  9 12  1  0  0  0  0
 10 13  1  0  0  0  0
M  CHG  1   4  -1
M  END
>  <CHROM.1>
-178.10803988,-175.56462516,-153.12283020,179.20187379,-177.81108724,66.14731510
64.98184636,-62.59325717,-179.45906438,26.98513743,13.57643238,42.97419362
0.08381052,-0.03915504,2.96510692

>  <Name>
ligand

>  <RI>
-1

>  <Rbt.Current_Directory>
/home/itssahil/PROJECTS/Mol_Feturizer/New_Systems/rnas/2NPY

>  <Rbt.Executable>
rbdock ($Id: //depot/dev/client3/rdock/2013.1/src/exe/rbdock.cxx#4 $)

>  <Rbt.Library>
libRbt.so (2013.1, Build901 2013/11/27)

>  <Rbt.Parameter_File>
/export/apps/rDock/src/rDock_2013.1_src/data/scripts/dock_solv.prm

>  <Rbt.Receptor>
prm/blind_docking_60.prm

>  <SCORE>
-15.7752

>  <SCORE.INTER>
-2.64928

>  <SCORE.INTER.CONST>
1

>  <SCORE.INTER.POLAR>
0

>  <SCORE.INTER.ROT>
9

>  <SCORE.INTER.SOLV>
12.0477

>  <SCORE.INTER.VDW>
-15.3821

>  <SCORE.INTER.norm>
-0.203791

>  <SCORE.INTRA>
-13.126

>  <SCORE.INTRA.DIHEDRAL>
-24.7673

>  <SCORE.INTRA.DIHEDRAL.0>
25.6828

>  <SCORE.INTRA.POLAR>
0

>  <SCORE.INTRA.POLAR.0>
0

>  <SCORE.INTRA.REPUL>
0

>  <SCORE.INTRA.REPUL.0>
0

>  <SCORE.INTRA.SOLV>
-1.2058

>  <SCORE.INTRA.SOLV.lig_0>
-48.5059

>  <SCORE.INTRA.VDW>
-0.139402

>  <SCORE.INTRA.VDW.0>
-0.363643

>  <SCORE.INTRA.norm>
-1.00969

>  <SCORE.RESTR>
0

>  <SCORE.RESTR.CAVITY>
0

>  <SCORE.RESTR.norm>
0

>  <SCORE.SYSTEM>
0

>  <SCORE.SYSTEM.CONST>
0

>  <SCORE.SYSTEM.DIHEDRAL>
0

>  <SCORE.SYSTEM.SOLV>
0

>  <SCORE.SYSTEM.norm>
0

>  <SCORE.heavy>
13

>  <SCORE.norm>
-1.21348

>  <RMSD>
22.229

$$$$
ligand
 OpenBabel11021811453D
libRbt.so/2013.1/901 2013/11/27
 13 12  0  0  0  0  0  0  0  0999 V2000
   26.8085   13.4006   43.7535 O   0  0  0  0  0  0  0  0  0  0  0  0
   30.1695   11.7170   43.5901 O   0  0  0  0  0  0  0  0  0  0  0  0
   22.1464   15.2570   43.1278 P   0  0  2  0  0  0  0  0  0  0  0  0
   20.8994   14.7404   42.4925 O   0  5  0  0  0  0  0  0  0  0  0  0
   22.6719   16.5861   42.7227 O   0  0  0  0  0  0  0  0  0  0  0  0
   23.3093   14.2008   42.9052 O   0  0  0  0  0  0  0  0  0  0  0  0
   33.3123   13.5259   43.0556 O   0  0  0  0  0  0  0  0  0  0  0  0
   24.5491   14.3045   43.6200 C   0  0  0  0  0  0  0  0  0  0  0  0
   29.1901   12.7274   43.9422 C   0  0  0  0  0  0  0  0  0  0  0  0
   31.9316   13.2504   42.8687 C   0  0  0  0  0  0  0  0  0  0  0  0
   25.5084   13.1891   43.1711 C   0  0  0  0  0  0  0  0  0  0  0  0
   27.7794   12.3728   43.4110 C   0  0  0  0  0  0  0  0  0  0  0  0
   31.5312   12.1327   43.8481 C   0  0  0  0  0  0  0  0  0  0  0  0
  1 12  1  0  0  0  0
  1 11  1  0  0  0  0
  2 13  1  0  0  0  0
  2  9  1  0  0  0  0
  3  4  1  6  0  0  0
  3  5  2  0  0  0  0
  3  6  1  0  0  0  0
  6  8  1  0  0  0  0
  7 10  1  0  0  0  0
  8 11  1  0  0  0  0
  9 12  1  0  0  0  0
 10 13  1  0  0  0  0
M  CHG  1   4  -1
M  END
>  <CHROM.1>
174.14397091,-69.07315435,-167.92808490,-177.78241387,172.32650059,169.06918054
-179.22478486,-173.68742807,178.56417977,26.48603723,13.79719111,43.24820089
0.26234976,-0.01386184,2.89349843

>  <Name>
ligand

>  <RI>
0

>  <Rbt.Current_Directory>
/home/itssahil/PROJECTS/Mol_Feturizer/New_Systems/rnas/2NPY

>  <Rbt.Executable>
rbdock ($Id: //depot/dev/client3/rdock/2013.1/src/exe/rbdock.cxx#4 $)

>  <Rbt.Library>
libRbt.so (2013.1, Build901 2013/11/27)

>  <Rbt.Parameter_File>
/export/apps/rDock/src/rDock_2013.1_src/data/scripts/dock_solv.prm

>  <Rbt.Receptor>
prm/blind_docking_100.prm

>  <SCORE>
-15.7135

>  <SCORE.INTER>
-3.19362

>  <SCORE.INTER.CONST>
1

>  <SCORE.INTER.POLAR>
0

>  <SCORE.INTER.ROT>
9

>  <SCORE.INTER.SOLV>
18.2179

>  <SCORE.INTER.VDW>
-17.8017

>  <SCORE.INTER.norm>
-0.245663

>  <SCORE.INTRA>
-12.5199

>  <SCORE.INTRA.DIHEDRAL>
-24.0579

>  <SCORE.INTRA.DIHEDRAL.0>
25.6828

>  <SCORE.INTRA.POLAR>
0

>  <SCORE.INTRA.POLAR.0>
0

>  <SCORE.INTRA.REPUL>
0

>  <SCORE.INTRA.REPUL.0>
0

>  <SCORE.INTRA.SOLV>
-1.52381

>  <SCORE.INTRA.SOLV.lig_0>
-48.5059

>  <SCORE.INTRA.VDW>
0.270929

>  <SCORE.INTRA.VDW.0>
-0.363643

>  <SCORE.INTRA.norm>
-0.96307

>  <SCORE.RESTR>
0

>  <SCORE.RESTR.CAVITY>
0

>  <SCORE.RESTR.norm>
0

>  <SCORE.SYSTEM>
0

>  <SCORE.SYSTEM.CONST>
0

>  <SCORE.SYSTEM.DIHEDRAL>
0

>  <SCORE.SYSTEM.SOLV>
0

>  <SCORE.SYSTEM.norm>
0

>  <SCORE.heavy>
13

>  <SCORE.norm>
-1.20873

>  <RMSD>
22.319

$$$$
ligand
 OpenBabel11021811453D
libRbt.so/2013.1/901 2013/11/27
 13 12  0  0  0  0  0  0  0  0999 V2000
   25.7246   12.6530   43.3683 O   0  0  0  0  0  0  0  0  0  0  0  0
   29.2694   13.2989   44.4330 O   0  0  0  0  0  0  0  0  0  0  0  0
   21.8646   14.8461   42.6004 P   0  0  2  0  0  0  0  0  0  0  0  0
   21.2453   14.0995   43.7337 O   0  5  0  0  0  0  0  0  0  0  0  0
   22.0625   14.1584   41.2986 O   0  0  0  0  0  0  0  0  0  0  0  0
   23.2782   15.3982   43.0633 O   0  0  0  0  0  0  0  0  0  0  0  0
   31.6711   11.9422   43.8493 O   0  0  0  0  0  0  0  0  0  0  0  0
   24.2274   14.5441   43.7177 C   0  0  0  0  0  0  0  0  0  0  0  0
   28.0670   12.5280   44.1795 C   0  0  0  0  0  0  0  0  0  0  0  0
   30.7939   12.3132   42.7956 C   0  0  0  0  0  0  0  0  0  0  0  0
   24.6639   13.4180   42.7651 C   0  0  0  0  0  0  0  0  0  0  0  0
   26.9929   13.3621   43.4390 C   0  0  0  0  0  0  0  0  0  0  0  0
   30.0294   13.5753   43.2331 C   0  0  0  0  0  0  0  0  0  0  0  0
  1 12  1  0  0  0  0
  1 11  1  0  0  0  0
  2 13  1  0  0  0  0
  2  9  1  0  0  0  0
  3  4  1  1  0  0  0
  3  5  2  0  0  0  0
  3  6  1  0  0  0  0
  6  8  1  0  0  0  0
  7 10  1  0  0  0  0
  8 11  1  0  0  0  0
  9 12  1  0  0  0  0
 10 13  1  0  0  0  0
M  CHG  1   4  -1
M  END
>  <CHROM.1>
176.21753972,-76.15780385,48.65620667,63.58480387,173.57769493,-70.78265266
-171.35812984,-60.07022788,-71.29065391,25.76796705,13.65551053,43.21521784
0.07838072,-0.24741976,1.44062952

>  <Name>
ligand

>  <RI>
-1

>  <Rbt.Current_Directory>
/home/itssahil/PROJECTS/Mol_Feturizer/New_Systems/rnas/2NPY

>  <Rbt.Executable>
rbdock ($Id: //depot/dev/client3/rdock/2013.1/src/exe/rbdock.cxx#4 $)

>  <Rbt.Library>
libRbt.so (2013.1, Build901 2013/11/27)

>  <Rbt.Parameter_File>
/export/apps/rDock/src/rDock_2013.1_src/data/scripts/dock_solv.prm

>  <Rbt.Receptor>
prm/blind_docking_60.prm

>  <SCORE>
-12.1405

>  <SCORE.INTER>
-3.20404

>  <SCORE.INTER.CONST>
1

>  <SCORE.INTER.POLAR>
0

>  <SCORE.INTER.ROT>
9

>  <SCORE.INTER.SOLV>
13.8225

>  <SCORE.INTER.VDW>
-16.3435

>  <SCORE.INTER.norm>
-0.246465

>  <SCORE.INTRA>
-8.93648

>  <SCORE.INTRA.DIHEDRAL>
-22.4332

>  <SCORE.INTRA.DIHEDRAL.0>
25.6828

>  <SCORE.INTRA.POLAR>
0

>  <SCORE.INTRA.POLAR.0>
0

>  <SCORE.INTRA.REPUL>
0

>  <SCORE.INTRA.REPUL.0>
0

>  <SCORE.INTRA.SOLV>
1.03565

>  <SCORE.INTRA.SOLV.lig_0>
-48.5059

>  <SCORE.INTRA.VDW>
1.76229

>  <SCORE.INTRA.VDW.0>
-0.363643

>  <SCORE.INTRA.norm>
-0.687421

>  <SCORE.RESTR>
0

>  <SCORE.RESTR.CAVITY>
0

>  <SCORE.RESTR.norm>
0

>  <SCORE.SYSTEM>
0

>  <SCORE.SYSTEM.CONST>
0

>  <SCORE.SYSTEM.DIHEDRAL>
0

>  <SCORE.SYSTEM.SOLV>
0

>  <SCORE.SYSTEM.norm>
0

>  <SCORE.heavy>
13

>  <SCORE.norm>
-0.933886

>  <RMSD>
22.420

$$$$
ligand
 OpenBabel11021811453D
libRbt.so/2013.1/901 2013/11/27
 13 12  0  0  0  0  0  0  0  0999 V2000
   26.8587   12.9232   42.9076 O   0  0  0  0  0  0  0  0  0  0  0  0
   29.8234   13.1240   43.2452 O   0  0  0  0  0  0  0  0  0  0  0  0
   22.9261   13.3872   43.0626 P   0  0  2  0  0  0  0  0  0  0  0  0
   22.0578   12.4027   42.3540 O   0  5  0  0  0  0  0  0  0  0  0  0
   22.3186   14.6221   43.6219 O   0  0  0  0  0  0  0  0  0  0  0  0
   24.0940   13.8349   42.0865 O   0  0  0  0  0  0  0  0  0  0  0  0
   33.0074   14.7572   42.4524 O   0  0  0  0  0  0  0  0  0  0  0  0
   24.9216   12.8641   41.4297 C   0  0  0  0  0  0  0  0  0  0  0  0
   28.8703   13.1902   44.3368 C   0  0  0  0  0  0  0  0  0  0  0  0
   31.9419   13.8387   42.2563 C   0  0  0  0  0  0  0  0  0  0  0  0
   25.7607   12.1010   42.4687 C   0  0  0  0  0  0  0  0  0  0  0  0
   27.5916   12.3703   44.0361 C   0  0  0  0  0  0  0  0  0  0  0  0
   31.0034   13.9298   43.4728 C   0  0  0  0  0  0  0  0  0  0  0  0
  1 12  1  0  0  0  0
  1 11  1  0  0  0  0
  2 13  1  0  0  0  0
  2  9  1  0  0  0  0
  3  4  1  6  0  0  0
  3  5  2  0  0  0  0
  3  6  1  0  0  0  0
  6  8  1  0  0  0  0
  7 10  1  0  0  0  0
  8 11  1  0  0  0  0
  9 12  1  0  0  0  0
 10 13  1  0  0  0  0
M  CHG  1   4  -1
M  END
>  <CHROM.1>
172.07958475,-178.34130719,-52.45395704,-65.83338892,-76.83552410,177.40092173
-64.53505309,173.44361187,171.18031024,26.64877536,13.35401932,42.90823051
-0.03237688,-0.05967032,-1.70218788

>  <Name>
ligand

>  <RI>
-1

>  <Rbt.Current_Directory>
/home/itssahil/PROJECTS/Mol_Feturizer/New_Systems/rnas/2NPY

>  <Rbt.Executable>
rbdock ($Id: //depot/dev/client3/rdock/2013.1/src/exe/rbdock.cxx#4 $)

>  <Rbt.Library>
libRbt.so (2013.1, Build901 2013/11/27)

>  <Rbt.Parameter_File>
/export/apps/rDock/src/rDock_2013.1_src/data/scripts/dock_solv.prm

>  <Rbt.Receptor>
prm/blind_docking_60.prm

>  <SCORE>
-12.5207

>  <SCORE.INTER>
-0.107759

>  <SCORE.INTER.CONST>
1

>  <SCORE.INTER.POLAR>
0

>  <SCORE.INTER.ROT>
9

>  <SCORE.INTER.SOLV>
11.7159

>  <SCORE.INTER.VDW>
-13.5771

>  <SCORE.INTER.norm>
-0.00828919

>  <SCORE.INTRA>
-12.4129

>  <SCORE.INTRA.DIHEDRAL>
-23.5087

>  <SCORE.INTRA.DIHEDRAL.0>
25.6828

>  <SCORE.INTRA.POLAR>
0

>  <SCORE.INTRA.POLAR.0>
0

>  <SCORE.INTRA.REPUL>
0

>  <SCORE.INTRA.REPUL.0>
0

>  <SCORE.INTRA.SOLV>
0.244452

>  <SCORE.INTRA.SOLV.lig_0>
-48.5059

>  <SCORE.INTRA.VDW>
-0.780794

>  <SCORE.INTRA.VDW.0>
-0.363643

>  <SCORE.INTRA.norm>
-0.954841

>  <SCORE.RESTR>
0

>  <SCORE.RESTR.CAVITY>
0

>  <SCORE.RESTR.norm>
0

>  <SCORE.SYSTEM>
0

>  <SCORE.SYSTEM.CONST>
0

>  <SCORE.SYSTEM.DIHEDRAL>
0

>  <SCORE.SYSTEM.SOLV>
0

>  <SCORE.SYSTEM.norm>
0

>  <SCORE.heavy>
13

>  <SCORE.norm>
-0.96313

>  <RMSD>
22.430

$$$$
ligand
 OpenBabel11021811453D
libRbt.so/2013.1/901 2013/11/27
 13 12  0  0  0  0  0  0  0  0999 V2000
   26.3911   12.8276   44.2643 O   0  0  0  0  0  0  0  0  0  0  0  0
   29.7537   12.2841   42.6840 O   0  0  0  0  0  0  0  0  0  0  0  0
   22.1552   15.2184   42.8677 P   0  0  2  0  0  0  0  0  0  0  0  0
   22.2145   16.2106   43.9801 O   0  5  0  0  0  0  0  0  0  0  0  0
   21.2186   14.0696   42.9674 O   0  0  0  0  0  0  0  0  0  0  0  0
   23.6080   14.6252   42.6334 O   0  0  0  0  0  0  0  0  0  0  0  0
   32.1792   13.4892   43.5290 O   0  0  0  0  0  0  0  0  0  0  0  0
   24.2781   13.8824   43.6621 C   0  0  0  0  0  0  0  0  0  0  0  0
   28.3381   12.0745   42.9218 C   0  0  0  0  0  0  0  0  0  0  0  0
   32.0645   12.0754   43.4542 C   0  0  0  0  0  0  0  0  0  0  0  0
   25.7321   13.6033   43.2453 C   0  0  0  0  0  0  0  0  0  0  0  0
   27.8427   12.8463   44.1694 C   0  0  0  0  0  0  0  0  0  0  0  0
   30.5932   11.7019   43.7086 C   0  0  0  0  0  0  0  0  0  0  0  0
  1 12  1  0  0  0  0
  1 11  1  0  0  0  0
  2 13  1  0  0  0  0
  2  9  1  0  0  0  0
  3  4  1  1  0  0  0
  3  5  2  0  0  0  0
  3  6  1  0  0  0  0
  6  8  1  0  0  0  0
  7 10  1  0  0  0  0
  8 11  1  0  0  0  0
  9 12  1  0  0  0  0
 10 13  1  0  0  0  0
M  CHG  1   4  -1
M  END
>  <CHROM.1>
-69.18550538,-174.87803441,62.47392455,-171.94418409,-178.49701071,67.24100313
169.76268273,61.85768873,-162.69395242,26.24148084,13.62203863,43.34660263
0.28669478,0.06156377,-3.03876760

>  <Name>
ligand

>  <RI>
-1

>  <Rbt.Current_Directory>
/home/itssahil/PROJECTS/Mol_Feturizer/New_Systems/rnas/2NPY

>  <Rbt.Executable>
rbdock ($Id: //depot/dev/client3/rdock/2013.1/src/exe/rbdock.cxx#4 $)

>  <Rbt.Library>
libRbt.so (2013.1, Build901 2013/11/27)

>  <Rbt.Parameter_File>
/export/apps/rDock/src/rDock_2013.1_src/data/scripts/dock_solv.prm

>  <Rbt.Receptor>
prm/blind_docking_60.prm

>  <SCORE>
-13.6018

>  <SCORE.INTER>
-2.65414

>  <SCORE.INTER.CONST>
1

>  <SCORE.INTER.POLAR>
0

>  <SCORE.INTER.ROT>
9

>  <SCORE.INTER.SOLV>
14.9877

>  <SCORE.INTER.VDW>
-16.3653

>  <SCORE.INTER.norm>
-0.204165

>  <SCORE.INTRA>
-10.9477

>  <SCORE.INTRA.DIHEDRAL>
-22.7491

>  <SCORE.INTRA.DIHEDRAL.0>
25.6828

>  <SCORE.INTRA.POLAR>
0

>  <SCORE.INTRA.POLAR.0>
0

>  <SCORE.INTRA.REPUL>
0

>  <SCORE.INTRA.REPUL.0>
0

>  <SCORE.INTRA.SOLV>
-0.763298

>  <SCORE.INTRA.SOLV.lig_0>
-48.5059

>  <SCORE.INTRA.VDW>
0.808519

>  <SCORE.INTRA.VDW.0>
-0.363643

>  <SCORE.INTRA.norm>
-0.842129

>  <SCORE.RESTR>
0

>  <SCORE.RESTR.CAVITY>
0

>  <SCORE.RESTR.norm>
0

>  <SCORE.SYSTEM>
0

>  <SCORE.SYSTEM.CONST>
0

>  <SCORE.SYSTEM.DIHEDRAL>
0

>  <SCORE.SYSTEM.SOLV>
0

>  <SCORE.SYSTEM.norm>
0

>  <SCORE.heavy>
13

>  <SCORE.norm>
-1.04629

>  <RMSD>
22.465

$$$$
ligand
 OpenBabel11021811453D
libRbt.so/2013.1/901 2013/11/27
 13 12  0  0  0  0  0  0  0  0999 V2000
   29.1889   11.8113   43.5487 O   0  0  0  0  0  0  0  0  0  0  0  0
   26.0265   13.8429   43.5759 O   0  0  0  0  0  0  0  0  0  0  0  0
   32.0903    9.5430   41.1906 P   0  0  2  0  0  0  0  0  0  0  0  0
   33.5537    9.7762   41.3623 O   0  5  0  0  0  0  0  0  0  0  0  0
   31.5240    9.4552   39.8200 O   0  0  0  0  0  0  0  0  0  0  0  0
   31.2971   10.6829   41.9580 O   0  0  0  0  0  0  0  0  0  0  0  0
   23.9839   15.2950   44.8479 O   0  0  0  0  0  0  0  0  0  0  0  0
   31.4173   10.8388   43.3793 C   0  0  0  0  0  0  0  0  0  0  0  0
   26.8590   12.6614   43.4526 C   0  0  0  0  0  0  0  0  0  0  0  0
   23.8091   14.8699   43.5040 C   0  0  0  0  0  0  0  0  0  0  0  0
   30.5790   12.0403   43.8480 C   0  0  0  0  0  0  0  0  0  0  0  0
   28.3316   12.9515   43.8337 C   0  0  0  0  0  0  0  0  0  0  0  0
   24.6300   13.5841   43.2997 C   0  0  0  0  0  0  0  0  0  0  0  0
  1 12  1  0  0  0  0
  1 11  1  0  0  0  0
  2 13  1  0  0  0  0
  2  9  1  0  0  0  0
  3  4  1  6  0  0  0
  3  5  2  0  0  0  0
  3  6  1  0  0  0  0
  6  8  1  0  0  0  0
  7 10  1  0  0  0  0
  8 11  1  0  0  0  0
  9 12  1  0  0  0  0
 10 13  1  0  0  0  0
M  CHG  1   4  -1
M  END
>  <CHROM.1>
178.27853708,177.82929217,-62.12509456,178.26944110,61.69631313,-176.67951942
-172.85119271,-59.15932278,-174.16719990,29.01628993,11.88202090,42.73614747
-2.63526924,0.35540259,-2.05895161

>  <Name>
ligand

>  <RI>
-1

>  <Rbt.Current_Directory>
/home/itssahil/PROJECTS/Mol_Feturizer/New_Systems/rnas/2NPY

>  <Rbt.Executable>
rbdock ($Id: //depot/dev/client3/rdock/2013.1/src/exe/rbdock.cxx#4 $)

>  <Rbt.Library>
libRbt.so (2013.1, Build901 2013/11/27)

>  <Rbt.Parameter_File>
/export/apps/rDock/src/rDock_2013.1_src/data/scripts/dock_solv.prm

>  <Rbt.Receptor>
prm/blind_docking_60.prm

>  <SCORE>
-14.0668

>  <SCORE.INTER>
0.12574

>  <SCORE.INTER.CONST>
1

>  <SCORE.INTER.POLAR>
0

>  <SCORE.INTER.ROT>
9

>  <SCORE.INTER.SOLV>
11.7372

>  <SCORE.INTER.VDW>
-13.4286

>  <SCORE.INTER.norm>
0.00967234

>  <SCORE.INTRA>
-14.1925

>  <SCORE.INTRA.DIHEDRAL>
-25.1194

>  <SCORE.INTRA.DIHEDRAL.0>
25.6828

>  <SCORE.INTRA.POLAR>
0

>  <SCORE.INTRA.POLAR.0>
0

>  <SCORE.INTRA.REPUL>
0

>  <SCORE.INTRA.REPUL.0>
0

>  <SCORE.INTRA.SOLV>
-1.24472

>  <SCORE.INTRA.SOLV.lig_0>
-48.5059

>  <SCORE.INTRA.VDW>
-1.01047

>  <SCORE.INTRA.VDW.0>
-0.363643

>  <SCORE.INTRA.norm>
-1.09173

>  <SCORE.RESTR>
0

>  <SCORE.RESTR.CAVITY>
0

>  <SCORE.RESTR.norm>
0

>  <SCORE.SYSTEM>
0

>  <SCORE.SYSTEM.CONST>
0

>  <SCORE.SYSTEM.DIHEDRAL>
0

>  <SCORE.SYSTEM.SOLV>
0

>  <SCORE.SYSTEM.norm>
0

>  <SCORE.heavy>
13

>  <SCORE.norm>
-1.08206

>  <RMSD>
22.512

$$$$
ligand
 OpenBabel11021811453D
libRbt.so/2013.1/901 2013/11/27
 13 12  0  0  0  0  0  0  0  0999 V2000
   25.9000   13.2144   43.3599 O   0  0  0  0  0  0  0  0  0  0  0  0
   29.4314   11.9177   43.3821 O   0  0  0  0  0  0  0  0  0  0  0  0
   22.6260   16.1854   43.4030 P   0  0  2  0  0  0  0  0  0  0  0  0
   23.0367   16.7343   44.7280 O   0  5  0  0  0  0  0  0  0  0  0  0
   21.2796   15.5755   43.2544 O   0  0  0  0  0  0  0  0  0  0  0  0
   23.6898   15.1002   42.9470 O   0  0  0  0  0  0  0  0  0  0  0  0
   32.0393   11.4570   42.2861 O   0  0  0  0  0  0  0  0  0  0  0  0
   23.5160   13.7130   43.2702 C   0  0  0  0  0  0  0  0  0  0  0  0
   28.3111   12.7661   43.7420 C   0  0  0  0  0  0  0  0  0  0  0  0
   31.7782   11.2977   43.6732 C   0  0  0  0  0  0  0  0  0  0  0  0
   24.6726   12.8880   42.6806 C   0  0  0  0  0  0  0  0  0  0  0  0
   27.0348   12.4055   42.9426 C   0  0  0  0  0  0  0  0  0  0  0  0
   30.6565   12.2768   44.0631 C   0  0  0  0  0  0  0  0  0  0  0  0
  1 12  1  0  0  0  0
  1 11  1  0  0  0  0
  2 13  1  0  0  0  0
  2  9  1  0  0  0  0
  3  4  1  1  0  0  0
  3  5  2  0  0  0  0
  3  6  1  0  0  0  0
  6  8  1  0  0  0  0
  7 10  1  0  0  0  0
  8 11  1  0  0  0  0
  9 12  1  0  0  0  0
 10 13  1  0  0  0  0
M  CHG  1   4  -1
M  END
>  <CHROM.1>
-177.93612561,177.67774093,91.61599919,178.73878781,67.98731517,176.99010787
177.02176928,64.73699335,175.38210668,26.12012874,13.74567728,43.36502847
0.40391585,0.20560052,-2.63504415

>  <Name>
ligand

>  <RI>
-1

>  <Rbt.Current_Directory>
/home/itssahil/PROJECTS/Mol_Feturizer/New_Systems/rnas/2NPY

>  <Rbt.Executable>
rbdock ($Id: //depot/dev/client3/rdock/2013.1/src/exe/rbdock.cxx#4 $)

>  <Rbt.Library>
libRbt.so (2013.1, Build901 2013/11/27)

>  <Rbt.Parameter_File>
/export/apps/rDock/src/rDock_2013.1_src/data/scripts/dock_solv.prm

>  <Rbt.Receptor>
prm/blind_docking_60.prm

>  <SCORE>
-15.7965

>  <SCORE.INTER>
-2.34628

>  <SCORE.INTER.CONST>
1

>  <SCORE.INTER.POLAR>
0

>  <SCORE.INTER.ROT>
9

>  <SCORE.INTER.SOLV>
19.3151

>  <SCORE.INTER.VDW>
-17.6026

>  <SCORE.INTER.norm>
-0.180483

>  <SCORE.INTRA>
-13.4502

>  <SCORE.INTRA.DIHEDRAL>
-24.4658

>  <SCORE.INTRA.DIHEDRAL.0>
25.6828

>  <SCORE.INTRA.POLAR>
0

>  <SCORE.INTRA.POLAR.0>
0

>  <SCORE.INTRA.REPUL>
0

>  <SCORE.INTRA.REPUL.0>
0

>  <SCORE.INTRA.SOLV>
-0.858749

>  <SCORE.INTRA.SOLV.lig_0>
-48.5059

>  <SCORE.INTRA.VDW>
-0.78789

>  <SCORE.INTRA.VDW.0>
-0.363643

>  <SCORE.INTRA.norm>
-1.03463

>  <SCORE.RESTR>
0

>  <SCORE.RESTR.CAVITY>
0

>  <SCORE.RESTR.norm>
0

>  <SCORE.SYSTEM>
0

>  <SCORE.SYSTEM.CONST>
0

>  <SCORE.SYSTEM.DIHEDRAL>
0

>  <SCORE.SYSTEM.SOLV>
0

>  <SCORE.SYSTEM.norm>
0

>  <SCORE.heavy>
13

>  <SCORE.norm>
-1.21511

>  <RMSD>
22.528

$$$$
ligand
 OpenBabel11021811453D
libRbt.so/2013.1/901 2013/11/27
 13 12  0  0  0  0  0  0  0  0999 V2000
   26.6684   12.3418   43.4124 O   0  0  0  0  0  0  0  0  0  0  0  0
   30.3087   12.4654   44.3337 O   0  0  0  0  0  0  0  0  0  0  0  0
   22.5340   14.0522   43.2159 P   0  0  2  0  0  0  0  0  0  0  0  0
   21.1609   13.6897   42.7589 O   0  5  0  0  0  0  0  0  0  0  0  0
   22.7953   15.4275   43.7130 O   0  0  0  0  0  0  0  0  0  0  0  0
   23.5562   13.7740   42.0348 O   0  0  0  0  0  0  0  0  0  0  0  0
   32.3891   12.2870   42.3439 O   0  0  0  0  0  0  0  0  0  0  0  0
   24.6179   12.8205   42.1852 C   0  0  0  0  0  0  0  0  0  0  0  0
   29.0541   11.8723   43.9112 C   0  0  0  0  0  0  0  0  0  0  0  0
   31.2035   13.0399   42.1323 C   0  0  0  0  0  0  0  0  0  0  0  0
   25.6329   13.3250   43.2250 C   0  0  0  0  0  0  0  0  0  0  0  0
   27.8765   12.8713   44.0261 C   0  0  0  0  0  0  0  0  0  0  0  0
   30.7246   13.5693   43.4959 C   0  0  0  0  0  0  0  0  0  0  0  0
  1 12  1  0  0  0  0
  1 11  1  0  0  0  0
  2 13  1  0  0  0  0
  2  9  1  0  0  0  0
  3  4  1  6  0  0  0
  3  5  2  0  0  0  0
  3  6  1  0  0  0  0
  6  8  1  0  0  0  0
  7 10  1  0  0  0  0
  8 11  1  0  0  0  0
  9 12  1  0  0  0  0
 10 13  1  0  0  0  0
M  CHG  1   4  -1
M  END
>  <CHROM.1>
-167.07329747,-72.31121968,-118.37376583,-67.26569469,177.71465401,-63.82921654
171.22976417,-66.52690452,161.38178150,26.42906177,13.27147487,43.14170355
-0.02667402,-0.17024627,1.28213848

>  <Name>
ligand

>  <RI>
-1

>  <Rbt.Current_Directory>
/home/itssahil/PROJECTS/Mol_Feturizer/New_Systems/rnas/2NPY

>  <Rbt.Executable>
rbdock ($Id: //depot/dev/client3/rdock/2013.1/src/exe/rbdock.cxx#4 $)

>  <Rbt.Library>
libRbt.so (2013.1, Build901 2013/11/27)

>  <Rbt.Parameter_File>
/export/apps/rDock/src/rDock_2013.1_src/data/scripts/dock_solv.prm

>  <Rbt.Receptor>
prm/blind_docking_60.prm

>  <SCORE>
-11.0221

>  <SCORE.INTER>
-1.99846

>  <SCORE.INTER.CONST>
1

>  <SCORE.INTER.POLAR>
0

>  <SCORE.INTER.ROT>
9

>  <SCORE.INTER.SOLV>
10.6407

>  <SCORE.INTER.VDW>
-14.4792

>  <SCORE.INTER.norm>
-0.153727

>  <SCORE.INTRA>
-9.02365

>  <SCORE.INTRA.DIHEDRAL>
-20.2356

>  <SCORE.INTRA.DIHEDRAL.0>
25.6828

>  <SCORE.INTRA.POLAR>
0

>  <SCORE.INTRA.POLAR.0>
0

>  <SCORE.INTRA.REPUL>
0

>  <SCORE.INTRA.REPUL.0>
0

>  <SCORE.INTRA.SOLV>
-0.0458225

>  <SCORE.INTRA.SOLV.lig_0>
-48.5059

>  <SCORE.INTRA.VDW>
1.11704

>  <SCORE.INTRA.VDW.0>
-0.363643

>  <SCORE.INTRA.norm>
-0.694127

>  <SCORE.RESTR>
0

>  <SCORE.RESTR.CAVITY>
0

>  <SCORE.RESTR.norm>
0

>  <SCORE.SYSTEM>
0

>  <SCORE.SYSTEM.CONST>
0

>  <SCORE.SYSTEM.DIHEDRAL>
0

>  <SCORE.SYSTEM.SOLV>
0

>  <SCORE.SYSTEM.norm>
0

>  <SCORE.heavy>
13

>  <SCORE.norm>
-0.847854

>  <RMSD>
22.649

$$$$
ligand
 OpenBabel11021811453D
libRbt.so/2013.1/901 2013/11/27
 13 12  0  0  0  0  0  0  0  0999 V2000
   28.2187   11.3636   42.9062 O   0  0  0  0  0  0  0  0  0  0  0  0
   30.8785   12.3217   43.9973 O   0  0  0  0  0  0  0  0  0  0  0  0
   24.3243   13.1965   42.3876 P   0  0  2  0  0  0  0  0  0  0  0  0
   23.8144   14.2223   43.3432 O   0  5  0  0  0  0  0  0  0  0  0  0
   23.4350   12.0795   41.9773 O   0  0  0  0  0  0  0  0  0  0  0  0
   25.6463   12.5537   42.9845 O   0  0  0  0  0  0  0  0  0  0  0  0
   31.0834   14.8818   42.7535 O   0  0  0  0  0  0  0  0  0  0  0  0
   26.8265   13.3442   43.1873 C   0  0  0  0  0  0  0  0  0  0  0  0
   30.6828   11.1726   43.1339 C   0  0  0  0  0  0  0  0  0  0  0  0
   32.0530   13.8715   42.5157 C   0  0  0  0  0  0  0  0  0  0  0  0
   27.9455   12.4732   43.7830 C   0  0  0  0  0  0  0  0  0  0  0  0
   29.3031   10.5080   43.3627 C   0  0  0  0  0  0  0  0  0  0  0  0
   32.1423   12.9901   43.7742 C   0  0  0  0  0  0  0  0  0  0  0  0
  1 12  1  0  0  0  0
  1 11  1  0  0  0  0
  2 13  1  0  0  0  0
  2  9  1  0  0  0  0
  3  4  1  1  0  0  0
  3  5  2  0  0  0  0
  3  6  1  0  0  0  0
  6  8  1  0  0  0  0
  7 10  1  0  0  0  0
  8 11  1  0  0  0  0
  9 12  1  0  0  0  0
 10 13  1  0  0  0  0
M  CHG  1   4  -1
M  END
>  <CHROM.1>
-75.08848827,78.38762783,-64.09270618,179.58243495,57.90607063,-178.06874224
68.64191339,63.50504257,177.76913727,27.81532437,12.74321004,43.02399009
0.03436035,0.09019670,3.05918498

>  <Name>
ligand

>  <RI>
-1

>  <Rbt.Current_Directory>
/home/itssahil/PROJECTS/Mol_Feturizer/New_Systems/rnas/2NPY

>  <Rbt.Executable>
rbdock ($Id: //depot/dev/client3/rdock/2013.1/src/exe/rbdock.cxx#4 $)

>  <Rbt.Library>
libRbt.so (2013.1, Build901 2013/11/27)

>  <Rbt.Parameter_File>
/export/apps/rDock/src/rDock_2013.1_src/data/scripts/dock_solv.prm

>  <Rbt.Receptor>
prm/blind_docking_60.prm

>  <SCORE>
-13.5567

>  <SCORE.INTER>
-1.73317

>  <SCORE.INTER.CONST>
1

>  <SCORE.INTER.POLAR>
0

>  <SCORE.INTER.ROT>
9

>  <SCORE.INTER.SOLV>
12.6949

>  <SCORE.INTER.VDW>
-14.9871

>  <SCORE.INTER.norm>
-0.133321

>  <SCORE.INTRA>
-11.8235

>  <SCORE.INTRA.DIHEDRAL>
-22.5699

>  <SCORE.INTRA.DIHEDRAL.0>
25.6828

>  <SCORE.INTRA.POLAR>
0

>  <SCORE.INTRA.POLAR.0>
0

>  <SCORE.INTRA.REPUL>
0

>  <SCORE.INTRA.REPUL.0>
0

>  <SCORE.INTRA.SOLV>
-0.725827

>  <SCORE.INTRA.SOLV.lig_0>
-48.5059

>  <SCORE.INTRA.VDW>
-0.17563

>  <SCORE.INTRA.VDW.0>
-0.363643

>  <SCORE.INTRA.norm>
-0.909498

>  <SCORE.RESTR>
0

>  <SCORE.RESTR.CAVITY>
0

>  <SCORE.RESTR.norm>
0

>  <SCORE.SYSTEM>
0

>  <SCORE.SYSTEM.CONST>
0

>  <SCORE.SYSTEM.DIHEDRAL>
0

>  <SCORE.SYSTEM.SOLV>
0

>  <SCORE.SYSTEM.norm>
0

>  <SCORE.heavy>
13

>  <SCORE.norm>
-1.04282

>  <RMSD>
22.655

$$$$
ligand
 OpenBabel11021811453D
libRbt.so/2013.1/901 2013/11/27
 13 12  0  0  0  0  0  0  0  0999 V2000
   26.3431   14.3007   43.1296 O   0  0  0  0  0  0  0  0  0  0  0  0
   29.0076   11.8429   44.1309 O   0  0  0  0  0  0  0  0  0  0  0  0
   21.3421   14.8401   43.2730 P   0  0  2  0  0  0  0  0  0  0  0  0
   21.3907   16.0738   44.1102 O   0  5  0  0  0  0  0  0  0  0  0  0
   20.2139   13.8890   43.4446 O   0  0  0  0  0  0  0  0  0  0  0  0
   22.6857   14.0236   43.4868 O   0  0  0  0  0  0  0  0  0  0  0  0
   31.1913   10.8360   42.6596 O   0  0  0  0  0  0  0  0  0  0  0  0
   23.9607   14.6817   43.4743 C   0  0  0  0  0  0  0  0  0  0  0  0
   27.8192   12.6630   44.2697 C   0  0  0  0  0  0  0  0  0  0  0  0
   31.4213   11.6788   43.7795 C   0  0  0  0  0  0  0  0  0  0  0  0
   25.0880   13.6396   43.3788 C   0  0  0  0  0  0  0  0  0  0  0  0
   27.4615   13.3880   42.9490 C   0  0  0  0  0  0  0  0  0  0  0  0
   30.2114   12.6188   43.9258 C   0  0  0  0  0  0  0  0  0  0  0  0
  1 12  1  0  0  0  0
  1 11  1  0  0  0  0
  2 13  1  0  0  0  0
  2  9  1  0  0  0  0
  3  4  1  1  0  0  0
  3  5  2  0  0  0  0
  3  6  1  0  0  0  0
  6  8  1  0  0  0  0
  7 10  1  0  0  0  0
  8 11  1  0  0  0  0
  9 12  1  0  0  0  0
 10 13  1  0  0  0  0
M  CHG  1   4  -1
M  END
>  <CHROM.1>
-68.75261497,-179.64020385,-45.41275366,-167.04709969,169.91923271,67.57374811
-174.79032400,60.03170558,-176.76230958,25.58691711,13.53921125,43.51542486
-0.31398282,-0.06727736,0.19720539

>  <Name>
ligand

>  <RI>
-1

>  <Rbt.Current_Directory>
/home/itssahil/PROJECTS/Mol_Feturizer/New_Systems/rnas/2NPY

>  <Rbt.Executable>
rbdock ($Id: //depot/dev/client3/rdock/2013.1/src/exe/rbdock.cxx#4 $)

>  <Rbt.Library>
libRbt.so (2013.1, Build901 2013/11/27)

>  <Rbt.Parameter_File>
/export/apps/rDock/src/rDock_2013.1_src/data/scripts/dock_solv.prm

>  <Rbt.Receptor>
prm/blind_docking_60.prm

>  <SCORE>
-14.6575

>  <SCORE.INTER>
-3.20157

>  <SCORE.INTER.CONST>
1

>  <SCORE.INTER.POLAR>
0

>  <SCORE.INTER.ROT>
9

>  <SCORE.INTER.SOLV>
14.2714

>  <SCORE.INTER.VDW>
-16.4915

>  <SCORE.INTER.norm>
-0.246274

>  <SCORE.INTRA>
-11.456

>  <SCORE.INTRA.DIHEDRAL>
-23.5846

>  <SCORE.INTRA.DIHEDRAL.0>
25.6828

>  <SCORE.INTRA.POLAR>
0

>  <SCORE.INTRA.POLAR.0>
0

>  <SCORE.INTRA.REPUL>
0

>  <SCORE.INTRA.REPUL.0>
0

>  <SCORE.INTRA.SOLV>
-1.18454

>  <SCORE.INTRA.SOLV.lig_0>
-48.5059

>  <SCORE.INTRA.VDW>
0.928628

>  <SCORE.INTRA.VDW.0>
-0.363643

>  <SCORE.INTRA.norm>
-0.881228

>  <SCORE.RESTR>
0

>  <SCORE.RESTR.CAVITY>
0

>  <SCORE.RESTR.norm>
0

>  <SCORE.SYSTEM>
0

>  <SCORE.SYSTEM.CONST>
0

>  <SCORE.SYSTEM.DIHEDRAL>
0

>  <SCORE.SYSTEM.SOLV>
0

>  <SCORE.SYSTEM.norm>
0

>  <SCORE.heavy>
13

>  <SCORE.norm>
-1.1275

>  <RMSD>
22.684

$$$$
ligand
 OpenBabel11021811453D
libRbt.so/2013.1/901 2013/11/27
 13 12  0  0  0  0  0  0  0  0999 V2000
   26.6840   13.2787   43.8439 O   0  0  0  0  0  0  0  0  0  0  0  0
   30.0784   11.7112   43.4222 O   0  0  0  0  0  0  0  0  0  0  0  0
   22.1360   15.4271   43.2689 P   0  0  2  0  0  0  0  0  0  0  0  0
   20.8504   14.9246   42.7031 O   0  5  0  0  0  0  0  0  0  0  0  0
   22.6208   16.7778   42.8848 O   0  0  0  0  0  0  0  0  0  0  0  0
   23.2878   14.3938   42.9182 O   0  0  0  0  0  0  0  0  0  0  0  0
   32.5038   11.2432   41.9571 O   0  0  0  0  0  0  0  0  0  0  0  0
   24.5048   14.3573   43.6776 C   0  0  0  0  0  0  0  0  0  0  0  0
   29.0640   12.5870   43.9771 C   0  0  0  0  0  0  0  0  0  0  0  0
   32.4076   10.9720   43.3480 C   0  0  0  0  0  0  0  0  0  0  0  0
   25.4402   13.2722   43.1178 C   0  0  0  0  0  0  0  0  0  0  0  0
   27.6894   12.3825   43.2941 C   0  0  0  0  0  0  0  0  0  0  0  0
   31.3988   11.9614   43.9583 C   0  0  0  0  0  0  0  0  0  0  0  0
  1 12  1  0  0  0  0
  1 11  1  0  0  0  0
  2 13  1  0  0  0  0
  2  9  1  0  0  0  0
  3  4  1  6  0  0  0
  3  5  2  0  0  0  0
  3  6  1  0  0  0  0
  6  8  1  0  0  0  0
  7 10  1  0  0  0  0
  8 11  1  0  0  0  0
  9 12  1  0  0  0  0
 10 13  1  0  0  0  0
M  CHG  1   4  -1
M  END
>  <CHROM.1>
171.40650847,178.59337262,-158.91284100,-179.71394397,177.44691251,174.88327485
-179.16208455,65.31438803,-173.76815248,26.39870032,13.52018950,43.24300714
0.39198472,0.05063325,-3.05470735

>  <Name>
ligand

>  <RI>
-1

>  <Rbt.Current_Directory>
/home/itssahil/PROJECTS/Mol_Feturizer/New_Systems/rnas/2NPY

>  <Rbt.Executable>
rbdock ($Id: //depot/dev/client3/rdock/2013.1/src/exe/rbdock.cxx#4 $)

>  <Rbt.Library>
libRbt.so (2013.1, Build901 2013/11/27)

>  <Rbt.Parameter_File>
/export/apps/rDock/src/rDock_2013.1_src/data/scripts/dock_solv.prm

>  <Rbt.Receptor>
prm/blind_docking_60.prm

>  <SCORE>
-16.6344

>  <SCORE.INTER>
-2.74253

>  <SCORE.INTER.CONST>
1

>  <SCORE.INTER.POLAR>
0

>  <SCORE.INTER.ROT>
9

>  <SCORE.INTER.SOLV>
18.0019

>  <SCORE.INTER.VDW>
-17.429

>  <SCORE.INTER.norm>
-0.210964

>  <SCORE.INTRA>
-13.8919

>  <SCORE.INTRA.DIHEDRAL>
-24.5814

>  <SCORE.INTRA.DIHEDRAL.0>
25.6828

>  <SCORE.INTRA.POLAR>
0

>  <SCORE.INTRA.POLAR.0>
0

>  <SCORE.INTRA.REPUL>
0

>  <SCORE.INTRA.REPUL.0>
0

>  <SCORE.INTRA.SOLV>
-1.41757

>  <SCORE.INTRA.SOLV.lig_0>
-48.5059

>  <SCORE.INTRA.VDW>
-0.892387

>  <SCORE.INTRA.VDW.0>
-0.363643

>  <SCORE.INTRA.norm>
-1.06861

>  <SCORE.RESTR>
0

>  <SCORE.RESTR.CAVITY>
0

>  <SCORE.RESTR.norm>
0

>  <SCORE.SYSTEM>
0

>  <SCORE.SYSTEM.CONST>
0

>  <SCORE.SYSTEM.DIHEDRAL>
0

>  <SCORE.SYSTEM.SOLV>
0

>  <SCORE.SYSTEM.norm>
0

>  <SCORE.heavy>
13

>  <SCORE.norm>
-1.27957

>  <RMSD>
22.708

$$$$
ligand
 OpenBabel11021811453D
libRbt.so/2013.1/901 2013/11/27
 13 12  0  0  0  0  0  0  0  0999 V2000
   26.6445   13.6834   43.5775 O   0  0  0  0  0  0  0  0  0  0  0  0
   29.8383   11.7047   43.7744 O   0  0  0  0  0  0  0  0  0  0  0  0
   21.9578   15.5756   43.3645 P   0  0  2  0  0  0  0  0  0  0  0  0
   22.3352   16.6619   44.3147 O   0  5  0  0  0  0  0  0  0  0  0  0
   20.6108   14.9571   43.4651 O   0  0  0  0  0  0  0  0  0  0  0  0
   23.0245   14.4063   43.4744 O   0  0  0  0  0  0  0  0  0  0  0  0
   31.8228   10.0247   42.6384 O   0  0  0  0  0  0  0  0  0  0  0  0
   24.4259   14.6923   43.5891 C   0  0  0  0  0  0  0  0  0  0  0  0
   28.9855   12.8779   43.7544 C   0  0  0  0  0  0  0  0  0  0  0  0
   32.0817   10.7352   43.8407 C   0  0  0  0  0  0  0  0  0  0  0  0
   25.2375   13.3898   43.4850 C   0  0  0  0  0  0  0  0  0  0  0  0
   27.4875   12.4999   43.6492 C   0  0  0  0  0  0  0  0  0  0  0  0
   31.2478   12.0287   43.8196 C   0  0  0  0  0  0  0  0  0  0  0  0
  1 12  1  0  0  0  0
  1 11  1  0  0  0  0
  2 13  1  0  0  0  0
  2  9  1  0  0  0  0
  3  4  1  1  0  0  0
  3  5  2  0  0  0  0
  3  6  1  0  0  0  0
  6  8  1  0  0  0  0
  7 10  1  0  0  0  0
  8 11  1  0  0  0  0
  9 12  1  0  0  0  0
 10 13  1  0  0  0  0
M  CHG  1   4  -1
M  END
>  <CHROM.1>
-179.70662699,179.90761480,-41.31782011,-172.30216448,179.02189427,177.72939929
-177.77993596,61.88212047,173.07088546,26.17097769,13.52038709,43.57425314
-0.40312259,-0.17463679,0.41457394

>  <Name>
ligand

>  <RI>
0

>  <Rbt.Current_Directory>
/home/itssahil/PROJECTS/Mol_Feturizer/New_Systems/rnas/2NPY

>  <Rbt.Executable>
rbdock ($Id: //depot/dev/client3/rdock/2013.1/src/exe/rbdock.cxx#4 $)

>  <Rbt.Library>
libRbt.so (2013.1, Build901 2013/11/27)

>  <Rbt.Parameter_File>
/export/apps/rDock/src/rDock_2013.1_src/data/scripts/dock_solv.prm

>  <Rbt.Receptor>
prm/blind_docking_100.prm

>  <SCORE>
-16.7321

>  <SCORE.INTER>
-2.93705

>  <SCORE.INTER.CONST>
1

>  <SCORE.INTER.POLAR>
0

>  <SCORE.INTER.ROT>
9

>  <SCORE.INTER.SOLV>
17.6884

>  <SCORE.INTER.VDW>
-17.4542

>  <SCORE.INTER.norm>
-0.225927

>  <SCORE.INTRA>
-13.795

>  <SCORE.INTRA.DIHEDRAL>
-24.8848

>  <SCORE.INTRA.DIHEDRAL.0>
25.6828

>  <SCORE.INTRA.POLAR>
0

>  <SCORE.INTRA.POLAR.0>
0

>  <SCORE.INTRA.REPUL>
0

>  <SCORE.INTRA.REPUL.0>
0

>  <SCORE.INTRA.SOLV>
-1.27278

>  <SCORE.INTRA.SOLV.lig_0>
-48.5059

>  <SCORE.INTRA.VDW>
-0.716238

>  <SCORE.INTRA.VDW.0>
-0.363643

>  <SCORE.INTRA.norm>
-1.06116

>  <SCORE.RESTR>
0

>  <SCORE.RESTR.CAVITY>
0

>  <SCORE.RESTR.norm>
0

>  <SCORE.SYSTEM>
0

>  <SCORE.SYSTEM.CONST>
0

>  <SCORE.SYSTEM.DIHEDRAL>
0

>  <SCORE.SYSTEM.SOLV>
0

>  <SCORE.SYSTEM.norm>
0

>  <SCORE.heavy>
13

>  <SCORE.norm>
-1.28708

>  <RMSD>
22.727

$$$$
ligand
 OpenBabel11021811453D
libRbt.so/2013.1/901 2013/11/27
 13 12  0  0  0  0  0  0  0  0999 V2000
   26.5657   13.2119   43.7158 O   0  0  0  0  0  0  0  0  0  0  0  0
   30.0274   11.7623   43.4611 O   0  0  0  0  0  0  0  0  0  0  0  0
   22.0215   15.2632   42.8736 P   0  0  2  0  0  0  0  0  0  0  0  0
   22.5702   16.6057   43.2227 O   0  5  0  0  0  0  0  0  0  0  0  0
   21.1199   14.5745   43.8326 O   0  0  0  0  0  0  0  0  0  0  0  0
   23.2292   14.2800   42.5703 O   0  0  0  0  0  0  0  0  0  0  0  0
   32.4513   11.4346   42.0469 O   0  0  0  0  0  0  0  0  0  0  0  0
   24.3372   14.1687   43.4752 C   0  0  0  0  0  0  0  0  0  0  0  0
   28.9478   12.5722   43.9931 C   0  0  0  0  0  0  0  0  0  0  0  0
   32.3986   11.1679   43.4410 C   0  0  0  0  0  0  0  0  0  0  0  0
   25.3592   13.1561   42.9313 C   0  0  0  0  0  0  0  0  0  0  0  0
   27.6183   12.3289   43.2375 C   0  0  0  0  0  0  0  0  0  0  0  0
   31.3104   12.0647   44.0577 C   0  0  0  0  0  0  0  0  0  0  0  0
  1 12  1  0  0  0  0
  1 11  1  0  0  0  0
  2 13  1  0  0  0  0
  2  9  1  0  0  0  0
  3  4  1  1  0  0  0
  3  5  2  0  0  0  0
  3  6  1  0  0  0  0
  6  8  1  0  0  0  0
  7 10  1  0  0  0  0
  8 11  1  0  0  0  0
  9 12  1  0  0  0  0
 10 13  1  0  0  0  0
M  CHG  1   4  -1
M  END
>  <CHROM.1>
172.14893469,-179.93849613,49.39906851,-179.67176841,170.31522844,174.19411190
-176.01359284,60.67120611,-177.34728817,26.34180462,13.45636769,43.25415457
0.33507205,-0.15160763,2.70555630

>  <Name>
ligand

>  <RI>
-1

>  <Rbt.Current_Directory>
/home/itssahil/PROJECTS/Mol_Feturizer/New_Systems/rnas/2NPY

>  <Rbt.Executable>
rbdock ($Id: //depot/dev/client3/rdock/2013.1/src/exe/rbdock.cxx#4 $)

>  <Rbt.Library>
libRbt.so (2013.1, Build901 2013/11/27)

>  <Rbt.Parameter_File>
/export/apps/rDock/src/rDock_2013.1_src/data/scripts/dock_solv.prm

>  <Rbt.Receptor>
prm/blind_docking_60.prm

>  <SCORE>
-16.2798

>  <SCORE.INTER>
-2.76597

>  <SCORE.INTER.CONST>
1

>  <SCORE.INTER.POLAR>
0

>  <SCORE.INTER.ROT>
9

>  <SCORE.INTER.SOLV>
16.7641

>  <SCORE.INTER.VDW>
-17.032

>  <SCORE.INTER.norm>
-0.212767

>  <SCORE.INTRA>
-13.5138

>  <SCORE.INTRA.DIHEDRAL>
-24.4954

>  <SCORE.INTRA.DIHEDRAL.0>
25.6828

>  <SCORE.INTRA.POLAR>
0

>  <SCORE.INTRA.POLAR.0>
0

>  <SCORE.INTRA.REPUL>
0

>  <SCORE.INTRA.REPUL.0>
0

>  <SCORE.INTRA.SOLV>
-0.907975

>  <SCORE.INTRA.SOLV.lig_0>
-48.5059

>  <SCORE.INTRA.VDW>
-0.812151

>  <SCORE.INTRA.VDW.0>
-0.363643

>  <SCORE.INTRA.norm>
-1.03953

>  <SCORE.RESTR>
0

>  <SCORE.RESTR.CAVITY>
0

>  <SCORE.RESTR.norm>
0

>  <SCORE.SYSTEM>
0

>  <SCORE.SYSTEM.CONST>
0

>  <SCORE.SYSTEM.DIHEDRAL>
0

>  <SCORE.SYSTEM.SOLV>
0

>  <SCORE.SYSTEM.norm>
0

>  <SCORE.heavy>
13

>  <SCORE.norm>
-1.25229

>  <RMSD>
22.734

$$$$
ligand
 OpenBabel11021811453D
libRbt.so/2013.1/901 2013/11/27
 13 12  0  0  0  0  0  0  0  0999 V2000
   35.2951   12.4062   53.8967 O   0  0  0  0  0  0  0  0  0  0  0  0
   35.0574   16.0612   53.0369 O   0  0  0  0  0  0  0  0  0  0  0  0
   34.3431   11.2679   58.7348 P   0  0  2  0  0  0  0  0  0  0  0  0
   33.6561    9.9574   58.9247 O   0  5  0  0  0  0  0  0  0  0  0  0
   33.5360   12.5148   58.7083 O   0  0  0  0  0  0  0  0  0  0  0  0
   35.1789   11.2167   57.3871 O   0  0  0  0  0  0  0  0  0  0  0  0
   33.7704   18.5858   52.8309 O   0  0  0  0  0  0  0  0  0  0  0  0
   34.7009   11.8581   56.1959 C   0  0  0  0  0  0  0  0  0  0  0  0
   35.1108   14.6296   52.8091 C   0  0  0  0  0  0  0  0  0  0  0  0
   34.9842   18.3334   52.1378 C   0  0  0  0  0  0  0  0  0  0  0  0
   35.6941   11.6315   55.0435 C   0  0  0  0  0  0  0  0  0  0  0  0
   35.2943   13.8422   54.1297 C   0  0  0  0  0  0  0  0  0  0  0  0
   35.0438   16.8305   51.8115 C   0  0  0  0  0  0  0  0  0  0  0  0
  1 12  1  0  0  0  0
  1 11  1  0  0  0  0
  2 13  1  0  0  0  0
  2  9  1  0  0  0  0
  3  4  1  6  0  0  0
  3  5  2  0  0  0  0
  3  6  1  0  0  0  0
  6  8  1  0  0  0  0
  7 10  1  0  0  0  0
  8 11  1  0  0  0  0
  9 12  1  0  0  0  0
 10 13  1  0  0  0  0
M  CHG  1   4  -1
M  END
>  <CHROM.1>
169.69372699,179.89854681,102.73525104,-179.14669201,-173.17395211,173.19585475
177.80325917,-62.25650924,62.13958737,34.69295746,13.55993399,55.38746039
-1.44754316,-1.08491787,2.48433889

>  <Name>
ligand

>  <RI>
0

>  <Rbt.Current_Directory>
/home/itssahil/PROJECTS/Mol_Feturizer/New_Systems/rnas/2NPY

>  <Rbt.Executable>
rbdock ($Id: //depot/dev/client3/rdock/2013.1/src/exe/rbdock.cxx#4 $)

>  <Rbt.Library>
libRbt.so (2013.1, Build901 2013/11/27)

>  <Rbt.Parameter_File>
/export/apps/rDock/src/rDock_2013.1_src/data/scripts/dock_solv.prm

>  <Rbt.Receptor>
prm/blind_docking_100.prm

>  <SCORE>
-16.411

>  <SCORE.INTER>
-5.06805

>  <SCORE.INTER.CONST>
1

>  <SCORE.INTER.POLAR>
0

>  <SCORE.INTER.ROT>
9

>  <SCORE.INTER.SOLV>
20.6548

>  <SCORE.INTER.VDW>
-19.8636

>  <SCORE.INTER.norm>
-0.38985

>  <SCORE.INTRA>
-11.343

>  <SCORE.INTRA.DIHEDRAL>
-23.6107

>  <SCORE.INTRA.DIHEDRAL.0>
25.6828

>  <SCORE.INTRA.POLAR>
0

>  <SCORE.INTRA.POLAR.0>
0

>  <SCORE.INTRA.REPUL>
0

>  <SCORE.INTRA.REPUL.0>
0

>  <SCORE.INTRA.SOLV>
-0.950294

>  <SCORE.INTRA.SOLV.lig_0>
-48.5059

>  <SCORE.INTRA.VDW>
0.937517

>  <SCORE.INTRA.VDW.0>
-0.363643

>  <SCORE.INTRA.norm>
-0.872538

>  <SCORE.RESTR>
0

>  <SCORE.RESTR.CAVITY>
0

>  <SCORE.RESTR.norm>
0

>  <SCORE.SYSTEM>
0

>  <SCORE.SYSTEM.CONST>
0

>  <SCORE.SYSTEM.DIHEDRAL>
0

>  <SCORE.SYSTEM.SOLV>
0

>  <SCORE.SYSTEM.norm>
0

>  <SCORE.heavy>
13

>  <SCORE.norm>
-1.26239

>  <RMSD>
22.761

$$$$
ligand
 OpenBabel11021811453D
libRbt.so/2013.1/901 2013/11/27
 13 12  0  0  0  0  0  0  0  0999 V2000
   27.0721   12.8987   42.7637 O   0  0  0  0  0  0  0  0  0  0  0  0
   29.7483   11.7339   43.6963 O   0  0  0  0  0  0  0  0  0  0  0  0
   22.7291   15.3624   43.5510 P   0  0  2  0  0  0  0  0  0  0  0  0
   21.2969   15.0745   43.2489 O   0  5  0  0  0  0  0  0  0  0  0  0
   23.3365   16.6253   43.0582 O   0  0  0  0  0  0  0  0  0  0  0  0
   23.6174   14.1661   43.0058 O   0  0  0  0  0  0  0  0  0  0  0  0
   31.4826   10.3780   41.9457 O   0  0  0  0  0  0  0  0  0  0  0  0
   25.0137   14.0773   43.3240 C   0  0  0  0  0  0  0  0  0  0  0  0
   29.0444   12.8651   44.2700 C   0  0  0  0  0  0  0  0  0  0  0  0
   31.8503   10.5478   43.3071 C   0  0  0  0  0  0  0  0  0  0  0  0
   25.6413   12.8741   42.6000 C   0  0  0  0  0  0  0  0  0  0  0  0
   27.5088   12.7152   44.1392 C   0  0  0  0  0  0  0  0  0  0  0  0
   31.1859   11.8365   43.8236 C   0  0  0  0  0  0  0  0  0  0  0  0
  1 12  1  0  0  0  0
  1 11  1  0  0  0  0
  2 13  1  0  0  0  0
  2  9  1  0  0  0  0
  3  4  1  6  0  0  0
  3  5  2  0  0  0  0
  3  6  1  0  0  0  0
  6  8  1  0  0  0  0
  7 10  1  0  0  0  0
  8 11  1  0  0  0  0
  9 12  1  0  0  0  0
 10 13  1  0  0  0  0
M  CHG  1   4  -1
M  END
>  <CHROM.1>
-175.39318934,174.98214913,-170.93405366,-176.63597740,171.74509137,-179.05811163
-72.06749183,59.37640248,65.24466950,26.50845362,13.35965802,43.28964447
0.35459075,0.30309555,-2.45053472

>  <Name>
ligand

>  <RI>
-1

>  <Rbt.Current_Directory>
/home/itssahil/PROJECTS/Mol_Feturizer/New_Systems/rnas/2NPY

>  <Rbt.Executable>
rbdock ($Id: //depot/dev/client3/rdock/2013.1/src/exe/rbdock.cxx#4 $)

>  <Rbt.Library>
libRbt.so (2013.1, Build901 2013/11/27)

>  <Rbt.Parameter_File>
/export/apps/rDock/src/rDock_2013.1_src/data/scripts/dock_solv.prm

>  <Rbt.Receptor>
prm/blind_docking_60.prm

>  <SCORE>
-16.232

>  <SCORE.INTER>
-3.7371

>  <SCORE.INTER.CONST>
1

>  <SCORE.INTER.POLAR>
0

>  <SCORE.INTER.ROT>
9

>  <SCORE.INTER.SOLV>
15.6927

>  <SCORE.INTER.VDW>
-17.3223

>  <SCORE.INTER.norm>
-0.287469

>  <SCORE.INTRA>
-12.4949

>  <SCORE.INTRA.DIHEDRAL>
-24.4268

>  <SCORE.INTRA.DIHEDRAL.0>
25.6828

>  <SCORE.INTRA.POLAR>
0

>  <SCORE.INTRA.POLAR.0>
0

>  <SCORE.INTRA.REPUL>
0

>  <SCORE.INTRA.REPUL.0>
0

>  <SCORE.INTRA.SOLV>
-1.17843

>  <SCORE.INTRA.SOLV.lig_0>
-48.5059

>  <SCORE.INTRA.VDW>
0.307738

>  <SCORE.INTRA.VDW.0>
-0.363643

>  <SCORE.INTRA.norm>
-0.961143

>  <SCORE.RESTR>
0

>  <SCORE.RESTR.CAVITY>
0

>  <SCORE.RESTR.norm>
0

>  <SCORE.SYSTEM>
0

>  <SCORE.SYSTEM.CONST>
0

>  <SCORE.SYSTEM.DIHEDRAL>
0

>  <SCORE.SYSTEM.SOLV>
0

>  <SCORE.SYSTEM.norm>
0

>  <SCORE.heavy>
13

>  <SCORE.norm>
-1.24861

>  <RMSD>
22.763

$$$$
ligand
 OpenBabel11021811453D
libRbt.so/2013.1/901 2013/11/27
 13 12  0  0  0  0  0  0  0  0999 V2000
   26.5482   13.3089   43.5783 O   0  0  0  0  0  0  0  0  0  0  0  0
   30.0280   11.8871   43.4965 O   0  0  0  0  0  0  0  0  0  0  0  0
   21.8823   14.9312   42.5286 P   0  0  2  0  0  0  0  0  0  0  0  0
   21.2333   14.9342   43.8718 O   0  5  0  0  0  0  0  0  0  0  0  0
   21.0546   14.6758   41.3218 O   0  0  0  0  0  0  0  0  0  0  0  0
   23.0573   13.8650   42.5307 O   0  0  0  0  0  0  0  0  0  0  0  0
   32.1310   10.1511   44.2275 O   0  0  0  0  0  0  0  0  0  0  0  0
   24.2588   14.0902   43.2820 C   0  0  0  0  0  0  0  0  0  0  0  0
   28.9609   12.7994   43.8614 C   0  0  0  0  0  0  0  0  0  0  0  0
   32.4089   11.3320   43.4888 C   0  0  0  0  0  0  0  0  0  0  0  0
   25.2764   12.9741   42.9912 C   0  0  0  0  0  0  0  0  0  0  0  0
   27.5866   12.3200   43.3327 C   0  0  0  0  0  0  0  0  0  0  0  0
   31.3417   12.3815   43.8475 C   0  0  0  0  0  0  0  0  0  0  0  0
  1 12  1  0  0  0  0
  1 11  1  0  0  0  0
  2 13  1  0  0  0  0
  2  9  1  0  0  0  0
  3  4  1  1  0  0  0
  3  5  2  0  0  0  0
  3  6  1  0  0  0  0
  6  8  1  0  0  0  0
  7 10  1  0  0  0  0
  8 11  1  0  0  0  0
  9 12  1  0  0  0  0
 10 13  1  0  0  0  0
M  CHG  1   4  -1
M  END
>  <CHROM.1>
174.21962022,177.38049844,-70.29097684,-174.24958774,171.11841604,173.56487315
-173.87947300,-60.44817081,-178.86321293,26.16735495,13.20590979,43.19490848
0.00234783,-0.35018652,1.21541952

>  <Name>
ligand

>  <RI>
-1

>  <Rbt.Current_Directory>
/home/itssahil/PROJECTS/Mol_Feturizer/New_Systems/rnas/2NPY

>  <Rbt.Executable>
rbdock ($Id: //depot/dev/client3/rdock/2013.1/src/exe/rbdock.cxx#4 $)

>  <Rbt.Library>
libRbt.so (2013.1, Build901 2013/11/27)

>  <Rbt.Parameter_File>
/export/apps/rDock/src/rDock_2013.1_src/data/scripts/dock_solv.prm

>  <Rbt.Receptor>
prm/blind_docking_60.prm

>  <SCORE>
-15.6451

>  <SCORE.INTER>
-1.83397

>  <SCORE.INTER.CONST>
1

>  <SCORE.INTER.POLAR>
0

>  <SCORE.INTER.ROT>
9

>  <SCORE.INTER.SOLV>
17.3605

>  <SCORE.INTER.VDW>
-16.6095

>  <SCORE.INTER.norm>
-0.141075

>  <SCORE.INTRA>
-13.8112

>  <SCORE.INTRA.DIHEDRAL>
-24.4111

>  <SCORE.INTRA.DIHEDRAL.0>
25.6828

>  <SCORE.INTRA.POLAR>
0

>  <SCORE.INTRA.POLAR.0>
0

>  <SCORE.INTRA.REPUL>
0

>  <SCORE.INTRA.REPUL.0>
0

>  <SCORE.INTRA.SOLV>
-1.43015

>  <SCORE.INTRA.SOLV.lig_0>
-48.5059

>  <SCORE.INTRA.VDW>
-0.890539

>  <SCORE.INTRA.VDW.0>
-0.363643

>  <SCORE.INTRA.norm>
-1.0624

>  <SCORE.RESTR>
0

>  <SCORE.RESTR.CAVITY>
0

>  <SCORE.RESTR.norm>
0

>  <SCORE.SYSTEM>
0

>  <SCORE.SYSTEM.CONST>
0

>  <SCORE.SYSTEM.DIHEDRAL>
0

>  <SCORE.SYSTEM.SOLV>
0

>  <SCORE.SYSTEM.norm>
0

>  <SCORE.heavy>
13

>  <SCORE.norm>
-1.20347

>  <RMSD>
22.968

$$$$
ligand
 OpenBabel11021811453D
libRbt.so/2013.1/901 2013/11/27
 13 12  0  0  0  0  0  0  0  0999 V2000
   26.1133   12.8250   43.4012 O   0  0  0  0  0  0  0  0  0  0  0  0
   28.3474   11.0774   42.7825 O   0  0  0  0  0  0  0  0  0  0  0  0
   22.4451   15.6035   42.7493 P   0  0  2  0  0  0  0  0  0  0  0  0
   21.7836   16.5884   43.6537 O   0  5  0  0  0  0  0  0  0  0  0  0
   21.7589   15.1904   41.4981 O   0  0  0  0  0  0  0  0  0  0  0  0
   22.7612   14.2848   43.5729 O   0  0  0  0  0  0  0  0  0  0  0  0
   31.0855   11.1564   43.7246 O   0  0  0  0  0  0  0  0  0  0  0  0
   23.7499   13.3490   43.1194 C   0  0  0  0  0  0  0  0  0  0  0  0
   28.4298   12.0554   43.8507 C   0  0  0  0  0  0  0  0  0  0  0  0
   30.6424   10.2362   42.7375 C   0  0  0  0  0  0  0  0  0  0  0  0
   25.1593   13.9038   43.3870 C   0  0  0  0  0  0  0  0  0  0  0  0
   27.4870   13.2588   43.6044 C   0  0  0  0  0  0  0  0  0  0  0  0
   29.1655    9.9079   43.0199 C   0  0  0  0  0  0  0  0  0  0  0  0
  1 12  1  0  0  0  0
  1 11  1  0  0  0  0
  2 13  1  0  0  0  0
  2  9  1  0  0  0  0
  3  4  1  1  0  0  0
  3  5  2  0  0  0  0
  3  6  1  0  0  0  0
  6  8  1  0  0  0  0
  7 10  1  0  0  0  0
  8 11  1  0  0  0  0
  9 12  1  0  0  0  0
 10 13  1  0  0  0  0
M  CHG  1   4  -1
M  END
>  <CHROM.1>
170.33152031,-76.87078816,-159.84361731,75.42664096,159.10593819,-176.94191833
55.15919330,67.74260918,178.07978192,25.73759633,13.26718550,43.12539771
-0.42002508,-0.36090847,0.58310509

>  <Name>
ligand

>  <RI>
-1

>  <Rbt.Current_Directory>
/home/itssahil/PROJECTS/Mol_Feturizer/New_Systems/rnas/2NPY

>  <Rbt.Executable>
rbdock ($Id: //depot/dev/client3/rdock/2013.1/src/exe/rbdock.cxx#4 $)

>  <Rbt.Library>
libRbt.so (2013.1, Build901 2013/11/27)

>  <Rbt.Parameter_File>
/export/apps/rDock/src/rDock_2013.1_src/data/scripts/dock_solv.prm

>  <Rbt.Receptor>
prm/blind_docking_60.prm

>  <SCORE>
-12.181

>  <SCORE.INTER>
-2.15109

>  <SCORE.INTER.CONST>
1

>  <SCORE.INTER.POLAR>
0

>  <SCORE.INTER.ROT>
9

>  <SCORE.INTER.SOLV>
21.0585

>  <SCORE.INTER.VDW>
-18.0536

>  <SCORE.INTER.norm>
-0.165469

>  <SCORE.INTRA>
-10.0299

>  <SCORE.INTRA.DIHEDRAL>
-20.6803

>  <SCORE.INTRA.DIHEDRAL.0>
25.6828

>  <SCORE.INTRA.POLAR>
0

>  <SCORE.INTRA.POLAR.0>
0

>  <SCORE.INTRA.REPUL>
0

>  <SCORE.INTRA.REPUL.0>
0

>  <SCORE.INTRA.SOLV>
0.100714

>  <SCORE.INTRA.SOLV.lig_0>
-48.5059

>  <SCORE.INTRA.VDW>
0.259905

>  <SCORE.INTRA.VDW.0>
-0.363643

>  <SCORE.INTRA.norm>
-0.771531

>  <SCORE.RESTR>
0

>  <SCORE.RESTR.CAVITY>
0

>  <SCORE.RESTR.norm>
0

>  <SCORE.SYSTEM>
0

>  <SCORE.SYSTEM.CONST>
0

>  <SCORE.SYSTEM.DIHEDRAL>
0

>  <SCORE.SYSTEM.SOLV>
0

>  <SCORE.SYSTEM.norm>
0

>  <SCORE.heavy>
13

>  <SCORE.norm>
-0.936999

>  <RMSD>
23.044

$$$$
ligand
 OpenBabel11021811453D
libRbt.so/2013.1/901 2013/11/27
 13 12  0  0  0  0  0  0  0  0999 V2000
   26.1222   13.2234   43.8248 O   0  0  0  0  0  0  0  0  0  0  0  0
   29.6988   12.0555   43.8076 O   0  0  0  0  0  0  0  0  0  0  0  0
   21.5530   15.1782   42.8901 P   0  0  2  0  0  0  0  0  0  0  0  0
   21.9311   16.4822   43.5082 O   0  5  0  0  0  0  0  0  0  0  0  0
   20.6787   14.2428   43.6436 O   0  0  0  0  0  0  0  0  0  0  0  0
   22.8761   14.3883   42.5124 O   0  0  0  0  0  0  0  0  0  0  0  0
   31.3815   10.8980   41.8332 O   0  0  0  0  0  0  0  0  0  0  0  0
   23.8622   14.0789   43.5078 C   0  0  0  0  0  0  0  0  0  0  0  0
   28.4666   12.5981   44.3475 C   0  0  0  0  0  0  0  0  0  0  0  0
   30.9504   10.1374   42.9526 C   0  0  0  0  0  0  0  0  0  0  0  0
   25.0766   13.4013   42.8505 C   0  0  0  0  0  0  0  0  0  0  0  0
   27.3629   12.7080   43.2669 C   0  0  0  0  0  0  0  0  0  0  0  0
   29.5772   10.6743   43.3940 C   0  0  0  0  0  0  0  0  0  0  0  0
  1 12  1  0  0  0  0
  1 11  1  0  0  0  0
  2 13  1  0  0  0  0
  2  9  1  0  0  0  0
  3  4  1  1  0  0  0
  3  5  2  0  0  0  0
  3  6  1  0  0  0  0
  6  8  1  0  0  0  0
  7 10  1  0  0  0  0
  8 11  1  0  0  0  0
  9 12  1  0  0  0  0
 10 13  1  0  0  0  0
M  CHG  1   4  -1
M  END
>  <CHROM.1>
177.45058677,-174.98521785,57.21415621,-176.04575567,173.81989705,-66.71153737
178.65613857,-62.20998182,-174.31105996,25.71425261,13.27642316,43.22358820
-0.31172710,-0.30879647,0.78384616

>  <Name>
ligand

>  <RI>
-1

>  <Rbt.Current_Directory>
/home/itssahil/PROJECTS/Mol_Feturizer/New_Systems/rnas/2NPY

>  <Rbt.Executable>
rbdock ($Id: //depot/dev/client3/rdock/2013.1/src/exe/rbdock.cxx#4 $)

>  <Rbt.Library>
libRbt.so (2013.1, Build901 2013/11/27)

>  <Rbt.Parameter_File>
/export/apps/rDock/src/rDock_2013.1_src/data/scripts/dock_solv.prm

>  <Rbt.Receptor>
prm/blind_docking_60.prm

>  <SCORE>
-15.2923

>  <SCORE.INTER>
-2.51424

>  <SCORE.INTER.CONST>
1

>  <SCORE.INTER.POLAR>
0

>  <SCORE.INTER.ROT>
9

>  <SCORE.INTER.SOLV>
15.5167

>  <SCORE.INTER.VDW>
-16.4484

>  <SCORE.INTER.norm>
-0.193403

>  <SCORE.INTRA>
-12.778

>  <SCORE.INTRA.DIHEDRAL>
-24.8078

>  <SCORE.INTRA.DIHEDRAL.0>
25.6828

>  <SCORE.INTRA.POLAR>
0

>  <SCORE.INTRA.POLAR.0>
0

>  <SCORE.INTRA.REPUL>
0

>  <SCORE.INTRA.REPUL.0>
0

>  <SCORE.INTRA.SOLV>
-0.861107

>  <SCORE.INTRA.SOLV.lig_0>
-48.5059

>  <SCORE.INTRA.VDW>
0.0564148

>  <SCORE.INTRA.VDW.0>
-0.363643

>  <SCORE.INTRA.norm>
-0.982924

>  <SCORE.RESTR>
0

>  <SCORE.RESTR.CAVITY>
0

>  <SCORE.RESTR.norm>
0

>  <SCORE.SYSTEM>
0

>  <SCORE.SYSTEM.CONST>
0

>  <SCORE.SYSTEM.DIHEDRAL>
0

>  <SCORE.SYSTEM.SOLV>
0

>  <SCORE.SYSTEM.norm>
0

>  <SCORE.heavy>
13

>  <SCORE.norm>
-1.17633

>  <RMSD>
23.045

$$$$
ligand
 OpenBabel11021811453D
libRbt.so/2013.1/901 2013/11/27
 13 12  0  0  0  0  0  0  0  0999 V2000
   26.9785   13.3710   42.2786 O   0  0  0  0  0  0  0  0  0  0  0  0
   29.6111   12.2035   43.0045 O   0  0  0  0  0  0  0  0  0  0  0  0
   22.8989   14.4412   43.1088 P   0  0  2  0  0  0  0  0  0  0  0  0
   21.7078   13.7682   42.5140 O   0  5  0  0  0  0  0  0  0  0  0  0
   22.9747   15.9248   43.1016 O   0  0  0  0  0  0  0  0  0  0  0  0
   24.2052   13.8974   42.3912 O   0  0  0  0  0  0  0  0  0  0  0  0
   29.0218    9.3511   43.2702 O   0  0  0  0  0  0  0  0  0  0  0  0
   24.7056   12.5808   42.6653 C   0  0  0  0  0  0  0  0  0  0  0  0
   28.4180   12.0583   43.8166 C   0  0  0  0  0  0  0  0  0  0  0  0
   30.1415    9.8589   42.5591 C   0  0  0  0  0  0  0  0  0  0  0  0
   26.0270   12.3542   41.9111 C   0  0  0  0  0  0  0  0  0  0  0  0
   27.4563   13.2603   43.6483 C   0  0  0  0  0  0  0  0  0  0  0  0
   30.5888   11.1637   43.2420 C   0  0  0  0  0  0  0  0  0  0  0  0
  1 12  1  0  0  0  0
  1 11  1  0  0  0  0
  2 13  1  0  0  0  0
  2  9  1  0  0  0  0
  3  4  1  6  0  0  0
  3  5  2  0  0  0  0
  3  6  1  0  0  0  0
  6  8  1  0  0  0  0
  7 10  1  0  0  0  0
  8 11  1  0  0  0  0
  9 12  1  0  0  0  0
 10 13  1  0  0  0  0
M  CHG  1   4  -1
M  END
>  <CHROM.1>
72.41341707,76.03711541,-73.86054366,-176.11764798,56.82145625,174.14185662
62.37623990,-70.46128096,69.26475944,26.18452392,12.80384146,42.89639590
-0.47880634,-0.12379196,0.16315284

>  <Name>
ligand

>  <RI>
-1

>  <Rbt.Current_Directory>
/home/itssahil/PROJECTS/Mol_Feturizer/New_Systems/rnas/2NPY

>  <Rbt.Executable>
rbdock ($Id: //depot/dev/client3/rdock/2013.1/src/exe/rbdock.cxx#4 $)

>  <Rbt.Library>
libRbt.so (2013.1, Build901 2013/11/27)

>  <Rbt.Parameter_File>
/export/apps/rDock/src/rDock_2013.1_src/data/scripts/dock_solv.prm

>  <Rbt.Receptor>
prm/blind_docking_60.prm

>  <SCORE>
-10.5869

>  <SCORE.INTER>
-0.472092

>  <SCORE.INTER.CONST>
1

>  <SCORE.INTER.POLAR>
0

>  <SCORE.INTER.ROT>
9

>  <SCORE.INTER.SOLV>
11.9288

>  <SCORE.INTER.VDW>
-13.891

>  <SCORE.INTER.norm>
-0.0363147

>  <SCORE.INTRA>
-10.1148

>  <SCORE.INTRA.DIHEDRAL>
-22.2495

>  <SCORE.INTRA.DIHEDRAL.0>
25.6828

>  <SCORE.INTRA.POLAR>
0

>  <SCORE.INTRA.POLAR.0>
0

>  <SCORE.INTRA.REPUL>
0

>  <SCORE.INTRA.REPUL.0>
0

>  <SCORE.INTRA.SOLV>
-0.613464

>  <SCORE.INTRA.SOLV.lig_0>
-48.5059

>  <SCORE.INTRA.VDW>
1.31673

>  <SCORE.INTRA.VDW.0>
-0.363643

>  <SCORE.INTRA.norm>
-0.77806

>  <SCORE.RESTR>
0

>  <SCORE.RESTR.CAVITY>
0

>  <SCORE.RESTR.norm>
0

>  <SCORE.SYSTEM>
0

>  <SCORE.SYSTEM.CONST>
0

>  <SCORE.SYSTEM.DIHEDRAL>
0

>  <SCORE.SYSTEM.SOLV>
0

>  <SCORE.SYSTEM.norm>
0

>  <SCORE.heavy>
13

>  <SCORE.norm>
-0.814374

>  <RMSD>
23.221

$$$$
ligand
 OpenBabel11021811453D
libRbt.so/2013.1/901 2013/11/27
 13 12  0  0  0  0  0  0  0  0999 V2000
   26.2867   12.9907   42.8482 O   0  0  0  0  0  0  0  0  0  0  0  0
   29.6710   11.5901   43.7073 O   0  0  0  0  0  0  0  0  0  0  0  0
   21.3759   14.2077   42.8033 P   0  0  2  0  0  0  0  0  0  0  0  0
   20.4785   14.9285   43.7522 O   0  5  0  0  0  0  0  0  0  0  0  0
   20.9849   12.8607   42.3137 O   0  0  0  0  0  0  0  0  0  0  0  0
   22.8135   14.0729   43.4610 O   0  0  0  0  0  0  0  0  0  0  0  0
   32.4862   11.8923   43.7261 O   0  0  0  0  0  0  0  0  0  0  0  0
   23.9410   13.6330   42.6901 C   0  0  0  0  0  0  0  0  0  0  0  0
   28.4621   11.7986   42.9332 C   0  0  0  0  0  0  0  0  0  0  0  0
   31.9027   10.6052   43.8685 C   0  0  0  0  0  0  0  0  0  0  0  0
   25.1972   13.5880   43.5766 C   0  0  0  0  0  0  0  0  0  0  0  0
   27.4653   12.7336   43.6613 C   0  0  0  0  0  0  0  0  0  0  0  0
   30.5564   10.6064   43.1226 C   0  0  0  0  0  0  0  0  0  0  0  0
  1 12  1  0  0  0  0
  1 11  1  0  0  0  0
  2 13  1  0  0  0  0
  2  9  1  0  0  0  0
  3  4  1  1  0  0  0
  3  5  2  0  0  0  0
  3  6  1  0  0  0  0
  6  8  1  0  0  0  0
  7 10  1  0  0  0  0
  8 11  1  0  0  0  0
  9 12  1  0  0  0  0
 10 13  1  0  0  0  0
M  CHG  1   4  -1
M  END
>  <CHROM.1>
166.36467887,170.97401762,-169.02918253,-179.69213334,172.90883402,173.57976190
177.10227647,-61.28197273,-171.89409860,25.83878711,12.86805778,43.23124270
-0.21676365,-0.18939385,0.51125310

>  <Name>
ligand

>  <RI>
-1

>  <Rbt.Current_Directory>
/home/itssahil/PROJECTS/Mol_Feturizer/New_Systems/rnas/2NPY

>  <Rbt.Executable>
rbdock ($Id: //depot/dev/client3/rdock/2013.1/src/exe/rbdock.cxx#4 $)

>  <Rbt.Library>
libRbt.so (2013.1, Build901 2013/11/27)

>  <Rbt.Parameter_File>
/export/apps/rDock/src/rDock_2013.1_src/data/scripts/dock_solv.prm

>  <Rbt.Receptor>
prm/blind_docking_60.prm

>  <SCORE>
-14.7677

>  <SCORE.INTER>
-1.46246

>  <SCORE.INTER.CONST>
1

>  <SCORE.INTER.POLAR>
0

>  <SCORE.INTER.ROT>
9

>  <SCORE.INTER.SOLV>
9.43814

>  <SCORE.INTER.VDW>
-13.721

>  <SCORE.INTER.norm>
-0.112497

>  <SCORE.INTRA>
-13.3052

>  <SCORE.INTRA.DIHEDRAL>
-23.5973

>  <SCORE.INTRA.DIHEDRAL.0>
25.6828

>  <SCORE.INTRA.POLAR>
0

>  <SCORE.INTRA.POLAR.0>
0

>  <SCORE.INTRA.REPUL>
0

>  <SCORE.INTRA.REPUL.0>
0

>  <SCORE.INTRA.SOLV>
-1.33454

>  <SCORE.INTRA.SOLV.lig_0>
-48.5059

>  <SCORE.INTRA.VDW>
-0.83926

>  <SCORE.INTRA.VDW.0>
-0.363643

>  <SCORE.INTRA.norm>
-1.02348

>  <SCORE.RESTR>
0

>  <SCORE.RESTR.CAVITY>
0

>  <SCORE.RESTR.norm>
0

>  <SCORE.SYSTEM>
0

>  <SCORE.SYSTEM.CONST>
0

>  <SCORE.SYSTEM.DIHEDRAL>
0

>  <SCORE.SYSTEM.SOLV>
0

>  <SCORE.SYSTEM.norm>
0

>  <SCORE.heavy>
13

>  <SCORE.norm>
-1.13597

>  <RMSD>
23.338

$$$$
ligand
 OpenBabel11021811453D
libRbt.so/2013.1/901 2013/11/27
 13 12  0  0  0  0  0  0  0  0999 V2000
   26.2797   12.8600   43.1264 O   0  0  0  0  0  0  0  0  0  0  0  0
   29.8628   12.3008   44.1291 O   0  0  0  0  0  0  0  0  0  0  0  0
   21.3932   14.0596   42.5718 P   0  0  2  0  0  0  0  0  0  0  0  0
   20.7122   12.8941   43.2069 O   0  5  0  0  0  0  0  0  0  0  0  0
   21.5438   14.0970   41.0943 O   0  0  0  0  0  0  0  0  0  0  0  0
   22.8429   14.2091   43.1989 O   0  0  0  0  0  0  0  0  0  0  0  0
   32.1142    9.8176   42.6384 O   0  0  0  0  0  0  0  0  0  0  0  0
   23.9335   13.3963   42.7422 C   0  0  0  0  0  0  0  0  0  0  0  0
   28.6662   12.2043   43.3149 C   0  0  0  0  0  0  0  0  0  0  0  0
   30.9416   10.2696   43.3001 C   0  0  0  0  0  0  0  0  0  0  0  0
   25.1840   13.6685   43.5954 C   0  0  0  0  0  0  0  0  0  0  0  0
   27.4658   12.9351   43.9654 C   0  0  0  0  0  0  0  0  0  0  0  0
   31.0442   11.7966   43.4631 C   0  0  0  0  0  0  0  0  0  0  0  0
  1 12  1  0  0  0  0
  1 11  1  0  0  0  0
  2 13  1  0  0  0  0
  2  9  1  0  0  0  0
  3  4  1  6  0  0  0
  3  5  2  0  0  0  0
  3  6  1  0  0  0  0
  6  8  1  0  0  0  0
  7 10  1  0  0  0  0
  8 11  1  0  0  0  0
  9 12  1  0  0  0  0
 10 13  1  0  0  0  0
M  CHG  1   4  -1
M  END
>  <CHROM.1>
-172.28746298,-68.73833811,81.04822660,-175.40426512,-179.47781663,-171.64687488
178.62771806,179.71852922,-173.42994624,25.87020452,12.76963629,43.04945011
-0.15494521,-0.26045144,0.74062579

>  <Name>
ligand

>  <RI>
-1

>  <Rbt.Current_Directory>
/home/itssahil/PROJECTS/Mol_Feturizer/New_Systems/rnas/2NPY

>  <Rbt.Executable>
rbdock ($Id: //depot/dev/client3/rdock/2013.1/src/exe/rbdock.cxx#4 $)

>  <Rbt.Library>
libRbt.so (2013.1, Build901 2013/11/27)

>  <Rbt.Parameter_File>
/export/apps/rDock/src/rDock_2013.1_src/data/scripts/dock_solv.prm

>  <Rbt.Receptor>
prm/blind_docking_60.prm

>  <SCORE>
-13.6339

>  <SCORE.INTER>
-1.41875

>  <SCORE.INTER.CONST>
1

>  <SCORE.INTER.POLAR>
0

>  <SCORE.INTER.ROT>
9

>  <SCORE.INTER.SOLV>
10.5781

>  <SCORE.INTER.VDW>
-14.0719

>  <SCORE.INTER.norm>
-0.109134

>  <SCORE.INTRA>
-12.2151

>  <SCORE.INTRA.DIHEDRAL>
-24.081

>  <SCORE.INTRA.DIHEDRAL.0>
25.6828

>  <SCORE.INTRA.POLAR>
0

>  <SCORE.INTRA.POLAR.0>
0

>  <SCORE.INTRA.REPUL>
0

>  <SCORE.INTRA.REPUL.0>
0

>  <SCORE.INTRA.SOLV>
-1.07476

>  <SCORE.INTRA.SOLV.lig_0>
-48.5059

>  <SCORE.INTRA.VDW>
0.362748

>  <SCORE.INTRA.VDW.0>
-0.363643

>  <SCORE.INTRA.norm>
-0.939627

>  <SCORE.RESTR>
0

>  <SCORE.RESTR.CAVITY>
0

>  <SCORE.RESTR.norm>
0

>  <SCORE.SYSTEM>
0

>  <SCORE.SYSTEM.CONST>
0

>  <SCORE.SYSTEM.DIHEDRAL>
0

>  <SCORE.SYSTEM.SOLV>
0

>  <SCORE.SYSTEM.norm>
0

>  <SCORE.heavy>
13

>  <SCORE.norm>
-1.04876

>  <RMSD>
23.380

$$$$
ligand
 OpenBabel11021811453D
libRbt.so/2013.1/901 2013/11/27
 13 12  0  0  0  0  0  0  0  0999 V2000
   24.4365   13.3748   43.1293 O   0  0  0  0  0  0  0  0  0  0  0  0
   28.1004   12.5292   43.0587 O   0  0  0  0  0  0  0  0  0  0  0  0
   20.0617   13.2315   44.1331 P   0  0  2  0  0  0  0  0  0  0  0  0
   19.5325   11.8738   44.4521 O   0  5  0  0  0  0  0  0  0  0  0  0
   19.2539   14.1461   43.2857 O   0  0  0  0  0  0  0  0  0  0  0  0
   21.4818   13.0778   43.4426 O   0  0  0  0  0  0  0  0  0  0  0  0
   31.4542   11.8535   44.3810 O   0  0  0  0  0  0  0  0  0  0  0  0
   22.1610   14.2134   42.8875 C   0  0  0  0  0  0  0  0  0  0  0  0
   26.7869   12.7552   43.6313 C   0  0  0  0  0  0  0  0  0  0  0  0
   30.4901   12.1196   43.3725 C   0  0  0  0  0  0  0  0  0  0  0  0
   23.4393   13.7580   42.1634 C   0  0  0  0  0  0  0  0  0  0  0  0
   25.7234   13.0361   42.5414 C   0  0  0  0  0  0  0  0  0  0  0  0
   29.1268   12.3230   44.0574 C   0  0  0  0  0  0  0  0  0  0  0  0
  1 12  1  0  0  0  0
  1 11  1  0  0  0  0
  2 13  1  0  0  0  0
  2  9  1  0  0  0  0
  3  4  1  6  0  0  0
  3  5  2  0  0  0  0
  3  6  1  0  0  0  0
  6  8  1  0  0  0  0
  7 10  1  0  0  0  0
  8 11  1  0  0  0  0
  9 12  1  0  0  0  0
 10 13  1  0  0  0  0
M  CHG  1   4  -1
M  END
>  <CHROM.1>
174.95911949,-178.85674873,172.78826318,-174.35681724,-73.06169469,177.40300623
-175.06944136,-177.07247159,-175.04796525,24.35389885,12.96084536,43.49378475
-0.06853113,0.08250785,-0.85148150

>  <Name>
ligand

>  <RI>
0

>  <Rbt.Current_Directory>
/home/itssahil/PROJECTS/Mol_Feturizer/New_Systems/rnas/2NPY

>  <Rbt.Executable>
rbdock ($Id: //depot/dev/client3/rdock/2013.1/src/exe/rbdock.cxx#4 $)

>  <Rbt.Library>
libRbt.so (2013.1, Build901 2013/11/27)

>  <Rbt.Parameter_File>
/export/apps/rDock/src/rDock_2013.1_src/data/scripts/dock_solv.prm

>  <Rbt.Receptor>
prm/blind_docking_100.prm

>  <SCORE>
-14.3242

>  <SCORE.INTER>
-0.709701

>  <SCORE.INTER.CONST>
1

>  <SCORE.INTER.POLAR>
0

>  <SCORE.INTER.ROT>
9

>  <SCORE.INTER.SOLV>
9.33461

>  <SCORE.INTER.VDW>
-13.1847

>  <SCORE.INTER.norm>
-0.0545923

>  <SCORE.INTRA>
-13.6212

>  <SCORE.INTRA.DIHEDRAL>
-24.3113

>  <SCORE.INTRA.DIHEDRAL.0>
25.6828

>  <SCORE.INTRA.POLAR>
0

>  <SCORE.INTRA.POLAR.0>
0

>  <SCORE.INTRA.REPUL>
0

>  <SCORE.INTRA.REPUL.0>
0

>  <SCORE.INTRA.SOLV>
-1.46023

>  <SCORE.INTRA.SOLV.lig_0>
-48.5059

>  <SCORE.INTRA.VDW>
-0.735479

>  <SCORE.INTRA.VDW.0>
-0.363643

>  <SCORE.INTRA.norm>
-1.04779

>  <SCORE.RESTR>
0.00672702

>  <SCORE.RESTR.CAVITY>
0.00672702

>  <SCORE.RESTR.norm>
0.000517463

>  <SCORE.SYSTEM>
0

>  <SCORE.SYSTEM.CONST>
0

>  <SCORE.SYSTEM.DIHEDRAL>
0

>  <SCORE.SYSTEM.SOLV>
0

>  <SCORE.SYSTEM.norm>
0

>  <SCORE.heavy>
13

>  <SCORE.norm>
-1.10186

>  <RMSD>
23.433

$$$$
ligand
 OpenBabel11021811453D
libRbt.so/2013.1/901 2013/11/27
 13 12  0  0  0  0  0  0  0  0999 V2000
   24.5191   13.0877   42.9392 O   0  0  0  0  0  0  0  0  0  0  0  0
   28.2471   13.5530   43.1371 O   0  0  0  0  0  0  0  0  0  0  0  0
   19.4680   13.1298   43.2807 P   0  0  2  0  0  0  0  0  0  0  0  0
   18.4570   14.2116   43.4618 O   0  5  0  0  0  0  0  0  0  0  0  0
   19.4194   11.9345   44.1615 O   0  0  0  0  0  0  0  0  0  0  0  0
   20.9188   13.7578   43.4154 O   0  0  0  0  0  0  0  0  0  0  0  0
   28.6476   10.6342   43.3300 O   0  0  0  0  0  0  0  0  0  0  0  0
   22.0847   13.0148   43.0311 C   0  0  0  0  0  0  0  0  0  0  0  0
   26.9906   12.9182   42.7869 C   0  0  0  0  0  0  0  0  0  0  0  0
   29.6490   11.6045   43.6003 C   0  0  0  0  0  0  0  0  0  0  0  0
   23.3503   13.8431   43.3104 C   0  0  0  0  0  0  0  0  0  0  0  0
   25.7731   13.7627   43.2366 C   0  0  0  0  0  0  0  0  0  0  0  0
   29.4033   12.8131   42.6796 C   0  0  0  0  0  0  0  0  0  0  0  0
  1 12  1  0  0  0  0
  1 11  1  0  0  0  0
  2 13  1  0  0  0  0
  2  9  1  0  0  0  0
  3  4  1  1  0  0  0
  3  5  2  0  0  0  0
  3  6  1  0  0  0  0
  6  8  1  0  0  0  0
  7 10  1  0  0  0  0
  8 11  1  0  0  0  0
  9 12  1  0  0  0  0
 10 13  1  0  0  0  0
M  CHG  1   4  -1
M  END
>  <CHROM.1>
-178.70192564,-77.02649806,-167.67739107,-178.12027415,179.27984891,-177.57547129
-177.22760772,73.14534250,-176.78207048,23.92821142,12.95391742,43.26930360
-0.09532662,0.06076838,-0.21694884

>  <Name>
ligand

>  <RI>
0

>  <Rbt.Current_Directory>
/home/itssahil/PROJECTS/Mol_Feturizer/New_Systems/rnas/2NPY

>  <Rbt.Executable>
rbdock ($Id: //depot/dev/client3/rdock/2013.1/src/exe/rbdock.cxx#4 $)

>  <Rbt.Library>
libRbt.so (2013.1, Build901 2013/11/27)

>  <Rbt.Parameter_File>
/export/apps/rDock/src/rDock_2013.1_src/data/scripts/dock_solv.prm

>  <Rbt.Receptor>
prm/blind_docking_100.prm

>  <SCORE>
-11.2033

>  <SCORE.INTER>
0.986569

>  <SCORE.INTER.CONST>
1

>  <SCORE.INTER.POLAR>
0

>  <SCORE.INTER.ROT>
9

>  <SCORE.INTER.SOLV>
5.50273

>  <SCORE.INTER.VDW>
-10.7765

>  <SCORE.INTER.norm>
0.0758899

>  <SCORE.INTRA>
-12.1899

>  <SCORE.INTRA.DIHEDRAL>
-23.497

>  <SCORE.INTRA.DIHEDRAL.0>
25.6828

>  <SCORE.INTRA.POLAR>
0

>  <SCORE.INTRA.POLAR.0>
0

>  <SCORE.INTRA.REPUL>
0

>  <SCORE.INTRA.REPUL.0>
0

>  <SCORE.INTRA.SOLV>
-1.07789

>  <SCORE.INTRA.SOLV.lig_0>
-48.5059

>  <SCORE.INTRA.VDW>
0.0975699

>  <SCORE.INTRA.VDW.0>
-0.363643

>  <SCORE.INTRA.norm>
-0.937684

>  <SCORE.RESTR>
0

>  <SCORE.RESTR.CAVITY>
0

>  <SCORE.RESTR.norm>
0

>  <SCORE.SYSTEM>
0

>  <SCORE.SYSTEM.CONST>
0

>  <SCORE.SYSTEM.DIHEDRAL>
0

>  <SCORE.SYSTEM.SOLV>
0

>  <SCORE.SYSTEM.norm>
0

>  <SCORE.heavy>
13

>  <SCORE.norm>
-0.861794

>  <RMSD>
23.542

$$$$
ligand
 OpenBabel11021811453D
libRbt.so/2013.1/901 2013/11/27
 13 12  0  0  0  0  0  0  0  0999 V2000
   25.4508   13.2230   43.1139 O   0  0  0  0  0  0  0  0  0  0  0  0
   28.8228   11.5908   43.4621 O   0  0  0  0  0  0  0  0  0  0  0  0
   21.0392   13.2982   42.6007 P   0  0  2  0  0  0  0  0  0  0  0  0
   20.1771   14.1241   43.4952 O   0  5  0  0  0  0  0  0  0  0  0  0
   20.6579   11.8898   42.3212 O   0  0  0  0  0  0  0  0  0  0  0  0
   22.5144   13.2818   43.1844 O   0  0  0  0  0  0  0  0  0  0  0  0
   31.6380   11.6559   43.6053 O   0  0  0  0  0  0  0  0  0  0  0  0
   23.3452   14.4503   43.1272 C   0  0  0  0  0  0  0  0  0  0  0  0
   27.5688   11.9597   42.8331 C   0  0  0  0  0  0  0  0  0  0  0  0
   30.9706   10.4284   43.3497 C   0  0  0  0  0  0  0  0  0  0  0  0
   24.6748   14.1848   43.8536 C   0  0  0  0  0  0  0  0  0  0  0  0
   26.7268   12.8978   43.7324 C   0  0  0  0  0  0  0  0  0  0  0  0
   29.6488   10.7453   42.6276 C   0  0  0  0  0  0  0  0  0  0  0  0
  1 12  1  0  0  0  0
  1 11  1  0  0  0  0
  2 13  1  0  0  0  0
  2  9  1  0  0  0  0
  3  4  1  1  0  0  0
  3  5  2  0  0  0  0
  3  6  1  0  0  0  0
  6  8  1  0  0  0  0
  7 10  1  0  0  0  0
  8 11  1  0  0  0  0
  9 12  1  0  0  0  0
 10 13  1  0  0  0  0
M  CHG  1   4  -1
M  END
>  <CHROM.1>
-174.92833159,178.60638266,-71.41833445,175.82892298,68.31934229,-178.29149219
-177.93371145,-60.08043954,-179.49302937,25.22229161,12.65292226,43.13222083
-0.19545034,-0.12854235,0.39177872

>  <Name>
ligand

>  <RI>
0

>  <Rbt.Current_Directory>
/home/itssahil/PROJECTS/Mol_Feturizer/New_Systems/rnas/2NPY

>  <Rbt.Executable>
rbdock ($Id: //depot/dev/client3/rdock/2013.1/src/exe/rbdock.cxx#4 $)

>  <Rbt.Library>
libRbt.so (2013.1, Build901 2013/11/27)

>  <Rbt.Parameter_File>
/export/apps/rDock/src/rDock_2013.1_src/data/scripts/dock_solv.prm

>  <Rbt.Receptor>
prm/blind_docking_100.prm

>  <SCORE>
-14.2114

>  <SCORE.INTER>
-0.0762099

>  <SCORE.INTER.CONST>
1

>  <SCORE.INTER.POLAR>
0

>  <SCORE.INTER.ROT>
9

>  <SCORE.INTER.SOLV>
6.06661

>  <SCORE.INTER.VDW>
-11.673

>  <SCORE.INTER.norm>
-0.0058623

>  <SCORE.INTRA>
-14.1352

>  <SCORE.INTRA.DIHEDRAL>
-24.869

>  <SCORE.INTRA.DIHEDRAL.0>
25.6828

>  <SCORE.INTRA.POLAR>
0

>  <SCORE.INTRA.POLAR.0>
0

>  <SCORE.INTRA.REPUL>
0

>  <SCORE.INTRA.REPUL.0>
0

>  <SCORE.INTRA.SOLV>
-1.34286

>  <SCORE.INTRA.SOLV.lig_0>
-48.5059

>  <SCORE.INTRA.VDW>
-1.02924

>  <SCORE.INTRA.VDW.0>
-0.363643

>  <SCORE.INTRA.norm>
-1.08732

>  <SCORE.RESTR>
0

>  <SCORE.RESTR.CAVITY>
0

>  <SCORE.RESTR.norm>
0

>  <SCORE.SYSTEM>
0

>  <SCORE.SYSTEM.CONST>
0

>  <SCORE.SYSTEM.DIHEDRAL>
0

>  <SCORE.SYSTEM.SOLV>
0

>  <SCORE.SYSTEM.norm>
0

>  <SCORE.heavy>
13

>  <SCORE.norm>
-1.09318

>  <RMSD>
23.550

$$$$
ligand
 OpenBabel11021811453D
libRbt.so/2013.1/901 2013/11/27
 13 12  0  0  0  0  0  0  0  0999 V2000
   28.9710   12.3365   43.2347 O   0  0  0  0  0  0  0  0  0  0  0  0
   31.1130   10.3683   42.7845 O   0  0  0  0  0  0  0  0  0  0  0  0
   24.1045   13.7038   43.0019 P   0  0  2  0  0  0  0  0  0  0  0  0
   23.2788   14.6467   43.8110 O   0  5  0  0  0  0  0  0  0  0  0  0
   23.5664   12.3565   42.6823 O   0  0  0  0  0  0  0  0  0  0  0  0
   25.5009   13.4959   43.7259 O   0  0  0  0  0  0  0  0  0  0  0  0
   33.2038    9.8235   39.8200 O   0  0  0  0  0  0  0  0  0  0  0  0
   26.6026   12.8790   43.0443 C   0  0  0  0  0  0  0  0  0  0  0  0
   31.3791   11.7375   43.1829 C   0  0  0  0  0  0  0  0  0  0  0  0
   32.1746   10.4363   40.5834 C   0  0  0  0  0  0  0  0  0  0  0  0
   27.8414   12.8638   43.9560 C   0  0  0  0  0  0  0  0  0  0  0  0
   30.2085   12.3382   43.9995 C   0  0  0  0  0  0  0  0  0  0  0  0
   32.1720    9.7949   41.9825 C   0  0  0  0  0  0  0  0  0  0  0  0
  1 12  1  0  0  0  0
  1 11  1  0  0  0  0
  2 13  1  0  0  0  0
  2  9  1  0  0  0  0
  3  4  1  1  0  0  0
  3  5  2  0  0  0  0
  3  6  1  0  0  0  0
  6  8  1  0  0  0  0
  7 10  1  0  0  0  0
  8 11  1  0  0  0  0
  9 12  1  0  0  0  0
 10 13  1  0  0  0  0
M  CHG  1   4  -1
M  END
>  <CHROM.1>
178.96217363,-71.30783548,-166.31126887,177.44468615,-175.69036457,178.11882129
-59.57186179,-178.55870034,177.41301080,28.07158750,12.19822250,42.76999337
-0.35664502,-0.24436300,1.07401929

>  <Name>
ligand

>  <RI>
-1

>  <Rbt.Current_Directory>
/home/itssahil/PROJECTS/Mol_Feturizer/New_Systems/rnas/2NPY

>  <Rbt.Executable>
rbdock ($Id: //depot/dev/client3/rdock/2013.1/src/exe/rbdock.cxx#4 $)

>  <Rbt.Library>
libRbt.so (2013.1, Build901 2013/11/27)

>  <Rbt.Parameter_File>
/export/apps/rDock/src/rDock_2013.1_src/data/scripts/dock_solv.prm

>  <Rbt.Receptor>
prm/blind_docking_60.prm

>  <SCORE>
-12.7127

>  <SCORE.INTER>
0.393198

>  <SCORE.INTER.CONST>
1

>  <SCORE.INTER.POLAR>
0

>  <SCORE.INTER.ROT>
9

>  <SCORE.INTER.SOLV>
11.9251

>  <SCORE.INTER.VDW>
-13.3129

>  <SCORE.INTER.norm>
0.030246

>  <SCORE.INTRA>
-13.1059

>  <SCORE.INTRA.DIHEDRAL>
-24.7993

>  <SCORE.INTRA.DIHEDRAL.0>
25.6828

>  <SCORE.INTRA.POLAR>
0

>  <SCORE.INTRA.POLAR.0>
0

>  <SCORE.INTRA.REPUL>
0

>  <SCORE.INTRA.REPUL.0>
0

>  <SCORE.INTRA.SOLV>
-1.36979

>  <SCORE.INTRA.SOLV.lig_0>
-48.5059

>  <SCORE.INTRA.VDW>
-0.0213472

>  <SCORE.INTRA.VDW.0>
-0.363643

>  <SCORE.INTRA.norm>
-1.00814

>  <SCORE.RESTR>
0

>  <SCORE.RESTR.CAVITY>
0

>  <SCORE.RESTR.norm>
0

>  <SCORE.SYSTEM>
0

>  <SCORE.SYSTEM.CONST>
0

>  <SCORE.SYSTEM.DIHEDRAL>
0

>  <SCORE.SYSTEM.SOLV>
0

>  <SCORE.SYSTEM.norm>
0

>  <SCORE.heavy>
13

>  <SCORE.norm>
-0.977898

>  <RMSD>
23.590

$$$$
ligand
 OpenBabel11021811453D
libRbt.so/2013.1/901 2013/11/27
 13 12  0  0  0  0  0  0  0  0999 V2000
   31.5619   11.5953   44.3730 O   0  0  0  0  0  0  0  0  0  0  0  0
   28.1438   12.0371   42.8648 O   0  0  0  0  0  0  0  0  0  0  0  0
   32.6592    8.7137   40.3582 P   0  0  2  0  0  0  0  0  0  0  0  0
   31.5447    9.2396   39.5176 O   0  5  0  0  0  0  0  0  0  0  0  0
   32.5129    7.3883   41.0131 O   0  0  0  0  0  0  0  0  0  0  0  0
   32.9841    9.7703   41.4963 O   0  0  0  0  0  0  0  0  0  0  0  0
   25.3443   12.4749   42.5974 O   0  0  0  0  0  0  0  0  0  0  0  0
   31.9957   10.1350   42.4706 C   0  0  0  0  0  0  0  0  0  0  0  0
   29.2933   11.3331   43.4008 C   0  0  0  0  0  0  0  0  0  0  0  0
   26.1734   13.4361   43.2348 C   0  0  0  0  0  0  0  0  0  0  0  0
   32.5155   11.2954   43.3361 C   0  0  0  0  0  0  0  0  0  0  0  0
   30.3861   12.3098   43.9004 C   0  0  0  0  0  0  0  0  0  0  0  0
   27.3537   12.6922   43.8847 C   0  0  0  0  0  0  0  0  0  0  0  0
  1 12  1  0  0  0  0
  1 11  1  0  0  0  0
  2 13  1  0  0  0  0
  2  9  1  0  0  0  0
  3  4  1  1  0  0  0
  3  5  2  0  0  0  0
  3  6  1  0  0  0  0
  6  8  1  0  0  0  0
  7 10  1  0  0  0  0
  8 11  1  0  0  0  0
  9 12  1  0  0  0  0
 10 13  1  0  0  0  0
M  CHG  1   4  -1
M  END
>  <CHROM.1>
87.05486581,178.91436475,61.45058840,-172.93653098,-175.91311938,-71.31811148
-177.09355225,62.75731326,-75.06479366,30.39698259,10.74535211,42.29529503
-2.51235814,0.27139131,-2.21910546

>  <Name>
ligand

>  <RI>
-1

>  <Rbt.Current_Directory>
/home/itssahil/PROJECTS/Mol_Feturizer/New_Systems/rnas/2NPY

>  <Rbt.Executable>
rbdock ($Id: //depot/dev/client3/rdock/2013.1/src/exe/rbdock.cxx#4 $)

>  <Rbt.Library>
libRbt.so (2013.1, Build901 2013/11/27)

>  <Rbt.Parameter_File>
/export/apps/rDock/src/rDock_2013.1_src/data/scripts/dock_solv.prm

>  <Rbt.Receptor>
prm/blind_docking_60.prm

>  <SCORE>
-8.96969

>  <SCORE.INTER>
0.469344

>  <SCORE.INTER.CONST>
1

>  <SCORE.INTER.POLAR>
0

>  <SCORE.INTER.ROT>
9

>  <SCORE.INTER.SOLV>
14.1933

>  <SCORE.INTER.VDW>
-14.0182

>  <SCORE.INTER.norm>
0.0361034

>  <SCORE.INTRA>
-9.43903

>  <SCORE.INTRA.DIHEDRAL>
-20.5419

>  <SCORE.INTRA.DIHEDRAL.0>
25.6828

>  <SCORE.INTRA.POLAR>
0

>  <SCORE.INTRA.POLAR.0>
0

>  <SCORE.INTRA.REPUL>
0

>  <SCORE.INTRA.REPUL.0>
0

>  <SCORE.INTRA.SOLV>
-0.790714

>  <SCORE.INTRA.SOLV.lig_0>
-48.5059

>  <SCORE.INTRA.VDW>
1.22727

>  <SCORE.INTRA.VDW.0>
-0.363643

>  <SCORE.INTRA.norm>
-0.726079

>  <SCORE.RESTR>
0

>  <SCORE.RESTR.CAVITY>
0

>  <SCORE.RESTR.norm>
0

>  <SCORE.SYSTEM>
0

>  <SCORE.SYSTEM.CONST>
0

>  <SCORE.SYSTEM.DIHEDRAL>
0

>  <SCORE.SYSTEM.SOLV>
0

>  <SCORE.SYSTEM.norm>
0

>  <SCORE.heavy>
13

>  <SCORE.norm>
-0.689976

>  <RMSD>
23.600

$$$$
ligand
 OpenBabel11021811453D
libRbt.so/2013.1/901 2013/11/27
 13 12  0  0  0  0  0  0  0  0999 V2000
   30.5856   11.5382   42.9087 O   0  0  0  0  0  0  0  0  0  0  0  0
   28.5786   13.6373   42.5928 O   0  0  0  0  0  0  0  0  0  0  0  0
   31.5584    8.3145   40.2036 P   0  0  2  0  0  0  0  0  0  0  0  0
   30.4522    7.3140   40.1737 O   0  5  0  0  0  0  0  0  0  0  0  0
   32.9657    7.8447   40.1293 O   0  0  0  0  0  0  0  0  0  0  0  0
   31.4208    9.1899   41.5196 O   0  0  0  0  0  0  0  0  0  0  0  0
   26.0903   12.1026   42.9779 O   0  0  0  0  0  0  0  0  0  0  0  0
   32.3364   10.2599   41.7949 C   0  0  0  0  0  0  0  0  0  0  0  0
   28.6920   12.8629   43.8142 C   0  0  0  0  0  0  0  0  0  0  0  0
   26.3496   12.9457   41.8647 C   0  0  0  0  0  0  0  0  0  0  0  0
   31.9105   10.9986   43.0751 C   0  0  0  0  0  0  0  0  0  0  0  0
   30.1332   12.3412   44.0343 C   0  0  0  0  0  0  0  0  0  0  0  0
   27.2341   14.1105   42.3440 C   0  0  0  0  0  0  0  0  0  0  0  0
  1 12  1  0  0  0  0
  1 11  1  0  0  0  0
  2 13  1  0  0  0  0
  2  9  1  0  0  0  0
  3  4  1  1  0  0  0
  3  5  2  0  0  0  0
  3  6  1  0  0  0  0
  6  8  1  0  0  0  0
  7 10  1  0  0  0  0
  8 11  1  0  0  0  0
  9 12  1  0  0  0  0
 10 13  1  0  0  0  0
M  CHG  1   4  -1
M  END
>  <CHROM.1>
-178.54216234,-74.57246049,-178.41886470,175.92463255,-59.77927457,178.57303355
-57.16306558,72.78318254,-175.70086183,30.01351280,10.77413325,41.93513547
-2.27691614,0.24882492,-2.48828187

>  <Name>
ligand

>  <RI>
-1

>  <Rbt.Current_Directory>
/home/itssahil/PROJECTS/Mol_Feturizer/New_Systems/rnas/2NPY

>  <Rbt.Executable>
rbdock ($Id: //depot/dev/client3/rdock/2013.1/src/exe/rbdock.cxx#4 $)

>  <Rbt.Library>
libRbt.so (2013.1, Build901 2013/11/27)

>  <Rbt.Parameter_File>
/export/apps/rDock/src/rDock_2013.1_src/data/scripts/dock_solv.prm

>  <Rbt.Receptor>
prm/blind_docking_60.prm

>  <SCORE>
-10.5654

>  <SCORE.INTER>
1.65225

>  <SCORE.INTER.CONST>
1

>  <SCORE.INTER.POLAR>
0

>  <SCORE.INTER.ROT>
9

>  <SCORE.INTER.SOLV>
13.2831

>  <SCORE.INTER.VDW>
-12.9262

>  <SCORE.INTER.norm>
0.127096

>  <SCORE.INTRA>
-12.2176

>  <SCORE.INTRA.DIHEDRAL>
-23.8225

>  <SCORE.INTRA.DIHEDRAL.0>
25.6828

>  <SCORE.INTRA.POLAR>
0

>  <SCORE.INTRA.POLAR.0>
0

>  <SCORE.INTRA.REPUL>
0

>  <SCORE.INTRA.REPUL.0>
0

>  <SCORE.INTRA.SOLV>
-0.675883

>  <SCORE.INTRA.SOLV.lig_0>
-48.5059

>  <SCORE.INTRA.VDW>
0.0315967

>  <SCORE.INTRA.VDW.0>
-0.363643

>  <SCORE.INTRA.norm>
-0.939816

>  <SCORE.RESTR>
0

>  <SCORE.RESTR.CAVITY>
0

>  <SCORE.RESTR.norm>
0

>  <SCORE.SYSTEM>
0

>  <SCORE.SYSTEM.CONST>
0

>  <SCORE.SYSTEM.DIHEDRAL>
0

>  <SCORE.SYSTEM.SOLV>
0

>  <SCORE.SYSTEM.norm>
0

>  <SCORE.heavy>
13

>  <SCORE.norm>
-0.81272

>  <RMSD>
23.607

$$$$
ligand
 OpenBabel11021811453D
libRbt.so/2013.1/901 2013/11/27
 13 12  0  0  0  0  0  0  0  0999 V2000
   32.5364   10.2301   43.1478 O   0  0  0  0  0  0  0  0  0  0  0  0
   29.8920   12.7101   44.1539 O   0  0  0  0  0  0  0  0  0  0  0  0
   31.1625    7.5139   40.1457 P   0  0  2  0  0  0  0  0  0  0  0  0
   31.3358    6.1302   40.6756 O   0  5  0  0  0  0  0  0  0  0  0  0
   31.4366    7.7825   38.7105 O   0  0  0  0  0  0  0  0  0  0  0  0
   32.0680    8.5034   40.9933 O   0  0  0  0  0  0  0  0  0  0  0  0
   27.1375   12.5912   44.7114 O   0  0  0  0  0  0  0  0  0  0  0  0
   32.0037    9.9223   40.7896 C   0  0  0  0  0  0  0  0  0  0  0  0
   31.2075   12.2304   43.7750 C   0  0  0  0  0  0  0  0  0  0  0  0
   27.5872   13.2280   43.5242 C   0  0  0  0  0  0  0  0  0  0  0  0
   32.8970   10.6406   41.8152 C   0  0  0  0  0  0  0  0  0  0  0  0
   31.2246   10.6955   43.5706 C   0  0  0  0  0  0  0  0  0  0  0  0
   28.9109   12.5669   43.1001 C   0  0  0  0  0  0  0  0  0  0  0  0
  1 12  1  0  0  0  0
  1 11  1  0  0  0  0
  2 13  1  0  0  0  0
  2  9  1  0  0  0  0
  3  4  1  1  0  0  0
  3  5  2  0  0  0  0
  3  6  1  0  0  0  0
  6  8  1  0  0  0  0
  7 10  1  0  0  0  0
  8 11  1  0  0  0  0
  9 12  1  0  0  0  0
 10 13  1  0  0  0  0
M  CHG  1   4  -1
M  END
>  <CHROM.1>
-69.01455536,-174.14010179,-173.93065584,175.49149719,-54.19850561,-67.06950069
178.09408407,-59.40287882,-68.38837661,30.75895979,10.09651845,42.06162925
-1.15283181,-0.05248817,0.67402786

>  <Name>
ligand

>  <RI>
-1

>  <Rbt.Current_Directory>
/home/itssahil/PROJECTS/Mol_Feturizer/New_Systems/rnas/2NPY

>  <Rbt.Executable>
rbdock ($Id: //depot/dev/client3/rdock/2013.1/src/exe/rbdock.cxx#4 $)

>  <Rbt.Library>
libRbt.so (2013.1, Build901 2013/11/27)

>  <Rbt.Parameter_File>
/export/apps/rDock/src/rDock_2013.1_src/data/scripts/dock_solv.prm

>  <Rbt.Receptor>
prm/blind_docking_60.prm

>  <SCORE>
-10.3295

>  <SCORE.INTER>
0.637133

>  <SCORE.INTER.CONST>
1

>  <SCORE.INTER.POLAR>
0

>  <SCORE.INTER.ROT>
9

>  <SCORE.INTER.SOLV>
20.3636

>  <SCORE.INTER.VDW>
-15.9631

>  <SCORE.INTER.norm>
0.0490102

>  <SCORE.INTRA>
-10.9666

>  <SCORE.INTRA.DIHEDRAL>
-24.2641

>  <SCORE.INTRA.DIHEDRAL.0>
25.6828

>  <SCORE.INTRA.POLAR>
0

>  <SCORE.INTRA.POLAR.0>
0

>  <SCORE.INTRA.REPUL>
0

>  <SCORE.INTRA.REPUL.0>
0

>  <SCORE.INTRA.SOLV>
-0.859335

>  <SCORE.INTRA.SOLV.lig_0>
-48.5059

>  <SCORE.INTRA.VDW>
1.59508

>  <SCORE.INTRA.VDW.0>
-0.363643

>  <SCORE.INTRA.norm>
-0.843586

>  <SCORE.RESTR>
0

>  <SCORE.RESTR.CAVITY>
0

>  <SCORE.RESTR.norm>
0

>  <SCORE.SYSTEM>
0

>  <SCORE.SYSTEM.CONST>
0

>  <SCORE.SYSTEM.DIHEDRAL>
0

>  <SCORE.SYSTEM.SOLV>
0

>  <SCORE.SYSTEM.norm>
0

>  <SCORE.heavy>
13

>  <SCORE.norm>
-0.794576

>  <RMSD>
24.209

$$$$
ligand
 OpenBabel11021811453D
libRbt.so/2013.1/901 2013/11/27
 13 12  0  0  0  0  0  0  0  0999 V2000
   31.7189   12.3171   42.3426 O   0  0  0  0  0  0  0  0  0  0  0  0
   31.3979    9.8687   40.8920 O   0  0  0  0  0  0  0  0  0  0  0  0
   27.5470   13.1527   43.2006 P   0  0  2  0  0  0  0  0  0  0  0  0
   27.3553   12.3883   44.4672 O   0  5  0  0  0  0  0  0  0  0  0  0
   26.8120   12.7328   41.9798 O   0  0  0  0  0  0  0  0  0  0  0  0
   29.0922   13.1673   42.8408 O   0  0  0  0  0  0  0  0  0  0  0  0
   31.7282    6.4927   39.4956 O   0  0  0  0  0  0  0  0  0  0  0  0
   30.0886   13.2993   43.8648 C   0  0  0  0  0  0  0  0  0  0  0  0
   32.2758    9.9166   42.0458 C   0  0  0  0  0  0  0  0  0  0  0  0
   31.3138    7.4672   40.4422 C   0  0  0  0  0  0  0  0  0  0  0  0
   31.4823   13.4288   43.2271 C   0  0  0  0  0  0  0  0  0  0  0  0
   31.8748   11.0439   43.0289 C   0  0  0  0  0  0  0  0  0  0  0  0
   31.7710    8.8474   39.9374 C   0  0  0  0  0  0  0  0  0  0  0  0
  1 12  1  0  0  0  0
  1 11  1  0  0  0  0
  2 13  1  0  0  0  0
  2  9  1  0  0  0  0
  3  4  1  1  0  0  0
  3  5  2  0  0  0  0
  3  6  1  0  0  0  0
  6  8  1  0  0  0  0
  7 10  1  0  0  0  0
  8 11  1  0  0  0  0
  9 12  1  0  0  0  0
 10 13  1  0  0  0  0
M  CHG  1   4  -1
M  END
>  <CHROM.1>
-173.90810958,77.67302926,-38.40283405,-174.20001288,-54.73798176,178.41555934
-50.70586357,-178.54084362,-68.98416451,30.08154828,11.25641248,42.21378564
-1.00782310,-0.03987091,0.56416869

>  <Name>
ligand

>  <RI>
-1

>  <Rbt.Current_Directory>
/home/itssahil/PROJECTS/Mol_Feturizer/New_Systems/rnas/2NPY

>  <Rbt.Executable>
rbdock ($Id: //depot/dev/client3/rdock/2013.1/src/exe/rbdock.cxx#4 $)

>  <Rbt.Library>
libRbt.so (2013.1, Build901 2013/11/27)

>  <Rbt.Parameter_File>
/export/apps/rDock/src/rDock_2013.1_src/data/scripts/dock_solv.prm

>  <Rbt.Receptor>
prm/blind_docking_60.prm

>  <SCORE>
-10.7991

>  <SCORE.INTER>
0.510845

>  <SCORE.INTER.CONST>
1

>  <SCORE.INTER.POLAR>
0

>  <SCORE.INTER.ROT>
9

>  <SCORE.INTER.SOLV>
16.6478

>  <SCORE.INTER.VDW>
-14.8087

>  <SCORE.INTER.norm>
0.0392958

>  <SCORE.INTRA>
-11.3099

>  <SCORE.INTRA.DIHEDRAL>
-22.7696

>  <SCORE.INTRA.DIHEDRAL.0>
25.6828

>  <SCORE.INTRA.POLAR>
0

>  <SCORE.INTRA.POLAR.0>
0

>  <SCORE.INTRA.REPUL>
0

>  <SCORE.INTRA.REPUL.0>
0

>  <SCORE.INTRA.SOLV>
-1.05015

>  <SCORE.INTRA.SOLV.lig_0>
-48.5059

>  <SCORE.INTRA.VDW>
0.599924

>  <SCORE.INTRA.VDW.0>
-0.363643

>  <SCORE.INTRA.norm>
-0.869996

>  <SCORE.RESTR>
0

>  <SCORE.RESTR.CAVITY>
0

>  <SCORE.RESTR.norm>
0

>  <SCORE.SYSTEM>
0

>  <SCORE.SYSTEM.CONST>
0

>  <SCORE.SYSTEM.DIHEDRAL>
0

>  <SCORE.SYSTEM.SOLV>
0

>  <SCORE.SYSTEM.norm>
0

>  <SCORE.heavy>
13

>  <SCORE.norm>
-0.8307

>  <RMSD>
24.269

$$$$
ligand
 OpenBabel11021811453D
libRbt.so/2013.1/901 2013/11/27
 13 12  0  0  0  0  0  0  0  0999 V2000
   30.7391   10.8011   41.6876 O   0  0  0  0  0  0  0  0  0  0  0  0
   32.8492    8.9598   40.4575 O   0  0  0  0  0  0  0  0  0  0  0  0
   28.1123   12.4646   43.9266 P   0  0  2  0  0  0  0  0  0  0  0  0
   26.7247   13.0026   43.8248 O   0  5  0  0  0  0  0  0  0  0  0  0
   29.2586   13.3362   43.5617 O   0  0  0  0  0  0  0  0  0  0  0  0
   28.2174   11.1505   43.0436 O   0  0  0  0  0  0  0  0  0  0  0  0
   31.4070    7.9004   38.3122 O   0  0  0  0  0  0  0  0  0  0  0  0
   29.1357   10.1020   43.3848 C   0  0  0  0  0  0  0  0  0  0  0  0
   33.0701    9.9777   41.4671 C   0  0  0  0  0  0  0  0  0  0  0  0
   31.4476    7.1811   39.5363 C   0  0  0  0  0  0  0  0  0  0  0  0
   30.5777   10.5534   43.0972 C   0  0  0  0  0  0  0  0  0  0  0  0
   32.0942   11.1693   41.3076 C   0  0  0  0  0  0  0  0  0  0  0  0
   31.6416    8.1941   40.6788 C   0  0  0  0  0  0  0  0  0  0  0  0
  1 12  1  0  0  0  0
  1 11  1  0  0  0  0
  2 13  1  0  0  0  0
  2  9  1  0  0  0  0
  3  4  1  6  0  0  0
  3  5  2  0  0  0  0
  3  6  1  0  0  0  0
  6  8  1  0  0  0  0
  7 10  1  0  0  0  0
  8 11  1  0  0  0  0
  9 12  1  0  0  0  0
 10 13  1  0  0  0  0
M  CHG  1   4  -1
M  END
>  <CHROM.1>
68.65801219,177.53894976,-150.91203399,-71.72421916,-62.96345426,-73.05371512
71.52947918,-57.42904492,-177.05900010,30.19142389,10.56436143,42.03034690
-0.94183728,0.14694427,0.65245901

>  <Name>
ligand

>  <RI>
-1

>  <Rbt.Current_Directory>
/home/itssahil/PROJECTS/Mol_Feturizer/New_Systems/rnas/2NPY

>  <Rbt.Executable>
rbdock ($Id: //depot/dev/client3/rdock/2013.1/src/exe/rbdock.cxx#4 $)

>  <Rbt.Library>
libRbt.so (2013.1, Build901 2013/11/27)

>  <Rbt.Parameter_File>
/export/apps/rDock/src/rDock_2013.1_src/data/scripts/dock_solv.prm

>  <Rbt.Receptor>
prm/blind_docking_60.prm

>  <SCORE>
-9.15235

>  <SCORE.INTER>
1.21896

>  <SCORE.INTER.CONST>
1

>  <SCORE.INTER.POLAR>
0

>  <SCORE.INTER.ROT>
9

>  <SCORE.INTER.SOLV>
18.874

>  <SCORE.INTER.VDW>
-15.0787

>  <SCORE.INTER.norm>
0.0937664

>  <SCORE.INTRA>
-10.3713

>  <SCORE.INTRA.DIHEDRAL>
-22.6771

>  <SCORE.INTRA.DIHEDRAL.0>
25.6828

>  <SCORE.INTRA.POLAR>
0

>  <SCORE.INTRA.POLAR.0>
0

>  <SCORE.INTRA.REPUL>
0

>  <SCORE.INTRA.REPUL.0>
0

>  <SCORE.INTRA.SOLV>
1.58171

>  <SCORE.INTRA.SOLV.lig_0>
-48.5059

>  <SCORE.INTRA.VDW>
0.17638

>  <SCORE.INTRA.VDW.0>
-0.363643

>  <SCORE.INTRA.norm>
-0.797794

>  <SCORE.RESTR>
0

>  <SCORE.RESTR.CAVITY>
0

>  <SCORE.RESTR.norm>
0

>  <SCORE.SYSTEM>
0

>  <SCORE.SYSTEM.CONST>
0

>  <SCORE.SYSTEM.DIHEDRAL>
0

>  <SCORE.SYSTEM.SOLV>
0

>  <SCORE.SYSTEM.norm>
0

>  <SCORE.heavy>
13

>  <SCORE.norm>
-0.704027

>  <RMSD>
24.955

$$$$
