@<TRIPOS>MOLECULE
2NPY_rdock.pdb
 1333 1461 0 0 0
SMALL
GASTEIGER

@<TRIPOS>ATOM
      1  C5'       41.5010   31.4280   61.6410 C.3     1  U1          0.0000
      2  C5'       41.2220   31.3200   60.6530 C.3     1  U1          0.0000
      3  O5'       41.6440   30.5130   60.5490 O.3     1  U1          0.0000
      4  O5'       41.1940   30.7650   59.3320 O.3     1  U1          0.0000
      5  C4'       40.1890   32.1690   61.5840 C.3     1  U1          0.0000
      6  C4'       40.0240   32.1870   60.9710 C.3     1  U1          0.0000
      7  O4'       40.2670   33.2600   60.6270 O.3     1  U1          0.0000
      8  O4'       39.9400   33.2850   60.0130 O.3     1  U1          0.0000
      9  C3'       39.0080   31.3280   61.1450 C.2     1  U1          0.0000
     10  C3'       38.6610   31.5150   60.9110 C.3     1  U1          0.0000
     11  O3'       38.4570   30.6800   62.2840 O.3     1  U1          0.0000
     12  O3'       38.4280   30.7440   62.0800 O.2     1  U1          0.0000
     13  C2'       38.0890   32.3710   60.5180 C.3     1  U1          0.0000
     14  C2'       37.7360   32.7340   60.7140 C.2     1  U1          0.0000
     15  O2'       37.3780   33.0960   61.4860 O.2     1  U1          0.0000
     16  O2'       37.4540   33.4330   61.9100 O.3     1  U1          0.0000
     17  C1'       39.1020   33.2730   59.8150 C.3     1  U1          0.0000
     18  C1'       38.5780   33.6680   59.8240 C.3     1  U1          0.0000
     19  N1        39.4770   32.6860   58.5250 N.2     1  U1          0.0000
     20  N1        38.2800   33.6060   58.3770 N.4     1  U1          0.0000
     21  C2        38.6700   32.8970   57.4430 C.1     1  U1          0.0000
     22  C2        37.2150   34.3340   57.8650 C.2     1  U1          0.0000
     23  O2        37.6370   33.5630   57.4680 O.3     1  U1          0.0000
     24  O2        36.5170   35.0900   58.5120 O.2     1  U1          0.0000
     25  N3        39.1120   32.3000   56.2970 N.am    1  U1          0.0000
     26  N3        37.0130   34.1160   56.5370 N.am    1  U1          0.0000
     27  C4        40.2550   31.5370   56.1620 C.2     1  U1          0.0000
     28  C4        37.7810   33.2660   55.7300 C.2     1  U1          0.0000
     29  O4        40.4910   31.0810   55.0370 O.2     1  U1          0.0000
     30  O4        37.4470   33.1690   54.5540 O.2     1  U1          0.0000
     31  C5        41.0340   31.3480   57.3300 C.2     1  U1          0.0000
     32  C5        38.8810   32.5880   56.3300 C.1     1  U1          0.0000
     33  C6        40.6200   31.9280   58.4490 C.2     1  U1          0.0000
     34  C6        39.0720   32.8000   57.6190 C.2     1  U1          0.0000
     35  P         37.5560   29.3890   62.0710 P.3     2  C2          0.0000
     36  C5'       35.1550   30.2660   61.4200 C.3     2  C2          0.0000
     37  O5'       36.4260   29.7600   61.0150 O.3     2  C2          0.0000
     38  C4'       34.3480   30.6390   60.2060 C.3     2  C2          0.0000
     39  O4'       35.2490   31.2760   59.2590 O.3     2  C2          0.0000
     40  C3'       33.8000   29.4570   59.4260 C.3     2  C2          0.0000
     41  O3'       32.5830   28.9780   59.9810 O.3     2  C2          0.0000
     42  C2'       33.6190   30.0610   58.0430 C.3     2  C2          0.0000
     43  O2'       32.4770   30.8850   57.9320 O.3     2  C2          0.0000
     44  C1'       34.8620   30.9440   57.9390 C.3     2  C2          0.0000
     45  N1        35.9780   30.2670   57.2410 N.ar    2  C2          0.0000
     46  C2        35.8640   30.0650   55.8550 C.ar    2  C2          0.0000
     47  O2        34.8570   30.4840   55.2710 O.2     2  C2          0.0000
     48  N3        36.8540   29.4130   55.1880 N.ar    2  C2          0.0000
     49  C4        37.9320   28.9880   55.8510 C.ar    2  C2          0.0000
     50  N4        38.8770   28.3390   55.1660 N.pl3   2  C2          0.0000
     51  C5        38.0870   29.1990   57.2530 C.ar    2  C2          0.0000
     52  C6        37.0940   29.8390   57.9060 C.ar    2  C2          0.0000
     53  OP1       36.8730   29.1650   63.3690 O.3     2  C2          0.0000
     54  OP2       38.3890   28.3070   61.4460 O.co2   2  C2         -1.0000
     55  P         32.2930   27.4060   60.0020 P.3     3  C3          0.0000
     56  C5'       30.7660   28.0490   57.9910 C.3     3  C3          0.0000
     57  O5'       31.7220   27.1550   58.5450 O.3     3  C3          0.0000
     58  C4'       30.2660   27.5170   56.6800 C.3     3  C3          0.0000
     59  O4'       31.0820   28.0070   55.5920 O.3     3  C3          0.0000
     60  C3'       30.2900   26.0130   56.5520 C.3     3  C3          0.0000
     61  O3'       29.1510   25.4380   57.1780 O.3     3  C3          0.0000
     62  C2'       30.3370   25.8320   55.0390 C.3     3  C3          0.0000
     63  O2'       29.0810   25.9720   54.4170 O.3     3  C3          0.0000
     64  C1'       31.2430   26.9940   54.6240 C.3     3  C3          0.0000
     65  N1        32.6640   26.6460   54.6140 N.ar    3  C3          0.0000
     66  C2        33.2350   26.1310   53.4450 C.ar    3  C3          0.0000
     67  O2        32.5110   25.9620   52.4570 O.2     3  C3          0.0000
     68  N3        34.5520   25.8290   53.4260 N.ar    3  C3          0.0000
     69  C4        35.2910   26.0400   54.5190 C.ar    3  C3          0.0000
     70  N4        36.5860   25.7550   54.4630 N.pl3   3  C3          0.0000
     71  C5        34.7330   26.5560   55.7250 C.ar    3  C3          0.0000
     72  C6        33.4320   26.8410   55.7290 C.ar    3  C3          0.0000
     73  OP1       31.2210   27.1000   60.9970 O.3     3  C3         -0.5000
     74  OP2       33.6170   26.7450   60.0980 O.co2   3  C3         -0.5000
     75  P         29.1080   23.8610   57.4380 P.3     4  C4          0.0000
     76  C5'       28.8140   22.0800   55.5820 C.3     4  C4          0.0000
     77  O5'       29.4200   23.2760   55.9950 O.3     4  C4          0.0000
     78  C4'       29.3190   21.6370   54.2340 C.3     4  C4          0.0000
     79  O4'       30.3700   22.4980   53.7210 O.3     4  C4          0.0000
     80  C3'       29.9910   20.2880   54.3500 C.3     4  C4          0.0000
     81  O3'       28.9870   19.2920   54.4190 O.3     4  C4          0.0000
     82  C2'       30.8720   20.2440   53.1110 C.3     4  C4          0.0000
     83  O2'       30.1770   19.8400   51.9540 O.3     4  C4          0.0000
     84  C1'       31.2960   21.7090   52.9900 C.3     4  C4          0.0000
     85  N1        32.6480   21.9500   53.5080 N.ar    4  C4          0.0000
     86  C2        33.7360   21.5620   52.7280 C.ar    4  C4          0.0000
     87  O2        33.5300   21.0210   51.6430 O.2     4  C4          0.0000
     88  N3        34.9880   21.7770   53.1790 N.ar    4  C4          0.0000
     89  C4        35.1730   22.3550   54.3590 C.ar    4  C4          0.0000
     90  N4        36.4200   22.5470   54.7660 N.pl3   4  C4          0.0000
     91  C5        34.0840   22.7600   55.1770 C.ar    4  C4          0.0000
     92  C6        32.8440   22.5420   54.7160 C.ar    4  C4          0.0000
     93  OP1       27.7140   23.4770   57.7780 O.2     4  C4         -0.5000
     94  OP2       30.2270   23.5010   58.3540 O.co2   4  C4         -0.5000
     95  P         28.8860   18.3680   55.7260 P.3     5  2AU5        0.0000
     96  C5'       30.0540   16.6370   54.1650 C.3     5  2AU5        0.0000
     97  O5'       29.9880   17.2580   55.4380 O.3     5  2AU5        0.0000
     98  C4'       31.3140   15.8200   54.0440 C.3     5  2AU5        0.0000
     99  O4'       32.4670   16.7010   54.0780 O.3     5  2AU5        0.0000
    100  C3'       31.4510   14.9040   55.2650 C.3     5  2AU5        0.0000
    101  O3'       31.8350   13.5710   54.9170 O.3     5  2AU5        0.0000
    102  C2'       32.4030   15.6240   56.2130 C.3     5  2AU5        0.0000
    103  N2'       33.3480   14.7530   56.9300 N.3     5  2AU5        0.0000
    104  C1'       33.2240   16.4250   55.2220 C.3     5  2AU5        0.0000
    105  N1        33.8740   17.6280   55.7360 N.ar    5  2AU5        0.0000
    106  C2        35.2450   17.6100   55.7230 C.ar    5  2AU5        0.0000
    107  O2        35.8910   16.7030   55.2360 O.2     5  2AU5        0.0000
    108  N3        35.8400   18.6950   56.2990 N.ar    5  2AU5        0.0000
    109  C4        35.2110   19.7800   56.8600 C.ar    5  2AU5        0.0000
    110  O4        35.8870   20.6640   57.3910 O.2     5  2AU5        0.0000
    111  C5        33.7830   19.7400   56.7930 C.ar    5  2AU5        0.0000
    112  C6        33.1750   18.6880   56.2380 C.ar    5  2AU5        0.0000
    113  OP1       27.5400   17.7520   55.6930 O.co2   5  2AU5       -0.5000
    114  OP2       29.3110   19.1370   56.9220 O.3     5  2AU5       -0.5000
    115  P         30.9150   12.3220   55.3150 P.3     6  G6          0.0000
    116  C5'       32.6940   10.8600   53.9860 C.3     6  G6          0.0000
    117  O5'       31.3280   11.2030   54.2420 O.3     6  G6          0.0000
    118  C4'       32.7740    9.4280   53.4660 C.3     6  G6          0.0000
    119  O4'       32.2930    9.3220   52.0990 O.3     6  G6          0.0000
    120  C3'       34.2200    8.9190   53.4640 C.3     6  G6          0.0000
    121  O3'       34.3100    7.5610   53.9440 O.3     6  G6          0.0000
    122  C2'       34.7040    9.0910   52.0100 C.3     6  G6          0.0000
    123  O2'       35.5570    8.0810   51.4900 O.3     6  G6          0.0000
    124  C1'       33.3810    8.9670   51.2490 C.3     6  G6          0.0000
    125  N1        35.2840   12.2240   47.7980 N.ar    6  G6          0.0000
    126  C2        35.6590   12.0300   49.1060 C.ar    6  G6          0.0000
    127  N2        36.6710   12.7750   49.5550 N.pl3   6  G6          0.0000
    128  N3        35.0780   11.1720   49.9230 N.ar    6  G6          0.0000
    129  C4        34.0530   10.5260   49.3360 C.ar    6  G6          0.0000
    130  C5        33.5860   10.6490   48.0430 C.ar    6  G6          0.0000
    131  C6        34.2460   11.5550   47.1600 C.ar    6  G6          0.0000
    132  O6        34.0130   11.7740   45.9600 O.2     6  G6          0.0000
    133  N7        32.5080    9.8040   47.8220 N.ar    6  G6          0.0000
    134  C8        32.3300    9.1980   48.9660 C.ar    6  G6          0.0000
    135  N9        33.2580    9.5620   49.9150 N.ar    6  G6          0.0000
    136  OP1       29.5110   12.7510   55.0600 O.2     6  G6         -0.5000
    137  OP2       31.3220   11.8980   56.6850 O.co2   6  G6         -0.5000
    138  P         34.9960    7.1880   55.3640 P.3     7  U7          0.0000
    139  C5'       37.1650    6.3830   54.1860 C.3     7  U7          0.0000
    140  O5'       36.5530    7.3030   55.0800 O.3     7  U7          0.0000
    141  C4'       38.6510    6.3920   54.3430 C.3     7  U7          0.0000
    142  O4'       39.1590    7.6580   53.8560 O.3     7  U7          0.0000
    143  C3'       39.1460    6.2820   55.7700 C.3     7  U7          0.0000
    144  O3'       39.1790    4.9100   56.1750 O.3     7  U7          0.0000
    145  C2'       40.5300    6.9030   55.6380 C.3     7  U7          0.0000
    146  O2'       41.4990    6.0110   55.1290 O.3     7  U7          0.0000
    147  C1'       40.2830    8.0210   54.6160 C.3     7  U7          0.0000
    148  N1        40.0410    9.3320   55.2270 N.ar    7  U7          0.0000
    149  C2        41.1530   10.0920   55.5370 C.ar    7  U7          0.0000
    150  O2        42.2920    9.7370   55.2680 O.2     7  U7          0.0000
    151  N3        40.8880   11.2880   56.1600 N.ar    7  U7          0.0000
    152  C4        39.6470   11.8000   56.4770 C.ar    7  U7          0.0000
    153  O4        39.5740   12.8720   57.0790 O.2     7  U7          0.0000
    154  C5        38.5420   10.9700   56.0950 C.ar    7  U7          0.0000
    155  C6        38.7710    9.7880   55.5000 C.ar    7  U7          0.0000
    156  OP1       34.7500    5.7320   55.4670 O.2     7  U7         -0.5000
    157  OP2       34.6300    8.0870   56.4950 O.co2   7  U7         -0.5000
    158  P         39.1600    4.5230   57.7370 P.3     8  C8          0.0000
    159  C5'       41.6250    5.1810   58.2910 C.3     8  C8          0.0000
    160  O5'       40.2390    5.4840   58.3960 O.3     8  C8          0.0000
    161  C4'       42.4440    6.1780   59.0700 C.3     8  C8          0.0000
    162  O4'       42.2820    7.4950   58.4810 O.3     8  C8          0.0000
    163  C3'       42.0210    6.3710   60.5150 C.3     8  C8          0.0000
    164  O3'       42.5300    5.3550   61.3650 O.3     8  C8          0.0000
    165  C2'       42.5680    7.7580   60.8220 C.3     8  C8          0.0000
    166  O2'       43.9580    7.7610   61.0810 O.3     8  C8          0.0000
    167  C1'       42.2950    8.4790   59.5000 C.3     8  C8          0.0000
    168  N1        40.9870    9.1680   59.5130 N.ar    8  C8          0.0000
    169  C2        40.8930   10.4110   60.1610 C.ar    8  C8          0.0000
    170  O2        41.8980   10.8950   60.6920 O.2     8  C8          0.0000
    171  N3        39.7020   11.0440   60.2070 N.ar    8  C8          0.0000
    172  C4        38.6400   10.5000   59.6150 C.ar    8  C8          0.0000
    173  N4        37.4800   11.1540   59.6820 N.pl3   8  C8          0.0000
    174  C5        38.7080    9.2500   58.9360 C.ar    8  C8          0.0000
    175  C6        39.8930    8.6240   58.9030 C.ar    8  C8          0.0000
    176  OP1       39.7450    3.1620   57.7860 O.2     8  C8         -0.5000
    177  OP2       37.8260    4.7980   58.3570 O.co2   8  C8         -0.5000
    178  P         41.6640    4.8820   62.6310 P.3     9  C9          0.0000
    179  C5'       42.9110    6.7420   63.9610 C.3     9  C9          0.0000
    180  O5'       41.6750    6.1670   63.5660 O.3     9  C9          0.0000
    181  C4'       42.6850    7.9020   64.8960 C.3     9  C9          0.0000
    182  O4'       42.2180    9.0520   64.1350 O.3     9  C9          0.0000
    183  C3'       41.6020    7.7040   65.9500 C.3     9  C9          0.0000
    184  O3'       42.0060    6.9240   67.0790 O.3     9  C9          0.0000
    185  C2'       41.2490    9.1440   66.2990 C.3     9  C9          0.0000
    186  O2'       42.2190    9.7470   67.1350 O.3     9  C9          0.0000
    187  C1'       41.3070    9.8060   64.9240 C.3     9  C9          0.0000
    188  N1        39.9800    9.8020   64.2840 N.ar    9  C9          0.0000
    189  C2        39.0620   10.7840   64.6590 C.ar    9  C9          0.0000
    190  O2        39.4030   11.6380   65.4870 O.2     9  C9          0.0000
    191  N3        37.8310   10.7820   64.1110 N.ar    9  C9          0.0000
    192  C4        37.5030    9.8500   63.2180 C.ar    9  C9          0.0000
    193  N4        36.2760    9.8840   62.7060 N.pl3   9  C9          0.0000
    194  C5        38.4190    8.8420   62.8090 C.ar    9  C9          0.0000
    195  C6        39.6370    8.8560   63.3610 C.ar    9  C9          0.0000
    196  OP1       42.4230    3.8030   63.3120 O.3     9  C9         -0.5000
    197  OP2       40.2630    4.6370   62.1910 O.co2   9  C9         -0.5000
    198  P         40.8930    6.3630   68.1100 P.3    10  A10         0.0000
    199  C5'       40.9380    8.3600   69.7910 C.3    10  A10         0.0000
    200  O5'       40.2740    7.6800   68.7410 O.3    10  A10         0.0000
    201  C4'       39.9580    9.2360   70.5080 C.3    10  A10         0.0000
    202  O4'       39.4390   10.2010   69.5560 O.3    10  A10         0.0000
    203  C3'       38.7170    8.5170   71.0130 C.3    10  A10         0.0000
    204  O3'       38.9170    7.9240   72.2900 O.3    10  A10         0.0000
    205  C2'       37.7080    9.6500   71.0810 C.3    10  A10         0.0000
    206  O2'       37.8940   10.4490   72.2320 O.3    10  A10         0.0000
    207  C1'       38.0720   10.4460   69.8260 C.3    10  A10         0.0000
    208  N1        33.6560   11.0400   67.3120 N.ar   10  A10         0.0000
    209  C2        34.1530   11.6070   68.4190 C.ar   10  A10         0.0000
    210  N3        35.3240   11.4020   69.0170 N.ar   10  A10         0.0000
    211  C4        36.0420   10.4860   68.3460 C.ar   10  A10         0.0000
    212  C5        35.6720    9.8160   67.1950 C.ar   10  A10         0.0000
    213  C6        34.4050   10.1200   66.6640 C.ar   10  A10         0.0000
    214  N6        33.9040    9.5520   65.5680 N.pl3  10  A10         0.0000
    215  N7        36.6760    8.9470   66.7890 N.ar   10  A10         0.0000
    216  C8        37.6130    9.1070   67.6910 C.ar   10  A10         0.0000
    217  N9        37.2920   10.0220   68.6650 N.ar   10  A10         0.0000
    218  OP1       41.6160    5.6570   69.1920 O.3    10  A10        -0.5000
    219  OP2       39.7850    5.6730   67.3940 O.co2  10  A10        -0.5000
    220  P         37.8300    6.8820   72.8640 P.3    11  C11         0.0000
    221  C5'       36.3070    8.4660   74.2810 C.3    11  C11         0.0000
    222  O5'       36.5110    7.7480   73.0750 O.3    11  C11         0.0000
    223  C4'       34.9560    9.1320   74.2740 C.3    11  C11         0.0000
    224  O4'       34.8570    9.9560   73.0790 O.3    11  C11         0.0000
    225  C3'       33.7500    8.2100   74.1680 C.3    11  C11         0.0000
    226  O3'       33.3420    7.6600   75.4120 O.3    11  C11         0.0000
    227  C2'       32.6960    9.1470   73.6000 C.3    11  C11         0.0000
    228  O2'       32.1640   10.0190   74.5770 O.3    11  C11         0.0000
    229  C1'       33.5220    9.9420   72.5950 C.3    11  C11         0.0000
    230  N1        33.4880    9.2290   71.3140 N.ar   11  C11         0.0000
    231  C2        32.3210    9.2950   70.5470 C.ar   11  C11         0.0000
    232  O2        31.3950   10.0350   70.9250 O.2    11  C11         0.0000
    233  N3        32.2350    8.5590   69.4160 N.ar   11  C11         0.0000
    234  C4        33.2650    7.7960   69.0360 C.ar   11  C11         0.0000
    235  N4        33.1210    7.0530   67.9370 N.pl3  11  C11         0.0000
    236  C5        34.4830    7.7530   69.7710 C.ar   11  C11         0.0000
    237  C6        34.5520    8.4800   70.8920 C.ar   11  C11         0.0000
    238  OP1       38.3140    6.4490   74.2000 O.3    11  C11        -0.5000
    239  OP2       37.5280    5.8630   71.8240 O.co2  11  C11        -0.5000
    240  P         32.1830    6.5410   75.4440 P.3    12  C12         0.0000
    241  C5'       30.1620    8.1880   75.2600 C.3    12  C12         0.0000
    242  O5'       30.9670    7.1900   74.6430 O.3    12  C12         0.0000
    243  C4'       28.7640    8.1990   74.6840 C.3    12  C12         0.0000
    244  O4'       28.7920    8.7550   73.3400 O.3    12  C12         0.0000
    245  C3'       28.0920    6.8460   74.5040 C.3    12  C12         0.0000
    246  O3'       27.5240    6.3120   75.6900 O.3    12  C12         0.0000
    247  C2'       27.0430    7.1540   73.4460 C.3    12  C12         0.0000
    248  O2'       25.8960    7.7970   73.9760 O.3    12  C12         0.0000
    249  C1'       27.8180    8.1050   72.5330 C.3    12  C12         0.0000
    250  N1        28.5050    7.3520   71.4680 N.ar   12  C12         0.0000
    251  C2        27.7880    7.0210   70.3030 C.ar   12  C12         0.0000
    252  O2        26.6060    7.4030   70.1880 O.2    12  C12         0.0000
    253  N3        28.4010    6.2970   69.3360 N.ar   12  C12         0.0000
    254  C4        29.6710    5.9110   69.4930 C.ar   12  C12         0.0000
    255  N4        30.2300    5.1920   68.5180 N.pl3  12  C12         0.0000
    256  C5        30.4230    6.2440   70.6580 C.ar   12  C12         0.0000
    257  C6        29.8090    6.9610   71.6090 C.ar   12  C12         0.0000
    258  OP1       31.7510    6.4150   76.8560 O.3    12  C12        -0.5000
    259  OP2       32.6480    5.3380   74.7070 O.co2  12  C12        -0.5000
    260  P         27.1900    4.7380   75.7670 P.3    13  G13         0.0000
    261  C5'       24.7720    5.0240   74.7970 C.3    13  G13         0.0000
    262  O5'       26.0910    4.5180   74.6370 O.3    13  G13         0.0000
    263  C4'       23.9180    4.6190   73.6250 C.3    13  G13         0.0000
    264  O4'       24.5050    5.1640   72.4130 O.3    13  G13         0.0000
    265  C3'       23.8800    3.1220   73.3520 C.3    13  G13         0.0000
    266  O3'       23.0430    2.3320   74.1900 O.3    13  G13         0.0000
    267  C2'       23.5090    3.0690   71.8780 C.3    13  G13         0.0000
    268  O2'       22.1300    3.2560   71.6340 O.3    13  G13         0.0000
    269  C1'       24.2930    4.2620   71.3360 C.3    13  G13         0.0000
    270  N1        26.5470    2.3520   67.2390 N.ar   13  G13         0.0000
    271  C2        25.2180    2.6590   67.4560 C.ar   13  G13         0.0000
    272  N2        24.3580    2.4110   66.4470 N.pl3  13  G13         0.0000
    273  N3        24.7620    3.1710   68.5840 N.ar   13  G13         0.0000
    274  C4        25.7440    3.3530   69.4960 C.ar   13  G13         0.0000
    275  C5        27.0950    3.0810   69.3840 C.ar   13  G13         0.0000
    276  C6        27.5790    2.5320   68.1640 C.ar   13  G13         0.0000
    277  O6        28.7440    2.2170   67.8660 O.2    13  G13         0.0000
    278  N7        27.7640    3.4100   70.5580 N.ar   13  G13         0.0000
    279  C8        26.8250    3.8680   71.3480 C.ar   13  G13         0.0000
    280  N9        25.5760    3.8550   70.7640 N.ar   13  G13         0.0000
    281  OP1       26.5470    4.4880   77.0820 O.3    13  G13        -0.5000
    282  OP2       28.4070    3.9690   75.3810 O.co2  13  G13        -0.5000
    283  C5'       26.5380   -0.0840   58.3670 C.3     2  C2          0.0000
    284  O5'       27.7760    0.4540   58.8280 O.3     2  C2          0.0000
    285  C4'       25.4010    0.1540   59.3360 C.3     2  C2          0.0000
    286  O4'       25.6820   -0.5360   60.5880 O.3     2  C2          0.0000
    287  C3'       25.2170    1.5940   59.7830 C.3     2  C2          0.0000
    288  O3'       24.6130    2.4380   58.8200 O.3     2  C2          0.0000
    289  C2'       24.4720    1.4420   61.1050 C.3     2  C2          0.0000
    290  O2'       23.0910    1.1450   60.9800 O.3     2  C2          0.0000
    291  C1'       25.1940    0.2310   61.6880 C.3     2  C2          0.0000
    292  N1        26.3370    0.6420   62.5300 N.ar    2  C2          0.0000
    293  C2        26.0780    1.1660   63.8030 C.ar    2  C2          0.0000
    294  O2        24.8930    1.3060   64.1640 O.2     2  C2          0.0000
    295  N3        27.1210    1.5140   64.6020 N.ar    2  C2          0.0000
    296  C4        28.3770    1.3590   64.1690 C.ar    2  C2          0.0000
    297  N4        29.3770    1.6900   65.0000 N.pl3   2  C2          0.0000
    298  C5        28.6670    0.8520   62.8670 C.ar    2  C2          0.0000
    299  C6        27.6280    0.5090   62.0890 C.ar    2  C2          0.0000
    300  P         25.2360    3.9020   58.5710 P.3     3  G3          0.0000
    301  C5'       23.1200    4.7760   59.8330 C.3     3  G3          0.0000
    302  O5'       24.5350    4.7950   59.6910 O.3     3  G3          0.0000
    303  C4'       22.6990    5.1750   61.2320 C.3     3  G3          0.0000
    304  O4'       23.3020    4.2600   62.1950 O.3     3  G3          0.0000
    305  C3'       23.1900    6.5340   61.7120 C.3     3  G3          0.0000
    306  O3'       22.4530    7.6470   61.2310 O.3     3  G3          0.0000
    307  C2'       23.1030    6.3910   63.2240 C.3     3  G3          0.0000
    308  O2'       21.7830    6.5100   63.7240 O.3     3  G3          0.0000
    309  C1'       23.5750    4.9560   63.4050 C.3     3  G3          0.0000
    310  N1        27.0300    5.9530   66.9370 N.ar    3  G3          0.0000
    311  C2        25.6670    6.1530   66.9490 C.ar    3  G3          0.0000
    312  N2        25.1490    6.6910   68.0690 N.pl3   3  G3          0.0000
    313  N3        24.8710    5.8520   65.9370 N.ar    3  G3          0.0000
    314  C4        25.5530    5.3380   64.8920 C.ar    3  G3          0.0000
    315  C5        26.9080    5.1090   64.7670 C.ar    3  G3          0.0000
    316  C6        27.7560    5.4230   65.8690 C.ar    3  G3          0.0000
    317  O6        28.9860    5.2770   65.9670 O.2     3  G3          0.0000
    318  N7        27.2070    4.5810   63.5180 N.ar    3  G3          0.0000
    319  C8        26.0460    4.4880   62.9220 C.ar    3  G3          0.0000
    320  N9        25.0030    4.9220   63.7070 N.ar    3  G3          0.0000
    321  OP1       24.7870    4.3500   57.2290 O.2     3  G3         -0.5000
    322  OP2       26.6940    3.8430   58.8750 O.co2   3  G3         -0.5000
    323  P         23.1720    9.0880   61.1470 P.3     4  G4          0.0000
    324  C5'       22.5990    9.6080   63.6290 C.3     4  G4          0.0000
    325  O5'       23.6020    9.4000   62.6510 O.3     4  G4          0.0000
    326  C4'       23.1550   10.2590   64.8720 C.3     4  G4          0.0000
    327  O4'       23.8850    9.2690   65.6530 O.3     4  G4          0.0000
    328  C3'       24.1930   11.3530   64.6620 C.3     4  G4          0.0000
    329  O3'       23.6740   12.6240   64.2990 O.3     4  G4          0.0000
    330  C2'       24.8830   11.3910   66.0170 C.3     4  G4          0.0000
    331  O2'       24.1020   12.0510   66.9950 O.3     4  G4          0.0000
    332  C1'       24.9380    9.9100   66.3580 C.3     4  G4          0.0000
    333  N1        29.7050    9.2360   67.8630 N.ar    4  G4          0.0000
    334  C2        28.6500    9.8360   68.5160 C.ar    4  G4          0.0000
    335  N2        28.9100   10.3490   69.7370 N.pl3   4  G4          0.0000
    336  N3        27.4310    9.9330   68.0070 N.ar    4  G4          0.0000
    337  C4        27.3530    9.3910   66.7700 C.ar    4  G4          0.0000
    338  C5        28.3410    8.7830   66.0270 C.ar    4  G4          0.0000
    339  C6        29.6440    8.6680   66.5890 C.ar    4  G4          0.0000
    340  O6        30.6530    8.1490   66.0940 O.2     4  G4          0.0000
    341  N7        27.8500    8.3700   64.7950 N.ar    4  G4          0.0000
    342  C8        26.5910    8.7230   64.8150 C.ar    4  G4          0.0000
    343  N9        26.2300    9.3500   65.9820 N.ar    4  G4          0.0000
    344  OP1       22.1300   10.0660   60.7430 O.3     4  G4         -0.5000
    345  OP2       24.4050    8.9470   60.3320 O.co2   4  G4         -0.5000
    346  P         24.6960   13.8280   63.9710 P.3     5  U5          0.0000
    347  C5'       25.9710   15.4630   65.5460 C.3     5  U5          0.0000
    348  O5'       24.9280   14.5240   65.3850 O.3     5  U5          0.0000
    349  C4'       26.6220   15.3140   66.8950 C.3     5  U5          0.0000
    350  O4'       26.8520   13.9120   67.1920 O.3     5  U5          0.0000
    351  C3'       28.0060   15.9180   66.9480 C.3     5  U5          0.0000
    352  O3'       27.9740   17.3270   67.0190 O.3     5  U5          0.0000
    353  C2'       28.6500   15.1670   68.1020 C.3     5  U5          0.0000
    354  O2'       28.2540   15.6300   69.3790 O.3     5  U5          0.0000
    355  C1'       28.1000   13.7610   67.8580 C.3     5  U5          0.0000
    356  N1        28.9830   12.9890   66.9690 N.ar    5  U5          0.0000
    357  C2        30.2720   12.7120   67.4030 C.ar    5  U5          0.0000
    358  O2        30.7140   13.0990   68.4770 O.2     5  U5          0.0000
    359  N3        31.0270   11.9650   66.5280 N.ar    5  U5          0.0000
    360  C4        30.6360   11.4790   65.2930 C.ar    5  U5          0.0000
    361  O4        31.3990   10.7440   64.6640 O.2     5  U5          0.0000
    362  C5        29.3000   11.8240   64.9110 C.ar    5  U5          0.0000
    363  C6        28.5390   12.5470   65.7400 C.ar    5  U5          0.0000
    364  OP1       23.9990   14.7850   63.0810 O.2     5  U5         -0.5000
    365  OP2       26.0110   13.2660   63.5530 O.co2   5  U5         -0.5000
    366  P         28.5710   18.1730   65.7920 P.3     6  G6          0.0000
    367  C5'       30.4630   18.7760   67.4580 C.3     6  G6          0.0000
    368  O5'       30.1090   18.3170   66.1690 O.3     6  G6          0.0000
    369  C4'       31.7800   18.1940   67.9060 C.3     6  G6          0.0000
    370  O4'       31.7200   16.7370   67.8920 O.3     6  G6          0.0000
    371  C3'       32.9290   18.4790   66.9620 C.3     6  G6          0.0000
    372  O3'       33.4010   19.8100   67.0930 O.3     6  G6          0.0000
    373  C2'       33.9340   17.3900   67.3280 C.3     6  G6          0.0000
    374  O2'       34.6750   17.6410   68.5070 O.3     6  G6          0.0000
    375  C1'       33.0070   16.2110   67.5910 C.3     6  G6          0.0000
    376  N1        35.5490   12.7750   64.8870 N.ar    6  G6          0.0000
    377  C2        35.9320   13.4610   66.0090 C.ar    6  G6          0.0000
    378  N2        37.1700   13.2090   66.4590 N.pl3   6  G6          0.0000
    379  N3        35.1610   14.3330   66.6410 N.ar    6  G6          0.0000
    380  C4        33.9550   14.4700   66.0420 C.ar    6  G6          0.0000
    381  C5        33.4780   13.8340   64.9180 C.ar    6  G6          0.0000
    382  C6        34.3160   12.9010   64.2520 C.ar    6  G6          0.0000
    383  O6        34.0780   12.2430   63.2320 O.2     6  G6          0.0000
    384  N7        32.1850   14.2560   64.6250 N.ar    6  G6          0.0000
    385  C8        31.9090   15.1270   65.5600 C.ar    6  G6          0.0000
    386  N9        32.9430   15.3090   66.4470 N.ar    6  G6          0.0000
    387  OP1       27.9240   19.5050   65.8300 O.3     6  G6         -0.5000
    388  OP2       28.4800   17.3410   64.5610 O.co2   6  G6         -0.5000
    389  P         33.9670   20.5740   65.7980 P.3     7  A7          0.0000
    390  C5'       36.2860   19.8820   66.7750 C.3     7  A7          0.0000
    391  O5'       35.4180   19.9410   65.6440 O.3     7  A7          0.0000
    392  C4'       37.4010   18.9020   66.5310 C.3     7  A7          0.0000
    393  O4'       36.8580   17.5630   66.4430 O.3     7  A7          0.0000
    394  C3'       38.1210   19.0900   65.2140 C.3     7  A7          0.0000
    395  O3'       39.1090   20.0920   65.3130 O.3     7  A7          0.0000
    396  C2'       38.7090   17.7130   64.9670 C.3     7  A7          0.0000
    397  O2'       39.8780   17.4710   65.7220 O.3     7  A7          0.0000
    398  C1'       37.5800   16.8250   65.4750 C.3     7  A7          0.0000
    399  N1        36.8060   13.6570   61.5460 N.ar    7  A7          0.0000
    400  C2        37.8520   13.8470   62.3630 C.ar    7  A7          0.0000
    401  N3        37.9940   14.7180   63.3530 N.ar    7  A7          0.0000
    402  C4        36.8880   15.4760   63.4750 C.ar    7  A7          0.0000
    403  C5        35.7400   15.4120   62.7050 C.ar    7  A7          0.0000
    404  C6        35.7100   14.4370   61.6980 C.ar    7  A7          0.0000
    405  N6        34.6600   14.2340   60.8970 N.pl3   7  A7          0.0000
    406  N7        34.8160   16.3640   63.1180 N.ar    7  A7          0.0000
    407  C8        35.4100   16.9600   64.1240 C.ar    7  A7          0.0000
    408  N9        36.6580   16.4560   64.4060 N.ar    7  A7          0.0000
    409  OP1       34.1480   22.0080   66.1380 O.3     7  A7         -0.5000
    410  OP2       33.1100   20.1920   64.6390 O.co2   7  A7         -0.5000
    411  P         39.3450   21.0790   64.0760 P.3     8  G8          0.0000
    412  C5'       41.1860   19.5590   63.0010 C.3     8  G8          0.0000
    413  O5'       39.8760   20.1170   62.9260 O.3     8  G8          0.0000
    414  C4'       41.3660   18.5140   61.9320 C.3     8  G8          0.0000
    415  O4'       40.3050   17.5350   62.0700 O.3     8  G8          0.0000
    416  C3'       41.2550   18.9960   60.4940 C.3     8  G8          0.0000
    417  O3'       42.5140   19.4840   60.0300 O.3     8  G8          0.0000
    418  C2'       40.8490   17.7230   59.7710 C.3     8  G8          0.0000
    419  O2'       41.9590   16.8670   59.5920 O.3     8  G8          0.0000
    420  C1'       39.9000   17.0910   60.7910 C.3     8  G8          0.0000
    421  N1        35.5750   15.9850   58.3990 N.ar    8  G8          0.0000
    422  C2        36.8080   15.3910   58.2960 C.ar    8  G8          0.0000
    423  N2        36.8940   14.3450   57.4530 N.pl3   8  G8          0.0000
    424  N3        37.8780   15.7860   58.9690 N.ar    8  G8          0.0000
    425  C4        37.6080   16.8370   59.7730 C.ar    8  G8          0.0000
    426  C5        36.4140   17.5010   59.9530 C.ar    8  G8          0.0000
    427  C6        35.2730   17.0650   59.2220 C.ar    8  G8          0.0000
    428  O6        34.1220   17.5130   59.2490 O.2     8  G8          0.0000
    429  N7        36.5560   18.5290   60.8750 N.ar    8  G8          0.0000
    430  C8        37.8110   18.4700   61.2310 C.ar    8  G8          0.0000
    431  N9        38.5010   17.4590   60.6060 N.ar    8  G8          0.0000
    432  OP1       40.4550   21.9930   64.4280 O.3     8  G8         -0.5000
    433  OP2       38.0230   21.6320   63.6750 O.co2   8  G8         -0.5000
    434  P         42.6970   19.8860   58.4800 P.3     9  A9          0.0000
    435  C5'       44.5410   18.0380   58.1590 C.3     9  A9          0.0000
    436  O5'       43.2560   18.5510   57.8150 O.3     9  A9          0.0000
    437  C4'       44.9470   16.9710   57.1730 C.3     9  A9          0.0000
    438  O4'       44.0820   15.8180   57.3210 O.3     9  A9          0.0000
    439  C3'       44.8390   17.3560   55.7070 C.3     9  A9          0.0000
    440  O3'       46.0450   17.9970   55.3130 O.3     9  A9          0.0000
    441  C2'       44.6810   15.9960   55.0310 C.3     9  A9          0.0000
    442  O2'       45.8960   15.2960   54.8600 O.3     9  A9          0.0000
    443  C1'       43.8240   15.2450   56.0520 C.3     9  A9          0.0000
    444  N1        39.7890   13.6400   53.2710 N.ar    9  A9          0.0000
    445  C2        41.0910   13.3460   53.2030 C.ar    9  A9          0.0000
    446  N3        42.0990   13.8040   53.9420 N.ar    9  A9          0.0000
    447  C4        41.6520   14.6800   54.8590 C.ar    9  A9          0.0000
    448  C5        40.3430   15.0860   55.0450 C.ar    9  A9          0.0000
    449  C6        39.3760   14.5250   54.2010 C.ar    9  A9          0.0000
    450  N6        38.0770   14.8170   54.2710 N.pl3   9  A9          0.0000
    451  N7        40.2550   16.0060   56.0800 N.ar    9  A9          0.0000
    452  C8        41.4890   16.1270   56.4960 C.ar    9  A9          0.0000
    453  N9        42.3870   15.3490   55.8080 N.ar    9  A9          0.0000
    454  OP1       43.7590   20.9180   58.3650 O.3     9  A9         -0.5000
    455  OP2       41.3430   20.1600   57.9230 O.co2   9  A9         -0.5000
    456  P         46.0150   19.1840   54.2310 P.3    10  A10         0.0000
    457  C5'       46.3200   17.5770   52.1860 C.3    10  A10         0.0000
    458  O5'       45.4970   18.4940   52.8960 O.3    10  A10         0.0000
    459  C4'       45.5320   16.9260   51.0790 C.3    10  A10         0.0000
    460  O4'       44.5270   16.0490   51.6490 O.3    10  A10         0.0000
    461  C3'       44.7410   17.8780   50.2070 C.3    10  A10         0.0000
    462  O3'       45.5460   18.4320   49.1840 O.3    10  A10         0.0000
    463  C2'       43.6610   16.9700   49.6500 C.3    10  A10         0.0000
    464  O2'       44.1390   16.1460   48.6170 O.3    10  A10         0.0000
    465  C1'       43.3540   16.1000   50.8610 C.3    10  A10         0.0000
    466  N1        38.3060   16.6920   51.3330 N.ar   10  A10         0.0000
    467  C2        39.0630   16.0610   50.4280 C.ar   10  A10         0.0000
    468  N3        40.3810   15.9510   50.3660 N.ar   10  A10         0.0000
    469  C4        40.9520   16.5980   51.3920 C.ar   10  A10         0.0000
    470  C5        40.3130   17.2970   52.3940 C.ar   10  A10         0.0000
    471  C6        38.9150   17.3300   52.3500 C.ar   10  A10         0.0000
    472  N6        38.1590   17.9470   53.2570 N.pl3  10  A10         0.0000
    473  N7        41.2340   17.8430   53.2750 N.ar   10  A10         0.0000
    474  C8        42.3910   17.4580   52.7960 C.ar   10  A10         0.0000
    475  N9        42.2920   16.6980   51.6610 N.ar   10  A10         0.0000
    476  OP1       47.4280   19.5850   54.0210 O.2    10  A10        -0.5000
    477  OP2       45.0130   20.1990   54.6370 O.co2  10  A10        -0.5000
    478  P         45.3140   19.9530   48.7390 P.3    11  G11         0.0000
    479  C5'       43.6510   19.1260   46.8860 C.3    11  G11         0.0000
    480  O5'       43.8800   19.9310   48.0410 O.3    11  G11         0.0000
    481  C4'       42.1890   19.1310   46.5050 C.3    11  G11         0.0000
    482  O4'       41.4120   18.4500   47.5240 O.3    11  G11         0.0000
    483  C3'       41.5440   20.4930   46.4110 C.3    11  G11         0.0000
    484  O3'       41.8030   21.1240   45.1760 O.3    11  G11         0.0000
    485  C2'       40.0720   20.1680   46.6090 C.3    11  G11         0.0000
    486  O2'       39.4760   19.6290   45.4460 O.3    11  G11         0.0000
    487  C1'       40.1540   19.0860   47.6790 C.3    11  G11         0.0000
    488  N1        37.1740   20.8250   51.4170 N.ar   11  G11         0.0000
    489  C2        36.8240   20.3360   50.1840 C.ar   11  G11         0.0000
    490  N2        35.5150   20.2970   49.9160 N.pl3  11  G11         0.0000
    491  N3        37.6930   19.9160   49.2810 N.ar   11  G11         0.0000
    492  C4        38.9620   20.0110   49.7220 C.ar   11  G11         0.0000
    493  C5        39.4160   20.4830   50.9370 C.ar   11  G11         0.0000
    494  C6        38.4740   20.9510   51.8860 C.ar   11  G11         0.0000
    495  O6        38.6840   21.4400   53.0040 O.2    11  G11         0.0000
    496  N7        40.8000   20.4080   51.0080 N.ar   11  G11         0.0000
    497  C8        41.1570   19.9050   49.8570 C.ar   11  G11         0.0000
    498  N9        40.0940   19.6420   49.0290 N.ar   11  G11         0.0000
    499  OP1       46.3220   20.3170   47.7120 O.2    11  G11        -0.5000
    500  OP2       45.2430   20.7240   50.0060 O.co2  11  G11        -0.5000
    501  P         41.7140   22.7210   45.0890 P.3    12  G12         0.0000
    502  C5'       39.2930   22.7410   44.1290 C.3    12  G12         0.0000
    503  O5'       40.1540   23.0280   45.2210 O.3    12  G12         0.0000
    504  C4'       37.8440   22.9850   44.4740 C.3    12  G12         0.0000
    505  O4'       37.4850   22.1880   45.6300 O.3    12  G12         0.0000
    506  C3'       37.4420   24.3990   44.8630 C.3    12  G12         0.0000
    507  O3'       37.2290   25.2150   43.7180 O.3    12  G12         0.0000
    508  C2'       36.1600   24.1410   45.6380 C.3    12  G12         0.0000
    509  O2'       35.0930   23.8060   44.7730 O.3    12  G12         0.0000
    510  C1'       36.5400   22.8890   46.4150 C.3    12  G12         0.0000
    511  N1        35.7600   24.6270   51.0940 N.ar   12  G12         0.0000
    512  C2        34.8590   24.3760   50.0940 C.ar   12  G12         0.0000
    513  N2        33.5780   24.6380   50.3710 N.pl3  12  G12         0.0000
    514  N3        35.1880   23.9080   48.9060 N.ar   12  G12         0.0000
    515  C4        36.5170   23.7180   48.7900 C.ar   12  G12         0.0000
    516  C5        37.5020   23.9440   49.7240 C.ar   12  G12         0.0000
    517  C6        37.1350   24.4390   50.9980 C.ar   12  G12         0.0000
    518  O6        37.8650   24.7010   51.9640 O.2    12  G12         0.0000
    519  N7        38.7520   23.6270   49.2050 N.ar   12  G12         0.0000
    520  C8        38.5010   23.2190   47.9910 C.ar   12  G12         0.0000
    521  N9        37.1650   23.2530   47.6770 N.ar   12  G12         0.0000
    522  OP1       42.1210   23.1200   43.7220 O.2    12  G12        -0.5000
    523  OP2       42.4470   23.2560   46.2660 O.co2  12  G12        -0.5000
    524  P         37.4860   26.7990   43.8030 P.3    13  G13         0.0000
    525  C5'       34.9890   27.0820   44.4610 C.3    13  G13         0.0000
    526  O5'       36.3490   27.3030   44.7910 O.3    13  G13         0.0000
    527  C4'       34.0930   27.5310   45.5800 C.3    13  G13         0.0000
    528  O4'       34.3780   26.7470   46.7650 O.3    13  G13         0.0000
    529  C3'       34.3120   28.9620   46.0310 C.3    13  G13         0.0000
    530  O3'       33.6140   29.8550   45.1600 O.3    13  G13         0.0000
    531  C2'       33.7480   28.9240   47.4470 C.3    13  G13         0.0000
    532  O2'       32.3390   28.9130   47.4700 O.3    13  G13         0.0000
    533  C1'       34.1950   27.5470   47.9160 C.3    13  G13         0.0000
    534  N1        36.1740   28.6020   52.4490 N.ar   13  G13         0.0000
    535  C2        34.8770   28.6900   52.0150 C.ar   13  G13         0.0000
    536  N2        33.9850   29.1120   52.9230 N.pl3  13  G13         0.0000
    537  N3        34.4820   28.3830   50.7880 N.ar   13  G13         0.0000
    538  C4        35.5100   27.9700   50.0190 C.ar   13  G13         0.0000
    539  C5        36.8400   27.8400   50.3530 C.ar   13  G13         0.0000
    540  C6        37.2470   28.1730   51.6770 C.ar   13  G13         0.0000
    541  O6        38.3770   28.1140   52.1780 O.2    13  G13         0.0000
    542  N7        37.5800   27.3790   49.2710 N.ar   13  G13         0.0000
    543  C8        36.6980   27.2380   48.3150 C.ar   13  G13         0.0000
    544  N9        35.4230   27.5780   48.7040 N.ar   13  G13         0.0000
    545  OP1       37.1630   27.3430   42.4620 O.2    13  G13        -0.5000
    546  OP2       38.8250   27.0650   44.4120 O.co2  13  G13        -0.5000
    547  P         26.8880   35.7830   48.4790 P.3    15  G15         0.0000
    548  C5'       26.5480   36.7710   50.8670 C.3    15  G15         0.0000
    549  O5'       25.9980   36.0730   49.7610 O.3    15  G15         0.0000
    550  C4'       25.4810   37.0390   51.8850 C.3    15  G15         0.0000
    551  O4'       24.6460   38.1330   51.4380 O.3    15  G15         0.0000
    552  C3'       24.5200   35.8910   52.1180 C.3    15  G15         0.0000
    553  O3'       25.0790   34.9850   53.0560 O.3    15  G15         0.0000
    554  C2'       23.3050   36.6190   52.6690 C.3    15  G15         0.0000
    555  O2'       23.5060   36.9730   54.0190 O.3    15  G15         0.0000
    556  C1'       23.3080   37.8930   51.8230 C.3    15  G15         0.0000
    557  N1        18.6420   37.8080   49.8250 N.ar   15  G15         0.0000
    558  C2        19.0200   37.8970   51.1390 C.ar   15  G15         0.0000
    559  N2        18.0320   37.9620   52.0380 N.pl3  15  G15         0.0000
    560  N3        20.2740   37.9130   51.5450 N.ar   15  G15         0.0000
    561  C4        21.1410   37.8140   50.5130 C.ar   15  G15         0.0000
    562  C5        20.8640   37.7130   49.1660 C.ar   15  G15         0.0000
    563  C6        19.5130   37.7140   48.7470 C.ar   15  G15         0.0000
    564  O6        19.0650   37.6470   47.6020 O.2    15  G15         0.0000
    565  N7        22.0380   37.6230   48.4280 N.ar   15  G15         0.0000
    566  C8        22.9860   37.6750   49.3220 C.ar   15  G15         0.0000
    567  N9        22.5120   37.7950   50.6040 N.ar   15  G15         0.0000
    568  OP1       25.9890   35.7970   47.2960 O.3    15  G15         0.0000
    569  OP2       27.7270   34.5830   48.7520 O.co2  15  G15        -1.0000
    570  P         24.7260   33.4180   52.9730 P.3    16  G16         0.0000
    571  C5'       23.1200   33.6590   55.0270 C.3    16  G16         0.0000
    572  O5'       23.3000   33.3130   53.6610 O.3    16  G16         0.0000
    573  C4'       21.6610   33.5770   55.3720 C.3    16  G16         0.0000
    574  O4'       20.9590   34.6710   54.7280 O.3    16  G16         0.0000
    575  C3'       20.9670   32.3290   54.8630 C.3    16  G16         0.0000
    576  O3'       21.1460   31.2290   55.7500 O.3    16  G16         0.0000
    577  C2'       19.5210   32.7920   54.7890 C.3    16  G16         0.0000
    578  O2'       18.9390   32.8240   56.0760 O.3    16  G16         0.0000
    579  C1'       19.6910   34.2260   54.2800 C.3    16  G16         0.0000
    580  N1        16.8320   34.6860   50.0840 N.ar   16  G16         0.0000
    581  C2        16.4390   34.5810   51.3960 C.ar   16  G16         0.0000
    582  N2        15.1210   34.6070   51.6210 N.pl3  16  G16         0.0000
    583  N3        17.2760   34.4600   52.4140 N.ar   16  G16         0.0000
    584  C4        18.5640   34.4480   52.0080 C.ar   16  G16         0.0000
    585  C5        19.0610   34.5440   50.7230 C.ar   16  G16         0.0000
    586  C6        18.1490   34.6770   49.6410 C.ar   16  G16         0.0000
    587  O6        18.3920   34.7800   48.4340 O.2    16  G16         0.0000
    588  N7        20.4470   34.4870   50.7260 N.ar   16  G16         0.0000
    589  C8        20.7630   34.3650   51.9880 C.ar   16  G16         0.0000
    590  N9        19.6720   34.3380   52.8220 N.ar   16  G16         0.0000
    591  OP1       25.7030   32.7150   53.8390 O.3    16  G16        -0.5000
    592  OP2       24.5590   32.9960   51.5590 O.co2  16  G16        -0.5000
    593  P         21.0470   29.7230   55.1840 P.3    17  C17         0.0000
    594  C5'       18.4980   29.5950   55.7150 C.3    17  C17         0.0000
    595  O5'       19.5280   29.5740   54.7410 O.3    17  C17         0.0000
    596  C4'       17.1460   29.5440   55.0550 C.3    17  C17         0.0000
    597  O4'       16.9340   30.7760   54.3160 O.3    17  C17         0.0000
    598  C3'       16.9680   28.4620   54.0040 C.3    17  C17         0.0000
    599  O3'       16.6610   27.1890   54.5550 O.3    17  C17         0.0000
    600  C2'       15.8190   29.0220   53.1870 C.3    17  C17         0.0000
    601  O2'       14.5990   28.8750   53.8860 O.3    17  C17         0.0000
    602  C1'       16.1830   30.5030   53.1470 C.3    17  C17         0.0000
    603  N1        17.0010   30.8200   51.9680 N.ar   17  C17         0.0000
    604  C2        16.3690   30.9520   50.7310 C.ar   17  C17         0.0000
    605  O2        15.1400   30.8160   50.6700 O.2    17  C17         0.0000
    606  N3        17.1060   31.2230   49.6350 N.ar   17  C17         0.0000
    607  C4        18.4230   31.3580   49.7380 C.ar   17  C17         0.0000
    608  N4        19.1080   31.6150   48.6270 N.pl3  17  C17         0.0000
    609  C5        19.0960   31.2360   50.9860 C.ar   17  C17         0.0000
    610  C6        18.3520   30.9710   52.0670 C.ar   17  C17         0.0000
    611  OP1       21.2690   28.7780   56.3070 O.3    17  C17        -0.5000
    612  OP2       21.8830   29.6220   53.9640 O.co2  17  C17        -0.5000
    613  P         17.1480   25.8560   53.7950 P.3    18  A18         0.0000
    614  C5'       14.8150   25.5580   52.6620 C.3    18  A18         0.0000
    615  O5'       16.2080   25.7760   52.5130 O.3    18  A18         0.0000
    616  C4'       14.1070   25.6580   51.3330 C.3    18  A18         0.0000
    617  O4'       14.2650   27.0030   50.8040 O.3    18  A18         0.0000
    618  C3'       14.6710   24.7860   50.2270 C.3    18  A18         0.0000
    619  O3'       14.2000   23.4560   50.2880 O.3    18  A18         0.0000
    620  C2'       14.1680   25.4930   48.9840 C.3    18  A18         0.0000
    621  O2'       12.7990   25.2290   48.7750 O.3    18  A18         0.0000
    622  C1'       14.3280   26.9510   49.3910 C.3    18  A18         0.0000
    623  N1        16.9240   28.5980   45.3320 N.ar   18  A18         0.0000
    624  C2        15.6790   28.1420   45.4860 C.ar   18  A18         0.0000
    625  N3        15.0680   27.7260   46.5880 N.ar   18  A18         0.0000
    626  C4        15.8940   27.8120   47.6440 C.ar   18  A18         0.0000
    627  C5        17.1980   28.2560   47.6430 C.ar   18  A18         0.0000
    628  C6        17.7250   28.6680   46.4160 C.ar   18  A18         0.0000
    629  N6        18.9670   29.1220   46.2630 N.pl3  18  A18         0.0000
    630  N7        17.7360   28.2010   48.9210 N.ar   18  A18         0.0000
    631  C8        16.7540   27.7320   49.6540 C.ar   18  A18         0.0000
    632  N9        15.6110   27.4770   48.9430 N.ar   18  A18         0.0000
    633  OP1       16.8520   24.7010   54.6810 O.3    18  A18        -0.5000
    634  OP2       18.5330   26.0730   53.3050 O.co2  18  A18        -0.5000
    635  P         15.1000   22.2770   49.6780 P.3    19  G19         0.0000
    636  C5'       13.6550   22.2670   47.4910 C.3    19  G19         0.0000
    637  O5'       14.9290   22.4350   48.0990 O.3    19  G19         0.0000
    638  C4'       13.7130   22.5420   46.0020 C.3    19  G19         0.0000
    639  O4'       14.0820   23.9280   45.7750 O.3    19  G19         0.0000
    640  C3'       14.7650   21.7710   45.2230 C.3    19  G19         0.0000
    641  O3'       14.3300   20.4690   44.8770 O.3    19  G19         0.0000
    642  C2'       14.9580   22.6350   43.9880 C.3    19  G19         0.0000
    643  O2'       13.9320   22.4630   43.0390 O.3    19  G19         0.0000
    644  C1'       14.8390   24.0310   44.5810 C.3    19  G19         0.0000
    645  N1        18.9850   26.1840   42.6820 N.ar   19  G19         0.0000
    646  C2        17.8610   25.7390   42.0400 C.ar   19  G19         0.0000
    647  N2        17.8480   25.8790   40.7050 N.pl3  19  G19         0.0000
    648  N3        16.8300   25.1920   42.6550 N.ar   19  G19         0.0000
    649  C4        17.0230   25.1140   43.9840 C.ar   19  G19         0.0000
    650  C5        18.1090   25.5210   44.7240 C.ar   19  G19         0.0000
    651  C6        19.2040   26.1170   44.0520 C.ar   19  G19         0.0000
    652  O6        20.2590   26.5540   44.5320 O.2    19  G19         0.0000
    653  N7        17.9170   25.2550   46.0720 N.ar   19  G19         0.0000
    654  C8        16.7340   24.7050   46.1240 C.ar   19  G19         0.0000
    655  N9        16.1430   24.5930   44.8930 N.ar   19  G19         0.0000
    656  OP1       14.4830   21.0040   50.1350 O.3    19  G19        -0.5000
    657  OP2       16.5230   22.5580   49.9890 O.co2  19  G19        -0.5000
    658  P         15.4020   19.2790   44.8160 P.3    20  A20         0.0000
    659  C5'       15.8610   19.7960   42.2980 C.3    20  A20         0.0000
    660  O5'       16.3700   19.7090   43.6240 O.3    20  A20         0.0000
    661  C4'       16.8670   20.4190   41.3560 C.3    20  A20         0.0000
    662  O4'       17.1510   21.7850   41.7710 O.3    20  A20         0.0000
    663  C3'       18.2350   19.7630   41.3210 C.3    20  A20         0.0000
    664  O3'       18.2620   18.5910   40.5200 O.3    20  A20         0.0000
    665  C2'       19.1250   20.8870   40.7940 C.3    20  A20         0.0000
    666  O2'       19.1170   21.0760   39.3910 O.3    20  A20         0.0000
    667  C1'       18.5060   22.1010   41.4820 C.3    20  A20         0.0000
    668  N1        22.7290   24.1900   43.4570 N.ar   20  A20         0.0000
    669  C2        22.3050   24.0220   42.2000 C.ar   20  A20         0.0000
    670  N3        21.1800   23.4660   41.7600 N.ar   20  A20         0.0000
    671  C4        20.4290   23.0420   42.7910 C.ar   20  A20         0.0000
    672  C5        20.7290   23.1390   44.1350 C.ar   20  A20         0.0000
    673  C6        21.9450   23.7520   44.4690 C.ar   20  A20         0.0000
    674  N6        22.3630   23.9260   45.7250 N.pl3  20  A20         0.0000
    675  N7        19.7170   22.5890   44.9090 N.ar   20  A20         0.0000
    676  C8        18.8360   22.1800   44.0280 C.ar   20  A20         0.0000
    677  N9        19.2060   22.4210   42.7270 N.ar   20  A20         0.0000
    678  OP1       14.6920   18.0330   44.4280 O.2    20  A20        -0.5000
    679  OP2       16.1400   19.3340   46.1050 O.co2  20  A20        -0.5000
    680  P         19.3200   17.4340   40.8620 P.3    21  G21         0.0000
    681  C5'       21.2290   18.6060   39.5230 C.3    21  G21         0.0000
    682  O5'       20.7160   18.1930   40.7840 O.3    21  G21         0.0000
    683  C4'       22.5910   19.2410   39.6760 C.3    21  G21         0.0000
    684  O4'       22.4720   20.4120   40.5210 O.3    21  G21         0.0000
    685  C3'       23.6680   18.4000   40.3490 C.3    21  G21         0.0000
    686  O3'       24.3320   17.5840   39.3970 O.3    21  G21         0.0000
    687  C2'       24.6210   19.4700   40.8590 C.3    21  G21         0.0000
    688  O2'       25.4250   19.9980   39.8250 O.3    21  G21         0.0000
    689  C1'       23.6450   20.5550   41.3000 C.3    21  G21         0.0000
    690  N1        24.8940   21.9300   46.0090 N.ar   21  G21         0.0000
    691  C2        25.5040   22.2420   44.8190 C.ar   21  G21         0.0000
    692  N2        26.5910   23.0150   44.8970 N.pl3  21  G21         0.0000
    693  N3        25.0770   21.8190   43.6430 N.ar   21  G21         0.0000
    694  C4        23.9740   21.0390   43.7530 C.ar   21  G21         0.0000
    695  C5        23.2930   20.6620   44.8920 C.ar   21  G21         0.0000
    696  C6        23.7610   21.1280   46.1490 C.ar   21  G21         0.0000
    697  O6        23.2970   20.9020   47.2770 O.2    21  G21         0.0000
    698  N7        22.2110   19.8490   44.5760 N.ar   21  G21         0.0000
    699  C8        22.2530   19.7490   43.2740 C.ar   21  G21         0.0000
    700  N9        23.2960   20.4470   42.7130 N.ar   21  G21         0.0000
    701  OP1       19.3280   16.4320   39.7650 O.2    21  G21        -0.5000
    702  OP2       19.0690   16.9930   42.2610 O.co2  21  G21        -0.5000
    703  P         24.6800   16.0530   39.7440 P.3    22  A22         0.0000
    704  C5'       27.2460   15.8610   39.2220 C.3    22  A22         0.0000
    705  O5'       25.9010   15.7510   38.7710 O.3    22  A22         0.0000
    706  C4'       27.9750   16.9410   38.4540 C.3    22  A22         0.0000
    707  O4'       27.5680   18.2480   38.9500 O.3    22  A22         0.0000
    708  C3'       29.4810   16.9300   38.6560 C.3    22  A22         0.0000
    709  O3'       30.0910   15.9970   37.7680 O.3    22  A22         0.0000
    710  C2'       29.8670   18.3720   38.3450 C.3    22  A22         0.0000
    711  O2'       30.0320   18.6480   36.9690 O.3    22  A22         0.0000
    712  C1'       28.6770   19.1380   38.9290 C.3    22  A22         0.0000
    713  N1        31.5910   22.1000   41.9580 N.ar   22  A22         0.0000
    714  C2        31.5430   21.9470   40.6310 C.ar   22  A22         0.0000
    715  N3        30.7410   21.1730   39.8990 N.ar   22  A22         0.0000
    716  C4        29.8920   20.4900   40.6880 C.ar   22  A22         0.0000
    717  C5        29.8160   20.5490   42.0670 C.ar   22  A22         0.0000
    718  C6        30.7210   21.3960   42.7200 C.ar   22  A22         0.0000
    719  N6        30.7680   21.5340   44.0460 N.pl3  22  A22         0.0000
    720  N7        28.8140   19.7150   42.5400 N.ar   22  A22         0.0000
    721  C8        28.3230   19.1680   41.4550 C.ar   22  A22         0.0000
    722  N9        28.9380   19.5800   40.2990 N.ar   22  A22         0.0000
    723  OP1       23.5310   15.2110   39.3140 O.2    22  A22        -0.5000
    724  OP2       25.1760   15.9560   41.1430 O.co2  22  A22        -0.5000
    725  P         31.3800   15.1610   38.2470 P.3    23  A23         0.0000
    726  C5'       32.9140   17.0640   37.3080 C.3    23  A23         0.0000
    727  O5'       32.5010   16.2730   38.4120 O.3    23  A23         0.0000
    728  C4'       33.8630   18.1250   37.7860 C.3    23  A23         0.0000
    729  O4'       33.1490   19.0050   38.6870 O.3    23  A23         0.0000
    730  C3'       35.0370   17.6080   38.6040 C.3    23  A23         0.0000
    731  O3'       36.1150   17.2560   37.7400 O.3    23  A23         0.0000
    732  C2'       35.3930   18.8240   39.4500 C.3    23  A23         0.0000
    733  O2'       36.1690   19.7740   38.7530 O.3    23  A23         0.0000
    734  C1'       34.0100   19.4120   39.7370 C.3    23  A23         0.0000
    735  N1        34.0730   19.8080   44.8720 N.ar   23  A23         0.0000
    736  C2        34.7960   20.4090   43.9200 C.ar   23  A23         0.0000
    737  N3        34.7350   20.2630   42.5990 N.ar   23  A23         0.0000
    738  C4        33.7870   19.3680   42.2650 C.ar   23  A23         0.0000
    739  C5        32.9650   18.6730   43.1300 C.ar   23  A23         0.0000
    740  C6        33.1290   18.9170   44.5010 C.ar   23  A23         0.0000
    741  N6        32.4050   18.3200   45.4490 N.pl3  23  A23         0.0000
    742  N7        32.1080   17.8380   42.4290 N.ar   23  A23         0.0000
    743  C8        32.4260   18.0430   41.1750 C.ar   23  A23         0.0000
    744  N9        33.4330   18.9570   41.0010 N.ar   23  A23         0.0000
    745  OP1       31.7920   14.2730   37.1270 O.2    23  A23        -0.5000
    746  OP2       31.1190   14.5770   39.5920 O.co2  23  A23        -0.5000
    747  P         37.1920   16.1520   38.1970 P.3    24  A24         0.0000
    748  C5'       38.9140   17.8280   39.2750 C.3    24  A24         0.0000
    749  O5'       37.9370   16.8040   39.4440 O.3    24  A24         0.0000
    750  C4'       39.4020   18.2960   40.6250 C.3    24  A24         0.0000
    751  O4'       38.2840   18.8520   41.3630 O.3    24  A24         0.0000
    752  C3'       39.9420   17.2090   41.5320 C.3    24  A24         0.0000
    753  O3'       41.3050   16.9420   41.2450 O.3    24  A24         0.0000
    754  C2'       39.7410   17.8200   42.9110 C.3    24  A24         0.0000
    755  O2'       40.7110   18.8050   43.1910 O.3    24  A24         0.0000
    756  C1'       38.3900   18.5080   42.7330 C.3    24  A24         0.0000
    757  N1        35.2780   16.5840   46.3880 N.ar   24  A24         0.0000
    758  C2        36.3360   17.4020   46.4580 C.ar   24  A24         0.0000
    759  N3        37.1150   17.8640   45.4780 N.ar   24  A24         0.0000
    760  C4        36.7100   17.3860   44.2890 C.ar   24  A24         0.0000
    761  C5        35.6390   16.5330   44.0590 C.ar   24  A24         0.0000
    762  C6        34.8940   16.1260   45.1760 C.ar   24  A24         0.0000
    763  N6        33.8310   15.3200   45.1020 N.pl3  24  A24         0.0000
    764  N7        35.5180   16.2490   42.7080 N.ar   24  A24         0.0000
    765  C8        36.4970   16.9230   42.1570 C.ar   24  A24         0.0000
    766  N9        37.2550   17.6410   43.0520 N.ar   24  A24         0.0000
    767  OP1       38.1810   16.0190   37.0950 O.2    24  A24        -0.5000
    768  OP2       36.4690   14.9480   38.6910 O.co2  24  A24        -0.5000
    769  P         41.8750   15.4470   41.4170 P.3    25  C25         0.0000
    770  C5'       42.6610   15.9830   43.8540 C.3    25  C25         0.0000
    771  O5'       41.8540   15.1990   42.9900 O.3    25  C25         0.0000
    772  C4'       42.2070   15.8160   45.2780 C.3    25  C25         0.0000
    773  O4'       40.8060   16.1710   45.3580 O.3    25  C25         0.0000
    774  C3'       42.2430   14.3920   45.7990 C.3    25  C25         0.0000
    775  O3'       43.5430   14.0570   46.2620 O.3    25  C25         0.0000
    776  C2'       41.2190   14.4410   46.9240 C.3    25  C25         0.0000
    777  O2'       41.7060   15.0410   48.1030 O.3    25  C25         0.0000
    778  C1'       40.1670   15.3620   46.3220 C.3    25  C25         0.0000
    779  N1        39.0640   14.6420   45.6830 N.ar   25  C25         0.0000
    780  C2        38.0990   14.0910   46.5020 C.ar   25  C25         0.0000
    781  O2        38.2280   14.2160   47.7240 O.2    25  C25         0.0000
    782  N3        37.0520   13.4370   45.9530 N.ar   25  C25         0.0000
    783  C4        36.9590   13.3260   44.6290 C.ar   25  C25         0.0000
    784  N4        35.9040   12.6850   44.1270 N.pl3  25  C25         0.0000
    785  C5        37.9430   13.8730   43.7610 C.ar   25  C25         0.0000
    786  C6        38.9730   14.5180   44.3270 C.ar   25  C25         0.0000
    787  OP1       43.2960   15.4850   40.9820 O.3    25  C25        -0.5000
    788  OP2       40.9280   14.4920   40.7800 O.co2  25  C25        -0.5000
    789  P         44.0240   12.5240   46.2490 P.3    26  A26         0.0000
    790  C5'       43.6100   12.1280   48.8070 C.3    26  A26         0.0000
    791  O5'       43.2390   11.8590   47.4620 O.3    26  A26         0.0000
    792  C4'       42.6250   11.4870   49.7440 C.3    26  A26         0.0000
    793  O4'       41.3040   11.9560   49.3790 O.3    26  A26         0.0000
    794  C3'       42.5010    9.9790   49.6250 C.3    26  A26         0.0000
    795  O3'       43.4690    9.2630   50.3710 O.3    26  A26         0.0000
    796  C2'       41.1010    9.7310   50.1570 C.3    26  A26         0.0000
    797  O2'       41.0640    9.8260   51.5660 O.3    26  A26         0.0000
    798  C1'       40.3560   10.9150   49.5550 C.3    26  A26         0.0000
    799  N1        36.4210    8.7360   47.0320 N.ar   26  A26         0.0000
    800  C2        36.7680    8.7310   48.3310 C.ar   26  A26         0.0000
    801  N3        37.8260    9.2830   48.9240 N.ar   26  A26         0.0000
    802  C4        38.5990    9.9080   48.0170 C.ar   26  A26         0.0000
    803  C5        38.3800    9.9890   46.6490 C.ar   26  A26         0.0000
    804  C6        37.2250    9.3720   46.1490 C.ar   26  A26         0.0000
    805  N6        36.8830    9.3860   44.8510 N.pl3  26  A26         0.0000
    806  N7        39.3930   10.7020   46.0270 N.ar   26  A26         0.0000
    807  C8        40.1820   11.0510   47.0160 C.ar   26  A26         0.0000
    808  N9        39.7490   10.6270   48.2510 N.ar   26  A26         0.0000
    809  OP1       45.4720   12.5190   46.5820 O.3    26  A26        -0.5000
    810  OP2       43.5460   11.8820   44.9930 O.co2  26  A26        -0.5000
    811  P         43.9940    7.8480   49.8140 P.3    27  C27         0.0000
    812  C5'       42.2150    6.4970   51.2100 C.3    27  C27         0.0000
    813  O5'       42.7400    6.8650   49.9380 O.3    27  C27         0.0000
    814  C4'       40.8620    5.8170   51.0710 C.3    27  C27         0.0000
    815  O4'       39.9550    6.6820   50.3280 O.3    27  C27         0.0000
    816  C3'       40.8360    4.5270   50.2700 C.3    27  C27         0.0000
    817  O3'       41.3010    3.4180   51.0220 O.3    27  C27         0.0000
    818  C2'       39.3730    4.4340   49.8440 C.3    27  C27         0.0000
    819  O2'       38.4890    4.0170   50.8650 O.3    27  C27         0.0000
    820  C1'       39.0670    5.8940   49.5450 C.3    27  C27         0.0000
    821  N1        39.2180    6.2330   48.1200 N.ar   27  C27         0.0000
    822  C2        38.1680    5.9190   47.2540 C.ar   27  C27         0.0000
    823  O2        37.1690    5.3310   47.7130 O.2    27  C27         0.0000
    824  N3        38.2630    6.2650   45.9420 N.ar   27  C27         0.0000
    825  C4        39.3540    6.8970   45.4930 C.ar   27  C27         0.0000
    826  N4        39.3850    7.2660   44.2020 N.pl3  27  C27         0.0000
    827  C5        40.4550    7.1960   46.3490 C.ar   27  C27         0.0000
    828  C6        40.3450    6.8490   47.6440 C.ar   27  C27         0.0000
    829  OP1       45.0870    7.4020   50.7120 O.3    27  C27        -0.5000
    830  OP2       44.2530    8.0240   48.3600 O.co2  27  C27        -0.5000
    831  P         42.1610    2.2700   50.2910 P.3    28  A28         0.0000
    832  C5'       40.0390    0.7510   50.2520 C.3    28  A28         0.0000
    833  O5'       41.0470    1.4330   49.5170 O.3    28  A28         0.0000
    834  C4'       38.9740    0.2040   49.3360 C.3    28  A28         0.0000
    835  O4'       38.2870    1.3080   48.6940 O.3    28  A28         0.0000
    836  C3'       39.4420   -0.6690   48.1840 C.3    28  A28         0.0000
    837  O3'       39.6690   -2.0170   48.5870 O.3    28  A28         0.0000
    838  C2'       38.2750   -0.5330   47.2160 C.3    28  A28         0.0000
    839  O2'       37.1600   -1.2660   47.6790 O.3    28  A28         0.0000
    840  C1'       37.9370    0.9480   47.3680 C.3    28  A28         0.0000
    841  N1        38.0570    3.1540   42.7110 N.ar   28  A28         0.0000
    842  C2        37.1750    2.3310   43.2880 C.ar   28  A28         0.0000
    843  N3        37.2040    1.7800   44.5000 N.ar   28  A28         0.0000
    844  C4        38.3090    2.1590   45.1650 C.ar   28  A28         0.0000
    845  C5        39.3080    2.9960   44.7000 C.ar   28  A28         0.0000
    846  C6        39.1590    3.5100   43.4050 C.ar   28  A28         0.0000
    847  N6        40.0420    4.3240   42.8260 N.pl3  28  A28         0.0000
    848  N7        40.2970    3.1630   45.6570 N.ar   28  A28         0.0000
    849  C8        39.8810    2.4370   46.6680 C.ar   28  A28         0.0000
    850  N9        38.6810    1.8070   46.4420 N.ar   28  A28         0.0000
    851  OP1       42.7060    1.4160   51.3730 O.3    28  A28        -0.5000
    852  OP2       43.0910    2.8770   49.3030 O.co2  28  A28        -0.5000
    853  P         40.8480   -2.8760   47.8930 P.3    29  C29         0.0000
    854  C5'       39.1450   -4.0180   46.2720 C.3    29  C29         0.0000
    855  O5'       40.2910   -3.1890   46.4320 O.3    29  C29         0.0000
    856  C4'       38.5710   -3.9050   44.8750 C.3    29  C29         0.0000
    857  O4'       38.1330   -2.5390   44.6340 O.3    29  C29         0.0000
    858  C3'       39.5230   -4.1920   43.7240 C.3    29  C29         0.0000
    859  O3'       39.6360   -5.5830   43.4680 O.3    29  C29         0.0000
    860  C2'       38.8430   -3.4640   42.5730 C.3    29  C29         0.0000
    861  O2'       37.7420   -4.1820   42.0560 O.3    29  C29         0.0000
    862  C1'       38.3350   -2.2030   43.2700 C.3    29  C29         0.0000
    863  N1        39.3470   -1.1400   43.1720 N.ar   29  C29         0.0000
    864  C2        39.3900   -0.3620   42.0070 C.ar   29  C29         0.0000
    865  O2        38.5190   -0.5370   41.1280 O.2    29  C29         0.0000
    866  N3        40.3730    0.5570   41.8670 N.ar   29  C29         0.0000
    867  C4        41.2730    0.7270   42.8420 C.ar   29  C29         0.0000
    868  N4        42.2430    1.6270   42.6550 N.pl3  29  C29         0.0000
    869  C5        41.2250   -0.0220   44.0480 C.ar   29  C29         0.0000
    870  C6        40.2540   -0.9320   44.1730 C.ar   29  C29         0.0000
    871  OP1       40.9260   -4.1560   48.6400 O.3    29  C29        -0.5000
    872  OP2       42.0650   -2.0320   47.7630 O.co2  29  C29        -0.5000
    873  P         40.9900   -6.1750   42.8270 P.3    30  G30         0.0000
    874  C5'       39.8590   -6.1430   40.4740 C.3    30  G30         0.0000
    875  O5'       40.9330   -5.7140   41.3010 O.3    30  G30         0.0000
    876  C4'       39.8920   -5.4700   39.1200 C.3    30  G30         0.0000
    877  O4'       39.5170   -4.0710   39.2520 O.3    30  G30         0.0000
    878  C3'       41.2260   -5.4310   38.3890 C.3    30  G30         0.0000
    879  O3'       41.5190   -6.6530   37.7220 O.3    30  G30         0.0000
    880  C2'       41.0020   -4.2710   37.4280 C.3    30  G30         0.0000
    881  O2'       40.1380   -4.6410   36.3760 O.3    30  G30         0.0000
    882  C1'       40.2460   -3.2910   38.3190 C.3    30  G30         0.0000
    883  N1        43.4420    0.6240   38.0070 N.ar   30  G30         0.0000
    884  C2        42.5930    0.1140   37.0630 C.ar   30  G30         0.0000
    885  N2        42.6250    0.7000   35.8630 N.pl3  30  G30         0.0000
    886  N3        41.7760   -0.8970   37.2740 N.ar   30  G30         0.0000
    887  C4        41.8860   -1.3800   38.5280 C.ar   30  G30         0.0000
    888  C5        42.7020   -0.9470   39.5460 C.ar   30  G30         0.0000
    889  C6        43.5690    0.1490   39.3050 C.ar   30  G30         0.0000
    890  O6        44.3690    0.6830   40.0800 O.2    30  G30         0.0000
    891  N7        42.5180   -1.7170   40.6880 N.ar   30  G30         0.0000
    892  C8        41.6100   -2.5880   40.3440 C.ar   30  G30         0.0000
    893  N9        41.1950   -2.4530   39.0410 N.ar   30  G30         0.0000
    894  OP1       40.8290   -7.6470   42.8720 O.2    30  G30        -0.5000
    895  OP2       42.1640   -5.5430   43.4820 O.co2  30  G30        -0.5000
    896  P         43.0450   -7.1590   37.6030 P.3    31  A31         0.0000
    897  C5'       43.3120   -5.8670   35.3580 C.3    31  A31         0.0000
    898  O5'       43.7530   -6.0600   36.6930 O.3    31  A31         0.0000
    899  C4'       44.0940   -4.7780   34.6650 C.3    31  A31         0.0000
    900  O4'       43.7310   -3.4880   35.2170 O.3    31  A31         0.0000
    901  C3'       45.6050   -4.8230   34.8260 C.3    31  A31         0.0000
    902  O3'       46.3240   -5.7780   34.0610 O.3    31  A31         0.0000
    903  C2'       45.9940   -3.3890   34.5160 C.3    31  A31         0.0000
    904  O2'       45.9780   -3.1200   33.1300 O.3    31  A31         0.0000
    905  C1'       44.8560   -2.6270   35.1850 C.3    31  A31         0.0000
    906  N1        47.4090    0.7160   38.0120 N.ar   31  A31         0.0000
    907  C2        47.0370    0.7130   36.7370 C.ar   31  A31         0.0000
    908  N3        46.3200   -0.1800   36.0780 N.ar   31  A31         0.0000
    909  C4        45.9620   -1.1860   36.8870 C.ar   31  A31         0.0000
    910  C5        46.2550   -1.3210   38.2210 C.ar   31  A31         0.0000
    911  C6        47.0260   -0.3090   38.7990 C.ar   31  A31         0.0000
    912  N6        47.4060   -0.3080   40.0770 N.pl3  31  A31         0.0000
    913  N7        45.7060   -2.4910   38.7290 N.ar   31  A31         0.0000
    914  C8        45.1160   -3.0320   37.6950 C.ar   31  A31         0.0000
    915  N9        45.2620   -2.3090   36.5430 N.ar   31  A31         0.0000
    916  OP1       42.9530   -8.4080   36.8190 O.2    31  A31        -0.5000
    917  OP2       43.6980   -7.1730   38.9360 O.co2  31  A31        -0.5000
    918  C5'       50.7790    9.2150   39.0750 C.3    31  U31         0.0000
    919  O5'       49.6560    8.9390   39.9250 O.3    31  U31         0.0000
    920  C4'       50.5910    8.5590   37.7310 C.3    31  U31         0.0000
    921  O4'       51.2130    7.2500   37.7510 O.3    31  U31         0.0000
    922  C3'       49.1490    8.3020   37.3240 C.3    31  U31         0.0000
    923  O3'       48.5530    9.4490   36.7250 O.3    31  U31         0.0000
    924  C2'       49.3060    7.1480   36.3450 C.3    31  U31         0.0000
    925  O2'       49.7410    7.5910   35.0770 O.3    31  U31         0.0000
    926  C1'       50.4190    6.3340   37.0160 C.3    31  U31         0.0000
    927  N1        49.9180    5.3280   37.9660 N.ar   31  U31         0.0000
    928  C2        49.2580    4.2120   37.4750 C.ar   31  U31         0.0000
    929  O2        49.0840    4.0060   36.2840 O.2    31  U31         0.0000
    930  N3        48.8090    3.3430   38.4360 N.ar   31  U31         0.0000
    931  C4        48.9520    3.4660   39.8010 C.ar   31  U31         0.0000
    932  O4        48.4530    2.6220   40.5410 O.2    31  U31         0.0000
    933  C5        49.6550    4.6280   40.2240 C.ar   31  U31         0.0000
    934  C6        50.1010    5.4980   39.3180 C.ar   31  U31         0.0000
    935  P         46.9830    9.7530   36.9520 P.3    32  C32         0.0000
    936  C5'       46.3750    8.8410   34.5900 C.3    32  C32         0.0000
    937  O5'       46.2410    8.7200   35.9960 O.3    32  C32         0.0000
    938  C4'       45.7990    7.6390   33.8950 C.3    32  C32         0.0000
    939  O4'       46.5320    6.4580   34.3010 O.3    32  C32         0.0000
    940  C3'       44.3560    7.3120   34.2200 C.3    32  C32         0.0000
    941  O3'       43.4870    8.0560   33.3900 O.3    32  C32         0.0000
    942  C2'       44.2910    5.8320   33.8820 C.3    32  C32         0.0000
    943  O2'       44.2300    5.6130   32.4890 O.3    32  C32         0.0000
    944  C1'       45.6490    5.3540   34.3830 C.3    32  C32         0.0000
    945  N1        45.6010    4.9040   35.7810 N.ar   32  C32         0.0000
    946  C2        44.9260    3.7220   36.0910 C.ar   32  C32         0.0000
    947  O2        44.3550    3.0990   35.1840 O.2    32  C32         0.0000
    948  N3        44.9030    3.2920   37.3720 N.ar   32  C32         0.0000
    949  C4        45.5170    3.9980   38.3200 C.ar   32  C32         0.0000
    950  N4        45.4820    3.5330   39.5650 N.pl3  32  C32         0.0000
    951  C5        46.1960    5.2100   38.0340 C.ar   32  C32         0.0000
    952  C6        46.2160    5.6220   36.7620 C.ar   32  C32         0.0000
    953  OP1       46.7060   11.1060   36.4030 O.2    32  C32        -0.5000
    954  OP2       46.6280    9.4480   38.3640 O.co2  32  C32        -0.5000
    955  P         41.9850    8.3570   33.8700 P.3    33  G33         0.0000
    956  C5'       40.8410    6.3770   32.5360 C.3    33  G33         0.0000
    957  O5'       41.2190    6.9630   33.7830 O.3    33  G33         0.0000
    958  C4'       40.1130    5.0840   32.8000 C.3    33  G33         0.0000
    959  O4'       40.9860    4.2010   33.5450 O.3    33  G33         0.0000
    960  C3'       38.8830    5.2310   33.6750 C.3    33  G33         0.0000
    961  O3'       37.7710    5.4830   32.8310 O.3    33  G33         0.0000
    962  C2'       38.7630    3.8550   34.3130 C.3    33  G33         0.0000
    963  O2'       38.1360    2.9090   33.4800 O.3    33  G33         0.0000
    964  C1'       40.2310    3.4740   34.4940 C.3    33  G33         0.0000
    965  N1        40.4850    2.0570   39.3490 N.ar   33  G33         0.0000
    966  C2        39.7460    1.5160   38.3250 C.ar   33  G33         0.0000
    967  N2        38.9950    0.4450   38.6280 N.pl3  33  G33         0.0000
    968  N3        39.7420    1.9910   37.0940 N.ar   33  G33         0.0000
    969  C4        40.5460    3.0680   36.9670 C.ar   33  G33         0.0000
    970  C5        41.3200    3.6860   37.9270 C.ar   33  G33         0.0000
    971  C6        41.3220    3.1650   39.2370 C.ar   33  G33         0.0000
    972  O6        41.9540    3.5630   40.2200 O.2    33  G33         0.0000
    973  N7        41.9990    4.7700   37.3930 N.ar   33  G33         0.0000
    974  C8        41.6420    4.7840   36.1380 C.ar   33  G33         0.0000
    975  N9        40.7760    3.7710   35.8140 N.ar   33  G33         0.0000
    976  OP1       41.4110    9.2620   32.8560 O.2    33  G33        -0.5000
    977  OP2       42.0070    8.7610   35.3000 O.co2  33  G33        -0.5000
    978  P         36.4490    6.1570   33.4330 P.3    34  U34         0.0000
    979  C5'       35.0650    4.0270   33.9900 C.3    34  U34         0.0000
    980  O5'       35.8800    5.0830   34.4590 O.3    34  U34         0.0000
    981  C4'       34.7500    3.0560   35.0950 C.3    34  U34         0.0000
    982  O4'       35.9820    2.6200   35.7280 O.3    34  U34         0.0000
    983  C3'       33.9630    3.6470   36.2450 C.3    34  U34         0.0000
    984  O3'       32.5850    3.6390   35.9390 O.3    34  U34         0.0000
    985  C2'       34.2820    2.6910   37.3800 C.3    34  U34         0.0000
    986  O2'       33.5360    1.4970   37.3210 O.3    34  U34         0.0000
    987  C1'       35.7430    2.3750   37.1000 C.3    34  U34         0.0000
    988  N1        36.6200    3.2160   37.9160 N.ar   34  U34         0.0000
    989  C2        36.6270    2.9490   39.2600 C.ar   34  U34         0.0000
    990  O2        35.9460    2.0680   39.7550 O.2    34  U34         0.0000
    991  N3        37.4510    3.7450   40.0070 N.ar   34  U34         0.0000
    992  C4        38.2500    4.7590   39.5490 C.ar   34  U34         0.0000
    993  O4        38.9760    5.3560   40.3410 O.2    34  U34         0.0000
    994  C5        38.1810    4.9810   38.1390 C.ar   34  U34         0.0000
    995  C6        37.3880    4.2150   37.3870 C.ar   34  U34         0.0000
    996  OP1       35.4710    6.2830   32.3230 O.2    34  U34        -0.5000
    997  OP2       36.8790    7.3640   34.1820 O.co2  34  U34        -0.5000
    998  P         31.6000    4.6400   36.7060 P.3    35  G35         0.0000
    999  C5'       30.9080    2.7980   38.4350 C.3    35  G35         0.0000
   1000  O5'       31.5290    4.0530   38.1850 O.3    35  G35         0.0000
   1001  C4'       31.0970    2.3920   39.8770 C.3    35  G35         0.0000
   1002  O4'       32.5120    2.4170   40.1900 O.3    35  G35         0.0000
   1003  C3'       30.4740    3.3210   40.9080 C.3    35  G35         0.0000
   1004  O3'       29.1070    2.9660   41.1060 O.3    35  G35         0.0000
   1005  C2'       31.3190    3.0460   42.1510 C.3    35  G35         0.0000
   1006  O2'       30.9290    1.8800   42.8480 O.3    35  G35         0.0000
   1007  C1'       32.6990    2.8190   41.5350 C.3    35  G35         0.0000
   1008  N1        36.1410    5.3650   44.2580 N.ar   35  G35         0.0000
   1009  C2        35.2890    4.3630   44.6510 C.ar   35  G35         0.0000
   1010  N2        35.3820    3.9740   45.9270 N.pl3  35  G35         0.0000
   1011  N3        34.4050    3.7900   43.8540 N.ar   35  G35         0.0000
   1012  C4        34.4180    4.3320   42.6160 C.ar   35  G35         0.0000
   1013  C5        35.2070    5.3510   42.1280 C.ar   35  G35         0.0000
   1014  C6        36.1800    5.9340   42.9910 C.ar   35  G35         0.0000
   1015  O6        37.0090    6.8280   42.7390 O.2    35  G35         0.0000
   1016  N7        34.8900    5.6320   40.8030 N.ar   35  G35         0.0000
   1017  C8        33.9460    4.7780   40.5100 C.ar   35  G35         0.0000
   1018  N9        33.6330    3.9420   41.5540 N.ar   35  G35         0.0000
   1019  OP1       30.2650    4.4940   36.0750 O.2    35  G35        -0.5000
   1020  OP2       32.2590    5.9730   36.7510 O.co2  35  G35        -0.5000
   1021  P         28.0360    4.0920   41.5260 P.3    36  G36         0.0000
   1022  C5'       28.0520    2.8000   43.8100 C.3    36  G36         0.0000
   1023  O5'       28.0460    4.0490   43.1230 O.3    36  G36         0.0000
   1024  C4'       28.4940    2.9810   45.2430 C.3    36  G36         0.0000
   1025  O4'       29.7960    3.6040   45.2800 O.3    36  G36         0.0000
   1026  C3'       27.5600    3.8930   46.0330 C.3    36  G36         0.0000
   1027  O3'       27.4630    3.3200   47.3470 O.3    36  G36         0.0000
   1028  C2'       28.2140    5.2770   45.9640 C.3    36  G36         0.0000
   1029  O2'       28.0800    6.0620   47.1270 O.3    36  G36         0.0000
   1030  C1'       29.6880    4.8960   45.8200 C.3    36  G36         0.0000
   1031  N1        34.1690    7.2740   45.8570 N.ar   36  G36         0.0000
   1032  C2        33.5850    6.5060   46.8350 C.ar   36  G36         0.0000
   1033  N2        34.3060    6.3260   47.9570 N.pl3  36  G36         0.0000
   1034  N3        32.3820    5.9570   46.7230 N.ar   36  G36         0.0000
   1035  C4        31.7990    6.2530   45.5380 C.ar   36  G36         0.0000
   1036  C5        32.2920    7.0120   44.5010 C.ar   36  G36         0.0000
   1037  C6        33.5860    7.5910   44.6300 C.ar   36  G36         0.0000
   1038  O6        34.2010    8.3020   43.8130 O.2    36  G36         0.0000
   1039  N7        31.3750    7.0760   43.4590 N.ar   36  G36         0.0000
   1040  C8        30.3620    6.3640   43.8750 C.ar   36  G36         0.0000
   1041  N9        30.5580    5.8330   45.1210 N.ar   36  G36         0.0000
   1042  OP1       26.6920    3.6570   41.0660 O.3    36  G36        -0.5000
   1043  OP2       28.5860    5.3910   41.0540 O.co2  36  G36        -0.5000
   1044  P         26.1190    3.4300   48.2210 P.3    37  U37         0.0000
   1045  C5'       25.4870    5.0490   50.1610 C.3    37  U37         0.0000
   1046  O5'       26.2270    4.8350   48.9670 O.3    37  U37         0.0000
   1047  C4'       26.2500    5.9060   51.1500 C.3    37  U37         0.0000
   1048  O4'       27.5090    5.2710   51.5070 O.3    37  U37         0.0000
   1049  C3'       26.6220    7.2600   50.5500 C.3    37  U37         0.0000
   1050  O3'       26.3070    8.3140   51.4510 O.3    37  U37         0.0000
   1051  C2'       28.0850    7.1460   50.1190 C.3    37  U37         0.0000
   1052  O2'       28.8540    8.2960   50.4020 O.3    37  U37         0.0000
   1053  C1'       28.5840    6.0640   51.0680 C.3    37  U37         0.0000
   1054  N1        29.7190    5.2330   50.6660 N.ar   37  U37         0.0000
   1055  C2        30.9300    5.5480   51.2360 C.ar   37  U37         0.0000
   1056  O2        31.0490    6.4230   52.0740 O.2    37  U37         0.0000
   1057  N3        31.9920    4.8030   50.7950 N.ar   37  U37         0.0000
   1058  C4        31.9580    3.7870   49.8660 C.ar   37  U37         0.0000
   1059  O4        33.0180    3.2860   49.4760 O.2    37  U37         0.0000
   1060  C5        30.6530    3.4950   49.3530 C.ar   37  U37         0.0000
   1061  C6        29.6030    4.2140   49.7640 C.ar   37  U37         0.0000
   1062  OP1       26.2430    2.4040   49.2960 O.3    37  U37        -0.5000
   1063  OP2       24.9430    3.4090   47.3080 O.co2  37  U37        -0.5000
   1064  P         25.4810    9.5920   50.9580 P.3    38  A38         0.0000
   1065  C5'       27.0410   11.1190   49.5020 C.3    38  A38         0.0000
   1066  O5'       26.1730   10.0010   49.5850 O.3    38  A38         0.0000
   1067  C4'       27.3510   11.3740   48.0500 C.3    38  A38         0.0000
   1068  O4'       28.2260   12.5080   47.9180 O.3    38  A38         0.0000
   1069  C3'       28.0420   10.2080   47.3380 C.3    38  A38         0.0000
   1070  O3'       27.5620   10.1380   45.9790 O.3    38  A38         0.0000
   1071  C2'       29.5190   10.6000   47.3640 C.3    38  A38         0.0000
   1072  O2'       30.1870   10.1980   46.2000 O.3    38  A38         0.0000
   1073  C1'       29.4150   12.1100   47.3050 C.3    38  A38         0.0000
   1074  N1        32.8140   13.3760   50.9750 N.ar   38  A38         0.0000
   1075  C2        31.7510   12.5470   50.9820 C.ar   38  A38         0.0000
   1076  N3        30.8870   12.2660   49.9990 N.ar   38  A38         0.0000
   1077  C4        31.2080   12.9470   48.8820 C.ar   38  A38         0.0000
   1078  C5        32.2660   13.8310   48.7230 C.ar   38  A38         0.0000
   1079  C6        33.1000   14.0490   49.8350 C.ar   38  A38         0.0000
   1080  N6        34.1540   14.8830   49.8250 N.pl3  38  A38         0.0000
   1081  N7        32.2930   14.3420   47.4360 N.ar   38  A38         0.0000
   1082  C8        31.2720   13.7760   46.8560 C.ar   38  A38         0.0000
   1083  N9        30.5790   12.9150   47.6650 N.ar   38  A38         0.0000
   1084  OP1       25.7390   10.6280   51.9920 O.3    38  A38        -0.5000
   1085  OP2       24.0860    9.1980   50.6400 O.co2  38  A38        -0.5000
   1086  P         26.2030    9.4140   45.5060 P.3    39  C39         0.0000
   1087  C5'       24.1290   11.1360   45.4710 C.3    39  C39         0.0000
   1088  O5'       25.0390   10.2710   46.2000 O.3    39  C39         0.0000
   1089  C4'       22.7930   11.1360   46.1850 C.3    39  C39         0.0000
   1090  O4'       22.3380    9.7740   46.1710 O.3    39  C39         0.0000
   1091  C3'       22.9330   11.5770   47.6480 C.3    39  C39         0.0000
   1092  O3'       21.8570   12.4630   47.9410 O.3    39  C39         0.0000
   1093  C2'       22.6820   10.2940   48.4460 C.3    39  C39         0.0000
   1094  O2'       21.8560   10.5670   49.5720 O.3    39  C39         0.0000
   1095  C1'       21.9280    9.4190   47.4540 C.3    39  C39         0.0000
   1096  N1        22.0830    7.9760   47.6400 N.ar   39  C39         0.0000
   1097  C2        21.0040    7.2690   48.1830 C.ar   39  C39         0.0000
   1098  O2        19.9330    7.8700   48.3860 O.2    39  C39         0.0000
   1099  N3        21.1480    5.9590   48.4630 N.ar   39  C39         0.0000
   1100  C4        22.3020    5.3440   48.1940 C.ar   39  C39         0.0000
   1101  N4        22.4150    4.0600   48.5350 N.pl3  39  C39         0.0000
   1102  C5        23.3970    6.0250   47.5780 C.ar   39  C39         0.0000
   1103  C6        23.2450    7.3310   47.3210 C.ar   39  C39         0.0000
   1104  OP1       26.2140    8.0320   46.0580 O.3    39  C39        -0.5000
   1105  OP2       26.1560    9.6100   44.0330 O.co2  39  C39        -0.5000
   1106  P         21.9360   14.0480   47.8450 P.3    40  A40         0.0000
   1107  C5'       23.4580   14.2190   49.9730 C.3    40  A40         0.0000
   1108  O5'       23.2820   14.4680   48.5820 O.3    40  A40         0.0000
   1109  C4'       24.8050   14.7260   50.4300 C.3    40  A40         0.0000
   1110  O4'       25.8340   14.0730   49.6460 O.3    40  A40         0.0000
   1111  C3'       25.0680   16.2080   50.2150 C.3    40  A40         0.0000
   1112  O3'       24.5840   16.9730   51.3100 O.3    40  A40         0.0000
   1113  C2'       26.5870   16.2570   50.1710 C.3    40  A40         0.0000
   1114  O2'       27.1460   16.1900   51.4660 O.3    40  A40         0.0000
   1115  C1'       26.9070   14.9660   49.4230 C.3    40  A40         0.0000
   1116  N1        29.9320   16.7950   45.6980 N.ar   40  A40         0.0000
   1117  C2        30.0700   16.7380   47.0240 C.ar   40  A40         0.0000
   1118  N3        29.2420   16.2340   47.9390 N.ar   40  A40         0.0000
   1119  C4        28.1390   15.7330   47.3600 C.ar   40  A40         0.0000
   1120  C5        27.8510   15.7110   46.0090 C.ar   40  A40         0.0000
   1121  C6        28.8120   16.2830   45.1430 C.ar   40  A40         0.0000
   1122  N6        28.6700   16.3500   43.8160 N.pl3  40  A40         0.0000
   1123  N7        26.6220   15.1080   45.7810 N.ar   40  A40         0.0000
   1124  C8        26.1980   14.7940   46.9810 C.ar   40  A40         0.0000
   1125  N9        27.0630   15.1490   47.9820 N.ar   40  A40         0.0000
   1126  OP1       20.8020   14.5900   48.6410 O.3    40  A40        -0.5000
   1127  OP2       22.0230   14.3640   46.3960 O.co2  40  A40        -0.5000
   1128  P         23.9280   18.4160   51.0490 P.3    41  U41         0.0000
   1129  C5'       26.2470   19.4920   51.5070 C.3    41  U41         0.0000
   1130  O5'       25.1540   19.3390   50.6280 O.3    41  U41         0.0000
   1131  C4'       27.3640   20.2690   50.8590 C.3    41  U41         0.0000
   1132  O4'       27.7290   19.6570   49.5970 O.3    41  U41         0.0000
   1133  C3'       26.9680   21.7080   50.5270 C.3    41  U41         0.0000
   1134  O3'       28.0340   22.5480   50.9860 O.3    41  U41         0.0000
   1135  C2'       26.6070   21.7040   49.0390 C.3    41  U41         0.0000
   1136  O2'       26.9980   22.8610   48.3260 O.3    41  U41         0.0000
   1137  C1'       27.4580   20.5380   48.5400 C.3    41  U41         0.0000
   1138  N1        27.0730   19.8010   47.3310 N.ar   41  U41         0.0000
   1139  C2        27.8690   19.9930   46.2150 C.ar   41  U41         0.0000
   1140  O2        28.8900   20.6580   46.2410 O.2    41  U41         0.0000
   1141  N3        27.4320   19.3700   45.0770 N.ar   41  U41         0.0000
   1142  C4        26.3120   18.5740   44.9490 C.ar   41  U41         0.0000
   1143  O4        25.9970   18.1500   43.8360 O.2    41  U41         0.0000
   1144  C5        25.5700   18.3830   46.1620 C.ar   41  U41         0.0000
   1145  C6        25.9690   18.9890   47.2850 C.ar   41  U41         0.0000
   1146  OP1       23.4090   18.8760   52.3600 O.3    41  U41        -0.5000
   1147  OP2       23.0150   18.3240   49.8870 O.co2  41  U41        -0.5000
   1148  P         27.9080   24.1470   51.0000 P.3    42  U42         0.0000
   1149  C5'       29.5550   25.9730   50.0370 C.3    42  U42         0.0000
   1150  O5'       29.2630   24.6030   50.2940 O.3    42  U42         0.0000
   1151  C4'       30.1170   26.1250   48.6440 C.3    42  U42         0.0000
   1152  O4'       31.2260   25.2100   48.4770 O.3    42  U42         0.0000
   1153  C3'       29.0610   25.6930   47.6270 C.3    42  U42         0.0000
   1154  O3'       29.2240   26.4560   46.4430 O.3    42  U42         0.0000
   1155  C2'       29.3830   24.2390   47.3150 C.3    42  U42         0.0000
   1156  O2'       29.1460   23.8560   45.9840 O.3    42  U42         0.0000
   1157  C1'       30.8870   24.2320   47.5280 C.3    42  U42         0.0000
   1158  N1        31.4920   22.9450   47.8560 N.ar   42  U42         0.0000
   1159  C2        32.3910   22.4400   46.9460 C.ar   42  U42         0.0000
   1160  O2        32.7400   23.0520   45.9560 O.2    42  U42         0.0000
   1161  N3        32.8730   21.2010   47.2430 N.ar   42  U42         0.0000
   1162  C4        32.5640   20.4470   48.3410 C.ar   42  U42         0.0000
   1163  O4        33.0140   19.3130   48.4260 O.2    42  U42         0.0000
   1164  C5        31.6520   21.0600   49.2580 C.ar   42  U42         0.0000
   1165  C6        31.1620   22.2630   48.9870 C.ar   42  U42         0.0000
   1166  OP1       27.9680   24.5250   52.4360 O.3    42  U42        -0.5000
   1167  OP2       26.7730   24.6050   50.1600 O.co2  42  U42        -0.5000
   1168  P         28.1230   27.5070   45.9690 P.3    43  A43         0.0000
   1169  C5'       30.1560   28.6510   44.7840 C.3    43  A43         0.0000
   1170  O5'       28.8370   28.1160   44.6810 O.3    43  A43         0.0000
   1171  C4'       30.9760   28.3090   43.5630 C.3    43  A43         0.0000
   1172  O4'       31.2630   26.8920   43.5370 O.3    43  A43         0.0000
   1173  C3'       30.3450   28.6100   42.2210 C.3    43  A43         0.0000
   1174  O3'       30.6130   29.9570   41.8740 O.3    43  A43         0.0000
   1175  C2'       31.0880   27.6480   41.3030 C.3    43  A43         0.0000
   1176  O2'       32.3810   28.1240   40.9800 O.3    43  A43         0.0000
   1177  C1'       31.2230   26.4200   42.2040 C.3    43  A43         0.0000
   1178  N1        28.2120   23.4360   39.2230 N.ar   43  A43         0.0000
   1179  C2        29.2430   24.2390   38.9240 C.ar   43  A43         0.0000
   1180  N3        29.9900   24.9950   39.7320 N.ar   43  A43         0.0000
   1181  C4        29.5780   24.8750   41.0050 C.ar   43  A43         0.0000
   1182  C5        28.5330   24.0910   41.4660 C.ar   43  A43         0.0000
   1183  C6        27.8270   23.3350   40.5120 C.ar   43  A43         0.0000
   1184  N6        26.8060   22.5260   40.8140 N.pl3  43  A43         0.0000
   1185  N7        28.3920   24.2200   42.8380 N.ar   43  A43         0.0000
   1186  C8        29.3390   25.0610   43.1720 C.ar   43  A43         0.0000
   1187  N9        30.0960   25.4940   42.1170 N.ar   43  A43         0.0000
   1188  OP1       28.0720   28.5490   47.0190 O.3    43  A43        -0.5000
   1189  OP2       26.8740   26.8130   45.5560 O.co2  43  A43        -0.5000
   1190  P         29.4170   30.9100   41.3930 P.3    44  C44         0.0000
   1191  C5'       29.2330   30.0740   38.8930 C.3    44  C44         0.0000
   1192  O5'       28.7080   30.0910   40.2220 O.3    44  C44         0.0000
   1193  C4'       28.3360   29.2470   37.9980 C.3    44  C44         0.0000
   1194  O4'       28.3980   27.8610   38.4140 O.3    44  C44         0.0000
   1195  C3'       26.8570   29.5960   38.0630 C.3    44  C44         0.0000
   1196  O3'       26.5460   30.6570   37.1690 O.3    44  C44         0.0000
   1197  C2'       26.1990   28.2940   37.6300 C.3    44  C44         0.0000
   1198  O2'       26.1800   28.1140   36.2330 O.3    44  C44         0.0000
   1199  C1'       27.1220   27.2620   38.2750 C.3    44  C44         0.0000
   1200  N1        26.6620   26.8690   39.6110 N.ar   44  C44         0.0000
   1201  C2        25.6110   25.9620   39.7180 C.ar   44  C44         0.0000
   1202  O2        25.1000   25.5080   38.6810 O.2    44  C44         0.0000
   1203  N3        25.1760   25.6010   40.9490 N.ar   44  C44         0.0000
   1204  C4        25.7510   26.1180   42.0400 C.ar   44  C44         0.0000
   1205  N4        25.2870   25.7410   43.2350 N.pl3  44  C44         0.0000
   1206  C5        26.8270   27.0440   41.9550 C.ar   44  C44         0.0000
   1207  C6        27.2470   27.3880   40.7320 C.ar   44  C44         0.0000
   1208  OP1       30.0930   32.1050   40.8290 O.2    44  C44        -0.5000
   1209  OP2       28.4330   31.0710   42.4950 O.co2  44  C44        -0.5000
   1210  P         25.4030   31.7210   37.5560 P.3    45  C45         0.0000
   1211  C5'       23.6710   30.4250   36.0990 C.3    45  C45         0.0000
   1212  O5'       24.0430   30.9100   37.3810 O.3    45  C45         0.0000
   1213  C4'       22.4330   29.5640   36.1750 C.3    45  C45         0.0000
   1214  O4'       22.7250   28.3430   36.9100 O.3    45  C45         0.0000
   1215  C3'       21.2580   30.1700   36.9240 C.3    45  C45         0.0000
   1216  O3'       20.5130   31.0610   36.1030 O.3    45  C45         0.0000
   1217  C2'       20.4580   28.9320   37.3060 C.3    45  C45         0.0000
   1218  O2'       19.6920   28.4390   36.2280 O.3    45  C45         0.0000
   1219  C1'       21.5720   27.9370   37.6290 C.3    45  C45         0.0000
   1220  N1        21.8780   27.8910   39.0680 N.ar   45  C45         0.0000
   1221  C2        21.0070   27.1890   39.9070 C.ar   45  C45         0.0000
   1222  O2        20.0250   26.6140   39.4080 O.2    45  C45         0.0000
   1223  N3        21.2530   27.1520   41.2360 N.ar   45  C45         0.0000
   1224  C4        22.3220   27.7790   41.7340 C.ar   45  C45         0.0000
   1225  N4        22.5240   27.7160   43.0570 N.pl3  45  C45         0.0000
   1226  C5        23.2310   28.4950   40.9010 C.ar   45  C45         0.0000
   1227  C6        22.9740   28.5230   39.5850 C.ar   45  C45         0.0000
   1228  OP1       25.4570   32.7850   36.5250 O.2    45  C45        -0.5000
   1229  OP2       25.5620   32.0800   38.9850 O.co2  45  C45        -0.5000
   1230  P         19.7460   32.3120   36.7680 P.3    46  U46         0.0000
   1231  C5'       17.4720   31.0470   36.6300 C.3    46  U46         0.0000
   1232  O5'       18.4660   31.6480   37.4480 O.3    46  U46         0.0000
   1233  C4'       16.4330   30.3240   37.4580 C.3    46  U46         0.0000
   1234  O4'       17.0620   29.2400   38.1980 O.3    46  U46         0.0000
   1235  C3'       15.7300   31.1380   38.5320 C.3    46  U46         0.0000
   1236  O3'       14.6780   31.9440   38.0130 O.3    46  U46         0.0000
   1237  C2'       15.2380   30.0520   39.4820 C.3    46  U46         0.0000
   1238  O2'       14.0700   29.3910   39.0320 O.3    46  U46         0.0000
   1239  C1'       16.4140   29.0770   39.4540 C.3    46  U46         0.0000
   1240  N1        17.3670   29.3800   40.5320 N.ar   46  U46         0.0000
   1241  C2        17.0190   29.0050   41.8270 C.ar   46  U46         0.0000
   1242  O2        15.9870   28.4060   42.0960 O.2    46  U46         0.0000
   1243  N3        17.9280   29.3550   42.7940 N.ar   46  U46         0.0000
   1244  C4        19.1260   30.0190   42.6090 C.ar   46  U46         0.0000
   1245  O4        19.8270   30.2990   43.5890 O.2    46  U46         0.0000
   1246  C5        19.4190   30.3520   41.2430 C.ar   46  U46         0.0000
   1247  C6        18.5510   30.0270   40.2780 C.ar   46  U46         0.0000
   1248  OP1       19.2590   33.1630   35.6570 O.2    46  U46        -0.5000
   1249  OP2       20.6270   32.9040   37.8090 O.co2  46  U46        -0.5000
   1250  P         14.3680   33.3750   38.6840 P.3    47  G47         0.0000
   1251  C5'       12.2480   32.3060   39.7760 C.3    47  G47         0.0000
   1252  O5'       13.4740   33.0060   39.9480 O.3    47  G47         0.0000
   1253  C4'       11.6400   31.9500   41.1130 C.3    47  G47         0.0000
   1254  O4'       12.4460   30.9270   41.7570 O.3    47  G47         0.0000
   1255  C3'       11.5450   33.0680   42.1430 C.3    47  G47         0.0000
   1256  O3'       10.3880   33.8740   41.9500 O.3    47  G47         0.0000
   1257  C2'       11.4780   32.2820   43.4450 C.3    47  G47         0.0000
   1258  O2'       10.1900   31.7390   43.6620 O.3    47  G47         0.0000
   1259  C1'       12.4650   31.1470   43.1600 C.3    47  G47         0.0000
   1260  N1        15.8100   31.4660   46.9800 N.ar   47  G47         0.0000
   1261  C2        14.4930   31.0800   47.0060 C.ar   47  G47         0.0000
   1262  N2        14.0030   30.7400   48.2050 N.pl3  47  G47         0.0000
   1263  N3        13.7140   31.0330   45.9370 N.ar   47  G47         0.0000
   1264  C4        14.3650   31.4200   44.8200 C.ar   47  G47         0.0000
   1265  C5        15.6760   31.8320   44.6880 C.ar   47  G47         0.0000
   1266  C6        16.5030   31.8680   45.8440 C.ar   47  G47         0.0000
   1267  O6        17.6940   32.1970   45.9330 O.2    47  G47         0.0000
   1268  N7        15.9600   32.1560   43.3680 N.ar   47  G47         0.0000
   1269  C8        14.8420   31.9340   42.7330 C.ar   47  G47         0.0000
   1270  N9        13.8330   31.4860   43.5530 N.ar   47  G47         0.0000
   1271  OP1       13.5290   34.1530   37.7400 O.2    47  G47        -0.5000
   1272  OP2       15.6600   33.9430   39.1530 O.co2  47  G47        -0.5000
   1273  P         10.3390   35.3680   42.5500 P.3    48  C48         0.0000
   1274  C5'        9.2320   34.4510   44.7060 C.3    48  C48         0.0000
   1275  O5'       10.3230   35.1370   44.1200 O.3    48  C48         0.0000
   1276  C4'        9.3500   34.4440   46.2030 C.3    48  C48         0.0000
   1277  O4'       10.3580   33.4820   46.6120 O.3    48  C48         0.0000
   1278  C3'        9.7780   35.7500   46.8450 C.3    48  C48         0.0000
   1279  O3'        8.6710   36.6290   46.9930 O.3    48  C48         0.0000
   1280  C2'       10.3400   35.2590   48.1750 C.3    48  C48         0.0000
   1281  O2'        9.3170   34.9240   49.0900 O.3    48  C48         0.0000
   1282  C1'       11.0520   33.9740   47.7480 C.3    48  C48         0.0000
   1283  N1        12.4510   34.2400   47.3590 N.ar   48  C48         0.0000
   1284  C2        13.4140   34.4170   48.3620 C.ar   48  C48         0.0000
   1285  O2        13.0820   34.2760   49.5460 O.2    48  C48         0.0000
   1286  N3        14.6810   34.7350   48.0120 N.ar   48  C48         0.0000
   1287  C4        15.0040   34.8640   46.7240 C.ar   48  C48         0.0000
   1288  N4        16.2560   35.2120   46.4260 N.pl3  48  C48         0.0000
   1289  C5        14.0550   34.6510   45.6830 C.ar   48  C48         0.0000
   1290  C6        12.8030   34.3420   46.0420 C.ar   48  C48         0.0000
   1291  OP1        9.0090   35.9170   42.1940 O.3    48  C48        -0.5000
   1292  OP2       11.5700   36.1080   42.1630 O.co2  48  C48        -0.5000
   1293  P          8.9160   38.2130   47.1340 P.3    49  C49         0.0000
   1294  C5'        9.1910   37.9860   49.7400 C.3    49  C49         0.0000
   1295  O5'        9.7520   38.3500   48.4830 O.3    49  C49         0.0000
   1296  C4'       10.2100   38.1800   50.8370 C.3    49  C49         0.0000
   1297  O4'       11.3020   37.2390   50.6500 O.3    49  C49         0.0000
   1298  C3'       10.9020   39.5320   50.8260 C.3    49  C49         0.0000
   1299  O3'       10.1560   40.6410   51.3170 O.3    49  C49         0.0000
   1300  C2'       12.1870   39.2330   51.5760 C.3    49  C49         0.0000
   1301  O2'       11.9530   39.1180   52.9590 O.3    49  C49         0.0000
   1302  C1'       12.5260   37.8420   51.0460 C.3    49  C49         0.0000
   1303  N1        13.4340   37.9070   49.8870 N.ar   49  C49         0.0000
   1304  C2        14.8060   38.0590   50.1140 C.ar   49  C49         0.0000
   1305  O2        15.2240   38.0790   51.2760 O.2    49  C49         0.0000
   1306  N3        15.6410   38.1690   49.0650 N.ar   49  C49         0.0000
   1307  C4        15.1630   38.1140   47.8280 C.ar   49  C49         0.0000
   1308  N4        16.0260   38.2330   46.8240 N.pl3  49  C49         0.0000
   1309  C5        13.7770   37.9360   47.5630 C.ar   49  C49         0.0000
   1310  C6        12.9550   37.8390   48.6130 C.ar   49  C49         0.0000
   1311  OP1        7.5910   38.8380   47.3590 O.3    49  C49        -0.5000
   1312  OP2        9.7730   38.6890   46.0140 O.co2  49  C49        -0.5000
   1313  N1        19.3100   18.6850   45.6640 N.3    32  NCO32       0.0000
   1314  N2        19.0210   16.4510   47.2880 N.3    32  NCO32       0.0000
   1315  N3        21.7050   17.6670   47.0170 N.3    32  NCO32       0.0000
   1316  N4        18.1440   18.8110   48.2800 N.3    32  NCO32       0.0000
   1317  N5        20.3420   17.8110   49.4210 N.3    32  NCO32       0.0000
   1318  N6        20.6580   20.1010   47.7880 N.3    32  NCO32       0.0000
   1319 CO         19.8790   18.2470   47.5670 Co.oh  32  NCO32       0.0000
   1320  O         28.0130   14.4520   57.6980 O.3    14  HOH14       0.0000
   1321  O         41.6130   26.9740   56.5780 O.3    15  HOH15       0.0000
   1322  O         41.2860   25.1270   51.6880 O.3    14  HOH14       0.0000
   1323  O         33.8330   20.4460   60.8240 O.3    15  HOH15       0.0000
   1324  O         44.5730   12.2150   53.0300 O.3    16  HOH16       0.0000
   1325  O         35.7120   11.8340   41.1140 O.3    33  HOH33       0.0000
   1326  O         44.3450   -2.4150   45.3790 O.3    34  HOH34       0.0000
   1327  O         15.8130   24.9310   38.3420 O.3    35  HOH35       0.0000
   1328  O         39.9800   10.8280   42.6720 O.3    36  HOH36       0.0000
   1329  O         41.8010    8.7690   42.5030 O.3    37  HOH37       0.0000
   1330  O         24.4430   29.0690   44.8760 O.3     4  HOH4        0.0000
   1331  O         19.3120    3.4230   49.6820 O.3     5  HOH5        0.0000
   1332  O         32.7990    1.7380   46.3120 O.3    13  HOH13       0.0000
   1333  O         35.8480    8.0040   39.0740 O.3    14  HOH14       0.0000
@<TRIPOS>BOND
     1    81    95    1
     2    95    97    1
     3    95   113    2
     4    95   114    1
     5    96    98    1
     6    96    97    1
     7    98    99    1
     8    98   100    1
     9    99   104    1
    10   100   101    1
    11   100   102    1
    12   101   115    1
    13   102   103    1
    14   102   104    1
    15   104   105    1
    16   105   106   ar
    17   105   112   ar
    18   106   107    2
    19   106   108   ar
    20   108   109   ar
    21   109   110    2
    22   109   111   ar
    23   111   112   ar
    24  1314  1319    1
    25  1315  1319    1
    26  1316  1319    1
    27  1317  1319    1
    28  1318  1319    1
    29   996   978    2
    30   943   942    1
    31   956   958    1
    32   956   957    1
    33   958   959    1
    34   958   960    1
    35   961   978    1
    36   961   960    1
    37   976   955    2
    38   904   903    1
    39   941   955    1
    40   941   940    1
    41   978   997    1
    42   978   980    1
    43   963   962    1
    44   959   964    1
    45   960   962    1
    46   957   955    1
    47   955   977    1
    48   942   940    1
    49   942   944    1
    50   938   940    1
    51   938   939    1
    52   938   936    1
    53   979   980    1
    54   979   981    1
    55   902   901    1
    56   939   944    1
    57   962   964    1
    58   944   945    1
    59   964   975    1
    60   903   901    1
    61   903   905    1
    62   936   937    1
    63   899   901    1
    64   899   900    1
    65   899   897    1
    66   925   924    1
    67   981   982    1
    68   981   983    1
    69   947   946    2
    70   905   900    1
    71   905   915    1
    72   897   898    1
    73  1248  1230    2
    74   982   987    1
    75   945   946   ar
    76   945   952   ar
    77   975   974   ar
    78   975   969   ar
    79   885   884    1
    80   984   983    1
    81   984   998    1
    82   937   935    1
    83  1019   998    2
    84   908   907   ar
    85   908   909   ar
    86   946   948   ar
    87  1211  1213    1
    88  1211  1212    1
    89  1216  1230    1
    90  1216  1215    1
    91   974   973   ar
    92  1213  1214    1
    93  1213  1215    1
    94  1218  1217    1
    95  1198  1197    1
    96   983   985    1
    97   929   928    2
    98   924   926    1
    99   924   922    1
   100   881   880    1
   101   953   935    2
   102  1228  1210    2
   103   915   909   ar
   104   915   914   ar
   105  1231  1232    1
   106  1231  1233    1
   107   898   896    1
   108   998  1020    1
   109   998  1000    1
   110   923   935    1
   111   923   922    1
   112   907   906   ar
   113   952   951   ar
   114  1230  1232    1
   115  1230  1249    1
   116   916   896    2
   117   909   910   ar
   118  1214  1219    1
   119  1215  1217    1
   120   935   954    1
   121   969   968   ar
   122   969   970   ar
   123   711   710    1
   124   926   921    1
   125   926   927    1
   126   884   886   ar
   127   884   883   ar
   128   968   966   ar
   129   767   747    2
   130   987   985    1
   131   987   988    1
   132   745   725    2
   133  1196  1210    1
   134  1196  1195    1
   135   886   887   ar
   136  1217  1219    1
   137   726   728    1
   138   726   727    1
   139   986   985    1
   140   922   920    1
   141   948   949   ar
   142  1212  1210    1
   143   995   988   ar
   144   995   994   ar
   145   973   970   ar
   146   880   882    1
   147   880   878    1
   148  1233  1234    1
   149  1233  1235    1
   150   928   927   ar
   151   928   930   ar
   152  1210  1229    1
   153   896   879    1
   154   896   917    1
   155  1219  1220    1
   156  1197  1195    1
   157  1197  1199    1
   158   914   913   ar
   159   879   878    1
   160   920   921    1
   161   920   918    1
   162   731   747    1
   163   731   730    1
   164  1271  1250    2
   165   709   725    1
   166   709   708    1
   167   728   730    1
   168   728   729    1
   169   988   989   ar
   170   970   971   ar
   171   927   934   ar
   172  1193  1195    1
   173  1193  1194    1
   174  1193  1191    1
   175   883   889   ar
   176   906   911   ar
   177  1236  1235    1
   178  1236  1250    1
   179   951   949   ar
   180   994   992   ar
   181  1000   999    1
   182   747   768    1
   183   747   749    1
   184  1234  1239    1
   185   910   913   ar
   186   910   911   ar
   187   725   727    1
   188   725   746    1
   189  1199  1194    1
   190  1199  1200    1
   191   882   893    1
   192   882   877    1
   193   949   950    1
   194   966   967    1
   195   966   965   ar
   196   710   708    1
   197   710   712    1
   198   878   876    1
   199   999  1001    1
   200   930   931   ar
   201   706   708    1
   202   706   707    1
   203   706   704    1
   204   887   893   ar
   205   887   888   ar
   206  1235  1237    1
   207   730   732    1
   208  1202  1201    2
   209  1250  1272    1
   210  1250  1252    1
   211   729   734    1
   212   733   732    1
   213   705   704    1
   214   705   703    1
   215   911   912    1
   216  1191  1192    1
   217  1179  1178   ar
   218  1179  1180   ar
   219   712   707    1
   220   712   722    1
   221  1238  1237    1
   222   893   892   ar
   223  1220  1227   ar
   224  1220  1221   ar
   225   918   919    1
   226   876   877    1
   227   876   874    1
   228  1178  1183   ar
   229   971   965   ar
   230   971   972    2
   231   989   990    2
   232   989   991   ar
   233   748   749    1
   234   748   750    1
   235   889   888   ar
   236   889   890    2
   237   723   703    2
   238   934   933   ar
   239   666   665    1
   240   686   703    1
   241   686   685    1
   242  1222  1221    2
   243   732   734    1
   244  1239  1237    1
   245  1239  1240    1
   246   681   683    1
   247   681   682    1
   248   888   891   ar
   249   992   991   ar
   250   992   993    2
   251  1227  1226   ar
   252  1200  1201   ar
   253  1200  1207   ar
   254   683   685    1
   255   683   684    1
   256  1201  1203   ar
   257  1180  1181   ar
   258   734   744    1
   259   703   724    1
   260   701   680    2
   261  1251  1252    1
   262  1251  1253    1
   263   931   933   ar
   264   931   932    2
   265   688   687    1
   266  1001  1002    1
   267  1001  1003    1
   268   715   714   ar
   269   715   716   ar
   270  1221  1223   ar
   271  1002  1007    1
   272  1192  1190    1
   273  1247  1240   ar
   274  1247  1246   ar
   275   722   716   ar
   276   722   721   ar
   277   892   891   ar
   278   685   687    1
   279   874   875    1
   280  1017  1016   ar
   281  1017  1018   ar
   282  1183  1184    1
   283  1183  1182   ar
   284   664   680    1
   285   664   663    1
   286   684   689    1
   287  1240  1241   ar
   288   750   751    1
   289   750   752    1
   290   714   713   ar
   291   716   717   ar
   292   647   646    1
   293  1207  1206   ar
   294   788   769    2
   295   682   680    1
   296   665   663    1
   297   665   667    1
   298  1016  1013   ar
   299  1208  1190    2
   300   687   689    1
   301   680   702    1
   302  1226  1224   ar
   303  1003  1004    1
   304  1003  1005    1
   305  1203  1204   ar
   306  1176  1175    1
   307   787   769    1
   308   744   743   ar
   309   744   738   ar
   310  1181  1182   ar
   311  1181  1187   ar
   312  1043  1021    2
   313  1042  1021    1
   314  1004  1021    1
   315  1253  1254    1
   316  1253  1255    1
   317   865   864    2
   318   743   742   ar
   319  1223  1224   ar
   320  1246  1244   ar
   321   753   769    1
   322   753   752    1
   323   689   700    1
   324   875   873    1
   325  1175  1177    1
   326  1175  1173    1
   327   663   661    1
   328   661   662    1
   329   661   659    1
   330   751   756    1
   331  1190  1174    1
   332  1190  1209    1
   333   769   771    1
   334   721   720   ar
   335  1182  1185   ar
   336   667   662    1
   337   667   677    1
   338  1021  1023    1
   339   752   754    1
   340  1007  1018    1
   341  1007  1005    1
   342  1018  1012   ar
   343  1224  1225    1
   344  1254  1259    1
   345   670   669   ar
   346   670   671   ar
   347  1241  1242    2
   348  1241  1243   ar
   349   866   864   ar
   350   866   867   ar
   351  1174  1173    1
   352  1256  1255    1
   353  1256  1273    1
   354  1206  1204   ar
   355   713   718   ar
   356   864   863   ar
   357   646   648   ar
   358   646   645   ar
   359  1204  1205    1
   360   861   860    1
   361   717   720   ar
   362   717   718   ar
   363  1187  1177    1
   364  1187  1186   ar
   365  1013  1012   ar
   366  1013  1014   ar
   367  1255  1257    1
   368  1005  1006    1
   369   765   764   ar
   370   765   766   ar
   371  1292  1273    2
   372  1291  1273    1
   373   669   668   ar
   374  1177  1172    1
   375  1173  1171    1
   376   738   737   ar
   377   738   739   ar
   378   659   660    1
   379   742   739   ar
   380   545   524    2
   381  1273  1275    1
   382   860   862    1
   383   860   858    1
   384   737   736   ar
   385  1244  1243   ar
   386  1244  1245    2
   387  1012  1011   ar
   388   648   649   ar
   389   868   867    1
   390   645   651   ar
   391   764   761   ar
   392   841   842   ar
   393   841   846   ar
   394   700   699   ar
   395   700   694   ar
   396   718   719    1
   397   677   671   ar
   398   677   676   ar
   399   756   754    1
   400   756   766    1
   401  1269  1268   ar
   402  1269  1270   ar
   403  1015  1014    2
   404   671   672   ar
   405   847   846    1
   406   873   894    2
   407   873   859    1
   408   873   895    1
   409  1185  1186   ar
   410   867   869   ar
   411   754   755    1
   412   771   770    1
   413  1014  1008   ar
   414   643   642    1
   415   766   760   ar
   416  1023  1022    1
   417   739   740   ar
   418  1259  1257    1
   419  1259  1270    1
   420   863   862    1
   421   863   870   ar
   422   862   857    1
   423   699   698   ar
   424   842   843   ar
   425  1268  1265   ar
   426   846   845   ar
   427  1257  1258    1
   428   668   673   ar
   429  1039  1040   ar
   430  1039  1036   ar
   431   859   858    1
   432  1172  1171    1
   433  1270  1264   ar
   434  1171  1169    1
   435   660   658    1
   436   693   694   ar
   437   693   691   ar
   438   507   524    1
   439   507   506    1
   440   522   501    2
   441   858   856    1
   442   694   695   ar
   443   785   786   ar
   444   785   783   ar
   445   524   546    1
   446   524   526    1
   447  1022  1024    1
   448  1038  1037    2
   449  1122  1121    1
   450  1143  1142    2
   451   770   772    1
   452  1011  1009   ar
   453  1040  1041   ar
   454   736   735   ar
   455   649   650   ar
   456   649   655   ar
   457   642   644    1
   458   642   640    1
   459   676   675   ar
   460  1105  1086    2
   461   869   870   ar
   462   651   652    2
   463   651   650   ar
   464   761   760   ar
   465   761   762   ar
   466  1275  1274    1
   467   784   783    1
   468   502   504    1
   469   502   503    1
   470   672   673   ar
   471   672   675   ar
   472   826   825    1
   473  1008  1009   ar
   474   760   759   ar
   475   786   779   ar
   476   678   658    2
   477   525   526    1
   478   525   527    1
   479   673   674    1
   480   504   506    1
   481   504   505    1
   482   843   844   ar
   483   740   735   ar
   484   740   741    1
   485  1036  1037   ar
   486  1036  1035   ar
   487   698   695   ar
   488   644   655    1
   489   644   639    1
   490   783   782   ar
   491  1037  1031   ar
   492   857   856    1
   493  1009  1010    1
   494  1170  1169    1
   495  1170  1168    1
   496  1265  1264   ar
   497  1265  1266   ar
   498   845   844   ar
   499   845   848   ar
   500  1274  1276    1
   501   650   653   ar
   502   509   508    1
   503   658   641    1
   504   658   679    1
   505   691   692    1
   506   691   690   ar
   507  1264  1263   ar
   508   805   804    1
   509   506   508    1
   510   856   854    1
   511   641   640    1
   512   695   696   ar
   513   655   654   ar
   514  1142  1141   ar
   515  1142  1144   ar
   516   810   789    2
   517  1141  1139   ar
   518   501   484    1
   519   501   503    1
   520   501   523    1
   521   763   762    1
   522  1041  1035   ar
   523  1041  1030    1
   524  1121  1116   ar
   525  1121  1120   ar
   526   530   529    1
   527   844   850   ar
   528   484   483    1
   529   762   757   ar
   530   640   638    1
   531  1024  1025    1
   532  1024  1026    1
   533   772   773    1
   534   772   774    1
   535  1025  1030    1
   536   623   624   ar
   537   623   628   ar
   538   773   778    1
   539   486   485    1
   540  1087  1089    1
   541  1087  1088    1
   542   759   758   ar
   543   624   625   ar
   544   825   824   ar
   545   825   827   ar
   546  1086  1070    1
   547  1086  1104    1
   548  1086  1088    1
   549  1035  1034   ar
   550  1189  1168    2
   551   527   529    1
   552   527   528    1
   553   505   510    1
   554   508   510    1
   555   848   849   ar
   556  1313  1319    1
   557  1289  1290   ar
   558  1289  1287   ar
   559   779   778    1
   560   779   780   ar
   561  1116  1117   ar
   562   639   638    1
   563  1123  1120   ar
   564  1123  1124   ar
   565   774   775    1
   566   774   776    1
   567  1030  1028    1
   568  1266  1267    2
   569  1266  1260   ar
   570  1031  1032   ar
   571  1263  1261   ar
   572   824   822   ar
   573   782   780   ar
   574  1160  1159    2
   575   132   131    2
   576  1028  1026    1
   577  1028  1029    1
   578  1168  1154    1
   579  1168  1188    1
   580  1070  1069    1
   581  1156  1155    1
   582   638   636    1
   583  1120  1119   ar
   584   690   696   ar
   585  1312  1293    2
   586   806   803   ar
   587   806   807   ar
   588   529   531    1
   589  1026  1027    1
   590  1290  1283   ar
   591   653   654   ar
   592   804   803   ar
   593   804   799   ar
   594   696   697    2
   595  1144  1145   ar
   596  1090  1089    1
   597  1090  1095    1
   598  1089  1091    1
   599  1072  1071    1
   600  1276  1277    1
   601  1276  1278    1
   602  1139  1140    2
   603  1139  1138   ar
   604   789   775    1
   605   789   809    1
   606   789   791    1
   607   629   628    1
   608   854   855    1
   609   778   776    1
   610   827   828   ar
   611   757   758   ar
   612  1127  1106    2
   613   483   481    1
   614   483   485    1
   615   510   521    1
   616   628   627   ar
   617  1288  1287    1
   618   855   853    1
   619   850   849   ar
   620   850   840    1
   621  1154  1153    1
   622   780   781    2
   623   481   479    1
   624   481   482    1
   625   625   626   ar
   626   485   487    1
   627  1277  1282    1
   628   803   802   ar
   629  1034  1032   ar
   630  1287  1286   ar
   631   528   533    1
   632  1308  1307    1
   633  1032  1033    1
   634  1278  1279    1
   635  1278  1280    1
   636  1082  1081   ar
   637  1082  1083   ar
   638   479   480    1
   639   776   777    1
   640  1159  1161   ar
   641  1159  1158   ar
   642  1260  1261   ar
   643  1124  1125   ar
   644  1279  1293    1
   645  1261  1262    1
   646   807   808   ar
   647  1117  1118   ar
   648   799   800   ar
   649  1293  1311    1
   650  1293  1295    1
   651   131   125   ar
   652   131   130   ar
   653   838   840    1
   654   838   839    1
   655   838   836    1
   656  1161  1162   ar
   657   822   823    2
   658   822   821   ar
   659  1145  1138   ar
   660   568   547    1
   661  1073  1071    1
   662  1073  1083    1
   663  1073  1068    1
   664  1063  1044    2
   665  1155  1157    1
   666  1155  1153    1
   667  1103  1102   ar
   668  1103  1096   ar
   669  1138  1137    1
   670  1069  1071    1
   671  1069  1067    1
   672  1027  1044    1
   673  1283  1282    1
   674  1283  1284   ar
   675  1119  1118   ar
   676  1119  1125   ar
   677   840   835    1
   678  1081  1078   ar
   679   531   532    1
   680   531   533    1
   681  1095  1096    1
   682  1095  1093    1
   683   791   790    1
   684   636   637    1
   685   482   487    1
   686  1157  1158    1
   687  1157  1152    1
   688  1309  1307   ar
   689  1309  1310   ar
   690  1102  1100   ar
   691   564   563    2
   692  1153  1151    1
   693  1096  1097   ar
   694   627   626   ar
   695   627   630   ar
   696   626   632   ar
   697   828   821   ar
   698  1091  1092    1
   699  1091  1093    1
   700  1083  1077   ar
   701   521   520   ar
   702   521   515   ar
   703   487   498    1
   704   499   478    2
   705  1282  1280    1
   706   872   853    2
   707   125   126   ar
   708   133   130   ar
   709   133   134   ar
   710  1307  1306   ar
   711  1106  1092    1
   712  1106  1108    1
   713  1106  1126    1
   714  1158  1165   ar
   715   853   837    1
   716   853   871    1
   717   533   544    1
   718  1068  1067    1
   719  1125  1115    1
   720   520   519   ar
   721  1286  1284   ar
   722   802   808   ar
   723   802   801   ar
   724   480   478    1
   725   130   129   ar
   726  1067  1065    1
   727   637   635    1
   728   821   820    1
   729  1280  1281    1
   730  1097  1098    2
   731  1097  1099   ar
   732   836   837    1
   733   836   834    1
   734  1100  1099   ar
   735  1100  1101    1
   736  1044  1046    1
   737  1044  1062    1
   738   808   798    1
   739   543   544   ar
   740   543   542   ar
   741  1136  1135    1
   742   800   801   ar
   743  1162  1163    2
   744  1162  1164   ar
   745   830   811    2
   746  1284  1285    2
   747   565   562   ar
   748   565   566   ar
   749   587   586    2
   750  1093  1094    1
   751  1152  1151    1
   752   547   569    1
   753   547   549    1
   754  1295  1294    1
   755  1137  1135    1
   756  1137  1132    1
   757  1108  1107    1
   758  1310  1303   ar
   759   464   463    1
   760   608   607    1
   761  1151  1149    1
   762   835   834    1
   763   544   538   ar
   764  1078  1077   ar
   765  1078  1079   ar
   766   478   462    1
   767   478   500    1
   768   563   562   ar
   769   563   557   ar
   770   621   620    1
   771   515   514   ar
   772   515   516   ar
   773   790   792    1
   774  1077  1076   ar
   775   514   512   ar
   776   630   631   ar
   777   632   622    1
   778   632   631   ar
   779   134   135   ar
   780  1046  1045    1
   781   620   622    1
   782   620   618    1
   783  1165  1164   ar
   784   498   492   ar
   785   498   497   ar
   786  1135  1133    1
   787  1306  1304   ar
   788   126   127    1
   789   126   128   ar
   790   562   561   ar
   791   462   461    1
   792   519   516   ar
   793   542   539   ar
   794   491   492   ar
   795   491   489   ar
   796   852   831    2
   797   566   567   ar
   798   129   135   ar
   799   129   128   ar
   800   834   832    1
   801  1060  1061   ar
   802  1060  1058   ar
   803   793   798    1
   804   793   792    1
   805   622   617    1
   806  1115  1110    1
   807  1115  1113    1
   808  1059  1058    2
   809  1065  1066    1
   810   833   832    1
   811   833   831    1
   812   820   818    1
   813   820   815    1
   814   798   796    1
   815  1066  1064    1
   816  1132  1131    1
   817   794   792    1
   818   794   796    1
   819   794   795    1
   820   606   607   ar
   821   606   604   ar
   822   586   580   ar
   823   586   585   ar
   824  1110  1109    1
   825   463   461    1
   826   463   465    1
   827   635   657    2
   828   635   656    1
   829   635   619    1
   830   492   493   ar
   831   516   517   ar
   832   607   609   ar
   833  1294  1296    1
   834   549   548    1
   835  1061  1054   ar
   836   811   813    1
   837   811   795    1
   838   811   829    1
   839  1080  1079    1
   840   557   558   ar
   841  1079  1074   ar
   842   818   816    1
   843   818   819    1
   844   497   496   ar
   845  1058  1057   ar
   846  1303  1304   ar
   847  1303  1302    1
   848  1147  1128    2
   849   135   124    1
   850   490   489    1
   851   813   812    1
   852  1107  1109    1
   853  1076  1075   ar
   854   538   539   ar
   855   538   537   ar
   856  1149  1150    1
   857   580   581   ar
   858   512   513    1
   859   512   511   ar
   860  1304  1305    2
   861  1051  1052    1
   862  1051  1049    1
   863  1051  1053    1
   864   796   797    1
   865  1167  1148    2
   866  1045  1047    1
   867  1113  1111    1
   868  1113  1114    1
   869   489   488   ar
   870   461   459    1
   871  1111  1109    1
   872  1111  1112    1
   873   618   619    1
   874   618   616    1
   875   816   817    1
   876   816   814    1
   877   831   817    1
   878   831   851    1
   879  1150  1148    1
   880   815   814    1
   881   539   540   ar
   882   468   467   ar
   883   468   469   ar
   884   467   466   ar
   885   561   567   ar
   886   561   560   ar
   887  1133  1131    1
   888  1133  1134    1
   889  1049  1047    1
   890  1049  1050    1
   891   567   556    1
   892  1130  1128    1
   893  1130  1129    1
   894  1085  1064    2
   895  1297  1296    1
   896  1297  1302    1
   897  1054  1053    1
   898  1054  1055   ar
   899   605   604    2
   900   585   588   ar
   901   585   584   ar
   902   588   589   ar
   903   604   603   ar
   904   537   535   ar
   905  1057  1055   ar
   906   617   616    1
   907  1298  1296    1
   908  1298  1299    1
   909  1298  1300    1
   910  1131  1129    1
   911   465   460    1
   912   465   475    1
   913   548   550    1
   914   493   496   ar
   915   493   494   ar
   916  1064  1050    1
   917  1064  1084    1
   918  1074  1075   ar
   919   609   610   ar
   920  1134  1148    1
   921   517   511   ar
   922   517   518    2
   923  1148  1166    1
   924  1302  1300    1
   925  1128  1112    1
   926  1128  1146    1
   927  1053  1048    1
   928   814   812    1
   929   459   460    1
   930   459   457    1
   931   558   560   ar
   932   558   559    1
   933  1047  1048    1
   934  1055  1056    2
   935   124   122    1
   936   124   119    1
   937   466   471   ar
   938   616   614    1
   939   469   475   ar
   940   469   470   ar
   941   581   582    1
   942   581   583   ar
   943   488   494   ar
   944   551   556    1
   945   551   550    1
   946   123   122    1
   947   592   570    2
   948  1300  1301    1
   949    87    86    2
   950   475   474   ar
   951   540   541    2
   952   540   534   ar
   953   556   554    1
   954   550   552    1
   955   494   495    2
   956    83    82    1
   957   603   610   ar
   958   603   602    1
   959   589   590   ar
   960   584   583   ar
   961   584   590   ar
   962   122   120    1
   963   535   534   ar
   964   535   536    1
   965   119   118    1
   966   552   554    1
   967   552   553    1
   968   457   458    1
   969   471   470   ar
   970   471   472    1
   971   470   473   ar
   972    67    66    2
   973   615   614    1
   974   615   613    1
   975   554   555    1
   976    86    88   ar
   977    86    85   ar
   978   474   473   ar
   979   590   579    1
   980   458   456    1
   981   570   553    1
   982   570   572    1
   983   570   591    1
   984    84    82    1
   985    84    85    1
   986    84    79    1
   987    82    80    1
   988   602   600    1
   989   602   597    1
   990    88    89   ar
   991   600   601    1
   992   600   598    1
   993   445   444   ar
   994   445   446   ar
   995   444   449   ar
   996   634   613    2
   997    68    66   ar
   998    68    69   ar
   999    66    65   ar
  1000   120   118    1
  1001   120   121    1
  1002   118   116    1
  1003    85    92   ar
  1004   572   571    1
  1005    79    78    1
  1006   613   599    1
  1007   613   633    1
  1008   142   141    1
  1009   142   147    1
  1010   446   447   ar
  1011   121   138    1
  1012   612   593    2
  1013   116   117    1
  1014   598   599    1
  1015   598   596    1
  1016   476   456    2
  1017   139   141    1
  1018   139   140    1
  1019   449   450    1
  1020   449   448   ar
  1021   456   477    1
  1022   456   440    1
  1023    78    80    1
  1024    78    76    1
  1025   117   115    1
  1026   579   574    1
  1027   579   577    1
  1028   597   596    1
  1029   141   143    1
  1030    80    81    1
  1031    89    90    1
  1032    89    91   ar
  1033    63    62    1
  1034    70    69    1
  1035    69    71   ar
  1036    30    28    2
  1037    65    64    1
  1038    65    72   ar
  1039   147   148    1
  1040   147   145    1
  1041    64    62    1
  1042    64    59    1
  1043    92    91   ar
  1044   574   573    1
  1045   595   593    1
  1046   595   594    1
  1047   577   575    1
  1048   577   578    1
  1049   447   448   ar
  1050   447   453   ar
  1051   442   441    1
  1052   575   573    1
  1053   575   576    1
  1054   571   573    1
  1055   441   439    1
  1056   441   443    1
  1057    29    27    2
  1058    62    60    1
  1059   448   451   ar
  1060   596   594    1
  1061   136   115    2
  1062   140   138    1
  1063   146   145    1
  1064    50    49    1
  1065   593   576    1
  1066   593   611    1
  1067    48    49   ar
  1068    48    46   ar
  1069   148   155   ar
  1070   148   149   ar
  1071   150   149    2
  1072    47    46    2
  1073   440   439    1
  1074   115   137    1
  1075   138   156    2
  1076   138   157    1
  1077   155   154   ar
  1078   149   151   ar
  1079    76    77    1
  1080    59    58    1
  1081   145   143    1
  1082   439   437    1
  1083    71    72   ar
  1084    28    26   am
  1085   143   144    1
  1086   453   443    1
  1087   453   452   ar
  1088    49    51   ar
  1089    46    45   ar
  1090    77    75    1
  1091   443   438    1
  1092   451   452   ar
  1093   154   152   ar
  1094   151   152   ar
  1095    27    25   am
  1096    27    31    1
  1097   144   158    1
  1098    25    34    1
  1099    32    21    3
  1100   152   153    2
  1101    26    22   am
  1102    60    58    1
  1103    60    61    1
  1104    58    56    1
  1105   437   438    1
  1106   437   435    1
  1107    61    75    1
  1108   321   300    2
  1109    45    52   ar
  1110    45    44    1
  1111    51    52   ar
  1112    31    33    2
  1113    75    93    2
  1114    75    94    1
  1115    21    20    1
  1116   423   422    1
  1117    23    22    1
  1118    23    20    1
  1119    34    19    2
  1120   158   176    2
  1121   158   177    1
  1122   158   160    1
  1123   436   435    1
  1124   436   434    1
  1125    22    24    2
  1126   455   434    2
  1127    43    42    1
  1128    44    42    1
  1129    44    39    1
  1130    56    57    1
  1131    42    40    1
  1132   159   160    1
  1133   159   161    1
  1134   422   421   ar
  1135   422   424   ar
  1136   454   434    1
  1137   283   284    1
  1138   283   285    1
  1139   421   427   ar
  1140   434   417    1
  1141   162   161    1
  1142   162   167    1
  1143    57    55    1
  1144   300   288    1
  1145   300   322    1
  1146   300   302    1
  1147   288   287    1
  1148   175   174   ar
  1149   175   168   ar
  1150   174   172   ar
  1151   424   425   ar
  1152   161   163    1
  1153   427   428    2
  1154   427   426   ar
  1155    39    38    1
  1156     4     3    1
  1157   285   287    1
  1158   285   286    1
  1159    40    41    1
  1160    40    38    1
  1161   167   168    1
  1162   167   165    1
  1163   168   169   ar
  1164   419   418    1
  1165   172   173    1
  1166   172   171   ar
  1167   302   301    1
  1168   418   416    1
  1169   418   420    1
  1170   425   426   ar
  1171   425   431   ar
  1172   287   289    1
  1173    17    18    1
  1174    17     8    1
  1175    17    13    1
  1176   301   303    1
  1177   426   429   ar
  1178    41    55    1
  1179    55    74    2
  1180    55    73    1
  1181     8     7    1
  1182   417   416    1
  1183   169   171   ar
  1184   169   170    2
  1185    38    36    1
  1186   345   323    2
  1187   416   414    1
  1188   163   165    1
  1189   163   164    1
  1190    13    10    1
  1191     3     2    1
  1192   286   291    1
  1193   431   420    1
  1194   431   430   ar
  1195     7     6    1
  1196     2     1    1
  1197    14    15    2
  1198   344   323    1
  1199   420   415    1
  1200   165   166    1
  1201   429   430   ar
  1202   405   404    1
  1203     6     9    1
  1204     6     5    1
  1205   290   289    1
  1206    37    36    1
  1207    37    35    1
  1208   289   291    1
  1209     9    12    2
  1210   323   306    1
  1211   323   325    1
  1212   306   305    1
  1213   303   305    1
  1214   303   304    1
  1215   164   178    1
  1216    54    35    2
  1217   399   404   ar
  1218   399   400   ar
  1219   291   292    1
  1220   404   403   ar
  1221   305   307    1
  1222   414   415    1
  1223   414   412    1
  1224    35    11    1
  1225    35    53    1
  1226   299   292   ar
  1227   299   298   ar
  1228   197   178    2
  1229   304   309    1
  1230   400   401   ar
  1231   292   293   ar
  1232   178   196    1
  1233   178   180    1
  1234   325   324    1
  1235   403   406   ar
  1236   403   402   ar
  1237   193   192    1
  1238   194   192   ar
  1239   194   195   ar
  1240   298   296   ar
  1241   319   318   ar
  1242   319   320   ar
  1243   413   412    1
  1244   413   411    1
  1245   364   346    2
  1246   406   407   ar
  1247   192   191   ar
  1248   307   309    1
  1249   307   308    1
  1250   383   382    2
  1251   401   402   ar
  1252   195   188   ar
  1253   309   320    1
  1254   402   408   ar
  1255   318   315   ar
  1256   365   346    1
  1257   180   179    1
  1258   324   326    1
  1259   433   411    2
  1260   320   314   ar
  1261   293   294    2
  1262   293   295   ar
  1263   179   181    1
  1264   346   329    1
  1265   346   348    1
  1266   411   432    1
  1267   411   395    1
  1268   191   189   ar
  1269   407   408   ar
  1270   182   181    1
  1271   182   187    1
  1272   296   295   ar
  1273   296   297    1
  1274   382   376   ar
  1275   382   381   ar
  1276   188   189   ar
  1277   188   187    1
  1278   329   328    1
  1279   408   398    1
  1280   388   366    2
  1281   384   381   ar
  1282   384   385   ar
  1283   410   389    2
  1284   189   190    2
  1285   328   326    1
  1286   328   330    1
  1287   361   360    2
  1288   315   314   ar
  1289   315   316   ar
  1290   341   342   ar
  1291   341   338   ar
  1292   342   343   ar
  1293   326   327    1
  1294   376   377   ar
  1295   314   313   ar
  1296   181   183    1
  1297   362   360   ar
  1298   362   363   ar
  1299   381   380   ar
  1300   187   185    1
  1301   396   394    1
  1302   396   398    1
  1303   396   397    1
  1304   394   395    1
  1305   394   392    1
  1306   360   359   ar
  1307   348   347    1
  1308   398   393    1
  1309   347   349    1
  1310   385   386   ar
  1311   214   213    1
  1312   391   389    1
  1313   391   390    1
  1314   327   332    1
  1315   363   356   ar
  1316   366   387    1
  1317   366   368    1
  1318   366   352    1
  1319   389   409    1
  1320   389   372    1
  1321   316   317    2
  1322   316   310   ar
  1323   313   311   ar
  1324   183   185    1
  1325   183   184    1
  1326   343   332    1
  1327   343   337   ar
  1328   377   378    1
  1329   377   379   ar
  1330   330   332    1
  1331   330   331    1
  1332   338   339   ar
  1333   338   337   ar
  1334   380   386   ar
  1335   380   379   ar
  1336   340   339    2
  1337   368   367    1
  1338   185   186    1
  1339   393   392    1
  1340   386   375    1
  1341   272   271    1
  1342   359   357   ar
  1343   392   390    1
  1344   339   333   ar
  1345   213   212   ar
  1346   213   208   ar
  1347   337   336   ar
  1348   215   212   ar
  1349   215   216   ar
  1350   349   351    1
  1351   349   350    1
  1352   310   311   ar
  1353   351   352    1
  1354   351   353    1
  1355   311   312    1
  1356   371   372    1
  1357   371   373    1
  1358   371   369    1
  1359   356   357   ar
  1360   356   355    1
  1361   184   198    1
  1362   350   355    1
  1363   212   211   ar
  1364   270   271   ar
  1365   270   276   ar
  1366   208   209   ar
  1367   373   375    1
  1368   373   374    1
  1369   219   198    2
  1370   357   358    2
  1371   271   273   ar
  1372   367   369    1
  1373   375   370    1
  1374   216   217   ar
  1375   355   353    1
  1376   333   334   ar
  1377   277   276    2
  1378   370   369    1
  1379   235   234    1
  1380   336   334   ar
  1381   353   354    1
  1382   198   200    1
  1383   198   218    1
  1384   276   275   ar
  1385   211   217   ar
  1386   211   210   ar
  1387   209   210   ar
  1388   334   335    1
  1389   255   254    1
  1390   273   274   ar
  1391   217   207    1
  1392   200   199    1
  1393   234   233   ar
  1394   234   236   ar
  1395   253   254   ar
  1396   253   251   ar
  1397   275   274   ar
  1398   275   278   ar
  1399   233   231   ar
  1400   254   256   ar
  1401   274   280   ar
  1402   202   207    1
  1403   202   201    1
  1404   236   237   ar
  1405   199   201    1
  1406   207   205    1
  1407   252   251    2
  1408   251   250   ar
  1409   201   203    1
  1410   231   232    2
  1411   231   230   ar
  1412   278   279   ar
  1413   256   257   ar
  1414   280   269    1
  1415   280   279   ar
  1416   237   230   ar
  1417   203   205    1
  1418   203   204    1
  1419   205   206    1
  1420   230   229    1
  1421   269   267    1
  1422   269   264    1
  1423   250   257   ar
  1424   250   249    1
  1425   268   267    1
  1426   239   220    2
  1427   267   265    1
  1428   204   220    1
  1429   264   263    1
  1430   249   244    1
  1431   249   247    1
  1432   229   224    1
  1433   229   227    1
  1434   220   222    1
  1435   220   238    1
  1436   222   221    1
  1437   224   223    1
  1438   244   243    1
  1439   265   263    1
  1440   265   266    1
  1441   247   248    1
  1442   247   245    1
  1443   227   225    1
  1444   227   228    1
  1445   263   261    1
  1446   225   223    1
  1447   225   226    1
  1448   223   221    1
  1449   245   243    1
  1450   245   246    1
  1451   262   261    1
  1452   262   260    1
  1453   242   241    1
  1454   242   240    1
  1455   243   241    1
  1456   259   240    2
  1457   282   260    2
  1458   226   240    1
  1459   240   258    1
  1460   246   260    1
  1461   260   281    1
