2bee_lig
 OpenBabel02221317003D

 49 52  0  0  1  0  0  0  0  0999 V2000
   44.9810    7.4620   -7.3850 C   0  0  2  0  0  0  0  0  0  0  0  0
   45.9570    6.4910   -7.7410 O   0  0  0  0  0  0  0  0  0  0  0  0
   49.3750    4.4080   -5.9100 C   0  0  2  0  0  0  0  0  0  0  0  0
   50.5550    4.1660   -5.0360 N   0  0  0  0  0  0  0  0  0  0  0  0
   44.7970    4.4030   -4.6520 C   0  0  1  0  0  0  0  0  0  0  0  0
   42.5940    6.2830   -1.2550 C   0  0  1  0  0  0  0  0  0  0  0  0
   39.5790   -1.4370   -5.7000 C   0  0  0  0  0  0  0  0  0  0  0  0
   43.6580    7.2390   -8.2150 C   0  0  2  0  0  0  0  0  0  0  0  0
   43.1860    5.8690   -8.0450 N   0  0  0  0  0  0  0  0  0  0  0  0
   49.6270    5.7170   -6.7880 C   0  0  0  0  0  0  0  0  0  0  0  0
   44.3230    3.7100   -3.4160 C   0  0  2  0  0  0  0  0  0  0  0  0
   44.1490    2.2590   -3.6020 O   0  0  0  0  0  0  0  0  0  0  0  0
   42.6170    5.6760    0.2490 C   0  0  2  0  0  0  0  0  0  0  0  0
   41.3220    4.9530    0.4800 N   0  0  0  0  0  0  0  0  0  0  0  0
   39.0030   -1.8950   -4.4920 C   0  0  0  0  0  0  0  0  0  0  0  0
   37.6380   -2.1670   -4.4330 N   0  0  0  0  0  0  0  0  0  0  0  0
   43.9340    7.5780   -9.7450 C   0  0  1  0  0  0  0  0  0  0  0  0
   42.7370    7.3790  -10.4830 O   0  0  0  0  0  0  0  0  0  0  0  0
   48.3450    6.0250   -7.7540 C   0  0  2  0  0  0  0  0  0  0  0  0
   48.5640    7.1860   -8.5480 N   0  0  0  0  0  0  0  0  0  0  0  0
   43.1520    4.6230   -3.1440 C   0  0  2  0  0  0  0  0  0  0  0  0
   42.3910    5.1400   -2.1200 O   0  0  0  0  0  0  0  0  0  0  0  0
   42.7790    6.8650    1.2620 C   0  0  1  0  0  0  0  0  0  0  0  0
   44.0710    7.5080    0.9810 O   0  0  0  0  0  0  0  0  0  0  0  0
   44.4250    9.0400   -9.8580 C   0  0  2  0  0  0  0  0  0  0  0  0
   44.7100    9.3940  -11.2720 O   0  0  0  0  0  0  0  0  0  0  0  0
   47.0480    6.2200   -6.8760 C   0  0  2  0  0  0  0  0  0  0  0  0
   42.6230    4.9740   -4.6220 C   0  0  2  0  0  0  0  0  0  0  0  0
   43.7820    5.1060   -5.3100 O   0  0  0  0  0  0  0  0  0  0  0  0
   41.5360    7.9050    1.0700 C   0  0  2  0  0  0  0  0  0  0  0  0
   40.2410    7.2460    1.3530 O   0  0  0  0  0  0  0  0  0  0  0  0
   45.7340    9.2500   -9.0260 C   0  0  2  0  0  0  0  0  0  0  0  0
   45.3850    8.8780   -7.6680 O   0  0  0  0  0  0  0  0  0  0  0  0
   46.8490    4.9140   -6.0350 C   0  0  2  0  0  0  0  0  0  0  0  0
   45.6690    5.1850   -5.3180 O   0  0  0  0  0  0  0  0  0  0  0  0
   41.8350    6.3210   -4.8230 C   0  0  0  0  0  0  0  0  0  0  0  0
   42.7530    7.4490   -4.6670 O   0  0  0  0  0  0  0  0  0  0  0  0
   41.5070    8.4530   -0.4260 C   0  0  1  0  0  0  0  0  0  0  0  0
   41.4020    7.2470   -1.3360 O   0  0  0  0  0  0  0  0  0  0  0  0
   46.1130   10.6680   -9.1720 C   0  0  0  0  0  0  0  0  0  0  0  0
   47.2420   10.9230   -8.4970 O   0  0  0  0  0  0  0  0  0  0  0  0
   48.0940    4.6570   -5.0830 C   0  0  1  0  0  0  0  0  0  0  0  0
   47.9090    3.4870   -4.3460 O   0  0  0  0  0  0  0  0  0  0  0  0
   42.8630    1.5450   -3.5440 C   0  0  0  0  0  0  0  0  0  0  0  0
   40.2730    9.4150   -0.4960 C   0  0  0  0  0  0  0  0  0  0  0  0
   40.0920    9.9990   -1.7940 N   0  0  0  0  0  0  0  0  0  0  0  0
   42.8550    0.4340   -4.5950 C   0  0  0  0  0  0  0  0  0  0  0  0
   41.4540   -0.0080   -4.7360 N   0  0  0  0  0  0  0  0  0  0  0  0
   41.1480   -1.1330   -5.7270 C   0  0  0  0  0  0  0  0  0  0  0  0
  1  2  1  6  0  0  0
  1  8  1  0  0  0  0
  1 33  1  0  0  0  0
  3  4  1  1  0  0  0
  3 10  1  0  0  0  0
  3 42  1  0  0  0  0
  5 11  1  0  0  0  0
  5 29  1  0  0  0  0
  5 35  1  1  0  0  0
  6 13  1  0  0  0  0
  6 39  1  0  0  0  0
  6 22  1  1  0  0  0
  7 15  1  0  0  0  0
  8  9  1  6  0  0  0
  8 17  1  0  0  0  0
 10 19  1  0  0  0  0
 11 12  1  6  0  0  0
 11 21  1  0  0  0  0
 12 44  1  0  0  0  0
 13 14  1  6  0  0  0
 13 23  1  0  0  0  0
 15 16  1  0  0  0  0
 17 18  1  1  0  0  0
 17 25  1  0  0  0  0
 19 20  1  1  0  0  0
 19 27  1  0  0  0  0
 21 22  1  6  0  0  0
 21 28  1  0  0  0  0
 23 24  1  6  0  0  0
 23 30  1  0  0  0  0
 25 26  1  6  0  0  0
 25 32  1  0  0  0  0
 27  2  1  6  0  0  0
 27 34  1  0  0  0  0
 28 29  1  0  0  0  0
 28 36  1  1  0  0  0
 30 31  1  6  0  0  0
 30 38  1  0  0  0  0
 32 33  1  0  0  0  0
 32 40  1  1  0  0  0
 34 35  1  1  0  0  0
 34 42  1  0  0  0  0
 36 37  1  0  0  0  0
 38 39  1  0  0  0  0
 38 45  1  1  0  0  0
 40 41  1  0  0  0  0
 42 43  1  6  0  0  0
 44 47  1  0  0  0  0
 45 46  1  0  0  0  0
 47 48  1  0  0  0  0
 48 49  1  0  0  0  0
 49  7  1  0  0  0  0
M  END
$$$$
