2bee_lig
 OpenBabel11021811423D
libRbt.so/2013.1/901 2013/11/27
 49 52  0  0  0  0  0  0  0  0999 V2000
   44.6001    7.2176   -7.2110 C   0  0  2  0  0  0  0  0  0  0  0  0
   45.6072    6.3436   -7.7050 O   0  0  0  0  0  0  0  0  0  0  0  0
   49.2709    4.3690   -6.2724 C   0  0  2  0  0  0  0  0  0  0  0  0
   50.5225    4.1437   -5.4993 N   0  0  0  0  0  0  0  0  0  0  0  0
   44.8854    3.9775   -4.6100 C   0  0  1  0  0  0  0  0  0  0  0  0
   43.2623    5.4891   -0.7315 C   0  0  1  0  0  0  0  0  0  0  0  0
   40.7090   -1.9502   -6.1548 C   0  0  0  0  0  0  0  0  0  0  0  0
   43.2444    6.9834   -7.9830 C   0  0  2  0  0  0  0  0  0  0  0  0
   42.8635    5.5769   -7.9092 N   0  0  0  0  0  0  0  0  0  0  0  0
   49.3769    5.7544   -7.0580 C   0  0  0  0  0  0  0  0  0  0  0  0
   44.6795    3.2141   -3.3421 C   0  0  2  0  0  0  0  0  0  0  0  0
   44.5771    1.7603   -3.5573 O   0  0  0  0  0  0  0  0  0  0  0  0
   42.4132    5.1477    0.6077 C   0  0  2  0  0  0  0  0  0  0  0  0
   40.9571    5.1254    0.2437 N   0  0  0  0  0  0  0  0  0  0  0  0
   39.5342   -1.9921   -5.3680 C   0  0  0  0  0  0  0  0  0  0  0  0
   38.6952   -0.8814   -5.3134 N   0  0  0  0  0  0  0  0  0  0  0  0
   43.4072    7.4679   -9.4899 C   0  0  1  0  0  0  0  0  0  0  0  0
   42.1812    7.2576  -10.1753 O   0  0  0  0  0  0  0  0  0  0  0  0
   48.0132    6.0452   -7.9107 C   0  0  2  0  0  0  0  0  0  0  0  0
   48.1016    7.2748   -8.6224 N   0  0  0  0  0  0  0  0  0  0  0  0
   43.5122    4.0276   -2.8379 C   0  0  2  0  0  0  0  0  0  0  0  0
   42.9041    4.4549   -1.6791 O   0  0  0  0  0  0  0  0  0  0  0  0
   42.7027    6.2611    1.6766 C   0  0  1  0  0  0  0  0  0  0  0  0
   44.1385    6.2074    1.9885 O   0  0  0  0  0  0  0  0  0  0  0  0
   43.8053    8.9621   -9.5000 C   0  0  2  0  0  0  0  0  0  0  0  0
   43.9832    9.4523  -10.8907 O   0  0  0  0  0  0  0  0  0  0  0  0
   46.7714    6.0841   -6.9373 C   0  0  2  0  0  0  0  0  0  0  0  0
   42.7145    4.3818   -4.1891 C   0  0  2  0  0  0  0  0  0  0  0  0
   43.7263    4.6213   -5.0568 O   0  0  0  0  0  0  0  0  0  0  0  0
   42.2742    7.7130    1.0668 C   0  0  2  0  0  0  0  0  0  0  0  0
   40.8278    7.7543    0.7545 O   0  0  0  0  0  0  0  0  0  0  0  0
   45.1479    9.1824   -8.7263 C   0  0  2  0  0  0  0  0  0  0  0  0
   44.9038    8.6751   -7.3894 O   0  0  0  0  0  0  0  0  0  0  0  0
   46.7154    4.7080   -6.1917 C   0  0  2  0  0  0  0  0  0  0  0  0
   45.5740    4.8426   -5.3800 O   0  0  0  0  0  0  0  0  0  0  0  0
   41.8124    5.6709   -4.1970 C   0  0  0  0  0  0  0  0  0  0  0  0
   40.8973    5.6307   -3.0565 O   0  0  0  0  0  0  0  0  0  0  0  0
   43.0880    8.0062   -0.2715 C   0  0  1  0  0  0  0  0  0  0  0  0
   42.7958    6.8661   -1.2246 O   0  0  0  0  0  0  0  0  0  0  0  0
   45.4349   10.6287   -8.7669 C   0  0  0  0  0  0  0  0  0  0  0  0
   46.6995   10.8660   -8.3932 O   0  0  0  0  0  0  0  0  0  0  0  0
   48.0381    4.4665   -5.3464 C   0  0  1  0  0  0  0  0  0  0  0  0
   47.9801    3.2345   -4.6944 O   0  0  0  0  0  0  0  0  0  0  0  0
   43.4420    1.0760   -4.1980 C   0  0  0  0  0  0  0  0  0  0  0  0
   42.5829    9.4019   -0.7717 C   0  0  0  0  0  0  0  0  0  0  0  0
   41.2320    9.3678   -1.2540 N   0  0  0  0  0  0  0  0  0  0  0  0
   43.5793   -0.4327   -3.9887 C   0  0  0  0  0  0  0  0  0  0  0  0
   42.2903   -1.0354   -4.3801 N   0  0  0  0  0  0  0  0  0  0  0  0
   41.8095   -0.8405   -5.8196 C   0  0  0  0  0  0  0  0  0  0  0  0
  1  2  1  6  0  0  0
  1  8  1  0  0  0  0
  1 33  1  0  0  0  0
  3  4  1  1  0  0  0
  3 10  1  0  0  0  0
  3 42  1  0  0  0  0
  5 11  1  0  0  0  0
  5 29  1  0  0  0  0
  5 35  1  1  0  0  0
  6 13  1  0  0  0  0
  6 39  1  0  0  0  0
  6 22  1  6  0  0  0
  7 15  1  0  0  0  0
  8  9  1  6  0  0  0
  8 17  1  0  0  0  0
 10 19  1  0  0  0  0
 11 12  1  6  0  0  0
 11 21  1  0  0  0  0
 12 44  1  0  0  0  0
 13 14  1  6  0  0  0
 13 23  1  0  0  0  0
 15 16  1  0  0  0  0
 17 18  1  6  0  0  0
 17 25  1  0  0  0  0
 19 20  1  1  0  0  0
 19 27  1  0  0  0  0
 21 22  1  1  0  0  0
 21 28  1  0  0  0  0
 23 24  1  6  0  0  0
 23 30  1  0  0  0  0
 25 26  1  6  0  0  0
 25 32  1  0  0  0  0
 27  2  1  6  0  0  0
 27 34  1  0  0  0  0
 28 29  1  0  0  0  0
 28 36  1  1  0  0  0
 30 31  1  6  0  0  0
 30 38  1  0  0  0  0
 32 33  1  0  0  0  0
 32 40  1  1  0  0  0
 34 35  1  1  0  0  0
 34 42  1  0  0  0  0
 36 37  1  0  0  0  0
 38 39  1  0  0  0  0
 38 45  1  6  0  0  0
 40 41  1  0  0  0  0
 42 43  1  6  0  0  0
 44 47  1  0  0  0  0
 45 46  1  0  0  0  0
 47 48  1  0  0  0  0
 48 49  1  0  0  0  0
 49  7  1  0  0  0  0
M  END
>  <CHROM.1>
-161.53306056,81.46910774,-162.25501995,59.74923169,-70.59965454,-168.90739203
75.89427462,-139.96231511,-52.55006856,-166.25579583,171.30391890,-69.74831908
167.82490433,60.27416501,160.73347808,59.61136110,44.03024844,5.29741586
-4.77235406,0.06699457,1.10187646,0.50355855

>  <Name>
2bee_lig

>  <RI>
3.71943e+07

>  <Rbt.Current_Directory>
/home/itssahil/PROJECTS/Mol_Feturizer/New_Systems/rnas/2bee

>  <Rbt.Executable>
rbdock ($Id: //depot/dev/client3/rdock/2013.1/src/exe/rbdock.cxx#4 $)

>  <Rbt.Library>
libRbt.so (2013.1, Build901 2013/11/27)

>  <Rbt.Parameter_File>
/export/apps/rDock/src/rDock_2013.1_src/data/scripts/dock_solv.prm

>  <Rbt.Receptor>
prm/pocket_docking_2.prm

>  <SCORE>
-16.9288

>  <SCORE.INTER>
-11.1307

>  <SCORE.INTER.CONST>
1

>  <SCORE.INTER.POLAR>
-0.938083

>  <SCORE.INTER.ROT>
16

>  <SCORE.INTER.SOLV>
15.5748

>  <SCORE.INTER.VDW>
-23.7518

>  <SCORE.INTER.norm>
-0.227157

>  <SCORE.INTRA>
-5.83522

>  <SCORE.INTRA.DIHEDRAL>
-17.1562

>  <SCORE.INTRA.DIHEDRAL.0>
36.0842

>  <SCORE.INTRA.POLAR>
0

>  <SCORE.INTRA.POLAR.0>
0

>  <SCORE.INTRA.REPUL>
0

>  <SCORE.INTRA.REPUL.0>
0

>  <SCORE.INTRA.SOLV>
3.08382

>  <SCORE.INTRA.SOLV.lig_0>
-126.444

>  <SCORE.INTRA.VDW>
1.20099

>  <SCORE.INTRA.VDW.0>
-7.40469

>  <SCORE.INTRA.norm>
-0.119086

>  <SCORE.RESTR>
0.0371422

>  <SCORE.RESTR.CAVITY>
0.0371422

>  <SCORE.RESTR.norm>
0.000758004

>  <SCORE.SYSTEM>
0

>  <SCORE.SYSTEM.CONST>
0

>  <SCORE.SYSTEM.DIHEDRAL>
0

>  <SCORE.SYSTEM.SOLV>
0

>  <SCORE.SYSTEM.norm>
0

>  <SCORE.heavy>
49

>  <SCORE.norm>
-0.345485

>  <RMSD>
1.010

$$$$
2bee_lig
 OpenBabel11021811423D
libRbt.so/2013.1/901 2013/11/27
 49 52  0  0  0  0  0  0  0  0999 V2000
   44.6744    7.3154   -7.4542 C   0  0  2  0  0  0  0  0  0  0  0  0
   45.7381    6.5148   -7.9537 O   0  0  0  0  0  0  0  0  0  0  0  0
   49.1590    4.2993   -6.2914 C   0  0  2  0  0  0  0  0  0  0  0  0
   50.3505    3.9985   -5.4518 N   0  0  0  0  0  0  0  0  0  0  0  0
   44.6221    4.2895   -4.9265 C   0  0  1  0  0  0  0  0  0  0  0  0
   43.0336    5.8379   -1.0530 C   0  0  1  0  0  0  0  0  0  0  0  0
   40.0860   -1.5744   -5.0288 C   0  0  0  0  0  0  0  0  0  0  0  0
   43.3998    7.1679   -8.3722 C   0  0  2  0  0  0  0  0  0  0  0  0
   43.0390    5.7605   -8.5044 N   0  0  0  0  0  0  0  0  0  0  0  0
   49.4133    5.6481   -7.1062 C   0  0  0  0  0  0  0  0  0  0  0  0
   44.2422    3.4638   -3.7406 C   0  0  2  0  0  0  0  0  0  0  0  0
   43.9108    2.0721   -4.0921 O   0  0  0  0  0  0  0  0  0  0  0  0
   43.2958    5.0213    0.3237 C   0  0  2  0  0  0  0  0  0  0  0  0
   42.0312    4.2978    0.6849 N   0  0  0  0  0  0  0  0  0  0  0  0
   39.2448   -1.8349   -6.1358 C   0  0  0  0  0  0  0  0  0  0  0  0
   39.0160   -0.8396   -7.0833 N   0  0  0  0  0  0  0  0  0  0  0  0
   43.6918    7.8334   -9.7878 C   0  0  1  0  0  0  0  0  0  0  0  0
   42.5380    7.6999  -10.6051 O   0  0  0  0  0  0  0  0  0  0  0  0
   48.1192    6.0206   -8.0325 C   0  0  2  0  0  0  0  0  0  0  0  0
   48.3400    7.2178   -8.7704 N   0  0  0  0  0  0  0  0  0  0  0  0
   43.2052    4.4143   -3.1930 C   0  0  2  0  0  0  0  0  0  0  0  0
   42.6293    4.8347   -2.0154 O   0  0  0  0  0  0  0  0  0  0  0  0
   43.6880    6.0495    1.4440 C   0  0  1  0  0  0  0  0  0  0  0  0
   44.9372    6.7011    1.0237 O   0  0  0  0  0  0  0  0  0  0  0  0
   44.0622    9.3203   -9.5804 C   0  0  2  0  0  0  0  0  0  0  0  0
   44.3585    9.9773  -10.8790 O   0  0  0  0  0  0  0  0  0  0  0  0
   46.8401    6.1867   -7.1230 C   0  0  2  0  0  0  0  0  0  0  0  0
   42.5321    5.0135   -4.5254 C   0  0  2  0  0  0  0  0  0  0  0  0
   43.6039    5.1548   -5.3411 O   0  0  0  0  0  0  0  0  0  0  0  0
   42.4786    7.1301    1.6261 C   0  0  2  0  0  0  0  0  0  0  0  0
   41.2261    6.4624    2.0467 O   0  0  0  0  0  0  0  0  0  0  0  0
   45.3238    9.4537   -8.6637 C   0  0  2  0  0  0  0  0  0  0  0  0
   44.9669    8.7858   -7.4264 O   0  0  0  0  0  0  0  0  0  0  0  0
   46.6382    4.8421   -6.3459 C   0  0  2  0  0  0  0  0  0  0  0  0
   45.4743    5.0907   -5.5953 O   0  0  0  0  0  0  0  0  0  0  0  0
   41.8554    6.4312   -4.4367 C   0  0  0  0  0  0  0  0  0  0  0  0
   41.1463    6.7102   -5.6852 O   0  0  0  0  0  0  0  0  0  0  0  0
   42.2093    7.8872    0.2502 C   0  0  1  0  0  0  0  0  0  0  0  0
   41.8906    6.8263   -0.7825 O   0  0  0  0  0  0  0  0  0  0  0  0
   45.5873   10.8960   -8.5026 C   0  0  0  0  0  0  0  0  0  0  0  0
   46.9059   11.1337   -8.4983 O   0  0  0  0  0  0  0  0  0  0  0  0
   47.8957    4.5216   -5.4303 C   0  0  1  0  0  0  0  0  0  0  0  0
   47.7079    3.3179   -4.7504 O   0  0  0  0  0  0  0  0  0  0  0  0
   43.8818    0.9430   -3.1480 C   0  0  0  0  0  0  0  0  0  0  0  0
   41.0269    8.8730    0.5387 C   0  0  0  0  0  0  0  0  0  0  0  0
   39.7567    8.2117    0.6285 N   0  0  0  0  0  0  0  0  0  0  0  0
   43.6280   -0.3531   -3.9192 C   0  0  0  0  0  0  0  0  0  0  0  0
   42.1639   -0.5196   -4.0009 N   0  0  0  0  0  0  0  0  0  0  0  0
   41.5690   -1.0476   -5.3081 C   0  0  0  0  0  0  0  0  0  0  0  0
  1  2  1  6  0  0  0
  1  8  1  0  0  0  0
  1 33  1  0  0  0  0
  3  4  1  1  0  0  0
  3 10  1  0  0  0  0
  3 42  1  0  0  0  0
  5 11  1  0  0  0  0
  5 29  1  0  0  0  0
  5 35  1  1  0  0  0
  6 13  1  0  0  0  0
  6 39  1  0  0  0  0
  6 22  1  6  0  0  0
  7 15  1  0  0  0  0
  8  9  1  6  0  0  0
  8 17  1  0  0  0  0
 10 19  1  0  0  0  0
 11 12  1  6  0  0  0
 11 21  1  0  0  0  0
 12 44  1  0  0  0  0
 13 14  1  1  0  0  0
 13 23  1  0  0  0  0
 15 16  1  0  0  0  0
 17 18  1  6  0  0  0
 17 25  1  0  0  0  0
 19 20  1  1  0  0  0
 19 27  1  0  0  0  0
 21 22  1  1  0  0  0
 21 28  1  0  0  0  0
 23 24  1  6  0  0  0
 23 30  1  0  0  0  0
 25 26  1  6  0  0  0
 25 32  1  0  0  0  0
 27  2  1  6  0  0  0
 27 34  1  0  0  0  0
 28 29  1  0  0  0  0
 28 36  1  1  0  0  0
 30 31  1  6  0  0  0
 30 38  1  0  0  0  0
 32 33  1  0  0  0  0
 32 40  1  1  0  0  0
 34 35  1  1  0  0  0
 34 42  1  0  0  0  0
 36 37  1  0  0  0  0
 38 39  1  0  0  0  0
 38 45  1  1  0  0  0
 40 41  1  0  0  0  0
 42 43  1  6  0  0  0
 44 47  1  0  0  0  0
 45 46  1  0  0  0  0
 47 48  1  0  0  0  0
 48 49  1  0  0  0  0
 49  7  1  0  0  0  0
M  END
>  <CHROM.1>
-162.39374864,78.69327377,-117.34376098,-54.85397279,161.37154327,-174.57233062
85.18254879,-149.88237573,-172.10047794,-142.22256241,164.99448483,-75.13211141
-88.44414678,140.52964859,162.35884753,166.43698049,44.00690390,5.40222086
-4.84578417,-0.11997665,1.11987631,0.63184306

>  <Name>
2bee_lig

>  <RI>
3.71943e+07

>  <Rbt.Current_Directory>
/home/itssahil/PROJECTS/Mol_Feturizer/New_Systems/rnas/2bee

>  <Rbt.Executable>
rbdock ($Id: //depot/dev/client3/rdock/2013.1/src/exe/rbdock.cxx#4 $)

>  <Rbt.Library>
libRbt.so (2013.1, Build901 2013/11/27)

>  <Rbt.Parameter_File>
/export/apps/rDock/src/rDock_2013.1_src/data/scripts/dock_solv.prm

>  <Rbt.Receptor>
prm/pocket_docking_2.prm

>  <SCORE>
-14.867

>  <SCORE.INTER>
-12.3743

>  <SCORE.INTER.CONST>
1

>  <SCORE.INTER.POLAR>
-0.938083

>  <SCORE.INTER.ROT>
16

>  <SCORE.INTER.SOLV>
17.484

>  <SCORE.INTER.VDW>
-25.2173

>  <SCORE.INTER.norm>
-0.252537

>  <SCORE.INTRA>
-2.59186

>  <SCORE.INTRA.DIHEDRAL>
-5.96318

>  <SCORE.INTRA.DIHEDRAL.0>
36.0842

>  <SCORE.INTRA.POLAR>
0

>  <SCORE.INTRA.POLAR.0>
0

>  <SCORE.INTRA.REPUL>
0

>  <SCORE.INTRA.REPUL.0>
0

>  <SCORE.INTRA.SOLV>
0.141647

>  <SCORE.INTRA.SOLV.lig_0>
-126.444

>  <SCORE.INTRA.VDW>
0.318904

>  <SCORE.INTRA.VDW.0>
-7.40469

>  <SCORE.INTRA.norm>
-0.0528951

>  <SCORE.RESTR>
0.0991484

>  <SCORE.RESTR.CAVITY>
0.0991484

>  <SCORE.RESTR.norm>
0.00202344

>  <SCORE.SYSTEM>
0

>  <SCORE.SYSTEM.CONST>
0

>  <SCORE.SYSTEM.DIHEDRAL>
0

>  <SCORE.SYSTEM.SOLV>
0

>  <SCORE.SYSTEM.norm>
0

>  <SCORE.heavy>
49

>  <SCORE.norm>
-0.303409

>  <RMSD>
1.024

$$$$
2bee_lig
 OpenBabel11021811423D
libRbt.so/2013.1/901 2013/11/27
 49 52  0  0  0  0  0  0  0  0999 V2000
   44.4209    7.1699   -7.3836 C   0  0  2  0  0  0  0  0  0  0  0  0
   45.4619    6.3082   -7.8264 O   0  0  0  0  0  0  0  0  0  0  0  0
   49.1554    4.4724   -6.2896 C   0  0  2  0  0  0  0  0  0  0  0  0
   50.3751    4.2782   -5.4593 N   0  0  0  0  0  0  0  0  0  0  0  0
   44.6905    3.7337   -4.9428 C   0  0  1  0  0  0  0  0  0  0  0  0
   43.0838    4.8699   -0.9333 C   0  0  1  0  0  0  0  0  0  0  0  0
   39.9560   -2.0084   -4.0870 C   0  0  0  0  0  0  0  0  0  0  0  0
   43.2006    7.1129   -8.3819 C   0  0  2  0  0  0  0  0  0  0  0  0
   42.7612    5.7326   -8.5562 N   0  0  0  0  0  0  0  0  0  0  0  0
   49.2201    5.9014   -6.9980 C   0  0  0  0  0  0  0  0  0  0  0  0
   44.4999    2.7618   -3.8240 C   0  0  2  0  0  0  0  0  0  0  0  0
   44.2912    1.3807   -4.2922 O   0  0  0  0  0  0  0  0  0  0  0  0
   42.3579    4.3979    0.4383 C   0  0  2  0  0  0  0  0  0  0  0  0
   40.9213    4.0954    0.1254 N   0  0  0  0  0  0  0  0  0  0  0  0
   38.6509   -2.5538   -4.0740 C   0  0  0  0  0  0  0  0  0  0  0  0
   37.6188   -1.8693   -3.4361 N   0  0  0  0  0  0  0  0  0  0  0  0
   43.6232    7.7725   -9.7669 C   0  0  1  0  0  0  0  0  0  0  0  0
   42.5177    7.7209  -10.6569 O   0  0  0  0  0  0  0  0  0  0  0  0
   47.8889    6.1588   -7.9107 C   0  0  2  0  0  0  0  0  0  0  0  0
   47.9415    7.4275   -8.5541 N   0  0  0  0  0  0  0  0  0  0  0  0
   43.4158    3.5315   -3.1091 C   0  0  2  0  0  0  0  0  0  0  0  0
   42.8972    3.7705   -1.8565 O   0  0  0  0  0  0  0  0  0  0  0  0
   42.4660    5.5643    1.4842 C   0  0  1  0  0  0  0  0  0  0  0  0
   43.8954    5.7875    1.7464 O   0  0  0  0  0  0  0  0  0  0  0  0
   44.0723    9.2308   -9.5158 C   0  0  2  0  0  0  0  0  0  0  0  0
   44.4913    9.8806  -10.7839 O   0  0  0  0  0  0  0  0  0  0  0  0
   46.5968    6.0752   -7.0082 C   0  0  2  0  0  0  0  0  0  0  0  0
   42.5753    4.1727   -4.3215 C   0  0  2  0  0  0  0  0  0  0  0  0
   43.5551    4.5120   -5.1926 O   0  0  0  0  0  0  0  0  0  0  0  0
   41.7518    6.8987    0.8738 C   0  0  2  0  0  0  0  0  0  0  0  0
   40.3143    6.6613    0.6116 O   0  0  0  0  0  0  0  0  0  0  0  0
   45.2790    9.2745   -8.5198 C   0  0  2  0  0  0  0  0  0  0  0  0
   44.8029    8.6183   -7.3169 O   0  0  0  0  0  0  0  0  0  0  0  0
   46.5835    4.6605   -6.3364 C   0  0  2  0  0  0  0  0  0  0  0  0
   45.3943    4.6866   -5.5847 O   0  0  0  0  0  0  0  0  0  0  0  0
   41.7606    5.4890   -4.0394 C   0  0  0  0  0  0  0  0  0  0  0  0
   41.1139    5.9341   -5.2735 O   0  0  0  0  0  0  0  0  0  0  0  0
   42.4521    7.3167   -0.4952 C   0  0  1  0  0  0  0  0  0  0  0  0
   42.3501    6.1256   -1.4249 O   0  0  0  0  0  0  0  0  0  0  0  0
   45.6217   10.6955   -8.3223 C   0  0  0  0  0  0  0  0  0  0  0  0
   46.2297   11.1864   -9.4108 O   0  0  0  0  0  0  0  0  0  0  0  0
   47.8712    4.4503   -5.4309 C   0  0  1  0  0  0  0  0  0  0  0  0
   47.8523    3.1842   -4.8454 O   0  0  0  0  0  0  0  0  0  0  0  0
   43.5806    1.0015   -5.5244 C   0  0  0  0  0  0  0  0  0  0  0  0
   41.6768    8.5833   -0.9928 C   0  0  0  0  0  0  0  0  0  0  0  0
   41.8433    9.7164   -0.1286 N   0  0  0  0  0  0  0  0  0  0  0  0
   42.0727    1.0811   -5.2820 C   0  0  0  0  0  0  0  0  0  0  0  0
   41.6554   -0.2354   -4.7617 N   0  0  0  0  0  0  0  0  0  0  0  0
   40.1574   -0.5318   -4.6648 C   0  0  0  0  0  0  0  0  0  0  0  0
  1  2  1  6  0  0  0
  1  8  1  0  0  0  0
  1 33  1  0  0  0  0
  3  4  1  1  0  0  0
  3 10  1  0  0  0  0
  3 42  1  0  0  0  0
  5 11  1  0  0  0  0
  5 29  1  0  0  0  0
  5 35  1  1  0  0  0
  6 13  1  0  0  0  0
  6 39  1  0  0  0  0
  6 22  1  6  0  0  0
  7 15  1  0  0  0  0
  8  9  1  6  0  0  0
  8 17  1  0  0  0  0
 10 19  1  0  0  0  0
 11 12  1  6  0  0  0
 11 21  1  0  0  0  0
 12 44  1  0  0  0  0
 13 14  1  6  0  0  0
 13 23  1  0  0  0  0
 15 16  1  0  0  0  0
 17 18  1  6  0  0  0
 17 25  1  0  0  0  0
 19 20  1  1  0  0  0
 19 27  1  0  0  0  0
 21 22  1  6  0  0  0
 21 28  1  0  0  0  0
 23 24  1  6  0  0  0
 23 30  1  0  0  0  0
 25 26  1  6  0  0  0
 25 32  1  0  0  0  0
 27  2  1  6  0  0  0
 27 34  1  0  0  0  0
 28 29  1  0  0  0  0
 28 36  1  1  0  0  0
 30 31  1  6  0  0  0
 30 38  1  0  0  0  0
 32 33  1  0  0  0  0
 32 40  1  1  0  0  0
 34 35  1  1  0  0  0
 34 42  1  0  0  0  0
 36 37  1  0  0  0  0
 38 39  1  0  0  0  0
 38 45  1  6  0  0  0
 40 41  1  0  0  0  0
 42 43  1  6  0  0  0
 44 47  1  0  0  0  0
 45 46  1  0  0  0  0
 47 48  1  0  0  0  0
 48 49  1  0  0  0  0
 49  7  1  0  0  0  0
M  END
>  <CHROM.1>
-172.64558042,71.72733556,-171.62552055,-55.48195326,-34.26580713,-78.83117369
99.09957222,-135.65168203,177.82646239,-73.22216752,168.20509126,65.80935082
-88.48476060,-169.18188272,179.66125700,-172.07964801,43.80114136,5.16854932
-4.87495302,-0.09768963,-1.06720487,-2.56000838

>  <Name>
2bee_lig

>  <RI>
3.71943e+07

>  <Rbt.Current_Directory>
/home/itssahil/PROJECTS/Mol_Feturizer/New_Systems/rnas/2bee

>  <Rbt.Executable>
rbdock ($Id: //depot/dev/client3/rdock/2013.1/src/exe/rbdock.cxx#4 $)

>  <Rbt.Library>
libRbt.so (2013.1, Build901 2013/11/27)

>  <Rbt.Parameter_File>
/export/apps/rDock/src/rDock_2013.1_src/data/scripts/dock_solv.prm

>  <Rbt.Receptor>
prm/pocket_docking_2.prm

>  <SCORE>
-13.9879

>  <SCORE.INTER>
-7.5107

>  <SCORE.INTER.CONST>
1

>  <SCORE.INTER.POLAR>
-0.93615

>  <SCORE.INTER.ROT>
16

>  <SCORE.INTER.SOLV>
14.7086

>  <SCORE.INTER.VDW>
-21.0562

>  <SCORE.INTER.norm>
-0.153279

>  <SCORE.INTRA>
-6.59767

>  <SCORE.INTRA.DIHEDRAL>
-15.8536

>  <SCORE.INTRA.DIHEDRAL.0>
36.0842

>  <SCORE.INTRA.POLAR>
0

>  <SCORE.INTRA.POLAR.0>
0

>  <SCORE.INTRA.REPUL>
0

>  <SCORE.INTRA.REPUL.0>
0

>  <SCORE.INTRA.SOLV>
-0.412285

>  <SCORE.INTRA.SOLV.lig_0>
-126.444

>  <SCORE.INTRA.VDW>
1.53525

>  <SCORE.INTRA.VDW.0>
-7.40469

>  <SCORE.INTRA.norm>
-0.134646

>  <SCORE.RESTR>
0.120483

>  <SCORE.RESTR.CAVITY>
0.120483

>  <SCORE.RESTR.norm>
0.00245884

>  <SCORE.SYSTEM>
0

>  <SCORE.SYSTEM.CONST>
0

>  <SCORE.SYSTEM.DIHEDRAL>
0

>  <SCORE.SYSTEM.SOLV>
0

>  <SCORE.SYSTEM.norm>
0

>  <SCORE.heavy>
49

>  <SCORE.norm>
-0.285467

>  <RMSD>
1.132

$$$$
2bee_lig
 OpenBabel11021811423D
libRbt.so/2013.1/901 2013/11/27
 49 52  0  0  0  0  0  0  0  0999 V2000
   44.9522    7.3947   -7.5732 C   0  0  2  0  0  0  0  0  0  0  0  0
   46.0897    6.6932   -8.0591 O   0  0  0  0  0  0  0  0  0  0  0  0
   49.5199    4.6981   -6.1545 C   0  0  2  0  0  0  0  0  0  0  0  0
   50.7340    4.5112   -5.3142 N   0  0  0  0  0  0  0  0  0  0  0  0
   45.0231    5.0370   -4.6813 C   0  0  1  0  0  0  0  0  0  0  0  0
   43.0093    6.7466   -0.9797 C   0  0  1  0  0  0  0  0  0  0  0  0
   40.1777   -0.9753   -4.3671 C   0  0  0  0  0  0  0  0  0  0  0  0
   43.7274    7.1941   -8.5472 C   0  0  2  0  0  0  0  0  0  0  0  0
   43.4756    5.7710   -8.7474 N   0  0  0  0  0  0  0  0  0  0  0  0
   49.7735    5.8827   -7.1938 C   0  0  0  0  0  0  0  0  0  0  0  0
   44.5735    4.5644   -3.3370 C   0  0  2  0  0  0  0  0  0  0  0  0
   44.4027    3.1027   -3.2697 O   0  0  0  0  0  0  0  0  0  0  0  0
   43.6006    5.4981   -0.1296 C   0  0  2  0  0  0  0  0  0  0  0  0
   42.5461    4.4313   -0.0731 N   0  0  0  0  0  0  0  0  0  0  0  0
   40.5707   -2.0665   -5.1769 C   0  0  0  0  0  0  0  0  0  0  0  0
   39.6599   -2.6367   -6.0634 N   0  0  0  0  0  0  0  0  0  0  0  0
   44.0234    7.9360   -9.9235 C   0  0  1  0  0  0  0  0  0  0  0  0
   42.9142    7.7539  -10.7915 O   0  0  0  0  0  0  0  0  0  0  0  0
   48.4553    6.1285   -8.1284 C   0  0  2  0  0  0  0  0  0  0  0  0
   48.6750    7.1776   -9.0652 N   0  0  0  0  0  0  0  0  0  0  0  0
   43.4034    5.5088   -3.2040 C   0  0  2  0  0  0  0  0  0  0  0  0
   42.6579    6.1918   -2.2699 O   0  0  0  0  0  0  0  0  0  0  0  0
   43.9579    6.0045    1.3133 C   0  0  1  0  0  0  0  0  0  0  0  0
   45.0018    7.0303    1.1724 O   0  0  0  0  0  0  0  0  0  0  0  0
   44.2761    9.4359   -9.6448 C   0  0  2  0  0  0  0  0  0  0  0  0
   44.5725   10.1649  -10.9044 O   0  0  0  0  0  0  0  0  0  0  0  0
   47.2134    6.4802   -7.2201 C   0  0  2  0  0  0  0  0  0  0  0  0
   42.8475    5.6018   -4.7106 C   0  0  2  0  0  0  0  0  0  0  0  0
   43.9939    5.6161   -5.4315 O   0  0  0  0  0  0  0  0  0  0  0  0
   42.6144    6.6073    2.0171 C   0  0  2  0  0  0  0  0  0  0  0  0
   41.5702    5.5666    2.1512 O   0  0  0  0  0  0  0  0  0  0  0  0
   45.4891    9.6215   -8.6731 C   0  0  2  0  0  0  0  0  0  0  0  0
   45.1354    8.8798   -7.4776 O   0  0  0  0  0  0  0  0  0  0  0  0
   47.0109    5.2920   -6.2203 C   0  0  2  0  0  0  0  0  0  0  0  0
   45.8801    5.6951   -5.4862 O   0  0  0  0  0  0  0  0  0  0  0  0
   42.0503    6.8937   -5.1244 C   0  0  0  0  0  0  0  0  0  0  0  0
   40.8489    7.0089   -4.2980 O   0  0  0  0  0  0  0  0  0  0  0  0
   42.0268    7.8019    1.1414 C   0  0  1  0  0  0  0  0  0  0  0  0
   41.7591    7.2454   -0.2415 O   0  0  0  0  0  0  0  0  0  0  0  0
   45.6402   11.0712   -8.4467 C   0  0  0  0  0  0  0  0  0  0  0  0
   46.1695   11.6613   -9.5269 O   0  0  0  0  0  0  0  0  0  0  0  0
   48.2933    5.0966   -5.3039 C   0  0  1  0  0  0  0  0  0  0  0  0
   48.1043    4.0305   -4.4242 O   0  0  0  0  0  0  0  0  0  0  0  0
   43.4165    2.3280   -4.0406 C   0  0  0  0  0  0  0  0  0  0  0  0
   40.7412    8.2818    1.8963 C   0  0  0  0  0  0  0  0  0  0  0  0
   39.6726    7.3258    1.8448 N   0  0  0  0  0  0  0  0  0  0  0  0
   43.6117    0.8380   -3.7563 C   0  0  0  0  0  0  0  0  0  0  0  0
   42.4702    0.1343   -4.3727 N   0  0  0  0  0  0  0  0  0  0  0  0
   41.2897   -0.2490   -3.4778 C   0  0  0  0  0  0  0  0  0  0  0  0
  1  2  1  6  0  0  0
  1  8  1  0  0  0  0
  1 33  1  0  0  0  0
  3  4  1  1  0  0  0
  3 10  1  0  0  0  0
  3 42  1  0  0  0  0
  5 11  1  0  0  0  0
  5 29  1  0  0  0  0
  5 35  1  1  0  0  0
  6 13  1  0  0  0  0
  6 39  1  0  0  0  0
  6 22  1  6  0  0  0
  7 15  1  0  0  0  0
  8  9  1  6  0  0  0
  8 17  1  0  0  0  0
 10 19  1  0  0  0  0
 11 12  1  6  0  0  0
 11 21  1  0  0  0  0
 12 44  1  0  0  0  0
 13 14  1  1  0  0  0
 13 23  1  0  0  0  0
 15 16  1  0  0  0  0
 17 18  1  6  0  0  0
 17 25  1  0  0  0  0
 19 20  1  6  0  0  0
 19 27  1  0  0  0  0
 21 22  1  1  0  0  0
 21 28  1  0  0  0  0
 23 24  1  6  0  0  0
 23 30  1  0  0  0  0
 25 26  1  6  0  0  0
 25 32  1  0  0  0  0
 27  2  1  6  0  0  0
 27 34  1  0  0  0  0
 28 29  1  0  0  0  0
 28 36  1  1  0  0  0
 30 31  1  6  0  0  0
 30 38  1  0  0  0  0
 32 33  1  0  0  0  0
 32 40  1  1  0  0  0
 34 35  1  1  0  0  0
 34 42  1  0  0  0  0
 36 37  1  0  0  0  0
 38 39  1  0  0  0  0
 38 45  1  1  0  0  0
 40 41  1  0  0  0  0
 42 43  1  1  0  0  0
 44 47  1  0  0  0  0
 45 46  1  0  0  0  0
 47 48  1  0  0  0  0
 48 49  1  0  0  0  0
 49  7  1  0  0  0  0
M  END
>  <CHROM.1>
-166.14058579,92.90256701,-56.70240424,-173.59565413,-64.20758331,176.57280718
30.80311958,-161.47428569,-61.57836917,-74.20659892,163.75927550,-69.59194681
170.95840936,-98.05064364,179.19417504,52.12607596,44.21706814,5.70129184
-4.70764117,-0.11579681,1.11794138,0.56773844

>  <Name>
2bee_lig

>  <RI>
3.71943e+07

>  <Rbt.Current_Directory>
/home/itssahil/PROJECTS/Mol_Feturizer/New_Systems/rnas/2bee

>  <Rbt.Executable>
rbdock ($Id: //depot/dev/client3/rdock/2013.1/src/exe/rbdock.cxx#4 $)

>  <Rbt.Library>
libRbt.so (2013.1, Build901 2013/11/27)

>  <Rbt.Parameter_File>
/export/apps/rDock/src/rDock_2013.1_src/data/scripts/dock_solv.prm

>  <Rbt.Receptor>
prm/pocket_docking_2.prm

>  <SCORE>
-24.1825

>  <SCORE.INTER>
-15.4152

>  <SCORE.INTER.CONST>
1

>  <SCORE.INTER.POLAR>
-0.938083

>  <SCORE.INTER.ROT>
16

>  <SCORE.INTER.SOLV>
20.0756

>  <SCORE.INTER.VDW>
-28.1084

>  <SCORE.INTER.norm>
-0.314596

>  <SCORE.INTRA>
-9.1886

>  <SCORE.INTRA.DIHEDRAL>
-21.6131

>  <SCORE.INTRA.DIHEDRAL.0>
36.0842

>  <SCORE.INTRA.POLAR>
0

>  <SCORE.INTRA.POLAR.0>
0

>  <SCORE.INTRA.REPUL>
0

>  <SCORE.INTRA.REPUL.0>
0

>  <SCORE.INTRA.SOLV>
0.18391

>  <SCORE.INTRA.SOLV.lig_0>
-126.444

>  <SCORE.INTRA.VDW>
1.52599

>  <SCORE.INTRA.VDW.0>
-7.40469

>  <SCORE.INTRA.norm>
-0.187522

>  <SCORE.RESTR>
0.421324

>  <SCORE.RESTR.CAVITY>
0.421324

>  <SCORE.RESTR.norm>
0.00859845

>  <SCORE.SYSTEM>
0

>  <SCORE.SYSTEM.CONST>
0

>  <SCORE.SYSTEM.DIHEDRAL>
0

>  <SCORE.SYSTEM.SOLV>
0

>  <SCORE.SYSTEM.norm>
0

>  <SCORE.heavy>
49

>  <SCORE.norm>
-0.49352

>  <RMSD>
1.342

$$$$
2bee_lig
 OpenBabel11021811423D
libRbt.so/2013.1/901 2013/11/27
 49 52  0  0  0  0  0  0  0  0999 V2000
   44.7846    7.5604   -7.4955 C   0  0  2  0  0  0  0  0  0  0  0  0
   45.8325    6.7215   -7.9648 O   0  0  0  0  0  0  0  0  0  0  0  0
   49.2336    4.5704   -6.1817 C   0  0  2  0  0  0  0  0  0  0  0  0
   50.4449    4.3178   -5.3547 N   0  0  0  0  0  0  0  0  0  0  0  0
   44.6954    4.8800   -4.7527 C   0  0  1  0  0  0  0  0  0  0  0  0
   42.6515    6.4354   -1.0275 C   0  0  1  0  0  0  0  0  0  0  0  0
   41.2084    0.0428   -5.9938 C   0  0  0  0  0  0  0  0  0  0  0  0
   43.5030    7.3945   -8.4004 C   0  0  2  0  0  0  0  0  0  0  0  0
   43.1185    5.9888   -8.4700 N   0  0  0  0  0  0  0  0  0  0  0  0
   49.5043    5.8092   -7.1512 C   0  0  0  0  0  0  0  0  0  0  0  0
   44.1755    4.2899   -3.4821 C   0  0  2  0  0  0  0  0  0  0  0  0
   43.9429    2.8383   -3.5761 O   0  0  0  0  0  0  0  0  0  0  0  0
   43.2105    5.1784   -0.1680 C   0  0  2  0  0  0  0  0  0  0  0  0
   42.1296    4.1387   -0.1055 N   0  0  0  0  0  0  0  0  0  0  0  0
   40.7163   -1.2318   -5.6277 C   0  0  0  0  0  0  0  0  0  0  0  0
   40.1050   -1.4104   -4.3887 N   0  0  0  0  0  0  0  0  0  0  0  0
   43.7982    7.9934   -9.8448 C   0  0  1  0  0  0  0  0  0  0  0  0
   42.6381    7.8439  -10.6502 O   0  0  0  0  0  0  0  0  0  0  0  0
   48.1897    6.1276   -8.0688 C   0  0  2  0  0  0  0  0  0  0  0  0
   48.4245    7.2257   -8.9437 N   0  0  0  0  0  0  0  0  0  0  0  0
   43.0404    5.2664   -3.2896 C   0  0  2  0  0  0  0  0  0  0  0  0
   42.2879    5.8806   -2.3142 O   0  0  0  0  0  0  0  0  0  0  0  0
   43.5786    5.6858    1.2718 C   0  0  1  0  0  0  0  0  0  0  0  0
   44.6480    6.6841    1.1253 O   0  0  0  0  0  0  0  0  0  0  0  0
   44.1939    9.4816   -9.7035 C   0  0  2  0  0  0  0  0  0  0  0  0
   44.4939   10.0769  -11.0307 O   0  0  0  0  0  0  0  0  0  0  0  0
   46.9531    6.4442   -7.1406 C   0  0  2  0  0  0  0  0  0  0  0  0
   42.5472    5.5409   -4.7959 C   0  0  2  0  0  0  0  0  0  0  0  0
   43.7201    5.5794   -5.4718 O   0  0  0  0  0  0  0  0  0  0  0  0
   42.2498    6.3267    1.9697 C   0  0  2  0  0  0  0  0  0  0  0  0
   41.1798    5.3134    2.1096 O   0  0  0  0  0  0  0  0  0  0  0  0
   45.4624    9.6335   -8.7993 C   0  0  2  0  0  0  0  0  0  0  0  0
   45.1013    9.0256   -7.5327 O   0  0  0  0  0  0  0  0  0  0  0  0
   46.7334    5.2034   -6.2108 C   0  0  2  0  0  0  0  0  0  0  0  0
   45.6087    5.5798   -5.4537 O   0  0  0  0  0  0  0  0  0  0  0  0
   41.8197    6.9031   -5.0973 C   0  0  0  0  0  0  0  0  0  0  0  0
   40.5540    6.9504   -4.3656 O   0  0  0  0  0  0  0  0  0  0  0  0
   41.6932    7.5295    1.0849 C   0  0  1  0  0  0  0  0  0  0  0  0
   41.4133    6.9703   -0.2944 O   0  0  0  0  0  0  0  0  0  0  0  0
   45.7502   11.0769   -8.7019 C   0  0  0  0  0  0  0  0  0  0  0  0
   47.0726   11.2893   -8.6629 O   0  0  0  0  0  0  0  0  0  0  0  0
   48.0129    4.9370   -5.3084 C   0  0  1  0  0  0  0  0  0  0  0  0
   47.8086    3.8247   -4.4915 O   0  0  0  0  0  0  0  0  0  0  0  0
   43.8633    1.9166   -2.4310 C   0  0  0  0  0  0  0  0  0  0  0  0
   40.4191    8.0466    1.8349 C   0  0  0  0  0  0  0  0  0  0  0  0
   40.7316    8.7857    3.0243 N   0  0  0  0  0  0  0  0  0  0  0  0
   43.5628    0.5057   -2.9391 C   0  0  0  0  0  0  0  0  0  0  0  0
   42.3663    0.6084   -3.7970 N   0  0  0  0  0  0  0  0  0  0  0  0
   42.5593    0.5604   -5.3141 C   0  0  0  0  0  0  0  0  0  0  0  0
  1  2  1  6  0  0  0
  1  8  1  0  0  0  0
  1 33  1  0  0  0  0
  3  4  1  1  0  0  0
  3 10  1  0  0  0  0
  3 42  1  0  0  0  0
  5 11  1  0  0  0  0
  5 29  1  0  0  0  0
  5 35  1  1  0  0  0
  6 13  1  0  0  0  0
  6 39  1  0  0  0  0
  6 22  1  6  0  0  0
  7 15  1  0  0  0  0
  8  9  1  6  0  0  0
  8 17  1  0  0  0  0
 10 19  1  0  0  0  0
 11 12  1  6  0  0  0
 11 21  1  0  0  0  0
 12 44  1  0  0  0  0
 13 14  1  1  0  0  0
 13 23  1  0  0  0  0
 15 16  1  0  0  0  0
 17 18  1  6  0  0  0
 17 25  1  0  0  0  0
 19 20  1  6  0  0  0
 19 27  1  0  0  0  0
 21 22  1  1  0  0  0
 21 28  1  0  0  0  0
 23 24  1  6  0  0  0
 23 30  1  0  0  0  0
 25 26  1  6  0  0  0
 25 32  1  0  0  0  0
 27  2  1  6  0  0  0
 27 34  1  0  0  0  0
 28 29  1  0  0  0  0
 28 36  1  1  0  0  0
 30 31  1  6  0  0  0
 30 38  1  0  0  0  0
 32 33  1  0  0  0  0
 32 40  1  1  0  0  0
 34 35  1  1  0  0  0
 34 42  1  0  0  0  0
 36 37  1  0  0  0  0
 38 39  1  0  0  0  0
 38 45  1  1  0  0  0
 40 41  1  0  0  0  0
 42 43  1  1  0  0  0
 44 47  1  0  0  0  0
 45 46  1  0  0  0  0
 47 48  1  0  0  0  0
 48 49  1  0  0  0  0
 49  7  1  0  0  0  0
M  END
>  <CHROM.1>
-164.31793575,94.49129963,-62.67882595,74.56663300,159.02541760,178.00370543
39.92670290,-153.09484196,-64.89862543,-144.56273114,159.04075254,73.51299786
-52.76585818,103.53521812,155.12605842,-59.12131263,44.09805410,5.70523045
-4.66765130,0.11793757,1.13974989,0.24268941

>  <Name>
2bee_lig

>  <RI>
3.71943e+07

>  <Rbt.Current_Directory>
/home/itssahil/PROJECTS/Mol_Feturizer/New_Systems/rnas/2bee

>  <Rbt.Executable>
rbdock ($Id: //depot/dev/client3/rdock/2013.1/src/exe/rbdock.cxx#4 $)

>  <Rbt.Library>
libRbt.so (2013.1, Build901 2013/11/27)

>  <Rbt.Parameter_File>
/export/apps/rDock/src/rDock_2013.1_src/data/scripts/dock_solv.prm

>  <Rbt.Receptor>
prm/pocket_docking_2.prm

>  <SCORE>
-19.507

>  <SCORE.INTER>
-14.9902

>  <SCORE.INTER.CONST>
1

>  <SCORE.INTER.POLAR>
-0.938083

>  <SCORE.INTER.ROT>
16

>  <SCORE.INTER.SOLV>
18.8159

>  <SCORE.INTER.VDW>
-27.4051

>  <SCORE.INTER.norm>
-0.305922

>  <SCORE.INTRA>
-5.57575

>  <SCORE.INTRA.DIHEDRAL>
-12.8636

>  <SCORE.INTRA.DIHEDRAL.0>
36.0842

>  <SCORE.INTRA.POLAR>
0

>  <SCORE.INTRA.POLAR.0>
0

>  <SCORE.INTRA.REPUL>
0

>  <SCORE.INTRA.REPUL.0>
0

>  <SCORE.INTRA.SOLV>
2.0413

>  <SCORE.INTRA.SOLV.lig_0>
-126.444

>  <SCORE.INTRA.VDW>
-0.164611

>  <SCORE.INTRA.VDW.0>
-7.40469

>  <SCORE.INTRA.norm>
-0.113791

>  <SCORE.RESTR>
1.05896

>  <SCORE.RESTR.CAVITY>
1.05896

>  <SCORE.RESTR.norm>
0.0216114

>  <SCORE.SYSTEM>
0

>  <SCORE.SYSTEM.CONST>
0

>  <SCORE.SYSTEM.DIHEDRAL>
0

>  <SCORE.SYSTEM.SOLV>
0

>  <SCORE.SYSTEM.norm>
0

>  <SCORE.heavy>
49

>  <SCORE.norm>
-0.398101

>  <RMSD>
1.377

$$$$
2bee_lig
 OpenBabel11021811423D
libRbt.so/2013.1/901 2013/11/27
 49 52  0  0  0  0  0  0  0  0999 V2000
   44.6182    7.6156   -7.6453 C   0  0  2  0  0  0  0  0  0  0  0  0
   45.4356    6.5230   -8.0457 O   0  0  0  0  0  0  0  0  0  0  0  0
   48.4903    3.8361   -6.3652 C   0  0  2  0  0  0  0  0  0  0  0  0
   49.5710    3.3402   -5.4703 N   0  0  0  0  0  0  0  0  0  0  0  0
   44.4074    4.6451   -4.6349 C   0  0  1  0  0  0  0  0  0  0  0  0
   43.9388    6.8229   -0.3702 C   0  0  1  0  0  0  0  0  0  0  0  0
   40.8533   -1.0910   -3.4842 C   0  0  0  0  0  0  0  0  0  0  0  0
   43.4237    7.8062   -8.6581 C   0  0  2  0  0  0  0  0  0  0  0  0
   42.6795    6.5588   -8.7941 N   0  0  0  0  0  0  0  0  0  0  0  0
   48.9316    5.2304   -7.0048 C   0  0  0  0  0  0  0  0  0  0  0  0
   44.6465    4.3103   -3.1985 C   0  0  2  0  0  0  0  0  0  0  0  0
   43.9260    3.1015   -2.7629 O   0  0  0  0  0  0  0  0  0  0  0  0
   43.5767    5.3728    0.2600 C   0  0  2  0  0  0  0  0  0  0  0  0
   42.7433    4.6248   -0.7395 N   0  0  0  0  0  0  0  0  0  0  0  0
   39.9048   -1.9654   -4.0643 C   0  0  0  0  0  0  0  0  0  0  0  0
   39.1184   -1.5296   -5.1284 N   0  0  0  0  0  0  0  0  0  0  0  0
   43.9953    8.3030  -10.0576 C   0  0  1  0  0  0  0  0  0  0  0  0
   42.9130    8.4762  -10.9607 O   0  0  0  0  0  0  0  0  0  0  0  0
   47.7629    5.8160   -7.9861 C   0  0  2  0  0  0  0  0  0  0  0  0
   48.1511    7.0554   -8.5687 N   0  0  0  0  0  0  0  0  0  0  0  0
   44.3164    5.6756   -2.6454 C   0  0  2  0  0  0  0  0  0  0  0  0
   44.6220    6.5338   -1.6134 O   0  0  0  0  0  0  0  0  0  0  0  0
   42.7787    5.5963    1.5939 C   0  0  1  0  0  0  0  0  0  0  0  0
   43.6644    6.3176    2.5196 O   0  0  0  0  0  0  0  0  0  0  0  0
   44.7665    9.6267   -9.8472 C   0  0  2  0  0  0  0  0  0  0  0  0
   45.3315   10.1187  -11.1296 O   0  0  0  0  0  0  0  0  0  0  0  0
   46.4260    6.0094   -7.1698 C   0  0  2  0  0  0  0  0  0  0  0  0
   43.1164    6.1653   -3.5980 C   0  0  2  0  0  0  0  0  0  0  0  0
   43.5166    5.7098   -4.8089 O   0  0  0  0  0  0  0  0  0  0  0  0
   41.4247    6.4484    1.2714 C   0  0  2  0  0  0  0  0  0  0  0  0
   40.5424    5.7137    0.3369 O   0  0  0  0  0  0  0  0  0  0  0  0
   45.9447    9.4262   -8.8365 C   0  0  2  0  0  0  0  0  0  0  0  0
   45.3230    8.9388   -7.6199 O   0  0  0  0  0  0  0  0  0  0  0  0
   46.0404    4.6182   -6.5629 C   0  0  2  0  0  0  0  0  0  0  0  0
   44.8392    4.8986   -5.8858 O   0  0  0  0  0  0  0  0  0  0  0  0
   42.8897    7.7137   -3.7622 C   0  0  0  0  0  0  0  0  0  0  0  0
   41.7267    7.9466   -4.6181 O   0  0  0  0  0  0  0  0  0  0  0  0
   41.8034    7.8488    0.6121 C   0  0  1  0  0  0  0  0  0  0  0  0
   42.6108    7.5467   -0.6330 O   0  0  0  0  0  0  0  0  0  0  0  0
   46.6041   10.7363   -8.6800 C   0  0  0  0  0  0  0  0  0  0  0  0
   45.6988   11.6876   -8.4144 O   0  0  0  0  0  0  0  0  0  0  0  0
   47.1782    4.0887   -5.5895 C   0  0  1  0  0  0  0  0  0  0  0  0
   46.8274    2.8456   -5.0624 O   0  0  0  0  0  0  0  0  0  0  0  0
   42.4975    2.8349   -2.9982 C   0  0  0  0  0  0  0  0  0  0  0  0
   40.4378    8.5622    0.3301 C   0  0  0  0  0  0  0  0  0  0  0  0
   39.7373    8.0056   -0.7915 N   0  0  0  0  0  0  0  0  0  0  0  0
   42.1803    1.3939   -2.5958 C   0  0  0  0  0  0  0  0  0  0  0  0
   42.8217    0.5213   -3.5985 N   0  0  0  0  0  0  0  0  0  0  0  0
   41.9267   -0.3912   -4.4397 C   0  0  0  0  0  0  0  0  0  0  0  0
  1  2  1  6  0  0  0
  1  8  1  0  0  0  0
  1 33  1  0  0  0  0
  3  4  1  1  0  0  0
  3 10  1  0  0  0  0
  3 42  1  0  0  0  0
  5 11  1  0  0  0  0
  5 29  1  0  0  0  0
  5 35  1  1  0  0  0
  6 13  1  0  0  0  0
  6 39  1  0  0  0  0
  6 22  1  6  0  0  0
  7 15  1  0  0  0  0
  8  9  1  6  0  0  0
  8 17  1  0  0  0  0
 10 19  1  0  0  0  0
 11 12  1  1  0  0  0
 11 21  1  0  0  0  0
 12 44  1  0  0  0  0
 13 14  1  6  0  0  0
 13 23  1  0  0  0  0
 15 16  1  0  0  0  0
 17 18  1  6  0  0  0
 17 25  1  0  0  0  0
 19 20  1  1  0  0  0
 19 27  1  0  0  0  0
 21 22  1  1  0  0  0
 21 28  1  0  0  0  0
 23 24  1  1  0  0  0
 23 30  1  0  0  0  0
 25 26  1  6  0  0  0
 25 32  1  0  0  0  0
 27  2  1  6  0  0  0
 27 34  1  0  0  0  0
 28 29  1  0  0  0  0
 28 36  1  6  0  0  0
 30 31  1  6  0  0  0
 30 38  1  0  0  0  0
 32 33  1  0  0  0  0
 32 40  1  1  0  0  0
 34 35  1  1  0  0  0
 34 42  1  0  0  0  0
 36 37  1  0  0  0  0
 38 39  1  0  0  0  0
 38 45  1  6  0  0  0
 40 41  1  0  0  0  0
 42 43  1  6  0  0  0
 44 47  1  0  0  0  0
 45 46  1  0  0  0  0
 47 48  1  0  0  0  0
 48 49  1  0  0  0  0
 49  7  1  0  0  0  0
M  END
>  <CHROM.1>
-168.66301339,19.96696972,47.44519045,-53.68600672,-49.09551733,171.09293004
-99.31512852,-133.82141183,-177.73081979,50.22777697,-129.76465395,-74.45445979
-70.54587751,-118.47693941,-44.70286832,178.94955721,43.99825975,5.70387904
-4.65997233,0.31001574,1.14129130,0.17375712

>  <Name>
2bee_lig

>  <RI>
3.71943e+07

>  <Rbt.Current_Directory>
/home/itssahil/PROJECTS/Mol_Feturizer/New_Systems/rnas/2bee

>  <Rbt.Executable>
rbdock ($Id: //depot/dev/client3/rdock/2013.1/src/exe/rbdock.cxx#4 $)

>  <Rbt.Library>
libRbt.so (2013.1, Build901 2013/11/27)

>  <Rbt.Parameter_File>
/export/apps/rDock/src/rDock_2013.1_src/data/scripts/dock_solv.prm

>  <Rbt.Receptor>
prm/pocket_docking_2.prm

>  <SCORE>
-14.0359

>  <SCORE.INTER>
-15.5878

>  <SCORE.INTER.CONST>
1

>  <SCORE.INTER.POLAR>
-1.88347

>  <SCORE.INTER.ROT>
16

>  <SCORE.INTER.SOLV>
18.5031

>  <SCORE.INTER.VDW>
-24.548

>  <SCORE.INTER.norm>
-0.318118

>  <SCORE.INTRA>
0.665959

>  <SCORE.INTRA.DIHEDRAL>
-9.34993

>  <SCORE.INTRA.DIHEDRAL.0>
36.0842

>  <SCORE.INTRA.POLAR>
0

>  <SCORE.INTRA.POLAR.0>
0

>  <SCORE.INTRA.REPUL>
0

>  <SCORE.INTRA.REPUL.0>
0

>  <SCORE.INTRA.SOLV>
4.82445

>  <SCORE.INTRA.SOLV.lig_0>
-126.444

>  <SCORE.INTRA.VDW>
2.9287

>  <SCORE.INTRA.VDW.0>
-7.40469

>  <SCORE.INTRA.norm>
0.013591

>  <SCORE.RESTR>
0.885945

>  <SCORE.RESTR.CAVITY>
0.885945

>  <SCORE.RESTR.norm>
0.0180805

>  <SCORE.SYSTEM>
0

>  <SCORE.SYSTEM.CONST>
0

>  <SCORE.SYSTEM.DIHEDRAL>
0

>  <SCORE.SYSTEM.SOLV>
0

>  <SCORE.SYSTEM.norm>
0

>  <SCORE.heavy>
49

>  <SCORE.norm>
-0.286446

>  <RMSD>
1.389

$$$$
2bee_lig
 OpenBabel11021811423D
libRbt.so/2013.1/901 2013/11/27
 49 52  0  0  0  0  0  0  0  0999 V2000
   44.8362    7.2276   -7.5434 C   0  0  2  0  0  0  0  0  0  0  0  0
   45.9817    6.5483   -8.0421 O   0  0  0  0  0  0  0  0  0  0  0  0
   49.3584    4.4587   -6.1432 C   0  0  2  0  0  0  0  0  0  0  0  0
   50.5605    4.2350   -5.2949 N   0  0  0  0  0  0  0  0  0  0  0  0
   44.9618    4.8942   -4.5672 C   0  0  1  0  0  0  0  0  0  0  0  0
   42.7944    6.6706   -0.9258 C   0  0  1  0  0  0  0  0  0  0  0  0
   42.4986   -0.8849   -5.2318 C   0  0  0  0  0  0  0  0  0  0  0  0
   43.6105    7.0208   -8.5149 C   0  0  2  0  0  0  0  0  0  0  0  0
   43.3783    5.5967   -8.7309 N   0  0  0  0  0  0  0  0  0  0  0  0
   49.6424    5.6588   -7.1567 C   0  0  0  0  0  0  0  0  0  0  0  0
   44.5940    4.5855   -3.1522 C   0  0  2  0  0  0  0  0  0  0  0  0
   44.5716    3.1403   -2.8670 O   0  0  0  0  0  0  0  0  0  0  0  0
   42.9207    5.3524    0.0110 C   0  0  2  0  0  0  0  0  0  0  0  0
   41.6524    4.5610   -0.1241 N   0  0  0  0  0  0  0  0  0  0  0  0
   41.2077   -0.3071   -5.2111 C   0  0  0  0  0  0  0  0  0  0  0  0
   40.4833   -0.2685   -4.0218 N   0  0  0  0  0  0  0  0  0  0  0  0
   43.8900    7.7830   -9.8834 C   0  0  1  0  0  0  0  0  0  0  0  0
   42.7799    7.5953  -10.7491 O   0  0  0  0  0  0  0  0  0  0  0  0
   48.3381    5.9450   -8.0992 C   0  0  2  0  0  0  0  0  0  0  0  0
   48.5849    7.0082   -9.0131 N   0  0  0  0  0  0  0  0  0  0  0  0
   43.3390    5.4235   -3.1129 C   0  0  2  0  0  0  0  0  0  0  0  0
   42.5517    6.1634   -2.2598 O   0  0  0  0  0  0  0  0  0  0  0  0
   43.1313    5.8170    1.4963 C   0  0  1  0  0  0  0  0  0  0  0  0
   44.3944    6.5678    1.5464 O   0  0  0  0  0  0  0  0  0  0  0  0
   44.1223    9.2831   -9.5880 C   0  0  2  0  0  0  0  0  0  0  0  0
   44.4030   10.0310  -10.8401 O   0  0  0  0  0  0  0  0  0  0  0  0
   47.0931    6.3001   -7.1964 C   0  0  2  0  0  0  0  0  0  0  0  0
   42.7406    5.2388   -4.5945 C   0  0  2  0  0  0  0  0  0  0  0  0
   43.8622    5.2551   -5.3533 O   0  0  0  0  0  0  0  0  0  0  0  0
   41.8652    6.7401    1.9531 C   0  0  2  0  0  0  0  0  0  0  0  0
   40.5994    5.9747    1.8962 O   0  0  0  0  0  0  0  0  0  0  0  0
   45.3365    9.4747   -8.6191 C   0  0  2  0  0  0  0  0  0  0  0  0
   44.9985    8.7140   -7.4311 O   0  0  0  0  0  0  0  0  0  0  0  0
   46.8605    5.0963   -6.2221 C   0  0  2  0  0  0  0  0  0  0  0  0
   45.7293    5.5043   -5.4914 O   0  0  0  0  0  0  0  0  0  0  0  0
   41.8087    6.3732   -5.1605 C   0  0  0  0  0  0  0  0  0  0  0  0
   41.3781    6.0190   -6.5127 O   0  0  0  0  0  0  0  0  0  0  0  0
   41.7343    8.0040    0.9915 C   0  0  1  0  0  0  0  0  0  0  0  0
   41.5873    7.4723   -0.4189 O   0  0  0  0  0  0  0  0  0  0  0  0
   45.4677   10.9237   -8.3762 C   0  0  0  0  0  0  0  0  0  0  0  0
   45.9472   11.5397   -9.4652 O   0  0  0  0  0  0  0  0  0  0  0  0
   48.1300    4.8615   -5.2972 C   0  0  1  0  0  0  0  0  0  0  0  0
   47.9142    3.7819   -4.4404 O   0  0  0  0  0  0  0  0  0  0  0  0
   45.6203    2.1831   -3.2553 C   0  0  0  0  0  0  0  0  0  0  0  0
   40.4860    8.7963    1.5084 C   0  0  0  0  0  0  0  0  0  0  0  0
   40.0870    9.8516    0.6221 N   0  0  0  0  0  0  0  0  0  0  0  0
   45.2847    1.5963   -4.6272 C   0  0  0  0  0  0  0  0  0  0  0  0
   43.8796    1.1491   -4.5664 N   0  0  0  0  0  0  0  0  0  0  0  0
   43.6024   -0.3165   -4.2250 C   0  0  0  0  0  0  0  0  0  0  0  0
  1  2  1  6  0  0  0
  1  8  1  0  0  0  0
  1 33  1  0  0  0  0
  3  4  1  1  0  0  0
  3 10  1  0  0  0  0
  3 42  1  0  0  0  0
  5 11  1  0  0  0  0
  5 29  1  0  0  0  0
  5 35  1  1  0  0  0
  6 13  1  0  0  0  0
  6 39  1  0  0  0  0
  6 22  1  6  0  0  0
  7 15  1  0  0  0  0
  8  9  1  6  0  0  0
  8 17  1  0  0  0  0
 10 19  1  0  0  0  0
 11 12  1  6  0  0  0
 11 21  1  0  0  0  0
 12 44  1  0  0  0  0
 13 14  1  1  0  0  0
 13 23  1  0  0  0  0
 15 16  1  0  0  0  0
 17 18  1  6  0  0  0
 17 25  1  0  0  0  0
 19 20  1  6  0  0  0
 19 27  1  0  0  0  0
 21 22  1  1  0  0  0
 21 28  1  0  0  0  0
 23 24  1  6  0  0  0
 23 30  1  0  0  0  0
 25 26  1  6  0  0  0
 25 32  1  0  0  0  0
 27  2  1  6  0  0  0
 27 34  1  0  0  0  0
 28 29  1  0  0  0  0
 28 36  1  6  0  0  0
 30 31  1  6  0  0  0
 30 38  1  0  0  0  0
 32 33  1  0  0  0  0
 32 40  1  1  0  0  0
 34 35  1  1  0  0  0
 34 42  1  0  0  0  0
 36 37  1  0  0  0  0
 38 39  1  0  0  0  0
 38 45  1  1  0  0  0
 40 41  1  0  0  0  0
 42 43  1  1  0  0  0
 44 47  1  0  0  0  0
 45 46  1  0  0  0  0
 47 48  1  0  0  0  0
 48 49  1  0  0  0  0
 49  7  1  0  0  0  0
M  END
>  <CHROM.1>
-163.90658457,94.43968928,-65.78746056,-56.07338578,46.80041096,-91.19181558
14.05271836,-163.19084428,179.76291046,-72.39429317,174.50978897,-170.34747926
-49.49104198,-94.83445349,-134.63436587,-63.02494274,44.27656786,5.75117945
-4.75394180,0.60916240,1.04414642,-0.42320766

>  <Name>
2bee_lig

>  <RI>
3.71943e+07

>  <Rbt.Current_Directory>
/home/itssahil/PROJECTS/Mol_Feturizer/New_Systems/rnas/2bee

>  <Rbt.Executable>
rbdock ($Id: //depot/dev/client3/rdock/2013.1/src/exe/rbdock.cxx#4 $)

>  <Rbt.Library>
libRbt.so (2013.1, Build901 2013/11/27)

>  <Rbt.Parameter_File>
/export/apps/rDock/src/rDock_2013.1_src/data/scripts/dock_solv.prm

>  <Rbt.Receptor>
prm/pocket_docking_2.prm

>  <SCORE>
-20.6843

>  <SCORE.INTER>
-13.4451

>  <SCORE.INTER.CONST>
1

>  <SCORE.INTER.POLAR>
-0.938083

>  <SCORE.INTER.ROT>
16

>  <SCORE.INTER.SOLV>
17.073

>  <SCORE.INTER.VDW>
-25.7941

>  <SCORE.INTER.norm>
-0.27439

>  <SCORE.INTRA>
-7.54453

>  <SCORE.INTRA.DIHEDRAL>
-18.0886

>  <SCORE.INTRA.DIHEDRAL.0>
36.0842

>  <SCORE.INTRA.POLAR>
0

>  <SCORE.INTRA.POLAR.0>
0

>  <SCORE.INTRA.REPUL>
0

>  <SCORE.INTRA.REPUL.0>
0

>  <SCORE.INTRA.SOLV>
1.22393

>  <SCORE.INTRA.SOLV.lig_0>
-126.444

>  <SCORE.INTRA.VDW>
0.8878

>  <SCORE.INTRA.VDW.0>
-7.40469

>  <SCORE.INTRA.norm>
-0.15397

>  <SCORE.RESTR>
0.305357

>  <SCORE.RESTR.CAVITY>
0.305357

>  <SCORE.RESTR.norm>
0.00623178

>  <SCORE.SYSTEM>
0

>  <SCORE.SYSTEM.CONST>
0

>  <SCORE.SYSTEM.DIHEDRAL>
0

>  <SCORE.SYSTEM.SOLV>
0

>  <SCORE.SYSTEM.norm>
0

>  <SCORE.heavy>
49

>  <SCORE.norm>
-0.422129

>  <RMSD>
1.441

$$$$
2bee_lig
 OpenBabel11021811423D
libRbt.so/2013.1/901 2013/11/27
 49 52  0  0  0  0  0  0  0  0999 V2000
   44.9400    7.4644   -7.5604 C   0  0  2  0  0  0  0  0  0  0  0  0
   45.8753    6.5515   -8.1207 O   0  0  0  0  0  0  0  0  0  0  0  0
   48.6686    3.5325   -6.5532 C   0  0  2  0  0  0  0  0  0  0  0  0
   49.7460    2.9267   -5.7243 N   0  0  0  0  0  0  0  0  0  0  0  0
   44.7633    4.7919   -4.6239 C   0  0  1  0  0  0  0  0  0  0  0  0
   43.6463    6.8625   -0.4289 C   0  0  1  0  0  0  0  0  0  0  0  0
   41.0911   -0.3175   -6.3000 C   0  0  0  0  0  0  0  0  0  0  0  0
   43.5850    7.4251   -8.3675 C   0  0  2  0  0  0  0  0  0  0  0  0
   43.0790    6.0580   -8.4288 N   0  0  0  0  0  0  0  0  0  0  0  0
   49.2389    4.8220   -7.3013 C   0  0  0  0  0  0  0  0  0  0  0  0
   44.9304    4.4661   -3.1753 C   0  0  2  0  0  0  0  0  0  0  0  0
   44.3411    3.1671   -2.8070 O   0  0  0  0  0  0  0  0  0  0  0  0
   43.5466    5.4202    0.3064 C   0  0  2  0  0  0  0  0  0  0  0  0
   42.9953    4.4313   -0.6792 N   0  0  0  0  0  0  0  0  0  0  0  0
   39.6874   -0.1726   -6.3966 C   0  0  0  0  0  0  0  0  0  0  0  0
   38.8639   -0.7170   -5.4137 N   0  0  0  0  0  0  0  0  0  0  0  0
   43.8213    8.0281   -9.8209 C   0  0  1  0  0  0  0  0  0  0  0  0
   42.5958    7.9929  -10.5379 O   0  0  0  0  0  0  0  0  0  0  0  0
   48.0794    5.5252   -8.2138 C   0  0  2  0  0  0  0  0  0  0  0  0
   48.5810    6.6715   -8.8925 N   0  0  0  0  0  0  0  0  0  0  0  0
   44.3834    5.7677   -2.6410 C   0  0  2  0  0  0  0  0  0  0  0  0
   44.4930    6.6404   -1.5820 O   0  0  0  0  0  0  0  0  0  0  0  0
   42.5937    5.5599    1.5468 C   0  0  1  0  0  0  0  0  0  0  0  0
   43.2088    6.5288    2.4658 O   0  0  0  0  0  0  0  0  0  0  0  0
   44.3507    9.4749   -9.6878 C   0  0  2  0  0  0  0  0  0  0  0  0
   44.6002   10.0715  -11.0249 O   0  0  0  0  0  0  0  0  0  0  0  0
   46.8595    5.9402   -7.3024 C   0  0  2  0  0  0  0  0  0  0  0  0
   43.2083    6.1149   -3.6832 C   0  0  2  0  0  0  0  0  0  0  0  0
   43.7581    5.7357   -4.8613 O   0  0  0  0  0  0  0  0  0  0  0  0
   41.1254    6.0608    1.0402 C   0  0  2  0  0  0  0  0  0  0  0  0
   40.5175    5.0790    0.1141 O   0  0  0  0  0  0  0  0  0  0  0  0
   45.6915    9.5014   -8.8806 C   0  0  2  0  0  0  0  0  0  0  0  0
   45.3757    8.8987   -7.5994 O   0  0  0  0  0  0  0  0  0  0  0  0
   46.3417    4.6445   -6.5915 C   0  0  2  0  0  0  0  0  0  0  0  0
   45.2553    5.1205   -5.8344 O   0  0  0  0  0  0  0  0  0  0  0  0
   42.7960    7.6237   -3.8543 C   0  0  0  0  0  0  0  0  0  0  0  0
   43.9893    8.4658   -3.7734 O   0  0  0  0  0  0  0  0  0  0  0  0
   41.2548    7.4565    0.2822 C   0  0  1  0  0  0  0  0  0  0  0  0
   42.2252    7.2492   -0.8619 O   0  0  0  0  0  0  0  0  0  0  0  0
   46.1067   10.9135   -8.7837 C   0  0  0  0  0  0  0  0  0  0  0  0
   47.4216   10.9994   -8.5408 O   0  0  0  0  0  0  0  0  0  0  0  0
   47.4778    4.0008   -5.6874 C   0  0  1  0  0  0  0  0  0  0  0  0
   47.0075    2.8432   -5.0668 O   0  0  0  0  0  0  0  0  0  0  0  0
   42.9440    2.7711   -3.0481 C   0  0  0  0  0  0  0  0  0  0  0  0
   39.8013    7.8230   -0.1718 C   0  0  0  0  0  0  0  0  0  0  0  0
   38.8963    7.9882    0.9293 N   0  0  0  0  0  0  0  0  0  0  0  0
   42.7795    2.3689   -4.5144 C   0  0  0  0  0  0  0  0  0  0  0  0
   41.5892    1.4993   -4.5860 N   0  0  0  0  0  0  0  0  0  0  0  0
   41.7959    0.0172   -4.9050 C   0  0  0  0  0  0  0  0  0  0  0  0
  1  2  1  6  0  0  0
  1  8  1  0  0  0  0
  1 33  1  0  0  0  0
  3  4  1  1  0  0  0
  3 10  1  0  0  0  0
  3 42  1  0  0  0  0
  5 11  1  0  0  0  0
  5 29  1  0  0  0  0
  5 35  1  1  0  0  0
  6 13  1  0  0  0  0
  6 39  1  0  0  0  0
  6 22  1  6  0  0  0
  7 15  1  0  0  0  0
  8  9  1  6  0  0  0
  8 17  1  0  0  0  0
 10 19  1  0  0  0  0
 11 12  1  1  0  0  0
 11 21  1  0  0  0  0
 12 44  1  0  0  0  0
 13 14  1  6  0  0  0
 13 23  1  0  0  0  0
 15 16  1  0  0  0  0
 17 18  1  6  0  0  0
 17 25  1  0  0  0  0
 19 20  1  1  0  0  0
 19 27  1  0  0  0  0
 21 22  1  1  0  0  0
 21 28  1  0  0  0  0
 23 24  1  1  0  0  0
 23 30  1  0  0  0  0
 25 26  1  6  0  0  0
 25 32  1  0  0  0  0
 27  2  1  6  0  0  0
 27 34  1  0  0  0  0
 28 29  1  0  0  0  0
 28 36  1  6  0  0  0
 30 31  1  6  0  0  0
 30 38  1  0  0  0  0
 32 33  1  0  0  0  0
 32 40  1  1  0  0  0
 34 35  1  1  0  0  0
 34 42  1  0  0  0  0
 36 37  1  0  0  0  0
 38 39  1  0  0  0  0
 38 45  1  6  0  0  0
 40 41  1  0  0  0  0
 42 43  1  6  0  0  0
 44 47  1  0  0  0  0
 45 46  1  0  0  0  0
 47 48  1  0  0  0  0
 48 49  1  0  0  0  0
 49  7  1  0  0  0  0
M  END
>  <CHROM.1>
-150.57886778,45.10574993,57.06376532,-47.97995085,-55.09089966,78.43463414
-102.85081462,-155.49942649,37.23180129,-158.39997567,-144.51848237,61.77051205
157.78287957,-111.11337445,-116.18056074,-63.29811437,44.07324330,5.70586765
-4.82306958,-0.01215658,1.08556939,0.34161000

>  <Name>
2bee_lig

>  <RI>
3.71943e+07

>  <Rbt.Current_Directory>
/home/itssahil/PROJECTS/Mol_Feturizer/New_Systems/rnas/2bee

>  <Rbt.Executable>
rbdock ($Id: //depot/dev/client3/rdock/2013.1/src/exe/rbdock.cxx#4 $)

>  <Rbt.Library>
libRbt.so (2013.1, Build901 2013/11/27)

>  <Rbt.Parameter_File>
/export/apps/rDock/src/rDock_2013.1_src/data/scripts/dock_solv.prm

>  <Rbt.Receptor>
prm/pocket_docking_2.prm

>  <SCORE>
-16.2067

>  <SCORE.INTER>
-14.9948

>  <SCORE.INTER.CONST>
1

>  <SCORE.INTER.POLAR>
-2.2507

>  <SCORE.INTER.ROT>
16

>  <SCORE.INTER.SOLV>
17.7719

>  <SCORE.INTER.VDW>
-22.6848

>  <SCORE.INTER.norm>
-0.306016

>  <SCORE.INTRA>
-2.73888

>  <SCORE.INTRA.DIHEDRAL>
-11.0389

>  <SCORE.INTRA.DIHEDRAL.0>
36.0842

>  <SCORE.INTRA.POLAR>
0

>  <SCORE.INTRA.POLAR.0>
0

>  <SCORE.INTRA.REPUL>
0

>  <SCORE.INTRA.REPUL.0>
0

>  <SCORE.INTRA.SOLV>
3.73555

>  <SCORE.INTRA.SOLV.lig_0>
-126.444

>  <SCORE.INTRA.VDW>
0.912794

>  <SCORE.INTRA.VDW.0>
-7.40469

>  <SCORE.INTRA.norm>
-0.0558956

>  <SCORE.RESTR>
1.52702

>  <SCORE.RESTR.CAVITY>
1.52702

>  <SCORE.RESTR.norm>
0.0311636

>  <SCORE.SYSTEM>
0

>  <SCORE.SYSTEM.CONST>
0

>  <SCORE.SYSTEM.DIHEDRAL>
0

>  <SCORE.SYSTEM.SOLV>
0

>  <SCORE.SYSTEM.norm>
0

>  <SCORE.heavy>
49

>  <SCORE.norm>
-0.330748

>  <RMSD>
1.448

$$$$
2bee_lig
 OpenBabel11021811423D
libRbt.so/2013.1/901 2013/11/27
 49 52  0  0  0  0  0  0  0  0999 V2000
   44.9814    7.6961   -7.3796 C   0  0  2  0  0  0  0  0  0  0  0  0
   45.9863    6.8057   -7.8479 O   0  0  0  0  0  0  0  0  0  0  0  0
   49.5154    4.7794   -6.1705 C   0  0  2  0  0  0  0  0  0  0  0  0
   50.7791    4.5809   -5.4098 N   0  0  0  0  0  0  0  0  0  0  0  0
   45.0949    5.1401   -4.4482 C   0  0  1  0  0  0  0  0  0  0  0  0
   43.0423    6.7813   -0.7191 C   0  0  1  0  0  0  0  0  0  0  0  0
   41.2527    0.4823   -4.5632 C   0  0  0  0  0  0  0  0  0  0  0  0
   43.5970    7.3670   -8.0608 C   0  0  2  0  0  0  0  0  0  0  0  0
   43.2570    5.9639   -7.8501 N   0  0  0  0  0  0  0  0  0  0  0  0
   49.7115    5.9649   -7.2212 C   0  0  0  0  0  0  0  0  0  0  0  0
   44.6631    4.6807   -3.0936 C   0  0  2  0  0  0  0  0  0  0  0  0
   44.5225    3.2171   -3.0013 O   0  0  0  0  0  0  0  0  0  0  0  0
   43.6497    5.5036    0.0744 C   0  0  2  0  0  0  0  0  0  0  0  0
   42.6188    4.4127    0.0605 N   0  0  0  0  0  0  0  0  0  0  0  0
   39.9009    0.0809   -4.6746 C   0  0  0  0  0  0  0  0  0  0  0  0
   39.4497   -1.0389   -3.9797 N   0  0  0  0  0  0  0  0  0  0  0  0
   43.6749    7.7249   -9.6093 C   0  0  1  0  0  0  0  0  0  0  0  0
   42.4236    7.4299  -10.2127 O   0  0  0  0  0  0  0  0  0  0  0  0
   48.3383    6.2233   -8.0692 C   0  0  2  0  0  0  0  0  0  0  0  0
   48.5059    7.2733   -9.0157 N   0  0  0  0  0  0  0  0  0  0  0  0
   43.4748    5.6032   -2.9686 C   0  0  2  0  0  0  0  0  0  0  0  0
   42.7211    6.2864   -2.0411 O   0  0  0  0  0  0  0  0  0  0  0  0
   43.9759    5.9424    1.5466 C   0  0  1  0  0  0  0  0  0  0  0  0
   44.9983    6.9965    1.4740 O   0  0  0  0  0  0  0  0  0  0  0  0
   44.0326    9.2213   -9.7647 C   0  0  2  0  0  0  0  0  0  0  0  0
   44.1311    9.5950  -11.1987 O   0  0  0  0  0  0  0  0  0  0  0  0
   47.1596    6.5819   -7.0828 C   0  0  2  0  0  0  0  0  0  0  0  0
   42.9081    5.6601   -4.4730 C   0  0  2  0  0  0  0  0  0  0  0  0
   44.0496    5.6857   -5.2012 O   0  0  0  0  0  0  0  0  0  0  0  0
   42.6097    6.4788    2.2604 C   0  0  2  0  0  0  0  0  0  0  0  0
   41.5873    5.4102    2.3254 O   0  0  0  0  0  0  0  0  0  0  0  0
   45.4044    9.5363   -9.0800 C   0  0  2  0  0  0  0  0  0  0  0  0
   45.2378    9.1395   -7.6947 O   0  0  0  0  0  0  0  0  0  0  0  0
   47.0120    5.3924   -6.0748 C   0  0  2  0  0  0  0  0  0  0  0  0
   45.9335    5.8021   -5.2692 O   0  0  0  0  0  0  0  0  0  0  0  0
   42.0823    6.9286   -4.9029 C   0  0  0  0  0  0  0  0  0  0  0  0
   42.6974    8.1258   -4.3305 O   0  0  0  0  0  0  0  0  0  0  0  0
   42.0075    7.7040    1.4386 C   0  0  1  0  0  0  0  0  0  0  0  0
   41.7713    7.2140    0.0252 O   0  0  0  0  0  0  0  0  0  0  0  0
   45.6511   10.9798   -9.2563 C   0  0  0  0  0  0  0  0  0  0  0  0
   45.5057   11.6255   -8.0912 O   0  0  0  0  0  0  0  0  0  0  0  0
   48.3486    5.1848   -5.2425 C   0  0  1  0  0  0  0  0  0  0  0  0
   48.2078    4.1177   -4.3550 O   0  0  0  0  0  0  0  0  0  0  0  0
   43.8411    2.3668   -3.9911 C   0  0  0  0  0  0  0  0  0  0  0  0
   40.7013    8.1163    2.1980 C   0  0  0  0  0  0  0  0  0  0  0  0
   39.6701    7.1219    2.1179 N   0  0  0  0  0  0  0  0  0  0  0  0
   44.0657    0.8969   -3.6332 C   0  0  0  0  0  0  0  0  0  0  0  0
   43.7569    0.1123   -4.8444 N   0  0  0  0  0  0  0  0  0  0  0  0
   42.3929   -0.5758   -4.9306 C   0  0  0  0  0  0  0  0  0  0  0  0
  1  2  1  6  0  0  0
  1  8  1  0  0  0  0
  1 33  1  0  0  0  0
  3  4  1  1  0  0  0
  3 10  1  0  0  0  0
  3 42  1  0  0  0  0
  5 11  1  0  0  0  0
  5 29  1  0  0  0  0
  5 35  1  1  0  0  0
  6 13  1  0  0  0  0
  6 39  1  0  0  0  0
  6 22  1  6  0  0  0
  7 15  1  0  0  0  0
  8  9  1  6  0  0  0
  8 17  1  0  0  0  0
 10 19  1  0  0  0  0
 11 12  1  6  0  0  0
 11 21  1  0  0  0  0
 12 44  1  0  0  0  0
 13 14  1  1  0  0  0
 13 23  1  0  0  0  0
 15 16  1  0  0  0  0
 17 18  1  1  0  0  0
 17 25  1  0  0  0  0
 19 20  1  6  0  0  0
 19 27  1  0  0  0  0
 21 22  1  1  0  0  0
 21 28  1  0  0  0  0
 23 24  1  6  0  0  0
 23 30  1  0  0  0  0
 25 26  1  6  0  0  0
 25 32  1  0  0  0  0
 27  2  1  6  0  0  0
 27 34  1  0  0  0  0
 28 29  1  0  0  0  0
 28 36  1  1  0  0  0
 30 31  1  6  0  0  0
 30 38  1  0  0  0  0
 32 33  1  0  0  0  0
 32 40  1  1  0  0  0
 34 35  1  1  0  0  0
 34 42  1  0  0  0  0
 36 37  1  0  0  0  0
 38 39  1  0  0  0  0
 38 45  1  1  0  0  0
 40 41  1  0  0  0  0
 42 43  1  1  0  0  0
 44 47  1  0  0  0  0
 45 46  1  0  0  0  0
 47 48  1  0  0  0  0
 48 49  1  0  0  0  0
 49  7  1  0  0  0  0
M  END
>  <CHROM.1>
-158.01411834,98.03613259,-52.56043369,56.26527888,-46.02443662,172.68464613
25.42096088,-151.01314906,39.70165412,108.23112958,161.03153466,-67.69369783
-162.20620496,-100.37963426,49.19568179,175.49350136,44.28580797,5.83001490
-4.53980472,0.11426628,1.15457903,0.21808359

>  <Name>
2bee_lig

>  <RI>
3.71943e+07

>  <Rbt.Current_Directory>
/home/itssahil/PROJECTS/Mol_Feturizer/New_Systems/rnas/2bee

>  <Rbt.Executable>
rbdock ($Id: //depot/dev/client3/rdock/2013.1/src/exe/rbdock.cxx#4 $)

>  <Rbt.Library>
libRbt.so (2013.1, Build901 2013/11/27)

>  <Rbt.Parameter_File>
/export/apps/rDock/src/rDock_2013.1_src/data/scripts/dock_solv.prm

>  <Rbt.Receptor>
prm/pocket_docking_2.prm

>  <SCORE>
-15.999

>  <SCORE.INTER>
-15.071

>  <SCORE.INTER.CONST>
1

>  <SCORE.INTER.POLAR>
-0.875735

>  <SCORE.INTER.ROT>
16

>  <SCORE.INTER.SOLV>
22.6291

>  <SCORE.INTER.VDW>
-28.938

>  <SCORE.INTER.norm>
-0.307572

>  <SCORE.INTRA>
-1.74684

>  <SCORE.INTRA.DIHEDRAL>
-10.6095

>  <SCORE.INTRA.DIHEDRAL.0>
36.0842

>  <SCORE.INTRA.POLAR>
0

>  <SCORE.INTRA.POLAR.0>
0

>  <SCORE.INTRA.REPUL>
0

>  <SCORE.INTRA.REPUL.0>
0

>  <SCORE.INTRA.SOLV>
2.84813

>  <SCORE.INTRA.SOLV.lig_0>
-126.444

>  <SCORE.INTRA.VDW>
2.13383

>  <SCORE.INTRA.VDW.0>
-7.40469

>  <SCORE.INTRA.norm>
-0.0356499

>  <SCORE.RESTR>
0.818894

>  <SCORE.RESTR.CAVITY>
0.818894

>  <SCORE.RESTR.norm>
0.0167121

>  <SCORE.SYSTEM>
0

>  <SCORE.SYSTEM.CONST>
0

>  <SCORE.SYSTEM.DIHEDRAL>
0

>  <SCORE.SYSTEM.SOLV>
0

>  <SCORE.SYSTEM.norm>
0

>  <SCORE.heavy>
49

>  <SCORE.norm>
-0.32651

>  <RMSD>
1.452

$$$$
2bee_lig
 OpenBabel11021811423D
libRbt.so/2013.1/901 2013/11/27
 49 52  0  0  0  0  0  0  0  0999 V2000
   44.0918    7.2182   -7.5634 C   0  0  2  0  0  0  0  0  0  0  0  0
   44.9849    6.1306   -7.7676 O   0  0  0  0  0  0  0  0  0  0  0  0
   48.3587    4.1880   -5.7138 C   0  0  2  0  0  0  0  0  0  0  0  0
   49.2878    3.8012   -4.6174 N   0  0  0  0  0  0  0  0  0  0  0  0
   43.8437    3.7493   -5.2561 C   0  0  1  0  0  0  0  0  0  0  0  0
   43.5984    6.5251   -1.3930 C   0  0  1  0  0  0  0  0  0  0  0  0
   41.1958   -1.6959   -5.3342 C   0  0  0  0  0  0  0  0  0  0  0  0
   42.8673    7.1149   -8.5528 C   0  0  2  0  0  0  0  0  0  0  0  0
   42.2210    5.8142   -8.4144 N   0  0  0  0  0  0  0  0  0  0  0  0
   48.3211    5.7789   -5.8383 C   0  0  0  0  0  0  0  0  0  0  0  0
   43.5968    3.3650   -3.8335 C   0  0  2  0  0  0  0  0  0  0  0  0
   42.3559    2.5915   -3.6546 O   0  0  0  0  0  0  0  0  0  0  0  0
   44.2117    6.4247    0.1053 C   0  0  2  0  0  0  0  0  0  0  0  0
   43.8457    5.0830    0.6701 N   0  0  0  0  0  0  0  0  0  0  0  0
   39.8371   -1.3025   -5.3260 C   0  0  0  0  0  0  0  0  0  0  0  0
   39.4994    0.0319   -5.5399 N   0  0  0  0  0  0  0  0  0  0  0  0
   43.3720    7.3629  -10.0413 C   0  0  1  0  0  0  0  0  0  0  0  0
   42.2628    7.2727  -10.9237 O   0  0  0  0  0  0  0  0  0  0  0  0
   47.2993    6.2454   -7.0256 C   0  0  2  0  0  0  0  0  0  0  0  0
   47.2657    7.6630   -7.1505 N   0  0  0  0  0  0  0  0  0  0  0  0
   43.7636    4.7470   -3.2495 C   0  0  2  0  0  0  0  0  0  0  0  0
   44.1693    5.4045   -2.1101 O   0  0  0  0  0  0  0  0  0  0  0  0
   43.5961    7.5803    0.9723 C   0  0  1  0  0  0  0  0  0  0  0  0
   44.0110    8.8534    0.3650 O   0  0  0  0  0  0  0  0  0  0  0  0
   44.0406    8.7549  -10.1228 C   0  0  2  0  0  0  0  0  0  0  0  0
   44.5412    9.0212  -11.4956 O   0  0  0  0  0  0  0  0  0  0  0  0
   45.8472    5.7050   -6.7248 C   0  0  2  0  0  0  0  0  0  0  0  0
   43.1254    5.6925   -4.3836 C   0  0  2  0  0  0  0  0  0  0  0  0
   43.5500    5.0915   -5.5205 O   0  0  0  0  0  0  0  0  0  0  0  0
   41.9715    7.4263    0.9939 C   0  0  2  0  0  0  0  0  0  0  0  0
   41.5661    6.1403    1.6049 O   0  0  0  0  0  0  0  0  0  0  0  0
   45.2495    8.8470   -9.1330 C   0  0  2  0  0  0  0  0  0  0  0  0
   44.6908    8.5680   -7.8237 O   0  0  0  0  0  0  0  0  0  0  0  0
   45.9403    4.1460   -6.6093 C   0  0  2  0  0  0  0  0  0  0  0  0
   44.6051    3.7737   -6.3675 O   0  0  0  0  0  0  0  0  0  0  0  0
   43.6182    7.1847   -4.4632 C   0  0  0  0  0  0  0  0  0  0  0  0
   42.6158    8.0605   -3.8568 O   0  0  0  0  0  0  0  0  0  0  0  0
   41.3967    7.4827   -0.4912 C   0  0  1  0  0  0  0  0  0  0  0  0
   42.0755    6.3752   -1.2698 O   0  0  0  0  0  0  0  0  0  0  0  0
   45.8068   10.2067   -9.2607 C   0  0  0  0  0  0  0  0  0  0  0  0
   46.7378   10.4216   -8.3214 O   0  0  0  0  0  0  0  0  0  0  0  0
   46.9138    3.7217   -5.4283 C   0  0  1  0  0  0  0  0  0  0  0  0
   46.9953    2.3318   -5.3412 O   0  0  0  0  0  0  0  0  0  0  0  0
   41.9728    1.8752   -2.4269 C   0  0  0  0  0  0  0  0  0  0  0  0
   39.8472    7.3051   -0.3478 C   0  0  0  0  0  0  0  0  0  0  0  0
   39.2002    7.0106   -1.5941 N   0  0  0  0  0  0  0  0  0  0  0  0
   42.5839    0.4734   -2.4493 C   0  0  0  0  0  0  0  0  0  0  0  0
   42.4079   -0.0455   -3.8197 N   0  0  0  0  0  0  0  0  0  0  0  0
   42.0459   -1.5222   -3.9918 C   0  0  0  0  0  0  0  0  0  0  0  0
  1  2  1  6  0  0  0
  1  8  1  0  0  0  0
  1 33  1  0  0  0  0
  3  4  1  1  0  0  0
  3 10  1  0  0  0  0
  3 42  1  0  0  0  0
  5 11  1  0  0  0  0
  5 29  1  0  0  0  0
  5 35  1  1  0  0  0
  6 13  1  0  0  0  0
  6 39  1  0  0  0  0
  6 22  1  6  0  0  0
  7 15  1  0  0  0  0
  8  9  1  6  0  0  0
  8 17  1  0  0  0  0
 10 19  1  0  0  0  0
 11 12  1  6  0  0  0
 11 21  1  0  0  0  0
 12 44  1  0  0  0  0
 13 14  1  1  0  0  0
 13 23  1  0  0  0  0
 15 16  1  0  0  0  0
 17 18  1  6  0  0  0
 17 25  1  0  0  0  0
 19 20  1  1  0  0  0
 19 27  1  0  0  0  0
 21 22  1  1  0  0  0
 21 28  1  0  0  0  0
 23 24  1  6  0  0  0
 23 30  1  0  0  0  0
 25 26  1  6  0  0  0
 25 32  1  0  0  0  0
 27  2  1  6  0  0  0
 27 34  1  0  0  0  0
 28 29  1  0  0  0  0
 28 36  1  1  0  0  0
 30 31  1  6  0  0  0
 30 38  1  0  0  0  0
 32 33  1  0  0  0  0
 32 40  1  1  0  0  0
 34 35  1  1  0  0  0
 34 42  1  0  0  0  0
 36 37  1  0  0  0  0
 38 39  1  0  0  0  0
 38 45  1  1  0  0  0
 40 41  1  0  0  0  0
 42 43  1  6  0  0  0
 44 47  1  0  0  0  0
 45 46  1  0  0  0  0
 47 48  1  0  0  0  0
 48 49  1  0  0  0  0
 49  7  1  0  0  0  0
M  END
>  <CHROM.1>
-155.73835665,-51.17685711,158.80884332,83.72798403,168.49100763,-86.50996327
-136.46120728,-102.94596727,-102.17793918,172.04518946,-81.55066316,-165.92241246
-42.41705153,-140.95854955,150.83096600,-76.33598132,43.81008569,5.40915207
-4.82464826,-0.16272951,1.19844494,0.67763729

>  <Name>
2bee_lig

>  <RI>
3.71943e+07

>  <Rbt.Current_Directory>
/home/itssahil/PROJECTS/Mol_Feturizer/New_Systems/rnas/2bee

>  <Rbt.Executable>
rbdock ($Id: //depot/dev/client3/rdock/2013.1/src/exe/rbdock.cxx#4 $)

>  <Rbt.Library>
libRbt.so (2013.1, Build901 2013/11/27)

>  <Rbt.Parameter_File>
/export/apps/rDock/src/rDock_2013.1_src/data/scripts/dock_solv.prm

>  <Rbt.Receptor>
prm/pocket_docking_2.prm

>  <SCORE>
-1.57144

>  <SCORE.INTER>
-1.79317

>  <SCORE.INTER.CONST>
1

>  <SCORE.INTER.POLAR>
0

>  <SCORE.INTER.ROT>
16

>  <SCORE.INTER.SOLV>
20.6838

>  <SCORE.INTER.VDW>
-22.3567

>  <SCORE.INTER.norm>
-0.0365953

>  <SCORE.INTRA>
-0.502228

>  <SCORE.INTRA.DIHEDRAL>
-5.29956

>  <SCORE.INTRA.DIHEDRAL.0>
36.0842

>  <SCORE.INTRA.POLAR>
0

>  <SCORE.INTRA.POLAR.0>
0

>  <SCORE.INTRA.REPUL>
0

>  <SCORE.INTRA.REPUL.0>
0

>  <SCORE.INTRA.SOLV>
4.17797

>  <SCORE.INTRA.SOLV.lig_0>
-126.444

>  <SCORE.INTRA.VDW>
0.058568

>  <SCORE.INTRA.VDW.0>
-7.40469

>  <SCORE.INTRA.norm>
-0.0102496

>  <SCORE.RESTR>
0.72396

>  <SCORE.RESTR.CAVITY>
0.72396

>  <SCORE.RESTR.norm>
0.0147747

>  <SCORE.SYSTEM>
0

>  <SCORE.SYSTEM.CONST>
0

>  <SCORE.SYSTEM.DIHEDRAL>
0

>  <SCORE.SYSTEM.SOLV>
0

>  <SCORE.SYSTEM.norm>
0

>  <SCORE.heavy>
49

>  <SCORE.norm>
-0.0320701

>  <RMSD>
1.483

$$$$
2bee_lig
 OpenBabel11021811423D
libRbt.so/2013.1/901 2013/11/27
 49 52  0  0  0  0  0  0  0  0999 V2000
   44.6677    7.4260   -7.7184 C   0  0  2  0  0  0  0  0  0  0  0  0
   45.8049    6.6726   -8.1200 O   0  0  0  0  0  0  0  0  0  0  0  0
   49.2168    4.7666   -6.0952 C   0  0  2  0  0  0  0  0  0  0  0  0
   50.3905    4.6041   -5.1946 N   0  0  0  0  0  0  0  0  0  0  0  0
   44.5294    4.8236   -5.0418 C   0  0  1  0  0  0  0  0  0  0  0  0
   42.4347    6.5222   -1.4825 C   0  0  1  0  0  0  0  0  0  0  0  0
   40.0632   -1.2468   -4.4870 C   0  0  0  0  0  0  0  0  0  0  0  0
   43.5475    7.3607   -8.8273 C   0  0  2  0  0  0  0  0  0  0  0  0
   43.2292    5.9705   -9.1352 N   0  0  0  0  0  0  0  0  0  0  0  0
   49.4702    5.9997   -7.0766 C   0  0  0  0  0  0  0  0  0  0  0  0
   43.9394    4.0657   -3.8972 C   0  0  2  0  0  0  0  0  0  0  0  0
   43.6235    2.6673   -4.2362 O   0  0  0  0  0  0  0  0  0  0  0  0
   43.8771    6.0605   -0.9016 C   0  0  2  0  0  0  0  0  0  0  0  0
   43.7502    4.6494   -0.4059 N   0  0  0  0  0  0  0  0  0  0  0  0
   39.8939   -0.2081   -5.4320 C   0  0  0  0  0  0  0  0  0  0  0  0
   38.8993   -0.3075   -6.4023 N   0  0  0  0  0  0  0  0  0  0  0  0
   44.0399    8.1489  -10.1189 C   0  0  1  0  0  0  0  0  0  0  0  0
   43.0237    8.0887  -11.1093 O   0  0  0  0  0  0  0  0  0  0  0  0
   48.1950    6.2198   -8.0751 C   0  0  2  0  0  0  0  0  0  0  0  0
   48.4154    7.3122   -8.9608 N   0  0  0  0  0  0  0  0  0  0  0  0
   42.8595    5.0669   -3.5650 C   0  0  2  0  0  0  0  0  0  0  0  0
   42.1175    5.5579   -2.5146 O   0  0  0  0  0  0  0  0  0  0  0  0
   44.2736    7.0283    0.2698 C   0  0  1  0  0  0  0  0  0  0  0  0
   44.3918    8.3793   -0.2981 O   0  0  0  0  0  0  0  0  0  0  0  0
   44.3552    9.6116   -9.7285 C   0  0  2  0  0  0  0  0  0  0  0  0
   44.8344   10.3811  -10.9050 O   0  0  0  0  0  0  0  0  0  0  0  0
   46.8897    6.4800   -7.2268 C   0  0  2  0  0  0  0  0  0  0  0  0
   42.4265    5.6176   -5.0131 C   0  0  2  0  0  0  0  0  0  0  0  0
   43.6184    5.6928   -5.6517 O   0  0  0  0  0  0  0  0  0  0  0  0
   43.1276    6.9624    1.4299 C   0  0  2  0  0  0  0  0  0  0  0  0
   43.0161    5.5976    1.9921 O   0  0  0  0  0  0  0  0  0  0  0  0
   45.4631    9.6630   -8.6240 C   0  0  2  0  0  0  0  0  0  0  0  0
   44.9334    8.8881   -7.5180 O   0  0  0  0  0  0  0  0  0  0  0  0
   46.6896    5.2471   -6.2821 C   0  0  2  0  0  0  0  0  0  0  0  0
   45.5024    5.5703   -5.5995 O   0  0  0  0  0  0  0  0  0  0  0  0
   41.7903    7.0543   -5.0960 C   0  0  0  0  0  0  0  0  0  0  0  0
   40.4670    7.0365   -4.4732 O   0  0  0  0  0  0  0  0  0  0  0  0
   41.7125    7.3764    0.8255 C   0  0  1  0  0  0  0  0  0  0  0  0
   41.4305    6.4324   -0.3247 O   0  0  0  0  0  0  0  0  0  0  0  0
   45.6803   11.0853   -8.2992 C   0  0  0  0  0  0  0  0  0  0  0  0
   46.2922   11.7095   -9.3148 O   0  0  0  0  0  0  0  0  0  0  0  0
   47.9277    5.0765   -5.3020 C   0  0  1  0  0  0  0  0  0  0  0  0
   47.7419    3.9706   -4.4721 O   0  0  0  0  0  0  0  0  0  0  0  0
   42.7143    1.7950   -3.4749 C   0  0  0  0  0  0  0  0  0  0  0  0
   40.6984    7.2566    2.0130 C   0  0  0  0  0  0  0  0  0  0  0  0
   39.3700    7.6662    1.6577 N   0  0  0  0  0  0  0  0  0  0  0  0
   43.3343    0.4020   -3.3553 C   0  0  0  0  0  0  0  0  0  0  0  0
   42.4764   -0.5135   -4.1325 N   0  0  0  0  0  0  0  0  0  0  0  0
   41.2618   -1.1307   -3.4359 C   0  0  0  0  0  0  0  0  0  0  0  0
  1  2  1  6  0  0  0
  1  8  1  0  0  0  0
  1 33  1  0  0  0  0
  3  4  1  1  0  0  0
  3 10  1  0  0  0  0
  3 42  1  0  0  0  0
  5 11  1  0  0  0  0
  5 29  1  0  0  0  0
  5 35  1  1  0  0  0
  6 13  1  0  0  0  0
  6 39  1  0  0  0  0
  6 22  1  6  0  0  0
  7 15  1  0  0  0  0
  8  9  1  6  0  0  0
  8 17  1  0  0  0  0
 10 19  1  0  0  0  0
 11 12  1  6  0  0  0
 11 21  1  0  0  0  0
 12 44  1  0  0  0  0
 13 14  1  1  0  0  0
 13 23  1  0  0  0  0
 15 16  1  0  0  0  0
 17 18  1  6  0  0  0
 17 25  1  0  0  0  0
 19 20  1  6  0  0  0
 19 27  1  0  0  0  0
 21 22  1  6  0  0  0
 21 28  1  0  0  0  0
 23 24  1  6  0  0  0
 23 30  1  0  0  0  0
 25 26  1  6  0  0  0
 25 32  1  0  0  0  0
 27  2  1  6  0  0  0
 27 34  1  0  0  0  0
 28 29  1  0  0  0  0
 28 36  1  1  0  0  0
 30 31  1  6  0  0  0
 30 38  1  0  0  0  0
 32 33  1  0  0  0  0
 32 40  1  1  0  0  0
 34 35  1  1  0  0  0
 34 42  1  0  0  0  0
 36 37  1  0  0  0  0
 38 39  1  0  0  0  0
 38 45  1  1  0  0  0
 40 41  1  0  0  0  0
 42 43  1  1  0  0  0
 44 47  1  0  0  0  0
 45 46  1  0  0  0  0
 47 48  1  0  0  0  0
 48 49  1  0  0  0  0
 49  7  1  0  0  0  0
M  END
>  <CHROM.1>
-173.93579572,87.50487411,-48.31132770,176.96663074,-162.01775900,-137.57763685
79.67584191,-154.80017540,-68.91423008,-70.57273178,151.83310496,176.87309894
-113.41523690,-86.28295235,143.91469668,-37.48055209,44.03031763,5.75137050
-4.88852192,0.18101678,-1.11143162,-2.42708725

>  <Name>
2bee_lig

>  <RI>
3.71943e+07

>  <Rbt.Current_Directory>
/home/itssahil/PROJECTS/Mol_Feturizer/New_Systems/rnas/2bee

>  <Rbt.Executable>
rbdock ($Id: //depot/dev/client3/rdock/2013.1/src/exe/rbdock.cxx#4 $)

>  <Rbt.Library>
libRbt.so (2013.1, Build901 2013/11/27)

>  <Rbt.Parameter_File>
/export/apps/rDock/src/rDock_2013.1_src/data/scripts/dock_solv.prm

>  <Rbt.Receptor>
prm/pocket_docking_2.prm

>  <SCORE>
-13.3346

>  <SCORE.INTER>
-11.2903

>  <SCORE.INTER.CONST>
1

>  <SCORE.INTER.POLAR>
-0.91918

>  <SCORE.INTER.ROT>
16

>  <SCORE.INTER.SOLV>
20.6104

>  <SCORE.INTER.VDW>
-25.5997

>  <SCORE.INTER.norm>
-0.230415

>  <SCORE.INTRA>
-2.08789

>  <SCORE.INTRA.DIHEDRAL>
-5.22996

>  <SCORE.INTRA.DIHEDRAL.0>
36.0842

>  <SCORE.INTRA.POLAR>
0

>  <SCORE.INTRA.POLAR.0>
0

>  <SCORE.INTRA.REPUL>
0

>  <SCORE.INTRA.REPUL.0>
0

>  <SCORE.INTRA.SOLV>
-1.95369

>  <SCORE.INTRA.SOLV.lig_0>
-126.444

>  <SCORE.INTRA.VDW>
1.50394

>  <SCORE.INTRA.VDW.0>
-7.40469

>  <SCORE.INTRA.norm>
-0.0426099

>  <SCORE.RESTR>
0.0436266

>  <SCORE.RESTR.CAVITY>
0.0436266

>  <SCORE.RESTR.norm>
0.000890339

>  <SCORE.SYSTEM>
0

>  <SCORE.SYSTEM.CONST>
0

>  <SCORE.SYSTEM.DIHEDRAL>
0

>  <SCORE.SYSTEM.SOLV>
0

>  <SCORE.SYSTEM.norm>
0

>  <SCORE.heavy>
49

>  <SCORE.norm>
-0.272135

>  <RMSD>
1.487

$$$$
2bee_lig
 OpenBabel11021811423D
libRbt.so/2013.1/901 2013/11/27
 49 52  0  0  0  0  0  0  0  0999 V2000
   44.6579    7.3111   -7.6038 C   0  0  2  0  0  0  0  0  0  0  0  0
   45.8311    6.6326   -8.0343 O   0  0  0  0  0  0  0  0  0  0  0  0
   49.2644    4.7760   -5.9997 C   0  0  2  0  0  0  0  0  0  0  0  0
   50.4490    4.6360   -5.1098 N   0  0  0  0  0  0  0  0  0  0  0  0
   44.8225    4.9734   -4.5428 C   0  0  1  0  0  0  0  0  0  0  0  0
   42.9398    6.7123   -0.7440 C   0  0  1  0  0  0  0  0  0  0  0  0
   42.4547   -1.5137   -3.8811 C   0  0  0  0  0  0  0  0  0  0  0  0
   43.5106    7.1559   -8.6756 C   0  0  2  0  0  0  0  0  0  0  0  0
   43.2793    5.7436   -8.9594 N   0  0  0  0  0  0  0  0  0  0  0  0
   49.5079    5.9804   -7.0186 C   0  0  0  0  0  0  0  0  0  0  0  0
   44.5217    4.6112   -3.1247 C   0  0  2  0  0  0  0  0  0  0  0  0
   44.4685    3.1558   -2.9026 O   0  0  0  0  0  0  0  0  0  0  0  0
   43.4559    5.4164    0.0838 C   0  0  2  0  0  0  0  0  0  0  0  0
   42.3497    4.4019    0.0992 N   0  0  0  0  0  0  0  0  0  0  0  0
   41.9429   -1.1218   -5.1402 C   0  0  0  0  0  0  0  0  0  0  0  0
   40.7823   -0.3545   -5.2097 N   0  0  0  0  0  0  0  0  0  0  0  0
   43.9070    7.9604   -9.9900 C   0  0  1  0  0  0  0  0  0  0  0  0
   42.8668    7.8188  -10.9466 O   0  0  0  0  0  0  0  0  0  0  0  0
   48.2207    6.1754   -8.0067 C   0  0  2  0  0  0  0  0  0  0  0  0
   48.4321    7.2420   -8.9255 N   0  0  0  0  0  0  0  0  0  0  0  0
   43.2980    5.4831   -2.9792 C   0  0  2  0  0  0  0  0  0  0  0  0
   42.5818    6.2061   -2.0523 O   0  0  0  0  0  0  0  0  0  0  0  0
   43.8150    5.8704    1.5436 C   0  0  1  0  0  0  0  0  0  0  0  0
   44.9100    6.8464    1.4428 O   0  0  0  0  0  0  0  0  0  0  0  0
   44.1330    9.4458   -9.6243 C   0  0  2  0  0  0  0  0  0  0  0  0
   44.5211   10.2321  -10.8232 O   0  0  0  0  0  0  0  0  0  0  0  0
   46.9268    6.4625   -7.1497 C   0  0  2  0  0  0  0  0  0  0  0  0
   42.6152    5.3842   -4.4323 C   0  0  2  0  0  0  0  0  0  0  0  0
   43.6943    5.4021   -5.2504 O   0  0  0  0  0  0  0  0  0  0  0  0
   42.4919    6.5219    2.2424 C   0  0  2  0  0  0  0  0  0  0  0  0
   41.3960    5.5312    2.3361 O   0  0  0  0  0  0  0  0  0  0  0  0
   45.2688    9.5862   -8.5565 C   0  0  2  0  0  0  0  0  0  0  0  0
   44.8285    8.7903   -7.4265 O   0  0  0  0  0  0  0  0  0  0  0  0
   46.7361    5.2571   -6.1682 C   0  0  2  0  0  0  0  0  0  0  0  0
   45.5582    5.6023   -5.4802 O   0  0  0  0  0  0  0  0  0  0  0  0
   41.6909    6.5703   -4.8955 C   0  0  0  0  0  0  0  0  0  0  0  0
   40.9547    6.1728   -6.0952 O   0  0  0  0  0  0  0  0  0  0  0  0
   41.9772    7.7644    1.3877 C   0  0  1  0  0  0  0  0  0  0  0  0
   41.7042    7.2546   -0.0120 O   0  0  0  0  0  0  0  0  0  0  0  0
   45.3977   11.0239   -8.2530 C   0  0  0  0  0  0  0  0  0  0  0  0
   46.0092   11.6623   -9.2599 O   0  0  0  0  0  0  0  0  0  0  0  0
   47.9861    5.1111   -5.1995 C   0  0  1  0  0  0  0  0  0  0  0  0
   47.8085    4.0294   -4.3365 O   0  0  0  0  0  0  0  0  0  0  0  0
   45.6019    2.2310   -3.0675 C   0  0  0  0  0  0  0  0  0  0  0  0
   40.7050    8.2892    2.1355 C   0  0  0  0  0  0  0  0  0  0  0  0
   40.0710    9.3845    1.4595 N   0  0  0  0  0  0  0  0  0  0  0  0
   45.1830    0.8332   -2.6098 C   0  0  0  0  0  0  0  0  0  0  0  0
   44.0710    0.4144   -3.4851 N   0  0  0  0  0  0  0  0  0  0  0  0
   42.9179   -0.3740   -2.8606 C   0  0  0  0  0  0  0  0  0  0  0  0
  1  2  1  6  0  0  0
  1  8  1  0  0  0  0
  1 33  1  0  0  0  0
  3  4  1  1  0  0  0
  3 10  1  0  0  0  0
  3 42  1  0  0  0  0
  5 11  1  0  0  0  0
  5 29  1  0  0  0  0
  5 35  1  1  0  0  0
  6 13  1  0  0  0  0
  6 39  1  0  0  0  0
  6 22  1  6  0  0  0
  7 15  1  0  0  0  0
  8  9  1  6  0  0  0
  8 17  1  0  0  0  0
 10 19  1  0  0  0  0
 11 12  1  6  0  0  0
 11 21  1  0  0  0  0
 12 44  1  0  0  0  0
 13 14  1  1  0  0  0
 13 23  1  0  0  0  0
 15 16  1  0  0  0  0
 17 18  1  6  0  0  0
 17 25  1  0  0  0  0
 19 20  1  6  0  0  0
 19 27  1  0  0  0  0
 21 22  1  1  0  0  0
 21 28  1  0  0  0  0
 23 24  1  6  0  0  0
 23 30  1  0  0  0  0
 25 26  1  6  0  0  0
 25 32  1  0  0  0  0
 27  2  1  6  0  0  0
 27 34  1  0  0  0  0
 28 29  1  0  0  0  0
 28 36  1  6  0  0  0
 30 31  1  6  0  0  0
 30 38  1  0  0  0  0
 32 33  1  0  0  0  0
 32 40  1  1  0  0  0
 34 35  1  1  0  0  0
 34 42  1  0  0  0  0
 36 37  1  0  0  0  0
 38 39  1  0  0  0  0
 38 45  1  1  0  0  0
 40 41  1  0  0  0  0
 42 43  1  1  0  0  0
 44 47  1  0  0  0  0
 45 46  1  0  0  0  0
 47 48  1  0  0  0  0
 48 49  1  0  0  0  0
 49  7  1  0  0  0  0
M  END
>  <CHROM.1>
-170.52113825,84.97180927,-55.00080843,-62.12879270,63.70050944,174.36574705
18.27831377,-159.68986777,-168.22400299,-74.42717770,176.98710892,-177.35007401
61.56054569,-141.80661298,-140.77946532,-62.18449433,44.31514584,5.75276031
-4.54594895,0.67220216,1.13513488,-0.36053407

>  <Name>
2bee_lig

>  <RI>
2.18182e+07

>  <Rbt.Current_Directory>
/home/itssahil/PROJECTS/Mol_Feturizer/New_Systems/rnas/2bee

>  <Rbt.Executable>
rbdock ($Id: //depot/dev/client3/rdock/2013.1/src/exe/rbdock.cxx#4 $)

>  <Rbt.Library>
libRbt.so (2013.1, Build901 2013/11/27)

>  <Rbt.Parameter_File>
/export/apps/rDock/src/rDock_2013.1_src/data/scripts/dock_solv.prm

>  <Rbt.Receptor>
prm/pocket_docking_3.prm

>  <SCORE>
-29.748

>  <SCORE.INTER>
-18.3004

>  <SCORE.INTER.CONST>
1

>  <SCORE.INTER.POLAR>
-0.936822

>  <SCORE.INTER.ROT>
16

>  <SCORE.INTER.SOLV>
21.0165

>  <SCORE.INTER.VDW>
-30.3497

>  <SCORE.INTER.norm>
-0.373478

>  <SCORE.INTRA>
-11.4476

>  <SCORE.INTRA.DIHEDRAL>
-24.1953

>  <SCORE.INTRA.DIHEDRAL.0>
36.0842

>  <SCORE.INTRA.POLAR>
0

>  <SCORE.INTRA.POLAR.0>
0

>  <SCORE.INTRA.REPUL>
0

>  <SCORE.INTRA.REPUL.0>
0

>  <SCORE.INTRA.SOLV>
-0.902321

>  <SCORE.INTRA.SOLV.lig_0>
-126.444

>  <SCORE.INTRA.VDW>
1.10123

>  <SCORE.INTRA.VDW.0>
-7.40469

>  <SCORE.INTRA.norm>
-0.233624

>  <SCORE.RESTR>
0

>  <SCORE.RESTR.CAVITY>
0

>  <SCORE.RESTR.norm>
0

>  <SCORE.SYSTEM>
0

>  <SCORE.SYSTEM.CONST>
0

>  <SCORE.SYSTEM.DIHEDRAL>
0

>  <SCORE.SYSTEM.SOLV>
0

>  <SCORE.SYSTEM.norm>
0

>  <SCORE.heavy>
49

>  <SCORE.norm>
-0.607102

>  <RMSD>
1.668

$$$$
2bee_lig
 OpenBabel11021811423D
libRbt.so/2013.1/901 2013/11/27
 49 52  0  0  0  0  0  0  0  0999 V2000
   44.0012    6.7303   -7.4151 C   0  0  2  0  0  0  0  0  0  0  0  0
   45.1319    5.9282   -7.7321 O   0  0  0  0  0  0  0  0  0  0  0  0
   47.6941    3.1536   -5.4714 C   0  0  2  0  0  0  0  0  0  0  0  0
   48.6092    2.6506   -4.4110 N   0  0  0  0  0  0  0  0  0  0  0  0
   43.2166    4.0105   -4.7222 C   0  0  1  0  0  0  0  0  0  0  0  0
   41.9144    6.3166   -1.1184 C   0  0  1  0  0  0  0  0  0  0  0  0
   39.5927   -1.1491   -6.4466 C   0  0  0  0  0  0  0  0  0  0  0  0
   42.8266    6.4469   -8.4294 C   0  0  2  0  0  0  0  0  0  0  0  0
   42.5225    5.0202   -8.4563 N   0  0  0  0  0  0  0  0  0  0  0  0
   48.3400    4.4404   -6.1605 C   0  0  0  0  0  0  0  0  0  0  0  0
   42.7748    3.5007   -3.3890 C   0  0  2  0  0  0  0  0  0  0  0  0
   42.3133    2.1024   -3.4329 O   0  0  0  0  0  0  0  0  0  0  0  0
   43.2722    5.6053   -0.5877 C   0  0  2  0  0  0  0  0  0  0  0  0
   42.8946    4.3062    0.0626 N   0  0  0  0  0  0  0  0  0  0  0  0
   38.9414   -2.1373   -5.6719 C   0  0  0  0  0  0  0  0  0  0  0  0
   37.6061   -2.4464   -5.9210 N   0  0  0  0  0  0  0  0  0  0  0  0
   43.2343    6.9863   -9.8698 C   0  0  1  0  0  0  0  0  0  0  0  0
   42.1696    6.7310  -10.7744 O   0  0  0  0  0  0  0  0  0  0  0  0
   47.3568    5.0321   -7.3244 C   0  0  2  0  0  0  0  0  0  0  0  0
   47.9286    6.1750   -7.9514 N   0  0  0  0  0  0  0  0  0  0  0  0
   41.8352    4.6387   -3.0712 C   0  0  2  0  0  0  0  0  0  0  0  0
   41.3126    5.3560   -2.0189 O   0  0  0  0  0  0  0  0  0  0  0  0
   43.9641    6.5645    0.4454 C   0  0  1  0  0  0  0  0  0  0  0  0
   44.3143    7.8005   -0.2695 O   0  0  0  0  0  0  0  0  0  0  0  0
   43.5382    8.4995   -9.7753 C   0  0  2  0  0  0  0  0  0  0  0  0
   43.9390    9.0417  -11.0987 O   0  0  0  0  0  0  0  0  0  0  0  0
   45.9582    5.4136   -6.7005 C   0  0  2  0  0  0  0  0  0  0  0  0
   41.2061    4.9933   -4.5086 C   0  0  2  0  0  0  0  0  0  0  0  0
   42.2779    4.8549   -5.3249 O   0  0  0  0  0  0  0  0  0  0  0  0
   42.9354    6.8547    1.6788 C   0  0  2  0  0  0  0  0  0  0  0  0
   42.5883    5.6032    2.3891 O   0  0  0  0  0  0  0  0  0  0  0  0
   44.7005    8.7683   -8.7622 C   0  0  2  0  0  0  0  0  0  0  0  0
   44.2457    8.2070   -7.5042 O   0  0  0  0  0  0  0  0  0  0  0  0
   45.3714    4.1221   -6.0370 C   0  0  2  0  0  0  0  0  0  0  0  0
   44.1317    4.5656   -5.5406 O   0  0  0  0  0  0  0  0  0  0  0  0
   40.6635    6.4525   -4.7368 C   0  0  0  0  0  0  0  0  0  0  0  0
   41.7589    7.4087   -4.5781 O   0  0  0  0  0  0  0  0  0  0  0  0
   41.5921    7.5114    1.1280 C   0  0  1  0  0  0  0  0  0  0  0  0
   41.0186    6.5524    0.1058 O   0  0  0  0  0  0  0  0  0  0  0  0
   44.9039   10.2286   -8.7192 C   0  0  0  0  0  0  0  0  0  0  0  0
   45.4958   10.5855   -7.5713 O   0  0  0  0  0  0  0  0  0  0  0  0
   46.3305    3.5881   -4.8892 C   0  0  1  0  0  0  0  0  0  0  0  0
   45.8018    2.4332   -4.3121 O   0  0  0  0  0  0  0  0  0  0  0  0
   43.1035    0.9640   -3.9298 C   0  0  0  0  0  0  0  0  0  0  0  0
   40.6828    7.7230    2.3856 C   0  0  0  0  0  0  0  0  0  0  0  0
   39.3289    8.0561    2.0472 N   0  0  0  0  0  0  0  0  0  0  0  0
   42.2775   -0.3169   -3.8032 C   0  0  0  0  0  0  0  0  0  0  0  0
   41.0782   -0.1344   -4.6436 N   0  0  0  0  0  0  0  0  0  0  0  0
   41.0848   -0.7341   -6.0513 C   0  0  0  0  0  0  0  0  0  0  0  0
  1  2  1  6  0  0  0
  1  8  1  0  0  0  0
  1 33  1  0  0  0  0
  3  4  1  1  0  0  0
  3 10  1  0  0  0  0
  3 42  1  0  0  0  0
  5 11  1  0  0  0  0
  5 29  1  0  0  0  0
  5 35  1  1  0  0  0
  6 13  1  0  0  0  0
  6 39  1  0  0  0  0
  6 22  1  6  0  0  0
  7 15  1  0  0  0  0
  8  9  1  6  0  0  0
  8 17  1  0  0  0  0
 10 19  1  0  0  0  0
 11 12  1  6  0  0  0
 11 21  1  0  0  0  0
 12 44  1  0  0  0  0
 13 14  1  1  0  0  0
 13 23  1  0  0  0  0
 15 16  1  0  0  0  0
 17 18  1  6  0  0  0
 17 25  1  0  0  0  0
 19 20  1  1  0  0  0
 19 27  1  0  0  0  0
 21 22  1  1  0  0  0
 21 28  1  0  0  0  0
 23 24  1  6  0  0  0
 23 30  1  0  0  0  0
 25 26  1  6  0  0  0
 25 32  1  0  0  0  0
 27  2  1  6  0  0  0
 27 34  1  0  0  0  0
 28 29  1  0  0  0  0
 28 36  1  1  0  0  0
 30 31  1  6  0  0  0
 30 38  1  0  0  0  0
 32 33  1  0  0  0  0
 32 40  1  1  0  0  0
 34 35  1  1  0  0  0
 34 42  1  0  0  0  0
 36 37  1  0  0  0  0
 38 39  1  0  0  0  0
 38 45  1  1  0  0  0
 40 41  1  0  0  0  0
 42 43  1  6  0  0  0
 44 47  1  0  0  0  0
 45 46  1  0  0  0  0
 47 48  1  0  0  0  0
 48 49  1  0  0  0  0
 49  7  1  0  0  0  0
M  END
>  <CHROM.1>
-144.73242473,66.68867723,-49.51143683,174.89007033,56.04227206,179.72916813
70.67576749,-160.00126564,61.18820776,157.24274809,-169.86190721,-168.15500401
61.25915546,97.74646065,148.90022658,-62.29699554,43.24626478,5.02923183
-4.67763561,-0.59254869,1.12633208,0.91792595

>  <Name>
2bee_lig

>  <RI>
3.71943e+07

>  <Rbt.Current_Directory>
/home/itssahil/PROJECTS/Mol_Feturizer/New_Systems/rnas/2bee

>  <Rbt.Executable>
rbdock ($Id: //depot/dev/client3/rdock/2013.1/src/exe/rbdock.cxx#4 $)

>  <Rbt.Library>
libRbt.so (2013.1, Build901 2013/11/27)

>  <Rbt.Parameter_File>
/export/apps/rDock/src/rDock_2013.1_src/data/scripts/dock_solv.prm

>  <Rbt.Receptor>
prm/pocket_docking_2.prm

>  <SCORE>
-11.0225

>  <SCORE.INTER>
-2.64113

>  <SCORE.INTER.CONST>
1

>  <SCORE.INTER.POLAR>
-0.452815

>  <SCORE.INTER.ROT>
16

>  <SCORE.INTER.SOLV>
16.0238

>  <SCORE.INTER.VDW>
-19.8593

>  <SCORE.INTER.norm>
-0.0539006

>  <SCORE.INTRA>
-8.75258

>  <SCORE.INTRA.DIHEDRAL>
-18.9213

>  <SCORE.INTRA.DIHEDRAL.0>
36.0842

>  <SCORE.INTRA.POLAR>
0

>  <SCORE.INTRA.POLAR.0>
0

>  <SCORE.INTRA.REPUL>
0.0034934

>  <SCORE.INTRA.REPUL.0>
0

>  <SCORE.INTRA.SOLV>
-0.022651

>  <SCORE.INTRA.SOLV.lig_0>
-126.444

>  <SCORE.INTRA.VDW>
0.701941

>  <SCORE.INTRA.VDW.0>
-7.40469

>  <SCORE.INTRA.norm>
-0.178624

>  <SCORE.RESTR>
0.371185

>  <SCORE.RESTR.CAVITY>
0.371185

>  <SCORE.RESTR.norm>
0.00757521

>  <SCORE.SYSTEM>
0

>  <SCORE.SYSTEM.CONST>
0

>  <SCORE.SYSTEM.DIHEDRAL>
0

>  <SCORE.SYSTEM.SOLV>
0

>  <SCORE.SYSTEM.norm>
0

>  <SCORE.heavy>
49

>  <SCORE.norm>
-0.22495

>  <RMSD>
1.669

$$$$
2bee_lig
 OpenBabel11021811423D
libRbt.so/2013.1/901 2013/11/27
 49 52  0  0  0  0  0  0  0  0999 V2000
   44.8737    7.4580   -7.7003 C   0  0  2  0  0  0  0  0  0  0  0  0
   46.0122    6.7198   -8.1255 O   0  0  0  0  0  0  0  0  0  0  0  0
   49.3000    4.6431   -6.0634 C   0  0  2  0  0  0  0  0  0  0  0  0
   50.4639    4.4255   -5.1618 N   0  0  0  0  0  0  0  0  0  0  0  0
   44.8899    5.1334   -4.6193 C   0  0  1  0  0  0  0  0  0  0  0  0
   41.7110    6.3072   -1.2874 C   0  0  1  0  0  0  0  0  0  0  0  0
   41.3223    0.1203   -5.6836 C   0  0  0  0  0  0  0  0  0  0  0  0
   43.7162    7.3423   -8.7661 C   0  0  2  0  0  0  0  0  0  0  0  0
   43.4181    5.9388   -9.0302 N   0  0  0  0  0  0  0  0  0  0  0  0
   49.6297    5.8336   -7.0743 C   0  0  0  0  0  0  0  0  0  0  0  0
   44.4621    4.9770   -3.1962 C   0  0  2  0  0  0  0  0  0  0  0  0
   44.5774    3.5908   -2.7110 O   0  0  0  0  0  0  0  0  0  0  0  0
   40.1178    6.0412   -1.4359 C   0  0  2  0  0  0  0  0  0  0  0  0
   39.5265    7.1766   -2.2197 N   0  0  0  0  0  0  0  0  0  0  0  0
   39.9474   -0.2112   -5.7064 C   0  0  0  0  0  0  0  0  0  0  0  0
   39.3175   -0.4777   -6.9200 N   0  0  0  0  0  0  0  0  0  0  0  0
   44.1445    8.1100  -10.0925 C   0  0  1  0  0  0  0  0  0  0  0  0
   43.0951    8.0044  -11.0437 O   0  0  0  0  0  0  0  0  0  0  0  0
   48.3679    6.1130   -8.0750 C   0  0  2  0  0  0  0  0  0  0  0  0
   48.6558    7.1675   -8.9869 N   0  0  0  0  0  0  0  0  0  0  0  0
   43.1237    5.6599   -3.3418 C   0  0  2  0  0  0  0  0  0  0  0  0
   42.2042    6.4105   -2.6446 O   0  0  0  0  0  0  0  0  0  0  0  0
   39.4899    5.9710    0.0018 C   0  0  1  0  0  0  0  0  0  0  0  0
   40.1072    4.8308    0.6951 O   0  0  0  0  0  0  0  0  0  0  0  0
   44.4410    9.5879   -9.7476 C   0  0  2  0  0  0  0  0  0  0  0  0
   44.8605   10.3392  -10.9581 O   0  0  0  0  0  0  0  0  0  0  0  0
   47.0855    6.4778   -7.2303 C   0  0  2  0  0  0  0  0  0  0  0  0
   42.6515    5.2086   -4.8118 C   0  0  2  0  0  0  0  0  0  0  0  0
   43.8139    5.2539   -5.5053 O   0  0  0  0  0  0  0  0  0  0  0  0
   39.7783    7.3756    0.7811 C   0  0  2  0  0  0  0  0  0  0  0  0
   39.1544    8.5160    0.0728 O   0  0  0  0  0  0  0  0  0  0  0  0
   45.5862    9.6893   -8.6855 C   0  0  2  0  0  0  0  0  0  0  0  0
   45.1138    8.9298   -7.5434 O   0  0  0  0  0  0  0  0  0  0  0  0
   46.8089    5.2832   -6.2562 C   0  0  2  0  0  0  0  0  0  0  0  0
   45.6478    5.6992   -5.5789 O   0  0  0  0  0  0  0  0  0  0  0  0
   41.6427    6.1396   -5.5808 C   0  0  0  0  0  0  0  0  0  0  0  0
   42.2783    7.4297   -5.8472 O   0  0  0  0  0  0  0  0  0  0  0  0
   41.3473    7.6374    0.8750 C   0  0  1  0  0  0  0  0  0  0  0  0
   41.8802    7.6388   -0.5426 O   0  0  0  0  0  0  0  0  0  0  0  0
   45.7832   11.1233   -8.4017 C   0  0  0  0  0  0  0  0  0  0  0  0
   46.3069   11.7441   -9.4674 O   0  0  0  0  0  0  0  0  0  0  0  0
   48.0368    5.0551   -5.2750 C   0  0  1  0  0  0  0  0  0  0  0  0
   47.7823    3.9836   -4.4187 O   0  0  0  0  0  0  0  0  0  0  0  0
   43.6170    2.5113   -2.9925 C   0  0  0  0  0  0  0  0  0  0  0  0
   41.4997    9.0089    1.6158 C   0  0  0  0  0  0  0  0  0  0  0  0
   41.1368    8.9391    3.0022 N   0  0  0  0  0  0  0  0  0  0  0  0
   43.7636    2.0732   -4.4504 C   0  0  0  0  0  0  0  0  0  0  0  0
   43.5134    0.6192   -4.4848 N   0  0  0  0  0  0  0  0  0  0  0  0
   42.0794    0.1280   -4.2759 C   0  0  0  0  0  0  0  0  0  0  0  0
  1  2  1  6  0  0  0
  1  8  1  0  0  0  0
  1 33  1  0  0  0  0
  3  4  1  1  0  0  0
  3 10  1  0  0  0  0
  3 42  1  0  0  0  0
  5 11  1  0  0  0  0
  5 29  1  0  0  0  0
  5 35  1  1  0  0  0
  6 13  1  0  0  0  0
  6 39  1  0  0  0  0
  6 22  1  6  0  0  0
  7 15  1  0  0  0  0
  8  9  1  6  0  0  0
  8 17  1  0  0  0  0
 10 19  1  0  0  0  0
 11 12  1  6  0  0  0
 11 21  1  0  0  0  0
 12 44  1  0  0  0  0
 13 14  1  6  0  0  0
 13 23  1  0  0  0  0
 15 16  1  0  0  0  0
 17 18  1  6  0  0  0
 17 25  1  0  0  0  0
 19 20  1  6  0  0  0
 19 27  1  0  0  0  0
 21 22  1  1  0  0  0
 21 28  1  0  0  0  0
 23 24  1  1  0  0  0
 23 30  1  0  0  0  0
 25 26  1  6  0  0  0
 25 32  1  0  0  0  0
 27  2  1  6  0  0  0
 27 34  1  0  0  0  0
 28 29  1  0  0  0  0
 28 36  1  6  0  0  0
 30 31  1  6  0  0  0
 30 38  1  0  0  0  0
 32 33  1  0  0  0  0
 32 40  1  1  0  0  0
 34 35  1  1  0  0  0
 34 42  1  0  0  0  0
 36 37  1  0  0  0  0
 38 39  1  0  0  0  0
 38 45  1  6  0  0  0
 40 41  1  0  0  0  0
 42 43  1  1  0  0  0
 44 47  1  0  0  0  0
 45 46  1  0  0  0  0
 47 48  1  0  0  0  0
 48 49  1  0  0  0  0
 49  7  1  0  0  0  0
M  END
>  <CHROM.1>
-168.70939644,100.18106364,-118.74843455,-167.76798441,-79.04336306,72.89790116
-41.27093388,-160.31215409,64.06665178,-68.70182921,179.65541958,69.93558142
145.22182911,71.77122654,86.70911779,-175.55624025,43.82574916,6.02194214
-5.00831333,0.22470662,0.94994867,-0.01424505

>  <Name>
2bee_lig

>  <RI>
3.71943e+07

>  <Rbt.Current_Directory>
/home/itssahil/PROJECTS/Mol_Feturizer/New_Systems/rnas/2bee

>  <Rbt.Executable>
rbdock ($Id: //depot/dev/client3/rdock/2013.1/src/exe/rbdock.cxx#4 $)

>  <Rbt.Library>
libRbt.so (2013.1, Build901 2013/11/27)

>  <Rbt.Parameter_File>
/export/apps/rDock/src/rDock_2013.1_src/data/scripts/dock_solv.prm

>  <Rbt.Receptor>
prm/pocket_docking_2.prm

>  <SCORE>
-10.4741

>  <SCORE.INTER>
-7.61755

>  <SCORE.INTER.CONST>
1

>  <SCORE.INTER.POLAR>
-0.938083

>  <SCORE.INTER.ROT>
16

>  <SCORE.INTER.SOLV>
18.8712

>  <SCORE.INTER.VDW>
-22.5085

>  <SCORE.INTER.norm>
-0.15546

>  <SCORE.INTRA>
-3.83747

>  <SCORE.INTRA.DIHEDRAL>
-9.40474

>  <SCORE.INTRA.DIHEDRAL.0>
36.0842

>  <SCORE.INTRA.POLAR>
0

>  <SCORE.INTRA.POLAR.0>
0

>  <SCORE.INTRA.REPUL>
0

>  <SCORE.INTRA.REPUL.0>
0

>  <SCORE.INTRA.SOLV>
-1.48483

>  <SCORE.INTRA.SOLV.lig_0>
-126.444

>  <SCORE.INTRA.VDW>
1.60732

>  <SCORE.INTRA.VDW.0>
-7.40469

>  <SCORE.INTRA.norm>
-0.0783157

>  <SCORE.RESTR>
0.980909

>  <SCORE.RESTR.CAVITY>
0.980909

>  <SCORE.RESTR.norm>
0.0200186

>  <SCORE.SYSTEM>
0

>  <SCORE.SYSTEM.CONST>
0

>  <SCORE.SYSTEM.DIHEDRAL>
0

>  <SCORE.SYSTEM.SOLV>
0

>  <SCORE.SYSTEM.norm>
0

>  <SCORE.heavy>
49

>  <SCORE.norm>
-0.213757

>  <RMSD>
1.816

$$$$
2bee_lig
 OpenBabel11021811423D
libRbt.so/2013.1/901 2013/11/27
 49 52  0  0  0  0  0  0  0  0999 V2000
   44.6974    7.3997   -7.4530 C   0  0  2  0  0  0  0  0  0  0  0  0
   45.7955    6.6284   -7.9234 O   0  0  0  0  0  0  0  0  0  0  0  0
   49.3607    4.7340   -6.1700 C   0  0  2  0  0  0  0  0  0  0  0  0
   50.5910    4.5695   -5.3489 N   0  0  0  0  0  0  0  0  0  0  0  0
   44.9622    4.7325   -4.5286 C   0  0  1  0  0  0  0  0  0  0  0  0
   42.9533    6.3577   -0.7829 C   0  0  1  0  0  0  0  0  0  0  0  0
   43.5482    0.5172   -4.6870 C   0  0  0  0  0  0  0  0  0  0  0  0
   43.4272    7.1521   -8.3553 C   0  0  2  0  0  0  0  0  0  0  0  0
   43.1324    5.7248   -8.4229 N   0  0  0  0  0  0  0  0  0  0  0  0
   49.5302    5.9988   -7.1288 C   0  0  0  0  0  0  0  0  0  0  0  0
   44.6630    4.2857   -3.1345 C   0  0  2  0  0  0  0  0  0  0  0  0
   44.7000    2.8211   -2.9804 O   0  0  0  0  0  0  0  0  0  0  0  0
   43.4897    5.1720    0.1851 C   0  0  2  0  0  0  0  0  0  0  0  0
   42.4014    4.1461    0.3130 N   0  0  0  0  0  0  0  0  0  0  0  0
   43.5070   -0.8946   -4.7651 C   0  0  0  0  0  0  0  0  0  0  0  0
   42.4864   -1.5210   -5.4770 N   0  0  0  0  0  0  0  0  0  0  0  0
   43.6814    7.7670   -9.8008 C   0  0  1  0  0  0  0  0  0  0  0  0
   42.5316    7.5435  -10.6040 O   0  0  0  0  0  0  0  0  0  0  0  0
   48.1915    6.2217   -8.0397 C   0  0  2  0  0  0  0  0  0  0  0  0
   48.3365    7.3426   -8.9051 N   0  0  0  0  0  0  0  0  0  0  0  0
   43.3837    5.0704   -2.9722 C   0  0  2  0  0  0  0  0  0  0  0  0
   42.6079    5.7021   -2.0266 O   0  0  0  0  0  0  0  0  0  0  0  0
   43.8367    5.7927    1.5853 C   0  0  1  0  0  0  0  0  0  0  0  0
   44.9146    6.7706    1.3768 O   0  0  0  0  0  0  0  0  0  0  0  0
   43.9823    9.2774   -9.6616 C   0  0  2  0  0  0  0  0  0  0  0  0
   44.2417    9.8892  -10.9899 O   0  0  0  0  0  0  0  0  0  0  0  0
   46.9372    6.4322   -7.1050 C   0  0  2  0  0  0  0  0  0  0  0  0
   42.7316    4.9966   -4.4408 C   0  0  2  0  0  0  0  0  0  0  0  0
   43.8201    5.1214   -5.2369 O   0  0  0  0  0  0  0  0  0  0  0  0
   42.5004    6.4947    2.2057 C   0  0  2  0  0  0  0  0  0  0  0  0
   41.4218    5.5013    2.4087 O   0  0  0  0  0  0  0  0  0  0  0  0
   45.2403    9.5102   -8.7599 C   0  0  2  0  0  0  0  0  0  0  0  0
   44.9206    8.8820   -7.4920 O   0  0  0  0  0  0  0  0  0  0  0  0
   46.8186    5.1696   -6.1861 C   0  0  2  0  0  0  0  0  0  0  0  0
   45.6706    5.4501   -5.4223 O   0  0  0  0  0  0  0  0  0  0  0  0
   41.7404    6.1421   -4.8663 C   0  0  0  0  0  0  0  0  0  0  0  0
   40.5016    6.0232   -4.0978 O   0  0  0  0  0  0  0  0  0  0  0  0
   41.9664    7.6244    1.2169 C   0  0  1  0  0  0  0  0  0  0  0  0
   41.7063    6.9565   -0.1172 O   0  0  0  0  0  0  0  0  0  0  0  0
   45.4363   10.9690   -8.6643 C   0  0  0  0  0  0  0  0  0  0  0  0
   46.7361   11.2582   -8.5149 O   0  0  0  0  0  0  0  0  0  0  0  0
   48.1183    4.9960   -5.2899 C   0  0  1  0  0  0  0  0  0  0  0  0
   48.0044    3.8639   -4.4827 O   0  0  0  0  0  0  0  0  0  0  0  0
   44.3976    2.0914   -1.7382 C   0  0  0  0  0  0  0  0  0  0  0  0
   40.6831    8.2069    1.9002 C   0  0  0  0  0  0  0  0  0  0  0  0
   40.9692    8.9191    3.1125 N   0  0  0  0  0  0  0  0  0  0  0  0
   42.8813    2.0190   -1.5521 C   0  0  0  0  0  0  0  0  0  0  0  0
   42.3907    0.9668   -2.4633 N   0  0  0  0  0  0  0  0  0  0  0  0
   42.3418    1.2742   -3.9615 C   0  0  0  0  0  0  0  0  0  0  0  0
  1  2  1  6  0  0  0
  1  8  1  0  0  0  0
  1 33  1  0  0  0  0
  3  4  1  1  0  0  0
  3 10  1  0  0  0  0
  3 42  1  0  0  0  0
  5 11  1  0  0  0  0
  5 29  1  0  0  0  0
  5 35  1  1  0  0  0
  6 13  1  0  0  0  0
  6 39  1  0  0  0  0
  6 22  1  6  0  0  0
  7 15  1  0  0  0  0
  8  9  1  6  0  0  0
  8 17  1  0  0  0  0
 10 19  1  0  0  0  0
 11 12  1  6  0  0  0
 11 21  1  0  0  0  0
 12 44  1  0  0  0  0
 13 14  1  1  0  0  0
 13 23  1  0  0  0  0
 15 16  1  0  0  0  0
 17 18  1  6  0  0  0
 17 25  1  0  0  0  0
 19 20  1  6  0  0  0
 19 27  1  0  0  0  0
 21 22  1  1  0  0  0
 21 28  1  0  0  0  0
 23 24  1  6  0  0  0
 23 30  1  0  0  0  0
 25 26  1  6  0  0  0
 25 32  1  0  0  0  0
 27  2  1  6  0  0  0
 27 34  1  0  0  0  0
 28 29  1  0  0  0  0
 28 36  1  1  0  0  0
 30 31  1  6  0  0  0
 30 38  1  0  0  0  0
 32 33  1  0  0  0  0
 32 40  1  1  0  0  0
 34 35  1  1  0  0  0
 34 42  1  0  0  0  0
 36 37  1  0  0  0  0
 38 39  1  0  0  0  0
 38 45  1  1  0  0  0
 40 41  1  0  0  0  0
 42 43  1  1  0  0  0
 44 47  1  0  0  0  0
 45 46  1  0  0  0  0
 47 48  1  0  0  0  0
 48 49  1  0  0  0  0
 49  7  1  0  0  0  0
M  END
>  <CHROM.1>
-164.81534822,91.18103172,-66.78523614,63.09570370,-177.57759292,78.40591206
29.68103837,-151.89891194,-69.74264457,-149.74198093,173.68699367,67.22093484
77.58558154,-73.97930716,104.84107084,68.84557015,44.32327841,5.69547250
-4.42024403,0.64278413,1.11831512,-0.39335088

>  <Name>
2bee_lig

>  <RI>
2.18182e+07

>  <Rbt.Current_Directory>
/home/itssahil/PROJECTS/Mol_Feturizer/New_Systems/rnas/2bee

>  <Rbt.Executable>
rbdock ($Id: //depot/dev/client3/rdock/2013.1/src/exe/rbdock.cxx#4 $)

>  <Rbt.Library>
libRbt.so (2013.1, Build901 2013/11/27)

>  <Rbt.Parameter_File>
/export/apps/rDock/src/rDock_2013.1_src/data/scripts/dock_solv.prm

>  <Rbt.Receptor>
prm/pocket_docking_3.prm

>  <SCORE>
-24.1804

>  <SCORE.INTER>
-16.8978

>  <SCORE.INTER.CONST>
1

>  <SCORE.INTER.POLAR>
-0.938083

>  <SCORE.INTER.ROT>
16

>  <SCORE.INTER.SOLV>
21.4986

>  <SCORE.INTER.VDW>
-29.5711

>  <SCORE.INTER.norm>
-0.344853

>  <SCORE.INTRA>
-7.28257

>  <SCORE.INTRA.DIHEDRAL>
-16.3372

>  <SCORE.INTRA.DIHEDRAL.0>
36.0842

>  <SCORE.INTRA.POLAR>
0

>  <SCORE.INTRA.POLAR.0>
0

>  <SCORE.INTRA.REPUL>
0

>  <SCORE.INTRA.REPUL.0>
0

>  <SCORE.INTRA.SOLV>
2.08824

>  <SCORE.INTRA.SOLV.lig_0>
-126.444

>  <SCORE.INTRA.VDW>
-0.158106

>  <SCORE.INTRA.VDW.0>
-7.40469

>  <SCORE.INTRA.norm>
-0.148624

>  <SCORE.RESTR>
0

>  <SCORE.RESTR.CAVITY>
0

>  <SCORE.RESTR.norm>
0

>  <SCORE.SYSTEM>
0

>  <SCORE.SYSTEM.CONST>
0

>  <SCORE.SYSTEM.DIHEDRAL>
0

>  <SCORE.SYSTEM.SOLV>
0

>  <SCORE.SYSTEM.norm>
0

>  <SCORE.heavy>
49

>  <SCORE.norm>
-0.493477

>  <RMSD>
1.874

$$$$
2bee_lig
 OpenBabel11021811423D
libRbt.so/2013.1/901 2013/11/27
 49 52  0  0  0  0  0  0  0  0999 V2000
   44.3445    7.5034   -7.2616 C   0  0  2  0  0  0  0  0  0  0  0  0
   45.4259    6.6407   -7.5913 O   0  0  0  0  0  0  0  0  0  0  0  0
   47.9928    3.8732   -5.3273 C   0  0  2  0  0  0  0  0  0  0  0  0
   48.9368    3.3822   -4.2867 N   0  0  0  0  0  0  0  0  0  0  0  0
   43.4162    4.8217   -4.7147 C   0  0  1  0  0  0  0  0  0  0  0  0
   42.2653    6.3064   -0.6639 C   0  0  1  0  0  0  0  0  0  0  0  0
   40.8062   -1.5260   -6.2015 C   0  0  0  0  0  0  0  0  0  0  0  0
   43.1221    7.2421   -8.2241 C   0  0  2  0  0  0  0  0  0  0  0  0
   42.7539    5.8307   -8.1930 N   0  0  0  0  0  0  0  0  0  0  0  0
   48.6497    5.1077   -6.0968 C   0  0  0  0  0  0  0  0  0  0  0  0
   42.7856    4.0304   -3.6153 C   0  0  2  0  0  0  0  0  0  0  0  0
   42.0769    2.8341   -4.1023 O   0  0  0  0  0  0  0  0  0  0  0  0
   43.0414    5.1309    0.1404 C   0  0  2  0  0  0  0  0  0  0  0  0
   42.0260    4.1150    0.5761 N   0  0  0  0  0  0  0  0  0  0  0  0
   42.1031   -1.9725   -5.8556 C   0  0  0  0  0  0  0  0  0  0  0  0
   43.0799   -2.0979   -6.8409 N   0  0  0  0  0  0  0  0  0  0  0  0
   43.5006    7.7165   -9.6951 C   0  0  1  0  0  0  0  0  0  0  0  0
   42.3932    7.4819  -10.5529 O   0  0  0  0  0  0  0  0  0  0  0  0
   47.6360    5.6853   -7.2416 C   0  0  2  0  0  0  0  0  0  0  0  0
   48.2168    6.7814   -7.9399 N   0  0  0  0  0  0  0  0  0  0  0  0
   42.0522    5.1822   -2.9717 C   0  0  2  0  0  0  0  0  0  0  0  0
   41.5923    5.6353   -1.7559 O   0  0  0  0  0  0  0  0  0  0  0  0
   43.7585    5.7694    1.3830 C   0  0  1  0  0  0  0  0  0  0  0  0
   44.7419    6.7363    0.8734 O   0  0  0  0  0  0  0  0  0  0  0  0
   43.8749    9.2165   -9.6615 C   0  0  2  0  0  0  0  0  0  0  0  0
   44.2510    9.6978  -11.0154 O   0  0  0  0  0  0  0  0  0  0  0  0
   46.2796    6.1401   -6.5751 C   0  0  2  0  0  0  0  0  0  0  0  0
   41.6132    6.0757   -4.2353 C   0  0  2  0  0  0  0  0  0  0  0  0
   42.7004    5.9798   -5.0370 O   0  0  0  0  0  0  0  0  0  0  0  0
   42.6439    6.4901    2.3326 C   0  0  2  0  0  0  0  0  0  0  0  0
   41.6582    5.5077    2.8374 O   0  0  0  0  0  0  0  0  0  0  0  0
   45.0844    9.4636   -8.6992 C   0  0  2  0  0  0  0  0  0  0  0  0
   44.6511    8.9638   -7.4082 O   0  0  0  0  0  0  0  0  0  0  0  0
   45.6806    4.8977   -5.8334 C   0  0  2  0  0  0  0  0  0  0  0  0
   44.4792    5.4037   -5.3037 O   0  0  0  0  0  0  0  0  0  0  0  0
   41.3706    7.6129   -4.0032 C   0  0  0  0  0  0  0  0  0  0  0  0
   40.5926    8.1557   -5.1166 O   0  0  0  0  0  0  0  0  0  0  0  0
   41.8642    7.6092    1.5085 C   0  0  1  0  0  0  0  0  0  0  0  0
   41.2486    6.9239    0.3065 O   0  0  0  0  0  0  0  0  0  0  0  0
   45.3541   10.9137   -8.7119 C   0  0  0  0  0  0  0  0  0  0  0  0
   46.6517   11.1509   -8.4767 O   0  0  0  0  0  0  0  0  0  0  0  0
   46.6713    4.3779   -4.7062 C   0  0  1  0  0  0  0  0  0  0  0  0
   46.1309    3.2664   -4.0590 O   0  0  0  0  0  0  0  0  0  0  0  0
   40.8903    2.8476   -4.9733 C   0  0  0  0  0  0  0  0  0  0  0  0
   40.8173    8.2109    2.5060 C   0  0  0  0  0  0  0  0  0  0  0  0
   39.7627    7.2939    2.8306 N   0  0  0  0  0  0  0  0  0  0  0  0
   40.7779    1.5031   -5.6935 C   0  0  0  0  0  0  0  0  0  0  0  0
   40.5552    0.4805   -4.6530 N   0  0  0  0  0  0  0  0  0  0  0  0
   39.9096   -0.8433   -5.0680 C   0  0  0  0  0  0  0  0  0  0  0  0
  1  2  1  6  0  0  0
  1  8  1  0  0  0  0
  1 33  1  0  0  0  0
  3  4  1  1  0  0  0
  3 10  1  0  0  0  0
  3 42  1  0  0  0  0
  5 11  1  0  0  0  0
  5 29  1  0  0  0  0
  5 35  1  1  0  0  0
  6 13  1  0  0  0  0
  6 39  1  0  0  0  0
  6 22  1  6  0  0  0
  7 15  1  0  0  0  0
  8  9  1  6  0  0  0
  8 17  1  0  0  0  0
 10 19  1  0  0  0  0
 11 12  1  6  0  0  0
 11 21  1  0  0  0  0
 12 44  1  0  0  0  0
 13 14  1  1  0  0  0
 13 23  1  0  0  0  0
 15 16  1  0  0  0  0
 17 18  1  6  0  0  0
 17 25  1  0  0  0  0
 19 20  1  1  0  0  0
 19 27  1  0  0  0  0
 21 22  1  6  0  0  0
 21 28  1  0  0  0  0
 23 24  1  6  0  0  0
 23 30  1  0  0  0  0
 25 26  1  6  0  0  0
 25 32  1  0  0  0  0
 27  2  1  6  0  0  0
 27 34  1  0  0  0  0
 28 29  1  0  0  0  0
 28 36  1  1  0  0  0
 30 31  1  6  0  0  0
 30 38  1  0  0  0  0
 32 33  1  0  0  0  0
 32 40  1  1  0  0  0
 34 35  1  1  0  0  0
 34 42  1  0  0  0  0
 36 37  1  0  0  0  0
 38 39  1  0  0  0  0
 38 45  1  1  0  0  0
 40 41  1  0  0  0  0
 42 43  1  6  0  0  0
 44 47  1  0  0  0  0
 45 46  1  0  0  0  0
 47 48  1  0  0  0  0
 48 49  1  0  0  0  0
 49  7  1  0  0  0  0
M  END
>  <CHROM.1>
-145.82421961,62.84857805,-79.36386659,-155.92534132,-64.47053943,157.87003001
80.62756124,-159.43545030,-162.24032519,-150.79546765,169.80157952,-69.51538345
63.95670926,158.08909446,57.97383482,66.26940660,43.49744397,5.53178090,-4.56360168
-0.36113843,1.18546030,0.67448394

>  <Name>
2bee_lig

>  <RI>
2.18182e+07

>  <Rbt.Current_Directory>
/home/itssahil/PROJECTS/Mol_Feturizer/New_Systems/rnas/2bee

>  <Rbt.Executable>
rbdock ($Id: //depot/dev/client3/rdock/2013.1/src/exe/rbdock.cxx#4 $)

>  <Rbt.Library>
libRbt.so (2013.1, Build901 2013/11/27)

>  <Rbt.Parameter_File>
/export/apps/rDock/src/rDock_2013.1_src/data/scripts/dock_solv.prm

>  <Rbt.Receptor>
prm/pocket_docking_3.prm

>  <SCORE>
-16.2534

>  <SCORE.INTER>
-10.9541

>  <SCORE.INTER.CONST>
1

>  <SCORE.INTER.POLAR>
-0.938083

>  <SCORE.INTER.ROT>
16

>  <SCORE.INTER.SOLV>
21.4072

>  <SCORE.INTER.VDW>
-25.5782

>  <SCORE.INTER.norm>
-0.223552

>  <SCORE.INTRA>
-5.30108

>  <SCORE.INTRA.DIHEDRAL>
-13.7529

>  <SCORE.INTRA.DIHEDRAL.0>
36.0842

>  <SCORE.INTRA.POLAR>
0

>  <SCORE.INTRA.POLAR.0>
0

>  <SCORE.INTRA.REPUL>
0

>  <SCORE.INTRA.REPUL.0>
0

>  <SCORE.INTRA.SOLV>
0.242396

>  <SCORE.INTRA.SOLV.lig_0>
-126.444

>  <SCORE.INTRA.VDW>
1.45415

>  <SCORE.INTRA.VDW.0>
-7.40469

>  <SCORE.INTRA.norm>
-0.108185

>  <SCORE.RESTR>
0.0016894

>  <SCORE.RESTR.CAVITY>
0.0016894

>  <SCORE.RESTR.norm>
3.44775e-05

>  <SCORE.SYSTEM>
0

>  <SCORE.SYSTEM.CONST>
0

>  <SCORE.SYSTEM.DIHEDRAL>
0

>  <SCORE.SYSTEM.SOLV>
0

>  <SCORE.SYSTEM.norm>
0

>  <SCORE.heavy>
49

>  <SCORE.norm>
-0.331703

>  <RMSD>
1.908

$$$$
2bee_lig
 OpenBabel11021811423D
libRbt.so/2013.1/901 2013/11/27
 49 52  0  0  0  0  0  0  0  0999 V2000
   44.5526    5.2615   -8.5146 C   0  0  2  0  0  0  0  0  0  0  0  0
   45.9693    5.2846   -8.6351 O   0  0  0  0  0  0  0  0  0  0  0  0
   49.1306    4.4494   -5.6884 C   0  0  2  0  0  0  0  0  0  0  0  0
   50.0172    4.6270   -4.5064 N   0  0  0  0  0  0  0  0  0  0  0  0
   44.6473    3.2952   -5.3836 C   0  0  1  0  0  0  0  0  0  0  0  0
   43.2398    5.2436   -1.6175 C   0  0  1  0  0  0  0  0  0  0  0  0
   38.7918   -1.2455   -3.9202 C   0  0  0  0  0  0  0  0  0  0  0  0
   43.8854    5.9687   -9.7571 C   0  0  2  0  0  0  0  0  0  0  0  0
   44.3613    5.3594  -10.9944 N   0  0  0  0  0  0  0  0  0  0  0  0
   49.2556    5.7253   -6.6394 C   0  0  0  0  0  0  0  0  0  0  0  0
   44.4754    2.5581   -4.0953 C   0  0  2  0  0  0  0  0  0  0  0  0
   44.1967    1.1242   -4.2868 O   0  0  0  0  0  0  0  0  0  0  0  0
   43.1872    4.8931   -0.0346 C   0  0  2  0  0  0  0  0  0  0  0  0
   41.8502    4.2791    0.2629 N   0  0  0  0  0  0  0  0  0  0  0  0
   38.5232   -1.4173   -5.2983 C   0  0  0  0  0  0  0  0  0  0  0  0
   39.2510   -2.3477   -6.0368 N   0  0  0  0  0  0  0  0  0  0  0  0
   44.2063    7.5265   -9.7100 C   0  0  1  0  0  0  0  0  0  0  0  0
   43.5981    8.1550  -10.8290 O   0  0  0  0  0  0  0  0  0  0  0  0
   48.2846    5.5743   -7.9456 C   0  0  2  0  0  0  0  0  0  0  0  0
   48.3959    6.7037   -8.8048 N   0  0  0  0  0  0  0  0  0  0  0  0
   43.4538    3.4937   -3.4956 C   0  0  2  0  0  0  0  0  0  0  0  0
   43.0032    3.9840   -2.2908 O   0  0  0  0  0  0  0  0  0  0  0  0
   43.3810    6.2244    0.7755 C   0  0  1  0  0  0  0  0  0  0  0  0
   44.7123    6.7514    0.4417 O   0  0  0  0  0  0  0  0  0  0  0  0
   43.6743    8.1121   -8.3813 C   0  0  2  0  0  0  0  0  0  0  0  0
   43.9675    9.5652   -8.2892 O   0  0  0  0  0  0  0  0  0  0  0  0
   46.7854    5.4068   -7.4814 C   0  0  2  0  0  0  0  0  0  0  0  0
   42.5802    3.9333   -4.7727 C   0  0  2  0  0  0  0  0  0  0  0  0
   43.5293    4.0617   -5.7302 O   0  0  0  0  0  0  0  0  0  0  0  0
   42.1998    7.2749    0.3695 C   0  0  2  0  0  0  0  0  0  0  0  0
   40.8646    6.7325    0.7079 O   0  0  0  0  0  0  0  0  0  0  0  0
   44.3388    7.3987   -7.1569 C   0  0  2  0  0  0  0  0  0  0  0  0
   44.0214    5.9924   -7.3180 O   0  0  0  0  0  0  0  0  0  0  0  0
   46.7190    4.1482   -6.5519 C   0  0  2  0  0  0  0  0  0  0  0  0
   45.3531    4.0805   -6.2205 O   0  0  0  0  0  0  0  0  0  0  0  0
   41.8263    5.3131   -4.7113 C   0  0  0  0  0  0  0  0  0  0  0  0
   41.0919    5.5215   -5.9590 O   0  0  0  0  0  0  0  0  0  0  0  0
   42.2431    7.5688   -1.1960 C   0  0  1  0  0  0  0  0  0  0  0  0
   42.1024    6.2352   -1.8997 O   0  0  0  0  0  0  0  0  0  0  0  0
   43.7582    8.0007   -5.9419 C   0  0  0  0  0  0  0  0  0  0  0  0
   44.0605    7.2645   -4.8640 O   0  0  0  0  0  0  0  0  0  0  0  0
   47.6461    4.3355   -5.2760 C   0  0  1  0  0  0  0  0  0  0  0  0
   47.5853    3.2050   -4.4608 O   0  0  0  0  0  0  0  0  0  0  0  0
   42.9124    0.5629   -4.7365 C   0  0  0  0  0  0  0  0  0  0  0  0
   41.0633    8.5623   -1.4686 C   0  0  0  0  0  0  0  0  0  0  0  0
   41.2662    9.8497   -0.8686 N   0  0  0  0  0  0  0  0  0  0  0  0
   42.6930   -0.7945   -4.0668 C   0  0  0  0  0  0  0  0  0  0  0  0
   41.3008   -1.1907   -4.3547 N   0  0  0  0  0  0  0  0  0  0  0  0
   40.1868   -0.5926   -3.4930 C   0  0  0  0  0  0  0  0  0  0  0  0
  1  2  1  6  0  0  0
  1  8  1  0  0  0  0
  1 33  1  0  0  0  0
  3  4  1  1  0  0  0
  3 10  1  0  0  0  0
  3 42  1  0  0  0  0
  5 11  1  0  0  0  0
  5 29  1  0  0  0  0
  5 35  1  1  0  0  0
  6 13  1  0  0  0  0
  6 39  1  0  0  0  0
  6 22  1  6  0  0  0
  7 15  1  0  0  0  0
  8  9  1  6  0  0  0
  8 17  1  0  0  0  0
 10 19  1  0  0  0  0
 11 12  1  6  0  0  0
 11 21  1  0  0  0  0
 12 44  1  0  0  0  0
 13 14  1  6  0  0  0
 13 23  1  0  0  0  0
 15 16  1  0  0  0  0
 17 18  1  6  0  0  0
 17 25  1  0  0  0  0
 19 20  1  6  0  0  0
 19 27  1  0  0  0  0
 21 22  1  1  0  0  0
 21 28  1  0  0  0  0
 23 24  1  6  0  0  0
 23 30  1  0  0  0  0
 25 26  1  6  0  0  0
 25 32  1  0  0  0  0
 27  2  1  6  0  0  0
 27 34  1  0  0  0  0
 28 29  1  0  0  0  0
 28 36  1  1  0  0  0
 30 31  1  6  0  0  0
 30 38  1  0  0  0  0
 32 33  1  0  0  0  0
 32 40  1  1  0  0  0
 34 35  1  1  0  0  0
 34 42  1  0  0  0  0
 36 37  1  0  0  0  0
 38 39  1  0  0  0  0
 38 45  1  6  0  0  0
 40 41  1  0  0  0  0
 42 43  1  1  0  0  0
 44 47  1  0  0  0  0
 45 46  1  0  0  0  0
 47 48  1  0  0  0  0
 48 49  1  0  0  0  0
 49  7  1  0  0  0  0
M  END
>  <CHROM.1>
145.86143618,39.35902763,-148.33284780,68.57453665,-74.63632239,-146.56927679
101.21613841,-173.39299180,-179.78021844,167.12600904,-174.43260912,67.06867274
169.90102616,-81.01516087,-175.95413231,-42.56403146,43.81773527,4.74994585
-4.91950746,0.13205419,-0.97580816,-2.43443937

>  <Name>
2bee_lig

>  <RI>
3.71943e+07

>  <Rbt.Current_Directory>
/home/itssahil/PROJECTS/Mol_Feturizer/New_Systems/rnas/2bee

>  <Rbt.Executable>
rbdock ($Id: //depot/dev/client3/rdock/2013.1/src/exe/rbdock.cxx#4 $)

>  <Rbt.Library>
libRbt.so (2013.1, Build901 2013/11/27)

>  <Rbt.Parameter_File>
/export/apps/rDock/src/rDock_2013.1_src/data/scripts/dock_solv.prm

>  <Rbt.Receptor>
prm/pocket_docking_2.prm

>  <SCORE>
6.66094

>  <SCORE.INTER>
6.48292

>  <SCORE.INTER.CONST>
1

>  <SCORE.INTER.POLAR>
0

>  <SCORE.INTER.ROT>
16

>  <SCORE.INTER.SOLV>
20.703

>  <SCORE.INTER.VDW>
-16.8457

>  <SCORE.INTER.norm>
0.132305

>  <SCORE.INTRA>
-1.20169

>  <SCORE.INTRA.DIHEDRAL>
-13.7571

>  <SCORE.INTRA.DIHEDRAL.0>
36.0842

>  <SCORE.INTRA.POLAR>
0

>  <SCORE.INTRA.POLAR.0>
0

>  <SCORE.INTRA.REPUL>
1

>  <SCORE.INTRA.REPUL.0>
0

>  <SCORE.INTRA.SOLV>
-0.233891

>  <SCORE.INTRA.SOLV.lig_0>
-126.444

>  <SCORE.INTRA.VDW>
0.793813

>  <SCORE.INTRA.VDW.0>
-7.40469

>  <SCORE.INTRA.norm>
-0.0245242

>  <SCORE.RESTR>
1.3797

>  <SCORE.RESTR.CAVITY>
1.3797

>  <SCORE.RESTR.norm>
0.0281572

>  <SCORE.SYSTEM>
0

>  <SCORE.SYSTEM.CONST>
0

>  <SCORE.SYSTEM.DIHEDRAL>
0

>  <SCORE.SYSTEM.SOLV>
0

>  <SCORE.SYSTEM.norm>
0

>  <SCORE.heavy>
49

>  <SCORE.norm>
0.135938

>  <RMSD>
1.925

$$$$
2bee_lig
 OpenBabel11021811423D
libRbt.so/2013.1/901 2013/11/27
 49 52  0  0  0  0  0  0  0  0999 V2000
   44.9810    7.6031   -7.4611 C   0  0  2  0  0  0  0  0  0  0  0  0
   46.0111    6.7499   -7.9438 O   0  0  0  0  0  0  0  0  0  0  0  0
   48.4145    3.6006   -6.0255 C   0  0  2  0  0  0  0  0  0  0  0  0
   49.3924    2.9582   -5.1058 N   0  0  0  0  0  0  0  0  0  0  0  0
   44.1703    5.1373   -4.7881 C   0  0  1  0  0  0  0  0  0  0  0  0
   42.3627    5.7161   -0.4156 C   0  0  1  0  0  0  0  0  0  0  0  0
   41.4570   -1.4439   -5.0298 C   0  0  0  0  0  0  0  0  0  0  0  0
   43.6321    7.3226   -8.2298 C   0  0  2  0  0  0  0  0  0  0  0  0
   43.2888    5.9076   -8.1373 N   0  0  0  0  0  0  0  0  0  0  0  0
   49.1432    4.7595   -6.8464 C   0  0  0  0  0  0  0  0  0  0  0  0
   43.6698    4.4584   -3.5547 C   0  0  2  0  0  0  0  0  0  0  0  0
   42.7741    3.3256   -3.8459 O   0  0  0  0  0  0  0  0  0  0  0  0
   40.8436    5.3550   -0.8547 C   0  0  2  0  0  0  0  0  0  0  0  0
   40.1992    6.6061   -1.3770 N   0  0  0  0  0  0  0  0  0  0  0  0
   41.0376   -0.4386   -5.9322 C   0  0  0  0  0  0  0  0  0  0  0  0
   40.2754   -0.7804   -7.0471 N   0  0  0  0  0  0  0  0  0  0  0  0
   43.7821    7.7914   -9.7429 C   0  0  1  0  0  0  0  0  0  0  0  0
   42.5623    7.5395  -10.4253 O   0  0  0  0  0  0  0  0  0  0  0  0
   48.0970    5.5000   -7.8605 C   0  0  2  0  0  0  0  0  0  0  0  0
   48.7399    6.5297   -8.6040 N   0  0  0  0  0  0  0  0  0  0  0  0
   43.1764    5.7042   -2.8596 C   0  0  2  0  0  0  0  0  0  0  0  0
   42.9841    6.2485   -1.6099 O   0  0  0  0  0  0  0  0  0  0  0  0
   40.0764    4.8185    0.4062 C   0  0  1  0  0  0  0  0  0  0  0  0
   40.7569    3.5912    0.8446 O   0  0  0  0  0  0  0  0  0  0  0  0
   44.1401    9.2955   -9.7728 C   0  0  2  0  0  0  0  0  0  0  0  0
   44.3051    9.7719  -11.1698 O   0  0  0  0  0  0  0  0  0  0  0  0
   46.8961    6.1106   -7.0382 C   0  0  2  0  0  0  0  0  0  0  0  0
   42.6100    6.5906   -4.0765 C   0  0  2  0  0  0  0  0  0  0  0  0
   43.5243    6.3511   -5.0464 O   0  0  0  0  0  0  0  0  0  0  0  0
   40.0925    5.9629    1.5697 C   0  0  2  0  0  0  0  0  0  0  0  0
   39.4071    7.1941    1.1160 O   0  0  0  0  0  0  0  0  0  0  0  0
   45.4763    9.5617   -9.0023 C   0  0  2  0  0  0  0  0  0  0  0  0
   45.2457    9.0657   -7.6588 O   0  0  0  0  0  0  0  0  0  0  0  0
   46.2202    4.9371   -6.2517 C   0  0  2  0  0  0  0  0  0  0  0  0
   45.1639    5.5819   -5.5821 O   0  0  0  0  0  0  0  0  0  0  0  0
   42.5620    8.1524   -3.8918 C   0  0  0  0  0  0  0  0  0  0  0  0
   43.9109    8.6521   -3.6266 O   0  0  0  0  0  0  0  0  0  0  0  0
   41.5944    6.3332    1.9522 C   0  0  1  0  0  0  0  0  0  0  0  0
   42.2748    6.7895    0.6784 O   0  0  0  0  0  0  0  0  0  0  0  0
   45.7245   11.0145   -9.0620 C   0  0  0  0  0  0  0  0  0  0  0  0
   46.8862   11.3161   -8.4663 O   0  0  0  0  0  0  0  0  0  0  0  0
   47.2498    4.2573   -5.2516 C   0  0  1  0  0  0  0  0  0  0  0  0
   46.6389    3.2085   -4.5637 O   0  0  0  0  0  0  0  0  0  0  0  0
   43.1746    2.0795   -4.5195 C   0  0  0  0  0  0  0  0  0  0  0  0
   41.4851    7.4442    3.0508 C   0  0  0  0  0  0  0  0  0  0  0  0
   41.1869    8.7390    2.5093 N   0  0  0  0  0  0  0  0  0  0  0  0
   43.6929    1.0870   -3.4777 C   0  0  0  0  0  0  0  0  0  0  0  0
   43.4827   -0.2632   -4.0350 N   0  0  0  0  0  0  0  0  0  0  0  0
   42.1879   -0.9974   -3.6802 C   0  0  0  0  0  0  0  0  0  0  0  0
  1  2  1  6  0  0  0
  1  8  1  0  0  0  0
  1 33  1  0  0  0  0
  3  4  1  1  0  0  0
  3 10  1  0  0  0  0
  3 42  1  0  0  0  0
  5 11  1  0  0  0  0
  5 29  1  0  0  0  0
  5 35  1  1  0  0  0
  6 13  1  0  0  0  0
  6 39  1  0  0  0  0
  6 22  1  6  0  0  0
  7 15  1  0  0  0  0
  8  9  1  6  0  0  0
  8 17  1  0  0  0  0
 10 19  1  0  0  0  0
 11 12  1  6  0  0  0
 11 21  1  0  0  0  0
 12 44  1  0  0  0  0
 13 14  1  1  0  0  0
 13 23  1  0  0  0  0
 15 16  1  0  0  0  0
 17 18  1  6  0  0  0
 17 25  1  0  0  0  0
 19 20  1  1  0  0  0
 19 27  1  0  0  0  0
 21 22  1  1  0  0  0
 21 28  1  0  0  0  0
 23 24  1  1  0  0  0
 23 30  1  0  0  0  0
 25 26  1  6  0  0  0
 25 32  1  0  0  0  0
 27  2  1  6  0  0  0
 27 34  1  0  0  0  0
 28 29  1  0  0  0  0
 28 36  1  1  0  0  0
 30 31  1  6  0  0  0
 30 38  1  0  0  0  0
 32 33  1  0  0  0  0
 32 40  1  1  0  0  0
 34 35  1  1  0  0  0
 34 42  1  0  0  0  0
 36 37  1  0  0  0  0
 38 39  1  0  0  0  0
 38 45  1  1  0  0  0
 40 41  1  0  0  0  0
 42 43  1  6  0  0  0
 44 47  1  0  0  0  0
 45 46  1  0  0  0  0
 47 48  1  0  0  0  0
 48 49  1  0  0  0  0
 49  7  1  0  0  0  0
M  END
>  <CHROM.1>
-136.69613638,60.78808098,-58.65061604,-173.27731889,65.78873795,87.64532437
-47.91497860,-167.87205073,58.97226940,-177.52416770,176.67664834,-78.22735063
154.14843572,-93.15909323,125.66461588,-61.82777546,43.80554268,5.60211398
-4.65278236,0.24211788,1.06997687,0.04921570

>  <Name>
2bee_lig

>  <RI>
3.71943e+07

>  <Rbt.Current_Directory>
/home/itssahil/PROJECTS/Mol_Feturizer/New_Systems/rnas/2bee

>  <Rbt.Executable>
rbdock ($Id: //depot/dev/client3/rdock/2013.1/src/exe/rbdock.cxx#4 $)

>  <Rbt.Library>
libRbt.so (2013.1, Build901 2013/11/27)

>  <Rbt.Parameter_File>
/export/apps/rDock/src/rDock_2013.1_src/data/scripts/dock_solv.prm

>  <Rbt.Receptor>
prm/pocket_docking_2.prm

>  <SCORE>
-16.6758

>  <SCORE.INTER>
-11.5475

>  <SCORE.INTER.CONST>
1

>  <SCORE.INTER.POLAR>
-1.4907

>  <SCORE.INTER.ROT>
16

>  <SCORE.INTER.SOLV>
14.8624

>  <SCORE.INTER.VDW>
-21.9502

>  <SCORE.INTER.norm>
-0.235664

>  <SCORE.INTRA>
-6.43885

>  <SCORE.INTRA.DIHEDRAL>
-15.0287

>  <SCORE.INTRA.DIHEDRAL.0>
36.0842

>  <SCORE.INTRA.POLAR>
0

>  <SCORE.INTRA.POLAR.0>
0

>  <SCORE.INTRA.REPUL>
0

>  <SCORE.INTRA.REPUL.0>
0

>  <SCORE.INTRA.SOLV>
1.2394

>  <SCORE.INTRA.SOLV.lig_0>
-126.444

>  <SCORE.INTRA.VDW>
0.455787

>  <SCORE.INTRA.VDW.0>
-7.40469

>  <SCORE.INTRA.norm>
-0.131405

>  <SCORE.RESTR>
1.31061

>  <SCORE.RESTR.CAVITY>
1.31061

>  <SCORE.RESTR.norm>
0.0267472

>  <SCORE.SYSTEM>
0

>  <SCORE.SYSTEM.CONST>
0

>  <SCORE.SYSTEM.DIHEDRAL>
0

>  <SCORE.SYSTEM.SOLV>
0

>  <SCORE.SYSTEM.norm>
0

>  <SCORE.heavy>
49

>  <SCORE.norm>
-0.340322

>  <RMSD>
1.956

$$$$
2bee_lig
 OpenBabel11021811423D
libRbt.so/2013.1/901 2013/11/27
 49 52  0  0  0  0  0  0  0  0999 V2000
   44.5827    7.4970   -7.4283 C   0  0  2  0  0  0  0  0  0  0  0  0
   45.5815    6.5585   -7.8075 O   0  0  0  0  0  0  0  0  0  0  0  0
   49.0310    4.5081   -5.9988 C   0  0  2  0  0  0  0  0  0  0  0  0
   50.2232    4.2800   -5.1377 N   0  0  0  0  0  0  0  0  0  0  0  0
   44.5652    4.5363   -4.5419 C   0  0  1  0  0  0  0  0  0  0  0  0
   41.6097    5.9909   -1.3658 C   0  0  1  0  0  0  0  0  0  0  0  0
   42.5979   -1.1030   -4.6444 C   0  0  0  0  0  0  0  0  0  0  0  0
   43.3186    7.3591   -8.3621 C   0  0  2  0  0  0  0  0  0  0  0  0
   42.8379    5.9816   -8.3528 N   0  0  0  0  0  0  0  0  0  0  0  0
   49.2666    5.8085   -6.8941 C   0  0  0  0  0  0  0  0  0  0  0  0
   44.0576    4.1716   -3.1847 C   0  0  2  0  0  0  0  0  0  0  0  0
   44.2701    2.7517   -2.8546 O   0  0  0  0  0  0  0  0  0  0  0  0
   40.2206    6.8284   -1.3563 C   0  0  2  0  0  0  0  0  0  0  0  0
   40.2324    7.7646   -2.5296 N   0  0  0  0  0  0  0  0  0  0  0  0
   41.6623   -0.9889   -3.5897 C   0  0  0  0  0  0  0  0  0  0  0  0
   40.6893    0.0073   -3.6293 N   0  0  0  0  0  0  0  0  0  0  0  0
   43.6961    7.8379   -9.8319 C   0  0  1  0  0  0  0  0  0  0  0  0
   42.5515    7.7147  -10.6636 O   0  0  0  0  0  0  0  0  0  0  0  0
   47.9709    6.1013   -7.8465 C   0  0  2  0  0  0  0  0  0  0  0  0
   48.1751    7.2544   -8.6558 N   0  0  0  0  0  0  0  0  0  0  0  0
   42.6738    4.7497   -3.3564 C   0  0  2  0  0  0  0  0  0  0  0  0
   41.6418    5.3281   -2.6525 O   0  0  0  0  0  0  0  0  0  0  0  0
   40.1317    7.6276   -0.0074 C   0  0  1  0  0  0  0  0  0  0  0  0
   40.1099    6.6438    1.0850 O   0  0  0  0  0  0  0  0  0  0  0  0
   44.1918    9.3016   -9.7747 C   0  0  2  0  0  0  0  0  0  0  0  0
   44.5705    9.7845  -11.1272 O   0  0  0  0  0  0  0  0  0  0  0  0
   46.6847    6.3009   -6.9539 C   0  0  2  0  0  0  0  0  0  0  0  0
   42.3481    4.4420   -4.9013 C   0  0  2  0  0  0  0  0  0  0  0  0
   43.5458    4.6710   -5.4906 O   0  0  0  0  0  0  0  0  0  0  0  0
   41.4174    8.6261    0.1089 C   0  0  2  0  0  0  0  0  0  0  0  0
   41.4300    9.6100   -0.9971 O   0  0  0  0  0  0  0  0  0  0  0  0
   45.4418    9.4264   -8.8411 C   0  0  2  0  0  0  0  0  0  0  0  0
   45.0030    8.9311   -7.5502 O   0  0  0  0  0  0  0  0  0  0  0  0
   46.5017    5.0033   -6.0963 C   0  0  2  0  0  0  0  0  0  0  0  0
   45.3301    5.2777   -5.3670 O   0  0  0  0  0  0  0  0  0  0  0  0
   41.3108    5.3697   -5.6355 C   0  0  0  0  0  0  0  0  0  0  0  0
   41.8818    6.7069   -5.7942 O   0  0  0  0  0  0  0  0  0  0  0  0
   42.7700    7.7857    0.0521 C   0  0  1  0  0  0  0  0  0  0  0  0
   42.7528    7.0088   -1.2478 O   0  0  0  0  0  0  0  0  0  0  0  0
   45.8280   10.8499   -8.8283 C   0  0  0  0  0  0  0  0  0  0  0  0
   47.1099   10.9842   -8.4623 O   0  0  0  0  0  0  0  0  0  0  0  0
   47.7599    4.7613   -5.1579 C   0  0  1  0  0  0  0  0  0  0  0  0
   47.5890    3.5987   -4.4060 O   0  0  0  0  0  0  0  0  0  0  0  0
   45.5793    2.1250   -2.6090 C   0  0  0  0  0  0  0  0  0  0  0  0
   43.9233    8.8408    0.1502 C   0  0  0  0  0  0  0  0  0  0  0  0
   43.6187    9.9209    1.0442 N   0  0  0  0  0  0  0  0  0  0  0  0
   45.7570    0.9392   -3.5583 C   0  0  0  0  0  0  0  0  0  0  0  0
   44.4954    0.1742   -3.5241 N   0  0  0  0  0  0  0  0  0  0  0  0
   43.6906    0.0503   -4.8196 C   0  0  0  0  0  0  0  0  0  0  0  0
  1  2  1  6  0  0  0
  1  8  1  0  0  0  0
  1 33  1  0  0  0  0
  3  4  1  1  0  0  0
  3 10  1  0  0  0  0
  3 42  1  0  0  0  0
  5 11  1  0  0  0  0
  5 29  1  0  0  0  0
  5 35  1  1  0  0  0
  6 13  1  0  0  0  0
  6 39  1  0  0  0  0
  6 22  1  6  0  0  0
  7 15  1  0  0  0  0
  8  9  1  6  0  0  0
  8 17  1  0  0  0  0
 10 19  1  0  0  0  0
 11 12  1  6  0  0  0
 11 21  1  0  0  0  0
 12 44  1  0  0  0  0
 13 14  1  6  0  0  0
 13 23  1  0  0  0  0
 15 16  1  0  0  0  0
 17 18  1  6  0  0  0
 17 25  1  0  0  0  0
 19 20  1  1  0  0  0
 19 27  1  0  0  0  0
 21 22  1  1  0  0  0
 21 28  1  0  0  0  0
 23 24  1  1  0  0  0
 23 30  1  0  0  0  0
 25 26  1  6  0  0  0
 25 32  1  0  0  0  0
 27  2  1  6  0  0  0
 27 34  1  0  0  0  0
 28 29  1  0  0  0  0
 28 36  1  6  0  0  0
 30 31  1  6  0  0  0
 30 38  1  0  0  0  0
 32 33  1  0  0  0  0
 32 40  1  1  0  0  0
 34 35  1  1  0  0  0
 34 42  1  0  0  0  0
 36 37  1  0  0  0  0
 38 39  1  0  0  0  0
 38 45  1  6  0  0  0
 40 41  1  0  0  0  0
 42 43  1  1  0  0  0
 44 47  1  0  0  0  0
 45 46  1  0  0  0  0
 47 48  1  0  0  0  0
 48 49  1  0  0  0  0
 49  7  1  0  0  0  0
M  END
>  <CHROM.1>
-166.86973304,107.48304299,162.53085947,68.55991421,68.88749758,-124.31130826
20.55331189,-142.20205789,68.48840502,-158.37988688,173.10742845,37.52140639
-45.75012990,117.60235536,165.59574391,57.68653563,44.11376246,5.85279924
-4.89676677,0.67671534,0.95751986,-0.35068601

>  <Name>
2bee_lig

>  <RI>
3.71943e+07

>  <Rbt.Current_Directory>
/home/itssahil/PROJECTS/Mol_Feturizer/New_Systems/rnas/2bee

>  <Rbt.Executable>
rbdock ($Id: //depot/dev/client3/rdock/2013.1/src/exe/rbdock.cxx#4 $)

>  <Rbt.Library>
libRbt.so (2013.1, Build901 2013/11/27)

>  <Rbt.Parameter_File>
/export/apps/rDock/src/rDock_2013.1_src/data/scripts/dock_solv.prm

>  <Rbt.Receptor>
prm/pocket_docking_2.prm

>  <SCORE>
-7.65114

>  <SCORE.INTER>
-8.26452

>  <SCORE.INTER.CONST>
1

>  <SCORE.INTER.POLAR>
-0.935539

>  <SCORE.INTER.ROT>
16

>  <SCORE.INTER.SOLV>
19.4791

>  <SCORE.INTER.VDW>
-23.1509

>  <SCORE.INTER.norm>
-0.168664

>  <SCORE.INTRA>
-1.11376

>  <SCORE.INTRA.DIHEDRAL>
-6.29041

>  <SCORE.INTRA.DIHEDRAL.0>
36.0842

>  <SCORE.INTRA.POLAR>
0

>  <SCORE.INTRA.POLAR.0>
0

>  <SCORE.INTRA.REPUL>
0

>  <SCORE.INTRA.REPUL.0>
0

>  <SCORE.INTRA.SOLV>
4.29447

>  <SCORE.INTRA.SOLV.lig_0>
-126.444

>  <SCORE.INTRA.VDW>
-0.11579

>  <SCORE.INTRA.VDW.0>
-7.40469

>  <SCORE.INTRA.norm>
-0.0227298

>  <SCORE.RESTR>
1.72714

>  <SCORE.RESTR.CAVITY>
1.72714

>  <SCORE.RESTR.norm>
0.0352478

>  <SCORE.SYSTEM>
0

>  <SCORE.SYSTEM.CONST>
0

>  <SCORE.SYSTEM.DIHEDRAL>
0

>  <SCORE.SYSTEM.SOLV>
0

>  <SCORE.SYSTEM.norm>
0

>  <SCORE.heavy>
49

>  <SCORE.norm>
-0.156146

>  <RMSD>
1.967

$$$$
2bee_lig
 OpenBabel11021811423D
libRbt.so/2013.1/901 2013/11/27
 49 52  0  0  0  0  0  0  0  0999 V2000
   45.1732    7.6329   -7.6181 C   0  0  2  0  0  0  0  0  0  0  0  0
   46.1186    6.7036   -8.1326 O   0  0  0  0  0  0  0  0  0  0  0  0
   49.0553    3.9353   -6.3758 C   0  0  2  0  0  0  0  0  0  0  0  0
   50.1926    3.4504   -5.5473 N   0  0  0  0  0  0  0  0  0  0  0  0
   44.8229    5.0637   -4.7287 C   0  0  1  0  0  0  0  0  0  0  0  0
   42.5530    6.7817   -0.8895 C   0  0  1  0  0  0  0  0  0  0  0  0
   41.7273   -0.4036   -6.0775 C   0  0  0  0  0  0  0  0  0  0  0  0
   43.8469    7.5949   -8.4717 C   0  0  2  0  0  0  0  0  0  0  0  0
   43.3301    6.2319   -8.5321 N   0  0  0  0  0  0  0  0  0  0  0  0
   49.5557    5.1233   -7.3172 C   0  0  0  0  0  0  0  0  0  0  0  0
   44.5365    4.4402   -3.4014 C   0  0  2  0  0  0  0  0  0  0  0  0
   43.8080    3.1645   -3.5113 O   0  0  0  0  0  0  0  0  0  0  0  0
   43.0979    7.8186    0.2324 C   0  0  2  0  0  0  0  0  0  0  0  0
   44.0437    7.0777    1.1322 N   0  0  0  0  0  0  0  0  0  0  0  0
   40.4733    0.0885   -6.5088 C   0  0  0  0  0  0  0  0  0  0  0  0
   39.3921    0.0987   -5.6304 N   0  0  0  0  0  0  0  0  0  0  0  0
   44.1399    8.1753   -9.9240 C   0  0  1  0  0  0  0  0  0  0  0  0
   42.9400    8.1415  -10.6831 O   0  0  0  0  0  0  0  0  0  0  0  0
   48.3296    5.6934   -8.2355 C   0  0  2  0  0  0  0  0  0  0  0  0
   48.7683    6.7477   -9.0855 N   0  0  0  0  0  0  0  0  0  0  0  0
   43.9128    5.6603   -2.7681 C   0  0  2  0  0  0  0  0  0  0  0  0
   43.7401    6.2880   -1.5552 O   0  0  0  0  0  0  0  0  0  0  0  0
   41.8688    8.3631    1.0442 C   0  0  1  0  0  0  0  0  0  0  0  0
   41.0037    9.0846    0.0993 O   0  0  0  0  0  0  0  0  0  0  0  0
   44.6785    9.6189   -9.7921 C   0  0  2  0  0  0  0  0  0  0  0  0
   44.9804   10.1944  -11.1275 O   0  0  0  0  0  0  0  0  0  0  0  0
   47.1622    6.2110   -7.3079 C   0  0  2  0  0  0  0  0  0  0  0  0
   43.1179    6.3316   -3.9949 C   0  0  2  0  0  0  0  0  0  0  0  0
   43.9765    6.1378   -5.0241 O   0  0  0  0  0  0  0  0  0  0  0  0
   41.0871    7.1092    1.7372 C   0  0  2  0  0  0  0  0  0  0  0  0
   41.9684    6.3893    2.6840 O   0  0  0  0  0  0  0  0  0  0  0  0
   45.9903    9.6442   -8.9386 C   0  0  2  0  0  0  0  0  0  0  0  0
   45.6240    9.0623   -7.6613 O   0  0  0  0  0  0  0  0  0  0  0  0
   46.7120    5.0125   -6.4060 C   0  0  2  0  0  0  0  0  0  0  0  0
   45.6671    5.5720   -5.6476 O   0  0  0  0  0  0  0  0  0  0  0  0
   42.8418    7.8795   -3.9364 C   0  0  0  0  0  0  0  0  0  0  0  0
   41.5508    8.1189   -3.2919 O   0  0  0  0  0  0  0  0  0  0  0  0
   40.6010    6.0824    0.6199 C   0  0  1  0  0  0  0  0  0  0  0  0
   41.8329    5.6477   -0.1463 O   0  0  0  0  0  0  0  0  0  0  0  0
   46.4157   11.0535   -8.8464 C   0  0  0  0  0  0  0  0  0  0  0  0
   45.3981   11.8243   -8.4392 O   0  0  0  0  0  0  0  0  0  0  0  0
   47.9131    4.5002   -5.5021 C   0  0  1  0  0  0  0  0  0  0  0  0
   47.5024    3.4276   -4.7102 O   0  0  0  0  0  0  0  0  0  0  0  0
   43.0794    2.5070   -2.4140 C   0  0  0  0  0  0  0  0  0  0  0  0
   39.8904    4.9230    1.3970 C   0  0  0  0  0  0  0  0  0  0  0  0
   39.9617    3.6644    0.7118 N   0  0  0  0  0  0  0  0  0  0  0  0
   42.8922    1.0265   -2.7488 C   0  0  0  0  0  0  0  0  0  0  0  0
   42.0427    0.9671   -3.9541 N   0  0  0  0  0  0  0  0  0  0  0  0
   42.6995    0.5850   -5.2823 C   0  0  0  0  0  0  0  0  0  0  0  0
  1  2  1  6  0  0  0
  1  8  1  0  0  0  0
  1 33  1  0  0  0  0
  3  4  1  1  0  0  0
  3 10  1  0  0  0  0
  3 42  1  0  0  0  0
  5 11  1  0  0  0  0
  5 29  1  0  0  0  0
  5 35  1  1  0  0  0
  6 13  1  0  0  0  0
  6 39  1  0  0  0  0
  6 22  1  1  0  0  0
  7 15  1  0  0  0  0
  8  9  1  6  0  0  0
  8 17  1  0  0  0  0
 10 19  1  0  0  0  0
 11 12  1  6  0  0  0
 11 21  1  0  0  0  0
 12 44  1  0  0  0  0
 13 14  1  1  0  0  0
 13 23  1  0  0  0  0
 15 16  1  0  0  0  0
 17 18  1  6  0  0  0
 17 25  1  0  0  0  0
 19 20  1  1  0  0  0
 19 27  1  0  0  0  0
 21 22  1  1  0  0  0
 21 28  1  0  0  0  0
 23 24  1  6  0  0  0
 23 30  1  0  0  0  0
 25 26  1  6  0  0  0
 25 32  1  0  0  0  0
 27  2  1  6  0  0  0
 27 34  1  0  0  0  0
 28 29  1  0  0  0  0
 28 36  1  1  0  0  0
 30 31  1  1  0  0  0
 30 38  1  0  0  0  0
 32 33  1  0  0  0  0
 32 40  1  1  0  0  0
 34 35  1  1  0  0  0
 34 42  1  0  0  0  0
 36 37  1  0  0  0  0
 38 39  1  0  0  0  0
 38 45  1  1  0  0  0
 40 41  1  0  0  0  0
 42 43  1  1  0  0  0
 44 47  1  0  0  0  0
 45 46  1  0  0  0  0
 47 48  1  0  0  0  0
 48 49  1  0  0  0  0
 49  7  1  0  0  0  0
M  END
>  <CHROM.1>
-157.81053354,64.40011893,-161.72811628,-83.73258705,-162.72062158,-159.99265360
-128.11693930,-157.98164859,-90.86787759,51.06045478,176.84322069,-151.62049279
-63.66926964,106.73894350,138.85770355,64.54784889,44.10337895,5.87587535
-4.70599867,0.19193116,1.07774795,0.09206347

>  <Name>
2bee_lig

>  <RI>
3.71943e+07

>  <Rbt.Current_Directory>
/home/itssahil/PROJECTS/Mol_Feturizer/New_Systems/rnas/2bee

>  <Rbt.Executable>
rbdock ($Id: //depot/dev/client3/rdock/2013.1/src/exe/rbdock.cxx#4 $)

>  <Rbt.Library>
libRbt.so (2013.1, Build901 2013/11/27)

>  <Rbt.Parameter_File>
/export/apps/rDock/src/rDock_2013.1_src/data/scripts/dock_solv.prm

>  <Rbt.Receptor>
prm/pocket_docking_2.prm

>  <SCORE>
-14.5308

>  <SCORE.INTER>
-9.66454

>  <SCORE.INTER.CONST>
1

>  <SCORE.INTER.POLAR>
-0.938083

>  <SCORE.INTER.ROT>
16

>  <SCORE.INTER.SOLV>
18.8083

>  <SCORE.INTER.VDW>
-23.8522

>  <SCORE.INTER.norm>
-0.197236

>  <SCORE.INTRA>
-5.88289

>  <SCORE.INTRA.DIHEDRAL>
-13.7377

>  <SCORE.INTRA.DIHEDRAL.0>
36.0842

>  <SCORE.INTRA.POLAR>
0

>  <SCORE.INTRA.POLAR.0>
0

>  <SCORE.INTRA.REPUL>
0

>  <SCORE.INTRA.REPUL.0>
0

>  <SCORE.INTRA.SOLV>
-0.287122

>  <SCORE.INTRA.SOLV.lig_0>
-126.444

>  <SCORE.INTRA.VDW>
1.12953

>  <SCORE.INTRA.VDW.0>
-7.40469

>  <SCORE.INTRA.norm>
-0.120059

>  <SCORE.RESTR>
1.01663

>  <SCORE.RESTR.CAVITY>
1.01663

>  <SCORE.RESTR.norm>
0.0207475

>  <SCORE.SYSTEM>
0

>  <SCORE.SYSTEM.CONST>
0

>  <SCORE.SYSTEM.DIHEDRAL>
0

>  <SCORE.SYSTEM.SOLV>
0

>  <SCORE.SYSTEM.norm>
0

>  <SCORE.heavy>
49

>  <SCORE.norm>
-0.296547

>  <RMSD>
1.981

$$$$
2bee_lig
 OpenBabel11021811423D
libRbt.so/2013.1/901 2013/11/27
 49 52  0  0  0  0  0  0  0  0999 V2000
   44.4643    7.4325   -7.4788 C   0  0  2  0  0  0  0  0  0  0  0  0
   45.4568    6.4706   -7.8136 O   0  0  0  0  0  0  0  0  0  0  0  0
   48.0137    3.6768   -5.5706 C   0  0  2  0  0  0  0  0  0  0  0  0
   48.9824    3.1819   -4.5551 N   0  0  0  0  0  0  0  0  0  0  0  0
   43.5945    4.8532   -4.6512 C   0  0  1  0  0  0  0  0  0  0  0  0
   42.3288    5.0660   -0.0247 C   0  0  1  0  0  0  0  0  0  0  0  0
   38.9112   -0.3499   -3.2003 C   0  0  0  0  0  0  0  0  0  0  0  0
   43.3306    7.4546   -8.5757 C   0  0  2  0  0  0  0  0  0  0  0  0
   42.7850    6.1139   -8.7580 N   0  0  0  0  0  0  0  0  0  0  0  0
   48.6824    4.8611   -6.4061 C   0  0  0  0  0  0  0  0  0  0  0  0
   43.0724    3.8584   -3.6661 C   0  0  2  0  0  0  0  0  0  0  0  0
   41.8334    3.2006   -4.1158 O   0  0  0  0  0  0  0  0  0  0  0  0
   41.0167    4.1652   -0.3376 C   0  0  2  0  0  0  0  0  0  0  0  0
   40.5118    4.5347   -1.7020 N   0  0  0  0  0  0  0  0  0  0  0  0
   37.8292   -0.9627   -2.5260 C   0  0  0  0  0  0  0  0  0  0  0  0
   37.3772   -2.2157   -2.9337 N   0  0  0  0  0  0  0  0  0  0  0  0
   43.9240    8.0353   -9.9332 C   0  0  1  0  0  0  0  0  0  0  0  0
   42.8957    8.0558  -10.9126 O   0  0  0  0  0  0  0  0  0  0  0  0
   47.6429    5.4420   -7.5257 C   0  0  2  0  0  0  0  0  0  0  0  0
   48.2335    6.4931   -8.2824 N   0  0  0  0  0  0  0  0  0  0  0  0
   43.0962    4.7743   -2.4663 C   0  0  2  0  0  0  0  0  0  0  0  0
   43.2537    4.7712   -1.0987 O   0  0  0  0  0  0  0  0  0  0  0  0
   39.9332    4.4686    0.7578 C   0  0  1  0  0  0  0  0  0  0  0  0
   40.4964    4.0670    2.0552 O   0  0  0  0  0  0  0  0  0  0  0  0
   44.4800    9.4550   -9.6751 C   0  0  2  0  0  0  0  0  0  0  0  0
   45.0591   10.0294  -10.9163 O   0  0  0  0  0  0  0  0  0  0  0  0
   46.3340    5.9688   -6.8183 C   0  0  2  0  0  0  0  0  0  0  0  0
   42.6844    6.1963   -3.0953 C   0  0  2  0  0  0  0  0  0  0  0  0
   43.3386    6.1779   -4.2809 O   0  0  0  0  0  0  0  0  0  0  0  0
   39.5712    6.0596    0.7266 C   0  0  2  0  0  0  0  0  0  0  0  0
   39.0077    6.4524   -0.5847 O   0  0  0  0  0  0  0  0  0  0  0  0
   45.5991    9.4207   -8.5814 C   0  0  2  0  0  0  0  0  0  0  0  0
   44.9681    8.8431   -7.4099 O   0  0  0  0  0  0  0  0  0  0  0  0
   45.7215    4.7736   -6.0128 C   0  0  2  0  0  0  0  0  0  0  0  0
   44.5635    5.3413   -5.4500 O   0  0  0  0  0  0  0  0  0  0  0  0
   43.1592    7.4981   -2.3499 C   0  0  0  0  0  0  0  0  0  0  0  0
   44.6115    7.4587   -2.1803 O   0  0  0  0  0  0  0  0  0  0  0  0
   40.8830    6.9247    0.9916 C   0  0  1  0  0  0  0  0  0  0  0  0
   41.8899    6.5364   -0.0709 O   0  0  0  0  0  0  0  0  0  0  0  0
   46.0506   10.8111   -8.3851 C   0  0  0  0  0  0  0  0  0  0  0  0
   45.0565   11.5610   -7.8905 O   0  0  0  0  0  0  0  0  0  0  0  0
   46.7396    4.2506   -4.9116 C   0  0  1  0  0  0  0  0  0  0  0  0
   46.1865    3.1810   -4.2072 O   0  0  0  0  0  0  0  0  0  0  0  0
   41.7305    2.2754   -5.2562 C   0  0  0  0  0  0  0  0  0  0  0  0
   40.4212    8.4194    0.9177 C   0  0  0  0  0  0  0  0  0  0  0  0
   41.5123    9.3470    1.0059 N   0  0  0  0  0  0  0  0  0  0  0  0
   40.2558    1.9852   -5.5390 C   0  0  0  0  0  0  0  0  0  0  0  0
   40.0515    0.5441   -5.2949 N   0  0  0  0  0  0  0  0  0  0  0  0
   38.7062    0.0923   -4.7225 C   0  0  0  0  0  0  0  0  0  0  0  0
  1  2  1  6  0  0  0
  1  8  1  0  0  0  0
  1 33  1  0  0  0  0
  3  4  1  1  0  0  0
  3 10  1  0  0  0  0
  3 42  1  0  0  0  0
  5 11  1  0  0  0  0
  5 29  1  0  0  0  0
  5 35  1  1  0  0  0
  6 13  1  0  0  0  0
  6 39  1  0  0  0  0
  6 22  1  6  0  0  0
  7 15  1  0  0  0  0
  8  9  1  6  0  0  0
  8 17  1  0  0  0  0
 10 19  1  0  0  0  0
 11 12  1  6  0  0  0
 11 21  1  0  0  0  0
 12 44  1  0  0  0  0
 13 14  1  6  0  0  0
 13 23  1  0  0  0  0
 15 16  1  0  0  0  0
 17 18  1  6  0  0  0
 17 25  1  0  0  0  0
 19 20  1  1  0  0  0
 19 27  1  0  0  0  0
 21 22  1  1  0  0  0
 21 28  1  0  0  0  0
 23 24  1  1  0  0  0
 23 30  1  0  0  0  0
 25 26  1  6  0  0  0
 25 32  1  0  0  0  0
 27  2  1  6  0  0  0
 27 34  1  0  0  0  0
 28 29  1  0  0  0  0
 28 36  1  1  0  0  0
 30 31  1  6  0  0  0
 30 38  1  0  0  0  0
 32 33  1  0  0  0  0
 32 40  1  1  0  0  0
 34 35  1  1  0  0  0
 34 42  1  0  0  0  0
 36 37  1  0  0  0  0
 38 39  1  0  0  0  0
 38 45  1  6  0  0  0
 40 41  1  0  0  0  0
 42 43  1  6  0  0  0
 44 47  1  0  0  0  0
 45 46  1  0  0  0  0
 47 48  1  0  0  0  0
 48 49  1  0  0  0  0
 49  7  1  0  0  0  0
M  END
>  <CHROM.1>
-160.29170443,20.58217228,50.87617172,66.12927652,67.14039815,-170.98372135
-112.96494764,-156.41450976,54.89319178,64.44374433,-179.96392791,-174.26751493
-116.27750126,145.84157618,-107.91382215,-172.15184343,43.18291836,5.48262734
-4.48751576,0.09614778,-0.98870893,-2.45990679

>  <Name>
2bee_lig

>  <RI>
2.18182e+07

>  <Rbt.Current_Directory>
/home/itssahil/PROJECTS/Mol_Feturizer/New_Systems/rnas/2bee

>  <Rbt.Executable>
rbdock ($Id: //depot/dev/client3/rdock/2013.1/src/exe/rbdock.cxx#4 $)

>  <Rbt.Library>
libRbt.so (2013.1, Build901 2013/11/27)

>  <Rbt.Parameter_File>
/export/apps/rDock/src/rDock_2013.1_src/data/scripts/dock_solv.prm

>  <Rbt.Receptor>
prm/pocket_docking_3.prm

>  <SCORE>
-15.1529

>  <SCORE.INTER>
-9.66228

>  <SCORE.INTER.CONST>
1

>  <SCORE.INTER.POLAR>
-1.93126

>  <SCORE.INTER.ROT>
16

>  <SCORE.INTER.SOLV>
16.4243

>  <SCORE.INTER.VDW>
-19.7454

>  <SCORE.INTER.norm>
-0.197189

>  <SCORE.INTRA>
-5.50574

>  <SCORE.INTRA.DIHEDRAL>
-15.1167

>  <SCORE.INTRA.DIHEDRAL.0>
36.0842

>  <SCORE.INTRA.POLAR>
0

>  <SCORE.INTRA.POLAR.0>
0

>  <SCORE.INTRA.REPUL>
0

>  <SCORE.INTRA.REPUL.0>
0

>  <SCORE.INTRA.SOLV>
1.0535

>  <SCORE.INTRA.SOLV.lig_0>
-126.444

>  <SCORE.INTRA.VDW>
1.52586

>  <SCORE.INTRA.VDW.0>
-7.40469

>  <SCORE.INTRA.norm>
-0.112362

>  <SCORE.RESTR>
0.0151547

>  <SCORE.RESTR.CAVITY>
0.0151547

>  <SCORE.RESTR.norm>
0.000309279

>  <SCORE.SYSTEM>
0

>  <SCORE.SYSTEM.CONST>
0

>  <SCORE.SYSTEM.DIHEDRAL>
0

>  <SCORE.SYSTEM.SOLV>
0

>  <SCORE.SYSTEM.norm>
0

>  <SCORE.heavy>
49

>  <SCORE.norm>
-0.309242

>  <RMSD>
1.993

$$$$
2bee_lig
 OpenBabel11021811423D
libRbt.so/2013.1/901 2013/11/27
 49 52  0  0  0  0  0  0  0  0999 V2000
   44.1910    4.7771   -7.8866 C   0  0  2  0  0  0  0  0  0  0  0  0
   45.5710    4.5578   -8.1503 O   0  0  0  0  0  0  0  0  0  0  0  0
   48.7954    3.2528   -5.4532 C   0  0  2  0  0  0  0  0  0  0  0  0
   49.8225    3.3101   -4.3777 N   0  0  0  0  0  0  0  0  0  0  0  0
   44.4367    3.6897   -4.3689 C   0  0  1  0  0  0  0  0  0  0  0  0
   43.1365    6.8509   -0.9835 C   0  0  1  0  0  0  0  0  0  0  0  0
   42.5332   -0.1281   -6.2410 C   0  0  0  0  0  0  0  0  0  0  0  0
   43.3943    4.9421   -9.2383 C   0  0  2  0  0  0  0  0  0  0  0  0
   43.6325    3.7913  -10.1029 N   0  0  0  0  0  0  0  0  0  0  0  0
   49.0746    4.4133   -6.5131 C   0  0  0  0  0  0  0  0  0  0  0  0
   44.5328    3.8007   -2.8820 C   0  0  2  0  0  0  0  0  0  0  0  0
   43.9266    2.6560   -2.1803 O   0  0  0  0  0  0  0  0  0  0  0  0
   42.9716    5.6357    0.0780 C   0  0  2  0  0  0  0  0  0  0  0  0
   42.4289    4.4447   -0.6570 N   0  0  0  0  0  0  0  0  0  0  0  0
   41.4416   -0.9933   -5.9946 C   0  0  0  0  0  0  0  0  0  0  0  0
   40.5108   -1.2407   -7.0011 N   0  0  0  0  0  0  0  0  0  0  0  0
   43.8275    6.3025   -9.9410 C   0  0  1  0  0  0  0  0  0  0  0  0
   43.1022    6.4446  -11.1537 O   0  0  0  0  0  0  0  0  0  0  0  0
   47.9575    4.3923   -7.7061 C   0  0  2  0  0  0  0  0  0  0  0  0
   48.2033    5.4184   -8.6616 N   0  0  0  0  0  0  0  0  0  0  0  0
   43.9598    5.1932   -2.7750 C   0  0  2  0  0  0  0  0  0  0  0  0
   44.0171    6.3371   -2.0113 O   0  0  0  0  0  0  0  0  0  0  0  0
   41.9795    6.0929    1.2062 C   0  0  1  0  0  0  0  0  0  0  0  0
   42.5878    7.2470    1.8842 O   0  0  0  0  0  0  0  0  0  0  0  0
   43.5461    7.4800   -8.9790 C   0  0  2  0  0  0  0  0  0  0  0  0
   43.9515    8.7711   -9.5912 O   0  0  0  0  0  0  0  0  0  0  0  0
   46.5150    4.5743   -7.0918 C   0  0  2  0  0  0  0  0  0  0  0  0
   42.8371    5.2060   -3.9269 C   0  0  2  0  0  0  0  0  0  0  0  0
   43.4441    4.5093   -4.9170 O   0  0  0  0  0  0  0  0  0  0  0  0
   40.5442    6.4798    0.5325 C   0  0  2  0  0  0  0  0  0  0  0  0
   39.9430    5.3112   -0.1489 O   0  0  0  0  0  0  0  0  0  0  0  0
   44.3370    7.3019   -7.6401 C   0  0  2  0  0  0  0  0  0  0  0  0
   43.9005    6.0250   -7.1078 O   0  0  0  0  0  0  0  0  0  0  0  0
   46.2940    3.4170   -6.0602 C   0  0  2  0  0  0  0  0  0  0  0  0
   44.9873    3.6601   -5.5983 O   0  0  0  0  0  0  0  0  0  0  0  0
   42.4332    6.5941   -4.5481 C   0  0  0  0  0  0  0  0  0  0  0  0
   41.1529    6.4616   -5.2429 O   0  0  0  0  0  0  0  0  0  0  0  0
   40.7383    7.6436   -0.5384 C   0  0  1  0  0  0  0  0  0  0  0  0
   41.7426    7.1443   -1.5561 O   0  0  0  0  0  0  0  0  0  0  0  0
   43.9916    8.4501   -6.7810 C   0  0  0  0  0  0  0  0  0  0  0  0
   44.6146    9.5575   -7.2063 O   0  0  0  0  0  0  0  0  0  0  0  0
   47.3726    3.4809   -4.8961 C   0  0  1  0  0  0  0  0  0  0  0  0
   47.1709    2.4404   -3.9889 O   0  0  0  0  0  0  0  0  0  0  0  0
   42.5234    2.2297   -2.3081 C   0  0  0  0  0  0  0  0  0  0  0  0
   39.3123    7.9129   -1.1276 C   0  0  0  0  0  0  0  0  0  0  0  0
   39.1614    9.2443   -1.6407 N   0  0  0  0  0  0  0  0  0  0  0  0
   42.2897    1.6791   -3.7156 C   0  0  0  0  0  0  0  0  0  0  0  0
   43.0047    0.3904   -3.7924 N   0  0  0  0  0  0  0  0  0  0  0  0
   43.6638    0.0081   -5.1194 C   0  0  0  0  0  0  0  0  0  0  0  0
  1  2  1  6  0  0  0
  1  8  1  0  0  0  0
  1 33  1  0  0  0  0
  3  4  1  1  0  0  0
  3 10  1  0  0  0  0
  3 42  1  0  0  0  0
  5 11  1  0  0  0  0
  5 29  1  0  0  0  0
  5 35  1  6  0  0  0
  6 13  1  0  0  0  0
  6 39  1  0  0  0  0
  6 22  1  6  0  0  0
  7 15  1  0  0  0  0
  8  9  1  6  0  0  0
  8 17  1  0  0  0  0
 10 19  1  0  0  0  0
 11 12  1  1  0  0  0
 11 21  1  0  0  0  0
 12 44  1  0  0  0  0
 13 14  1  6  0  0  0
 13 23  1  0  0  0  0
 15 16  1  0  0  0  0
 17 18  1  6  0  0  0
 17 25  1  0  0  0  0
 19 20  1  6  0  0  0
 19 27  1  0  0  0  0
 21 22  1  1  0  0  0
 21 28  1  0  0  0  0
 23 24  1  6  0  0  0
 23 30  1  0  0  0  0
 25 26  1  6  0  0  0
 25 32  1  0  0  0  0
 27  2  1  6  0  0  0
 27 34  1  0  0  0  0
 28 29  1  0  0  0  0
 28 36  1  6  0  0  0
 30 31  1  6  0  0  0
 30 38  1  0  0  0  0
 32 33  1  0  0  0  0
 32 40  1  1  0  0  0
 34 35  1  1  0  0  0
 34 42  1  0  0  0  0
 36 37  1  0  0  0  0
 38 39  1  0  0  0  0
 38 45  1  6  0  0  0
 40 41  1  0  0  0  0
 42 43  1  1  0  0  0
 44 47  1  0  0  0  0
 45 46  1  0  0  0  0
 47 48  1  0  0  0  0
 48 49  1  0  0  0  0
 49  7  1  0  0  0  0
M  END
>  <CHROM.1>
170.80859201,19.19147977,52.81629890,-173.49739223,-58.46447098,68.26852298
-100.60681657,-176.51479148,-162.50967426,-74.97387971,-133.70527873,154.51733113
70.65442710,-144.37804497,-62.47801412,-54.30183346,43.76396725,4.86576831
-4.78095129,0.34360564,1.06154996,-0.57784804

>  <Name>
2bee_lig

>  <RI>
3.71943e+07

>  <Rbt.Current_Directory>
/home/itssahil/PROJECTS/Mol_Feturizer/New_Systems/rnas/2bee

>  <Rbt.Executable>
rbdock ($Id: //depot/dev/client3/rdock/2013.1/src/exe/rbdock.cxx#4 $)

>  <Rbt.Library>
libRbt.so (2013.1, Build901 2013/11/27)

>  <Rbt.Parameter_File>
/export/apps/rDock/src/rDock_2013.1_src/data/scripts/dock_solv.prm

>  <Rbt.Receptor>
prm/pocket_docking_2.prm

>  <SCORE>
14.621

>  <SCORE.INTER>
14.2907

>  <SCORE.INTER.CONST>
1

>  <SCORE.INTER.POLAR>
0

>  <SCORE.INTER.ROT>
16

>  <SCORE.INTER.SOLV>
16.7206

>  <SCORE.INTER.VDW>
-10.3131

>  <SCORE.INTER.norm>
0.291646

>  <SCORE.INTRA>
-2.0954

>  <SCORE.INTRA.DIHEDRAL>
-15.0723

>  <SCORE.INTRA.DIHEDRAL.0>
36.0842

>  <SCORE.INTRA.POLAR>
0

>  <SCORE.INTRA.POLAR.0>
0

>  <SCORE.INTRA.REPUL>
0.56461

>  <SCORE.INTRA.REPUL.0>
0

>  <SCORE.INTRA.SOLV>
1.16066

>  <SCORE.INTRA.SOLV.lig_0>
-126.444

>  <SCORE.INTRA.VDW>
2.03739

>  <SCORE.INTRA.VDW.0>
-7.40469

>  <SCORE.INTRA.norm>
-0.0427632

>  <SCORE.RESTR>
2.42571

>  <SCORE.RESTR.CAVITY>
2.42571

>  <SCORE.RESTR.norm>
0.0495042

>  <SCORE.SYSTEM>
0

>  <SCORE.SYSTEM.CONST>
0

>  <SCORE.SYSTEM.DIHEDRAL>
0

>  <SCORE.SYSTEM.SOLV>
0

>  <SCORE.SYSTEM.norm>
0

>  <SCORE.heavy>
49

>  <SCORE.norm>
0.298387

>  <RMSD>
1.998

$$$$
2bee_lig
 OpenBabel11021811423D
libRbt.so/2013.1/901 2013/11/27
 49 52  0  0  0  0  0  0  0  0999 V2000
   45.2168    7.5786   -7.5758 C   0  0  2  0  0  0  0  0  0  0  0  0
   46.2449    6.7864   -8.1569 O   0  0  0  0  0  0  0  0  0  0  0  0
   49.4983    4.2984   -6.5446 C   0  0  2  0  0  0  0  0  0  0  0  0
   50.7158    3.9216   -5.7762 N   0  0  0  0  0  0  0  0  0  0  0  0
   45.1009    5.0340   -4.8805 C   0  0  1  0  0  0  0  0  0  0  0  0
   42.2081    6.1602   -1.2220 C   0  0  1  0  0  0  0  0  0  0  0  0
   41.4121   -1.6503   -4.4502 C   0  0  0  0  0  0  0  0  0  0  0  0
   43.8621    7.3788   -8.3593 C   0  0  2  0  0  0  0  0  0  0  0  0
   43.5231    5.9610   -8.4184 N   0  0  0  0  0  0  0  0  0  0  0  0
   49.8437    5.5143   -7.5194 C   0  0  0  0  0  0  0  0  0  0  0  0
   44.6787    4.3148   -3.6407 C   0  0  2  0  0  0  0  0  0  0  0  0
   44.0622    3.0059   -3.9178 O   0  0  0  0  0  0  0  0  0  0  0  0
   41.7641    7.6791   -1.5779 C   0  0  2  0  0  0  0  0  0  0  0  0
   42.8150    8.6092   -1.0451 N   0  0  0  0  0  0  0  0  0  0  0  0
   40.9316   -1.2437   -5.7169 C   0  0  0  0  0  0  0  0  0  0  0  0
   39.7792   -1.8247   -6.2415 N   0  0  0  0  0  0  0  0  0  0  0  0
   43.9980    8.0099   -9.8137 C   0  0  1  0  0  0  0  0  0  0  0  0
   42.7730    7.8295  -10.5092 O   0  0  0  0  0  0  0  0  0  0  0  0
   48.5258    5.9675   -8.3733 C   0  0  2  0  0  0  0  0  0  0  0  0
   48.8261    7.0459   -9.2527 N   0  0  0  0  0  0  0  0  0  0  0  0
   43.8910    5.4538   -3.0398 C   0  0  2  0  0  0  0  0  0  0  0  0
   43.5103    5.9950   -1.8326 O   0  0  0  0  0  0  0  0  0  0  0  0
   40.3756    7.9621   -0.9012 C   0  0  1  0  0  0  0  0  0  0  0  0
   39.4039    7.0257   -1.4849 O   0  0  0  0  0  0  0  0  0  0  0  0
   44.3521    9.5095   -9.6827 C   0  0  2  0  0  0  0  0  0  0  0  0
   44.5039   10.1354  -11.0210 O   0  0  0  0  0  0  0  0  0  0  0  0
   47.3697    6.3938   -7.3870 C   0  0  2  0  0  0  0  0  0  0  0  0
   43.2277    6.1482   -4.3302 C   0  0  2  0  0  0  0  0  0  0  0  0
   44.2308    6.0701   -5.2367 O   0  0  0  0  0  0  0  0  0  0  0  0
   40.5143    7.7561    0.7119 C   0  0  2  0  0  0  0  0  0  0  0  0
   41.4966    8.7021    1.2876 O   0  0  0  0  0  0  0  0  0  0  0  0
   45.6942    9.6948   -8.8990 C   0  0  2  0  0  0  0  0  0  0  0  0
   45.4762    9.0549   -7.6155 O   0  0  0  0  0  0  0  0  0  0  0  0
   47.0730    5.1713   -6.4543 C   0  0  2  0  0  0  0  0  0  0  0  0
   46.0261    5.6479   -5.6438 O   0  0  0  0  0  0  0  0  0  0  0  0
   42.8398    7.6699   -4.2316 C   0  0  0  0  0  0  0  0  0  0  0  0
   43.6190    8.4341   -5.2054 O   0  0  0  0  0  0  0  0  0  0  0  0
   40.9945    6.2713    1.0346 C   0  0  1  0  0  0  0  0  0  0  0  0
   42.3063    6.0636    0.3070 O   0  0  0  0  0  0  0  0  0  0  0  0
   45.9383   11.1463   -8.8024 C   0  0  0  0  0  0  0  0  0  0  0  0
   46.3084   11.6392   -9.9921 O   0  0  0  0  0  0  0  0  0  0  0  0
   48.3604    4.7734   -5.6137 C   0  0  1  0  0  0  0  0  0  0  0  0
   48.0863    3.6785   -4.7938 O   0  0  0  0  0  0  0  0  0  0  0  0
   42.6990    2.8033   -4.4352 C   0  0  0  0  0  0  0  0  0  0  0  0
   41.1113    6.1986    2.5948 C   0  0  0  0  0  0  0  0  0  0  0  0
   39.8857    6.5291    3.2635 N   0  0  0  0  0  0  0  0  0  0  0  0
   42.5533    1.3608   -4.9218 C   0  0  0  0  0  0  0  0  0  0  0  0
   42.5578    0.5041   -3.7201 N   0  0  0  0  0  0  0  0  0  0  0  0
   42.7674   -1.0002   -3.9065 C   0  0  0  0  0  0  0  0  0  0  0  0
  1  2  1  6  0  0  0
  1  8  1  0  0  0  0
  1 33  1  0  0  0  0
  3  4  1  1  0  0  0
  3 10  1  0  0  0  0
  3 42  1  0  0  0  0
  5 11  1  0  0  0  0
  5 29  1  0  0  0  0
  5 35  1  1  0  0  0
  6 13  1  0  0  0  0
  6 39  1  0  0  0  0
  6 22  1  6  0  0  0
  7 15  1  0  0  0  0
  8  9  1  6  0  0  0
  8 17  1  0  0  0  0
 10 19  1  0  0  0  0
 11 12  1  6  0  0  0
 11 21  1  0  0  0  0
 12 44  1  0  0  0  0
 13 14  1  1  0  0  0
 13 23  1  0  0  0  0
 15 16  1  0  0  0  0
 17 18  1  1  0  0  0
 17 25  1  0  0  0  0
 19 20  1  6  0  0  0
 19 27  1  0  0  0  0
 21 22  1  1  0  0  0
 21 28  1  0  0  0  0
 23 24  1  6  0  0  0
 23 30  1  0  0  0  0
 25 26  1  6  0  0  0
 25 32  1  0  0  0  0
 27  2  1  6  0  0  0
 27 34  1  0  0  0  0
 28 29  1  0  0  0  0
 28 36  1  1  0  0  0
 30 31  1  6  0  0  0
 30 38  1  0  0  0  0
 32 33  1  0  0  0  0
 32 40  1  1  0  0  0
 34 35  1  1  0  0  0
 34 42  1  0  0  0  0
 36 37  1  0  0  0  0
 38 39  1  0  0  0  0
 38 45  1  1  0  0  0
 40 41  1  0  0  0  0
 42 43  1  1  0  0  0
 44 47  1  0  0  0  0
 45 46  1  0  0  0  0
 47 48  1  0  0  0  0
 48 49  1  0  0  0  0
 49  7  1  0  0  0  0
M  END
>  <CHROM.1>
-156.12285673,76.82431423,-96.24833473,177.73388532,-75.51456540,165.69742740
-115.74325473,-161.33721942,117.45951415,-72.73404573,160.82400761,57.10234456
70.33370803,-165.39829299,-76.33929670,63.22391830,44.13048320,5.89141183
-4.96722804,0.29026533,0.99318910,0.01042164

>  <Name>
2bee_lig

>  <RI>
3.71943e+07

>  <Rbt.Current_Directory>
/home/itssahil/PROJECTS/Mol_Feturizer/New_Systems/rnas/2bee

>  <Rbt.Executable>
rbdock ($Id: //depot/dev/client3/rdock/2013.1/src/exe/rbdock.cxx#4 $)

>  <Rbt.Library>
libRbt.so (2013.1, Build901 2013/11/27)

>  <Rbt.Parameter_File>
/export/apps/rDock/src/rDock_2013.1_src/data/scripts/dock_solv.prm

>  <Rbt.Receptor>
prm/pocket_docking_2.prm

>  <SCORE>
-9.27338

>  <SCORE.INTER>
-8.31208

>  <SCORE.INTER.CONST>
1

>  <SCORE.INTER.POLAR>
-0.970479

>  <SCORE.INTER.ROT>
16

>  <SCORE.INTER.SOLV>
16.1692

>  <SCORE.INTER.VDW>
-21.9628

>  <SCORE.INTER.norm>
-0.169634

>  <SCORE.INTRA>
-2.30957

>  <SCORE.INTRA.DIHEDRAL>
-12.3695

>  <SCORE.INTRA.DIHEDRAL.0>
36.0842

>  <SCORE.INTRA.POLAR>
0

>  <SCORE.INTRA.POLAR.0>
0

>  <SCORE.INTRA.REPUL>
0.034863

>  <SCORE.INTRA.REPUL.0>
0

>  <SCORE.INTRA.SOLV>
0.745363

>  <SCORE.INTRA.SOLV.lig_0>
-126.444

>  <SCORE.INTRA.VDW>
3.32819

>  <SCORE.INTRA.VDW.0>
-7.40469

>  <SCORE.INTRA.norm>
-0.0471342

>  <SCORE.RESTR>
1.34827

>  <SCORE.RESTR.CAVITY>
1.34827

>  <SCORE.RESTR.norm>
0.0275157

>  <SCORE.SYSTEM>
0

>  <SCORE.SYSTEM.CONST>
0

>  <SCORE.SYSTEM.DIHEDRAL>
0

>  <SCORE.SYSTEM.SOLV>
0

>  <SCORE.SYSTEM.norm>
0

>  <SCORE.heavy>
49

>  <SCORE.norm>
-0.189253

>  <RMSD>
1.999

$$$$
2bee_lig
 OpenBabel11021811423D
libRbt.so/2013.1/901 2013/11/27
 49 52  0  0  0  0  0  0  0  0999 V2000
   44.9499    7.5011   -7.5706 C   0  0  2  0  0  0  0  0  0  0  0  0
   46.0456    6.7461   -8.0723 O   0  0  0  0  0  0  0  0  0  0  0  0
   49.2501    4.3818   -6.1973 C   0  0  2  0  0  0  0  0  0  0  0  0
   50.4241    4.0543   -5.3433 N   0  0  0  0  0  0  0  0  0  0  0  0
   44.8767    5.0741   -4.6519 C   0  0  1  0  0  0  0  0  0  0  0  0
   42.4469    6.5896   -0.8275 C   0  0  1  0  0  0  0  0  0  0  0  0
   42.0100   -1.5483   -4.4397 C   0  0  0  0  0  0  0  0  0  0  0  0
   43.6626    7.2468   -8.4464 C   0  0  2  0  0  0  0  0  0  0  0  0
   43.3822    5.8169   -8.5197 N   0  0  0  0  0  0  0  0  0  0  0  0
   49.6269    5.5864   -7.1745 C   0  0  0  0  0  0  0  0  0  0  0  0
   44.6210    4.4140   -3.3360 C   0  0  2  0  0  0  0  0  0  0  0  0
   43.9874    3.0909   -3.4707 O   0  0  0  0  0  0  0  0  0  0  0  0
   42.8959    7.7316    0.2332 C   0  0  2  0  0  0  0  0  0  0  0  0
   43.9109    7.1320    1.1623 N   0  0  0  0  0  0  0  0  0  0  0  0
   41.1071   -1.0428   -5.4041 C   0  0  0  0  0  0  0  0  0  0  0  0
   40.6259    0.2595   -5.2892 N   0  0  0  0  0  0  0  0  0  0  0  0
   43.8773    7.8766   -9.8917 C   0  0  1  0  0  0  0  0  0  0  0  0
   42.7123    7.6470  -10.6708 O   0  0  0  0  0  0  0  0  0  0  0  0
   48.3563    5.9858   -8.1220 C   0  0  2  0  0  0  0  0  0  0  0  0
   48.6854    7.0537   -9.0037 N   0  0  0  0  0  0  0  0  0  0  0  0
   43.9038    5.5776   -2.6953 C   0  0  2  0  0  0  0  0  0  0  0  0
   43.6726    6.1751   -1.4768 O   0  0  0  0  0  0  0  0  0  0  0  0
   41.6240    8.2005    1.0262 C   0  0  1  0  0  0  0  0  0  0  0  0
   40.6909    8.7860    0.0524 O   0  0  0  0  0  0  0  0  0  0  0  0
   44.1645    9.3891   -9.7462 C   0  0  2  0  0  0  0  0  0  0  0  0
   44.3871   10.0150  -11.0746 O   0  0  0  0  0  0  0  0  0  0  0  0
   47.1274    6.4004   -7.2225 C   0  0  2  0  0  0  0  0  0  0  0  0
   43.0766    6.2063   -3.9233 C   0  0  2  0  0  0  0  0  0  0  0  0
   43.9586    6.0884   -4.9442 O   0  0  0  0  0  0  0  0  0  0  0  0
   40.9670    6.9174    1.7914 C   0  0  2  0  0  0  0  0  0  0  0  0
   41.9161    6.3351    2.7668 O   0  0  0  0  0  0  0  0  0  0  0  0
   45.4398    9.6285   -8.8709 C   0  0  2  0  0  0  0  0  0  0  0  0
   45.1558    8.9860   -7.6017 O   0  0  0  0  0  0  0  0  0  0  0  0
   46.8022    5.1896   -6.2840 C   0  0  2  0  0  0  0  0  0  0  0  0
   45.6925    5.6539   -5.5540 O   0  0  0  0  0  0  0  0  0  0  0  0
   42.6892    7.7295   -3.8489 C   0  0  0  0  0  0  0  0  0  0  0  0
   43.8898    8.5243   -3.5915 O   0  0  0  0  0  0  0  0  0  0  0  0
   40.5756    5.7912    0.7341 C   0  0  1  0  0  0  0  0  0  0  0  0
   41.8400    5.4342   -0.0191 O   0  0  0  0  0  0  0  0  0  0  0  0
   45.6217   11.0886   -8.7671 C   0  0  0  0  0  0  0  0  0  0  0  0
   46.9029   11.3838   -8.5088 O   0  0  0  0  0  0  0  0  0  0  0  0
   48.0418    4.8444   -5.3530 C   0  0  1  0  0  0  0  0  0  0  0  0
   47.7431    3.7595   -4.5284 O   0  0  0  0  0  0  0  0  0  0  0  0
   43.8780    2.0900   -2.3969 C   0  0  0  0  0  0  0  0  0  0  0  0
   39.9808    4.6132    1.5777 C   0  0  0  0  0  0  0  0  0  0  0  0
   39.6407    3.4701    0.7800 N   0  0  0  0  0  0  0  0  0  0  0  0
   42.9804    0.9437   -2.8652 C   0  0  0  0  0  0  0  0  0  0  0  0
   43.5155    0.4873   -4.1626 N   0  0  0  0  0  0  0  0  0  0  0  0
   43.5166   -1.0146   -4.4552 C   0  0  0  0  0  0  0  0  0  0  0  0
  1  2  1  6  0  0  0
  1  8  1  0  0  0  0
  1 33  1  0  0  0  0
  3  4  1  1  0  0  0
  3 10  1  0  0  0  0
  3 42  1  0  0  0  0
  5 11  1  0  0  0  0
  5 29  1  0  0  0  0
  5 35  1  1  0  0  0
  6 13  1  0  0  0  0
  6 39  1  0  0  0  0
  6 22  1  1  0  0  0
  7 15  1  0  0  0  0
  8  9  1  6  0  0  0
  8 17  1  0  0  0  0
 10 19  1  0  0  0  0
 11 12  1  6  0  0  0
 11 21  1  0  0  0  0
 12 44  1  0  0  0  0
 13 14  1  1  0  0  0
 13 23  1  0  0  0  0
 15 16  1  0  0  0  0
 17 18  1  6  0  0  0
 17 25  1  0  0  0  0
 19 20  1  6  0  0  0
 19 27  1  0  0  0  0
 21 22  1  1  0  0  0
 21 28  1  0  0  0  0
 23 24  1  6  0  0  0
 23 30  1  0  0  0  0
 25 26  1  6  0  0  0
 25 32  1  0  0  0  0
 27  2  1  6  0  0  0
 27 34  1  0  0  0  0
 28 29  1  0  0  0  0
 28 36  1  1  0  0  0
 30 31  1  1  0  0  0
 30 38  1  0  0  0  0
 32 33  1  0  0  0  0
 32 40  1  1  0  0  0
 34 35  1  1  0  0  0
 34 42  1  0  0  0  0
 36 37  1  0  0  0  0
 38 39  1  0  0  0  0
 38 45  1  1  0  0  0
 40 41  1  0  0  0  0
 42 43  1  1  0  0  0
 44 47  1  0  0  0  0
 45 46  1  0  0  0  0
 47 48  1  0  0  0  0
 48 49  1  0  0  0  0
 49  7  1  0  0  0  0
M  END
>  <CHROM.1>
-156.15911648,62.70683112,-157.02266732,-73.01110343,166.16989611,171.67585022
-129.07817274,-162.48087340,53.12918997,-155.99771241,174.72679863,-176.69719306
52.28073727,141.18487688,61.29154708,63.15569446,44.21061962,5.74959987,-4.57948635
0.38591677,1.07138153,-0.05231481

>  <Name>
2bee_lig

>  <RI>
3.71943e+07

>  <Rbt.Current_Directory>
/home/itssahil/PROJECTS/Mol_Feturizer/New_Systems/rnas/2bee

>  <Rbt.Executable>
rbdock ($Id: //depot/dev/client3/rdock/2013.1/src/exe/rbdock.cxx#4 $)

>  <Rbt.Library>
libRbt.so (2013.1, Build901 2013/11/27)

>  <Rbt.Parameter_File>
/export/apps/rDock/src/rDock_2013.1_src/data/scripts/dock_solv.prm

>  <Rbt.Receptor>
prm/pocket_docking_2.prm

>  <SCORE>
-23.5567

>  <SCORE.INTER>
-15.7499

>  <SCORE.INTER.CONST>
1

>  <SCORE.INTER.POLAR>
-1.51358

>  <SCORE.INTER.ROT>
16

>  <SCORE.INTER.SOLV>
20.1915

>  <SCORE.INTER.VDW>
-26.4518

>  <SCORE.INTER.norm>
-0.321426

>  <SCORE.INTRA>
-9.43518

>  <SCORE.INTRA.DIHEDRAL>
-20.9248

>  <SCORE.INTRA.DIHEDRAL.0>
36.0842

>  <SCORE.INTRA.POLAR>
0

>  <SCORE.INTRA.POLAR.0>
0

>  <SCORE.INTRA.REPUL>
0.00356439

>  <SCORE.INTRA.REPUL.0>
0

>  <SCORE.INTRA.SOLV>
-0.358451

>  <SCORE.INTRA.SOLV.lig_0>
-126.444

>  <SCORE.INTRA.VDW>
1.18864

>  <SCORE.INTRA.VDW.0>
-7.40469

>  <SCORE.INTRA.norm>
-0.192555

>  <SCORE.RESTR>
1.62833

>  <SCORE.RESTR.CAVITY>
1.62833

>  <SCORE.RESTR.norm>
0.0332312

>  <SCORE.SYSTEM>
0

>  <SCORE.SYSTEM.CONST>
0

>  <SCORE.SYSTEM.DIHEDRAL>
0

>  <SCORE.SYSTEM.SOLV>
0

>  <SCORE.SYSTEM.norm>
0

>  <SCORE.heavy>
49

>  <SCORE.norm>
-0.480749

>  <RMSD>
2.025

$$$$
2bee_lig
 OpenBabel11021811423D
libRbt.so/2013.1/901 2013/11/27
 49 52  0  0  0  0  0  0  0  0999 V2000
   44.6380    7.5097   -7.3714 C   0  0  2  0  0  0  0  0  0  0  0  0
   45.7188    6.7032   -7.8227 O   0  0  0  0  0  0  0  0  0  0  0  0
   48.3627    3.9018   -5.6930 C   0  0  2  0  0  0  0  0  0  0  0  0
   49.4177    3.4126   -4.7642 N   0  0  0  0  0  0  0  0  0  0  0  0
   44.2677    5.4874   -4.2452 C   0  0  1  0  0  0  0  0  0  0  0  0
   43.0912    7.0559    0.1503 C   0  0  1  0  0  0  0  0  0  0  0  0
   40.7457   -0.8276   -1.0909 C   0  0  0  0  0  0  0  0  0  0  0  0
   43.3971    7.3509   -8.3326 C   0  0  2  0  0  0  0  0  0  0  0  0
   43.0409    5.9419   -8.4606 N   0  0  0  0  0  0  0  0  0  0  0  0
   48.9925    4.9795   -6.6878 C   0  0  0  0  0  0  0  0  0  0  0  0
   44.0512    4.9328   -2.8748 C   0  0  2  0  0  0  0  0  0  0  0  0
   43.0433    3.8589   -2.8425 O   0  0  0  0  0  0  0  0  0  0  0  0
   43.0542    5.6031    0.8707 C   0  0  2  0  0  0  0  0  0  0  0  0
   42.5934    4.5932   -0.1397 N   0  0  0  0  0  0  0  0  0  0  0  0
   40.8317   -1.4480   -2.3592 C   0  0  0  0  0  0  0  0  0  0  0  0
   40.6576   -2.8256   -2.4714 N   0  0  0  0  0  0  0  0  0  0  0  0
   43.7398    7.9991   -9.7448 C   0  0  1  0  0  0  0  0  0  0  0  0
   42.6160    7.8556  -10.6013 O   0  0  0  0  0  0  0  0  0  0  0  0
   47.8597    5.5521   -7.7177 C   0  0  2  0  0  0  0  0  0  0  0  0
   48.4140    6.5078   -8.6154 N   0  0  0  0  0  0  0  0  0  0  0  0
   43.8248    6.2569   -2.1861 C   0  0  2  0  0  0  0  0  0  0  0  0
   43.9852    6.8953   -0.9770 O   0  0  0  0  0  0  0  0  0  0  0  0
   42.0564    5.6744    2.0813 C   0  0  1  0  0  0  0  0  0  0  0  0
   42.5841    6.6689    3.0269 O   0  0  0  0  0  0  0  0  0  0  0  0
   44.1030    9.4886   -9.5424 C   0  0  2  0  0  0  0  0  0  0  0  0
   44.4458   10.1298  -10.8375 O   0  0  0  0  0  0  0  0  0  0  0  0
   46.6801    6.2119   -6.9027 C   0  0  2  0  0  0  0  0  0  0  0  0
   43.0274    7.1045   -3.2966 C   0  0  2  0  0  0  0  0  0  0  0  0
   43.6534    6.7296   -4.4375 O   0  0  0  0  0  0  0  0  0  0  0  0
   40.5776    6.0928    1.5323 C   0  0  2  0  0  0  0  0  0  0  0  0
   40.0580    5.0859    0.5796 O   0  0  0  0  0  0  0  0  0  0  0  0
   45.3310    9.6332   -8.5828 C   0  0  2  0  0  0  0  0  0  0  0  0
   44.9298    8.9804   -7.3510 O   0  0  0  0  0  0  0  0  0  0  0  0
   46.1018    5.1175   -5.9434 C   0  0  2  0  0  0  0  0  0  0  0  0
   45.0564    5.7983   -5.2925 O   0  0  0  0  0  0  0  0  0  0  0  0
   43.1231    8.6738   -3.2362 C   0  0  0  0  0  0  0  0  0  0  0  0
   42.6514    9.1397   -1.9324 O   0  0  0  0  0  0  0  0  0  0  0  0
   40.6477    7.5010    0.7897 C   0  0  1  0  0  0  0  0  0  0  0  0
   41.6639    7.3624   -0.3246 O   0  0  0  0  0  0  0  0  0  0  0  0
   45.5889   11.0774   -8.4299 C   0  0  0  0  0  0  0  0  0  0  0  0
   46.0713   11.5904   -9.5698 O   0  0  0  0  0  0  0  0  0  0  0  0
   47.2144    4.6029   -4.9336 C   0  0  1  0  0  0  0  0  0  0  0  0
   46.6899    3.6227   -4.0907 O   0  0  0  0  0  0  0  0  0  0  0  0
   43.2451    2.4913   -3.3484 C   0  0  0  0  0  0  0  0  0  0  0  0
   39.1900    7.7856    0.2927 C   0  0  0  0  0  0  0  0  0  0  0  0
   38.2941    8.1350    1.3576 N   0  0  0  0  0  0  0  0  0  0  0  0
   41.9862    1.6643   -3.0830 C   0  0  0  0  0  0  0  0  0  0  0  0
   41.9994    1.3183   -1.6484 N   0  0  0  0  0  0  0  0  0  0  0  0
   40.7138    0.7692   -1.0262 C   0  0  0  0  0  0  0  0  0  0  0  0
  1  2  1  6  0  0  0
  1  8  1  0  0  0  0
  1 33  1  0  0  0  0
  3  4  1  1  0  0  0
  3 10  1  0  0  0  0
  3 42  1  0  0  0  0
  5 11  1  0  0  0  0
  5 29  1  0  0  0  0
  5 35  1  1  0  0  0
  6 13  1  0  0  0  0
  6 39  1  0  0  0  0
  6 22  1  6  0  0  0
  7 15  1  0  0  0  0
  8  9  1  6  0  0  0
  8 17  1  0  0  0  0
 10 19  1  0  0  0  0
 11 12  1  6  0  0  0
 11 21  1  0  0  0  0
 12 44  1  0  0  0  0
 13 14  1  6  0  0  0
 13 23  1  0  0  0  0
 15 16  1  0  0  0  0
 17 18  1  6  0  0  0
 17 25  1  0  0  0  0
 19 20  1  6  0  0  0
 19 27  1  0  0  0  0
 21 22  1  1  0  0  0
 21 28  1  0  0  0  0
 23 24  1  1  0  0  0
 23 30  1  0  0  0  0
 25 26  1  6  0  0  0
 25 32  1  0  0  0  0
 27  2  1  6  0  0  0
 27 34  1  0  0  0  0
 28 29  1  0  0  0  0
 28 36  1  1  0  0  0
 30 31  1  6  0  0  0
 30 38  1  0  0  0  0
 32 33  1  0  0  0  0
 32 40  1  1  0  0  0
 34 35  1  1  0  0  0
 34 42  1  0  0  0  0
 36 37  1  0  0  0  0
 38 39  1  0  0  0  0
 38 45  1  6  0  0  0
 40 41  1  0  0  0  0
 42 43  1  1  0  0  0
 44 47  1  0  0  0  0
 45 46  1  0  0  0  0
 47 48  1  0  0  0  0
 48 49  1  0  0  0  0
 49  7  1  0  0  0  0
M  END
>  <CHROM.1>
-152.52337181,42.90517966,73.85865451,-170.24553116,73.42575589,177.75539386
-92.63561503,-171.31096061,-57.83982459,-70.06645758,-170.78452870,72.79765916
-76.56357499,166.28355100,92.85930574,-60.23367575,43.74191541,5.86742005
-4.05272346,0.65037580,1.01700694,-0.28104461

>  <Name>
2bee_lig

>  <RI>
0

>  <Rbt.Current_Directory>
/home/itssahil/PROJECTS/Mol_Feturizer/New_Systems/rnas/2bee

>  <Rbt.Executable>
rbdock ($Id: //depot/dev/client3/rdock/2013.1/src/exe/rbdock.cxx#4 $)

>  <Rbt.Library>
libRbt.so (2013.1, Build901 2013/11/27)

>  <Rbt.Parameter_File>
/export/apps/rDock/src/rDock_2013.1_src/data/scripts/dock_solv.prm

>  <Rbt.Receptor>
prm/pocket_docking_5.prm

>  <SCORE>
-21.457

>  <SCORE.INTER>
-13.5192

>  <SCORE.INTER.CONST>
1

>  <SCORE.INTER.POLAR>
-0.938083

>  <SCORE.INTER.ROT>
16

>  <SCORE.INTER.SOLV>
19.7929

>  <SCORE.INTER.VDW>
-26.7502

>  <SCORE.INTER.norm>
-0.275901

>  <SCORE.INTRA>
-7.9383

>  <SCORE.INTRA.DIHEDRAL>
-21.5884

>  <SCORE.INTRA.DIHEDRAL.0>
36.0842

>  <SCORE.INTRA.POLAR>
0

>  <SCORE.INTRA.POLAR.0>
0

>  <SCORE.INTRA.REPUL>
0.114637

>  <SCORE.INTRA.REPUL.0>
0

>  <SCORE.INTRA.SOLV>
1.41686

>  <SCORE.INTRA.SOLV.lig_0>
-126.444

>  <SCORE.INTRA.VDW>
1.57426

>  <SCORE.INTRA.VDW.0>
-7.40469

>  <SCORE.INTRA.norm>
-0.162006

>  <SCORE.RESTR>
0.000469949

>  <SCORE.RESTR.CAVITY>
0.000469949

>  <SCORE.RESTR.norm>
9.59079e-06

>  <SCORE.SYSTEM>
0

>  <SCORE.SYSTEM.CONST>
0

>  <SCORE.SYSTEM.DIHEDRAL>
0

>  <SCORE.SYSTEM.SOLV>
0

>  <SCORE.SYSTEM.norm>
0

>  <SCORE.heavy>
49

>  <SCORE.norm>
-0.437898

>  <RMSD>
2.034

$$$$
2bee_lig
 OpenBabel11021811423D
libRbt.so/2013.1/901 2013/11/27
 49 52  0  0  0  0  0  0  0  0999 V2000
   45.0126    6.4685   -7.5835 C   0  0  2  0  0  0  0  0  0  0  0  0
   46.0814    5.6640   -8.0658 O   0  0  0  0  0  0  0  0  0  0  0  0
   49.2888    3.4781   -5.9901 C   0  0  2  0  0  0  0  0  0  0  0  0
   50.5146    3.2369   -5.1813 N   0  0  0  0  0  0  0  0  0  0  0  0
   45.0469    4.7923   -4.3708 C   0  0  1  0  0  0  0  0  0  0  0  0
   42.0170    6.8157   -1.2311 C   0  0  1  0  0  0  0  0  0  0  0  0
   40.7608   -0.1245   -4.9320 C   0  0  0  0  0  0  0  0  0  0  0  0
   43.7275    6.2646   -8.4757 C   0  0  2  0  0  0  0  0  0  0  0  0
   43.3867    4.8477   -8.5451 N   0  0  0  0  0  0  0  0  0  0  0  0
   49.6488    4.4199   -7.2275 C   0  0  0  0  0  0  0  0  0  0  0  0
   44.6972    4.6082   -2.9299 C   0  0  2  0  0  0  0  0  0  0  0  0
   44.2691    3.2345   -2.6137 O   0  0  0  0  0  0  0  0  0  0  0  0
   42.1477    8.1556   -0.3263 C   0  0  2  0  0  0  0  0  0  0  0  0
   43.3499    8.0046    0.5598 N   0  0  0  0  0  0  0  0  0  0  0  0
   39.5498   -0.3840   -5.6154 C   0  0  0  0  0  0  0  0  0  0  0  0
   39.5247   -1.3091   -6.6567 N   0  0  0  0  0  0  0  0  0  0  0  0
   43.9890    6.8759   -9.9214 C   0  0  1  0  0  0  0  0  0  0  0  0
   42.8258    6.6920  -10.7153 O   0  0  0  0  0  0  0  0  0  0  0  0
   48.3228    4.7200   -8.1350 C   0  0  2  0  0  0  0  0  0  0  0  0
   48.6356    5.5521   -9.2467 N   0  0  0  0  0  0  0  0  0  0  0  0
   43.7496    5.7792   -2.8308 C   0  0  2  0  0  0  0  0  0  0  0  0
   43.2720    6.7198   -1.9465 O   0  0  0  0  0  0  0  0  0  0  0  0
   40.8402    8.3057    0.5305 C   0  0  1  0  0  0  0  0  0  0  0  0
   39.7176    8.4629   -0.4058 O   0  0  0  0  0  0  0  0  0  0  0  0
   44.3392    8.3754   -9.7802 C   0  0  2  0  0  0  0  0  0  0  0  0
   44.6067    8.9831  -11.1087 O   0  0  0  0  0  0  0  0  0  0  0  0
   47.2141    5.4119   -7.2501 C   0  0  2  0  0  0  0  0  0  0  0  0
   43.0285    5.7766   -4.2686 C   0  0  2  0  0  0  0  0  0  0  0  0
   44.0535    5.4601   -5.0952 O   0  0  0  0  0  0  0  0  0  0  0  0
   40.6596    6.9820    1.4680 C   0  0  2  0  0  0  0  0  0  0  0  0
   41.7965    6.8328    2.4043 O   0  0  0  0  0  0  0  0  0  0  0  0
   45.6116    8.5649   -8.8886 C   0  0  2  0  0  0  0  0  0  0  0  0
   45.2828    7.9430   -7.6199 O   0  0  0  0  0  0  0  0  0  0  0  0
   46.9013    4.4518   -6.0530 C   0  0  2  0  0  0  0  0  0  0  0  0
   45.8981    5.1473   -5.3531 O   0  0  0  0  0  0  0  0  0  0  0  0
   42.4370    7.1345   -4.7997 C   0  0  0  0  0  0  0  0  0  0  0  0
   41.5462    6.8680   -5.9288 O   0  0  0  0  0  0  0  0  0  0  0  0
   40.5789    5.6751    0.5600 C   0  0  1  0  0  0  0  0  0  0  0  0
   41.8468    5.6332   -0.2672 O   0  0  0  0  0  0  0  0  0  0  0  0
   45.8550   10.0164   -8.7902 C   0  0  0  0  0  0  0  0  0  0  0  0
   45.5022   10.4696   -7.5797 O   0  0  0  0  0  0  0  0  0  0  0  0
   48.1984    4.2037   -5.1708 C   0  0  1  0  0  0  0  0  0  0  0  0
   47.9094    3.3406   -4.1135 O   0  0  0  0  0  0  0  0  0  0  0  0
   43.2678    2.4636   -3.3688 C   0  0  0  0  0  0  0  0  0  0  0  0
   40.4290    4.4788    1.5599 C   0  0  0  0  0  0  0  0  0  0  0  0
   39.0813    4.2981    2.0178 N   0  0  0  0  0  0  0  0  0  0  0  0
   43.9316    1.8430   -4.5989 C   0  0  0  0  0  0  0  0  0  0  0  0
   43.2045    0.5919   -4.8889 N   0  0  0  0  0  0  0  0  0  0  0  0
   41.9092    0.6806   -5.6986 C   0  0  0  0  0  0  0  0  0  0  0  0
  1  2  1  6  0  0  0
  1  8  1  0  0  0  0
  1 33  1  0  0  0  0
  3  4  1  1  0  0  0
  3 10  1  0  0  0  0
  3 42  1  0  0  0  0
  5 11  1  0  0  0  0
  5 29  1  0  0  0  0
  5 35  1  1  0  0  0
  6 13  1  0  0  0  0
  6 39  1  0  0  0  0
  6 22  1  1  0  0  0
  7 15  1  0  0  0  0
  8  9  1  6  0  0  0
  8 17  1  0  0  0  0
 10 19  1  0  0  0  0
 11 12  1  6  0  0  0
 11 21  1  0  0  0  0
 12 44  1  0  0  0  0
 13 14  1  1  0  0  0
 13 23  1  0  0  0  0
 15 16  1  0  0  0  0
 17 18  1  6  0  0  0
 17 25  1  0  0  0  0
 19 20  1  6  0  0  0
 19 27  1  0  0  0  0
 21 22  1  1  0  0  0
 21 28  1  0  0  0  0
 23 24  1  6  0  0  0
 23 30  1  0  0  0  0
 25 26  1  6  0  0  0
 25 32  1  0  0  0  0
 27  2  1  6  0  0  0
 27 34  1  0  0  0  0
 28 29  1  0  0  0  0
 28 36  1  6  0  0  0
 30 31  1  1  0  0  0
 30 38  1  0  0  0  0
 32 33  1  0  0  0  0
 32 40  1  1  0  0  0
 34 35  1  1  0  0  0
 34 42  1  0  0  0  0
 36 37  1  0  0  0  0
 38 39  1  0  0  0  0
 38 45  1  1  0  0  0
 40 41  1  0  0  0  0
 42 43  1  1  0  0  0
 44 47  1  0  0  0  0
 45 46  1  0  0  0  0
 47 48  1  0  0  0  0
 48 49  1  0  0  0  0
 49  7  1  0  0  0  0
M  END
>  <CHROM.1>
-163.84448446,87.06749903,178.17217393,71.00291051,-48.84263736,81.78190561
-103.08091671,-170.07299640,-165.78036926,105.51494547,167.17904809,81.23149965
150.24573175,83.11202297,-129.76398953,-168.49026796,43.97170454,5.39219050
-4.78952734,-0.07554202,1.01681598,0.17667782

>  <Name>
2bee_lig

>  <RI>
3.71943e+07

>  <Rbt.Current_Directory>
/home/itssahil/PROJECTS/Mol_Feturizer/New_Systems/rnas/2bee

>  <Rbt.Executable>
rbdock ($Id: //depot/dev/client3/rdock/2013.1/src/exe/rbdock.cxx#4 $)

>  <Rbt.Library>
libRbt.so (2013.1, Build901 2013/11/27)

>  <Rbt.Parameter_File>
/export/apps/rDock/src/rDock_2013.1_src/data/scripts/dock_solv.prm

>  <Rbt.Receptor>
prm/pocket_docking_2.prm

>  <SCORE>
-5.21807

>  <SCORE.INTER>
0.0487786

>  <SCORE.INTER.CONST>
1

>  <SCORE.INTER.POLAR>
-0.465118

>  <SCORE.INTER.ROT>
16

>  <SCORE.INTER.SOLV>
16.2678

>  <SCORE.INTER.VDW>
-18.1064

>  <SCORE.INTER.norm>
0.000995481

>  <SCORE.INTRA>
-6.31477

>  <SCORE.INTRA.DIHEDRAL>
-12.7034

>  <SCORE.INTRA.DIHEDRAL.0>
36.0842

>  <SCORE.INTRA.POLAR>
0

>  <SCORE.INTRA.POLAR.0>
0

>  <SCORE.INTRA.REPUL>
0

>  <SCORE.INTRA.REPUL.0>
0

>  <SCORE.INTRA.SOLV>
-2.93149

>  <SCORE.INTRA.SOLV.lig_0>
-126.444

>  <SCORE.INTRA.VDW>
1.50267

>  <SCORE.INTRA.VDW.0>
-7.40469

>  <SCORE.INTRA.norm>
-0.128873

>  <SCORE.RESTR>
1.04792

>  <SCORE.RESTR.CAVITY>
1.04792

>  <SCORE.RESTR.norm>
0.0213862

>  <SCORE.SYSTEM>
0

>  <SCORE.SYSTEM.CONST>
0

>  <SCORE.SYSTEM.DIHEDRAL>
0

>  <SCORE.SYSTEM.SOLV>
0

>  <SCORE.SYSTEM.norm>
0

>  <SCORE.heavy>
49

>  <SCORE.norm>
-0.106491

>  <RMSD>
2.065

$$$$
2bee_lig
 OpenBabel11021811423D
libRbt.so/2013.1/901 2013/11/27
 49 52  0  0  0  0  0  0  0  0999 V2000
   44.9720    7.7478   -7.6532 C   0  0  2  0  0  0  0  0  0  0  0  0
   45.9077    6.7502   -8.0422 O   0  0  0  0  0  0  0  0  0  0  0  0
   48.7112    4.0638   -5.9692 C   0  0  2  0  0  0  0  0  0  0  0  0
   49.7897    3.6168   -5.0461 N   0  0  0  0  0  0  0  0  0  0  0  0
   44.0735    5.2825   -5.1802 C   0  0  1  0  0  0  0  0  0  0  0  0
   42.7344    6.4073   -1.0649 C   0  0  1  0  0  0  0  0  0  0  0  0
   43.9561    1.6583   -1.8690 C   0  0  0  0  0  0  0  0  0  0  0  0
   43.7412    7.7593   -8.6400 C   0  0  2  0  0  0  0  0  0  0  0  0
   43.1521    6.4270   -8.7202 N   0  0  0  0  0  0  0  0  0  0  0  0
   49.2773    5.2059   -6.9298 C   0  0  0  0  0  0  0  0  0  0  0  0
   43.1813    4.4102   -4.3583 C   0  0  2  0  0  0  0  0  0  0  0  0
   42.2999    3.5582   -5.1753 O   0  0  0  0  0  0  0  0  0  0  0  0
   43.3377    5.2151   -0.1452 C   0  0  2  0  0  0  0  0  0  0  0  0
   42.2166    4.2774    0.1970 N   0  0  0  0  0  0  0  0  0  0  0  0
   42.5494    1.5094   -1.8659 C   0  0  0  0  0  0  0  0  0  0  0  0
   41.9656    0.4153   -2.5004 N   0  0  0  0  0  0  0  0  0  0  0  0
   44.2170    8.2764  -10.0677 C   0  0  1  0  0  0  0  0  0  0  0  0
   43.1021    8.2877  -10.9474 O   0  0  0  0  0  0  0  0  0  0  0  0
   48.1166    5.7339   -7.9523 C   0  0  2  0  0  0  0  0  0  0  0  0
   48.6144    6.7469   -8.8197 N   0  0  0  0  0  0  0  0  0  0  0  0
   42.6336    5.5056   -3.4758 C   0  0  2  0  0  0  0  0  0  0  0  0
   42.1487    5.7414   -2.2092 O   0  0  0  0  0  0  0  0  0  0  0  0
   43.9479    5.8509    1.1546 C   0  0  1  0  0  0  0  0  0  0  0  0
   45.0424    6.7391    0.7364 O   0  0  0  0  0  0  0  0  0  0  0  0
   44.8252    9.6900   -9.9162 C   0  0  2  0  0  0  0  0  0  0  0  0
   45.2976   10.2054  -11.2266 O   0  0  0  0  0  0  0  0  0  0  0  0
   46.8929    6.2955   -7.1287 C   0  0  2  0  0  0  0  0  0  0  0  0
   42.5232    6.7540   -4.4842 C   0  0  2  0  0  0  0  0  0  0  0  0
   43.6473    6.6142   -5.2265 O   0  0  0  0  0  0  0  0  0  0  0  0
   42.7806    6.6690    1.9492 C   0  0  2  0  0  0  0  0  0  0  0  0
   41.6835    5.7653    2.3627 O   0  0  0  0  0  0  0  0  0  0  0  0
   46.0410    9.6667   -8.9307 C   0  0  2  0  0  0  0  0  0  0  0  0
   45.5103    9.1470   -7.6846 O   0  0  0  0  0  0  0  0  0  0  0  0
   46.3795    5.1409   -6.2035 C   0  0  2  0  0  0  0  0  0  0  0  0
   45.2894    5.7364   -5.5424 O   0  0  0  0  0  0  0  0  0  0  0  0
   42.5756    8.2030   -3.8731 C   0  0  0  0  0  0  0  0  0  0  0  0
   41.5274    8.3424   -2.8625 O   0  0  0  0  0  0  0  0  0  0  0  0
   42.1726    7.8045    1.0111 C   0  0  1  0  0  0  0  0  0  0  0  0
   41.6553    7.1172   -0.2354 O   0  0  0  0  0  0  0  0  0  0  0  0
   46.5388   11.0515   -8.8297 C   0  0  0  0  0  0  0  0  0  0  0  0
   45.5677   11.8681   -8.3988 O   0  0  0  0  0  0  0  0  0  0  0  0
   47.5166    4.6700   -5.1997 C   0  0  1  0  0  0  0  0  0  0  0  0
   47.0502    3.6360   -4.3875 O   0  0  0  0  0  0  0  0  0  0  0  0
   42.1952    2.0941   -5.0643 C   0  0  0  0  0  0  0  0  0  0  0  0
   41.0594    8.5015    1.8644 C   0  0  0  0  0  0  0  0  0  0  0  0
   39.9137    7.6651    2.0796 N   0  0  0  0  0  0  0  0  0  0  0  0
   43.5122    1.4588   -5.5123 C   0  0  0  0  0  0  0  0  0  0  0  0
   44.1608    0.9240   -4.2992 N   0  0  0  0  0  0  0  0  0  0  0  0
   44.6899    1.9196   -3.2648 C   0  0  0  0  0  0  0  0  0  0  0  0
  1  2  1  6  0  0  0
  1  8  1  0  0  0  0
  1 33  1  0  0  0  0
  3  4  1  1  0  0  0
  3 10  1  0  0  0  0
  3 42  1  0  0  0  0
  5 11  1  0  0  0  0
  5 29  1  0  0  0  0
  5 35  1  1  0  0  0
  6 13  1  0  0  0  0
  6 39  1  0  0  0  0
  6 22  1  6  0  0  0
  7 15  1  0  0  0  0
  8  9  1  6  0  0  0
  8 17  1  0  0  0  0
 10 19  1  0  0  0  0
 11 12  1  6  0  0  0
 11 21  1  0  0  0  0
 12 44  1  0  0  0  0
 13 14  1  1  0  0  0
 13 23  1  0  0  0  0
 15 16  1  0  0  0  0
 17 18  1  6  0  0  0
 17 25  1  0  0  0  0
 19 20  1  6  0  0  0
 19 27  1  0  0  0  0
 21 22  1  6  0  0  0
 21 28  1  0  0  0  0
 23 24  1  6  0  0  0
 23 30  1  0  0  0  0
 25 26  1  6  0  0  0
 25 32  1  0  0  0  0
 27  2  1  6  0  0  0
 27 34  1  0  0  0  0
 28 29  1  0  0  0  0
 28 36  1  1  0  0  0
 30 31  1  6  0  0  0
 30 38  1  0  0  0  0
 32 33  1  0  0  0  0
 32 40  1  1  0  0  0
 34 35  1  1  0  0  0
 34 42  1  0  0  0  0
 36 37  1  0  0  0  0
 38 39  1  0  0  0  0
 38 45  1  1  0  0  0
 40 41  1  0  0  0  0
 42 43  1  1  0  0  0
 44 47  1  0  0  0  0
 45 46  1  0  0  0  0
 47 48  1  0  0  0  0
 48 49  1  0  0  0  0
 49  7  1  0  0  0  0
M  END
>  <CHROM.1>
-162.47446278,67.84960852,-97.31077054,65.68115102,125.77261648,-66.92182902
105.80303903,-155.13757277,-56.00661852,58.27121722,140.88639870,-70.01481682
109.11818722,-68.71182303,120.38730209,-47.16027832,44.27693304,6.03392737
-4.56834795,0.81763606,1.01941326,-0.58397518

>  <Name>
2bee_lig

>  <RI>
3.71943e+07

>  <Rbt.Current_Directory>
/home/itssahil/PROJECTS/Mol_Feturizer/New_Systems/rnas/2bee

>  <Rbt.Executable>
rbdock ($Id: //depot/dev/client3/rdock/2013.1/src/exe/rbdock.cxx#4 $)

>  <Rbt.Library>
libRbt.so (2013.1, Build901 2013/11/27)

>  <Rbt.Parameter_File>
/export/apps/rDock/src/rDock_2013.1_src/data/scripts/dock_solv.prm

>  <Rbt.Receptor>
prm/pocket_docking_2.prm

>  <SCORE>
-8.63799

>  <SCORE.INTER>
-12.6768

>  <SCORE.INTER.CONST>
1

>  <SCORE.INTER.POLAR>
-0.938083

>  <SCORE.INTER.ROT>
16

>  <SCORE.INTER.SOLV>
19.2732

>  <SCORE.INTER.VDW>
-26.0153

>  <SCORE.INTER.norm>
-0.25871

>  <SCORE.INTRA>
1.88651

>  <SCORE.INTRA.DIHEDRAL>
-3.09393

>  <SCORE.INTRA.DIHEDRAL.0>
36.0842

>  <SCORE.INTRA.POLAR>
0

>  <SCORE.INTRA.POLAR.0>
0

>  <SCORE.INTRA.REPUL>
0

>  <SCORE.INTRA.REPUL.0>
0

>  <SCORE.INTRA.SOLV>
6.11659

>  <SCORE.INTRA.SOLV.lig_0>
-126.444

>  <SCORE.INTRA.VDW>
0.37518

>  <SCORE.INTRA.VDW.0>
-7.40469

>  <SCORE.INTRA.norm>
0.0385002

>  <SCORE.RESTR>
2.1523

>  <SCORE.RESTR.CAVITY>
2.1523

>  <SCORE.RESTR.norm>
0.0439244

>  <SCORE.SYSTEM>
0

>  <SCORE.SYSTEM.CONST>
0

>  <SCORE.SYSTEM.DIHEDRAL>
0

>  <SCORE.SYSTEM.SOLV>
0

>  <SCORE.SYSTEM.norm>
0

>  <SCORE.heavy>
49

>  <SCORE.norm>
-0.176286

>  <RMSD>
2.193

$$$$
2bee_lig
 OpenBabel11021811423D
libRbt.so/2013.1/901 2013/11/27
 49 52  0  0  0  0  0  0  0  0999 V2000
   44.5051    7.2673   -7.4183 C   0  0  2  0  0  0  0  0  0  0  0  0
   45.6409    6.5310   -7.8544 O   0  0  0  0  0  0  0  0  0  0  0  0
   49.2601    4.8050   -6.0388 C   0  0  2  0  0  0  0  0  0  0  0  0
   50.4730    4.6916   -5.1838 N   0  0  0  0  0  0  0  0  0  0  0  0
   44.7050    4.4392   -4.7127 C   0  0  1  0  0  0  0  0  0  0  0  0
   41.4130    4.8066   -1.3906 C   0  0  1  0  0  0  0  0  0  0  0  0
   42.3576   -0.7163   -4.0032 C   0  0  0  0  0  0  0  0  0  0  0  0
   43.3257    7.1208   -8.4559 C   0  0  2  0  0  0  0  0  0  0  0  0
   43.0349    5.7099   -8.6865 N   0  0  0  0  0  0  0  0  0  0  0  0
   49.3814    6.1037   -6.9588 C   0  0  0  0  0  0  0  0  0  0  0  0
   44.1515    3.8762   -3.4441 C   0  0  2  0  0  0  0  0  0  0  0  0
   44.3135    2.4153   -3.3452 O   0  0  0  0  0  0  0  0  0  0  0  0
   39.9274    5.4366   -1.2262 C   0  0  2  0  0  0  0  0  0  0  0  0
   39.9837    6.8783   -1.6400 N   0  0  0  0  0  0  0  0  0  0  0  0
   41.4911    0.2768   -3.4895 C   0  0  0  0  0  0  0  0  0  0  0  0
   40.6509   -0.0211   -2.4190 N   0  0  0  0  0  0  0  0  0  0  0  0
   43.7178    7.8664   -9.8059 C   0  0  1  0  0  0  0  0  0  0  0  0
   42.6489    7.7333  -10.7316 O   0  0  0  0  0  0  0  0  0  0  0  0
   48.0595    6.2714   -7.9054 C   0  0  2  0  0  0  0  0  0  0  0  0
   48.1623    7.4224   -8.7366 N   0  0  0  0  0  0  0  0  0  0  0  0
   42.7901    4.5201   -3.5486 C   0  0  2  0  0  0  0  0  0  0  0  0
   41.7574    5.0107   -2.7819 O   0  0  0  0  0  0  0  0  0  0  0  0
   39.4962    5.3058    0.2782 C   0  0  1  0  0  0  0  0  0  0  0  0
   39.4507    3.8716    0.5986 O   0  0  0  0  0  0  0  0  0  0  0  0
   44.0082    9.3533   -9.4959 C   0  0  2  0  0  0  0  0  0  0  0  0
   44.3942   10.0847  -10.7296 O   0  0  0  0  0  0  0  0  0  0  0  0
   46.7674    6.3808   -7.0056 C   0  0  2  0  0  0  0  0  0  0  0  0
   42.4964    4.4780   -5.1295 C   0  0  2  0  0  0  0  0  0  0  0  0
   43.7153    4.7596   -5.6482 O   0  0  0  0  0  0  0  0  0  0  0  0
   40.5737    6.0966    1.2146 C   0  0  2  0  0  0  0  0  0  0  0  0
   40.6125    7.5385    0.8813 O   0  0  0  0  0  0  0  0  0  0  0  0
   45.1754    9.4853   -8.4615 C   0  0  2  0  0  0  0  0  0  0  0  0
   44.7350    8.7439   -7.2950 O   0  0  0  0  0  0  0  0  0  0  0  0
   46.6979    5.0885   -6.1238 C   0  0  2  0  0  0  0  0  0  0  0  0
   45.5127    5.2787   -5.3896 O   0  0  0  0  0  0  0  0  0  0  0  0
   41.5063    5.5463   -5.7247 C   0  0  0  0  0  0  0  0  0  0  0  0
   42.0306    6.8883   -5.4727 O   0  0  0  0  0  0  0  0  0  0  0  0
   42.0320    5.4903    1.0025 C   0  0  1  0  0  0  0  0  0  0  0  0
   42.3484    5.6074   -0.4739 O   0  0  0  0  0  0  0  0  0  0  0  0
   45.3653   10.9261   -8.2096 C   0  0  0  0  0  0  0  0  0  0  0  0
   45.9621   11.5102   -9.2575 O   0  0  0  0  0  0  0  0  0  0  0  0
   47.9783    4.9680   -5.1919 C   0  0  1  0  0  0  0  0  0  0  0  0
   47.9090    3.8092   -4.4181 O   0  0  0  0  0  0  0  0  0  0  0  0
   45.5941    1.7155   -3.1521 C   0  0  0  0  0  0  0  0  0  0  0  0
   42.9748    6.3334    1.9263 C   0  0  0  0  0  0  0  0  0  0  0  0
   42.5502    6.3456    3.2968 N   0  0  0  0  0  0  0  0  0  0  0  0
   45.4088    0.2295   -3.4627 C   0  0  0  0  0  0  0  0  0  0  0  0
   44.3858   -0.2762   -2.5268 N   0  0  0  0  0  0  0  0  0  0  0  0
   43.4344   -1.3690   -3.0186 C   0  0  0  0  0  0  0  0  0  0  0  0
  1  2  1  6  0  0  0
  1  8  1  0  0  0  0
  1 33  1  0  0  0  0
  3  4  1  1  0  0  0
  3 10  1  0  0  0  0
  3 42  1  0  0  0  0
  5 11  1  0  0  0  0
  5 29  1  0  0  0  0
  5 35  1  1  0  0  0
  6 13  1  0  0  0  0
  6 39  1  0  0  0  0
  6 22  1  6  0  0  0
  7 15  1  0  0  0  0
  8  9  1  6  0  0  0
  8 17  1  0  0  0  0
 10 19  1  0  0  0  0
 11 12  1  6  0  0  0
 11 21  1  0  0  0  0
 12 44  1  0  0  0  0
 13 14  1  1  0  0  0
 13 23  1  0  0  0  0
 15 16  1  0  0  0  0
 17 18  1  6  0  0  0
 17 25  1  0  0  0  0
 19 20  1  1  0  0  0
 19 27  1  0  0  0  0
 21 22  1  1  0  0  0
 21 28  1  0  0  0  0
 23 24  1  1  0  0  0
 23 30  1  0  0  0  0
 25 26  1  6  0  0  0
 25 32  1  0  0  0  0
 27  2  1  6  0  0  0
 27 34  1  0  0  0  0
 28 29  1  0  0  0  0
 28 36  1  1  0  0  0
 30 31  1  6  0  0  0
 30 38  1  0  0  0  0
 32 33  1  0  0  0  0
 32 40  1  1  0  0  0
 34 35  1  1  0  0  0
 34 42  1  0  0  0  0
 36 37  1  0  0  0  0
 38 39  1  0  0  0  0
 38 45  1  1  0  0  0
 40 41  1  0  0  0  0
 42 43  1  1  0  0  0
 44 47  1  0  0  0  0
 45 46  1  0  0  0  0
 47 48  1  0  0  0  0
 48 49  1  0  0  0  0
 49  7  1  0  0  0  0
M  END
>  <CHROM.1>
-172.32757691,107.14003629,-169.00903868,-59.11607841,70.09615500,-165.33405831
-18.01175891,-149.41341928,60.15388026,-73.81427977,160.94874370,55.27352302
-60.00438419,145.83804689,-74.91189284,-61.88823350,43.96145279,5.38565288
-4.64113721,0.95464752,0.76343591,-0.61471566

>  <Name>
2bee_lig

>  <RI>
3.46266e+07

>  <Rbt.Current_Directory>
/home/itssahil/PROJECTS/Mol_Feturizer/New_Systems/rnas/2bee

>  <Rbt.Executable>
rbdock ($Id: //depot/dev/client3/rdock/2013.1/src/exe/rbdock.cxx#4 $)

>  <Rbt.Library>
libRbt.so (2013.1, Build901 2013/11/27)

>  <Rbt.Parameter_File>
/export/apps/rDock/src/rDock_2013.1_src/data/scripts/dock_solv.prm

>  <Rbt.Receptor>
prm/pocket_docking_4.prm

>  <SCORE>
-20.1685

>  <SCORE.INTER>
-12.2695

>  <SCORE.INTER.CONST>
1

>  <SCORE.INTER.POLAR>
-0.938083

>  <SCORE.INTER.ROT>
16

>  <SCORE.INTER.SOLV>
23.543

>  <SCORE.INTER.VDW>
-27.167

>  <SCORE.INTER.norm>
-0.250397

>  <SCORE.INTRA>
-7.89905

>  <SCORE.INTRA.DIHEDRAL>
-17.6891

>  <SCORE.INTRA.DIHEDRAL.0>
36.0842

>  <SCORE.INTRA.POLAR>
0

>  <SCORE.INTRA.POLAR.0>
0

>  <SCORE.INTRA.REPUL>
0

>  <SCORE.INTRA.REPUL.0>
0

>  <SCORE.INTRA.SOLV>
2.03449

>  <SCORE.INTRA.SOLV.lig_0>
-126.444

>  <SCORE.INTRA.VDW>
-0.0717471

>  <SCORE.INTRA.VDW.0>
-7.40469

>  <SCORE.INTRA.norm>
-0.161205

>  <SCORE.RESTR>
0

>  <SCORE.RESTR.CAVITY>
0

>  <SCORE.RESTR.norm>
0

>  <SCORE.SYSTEM>
0

>  <SCORE.SYSTEM.CONST>
0

>  <SCORE.SYSTEM.DIHEDRAL>
0

>  <SCORE.SYSTEM.SOLV>
0

>  <SCORE.SYSTEM.norm>
0

>  <SCORE.heavy>
49

>  <SCORE.norm>
-0.411602

>  <RMSD>
2.291

$$$$
2bee_lig
 OpenBabel11021811423D
libRbt.so/2013.1/901 2013/11/27
 49 52  0  0  0  0  0  0  0  0999 V2000
   45.1488    7.5081   -7.4772 C   0  0  2  0  0  0  0  0  0  0  0  0
   46.1370    6.5994   -7.9462 O   0  0  0  0  0  0  0  0  0  0  0  0
   48.9983    3.9057   -5.9636 C   0  0  2  0  0  0  0  0  0  0  0  0
   50.1197    3.4591   -5.0930 N   0  0  0  0  0  0  0  0  0  0  0  0
   44.8334    5.2772   -4.3861 C   0  0  1  0  0  0  0  0  0  0  0  0
   41.7996    7.2825   -1.2528 C   0  0  1  0  0  0  0  0  0  0  0  0
   42.3968   -0.8247   -3.9462 C   0  0  0  0  0  0  0  0  0  0  0  0
   43.8170    7.3457   -8.3073 C   0  0  2  0  0  0  0  0  0  0  0  0
   43.3736    5.9562   -8.2745 N   0  0  0  0  0  0  0  0  0  0  0  0
   49.5314    5.0061   -6.9896 C   0  0  0  0  0  0  0  0  0  0  0  0
   44.5329    5.0504   -2.9401 C   0  0  2  0  0  0  0  0  0  0  0  0
   44.1389    3.6617   -2.6462 O   0  0  0  0  0  0  0  0  0  0  0  0
   41.9000    8.6714   -0.4210 C   0  0  2  0  0  0  0  0  0  0  0  0
   43.0238    8.5437    0.5658 N   0  0  0  0  0  0  0  0  0  0  0  0
   42.5313   -0.1625   -5.1889 C   0  0  0  0  0  0  0  0  0  0  0  0
   43.5089   -0.5734   -6.0923 N   0  0  0  0  0  0  0  0  0  0  0  0
   44.0620    7.8475   -9.7973 C   0  0  1  0  0  0  0  0  0  0  0  0
   42.8572    7.7021  -10.5352 O   0  0  0  0  0  0  0  0  0  0  0  0
   48.3238    5.5328   -7.9569 C   0  0  2  0  0  0  0  0  0  0  0  0
   48.7915    6.5084   -8.8820 N   0  0  0  0  0  0  0  0  0  0  0  0
   43.5688    6.2011   -2.7812 C   0  0  2  0  0  0  0  0  0  0  0  0
   43.1032    7.1104   -1.8584 O   0  0  0  0  0  0  0  0  0  0  0  0
   40.5346    8.9075    0.3179 C   0  0  1  0  0  0  0  0  0  0  0  0
   39.4942    9.0363   -0.7130 O   0  0  0  0  0  0  0  0  0  0  0  0
   44.5236    9.3231   -9.7641 C   0  0  2  0  0  0  0  0  0  0  0  0
   44.7791    9.8279  -11.1373 O   0  0  0  0  0  0  0  0  0  0  0  0
   47.1646    6.1471   -7.0794 C   0  0  2  0  0  0  0  0  0  0  0  0
   42.8025    6.2218   -4.1954 C   0  0  2  0  0  0  0  0  0  0  0  0
   43.8060    5.9449   -5.0615 O   0  0  0  0  0  0  0  0  0  0  0  0
   40.2405    7.6490    1.3144 C   0  0  2  0  0  0  0  0  0  0  0  0
   41.2953    7.5279    2.3459 O   0  0  0  0  0  0  0  0  0  0  0  0
   45.8416    9.4720   -8.9332 C   0  0  2  0  0  0  0  0  0  0  0  0
   45.5215    8.9538   -7.6166 O   0  0  0  0  0  0  0  0  0  0  0  0
   46.6816    5.0320   -6.0915 C   0  0  2  0  0  0  0  0  0  0  0  0
   45.6467    5.6722   -5.3850 O   0  0  0  0  0  0  0  0  0  0  0  0
   42.1709    7.5817   -4.6724 C   0  0  0  0  0  0  0  0  0  0  0  0
   41.0804    7.9537   -3.7714 O   0  0  0  0  0  0  0  0  0  0  0  0
   40.1910    6.2914    0.4815 C   0  0  1  0  0  0  0  0  0  0  0  0
   41.5180    6.1660   -0.2375 O   0  0  0  0  0  0  0  0  0  0  0  0
   46.1915   10.9049   -8.9358 C   0  0  0  0  0  0  0  0  0  0  0  0
   45.2363   11.6215   -8.3279 O   0  0  0  0  0  0  0  0  0  0  0  0
   47.8658    4.5623   -5.1432 C   0  0  1  0  0  0  0  0  0  0  0  0
   47.4257    3.5634   -4.2744 O   0  0  0  0  0  0  0  0  0  0  0  0
   42.8323    3.0649   -2.9679 C   0  0  0  0  0  0  0  0  0  0  0  0
   39.9265    5.1629    1.5349 C   0  0  0  0  0  0  0  0  0  0  0  0
   39.9330    3.8484    0.9600 N   0  0  0  0  0  0  0  0  0  0  0  0
   42.7728    1.6455   -2.4016 C   0  0  0  0  0  0  0  0  0  0  0  0
   41.4105    1.1407   -2.6612 N   0  0  0  0  0  0  0  0  0  0  0  0
   41.2368   -0.3511   -2.9538 C   0  0  0  0  0  0  0  0  0  0  0  0
  1  2  1  6  0  0  0
  1  8  1  0  0  0  0
  1 33  1  0  0  0  0
  3  4  1  1  0  0  0
  3 10  1  0  0  0  0
  3 42  1  0  0  0  0
  5 11  1  0  0  0  0
  5 29  1  0  0  0  0
  5 35  1  1  0  0  0
  6 13  1  0  0  0  0
  6 39  1  0  0  0  0
  6 22  1  1  0  0  0
  7 15  1  0  0  0  0
  8  9  1  6  0  0  0
  8 17  1  0  0  0  0
 10 19  1  0  0  0  0
 11 12  1  6  0  0  0
 11 21  1  0  0  0  0
 12 44  1  0  0  0  0
 13 14  1  1  0  0  0
 13 23  1  0  0  0  0
 15 16  1  0  0  0  0
 17 18  1  6  0  0  0
 17 25  1  0  0  0  0
 19 20  1  6  0  0  0
 19 27  1  0  0  0  0
 21 22  1  1  0  0  0
 21 28  1  0  0  0  0
 23 24  1  6  0  0  0
 23 30  1  0  0  0  0
 25 26  1  6  0  0  0
 25 32  1  0  0  0  0
 27  2  1  6  0  0  0
 27 34  1  0  0  0  0
 28 29  1  0  0  0  0
 28 36  1  6  0  0  0
 30 31  1  1  0  0  0
 30 38  1  0  0  0  0
 32 33  1  0  0  0  0
 32 40  1  1  0  0  0
 34 35  1  1  0  0  0
 34 42  1  0  0  0  0
 36 37  1  0  0  0  0
 38 39  1  0  0  0  0
 38 45  1  1  0  0  0
 40 41  1  0  0  0  0
 42 43  1  1  0  0  0
 44 47  1  0  0  0  0
 45 46  1  0  0  0  0
 47 48  1  0  0  0  0
 48 49  1  0  0  0  0
 49  7  1  0  0  0  0
M  END
>  <CHROM.1>
-153.59871710,83.56158652,-172.10970925,-178.30077837,-74.91172084,-175.36625936
-113.86718215,-162.95119959,-65.99304393,62.74830315,-178.98481052,-176.41026873
175.67018154,146.31213697,-42.69133319,-56.92415817,43.95100820,5.95796961
-4.56609025,0.50680005,0.93600405,-0.35648437

>  <Name>
2bee_lig

>  <RI>
3.71943e+07

>  <Rbt.Current_Directory>
/home/itssahil/PROJECTS/Mol_Feturizer/New_Systems/rnas/2bee

>  <Rbt.Executable>
rbdock ($Id: //depot/dev/client3/rdock/2013.1/src/exe/rbdock.cxx#4 $)

>  <Rbt.Library>
libRbt.so (2013.1, Build901 2013/11/27)

>  <Rbt.Parameter_File>
/export/apps/rDock/src/rDock_2013.1_src/data/scripts/dock_solv.prm

>  <Rbt.Receptor>
prm/pocket_docking_2.prm

>  <SCORE>
-17.6762

>  <SCORE.INTER>
-8.86894

>  <SCORE.INTER.CONST>
1

>  <SCORE.INTER.POLAR>
-0.938083

>  <SCORE.INTER.ROT>
16

>  <SCORE.INTER.SOLV>
16.3709

>  <SCORE.INTER.VDW>
-22.5093

>  <SCORE.INTER.norm>
-0.180999

>  <SCORE.INTRA>
-9.79617

>  <SCORE.INTRA.DIHEDRAL>
-23.4739

>  <SCORE.INTRA.DIHEDRAL.0>
36.0842

>  <SCORE.INTRA.POLAR>
0

>  <SCORE.INTRA.POLAR.0>
0

>  <SCORE.INTRA.REPUL>
0

>  <SCORE.INTRA.REPUL.0>
0

>  <SCORE.INTRA.SOLV>
-1.67648

>  <SCORE.INTRA.SOLV.lig_0>
-126.444

>  <SCORE.INTRA.VDW>
2.77901

>  <SCORE.INTRA.VDW.0>
-7.40469

>  <SCORE.INTRA.norm>
-0.199922

>  <SCORE.RESTR>
0.988864

>  <SCORE.RESTR.CAVITY>
0.988864

>  <SCORE.RESTR.norm>
0.0201809

>  <SCORE.SYSTEM>
0

>  <SCORE.SYSTEM.CONST>
0

>  <SCORE.SYSTEM.DIHEDRAL>
0

>  <SCORE.SYSTEM.SOLV>
0

>  <SCORE.SYSTEM.norm>
0

>  <SCORE.heavy>
49

>  <SCORE.norm>
-0.36074

>  <RMSD>
2.325

$$$$
2bee_lig
 OpenBabel11021811423D
libRbt.so/2013.1/901 2013/11/27
 49 52  0  0  0  0  0  0  0  0999 V2000
   46.9326    6.8041   -8.0456 C   0  0  2  0  0  0  0  0  0  0  0  0
   47.0665    6.9657   -6.6392 O   0  0  0  0  0  0  0  0  0  0  0  0
   48.6971    3.0357   -5.5122 C   0  0  2  0  0  0  0  0  0  0  0  0
   49.3292    1.9742   -4.6825 N   0  0  0  0  0  0  0  0  0  0  0  0
   44.4010    4.5455   -4.7736 C   0  0  1  0  0  0  0  0  0  0  0  0
   42.6796    6.3208   -1.0567 C   0  0  1  0  0  0  0  0  0  0  0  0
   40.3115   -0.7375   -4.0106 C   0  0  0  0  0  0  0  0  0  0  0  0
   46.4467    8.1509   -8.7082 C   0  0  2  0  0  0  0  0  0  0  0  0
   47.3461    9.2404   -8.3437 N   0  0  0  0  0  0  0  0  0  0  0  0
   49.6660    4.3026   -5.5777 C   0  0  0  0  0  0  0  0  0  0  0  0
   43.6727    3.7661   -3.7272 C   0  0  2  0  0  0  0  0  0  0  0  0
   43.0582    2.5344   -4.2522 O   0  0  0  0  0  0  0  0  0  0  0  0
   42.8398    5.4398    0.2958 C   0  0  2  0  0  0  0  0  0  0  0  0
   41.5151    4.8008    0.5956 N   0  0  0  0  0  0  0  0  0  0  0  0
   39.4365   -1.8449   -4.1039 C   0  0  0  0  0  0  0  0  0  0  0  0
   39.7543   -2.9123   -4.9409 N   0  0  0  0  0  0  0  0  0  0  0  0
   44.9509    8.4497   -8.2553 C   0  0  1  0  0  0  0  0  0  0  0  0
   44.5208    9.6607   -8.8600 O   0  0  0  0  0  0  0  0  0  0  0  0
   49.0000    5.4983   -6.4711 C   0  0  2  0  0  0  0  0  0  0  0  0
   49.8609    6.6297   -6.5431 N   0  0  0  0  0  0  0  0  0  0  0  0
   42.8387    4.9119   -3.2072 C   0  0  2  0  0  0  0  0  0  0  0  0
   42.2314    5.3846   -2.0659 O   0  0  0  0  0  0  0  0  0  0  0  0
   43.2732    6.3965    1.4632 C   0  0  1  0  0  0  0  0  0  0  0  0
   44.5789    6.9671    1.1012 O   0  0  0  0  0  0  0  0  0  0  0  0
   44.0500    7.2643   -8.6733 C   0  0  2  0  0  0  0  0  0  0  0  0
   42.6439    7.4958   -8.2548 O   0  0  0  0  0  0  0  0  0  0  0  0
   47.6147    5.9250   -5.8465 C   0  0  2  0  0  0  0  0  0  0  0  0
   42.5202    5.7544   -4.5400 C   0  0  2  0  0  0  0  0  0  0  0  0
   43.6935    5.6704   -5.2112 O   0  0  0  0  0  0  0  0  0  0  0  0
   42.1418    7.5575    1.6520 C   0  0  2  0  0  0  0  0  0  0  0  0
   40.8315    6.9711    2.0137 O   0  0  0  0  0  0  0  0  0  0  0  0
   44.5455    5.9337   -8.0148 C   0  0  2  0  0  0  0  0  0  0  0  0
   45.9185    5.7790   -8.4569 O   0  0  0  0  0  0  0  0  0  0  0  0
   46.7066    4.6499   -5.8021 C   0  0  2  0  0  0  0  0  0  0  0  0
   45.5067    5.1440   -5.2579 O   0  0  0  0  0  0  0  0  0  0  0  0
   42.2092    7.2891   -4.3859 C   0  0  0  0  0  0  0  0  0  0  0  0
   43.4184    7.9889   -3.9526 O   0  0  0  0  0  0  0  0  0  0  0  0
   41.9701    8.3798    0.2980 C   0  0  1  0  0  0  0  0  0  0  0  0
   41.6050    7.3820   -0.7812 O   0  0  0  0  0  0  0  0  0  0  0  0
   43.6483    4.8615   -8.4852 C   0  0  0  0  0  0  0  0  0  0  0  0
   44.0113    3.6832   -7.9606 O   0  0  0  0  0  0  0  0  0  0  0  0
   47.3621    3.5175   -4.9020 C   0  0  1  0  0  0  0  0  0  0  0  0
   46.5486    2.3844   -4.8774 O   0  0  0  0  0  0  0  0  0  0  0  0
   43.7881    1.3043   -4.5997 C   0  0  0  0  0  0  0  0  0  0  0  0
   40.8555    9.4405    0.5903 C   0  0  0  0  0  0  0  0  0  0  0  0
   39.5402    8.8696    0.6434 N   0  0  0  0  0  0  0  0  0  0  0  0
   42.8536    0.3601   -5.3573 C   0  0  0  0  0  0  0  0  0  0  0  0
   42.7898   -0.8914   -4.5776 N   0  0  0  0  0  0  0  0  0  0  0  0
   41.7814   -0.9765   -3.4299 C   0  0  0  0  0  0  0  0  0  0  0  0
  1  2  1  1  0  0  0
  1  8  1  0  0  0  0
  1 33  1  0  0  0  0
  3  4  1  1  0  0  0
  3 10  1  0  0  0  0
  3 42  1  0  0  0  0
  5 11  1  0  0  0  0
  5 29  1  0  0  0  0
  5 35  1  1  0  0  0
  6 13  1  0  0  0  0
  6 39  1  0  0  0  0
  6 22  1  6  0  0  0
  7 15  1  0  0  0  0
  8  9  1  1  0  0  0
  8 17  1  0  0  0  0
 10 19  1  0  0  0  0
 11 12  1  6  0  0  0
 11 21  1  0  0  0  0
 12 44  1  0  0  0  0
 13 14  1  1  0  0  0
 13 23  1  0  0  0  0
 15 16  1  0  0  0  0
 17 18  1  6  0  0  0
 17 25  1  0  0  0  0
 19 20  1  1  0  0  0
 19 27  1  0  0  0  0
 21 22  1  6  0  0  0
 21 28  1  0  0  0  0
 23 24  1  6  0  0  0
 23 30  1  0  0  0  0
 25 26  1  1  0  0  0
 25 32  1  0  0  0  0
 27  2  1  6  0  0  0
 27 34  1  0  0  0  0
 28 29  1  0  0  0  0
 28 36  1  1  0  0  0
 30 31  1  6  0  0  0
 30 38  1  0  0  0  0
 32 33  1  0  0  0  0
 32 40  1  6  0  0  0
 34 35  1  1  0  0  0
 34 42  1  0  0  0  0
 36 37  1  0  0  0  0
 38 39  1  0  0  0  0
 38 45  1  1  0  0  0
 40 41  1  0  0  0  0
 42 43  1  6  0  0  0
 44 47  1  0  0  0  0
 45 46  1  0  0  0  0
 47 48  1  0  0  0  0
 48 49  1  0  0  0  0
 49  7  1  0  0  0  0
M  END
>  <CHROM.1>
-173.90942541,73.04118946,-113.52943466,-63.25819929,74.94033527,-169.03407960
94.47177187,52.38650074,67.83517076,179.99697837,-168.26296809,-74.15450046
-121.13795621,85.20943581,58.75184994,107.27833316,44.11516691,5.07583257
-4.38264929,-0.22489737,0.91525980,0.38308120

>  <Name>
2bee_lig

>  <RI>
3.71943e+07

>  <Rbt.Current_Directory>
/home/itssahil/PROJECTS/Mol_Feturizer/New_Systems/rnas/2bee

>  <Rbt.Executable>
rbdock ($Id: //depot/dev/client3/rdock/2013.1/src/exe/rbdock.cxx#4 $)

>  <Rbt.Library>
libRbt.so (2013.1, Build901 2013/11/27)

>  <Rbt.Parameter_File>
/export/apps/rDock/src/rDock_2013.1_src/data/scripts/dock_solv.prm

>  <Rbt.Receptor>
prm/pocket_docking_2.prm

>  <SCORE>
3.80107

>  <SCORE.INTER>
6.24686

>  <SCORE.INTER.CONST>
1

>  <SCORE.INTER.POLAR>
0

>  <SCORE.INTER.ROT>
16

>  <SCORE.INTER.SOLV>
17.5756

>  <SCORE.INTER.VDW>
-15.9606

>  <SCORE.INTER.norm>
0.127487

>  <SCORE.INTRA>
-4.03227

>  <SCORE.INTRA.DIHEDRAL>
-9.46547

>  <SCORE.INTRA.DIHEDRAL.0>
36.0842

>  <SCORE.INTRA.POLAR>
0

>  <SCORE.INTRA.POLAR.0>
0

>  <SCORE.INTRA.REPUL>
0

>  <SCORE.INTRA.REPUL.0>
0

>  <SCORE.INTRA.SOLV>
1.29672

>  <SCORE.INTRA.SOLV.lig_0>
-126.444

>  <SCORE.INTRA.VDW>
0.0521067

>  <SCORE.INTRA.VDW.0>
-7.40469

>  <SCORE.INTRA.norm>
-0.0822912

>  <SCORE.RESTR>
1.58647

>  <SCORE.RESTR.CAVITY>
1.58647

>  <SCORE.RESTR.norm>
0.032377

>  <SCORE.SYSTEM>
0

>  <SCORE.SYSTEM.CONST>
0

>  <SCORE.SYSTEM.DIHEDRAL>
0

>  <SCORE.SYSTEM.SOLV>
0

>  <SCORE.SYSTEM.norm>
0

>  <SCORE.heavy>
49

>  <SCORE.norm>
0.0775729

>  <RMSD>
2.375

$$$$
2bee_lig
 OpenBabel11021811423D
libRbt.so/2013.1/901 2013/11/27
 49 52  0  0  0  0  0  0  0  0999 V2000
   44.0105    5.1757   -6.7364 C   0  0  2  0  0  0  0  0  0  0  0  0
   45.0522    4.3839   -7.2930 O   0  0  0  0  0  0  0  0  0  0  0  0
   49.0708    3.2148   -5.9297 C   0  0  2  0  0  0  0  0  0  0  0  0
   50.4789    3.3457   -5.4660 N   0  0  0  0  0  0  0  0  0  0  0  0
   44.6525    3.8487   -3.8301 C   0  0  1  0  0  0  0  0  0  0  0  0
   42.3446    5.0153    0.2174 C   0  0  1  0  0  0  0  0  0  0  0  0
   39.0158   -0.6617   -6.1518 C   0  0  0  0  0  0  0  0  0  0  0  0
   42.6345    4.8370   -7.4299 C   0  0  2  0  0  0  0  0  0  0  0  0
   42.3695    3.4050   -7.3422 N   0  0  0  0  0  0  0  0  0  0  0  0
   48.9003    3.9744   -7.3232 C   0  0  0  0  0  0  0  0  0  0  0  0
   44.1374    3.0810   -2.6563 C   0  0  2  0  0  0  0  0  0  0  0  0
   43.1987    2.0113   -3.0368 O   0  0  0  0  0  0  0  0  0  0  0  0
   41.6124    3.5853    0.4410 C   0  0  2  0  0  0  0  0  0  0  0  0
   41.3353    2.9872   -0.9076 N   0  0  0  0  0  0  0  0  0  0  0  0
   39.8866   -1.2460   -7.1011 C   0  0  0  0  0  0  0  0  0  0  0  0
   40.1572   -2.6115   -7.0470 N   0  0  0  0  0  0  0  0  0  0  0  0
   42.6709    5.3347   -8.9408 C   0  0  1  0  0  0  0  0  0  0  0  0
   41.4272    5.0299   -9.5552 O   0  0  0  0  0  0  0  0  0  0  0  0
   47.3606    3.8649   -7.8606 C   0  0  2  0  0  0  0  0  0  0  0  0
   47.2005    4.5319   -9.1079 N   0  0  0  0  0  0  0  0  0  0  0  0
   43.6952    4.2768   -1.8480 C   0  0  2  0  0  0  0  0  0  0  0  0
   43.5328    4.7143   -0.5529 O   0  0  0  0  0  0  0  0  0  0  0  0
   40.2750    3.8296    1.2270 C   0  0  1  0  0  0  0  0  0  0  0  0
   40.6322    4.3989    2.5346 O   0  0  0  0  0  0  0  0  0  0  0  0
   42.9497    6.8556   -8.9653 C   0  0  2  0  0  0  0  0  0  0  0  0
   43.0075    7.3599  -10.3611 O   0  0  0  0  0  0  0  0  0  0  0  0
   46.3765    4.4885   -6.7957 C   0  0  2  0  0  0  0  0  0  0  0  0
   43.1519    5.2877   -2.9752 C   0  0  2  0  0  0  0  0  0  0  0  0
   44.0492    5.1030   -3.9726 O   0  0  0  0  0  0  0  0  0  0  0  0
   39.3274    4.8440    0.3687 C   0  0  2  0  0  0  0  0  0  0  0  0
   38.9766    4.2614   -0.9462 O   0  0  0  0  0  0  0  0  0  0  0  0
   44.3139    7.1793   -8.2695 C   0  0  2  0  0  0  0  0  0  0  0  0
   44.1884    6.6528   -6.9236 O   0  0  0  0  0  0  0  0  0  0  0  0
   46.5857    3.7128   -5.4515 C   0  0  2  0  0  0  0  0  0  0  0  0
   45.6554    4.3266   -4.5926 O   0  0  0  0  0  0  0  0  0  0  0  0
   43.1625    6.8276   -2.6521 C   0  0  0  0  0  0  0  0  0  0  0  0
   44.5320    7.2550   -2.3672 O   0  0  0  0  0  0  0  0  0  0  0  0
   40.0847    6.2243    0.1232 C   0  0  1  0  0  0  0  0  0  0  0  0
   41.3803    5.8964   -0.5892 O   0  0  0  0  0  0  0  0  0  0  0  0
   44.4841    8.6437   -8.3183 C   0  0  0  0  0  0  0  0  0  0  0  0
   45.1856    9.0692   -7.2590 O   0  0  0  0  0  0  0  0  0  0  0  0
   48.0806    3.8628   -4.9365 C   0  0  1  0  0  0  0  0  0  0  0  0
   48.2566    3.1607   -3.7439 O   0  0  0  0  0  0  0  0  0  0  0  0
   41.9568    2.2061   -3.8028 C   0  0  0  0  0  0  0  0  0  0  0  0
   39.0968    7.1002   -0.7194 C   0  0  0  0  0  0  0  0  0  0  0  0
   39.4812    8.4814   -0.7740 N   0  0  0  0  0  0  0  0  0  0  0  0
   40.9362    1.1455   -3.3873 C   0  0  0  0  0  0  0  0  0  0  0  0
   40.7704    0.2399   -4.5407 N   0  0  0  0  0  0  0  0  0  0  0  0
   39.4895   -0.5927   -4.6267 C   0  0  0  0  0  0  0  0  0  0  0  0
  1  2  1  6  0  0  0
  1  8  1  0  0  0  0
  1 33  1  0  0  0  0
  3  4  1  1  0  0  0
  3 10  1  0  0  0  0
  3 42  1  0  0  0  0
  5 11  1  0  0  0  0
  5 29  1  0  0  0  0
  5 35  1  1  0  0  0
  6 13  1  0  0  0  0
  6 39  1  0  0  0  0
  6 22  1  6  0  0  0
  7 15  1  0  0  0  0
  8  9  1  6  0  0  0
  8 17  1  0  0  0  0
 10 19  1  0  0  0  0
 11 12  1  6  0  0  0
 11 21  1  0  0  0  0
 12 44  1  0  0  0  0
 13 14  1  6  0  0  0
 13 23  1  0  0  0  0
 15 16  1  0  0  0  0
 17 18  1  1  0  0  0
 17 25  1  0  0  0  0
 19 20  1  6  0  0  0
 19 27  1  0  0  0  0
 21 22  1  1  0  0  0
 21 28  1  0  0  0  0
 23 24  1  1  0  0  0
 23 30  1  0  0  0  0
 25 26  1  6  0  0  0
 25 32  1  0  0  0  0
 27  2  1  6  0  0  0
 27 34  1  0  0  0  0
 28 29  1  0  0  0  0
 28 36  1  1  0  0  0
 30 31  1  6  0  0  0
 30 38  1  0  0  0  0
 32 33  1  0  0  0  0
 32 40  1  1  0  0  0
 34 35  1  1  0  0  0
 34 42  1  0  0  0  0
 36 37  1  0  0  0  0
 38 39  1  0  0  0  0
 38 45  1  6  0  0  0
 40 41  1  0  0  0  0
 42 43  1  1  0  0  0
 44 47  1  0  0  0  0
 45 46  1  0  0  0  0
 47 48  1  0  0  0  0
 48 49  1  0  0  0  0
 49  7  1  0  0  0  0
M  END
>  <CHROM.1>
-178.12920802,69.51958147,68.04916549,67.70017125,-56.95875293,-150.03959365
-111.19721585,-162.57746836,59.33485966,149.41805251,125.31584479,166.50381759
-111.09034113,-158.34669122,141.45022062,60.66159957,43.28130921,4.31271497
-4.44830755,0.64580608,-0.72028928,-2.15436241

>  <Name>
2bee_lig

>  <RI>
2.18182e+07

>  <Rbt.Current_Directory>
/home/itssahil/PROJECTS/Mol_Feturizer/New_Systems/rnas/2bee

>  <Rbt.Executable>
rbdock ($Id: //depot/dev/client3/rdock/2013.1/src/exe/rbdock.cxx#4 $)

>  <Rbt.Library>
libRbt.so (2013.1, Build901 2013/11/27)

>  <Rbt.Parameter_File>
/export/apps/rDock/src/rDock_2013.1_src/data/scripts/dock_solv.prm

>  <Rbt.Receptor>
prm/pocket_docking_3.prm

>  <SCORE>
-8.11844

>  <SCORE.INTER>
-4.93678

>  <SCORE.INTER.CONST>
1

>  <SCORE.INTER.POLAR>
-1.89656

>  <SCORE.INTER.ROT>
16

>  <SCORE.INTER.SOLV>
10.4264

>  <SCORE.INTER.VDW>
-14.7114

>  <SCORE.INTER.norm>
-0.100751

>  <SCORE.INTRA>
-3.19555

>  <SCORE.INTRA.DIHEDRAL>
-9.44493

>  <SCORE.INTRA.DIHEDRAL.0>
36.0842

>  <SCORE.INTRA.POLAR>
0

>  <SCORE.INTRA.POLAR.0>
0

>  <SCORE.INTRA.REPUL>
0

>  <SCORE.INTRA.REPUL.0>
0

>  <SCORE.INTRA.SOLV>
1.81331

>  <SCORE.INTRA.SOLV.lig_0>
-126.444

>  <SCORE.INTRA.VDW>
0.620261

>  <SCORE.INTRA.VDW.0>
-7.40469

>  <SCORE.INTRA.norm>
-0.0652153

>  <SCORE.RESTR>
0.01389

>  <SCORE.RESTR.CAVITY>
0.01389

>  <SCORE.RESTR.norm>
0.000283468

>  <SCORE.SYSTEM>
0

>  <SCORE.SYSTEM.CONST>
0

>  <SCORE.SYSTEM.DIHEDRAL>
0

>  <SCORE.SYSTEM.SOLV>
0

>  <SCORE.SYSTEM.norm>
0

>  <SCORE.heavy>
49

>  <SCORE.norm>
-0.165682

>  <RMSD>
2.416

$$$$
2bee_lig
 OpenBabel11021811423D
libRbt.so/2013.1/901 2013/11/27
 49 52  0  0  0  0  0  0  0  0999 V2000
   45.0253    7.5804   -7.7625 C   0  0  2  0  0  0  0  0  0  0  0  0
   46.1096    6.7805   -8.2171 O   0  0  0  0  0  0  0  0  0  0  0  0
   48.9524    4.1238   -6.1592 C   0  0  2  0  0  0  0  0  0  0  0  0
   50.0394    3.6880   -5.2408 N   0  0  0  0  0  0  0  0  0  0  0  0
   44.8261    5.4176   -4.6075 C   0  0  1  0  0  0  0  0  0  0  0  0
   41.4604    7.2946   -1.7386 C   0  0  1  0  0  0  0  0  0  0  0  0
   43.3509    0.1385   -3.8229 C   0  0  0  0  0  0  0  0  0  0  0  0
   43.8192    7.4955   -8.7760 C   0  0  2  0  0  0  0  0  0  0  0  0
   43.4462    6.1020   -8.9937 N   0  0  0  0  0  0  0  0  0  0  0  0
   49.5013    5.2744   -7.1197 C   0  0  0  0  0  0  0  0  0  0  0  0
   44.6014    5.4592   -3.1309 C   0  0  2  0  0  0  0  0  0  0  0  0
   44.5539    4.1198   -2.5193 O   0  0  0  0  0  0  0  0  0  0  0  0
   41.2331    8.8128   -1.2148 C   0  0  2  0  0  0  0  0  0  0  0  0
   42.4005    9.1870   -0.3486 N   0  0  0  0  0  0  0  0  0  0  0  0
   43.1778   -1.0800   -4.5202 C   0  0  0  0  0  0  0  0  0  0  0  0
   42.6096   -1.0773   -5.7921 N   0  0  0  0  0  0  0  0  0  0  0  0
   44.2251    8.2129  -10.1371 C   0  0  1  0  0  0  0  0  0  0  0  0
   43.1323    8.1357  -11.0409 O   0  0  0  0  0  0  0  0  0  0  0  0
   48.3307    5.7905   -8.1370 C   0  0  2  0  0  0  0  0  0  0  0  0
   48.8134    6.8109   -9.0043 N   0  0  0  0  0  0  0  0  0  0  0  0
   43.3913    6.3610   -3.1654 C   0  0  2  0  0  0  0  0  0  0  0  0
   42.7298    7.3217   -2.4343 O   0  0  0  0  0  0  0  0  0  0  0  0
   39.8943    8.8601   -0.3953 C   0  0  1  0  0  0  0  0  0  0  0  0
   38.8047    8.4979   -1.3135 O   0  0  0  0  0  0  0  0  0  0  0  0
   44.6035    9.6827   -9.8404 C   0  0  2  0  0  0  0  0  0  0  0  0
   45.0048   10.3867  -11.0850 O   0  0  0  0  0  0  0  0  0  0  0  0
   47.1035    6.3359   -7.3079 C   0  0  2  0  0  0  0  0  0  0  0  0
   42.6299    5.8849   -4.5000 C   0  0  2  0  0  0  0  0  0  0  0  0
   43.6629    5.6599   -5.3463 O   0  0  0  0  0  0  0  0  0  0  0  0
   39.9960    7.8184    0.8569 C   0  0  2  0  0  0  0  0  0  0  0  0
   41.0976    8.1916    1.7727 O   0  0  0  0  0  0  0  0  0  0  0  0
   45.7965    9.7537   -8.8297 C   0  0  2  0  0  0  0  0  0  0  0  0
   45.3390    9.0424   -7.6511 O   0  0  0  0  0  0  0  0  0  0  0  0
   46.6071    5.1735   -6.3832 C   0  0  2  0  0  0  0  0  0  0  0  0
   45.5125    5.7547   -5.7169 O   0  0  0  0  0  0  0  0  0  0  0  0
   41.6870    6.9184   -5.2200 C   0  0  0  0  0  0  0  0  0  0  0  0
   42.4793    7.7501   -6.1257 O   0  0  0  0  0  0  0  0  0  0  0  0
   40.2641    6.3421    0.3203 C   0  0  1  0  0  0  0  0  0  0  0  0
   41.5376    6.3942   -0.4977 O   0  0  0  0  0  0  0  0  0  0  0  0
   46.0710   11.1828   -8.5888 C   0  0  0  0  0  0  0  0  0  0  0  0
   47.3911   11.4121   -8.5853 O   0  0  0  0  0  0  0  0  0  0  0  0
   47.7534    4.7144   -5.3843 C   0  0  1  0  0  0  0  0  0  0  0  0
   47.3023    3.6733   -4.5724 O   0  0  0  0  0  0  0  0  0  0  0  0
   43.7650    3.7582   -1.3302 C   0  0  0  0  0  0  0  0  0  0  0  0
   40.3629    5.4430    1.5990 C   0  0  0  0  0  0  0  0  0  0  0  0
   39.1791    5.4898    2.4084 N   0  0  0  0  0  0  0  0  0  0  0  0
   43.3336    2.2948   -1.4370 C   0  0  0  0  0  0  0  0  0  0  0  0
   42.4545    2.1957   -2.6183 N   0  0  0  0  0  0  0  0  0  0  0  0
   42.0764    0.8012   -3.1221 C   0  0  0  0  0  0  0  0  0  0  0  0
  1  2  1  6  0  0  0
  1  8  1  0  0  0  0
  1 33  1  0  0  0  0
  3  4  1  1  0  0  0
  3 10  1  0  0  0  0
  3 42  1  0  0  0  0
  5 11  1  0  0  0  0
  5 29  1  0  0  0  0
  5 35  1  1  0  0  0
  6 13  1  0  0  0  0
  6 39  1  0  0  0  0
  6 22  1  1  0  0  0
  7 15  1  0  0  0  0
  8  9  1  6  0  0  0
  8 17  1  0  0  0  0
 10 19  1  0  0  0  0
 11 12  1  6  0  0  0
 11 21  1  0  0  0  0
 12 44  1  0  0  0  0
 13 14  1  1  0  0  0
 13 23  1  0  0  0  0
 15 16  1  0  0  0  0
 17 18  1  6  0  0  0
 17 25  1  0  0  0  0
 19 20  1  6  0  0  0
 19 27  1  0  0  0  0
 21 22  1  1  0  0  0
 21 28  1  0  0  0  0
 23 24  1  6  0  0  0
 23 30  1  0  0  0  0
 25 26  1  6  0  0  0
 25 32  1  0  0  0  0
 27  2  1  6  0  0  0
 27 34  1  0  0  0  0
 28 29  1  0  0  0  0
 28 36  1  6  0  0  0
 30 31  1  1  0  0  0
 30 38  1  0  0  0  0
 32 33  1  0  0  0  0
 32 40  1  1  0  0  0
 34 35  1  1  0  0  0
 34 42  1  0  0  0  0
 36 37  1  0  0  0  0
 38 39  1  0  0  0  0
 38 45  1  1  0  0  0
 40 41  1  0  0  0  0
 42 43  1  1  0  0  0
 44 47  1  0  0  0  0
 45 46  1  0  0  0  0
 47 48  1  0  0  0  0
 48 49  1  0  0  0  0
 49  7  1  0  0  0  0
M  END
>  <CHROM.1>
-158.92440210,88.86774464,-174.63350933,77.67108462,-149.32937771,148.79224560
-109.95156387,-166.32876042,85.40508537,-137.29334566,-163.48569401,58.52876672
-63.31997621,168.99062479,-72.57467556,-171.60136521,44.01864597,6.17815532
-4.76127254,0.60641688,0.88216267,-0.48615387

>  <Name>
2bee_lig

>  <RI>
3.71943e+07

>  <Rbt.Current_Directory>
/home/itssahil/PROJECTS/Mol_Feturizer/New_Systems/rnas/2bee

>  <Rbt.Executable>
rbdock ($Id: //depot/dev/client3/rdock/2013.1/src/exe/rbdock.cxx#4 $)

>  <Rbt.Library>
libRbt.so (2013.1, Build901 2013/11/27)

>  <Rbt.Parameter_File>
/export/apps/rDock/src/rDock_2013.1_src/data/scripts/dock_solv.prm

>  <Rbt.Receptor>
prm/pocket_docking_2.prm

>  <SCORE>
-12.653

>  <SCORE.INTER>
-10.3077

>  <SCORE.INTER.CONST>
1

>  <SCORE.INTER.POLAR>
-0.938083

>  <SCORE.INTER.ROT>
16

>  <SCORE.INTER.SOLV>
17.3031

>  <SCORE.INTER.VDW>
-23.7792

>  <SCORE.INTER.norm>
-0.210361

>  <SCORE.INTRA>
-4.4664

>  <SCORE.INTRA.DIHEDRAL>
-10.2089

>  <SCORE.INTRA.DIHEDRAL.0>
36.0842

>  <SCORE.INTRA.POLAR>
0

>  <SCORE.INTRA.POLAR.0>
0

>  <SCORE.INTRA.REPUL>
0.00927663

>  <SCORE.INTRA.REPUL.0>
0

>  <SCORE.INTRA.SOLV>
-0.795509

>  <SCORE.INTRA.SOLV.lig_0>
-126.444

>  <SCORE.INTRA.VDW>
0.989401

>  <SCORE.INTRA.VDW.0>
-7.40469

>  <SCORE.INTRA.norm>
-0.091151

>  <SCORE.RESTR>
2.12106

>  <SCORE.RESTR.CAVITY>
2.12106

>  <SCORE.RESTR.norm>
0.0432869

>  <SCORE.SYSTEM>
0

>  <SCORE.SYSTEM.CONST>
0

>  <SCORE.SYSTEM.DIHEDRAL>
0

>  <SCORE.SYSTEM.SOLV>
0

>  <SCORE.SYSTEM.norm>
0

>  <SCORE.heavy>
49

>  <SCORE.norm>
-0.258225

>  <RMSD>
2.472

$$$$
2bee_lig
 OpenBabel11021811423D
libRbt.so/2013.1/901 2013/11/27
 49 52  0  0  0  0  0  0  0  0999 V2000
   44.4059    7.3417   -7.5123 C   0  0  2  0  0  0  0  0  0  0  0  0
   45.3709    6.3697   -7.8945 O   0  0  0  0  0  0  0  0  0  0  0  0
   48.4918    3.8623   -6.0648 C   0  0  2  0  0  0  0  0  0  0  0  0
   49.5277    3.4104   -5.0966 N   0  0  0  0  0  0  0  0  0  0  0  0
   44.3000    4.6880   -4.6113 C   0  0  1  0  0  0  0  0  0  0  0  0
   40.9471    7.0526   -2.1083 C   0  0  1  0  0  0  0  0  0  0  0  0
   40.9438   -0.3008   -2.5018 C   0  0  0  0  0  0  0  0  0  0  0  0
   43.2338    7.3945   -8.5670 C   0  0  2  0  0  0  0  0  0  0  0  0
   42.6616    6.0644   -8.7457 N   0  0  0  0  0  0  0  0  0  0  0  0
   48.8611    5.3235   -6.5906 C   0  0  0  0  0  0  0  0  0  0  0  0
   44.2517    5.3812   -3.2885 C   0  0  2  0  0  0  0  0  0  0  0  0
   44.6413    4.5079   -2.1679 O   0  0  0  0  0  0  0  0  0  0  0  0
   40.6085    8.6344   -1.9889 C   0  0  2  0  0  0  0  0  0  0  0  0
   41.8530    9.3455   -1.5430 N   0  0  0  0  0  0  0  0  0  0  0  0
   39.8296   -0.8808   -3.1522 C   0  0  0  0  0  0  0  0  0  0  0  0
   39.5964   -0.6150   -4.4997 N   0  0  0  0  0  0  0  0  0  0  0  0
   43.7866    7.9835   -9.9380 C   0  0  1  0  0  0  0  0  0  0  0  0
   42.7241    8.0316  -10.8792 O   0  0  0  0  0  0  0  0  0  0  0  0
   47.7377    5.8620   -7.6487 C   0  0  2  0  0  0  0  0  0  0  0  0
   48.0632    7.1614   -8.1304 N   0  0  0  0  0  0  0  0  0  0  0  0
   42.8482    5.9197   -3.4265 C   0  0  2  0  0  0  0  0  0  0  0  0
   42.0450    6.9718   -3.0485 O   0  0  0  0  0  0  0  0  0  0  0  0
   39.4559    8.8177   -0.9381 C   0  0  1  0  0  0  0  0  0  0  0  0
   38.2755    8.1087   -1.4534 O   0  0  0  0  0  0  0  0  0  0  0  0
   44.3731    9.3915   -9.6831 C   0  0  2  0  0  0  0  0  0  0  0  0
   44.9157    9.9730  -10.9375 O   0  0  0  0  0  0  0  0  0  0  0  0
   46.3205    5.8934   -6.9546 C   0  0  2  0  0  0  0  0  0  0  0  0
   42.0886    4.7380   -4.2103 C   0  0  2  0  0  0  0  0  0  0  0  0
   43.0345    4.3334   -5.0911 O   0  0  0  0  0  0  0  0  0  0  0  0
   39.9402    8.2133    0.4984 C   0  0  2  0  0  0  0  0  0  0  0  0
   41.1302    8.9329    1.0057 O   0  0  0  0  0  0  0  0  0  0  0  0
   45.5303    9.3268   -8.6312 C   0  0  2  0  0  0  0  0  0  0  0  0
   44.9332    8.7438   -7.4447 O   0  0  0  0  0  0  0  0  0  0  0  0
   46.0091    4.4419   -6.4559 C   0  0  2  0  0  0  0  0  0  0  0  0
   44.7313    4.5795   -5.8832 O   0  0  0  0  0  0  0  0  0  0  0  0
   40.8224    5.1146   -5.0650 C   0  0  0  0  0  0  0  0  0  0  0  0
   39.7297    5.4985   -4.1717 O   0  0  0  0  0  0  0  0  0  0  0  0
   40.3100    6.6708    0.3465 C   0  0  1  0  0  0  0  0  0  0  0  0
   41.3852    6.5771   -0.7159 O   0  0  0  0  0  0  0  0  0  0  0  0
   46.0097   10.7078   -8.4345 C   0  0  0  0  0  0  0  0  0  0  0  0
   45.0400   11.4702   -7.9113 O   0  0  0  0  0  0  0  0  0  0  0  0
   47.0976    3.9571   -5.4059 C   0  0  1  0  0  0  0  0  0  0  0  0
   46.8145    2.6604   -4.9760 O   0  0  0  0  0  0  0  0  0  0  0  0
   44.1983    3.1162   -1.9839 C   0  0  0  0  0  0  0  0  0  0  0  0
   40.7761    6.2096    1.7689 C   0  0  0  0  0  0  0  0  0  0  0  0
   39.7056    6.1728    2.7236 N   0  0  0  0  0  0  0  0  0  0  0  0
   42.6990    3.0997   -1.6825 C   0  0  0  0  0  0  0  0  0  0  0  0
   42.2893    1.6825   -1.6399 N   0  0  0  0  0  0  0  0  0  0  0  0
   40.9816    1.2878   -2.3294 C   0  0  0  0  0  0  0  0  0  0  0  0
  1  2  1  6  0  0  0
  1  8  1  0  0  0  0
  1 33  1  0  0  0  0
  3  4  1  1  0  0  0
  3 10  1  0  0  0  0
  3 42  1  0  0  0  0
  5 11  1  0  0  0  0
  5 29  1  0  0  0  0
  5 35  1  6  0  0  0
  6 13  1  0  0  0  0
  6 39  1  0  0  0  0
  6 22  1  6  0  0  0
  7 15  1  0  0  0  0
  8  9  1  6  0  0  0
  8 17  1  0  0  0  0
 10 19  1  0  0  0  0
 11 12  1  1  0  0  0
 11 21  1  0  0  0  0
 12 44  1  0  0  0  0
 13 14  1  1  0  0  0
 13 23  1  0  0  0  0
 15 16  1  0  0  0  0
 17 18  1  6  0  0  0
 17 25  1  0  0  0  0
 19 20  1  1  0  0  0
 19 27  1  0  0  0  0
 21 22  1  1  0  0  0
 21 28  1  0  0  0  0
 23 24  1  6  0  0  0
 23 30  1  0  0  0  0
 25 26  1  6  0  0  0
 25 32  1  0  0  0  0
 27  2  1  6  0  0  0
 27 34  1  0  0  0  0
 28 29  1  0  0  0  0
 28 36  1  6  0  0  0
 30 31  1  6  0  0  0
 30 38  1  0  0  0  0
 32 33  1  0  0  0  0
 32 40  1  1  0  0  0
 34 35  1  1  0  0  0
 34 42  1  0  0  0  0
 36 37  1  0  0  0  0
 38 39  1  0  0  0  0
 38 45  1  1  0  0  0
 40 41  1  0  0  0  0
 42 43  1  6  0  0  0
 44 47  1  0  0  0  0
 45 46  1  0  0  0  0
 47 48  1  0  0  0  0
 48 49  1  0  0  0  0
 49  7  1  0  0  0  0
M  END
>  <CHROM.1>
-163.56672716,60.59566418,171.53585571,65.32367521,-43.86237497,-67.69208392
-107.96246841,-135.23816962,-69.37268217,63.64201355,-101.30006134,69.13438425
174.58239744,-136.83897807,164.74872212,-178.38559240,43.35594353,5.92345914
-4.60032577,0.58747769,0.86096778,-0.39896344

>  <Name>
2bee_lig

>  <RI>
2.18182e+07

>  <Rbt.Current_Directory>
/home/itssahil/PROJECTS/Mol_Feturizer/New_Systems/rnas/2bee

>  <Rbt.Executable>
rbdock ($Id: //depot/dev/client3/rdock/2013.1/src/exe/rbdock.cxx#4 $)

>  <Rbt.Library>
libRbt.so (2013.1, Build901 2013/11/27)

>  <Rbt.Parameter_File>
/export/apps/rDock/src/rDock_2013.1_src/data/scripts/dock_solv.prm

>  <Rbt.Receptor>
prm/pocket_docking_3.prm

>  <SCORE>
-14.5579

>  <SCORE.INTER>
-7.43596

>  <SCORE.INTER.CONST>
1

>  <SCORE.INTER.POLAR>
-0.935543

>  <SCORE.INTER.ROT>
16

>  <SCORE.INTER.SOLV>
16.8173

>  <SCORE.INTER.VDW>
-21.7113

>  <SCORE.INTER.norm>
-0.151754

>  <SCORE.INTRA>
-7.12191

>  <SCORE.INTRA.DIHEDRAL>
-15.2485

>  <SCORE.INTRA.DIHEDRAL.0>
36.0842

>  <SCORE.INTRA.POLAR>
0

>  <SCORE.INTRA.POLAR.0>
0

>  <SCORE.INTRA.REPUL>
0

>  <SCORE.INTRA.REPUL.0>
0

>  <SCORE.INTRA.SOLV>
-0.93124

>  <SCORE.INTRA.SOLV.lig_0>
-126.444

>  <SCORE.INTRA.VDW>
0.96796

>  <SCORE.INTRA.VDW.0>
-7.40469

>  <SCORE.INTRA.norm>
-0.145345

>  <SCORE.RESTR>
0

>  <SCORE.RESTR.CAVITY>
0

>  <SCORE.RESTR.norm>
0

>  <SCORE.SYSTEM>
0

>  <SCORE.SYSTEM.CONST>
0

>  <SCORE.SYSTEM.DIHEDRAL>
0

>  <SCORE.SYSTEM.SOLV>
0

>  <SCORE.SYSTEM.norm>
0

>  <SCORE.heavy>
49

>  <SCORE.norm>
-0.297099

>  <RMSD>
2.475

$$$$
2bee_lig
 OpenBabel11021811423D
libRbt.so/2013.1/901 2013/11/27
 49 52  0  0  0  0  0  0  0  0999 V2000
   44.9093    7.7319   -7.7071 C   0  0  2  0  0  0  0  0  0  0  0  0
   46.0204    6.9499   -8.1269 O   0  0  0  0  0  0  0  0  0  0  0  0
   49.2586    4.8801   -5.9811 C   0  0  2  0  0  0  0  0  0  0  0  0
   50.4445    4.6786   -5.1050 N   0  0  0  0  0  0  0  0  0  0  0  0
   44.8664    5.7490   -4.5314 C   0  0  1  0  0  0  0  0  0  0  0  0
   40.6595    6.8073   -2.6631 C   0  0  1  0  0  0  0  0  0  0  0  0
   42.3943    0.6583   -4.1262 C   0  0  0  0  0  0  0  0  0  0  0  0
   43.7416    7.6364   -8.7635 C   0  0  2  0  0  0  0  0  0  0  0  0
   43.3962    6.2391   -9.0022 N   0  0  0  0  0  0  0  0  0  0  0  0
   49.6177    5.9370   -7.1222 C   0  0  0  0  0  0  0  0  0  0  0  0
   44.0582    5.9096   -3.2850 C   0  0  2  0  0  0  0  0  0  0  0  0
   44.3964    4.9179   -2.2494 O   0  0  0  0  0  0  0  0  0  0  0  0
   41.1727    8.2924   -2.2606 C   0  0  2  0  0  0  0  0  0  0  0  0
   42.6523    8.2245   -2.0170 N   0  0  0  0  0  0  0  0  0  0  0  0
   41.8982   -0.5503   -4.6685 C   0  0  0  0  0  0  0  0  0  0  0  0
   41.1773   -1.4286   -3.8626 N   0  0  0  0  0  0  0  0  0  0  0  0
   44.1856    8.3676  -10.1053 C   0  0  1  0  0  0  0  0  0  0  0  0
   43.1270    8.2806  -11.0480 O   0  0  0  0  0  0  0  0  0  0  0  0
   48.3337    6.1963   -8.0997 C   0  0  2  0  0  0  0  0  0  0  0  0
   48.6470    7.1311   -9.1265 N   0  0  0  0  0  0  0  0  0  0  0  0
   42.7064    5.9286   -3.9567 C   0  0  2  0  0  0  0  0  0  0  0  0
   41.4359    6.4431   -3.8294 O   0  0  0  0  0  0  0  0  0  0  0  0
   40.4150    8.7446   -0.9615 C   0  0  1  0  0  0  0  0  0  0  0  0
   38.9821    8.8004   -1.2862 O   0  0  0  0  0  0  0  0  0  0  0  0
   44.5323    9.8406   -9.7870 C   0  0  2  0  0  0  0  0  0  0  0  0
   44.9679   10.5577  -11.0126 O   0  0  0  0  0  0  0  0  0  0  0  0
   47.1143    6.7295   -7.2512 C   0  0  2  0  0  0  0  0  0  0  0  0
   42.8919    4.8781   -5.1607 C   0  0  2  0  0  0  0  0  0  0  0  0
   44.1538    5.1452   -5.5731 O   0  0  0  0  0  0  0  0  0  0  0  0
   40.7188    7.6767    0.2346 C   0  0  2  0  0  0  0  0  0  0  0  0
   42.1641    7.6274    0.5508 O   0  0  0  0  0  0  0  0  0  0  0  0
   45.6874    9.9221   -8.7339 C   0  0  2  0  0  0  0  0  0  0  0  0
   45.1982    9.1974   -7.5764 O   0  0  0  0  0  0  0  0  0  0  0  0
   46.8062    5.6613   -6.1483 C   0  0  2  0  0  0  0  0  0  0  0  0
   45.7036    6.2203   -5.4761 O   0  0  0  0  0  0  0  0  0  0  0  0
   41.9712    5.0369   -6.4267 C   0  0  0  0  0  0  0  0  0  0  0  0
   42.4904    4.2055   -7.5125 O   0  0  0  0  0  0  0  0  0  0  0  0
   40.2476    6.2181   -0.2012 C   0  0  1  0  0  0  0  0  0  0  0  0
   40.9821    5.8812   -1.4820 O   0  0  0  0  0  0  0  0  0  0  0  0
   45.9328   11.3534   -8.4754 C   0  0  0  0  0  0  0  0  0  0  0  0
   46.8134   11.8445   -9.3578 O   0  0  0  0  0  0  0  0  0  0  0  0
   48.0588    5.4532   -5.1943 C   0  0  1  0  0  0  0  0  0  0  0  0
   47.7753    4.4937   -4.2221 O   0  0  0  0  0  0  0  0  0  0  0  0
   44.3384    3.4573   -2.4231 C   0  0  0  0  0  0  0  0  0  0  0  0
   40.6053    5.2846    1.0045 C   0  0  0  0  0  0  0  0  0  0  0  0
   40.2982    3.9055    0.7543 N   0  0  0  0  0  0  0  0  0  0  0  0
   42.9529    2.9553   -2.0142 C   0  0  0  0  0  0  0  0  0  0  0  0
   42.1040    3.0207   -3.2197 N   0  0  0  0  0  0  0  0  0  0  0  0
   41.3443    1.7598   -3.6372 C   0  0  0  0  0  0  0  0  0  0  0  0
  1  2  1  6  0  0  0
  1  8  1  0  0  0  0
  1 33  1  0  0  0  0
  3  4  1  1  0  0  0
  3 10  1  0  0  0  0
  3 42  1  0  0  0  0
  5 11  1  0  0  0  0
  5 29  1  0  0  0  0
  5 35  1  6  0  0  0
  6 13  1  0  0  0  0
  6 39  1  0  0  0  0
  6 22  1  6  0  0  0
  7 15  1  0  0  0  0
  8  9  1  6  0  0  0
  8 17  1  0  0  0  0
 10 19  1  0  0  0  0
 11 12  1  1  0  0  0
 11 21  1  0  0  0  0
 12 44  1  0  0  0  0
 13 14  1  1  0  0  0
 13 23  1  0  0  0  0
 15 16  1  0  0  0  0
 17 18  1  6  0  0  0
 17 25  1  0  0  0  0
 19 20  1  6  0  0  0
 19 27  1  0  0  0  0
 21 22  1  1  0  0  0
 21 28  1  0  0  0  0
 23 24  1  6  0  0  0
 23 30  1  0  0  0  0
 25 26  1  6  0  0  0
 25 32  1  0  0  0  0
 27  2  1  6  0  0  0
 27 34  1  0  0  0  0
 28 29  1  0  0  0  0
 28 36  1  6  0  0  0
 30 31  1  6  0  0  0
 30 38  1  0  0  0  0
 32 33  1  0  0  0  0
 32 40  1  1  0  0  0
 34 35  1  1  0  0  0
 34 42  1  0  0  0  0
 36 37  1  0  0  0  0
 38 39  1  0  0  0  0
 38 45  1  1  0  0  0
 40 41  1  0  0  0  0
 42 43  1  1  0  0  0
 44 47  1  0  0  0  0
 45 46  1  0  0  0  0
 47 48  1  0  0  0  0
 48 49  1  0  0  0  0
 49  7  1  0  0  0  0
M  END
>  <CHROM.1>
-171.07143935,139.88596928,82.06887602,-65.22215423,-57.15547590,-90.81208587
-29.52254050,-164.36858962,167.05275277,-87.38844124,171.36909198,-177.40298252
88.73063268,127.28063674,-68.02830336,-174.60246328,43.95529765,6.15843574
-5.08036649,0.73047787,0.77349606,-0.44925429

>  <Name>
2bee_lig

>  <RI>
3.71943e+07

>  <Rbt.Current_Directory>
/home/itssahil/PROJECTS/Mol_Feturizer/New_Systems/rnas/2bee

>  <Rbt.Executable>
rbdock ($Id: //depot/dev/client3/rdock/2013.1/src/exe/rbdock.cxx#4 $)

>  <Rbt.Library>
libRbt.so (2013.1, Build901 2013/11/27)

>  <Rbt.Parameter_File>
/export/apps/rDock/src/rDock_2013.1_src/data/scripts/dock_solv.prm

>  <Rbt.Receptor>
prm/pocket_docking_2.prm

>  <SCORE>
-13.814

>  <SCORE.INTER>
-9.7417

>  <SCORE.INTER.CONST>
1

>  <SCORE.INTER.POLAR>
-0.938083

>  <SCORE.INTER.ROT>
16

>  <SCORE.INTER.SOLV>
18.278

>  <SCORE.INTER.VDW>
-23.7268

>  <SCORE.INTER.norm>
-0.19881

>  <SCORE.INTRA>
-4.65391

>  <SCORE.INTRA.DIHEDRAL>
-12.5259

>  <SCORE.INTRA.DIHEDRAL.0>
36.0842

>  <SCORE.INTRA.POLAR>
0

>  <SCORE.INTRA.POLAR.0>
0

>  <SCORE.INTRA.REPUL>
0

>  <SCORE.INTRA.REPUL.0>
0

>  <SCORE.INTRA.SOLV>
3.92055

>  <SCORE.INTRA.SOLV.lig_0>
-126.444

>  <SCORE.INTRA.VDW>
-0.35124

>  <SCORE.INTRA.VDW.0>
-7.40469

>  <SCORE.INTRA.norm>
-0.0949778

>  <SCORE.RESTR>
0.581631

>  <SCORE.RESTR.CAVITY>
0.581631

>  <SCORE.RESTR.norm>
0.01187

>  <SCORE.SYSTEM>
0

>  <SCORE.SYSTEM.CONST>
0

>  <SCORE.SYSTEM.DIHEDRAL>
0

>  <SCORE.SYSTEM.SOLV>
0

>  <SCORE.SYSTEM.norm>
0

>  <SCORE.heavy>
49

>  <SCORE.norm>
-0.281918

>  <RMSD>
2.514

$$$$
2bee_lig
 OpenBabel11021811423D
libRbt.so/2013.1/901 2013/11/27
 49 52  0  0  0  0  0  0  0  0999 V2000
   47.1438    6.7749   -7.6520 C   0  0  2  0  0  0  0  0  0  0  0  0
   47.3022    6.7364   -6.2393 O   0  0  0  0  0  0  0  0  0  0  0  0
   49.3854    2.9011   -5.6689 C   0  0  2  0  0  0  0  0  0  0  0  0
   50.2508    1.8637   -5.0446 N   0  0  0  0  0  0  0  0  0  0  0  0
   45.0752    4.1480   -4.2378 C   0  0  1  0  0  0  0  0  0  0  0  0
   42.3824    6.5134   -1.5720 C   0  0  1  0  0  0  0  0  0  0  0  0
   40.9384   -0.0243   -6.2192 C   0  0  0  0  0  0  0  0  0  0  0  0
   46.0508    7.8399   -8.0520 C   0  0  2  0  0  0  0  0  0  0  0  0
   46.3871    9.1400   -7.4815 N   0  0  0  0  0  0  0  0  0  0  0  0
   50.2342    4.2349   -5.8891 C   0  0  0  0  0  0  0  0  0  0  0  0
   44.2037    3.5319   -3.1921 C   0  0  2  0  0  0  0  0  0  0  0  0
   43.8324    2.1401   -3.5010 O   0  0  0  0  0  0  0  0  0  0  0  0
   43.2306    6.1586   -0.2358 C   0  0  2  0  0  0  0  0  0  0  0  0
   42.5087    5.0665    0.4986 N   0  0  0  0  0  0  0  0  0  0  0  0
   40.4149   -1.3372   -6.1637 C   0  0  0  0  0  0  0  0  0  0  0  0
   40.5568   -2.0927   -5.0019 N   0  0  0  0  0  0  0  0  0  0  0  0
   44.6228    7.3369   -7.5623 C   0  0  1  0  0  0  0  0  0  0  0  0
   43.6454    8.2992   -7.9307 O   0  0  0  0  0  0  0  0  0  0  0  0
   49.3134    5.4057   -6.5622 C   0  0  2  0  0  0  0  0  0  0  0  0
   50.0642    6.5969   -6.7710 N   0  0  0  0  0  0  0  0  0  0  0  0
   43.1772    4.6379   -3.1487 C   0  0  2  0  0  0  0  0  0  0  0  0
   42.2917    5.2672   -2.3033 O   0  0  0  0  0  0  0  0  0  0  0  0
   43.3291    7.4528    0.6482 C   0  0  1  0  0  0  0  0  0  0  0  0
   44.0583    8.4630   -0.1325 O   0  0  0  0  0  0  0  0  0  0  0  0
   44.3243    5.9618   -8.2035 C   0  0  2  0  0  0  0  0  0  0  0  0
   43.0037    5.4471   -7.7595 O   0  0  0  0  0  0  0  0  0  0  0  0
   48.0764    5.7148   -5.6320 C   0  0  2  0  0  0  0  0  0  0  0  0
   43.0908    5.1044   -4.6858 C   0  0  2  0  0  0  0  0  0  0  0  0
   44.3868    5.0350   -5.0725 O   0  0  0  0  0  0  0  0  0  0  0  0
   41.8242    7.9578    1.0276 C   0  0  2  0  0  0  0  0  0  0  0  0
   41.0993    6.9320    1.8109 O   0  0  0  0  0  0  0  0  0  0  0  0
   45.4182    4.9159   -7.8043 C   0  0  2  0  0  0  0  0  0  0  0  0
   46.6727    5.4864   -8.2571 O   0  0  0  0  0  0  0  0  0  0  0  0
   47.2825    4.3777   -5.4459 C   0  0  2  0  0  0  0  0  0  0  0  0
   46.2040    4.7695   -4.6316 O   0  0  0  0  0  0  0  0  0  0  0  0
   42.6195    6.5755   -4.9849 C   0  0  0  0  0  0  0  0  0  0  0  0
   43.4672    7.5158   -4.2524 O   0  0  0  0  0  0  0  0  0  0  0  0
   40.9962    8.2569   -0.3006 C   0  0  1  0  0  0  0  0  0  0  0  0
   40.9930    6.9805   -1.1157 O   0  0  0  0  0  0  0  0  0  0  0  0
   45.0676    3.6501   -8.4756 C   0  0  0  0  0  0  0  0  0  0  0  0
   45.9310    2.6841   -8.1342 O   0  0  0  0  0  0  0  0  0  0  0  0
   48.1907    3.2692   -4.7612 C   0  0  1  0  0  0  0  0  0  0  0  0
   47.4756    2.0810   -4.6090 O   0  0  0  0  0  0  0  0  0  0  0  0
   42.4568    1.6521   -3.6922 C   0  0  0  0  0  0  0  0  0  0  0  0
   39.5769    8.7090    0.1833 C   0  0  0  0  0  0  0  0  0  0  0  0
   39.5194   10.1015    0.5240 N   0  0  0  0  0  0  0  0  0  0  0  0
   42.4633    0.1230   -3.7204 C   0  0  0  0  0  0  0  0  0  0  0  0
   43.1426   -0.2764   -4.9682 N   0  0  0  0  0  0  0  0  0  0  0  0
   42.5243    0.1593   -6.2984 C   0  0  0  0  0  0  0  0  0  0  0  0
  1  2  1  1  0  0  0
  1  8  1  0  0  0  0
  1 33  1  0  0  0  0
  3  4  1  1  0  0  0
  3 10  1  0  0  0  0
  3 42  1  0  0  0  0
  5 11  1  0  0  0  0
  5 29  1  0  0  0  0
  5 35  1  1  0  0  0
  6 13  1  0  0  0  0
  6 39  1  0  0  0  0
  6 22  1  6  0  0  0
  7 15  1  0  0  0  0
  8  9  1  1  0  0  0
  8 17  1  0  0  0  0
 10 19  1  0  0  0  0
 11 12  1  6  0  0  0
 11 21  1  0  0  0  0
 12 44  1  0  0  0  0
 13 14  1  1  0  0  0
 13 23  1  0  0  0  0
 15 16  1  0  0  0  0
 17 18  1  6  0  0  0
 17 25  1  0  0  0  0
 19 20  1  1  0  0  0
 19 27  1  0  0  0  0
 21 22  1  6  0  0  0
 21 28  1  0  0  0  0
 23 24  1  6  0  0  0
 23 30  1  0  0  0  0
 25 26  1  1  0  0  0
 25 32  1  0  0  0  0
 27  2  1  6  0  0  0
 27 34  1  0  0  0  0
 28 29  1  0  0  0  0
 28 36  1  1  0  0  0
 30 31  1  6  0  0  0
 30 38  1  0  0  0  0
 32 33  1  0  0  0  0
 32 40  1  6  0  0  0
 34 35  1  1  0  0  0
 34 42  1  0  0  0  0
 36 37  1  0  0  0  0
 38 39  1  0  0  0  0
 38 45  1  1  0  0  0
 40 41  1  0  0  0  0
 42 43  1  6  0  0  0
 44 47  1  0  0  0  0
 45 46  1  0  0  0  0
 47 48  1  0  0  0  0
 48 49  1  0  0  0  0
 49  7  1  0  0  0  0
M  END
>  <CHROM.1>
170.23445607,113.06052950,-81.78135265,72.08548954,-119.12057342,-168.93076350
99.85152367,37.07785147,54.89930321,-177.32060680,170.64654247,83.58139027
-68.88367807,-61.22978673,-41.86149166,-68.59848905,44.38908604,4.90714451
-4.46436700,-0.64897797,0.70039948,0.42826696

>  <Name>
2bee_lig

>  <RI>
3.71943e+07

>  <Rbt.Current_Directory>
/home/itssahil/PROJECTS/Mol_Feturizer/New_Systems/rnas/2bee

>  <Rbt.Executable>
rbdock ($Id: //depot/dev/client3/rdock/2013.1/src/exe/rbdock.cxx#4 $)

>  <Rbt.Library>
libRbt.so (2013.1, Build901 2013/11/27)

>  <Rbt.Parameter_File>
/export/apps/rDock/src/rDock_2013.1_src/data/scripts/dock_solv.prm

>  <Rbt.Receptor>
prm/pocket_docking_2.prm

>  <SCORE>
6.39563

>  <SCORE.INTER>
5.24837

>  <SCORE.INTER.CONST>
1

>  <SCORE.INTER.POLAR>
-0.811088

>  <SCORE.INTER.ROT>
16

>  <SCORE.INTER.SOLV>
15.0195

>  <SCORE.INTER.VDW>
-13.0706

>  <SCORE.INTER.norm>
0.10711

>  <SCORE.INTRA>
-2.51846

>  <SCORE.INTRA.DIHEDRAL>
-10.4914

>  <SCORE.INTRA.DIHEDRAL.0>
36.0842

>  <SCORE.INTRA.POLAR>
0

>  <SCORE.INTRA.POLAR.0>
0

>  <SCORE.INTRA.REPUL>
0.00820291

>  <SCORE.INTRA.REPUL.0>
0

>  <SCORE.INTRA.SOLV>
2.22754

>  <SCORE.INTRA.SOLV.lig_0>
-126.444

>  <SCORE.INTRA.VDW>
1.57246

>  <SCORE.INTRA.VDW.0>
-7.40469

>  <SCORE.INTRA.norm>
-0.0513972

>  <SCORE.RESTR>
3.66572

>  <SCORE.RESTR.CAVITY>
3.66572

>  <SCORE.RESTR.norm>
0.0748106

>  <SCORE.SYSTEM>
0

>  <SCORE.SYSTEM.CONST>
0

>  <SCORE.SYSTEM.DIHEDRAL>
0

>  <SCORE.SYSTEM.SOLV>
0

>  <SCORE.SYSTEM.norm>
0

>  <SCORE.heavy>
49

>  <SCORE.norm>
0.130523

>  <RMSD>
2.554

$$$$
2bee_lig
 OpenBabel11021811423D
libRbt.so/2013.1/901 2013/11/27
 49 52  0  0  0  0  0  0  0  0999 V2000
   44.7701    7.6811   -7.7988 C   0  0  2  0  0  0  0  0  0  0  0  0
   45.9208    6.9615   -8.2234 O   0  0  0  0  0  0  0  0  0  0  0  0
   49.1008    4.8282   -6.0529 C   0  0  2  0  0  0  0  0  0  0  0  0
   50.2571    4.5990   -5.1445 N   0  0  0  0  0  0  0  0  0  0  0  0
   44.7928    5.7005   -4.5624 C   0  0  1  0  0  0  0  0  0  0  0  0
   41.2944    7.2047   -1.6198 C   0  0  1  0  0  0  0  0  0  0  0  0
   42.8859   -0.3436   -3.0493 C   0  0  0  0  0  0  0  0  0  0  0  0
   43.6285    7.5781   -8.8828 C   0  0  2  0  0  0  0  0  0  0  0  0
   43.3463    6.1779   -9.1802 N   0  0  0  0  0  0  0  0  0  0  0  0
   49.4899    5.9351   -7.1351 C   0  0  0  0  0  0  0  0  0  0  0  0
   44.4826    5.6762   -3.1010 C   0  0  2  0  0  0  0  0  0  0  0  0
   44.4857    4.3157   -2.5358 O   0  0  0  0  0  0  0  0  0  0  0  0
   40.6757    8.6900   -1.4141 C   0  0  2  0  0  0  0  0  0  0  0  0
   41.7373    9.5568   -0.8020 N   0  0  0  0  0  0  0  0  0  0  0  0
   41.7210   -1.0421   -3.4443 C   0  0  0  0  0  0  0  0  0  0  0  0
   40.7463   -1.3568   -2.5001 N   0  0  0  0  0  0  0  0  0  0  0  0
   44.0683    8.3769  -10.1868 C   0  0  1  0  0  0  0  0  0  0  0  0
   43.0331    8.2825  -11.1546 O   0  0  0  0  0  0  0  0  0  0  0  0
   48.2386    6.2255   -8.1458 C   0  0  2  0  0  0  0  0  0  0  0  0
   48.5790    7.2053   -9.1207 N   0  0  0  0  0  0  0  0  0  0  0  0
   43.2216    6.5025   -3.1779 C   0  0  2  0  0  0  0  0  0  0  0  0
   42.4601    7.3943   -2.4570 O   0  0  0  0  0  0  0  0  0  0  0  0
   39.4296    8.5818   -0.4646 C   0  0  1  0  0  0  0  0  0  0  0  0
   38.4359    7.7339   -1.1394 O   0  0  0  0  0  0  0  0  0  0  0  0
   44.3472    9.8498   -9.8071 C   0  0  2  0  0  0  0  0  0  0  0  0
   44.7769   10.6297  -10.9957 O   0  0  0  0  0  0  0  0  0  0  0  0
   46.9853    6.7128   -7.3195 C   0  0  2  0  0  0  0  0  0  0  0  0
   42.5688    6.0276   -4.5692 C   0  0  2  0  0  0  0  0  0  0  0  0
   43.6602    5.8965   -5.3602 O   0  0  0  0  0  0  0  0  0  0  0  0
   39.8972    7.9404    0.9614 C   0  0  2  0  0  0  0  0  0  0  0  0
   40.8991    8.8011    1.6300 O   0  0  0  0  0  0  0  0  0  0  0  0
   45.4768    9.9384   -8.7272 C   0  0  2  0  0  0  0  0  0  0  0  0
   44.9953    9.1512   -7.6080 O   0  0  0  0  0  0  0  0  0  0  0  0
   46.6486    5.5965   -6.2740 C   0  0  2  0  0  0  0  0  0  0  0  0
   45.5180    6.1180   -5.6185 O   0  0  0  0  0  0  0  0  0  0  0  0
   41.6044    7.0258   -5.3104 C   0  0  0  0  0  0  0  0  0  0  0  0
   40.9153    6.3229   -6.3923 O   0  0  0  0  0  0  0  0  0  0  0  0
   40.5423    6.5020    0.7293 C   0  0  1  0  0  0  0  0  0  0  0  0
   41.6977    6.6862   -0.2323 O   0  0  0  0  0  0  0  0  0  0  0  0
   45.6574   11.3678   -8.4109 C   0  0  0  0  0  0  0  0  0  0  0  0
   46.4141   11.9619   -9.3435 O   0  0  0  0  0  0  0  0  0  0  0  0
   47.8689    5.3581   -5.2858 C   0  0  1  0  0  0  0  0  0  0  0  0
   47.5603    4.3561   -4.3654 O   0  0  0  0  0  0  0  0  0  0  0  0
   43.8726    3.9284   -1.2548 C   0  0  0  0  0  0  0  0  0  0  0  0
   40.9681    5.9995    2.1503 C   0  0  0  0  0  0  0  0  0  0  0  0
   39.8488    5.7144    3.0015 N   0  0  0  0  0  0  0  0  0  0  0  0
   44.2854    2.4967   -0.9104 C   0  0  0  0  0  0  0  0  0  0  0  0
   44.1085    1.6962   -2.1375 N   0  0  0  0  0  0  0  0  0  0  0  0
   42.7212    1.1211   -2.4309 C   0  0  0  0  0  0  0  0  0  0  0  0
  1  2  1  6  0  0  0
  1  8  1  0  0  0  0
  1 33  1  0  0  0  0
  3  4  1  1  0  0  0
  3 10  1  0  0  0  0
  3 42  1  0  0  0  0
  5 11  1  0  0  0  0
  5 29  1  0  0  0  0
  5 35  1  1  0  0  0
  6 13  1  0  0  0  0
  6 39  1  0  0  0  0
  6 22  1  6  0  0  0
  7 15  1  0  0  0  0
  8  9  1  6  0  0  0
  8 17  1  0  0  0  0
 10 19  1  0  0  0  0
 11 12  1  6  0  0  0
 11 21  1  0  0  0  0
 12 44  1  0  0  0  0
 13 14  1  1  0  0  0
 13 23  1  0  0  0  0
 15 16  1  0  0  0  0
 17 18  1  6  0  0  0
 17 25  1  0  0  0  0
 19 20  1  6  0  0  0
 19 27  1  0  0  0  0
 21 22  1  1  0  0  0
 21 28  1  0  0  0  0
 23 24  1  6  0  0  0
 23 30  1  0  0  0  0
 25 26  1  6  0  0  0
 25 32  1  0  0  0  0
 27  2  1  6  0  0  0
 27 34  1  0  0  0  0
 28 29  1  0  0  0  0
 28 36  1  6  0  0  0
 30 31  1  6  0  0  0
 30 38  1  0  0  0  0
 32 33  1  0  0  0  0
 32 40  1  1  0  0  0
 34 35  1  1  0  0  0
 34 42  1  0  0  0  0
 36 37  1  0  0  0  0
 38 39  1  0  0  0  0
 38 45  1  1  0  0  0
 40 41  1  0  0  0  0
 42 43  1  1  0  0  0
 44 47  1  0  0  0  0
 45 46  1  0  0  0  0
 47 48  1  0  0  0  0
 48 49  1  0  0  0  0
 49  7  1  0  0  0  0
M  END
>  <CHROM.1>
-168.87434859,92.21849077,-164.99905274,-61.45482199,-162.34587029,-170.67287079
-95.92247111,-166.30252341,-168.73998984,-80.41065120,-174.82708947,68.36370422
-46.16971942,-85.10345010,-141.54960781,-177.59018192,43.87411983,6.34415816
-4.61025131,0.79350444,0.82574658,-0.59482265

>  <Name>
2bee_lig

>  <RI>
2.18182e+07

>  <Rbt.Current_Directory>
/home/itssahil/PROJECTS/Mol_Feturizer/New_Systems/rnas/2bee

>  <Rbt.Executable>
rbdock ($Id: //depot/dev/client3/rdock/2013.1/src/exe/rbdock.cxx#4 $)

>  <Rbt.Library>
libRbt.so (2013.1, Build901 2013/11/27)

>  <Rbt.Parameter_File>
/export/apps/rDock/src/rDock_2013.1_src/data/scripts/dock_solv.prm

>  <Rbt.Receptor>
prm/pocket_docking_3.prm

>  <SCORE>
-25.2378

>  <SCORE.INTER>
-15.3508

>  <SCORE.INTER.CONST>
1

>  <SCORE.INTER.POLAR>
-0.938083

>  <SCORE.INTER.ROT>
16

>  <SCORE.INTER.SOLV>
19.7522

>  <SCORE.INTER.VDW>
-27.9577

>  <SCORE.INTER.norm>
-0.313282

>  <SCORE.INTRA>
-9.88701

>  <SCORE.INTRA.DIHEDRAL>
-20.0231

>  <SCORE.INTRA.DIHEDRAL.0>
36.0842

>  <SCORE.INTRA.POLAR>
0

>  <SCORE.INTRA.POLAR.0>
0

>  <SCORE.INTRA.REPUL>
0.0273559

>  <SCORE.INTRA.REPUL.0>
0

>  <SCORE.INTRA.SOLV>
-2.56752

>  <SCORE.INTRA.SOLV.lig_0>
-126.444

>  <SCORE.INTRA.VDW>
1.27153

>  <SCORE.INTRA.VDW.0>
-7.40469

>  <SCORE.INTRA.norm>
-0.201776

>  <SCORE.RESTR>
0

>  <SCORE.RESTR.CAVITY>
0

>  <SCORE.RESTR.norm>
0

>  <SCORE.SYSTEM>
0

>  <SCORE.SYSTEM.CONST>
0

>  <SCORE.SYSTEM.DIHEDRAL>
0

>  <SCORE.SYSTEM.SOLV>
0

>  <SCORE.SYSTEM.norm>
0

>  <SCORE.heavy>
49

>  <SCORE.norm>
-0.515057

>  <RMSD>
2.574

$$$$
2bee_lig
 OpenBabel11021811423D
libRbt.so/2013.1/901 2013/11/27
 49 52  0  0  0  0  0  0  0  0999 V2000
   44.9797    7.7698   -7.6302 C   0  0  2  0  0  0  0  0  0  0  0  0
   45.8962    6.7558   -8.0226 O   0  0  0  0  0  0  0  0  0  0  0  0
   48.6096    3.9606   -5.9736 C   0  0  2  0  0  0  0  0  0  0  0  0
   49.6576    3.4671   -5.0393 N   0  0  0  0  0  0  0  0  0  0  0  0
   44.2427    5.1743   -4.7645 C   0  0  1  0  0  0  0  0  0  0  0  0
   42.3910    5.7420   -0.4026 C   0  0  1  0  0  0  0  0  0  0  0  0
   44.9561   -0.2790   -3.5391 C   0  0  0  0  0  0  0  0  0  0  0  0
   43.7537    7.8141   -8.6222 C   0  0  2  0  0  0  0  0  0  0  0  0
   43.1374    6.4949   -8.7147 N   0  0  0  0  0  0  0  0  0  0  0  0
   49.2153    5.1275   -6.8788 C   0  0  0  0  0  0  0  0  0  0  0  0
   43.7965    4.4895   -3.5137 C   0  0  2  0  0  0  0  0  0  0  0  0
   42.9707    3.2978   -3.7747 O   0  0  0  0  0  0  0  0  0  0  0  0
   40.8788    5.3638   -0.8511 C   0  0  2  0  0  0  0  0  0  0  0  0
   40.2275    6.6048   -1.3884 N   0  0  0  0  0  0  0  0  0  0  0  0
   45.5775    0.9765   -3.3431 C   0  0  0  0  0  0  0  0  0  0  0  0
   45.0521    1.8741   -2.4163 N   0  0  0  0  0  0  0  0  0  0  0  0
   44.2465    8.3316  -10.0439 C   0  0  1  0  0  0  0  0  0  0  0  0
   43.1360    8.3726  -10.9283 O   0  0  0  0  0  0  0  0  0  0  0  0
   48.0886    5.7066   -7.9117 C   0  0  2  0  0  0  0  0  0  0  0  0
   48.6220    6.7420   -8.7300 N   0  0  0  0  0  0  0  0  0  0  0  0
   43.2323    5.7154   -2.8371 C   0  0  2  0  0  0  0  0  0  0  0  0
   43.0173    6.2706   -1.5960 O   0  0  0  0  0  0  0  0  0  0  0  0
   40.1063    4.8302    0.4077 C   0  0  1  0  0  0  0  0  0  0  0  0
   40.7942    3.6125    0.8613 O   0  0  0  0  0  0  0  0  0  0  0  0
   44.8832    9.7312   -9.8793 C   0  0  2  0  0  0  0  0  0  0  0  0
   45.3720   10.2462  -11.1838 O   0  0  0  0  0  0  0  0  0  0  0  0
   46.8512    6.2562   -7.1006 C   0  0  2  0  0  0  0  0  0  0  0  0
   42.6009    6.5411   -4.0647 C   0  0  2  0  0  0  0  0  0  0  0  0
   43.5199    6.3403   -5.0390 O   0  0  0  0  0  0  0  0  0  0  0  0
   40.1027    5.9836    1.5623 C   0  0  2  0  0  0  0  0  0  0  0  0
   39.4100    7.2050    1.0935 O   0  0  0  0  0  0  0  0  0  0  0  0
   46.0938    9.6754   -8.8888 C   0  0  2  0  0  0  0  0  0  0  0  0
   45.5470    9.1576   -7.6490 O   0  0  0  0  0  0  0  0  0  0  0  0
   46.2989    5.0774   -6.2299 C   0  0  2  0  0  0  0  0  0  0  0  0
   45.1997    5.6646   -5.5765 O   0  0  0  0  0  0  0  0  0  0  0  0
   42.4571    8.1002   -3.9087 C   0  0  0  0  0  0  0  0  0  0  0  0
   43.7835    8.6979   -3.7575 O   0  0  0  0  0  0  0  0  0  0  0  0
   41.5980    6.3705    1.9541 C   0  0  1  0  0  0  0  0  0  0  0  0
   42.2846    6.8229    0.6823 O   0  0  0  0  0  0  0  0  0  0  0  0
   46.6198   11.0487   -8.7754 C   0  0  0  0  0  0  0  0  0  0  0  0
   45.6440   11.8963   -8.4222 O   0  0  0  0  0  0  0  0  0  0  0  0
   47.4031    4.5563   -5.2143 C   0  0  1  0  0  0  0  0  0  0  0  0
   46.9024    3.5014   -4.4510 O   0  0  0  0  0  0  0  0  0  0  0  0
   41.9692    2.7413   -2.8505 C   0  0  0  0  0  0  0  0  0  0  0  0
   41.4699    7.4889    3.0430 C   0  0  0  0  0  0  0  0  0  0  0  0
   40.9845    8.7313    2.5144 N   0  0  0  0  0  0  0  0  0  0  0  0
   41.5463    1.3554   -3.3397 C   0  0  0  0  0  0  0  0  0  0  0  0
   42.5902    0.4110   -2.8963 N   0  0  0  0  0  0  0  0  0  0  0  0
   43.4160   -0.3068   -3.9659 C   0  0  0  0  0  0  0  0  0  0  0  0
  1  2  1  6  0  0  0
  1  8  1  0  0  0  0
  1 33  1  0  0  0  0
  3  4  1  1  0  0  0
  3 10  1  0  0  0  0
  3 42  1  0  0  0  0
  5 11  1  0  0  0  0
  5 29  1  0  0  0  0
  5 35  1  1  0  0  0
  6 13  1  0  0  0  0
  6 39  1  0  0  0  0
  6 22  1  6  0  0  0
  7 15  1  0  0  0  0
  8  9  1  6  0  0  0
  8 17  1  0  0  0  0
 10 19  1  0  0  0  0
 11 12  1  6  0  0  0
 11 21  1  0  0  0  0
 12 44  1  0  0  0  0
 13 14  1  1  0  0  0
 13 23  1  0  0  0  0
 15 16  1  0  0  0  0
 17 18  1  6  0  0  0
 17 25  1  0  0  0  0
 19 20  1  1  0  0  0
 19 27  1  0  0  0  0
 21 22  1  1  0  0  0
 21 28  1  0  0  0  0
 23 24  1  1  0  0  0
 23 30  1  0  0  0  0
 25 26  1  6  0  0  0
 25 32  1  0  0  0  0
 27  2  1  6  0  0  0
 27 34  1  0  0  0  0
 28 29  1  0  0  0  0
 28 36  1  1  0  0  0
 30 31  1  6  0  0  0
 30 38  1  0  0  0  0
 32 33  1  0  0  0  0
 32 40  1  1  0  0  0
 34 35  1  1  0  0  0
 34 42  1  0  0  0  0
 36 37  1  0  0  0  0
 38 39  1  0  0  0  0
 38 45  1  1  0  0  0
 40 41  1  0  0  0  0
 42 43  1  1  0  0  0
 44 47  1  0  0  0  0
 45 46  1  0  0  0  0
 47 48  1  0  0  0  0
 48 49  1  0  0  0  0
 49  7  1  0  0  0  0
M  END
>  <CHROM.1>
-161.27958449,59.76962073,-59.13144910,57.33223860,-154.14866312,-167.96454490
-50.86023784,-153.97645277,62.79846688,54.47059756,174.49402958,-70.09380189
80.71777103,-115.50574111,135.74492958,-58.80102516,44.09027061,5.90122327
-4.45663922,0.77521730,0.90910485,-0.54592765

>  <Name>
2bee_lig

>  <RI>
3.71943e+07

>  <Rbt.Current_Directory>
/home/itssahil/PROJECTS/Mol_Feturizer/New_Systems/rnas/2bee

>  <Rbt.Executable>
rbdock ($Id: //depot/dev/client3/rdock/2013.1/src/exe/rbdock.cxx#4 $)

>  <Rbt.Library>
libRbt.so (2013.1, Build901 2013/11/27)

>  <Rbt.Parameter_File>
/export/apps/rDock/src/rDock_2013.1_src/data/scripts/dock_solv.prm

>  <Rbt.Receptor>
prm/pocket_docking_2.prm

>  <SCORE>
-15.6772

>  <SCORE.INTER>
-12.1771

>  <SCORE.INTER.CONST>
1

>  <SCORE.INTER.POLAR>
-1.4521

>  <SCORE.INTER.ROT>
16

>  <SCORE.INTER.SOLV>
17.612

>  <SCORE.INTER.VDW>
-23.415

>  <SCORE.INTER.norm>
-0.248512

>  <SCORE.INTRA>
-5.4871

>  <SCORE.INTRA.DIHEDRAL>
-18.0477

>  <SCORE.INTRA.DIHEDRAL.0>
36.0842

>  <SCORE.INTRA.POLAR>
0

>  <SCORE.INTRA.POLAR.0>
0

>  <SCORE.INTRA.REPUL>
0

>  <SCORE.INTRA.REPUL.0>
0

>  <SCORE.INTRA.SOLV>
7.91722

>  <SCORE.INTRA.SOLV.lig_0>
-126.444

>  <SCORE.INTRA.VDW>
-0.421852

>  <SCORE.INTRA.VDW.0>
-7.40469

>  <SCORE.INTRA.norm>
-0.111982

>  <SCORE.RESTR>
1.98692

>  <SCORE.RESTR.CAVITY>
1.98692

>  <SCORE.RESTR.norm>
0.0405494

>  <SCORE.SYSTEM>
0

>  <SCORE.SYSTEM.CONST>
0

>  <SCORE.SYSTEM.DIHEDRAL>
0

>  <SCORE.SYSTEM.SOLV>
0

>  <SCORE.SYSTEM.norm>
0

>  <SCORE.heavy>
49

>  <SCORE.norm>
-0.319944

>  <RMSD>
2.596

$$$$
2bee_lig
 OpenBabel11021811423D
libRbt.so/2013.1/901 2013/11/27
 49 52  0  0  0  0  0  0  0  0999 V2000
   44.8893    8.0914   -7.7362 C   0  0  2  0  0  0  0  0  0  0  0  0
   45.9357    7.2334   -8.1732 O   0  0  0  0  0  0  0  0  0  0  0  0
   49.0590    4.9139   -6.1144 C   0  0  2  0  0  0  0  0  0  0  0  0
   50.2324    4.6162   -5.2487 N   0  0  0  0  0  0  0  0  0  0  0  0
   44.8130    6.0088   -4.5231 C   0  0  1  0  0  0  0  0  0  0  0  0
   41.6915    8.1391   -1.8232 C   0  0  1  0  0  0  0  0  0  0  0  0
   40.9006    1.8747   -0.3052 C   0  0  0  0  0  0  0  0  0  0  0  0
   43.6460    7.9744   -8.7004 C   0  0  2  0  0  0  0  0  0  0  0  0
   43.2297    6.5806   -8.8126 N   0  0  0  0  0  0  0  0  0  0  0  0
   49.4740    5.9936   -7.2144 C   0  0  0  0  0  0  0  0  0  0  0  0
   44.2969    6.1398   -3.1271 C   0  0  2  0  0  0  0  0  0  0  0  0
   44.5157    4.9285   -2.3178 O   0  0  0  0  0  0  0  0  0  0  0  0
   41.3166    7.0314   -0.6992 C   0  0  2  0  0  0  0  0  0  0  0  0
   40.0875    6.3008   -1.1562 N   0  0  0  0  0  0  0  0  0  0  0  0
   39.9773    1.9294    0.7650 C   0  0  0  0  0  0  0  0  0  0  0  0
   39.9972    3.0094    1.6447 N   0  0  0  0  0  0  0  0  0  0  0  0
   44.0214    8.5897  -10.1190 C   0  0  1  0  0  0  0  0  0  0  0  0
   42.8955    8.4843  -10.9782 O   0  0  0  0  0  0  0  0  0  0  0  0
   48.2059    6.3580   -8.1790 C   0  0  2  0  0  0  0  0  0  0  0  0
   48.5686    7.3139   -9.1695 N   0  0  0  0  0  0  0  0  0  0  0  0
   42.9108    6.6085   -3.4983 C   0  0  2  0  0  0  0  0  0  0  0  0
   41.8695    7.3883   -3.0482 O   0  0  0  0  0  0  0  0  0  0  0  0
   41.0506    7.7727    0.6594 C   0  0  1  0  0  0  0  0  0  0  0  0
   42.2996    8.4466    1.0434 O   0  0  0  0  0  0  0  0  0  0  0  0
   44.4479   10.0645   -9.9332 C   0  0  2  0  0  0  0  0  0  0  0  0
   44.8226   10.6742  -11.2347 O   0  0  0  0  0  0  0  0  0  0  0  0
   47.0161    6.9218   -7.3086 C   0  0  2  0  0  0  0  0  0  0  0  0
   42.5996    5.7747   -4.8382 C   0  0  2  0  0  0  0  0  0  0  0  0
   43.8005    5.7925   -5.4641 O   0  0  0  0  0  0  0  0  0  0  0  0
   39.8306    8.8378    0.4582 C   0  0  2  0  0  0  0  0  0  0  0  0
   38.5797    8.1482    0.0694 O   0  0  0  0  0  0  0  0  0  0  0  0
   45.6776   10.1678   -8.9705 C   0  0  2  0  0  0  0  0  0  0  0  0
   45.2443    9.5482   -7.7325 O   0  0  0  0  0  0  0  0  0  0  0  0
   46.6515    5.8295   -6.2472 C   0  0  2  0  0  0  0  0  0  0  0  0
   45.5798    6.4196   -5.5521 O   0  0  0  0  0  0  0  0  0  0  0  0
   41.5623    6.3759   -5.8572 C   0  0  0  0  0  0  0  0  0  0  0  0
   41.3179    5.4105   -6.9285 O   0  0  0  0  0  0  0  0  0  0  0  0
   40.2030    9.8878   -0.6811 C   0  0  1  0  0  0  0  0  0  0  0  0
   40.4935    9.0923   -1.9367 O   0  0  0  0  0  0  0  0  0  0  0  0
   45.9972   11.6014   -8.8342 C   0  0  0  0  0  0  0  0  0  0  0  0
   47.2971   11.7670   -8.5545 O   0  0  0  0  0  0  0  0  0  0  0  0
   47.8910    5.5187   -5.3041 C   0  0  1  0  0  0  0  0  0  0  0  0
   47.5568    4.5386   -4.3692 O   0  0  0  0  0  0  0  0  0  0  0  0
   43.8433    3.6358   -2.5275 C   0  0  0  0  0  0  0  0  0  0  0  0
   38.9620   10.8360   -0.7989 C   0  0  0  0  0  0  0  0  0  0  0  0
   38.7611   11.6421    0.3709 N   0  0  0  0  0  0  0  0  0  0  0  0
   44.3441    2.6322   -1.4878 C   0  0  0  0  0  0  0  0  0  0  0  0
   43.2498    1.6669   -1.2670 N   0  0  0  0  0  0  0  0  0  0  0  0
   42.4574    1.7598    0.0387 C   0  0  0  0  0  0  0  0  0  0  0  0
  1  2  1  6  0  0  0
  1  8  1  0  0  0  0
  1 33  1  0  0  0  0
  3  4  1  1  0  0  0
  3 10  1  0  0  0  0
  3 42  1  0  0  0  0
  5 11  1  0  0  0  0
  5 29  1  0  0  0  0
  5 35  1  6  0  0  0
  6 13  1  0  0  0  0
  6 39  1  0  0  0  0
  6 22  1  6  0  0  0
  7 15  1  0  0  0  0
  8  9  1  6  0  0  0
  8 17  1  0  0  0  0
 10 19  1  0  0  0  0
 11 12  1  6  0  0  0
 11 21  1  0  0  0  0
 12 44  1  0  0  0  0
 13 14  1  6  0  0  0
 13 23  1  0  0  0  0
 15 16  1  0  0  0  0
 17 18  1  6  0  0  0
 17 25  1  0  0  0  0
 19 20  1  6  0  0  0
 19 27  1  0  0  0  0
 21 22  1  1  0  0  0
 21 28  1  0  0  0  0
 23 24  1  6  0  0  0
 23 30  1  0  0  0  0
 25 26  1  6  0  0  0
 25 32  1  0  0  0  0
 27  2  1  6  0  0  0
 27 34  1  0  0  0  0
 28 29  1  0  0  0  0
 28 36  1  6  0  0  0
 30 31  1  6  0  0  0
 30 38  1  0  0  0  0
 32 33  1  0  0  0  0
 32 40  1  1  0  0  0
 34 35  1  1  0  0  0
 34 42  1  0  0  0  0
 36 37  1  0  0  0  0
 38 39  1  0  0  0  0
 38 45  1  6  0  0  0
 40 41  1  0  0  0  0
 42 43  1  1  0  0  0
 44 47  1  0  0  0  0
 45 46  1  0  0  0  0
 47 48  1  0  0  0  0
 48 49  1  0  0  0  0
 49  7  1  0  0  0  0
M  END
>  <CHROM.1>
-164.83488927,117.52886227,-77.34135552,64.27075156,-68.42189610,179.77440167
-2.34850671,-162.31973469,-174.16675786,-152.77092052,-179.99485833,66.78694369
151.79887340,-106.13962645,125.94878120,178.01767100,43.74271226,6.88149072
-4.54319763,0.78049604,0.71190652,-0.73783249

>  <Name>
2bee_lig

>  <RI>
3.46266e+07

>  <Rbt.Current_Directory>
/home/itssahil/PROJECTS/Mol_Feturizer/New_Systems/rnas/2bee

>  <Rbt.Executable>
rbdock ($Id: //depot/dev/client3/rdock/2013.1/src/exe/rbdock.cxx#4 $)

>  <Rbt.Library>
libRbt.so (2013.1, Build901 2013/11/27)

>  <Rbt.Parameter_File>
/export/apps/rDock/src/rDock_2013.1_src/data/scripts/dock_solv.prm

>  <Rbt.Receptor>
prm/pocket_docking_4.prm

>  <SCORE>
-23.3948

>  <SCORE.INTER>
-15.7263

>  <SCORE.INTER.CONST>
1

>  <SCORE.INTER.POLAR>
-0.938083

>  <SCORE.INTER.ROT>
16

>  <SCORE.INTER.SOLV>
22.0094

>  <SCORE.INTER.VDW>
-28.9604

>  <SCORE.INTER.norm>
-0.320944

>  <SCORE.INTRA>
-7.6747

>  <SCORE.INTRA.DIHEDRAL>
-15.4464

>  <SCORE.INTRA.DIHEDRAL.0>
36.0842

>  <SCORE.INTRA.POLAR>
0

>  <SCORE.INTRA.POLAR.0>
0

>  <SCORE.INTRA.REPUL>
0

>  <SCORE.INTRA.REPUL.0>
0

>  <SCORE.INTRA.SOLV>
-1.23071

>  <SCORE.INTRA.SOLV.lig_0>
-126.444

>  <SCORE.INTRA.VDW>
0.663857

>  <SCORE.INTRA.VDW.0>
-7.40469

>  <SCORE.INTRA.norm>
-0.156627

>  <SCORE.RESTR>
0.00611591

>  <SCORE.RESTR.CAVITY>
0.00611591

>  <SCORE.RESTR.norm>
0.000124814

>  <SCORE.SYSTEM>
0

>  <SCORE.SYSTEM.CONST>
0

>  <SCORE.SYSTEM.DIHEDRAL>
0

>  <SCORE.SYSTEM.SOLV>
0

>  <SCORE.SYSTEM.norm>
0

>  <SCORE.heavy>
49

>  <SCORE.norm>
-0.477446

>  <RMSD>
2.683

$$$$
2bee_lig
 OpenBabel11021811423D
libRbt.so/2013.1/901 2013/11/27
 49 52  0  0  0  0  0  0  0  0999 V2000
   46.7047    6.5905   -8.0248 C   0  0  2  0  0  0  0  0  0  0  0  0
   47.0638    6.8221   -6.6685 O   0  0  0  0  0  0  0  0  0  0  0  0
   48.4865    2.8285   -5.4846 C   0  0  2  0  0  0  0  0  0  0  0  0
   49.1717    1.7701   -4.6939 N   0  0  0  0  0  0  0  0  0  0  0  0
   44.7423    4.9318   -3.9060 C   0  0  1  0  0  0  0  0  0  0  0  0
   42.9650    6.7878    0.1166 C   0  0  1  0  0  0  0  0  0  0  0  0
   41.8463   -1.5867   -4.9887 C   0  0  0  0  0  0  0  0  0  0  0  0
   46.0112    7.8698   -8.6342 C   0  0  2  0  0  0  0  0  0  0  0  0
   46.8733    9.0345   -8.4648 N   0  0  0  0  0  0  0  0  0  0  0  0
   49.5431    3.9552   -5.8871 C   0  0  0  0  0  0  0  0  0  0  0  0
   44.3452    4.2643   -2.6296 C   0  0  2  0  0  0  0  0  0  0  0  0
   43.3577    3.1890   -2.8268 O   0  0  0  0  0  0  0  0  0  0  0  0
   42.3059    5.7007    1.1241 C   0  0  2  0  0  0  0  0  0  0  0  0
   41.7847    4.5584    0.3015 N   0  0  0  0  0  0  0  0  0  0  0  0
   40.7966   -0.7741   -5.4772 C   0  0  0  0  0  0  0  0  0  0  0  0
   39.9446   -0.1289   -4.5836 N   0  0  0  0  0  0  0  0  0  0  0  0
   44.5960    8.0822   -7.9383 C   0  0  1  0  0  0  0  0  0  0  0  0
   43.9776    9.2325   -8.4962 O   0  0  0  0  0  0  0  0  0  0  0  0
   48.8250    5.1452   -6.7473 C   0  0  2  0  0  0  0  0  0  0  0  0
   49.7614    6.1508   -7.1189 N   0  0  0  0  0  0  0  0  0  0  0  0
   44.0068    5.5258   -1.8726 C   0  0  2  0  0  0  0  0  0  0  0  0
   43.9887    6.0615   -0.6047 O   0  0  0  0  0  0  0  0  0  0  0  0
   41.1394    6.3970    1.9119 C   0  0  1  0  0  0  0  0  0  0  0  0
   41.7318    7.4882    2.6994 O   0  0  0  0  0  0  0  0  0  0  0  0
   43.7307    6.8194   -8.1572 C   0  0  2  0  0  0  0  0  0  0  0  0
   42.4030    6.9696   -7.5086 O   0  0  0  0  0  0  0  0  0  0  0  0
   47.6617    5.7916   -5.8987 C   0  0  2  0  0  0  0  0  0  0  0  0
   43.3597    6.4611   -3.0101 C   0  0  2  0  0  0  0  0  0  0  0  0
   44.1433    6.1842   -4.0793 O   0  0  0  0  0  0  0  0  0  0  0  0
   40.0338    6.9548    0.8489 C   0  0  2  0  0  0  0  0  0  0  0  0
   39.4465    5.8481    0.0604 O   0  0  0  0  0  0  0  0  0  0  0  0
   44.4317    5.5567   -7.5540 C   0  0  2  0  0  0  0  0  0  0  0  0
   45.7169    5.4798   -8.2223 O   0  0  0  0  0  0  0  0  0  0  0  0
   46.6584    4.6475   -5.5284 C   0  0  2  0  0  0  0  0  0  0  0  0
   45.6644    5.3307   -4.8038 O   0  0  0  0  0  0  0  0  0  0  0  0
   43.4242    8.0202   -2.8080 C   0  0  0  0  0  0  0  0  0  0  0  0
   42.7102    8.6817   -3.8999 O   0  0  0  0  0  0  0  0  0  0  0  0
   40.7140    7.9859   -0.1578 C   0  0  1  0  0  0  0  0  0  0  0  0
   41.8545    7.2549   -0.8349 O   0  0  0  0  0  0  0  0  0  0  0  0
   43.5523    4.4048   -7.8285 C   0  0  0  0  0  0  0  0  0  0  0  0
   42.4507    4.4647   -7.0681 O   0  0  0  0  0  0  0  0  0  0  0  0
   47.3745    3.5220   -4.6664 C   0  0  1  0  0  0  0  0  0  0  0  0
   46.4734    2.5048   -4.3505 O   0  0  0  0  0  0  0  0  0  0  0  0
   43.6819    1.7848   -3.1269 C   0  0  0  0  0  0  0  0  0  0  0  0
   39.5735    8.4331   -1.1336 C   0  0  0  0  0  0  0  0  0  0  0  0
   38.4801    9.0731   -0.4602 N   0  0  0  0  0  0  0  0  0  0  0  0
   43.4913    1.5318   -4.6231 C   0  0  0  0  0  0  0  0  0  0  0  0
   43.7523    0.0968   -4.8484 N   0  0  0  0  0  0  0  0  0  0  0  0
   42.9450   -0.9199   -4.0385 C   0  0  0  0  0  0  0  0  0  0  0  0
  1  2  1  1  0  0  0
  1  8  1  0  0  0  0
  1 33  1  0  0  0  0
  3  4  1  1  0  0  0
  3 10  1  0  0  0  0
  3 42  1  0  0  0  0
  5 11  1  0  0  0  0
  5 29  1  0  0  0  0
  5 35  1  1  0  0  0
  6 13  1  0  0  0  0
  6 39  1  0  0  0  0
  6 22  1  6  0  0  0
  7 15  1  0  0  0  0
  8  9  1  1  0  0  0
  8 17  1  0  0  0  0
 10 19  1  0  0  0  0
 11 12  1  6  0  0  0
 11 21  1  0  0  0  0
 12 44  1  0  0  0  0
 13 14  1  6  0  0  0
 13 23  1  0  0  0  0
 15 16  1  0  0  0  0
 17 18  1  6  0  0  0
 17 25  1  0  0  0  0
 19 20  1  1  0  0  0
 19 27  1  0  0  0  0
 21 22  1  1  0  0  0
 21 28  1  0  0  0  0
 23 24  1  6  0  0  0
 23 30  1  0  0  0  0
 25 26  1  1  0  0  0
 25 32  1  0  0  0  0
 27  2  1  6  0  0  0
 27 34  1  0  0  0  0
 28 29  1  0  0  0  0
 28 36  1  1  0  0  0
 30 31  1  6  0  0  0
 30 38  1  0  0  0  0
 32 33  1  0  0  0  0
 32 40  1  6  0  0  0
 34 35  1  1  0  0  0
 34 42  1  0  0  0  0
 36 37  1  0  0  0  0
 38 39  1  0  0  0  0
 38 45  1  6  0  0  0
 40 41  1  0  0  0  0
 42 43  1  6  0  0  0
 44 47  1  0  0  0  0
 45 46  1  0  0  0  0
 47 48  1  0  0  0  0
 48 49  1  0  0  0  0
 49  7  1  0  0  0  0
M  END
>  <CHROM.1>
177.78678626,55.80957994,101.47781578,-59.12632055,87.63388769,-100.84857038
-131.41372196,47.45299364,-176.36593534,-71.29775762,-158.32225236,60.45770884
-176.73997320,55.49846888,105.40008785,-66.80222333,44.00241962,5.17652751
-4.13428158,-0.15631826,0.88831667,0.02010428

>  <Name>
2bee_lig

>  <RI>
3.71943e+07

>  <Rbt.Current_Directory>
/home/itssahil/PROJECTS/Mol_Feturizer/New_Systems/rnas/2bee

>  <Rbt.Executable>
rbdock ($Id: //depot/dev/client3/rdock/2013.1/src/exe/rbdock.cxx#4 $)

>  <Rbt.Library>
libRbt.so (2013.1, Build901 2013/11/27)

>  <Rbt.Parameter_File>
/export/apps/rDock/src/rDock_2013.1_src/data/scripts/dock_solv.prm

>  <Rbt.Receptor>
prm/pocket_docking_2.prm

>  <SCORE>
3.84611

>  <SCORE.INTER>
4.15088

>  <SCORE.INTER.CONST>
1

>  <SCORE.INTER.POLAR>
0

>  <SCORE.INTER.ROT>
16

>  <SCORE.INTER.SOLV>
18.08

>  <SCORE.INTER.VDW>
-17.5261

>  <SCORE.INTER.norm>
0.0847118

>  <SCORE.INTRA>
-2.57953

>  <SCORE.INTRA.DIHEDRAL>
-13.2862

>  <SCORE.INTRA.DIHEDRAL.0>
36.0842

>  <SCORE.INTRA.POLAR>
0

>  <SCORE.INTRA.POLAR.0>
0

>  <SCORE.INTRA.REPUL>
0.0205349

>  <SCORE.INTRA.REPUL.0>
0

>  <SCORE.INTRA.SOLV>
1.46465

>  <SCORE.INTRA.SOLV.lig_0>
-126.444

>  <SCORE.INTRA.VDW>
3.22855

>  <SCORE.INTRA.VDW.0>
-7.40469

>  <SCORE.INTRA.norm>
-0.0526435

>  <SCORE.RESTR>
2.27476

>  <SCORE.RESTR.CAVITY>
2.27476

>  <SCORE.RESTR.norm>
0.0464237

>  <SCORE.SYSTEM>
0

>  <SCORE.SYSTEM.CONST>
0

>  <SCORE.SYSTEM.DIHEDRAL>
0

>  <SCORE.SYSTEM.SOLV>
0

>  <SCORE.SYSTEM.norm>
0

>  <SCORE.heavy>
49

>  <SCORE.norm>
0.078492

>  <RMSD>
2.688

$$$$
2bee_lig
 OpenBabel11021811423D
libRbt.so/2013.1/901 2013/11/27
 49 52  0  0  0  0  0  0  0  0999 V2000
   44.8458    7.7441   -7.5337 C   0  0  2  0  0  0  0  0  0  0  0  0
   45.9098    6.9299   -8.0102 O   0  0  0  0  0  0  0  0  0  0  0  0
   48.8370    4.3190   -6.0128 C   0  0  2  0  0  0  0  0  0  0  0  0
   49.9576    3.9028   -5.1263 N   0  0  0  0  0  0  0  0  0  0  0  0
   44.7417    5.6004   -4.3532 C   0  0  1  0  0  0  0  0  0  0  0  0
   40.9864    7.0765   -1.7375 C   0  0  1  0  0  0  0  0  0  0  0  0
   44.3877    0.3801   -4.1338 C   0  0  0  0  0  0  0  0  0  0  0  0
   43.5632    7.5505   -8.4317 C   0  0  2  0  0  0  0  0  0  0  0  0
   43.2104    6.1366   -8.5015 N   0  0  0  0  0  0  0  0  0  0  0  0
   49.3459    5.4576   -7.0091 C   0  0  0  0  0  0  0  0  0  0  0  0
   44.4383    5.7627   -2.8991 C   0  0  2  0  0  0  0  0  0  0  0  0
   44.6196    4.5180   -2.1322 O   0  0  0  0  0  0  0  0  0  0  0  0
   40.4901    8.5624   -1.3171 C   0  0  2  0  0  0  0  0  0  0  0  0
   41.5880    9.2152   -0.5287 N   0  0  0  0  0  0  0  0  0  0  0  0
   43.1490    0.6589   -4.7574 C   0  0  0  0  0  0  0  0  0  0  0  0
   43.1040    0.9247   -6.1241 N   0  0  0  0  0  0  0  0  0  0  0  0
   43.8367    8.1582   -9.8767 C   0  0  1  0  0  0  0  0  0  0  0  0
   42.6758    7.9837  -10.6759 O   0  0  0  0  0  0  0  0  0  0  0  0
   48.1378    5.9522   -7.9927 C   0  0  2  0  0  0  0  0  0  0  0  0
   48.5844    6.9616   -8.8915 N   0  0  0  0  0  0  0  0  0  0  0  0
   43.0802    6.3975   -3.0756 C   0  0  2  0  0  0  0  0  0  0  0  0
   42.2091    7.2844   -2.4842 O   0  0  0  0  0  0  0  0  0  0  0  0
   39.1883    8.4243   -0.4497 C   0  0  1  0  0  0  0  0  0  0  0  0
   38.1631    7.7937   -1.2940 O   0  0  0  0  0  0  0  0  0  0  0  0
   44.1993    9.6548   -9.7351 C   0  0  2  0  0  0  0  0  0  0  0  0
   44.4784   10.2588  -11.0630 O   0  0  0  0  0  0  0  0  0  0  0  0
   46.9371    6.5041   -7.1296 C   0  0  2  0  0  0  0  0  0  0  0  0
   42.4941    5.6329   -4.3637 C   0  0  2  0  0  0  0  0  0  0  0  0
   43.5928    5.5229   -5.1478 O   0  0  0  0  0  0  0  0  0  0  0  0
   39.5177    7.5225    0.8701 C   0  0  2  0  0  0  0  0  0  0  0  0
   40.5524    8.1660    1.7107 O   0  0  0  0  0  0  0  0  0  0  0  0
   45.4691    9.8340   -8.8377 C   0  0  2  0  0  0  0  0  0  0  0  0
   45.1290    9.2161   -7.5701 O   0  0  0  0  0  0  0  0  0  0  0  0
   46.4796    5.3536   -6.1707 C   0  0  2  0  0  0  0  0  0  0  0  0
   45.4056    5.9394   -5.4756 O   0  0  0  0  0  0  0  0  0  0  0  0
   41.4071    6.3716   -5.2290 C   0  0  0  0  0  0  0  0  0  0  0  0
   41.9962    7.5667   -5.8325 O   0  0  0  0  0  0  0  0  0  0  0  0
   40.0458    6.0843    0.4324 C   0  0  1  0  0  0  0  0  0  0  0  0
   41.2647    6.3077   -0.4382 O   0  0  0  0  0  0  0  0  0  0  0  0
   45.7247   11.2834   -8.7395 C   0  0  0  0  0  0  0  0  0  0  0  0
   47.0333   11.5181   -8.5735 O   0  0  0  0  0  0  0  0  0  0  0  0
   47.6624    4.9154   -5.2056 C   0  0  1  0  0  0  0  0  0  0  0  0
   47.2455    3.8847   -4.3628 O   0  0  0  0  0  0  0  0  0  0  0  0
   43.9430    3.2417   -2.4153 C   0  0  0  0  0  0  0  0  0  0  0  0
   40.3460    5.3237    1.7682 C   0  0  0  0  0  0  0  0  0  0  0  0
   39.1617    5.0307    2.5233 N   0  0  0  0  0  0  0  0  0  0  0  0
   44.4561    2.1735   -1.4484 C   0  0  0  0  0  0  0  0  0  0  0  0
   43.7063    0.9371   -1.7438 N   0  0  0  0  0  0  0  0  0  0  0  0
   44.3790   -0.1241   -2.6171 C   0  0  0  0  0  0  0  0  0  0  0  0
  1  2  1  6  0  0  0
  1  8  1  0  0  0  0
  1 33  1  0  0  0  0
  3  4  1  1  0  0  0
  3 10  1  0  0  0  0
  3 42  1  0  0  0  0
  5 11  1  0  0  0  0
  5 29  1  0  0  0  0
  5 35  1  6  0  0  0
  6 13  1  0  0  0  0
  6 39  1  0  0  0  0
  6 22  1  6  0  0  0
  7 15  1  0  0  0  0
  8  9  1  6  0  0  0
  8 17  1  0  0  0  0
 10 19  1  0  0  0  0
 11 12  1  1  0  0  0
 11 21  1  0  0  0  0
 12 44  1  0  0  0  0
 13 14  1  1  0  0  0
 13 23  1  0  0  0  0
 15 16  1  0  0  0  0
 17 18  1  6  0  0  0
 17 25  1  0  0  0  0
 19 20  1  6  0  0  0
 19 27  1  0  0  0  0
 21 22  1  1  0  0  0
 21 28  1  0  0  0  0
 23 24  1  6  0  0  0
 23 30  1  0  0  0  0
 25 26  1  6  0  0  0
 25 32  1  0  0  0  0
 27  2  1  6  0  0  0
 27 34  1  0  0  0  0
 28 29  1  0  0  0  0
 28 36  1  6  0  0  0
 30 31  1  1  0  0  0
 30 38  1  0  0  0  0
 32 33  1  0  0  0  0
 32 40  1  1  0  0  0
 34 35  1  1  0  0  0
 34 42  1  0  0  0  0
 36 37  1  0  0  0  0
 38 39  1  0  0  0  0
 38 45  1  1  0  0  0
 40 41  1  0  0  0  0
 42 43  1  1  0  0  0
 44 47  1  0  0  0  0
 45 46  1  0  0  0  0
 47 48  1  0  0  0  0
 48 49  1  0  0  0  0
 49  7  1  0  0  0  0
M  END
>  <CHROM.1>
-154.41869388,103.12744671,179.15795479,-171.35689080,-56.77120930,176.76026164
-104.52660428,-165.59885784,64.35834221,-150.70463804,-165.14205617,67.60255559
177.78786050,99.20683004,-73.94532302,-59.28676439,43.89807290,6.18670024
-4.66582305,0.75552775,0.76929024,-0.69054049

>  <Name>
2bee_lig

>  <RI>
2.18182e+07

>  <Rbt.Current_Directory>
/home/itssahil/PROJECTS/Mol_Feturizer/New_Systems/rnas/2bee

>  <Rbt.Executable>
rbdock ($Id: //depot/dev/client3/rdock/2013.1/src/exe/rbdock.cxx#4 $)

>  <Rbt.Library>
libRbt.so (2013.1, Build901 2013/11/27)

>  <Rbt.Parameter_File>
/export/apps/rDock/src/rDock_2013.1_src/data/scripts/dock_solv.prm

>  <Rbt.Receptor>
prm/pocket_docking_3.prm

>  <SCORE>
-22.5134

>  <SCORE.INTER>
-13.792

>  <SCORE.INTER.CONST>
1

>  <SCORE.INTER.POLAR>
-0.938083

>  <SCORE.INTER.ROT>
16

>  <SCORE.INTER.SOLV>
18.8425

>  <SCORE.INTER.VDW>
-26.6152

>  <SCORE.INTER.norm>
-0.28147

>  <SCORE.INTRA>
-8.79996

>  <SCORE.INTRA.DIHEDRAL>
-18.6019

>  <SCORE.INTRA.DIHEDRAL.0>
36.0842

>  <SCORE.INTRA.POLAR>
0

>  <SCORE.INTRA.POLAR.0>
0

>  <SCORE.INTRA.REPUL>
0

>  <SCORE.INTRA.REPUL.0>
0

>  <SCORE.INTRA.SOLV>
-0.910243

>  <SCORE.INTRA.SOLV.lig_0>
-126.444

>  <SCORE.INTRA.VDW>
0.956107

>  <SCORE.INTRA.VDW.0>
-7.40469

>  <SCORE.INTRA.norm>
-0.179591

>  <SCORE.RESTR>
0.0785892

>  <SCORE.RESTR.CAVITY>
0.0785892

>  <SCORE.RESTR.norm>
0.00160386

>  <SCORE.SYSTEM>
0

>  <SCORE.SYSTEM.CONST>
0

>  <SCORE.SYSTEM.DIHEDRAL>
0

>  <SCORE.SYSTEM.SOLV>
0

>  <SCORE.SYSTEM.norm>
0

>  <SCORE.heavy>
49

>  <SCORE.norm>
-0.459457

>  <RMSD>
2.719

$$$$
2bee_lig
 OpenBabel11021811423D
libRbt.so/2013.1/901 2013/11/27
 49 52  0  0  0  0  0  0  0  0999 V2000
   46.4883    6.6947   -7.7530 C   0  0  2  0  0  0  0  0  0  0  0  0
   46.3154    6.6048   -6.3444 O   0  0  0  0  0  0  0  0  0  0  0  0
   47.8109    2.5403   -5.5588 C   0  0  2  0  0  0  0  0  0  0  0  0
   48.3494    1.3735   -4.8082 N   0  0  0  0  0  0  0  0  0  0  0  0
   43.9190    4.4013   -4.2500 C   0  0  1  0  0  0  0  0  0  0  0  0
   42.8791    7.7336   -1.2220 C   0  0  1  0  0  0  0  0  0  0  0  0
   41.2842   -2.1610   -3.9067 C   0  0  0  0  0  0  0  0  0  0  0  0
   45.8139    8.0097   -8.3051 C   0  0  2  0  0  0  0  0  0  0  0  0
   46.3306    9.1735   -7.5930 N   0  0  0  0  0  0  0  0  0  0  0  0
   48.7830    3.7907   -5.3606 C   0  0  0  0  0  0  0  0  0  0  0  0
   43.8369    4.1129   -2.7862 C   0  0  2  0  0  0  0  0  0  0  0  0
   43.0902    2.8793   -2.4849 O   0  0  0  0  0  0  0  0  0  0  0  0
   43.4787    8.2818    0.1819 C   0  0  2  0  0  0  0  0  0  0  0  0
   42.9952    7.3793    1.2796 N   0  0  0  0  0  0  0  0  0  0  0  0
   40.1223   -1.4098   -3.6125 C   0  0  0  0  0  0  0  0  0  0  0  0
   38.9040   -2.0595   -3.4271 N   0  0  0  0  0  0  0  0  0  0  0  0
   44.2336    7.8895   -8.1626 C   0  0  1  0  0  0  0  0  0  0  0  0
   43.6353    9.0751   -8.6661 O   0  0  0  0  0  0  0  0  0  0  0  0
   48.2178    5.0992   -6.1605 C   0  0  2  0  0  0  0  0  0  0  0  0
   49.0831    6.2177   -5.9973 N   0  0  0  0  0  0  0  0  0  0  0  0
   43.3283    5.4720   -2.3704 C   0  0  2  0  0  0  0  0  0  0  0  0
   43.3505    6.3688   -1.3262 O   0  0  0  0  0  0  0  0  0  0  0  0
   42.9656    9.7497    0.4017 C   0  0  1  0  0  0  0  0  0  0  0  0
   43.4919   10.5681   -0.7005 O   0  0  0  0  0  0  0  0  0  0  0  0
   43.7494    6.6439   -8.9406 C   0  0  2  0  0  0  0  0  0  0  0  0
   42.2775    6.4851   -8.8206 O   0  0  0  0  0  0  0  0  0  0  0  0
   46.7745    5.4645   -5.6366 C   0  0  2  0  0  0  0  0  0  0  0  0
   42.3582    5.8773   -3.5878 C   0  0  2  0  0  0  0  0  0  0  0  0
   43.0454    5.4146   -4.6592 O   0  0  0  0  0  0  0  0  0  0  0  0
   41.3337    9.7488    0.4232 C   0  0  2  0  0  0  0  0  0  0  0  0
   40.8157    8.9199    1.5350 O   0  0  0  0  0  0  0  0  0  0  0  0
   44.4296    5.3472   -8.3878 C   0  0  2  0  0  0  0  0  0  0  0  0
   45.8552    5.5771   -8.5267 O   0  0  0  0  0  0  0  0  0  0  0  0
   45.8649    4.2077   -5.8502 C   0  0  2  0  0  0  0  0  0  0  0  0
   44.6146    4.6472   -5.3775 O   0  0  0  0  0  0  0  0  0  0  0  0
   42.1066    7.4077   -3.8527 C   0  0  0  0  0  0  0  0  0  0  0  0
   41.2981    7.5653   -5.0614 O   0  0  0  0  0  0  0  0  0  0  0  0
   40.7686    9.1647   -0.9474 C   0  0  1  0  0  0  0  0  0  0  0  0
   41.3488    7.7750   -1.1077 O   0  0  0  0  0  0  0  0  0  0  0  0
   43.9304    4.2210   -9.1990 C   0  0  0  0  0  0  0  0  0  0  0  0
   42.6723    3.9161   -8.8532 O   0  0  0  0  0  0  0  0  0  0  0  0
   46.4191    2.9614   -5.0367 C   0  0  1  0  0  0  0  0  0  0  0  0
   45.6060    1.8465   -5.2419 O   0  0  0  0  0  0  0  0  0  0  0  0
   43.5010    1.5218   -2.8794 C   0  0  0  0  0  0  0  0  0  0  0  0
   39.2092    9.1928   -0.8036 C   0  0  0  0  0  0  0  0  0  0  0  0
   38.6904   10.5144   -0.5965 N   0  0  0  0  0  0  0  0  0  0  0  0
   42.5372    0.5049   -2.2661 C   0  0  0  0  0  0  0  0  0  0  0  0
   43.0429   -0.8331   -2.6296 N   0  0  0  0  0  0  0  0  0  0  0  0
   42.6817   -1.3917   -4.0076 C   0  0  0  0  0  0  0  0  0  0  0  0
  1  2  1  1  0  0  0
  1  8  1  0  0  0  0
  1 33  1  0  0  0  0
  3  4  1  1  0  0  0
  3 10  1  0  0  0  0
  3 42  1  0  0  0  0
  5 11  1  0  0  0  0
  5 29  1  0  0  0  0
  5 35  1  1  0  0  0
  6 13  1  0  0  0  0
  6 39  1  0  0  0  0
  6 22  1  1  0  0  0
  7 15  1  0  0  0  0
  8  9  1  1  0  0  0
  8 17  1  0  0  0  0
 10 19  1  0  0  0  0
 11 12  1  6  0  0  0
 11 21  1  0  0  0  0
 12 44  1  0  0  0  0
 13 14  1  1  0  0  0
 13 23  1  0  0  0  0
 15 16  1  0  0  0  0
 17 18  1  6  0  0  0
 17 25  1  0  0  0  0
 19 20  1  1  0  0  0
 19 27  1  0  0  0  0
 21 22  1  1  0  0  0
 21 28  1  0  0  0  0
 23 24  1  6  0  0  0
 23 30  1  0  0  0  0
 25 26  1  1  0  0  0
 25 32  1  0  0  0  0
 27  2  1  6  0  0  0
 27 34  1  0  0  0  0
 28 29  1  0  0  0  0
 28 36  1  6  0  0  0
 30 31  1  1  0  0  0
 30 38  1  0  0  0  0
 32 33  1  0  0  0  0
 32 40  1  6  0  0  0
 34 35  1  1  0  0  0
 34 42  1  0  0  0  0
 36 37  1  0  0  0  0
 38 39  1  0  0  0  0
 38 45  1  1  0  0  0
 40 41  1  0  0  0  0
 42 43  1  6  0  0  0
 44 47  1  0  0  0  0
 45 46  1  0  0  0  0
 47 48  1  0  0  0  0
 48 49  1  0  0  0  0
 49  7  1  0  0  0  0
M  END
>  <CHROM.1>
176.42250394,33.52328069,-169.30045664,-175.62421733,64.47243270,174.55377131
171.93756962,44.32828254,175.17797613,-75.10990264,-104.81524637,60.43320011
-176.79296842,-82.81109245,-87.78593787,65.72511182,43.71385002,5.32701266
-4.28299576,-0.81861639,0.96475348,0.09317767

>  <Name>
2bee_lig

>  <RI>
2.18182e+07

>  <Rbt.Current_Directory>
/home/itssahil/PROJECTS/Mol_Feturizer/New_Systems/rnas/2bee

>  <Rbt.Executable>
rbdock ($Id: //depot/dev/client3/rdock/2013.1/src/exe/rbdock.cxx#4 $)

>  <Rbt.Library>
libRbt.so (2013.1, Build901 2013/11/27)

>  <Rbt.Parameter_File>
/export/apps/rDock/src/rDock_2013.1_src/data/scripts/dock_solv.prm

>  <Rbt.Receptor>
prm/pocket_docking_3.prm

>  <SCORE>
-5.55538

>  <SCORE.INTER>
0.0719977

>  <SCORE.INTER.CONST>
1

>  <SCORE.INTER.POLAR>
-0.846967

>  <SCORE.INTER.ROT>
16

>  <SCORE.INTER.SOLV>
19.2142

>  <SCORE.INTER.VDW>
-17.8002

>  <SCORE.INTER.norm>
0.00146934

>  <SCORE.INTRA>
-5.63486

>  <SCORE.INTRA.DIHEDRAL>
-17.9008

>  <SCORE.INTRA.DIHEDRAL.0>
36.0842

>  <SCORE.INTRA.POLAR>
0

>  <SCORE.INTRA.POLAR.0>
0

>  <SCORE.INTRA.REPUL>
0

>  <SCORE.INTRA.REPUL.0>
0

>  <SCORE.INTRA.SOLV>
-2.88226

>  <SCORE.INTRA.SOLV.lig_0>
-126.444

>  <SCORE.INTRA.VDW>
4.75666

>  <SCORE.INTRA.VDW.0>
-7.40469

>  <SCORE.INTRA.norm>
-0.114997

>  <SCORE.RESTR>
0.00748809

>  <SCORE.RESTR.CAVITY>
0.00748809

>  <SCORE.RESTR.norm>
0.000152818

>  <SCORE.SYSTEM>
0

>  <SCORE.SYSTEM.CONST>
0

>  <SCORE.SYSTEM.DIHEDRAL>
0

>  <SCORE.SYSTEM.SOLV>
0

>  <SCORE.SYSTEM.norm>
0

>  <SCORE.heavy>
49

>  <SCORE.norm>
-0.113375

>  <RMSD>
2.754

$$$$
2bee_lig
 OpenBabel11021811423D
libRbt.so/2013.1/901 2013/11/27
 49 52  0  0  0  0  0  0  0  0999 V2000
   46.9436    6.6222   -8.0975 C   0  0  2  0  0  0  0  0  0  0  0  0
   47.3819    6.8344   -6.7614 O   0  0  0  0  0  0  0  0  0  0  0  0
   49.1753    2.9201   -5.8468 C   0  0  2  0  0  0  0  0  0  0  0  0
   49.9760    1.8843   -5.1390 N   0  0  0  0  0  0  0  0  0  0  0  0
   45.1750    4.5990   -4.2208 C   0  0  1  0  0  0  0  0  0  0  0  0
   42.5204    5.4329   -0.3569 C   0  0  1  0  0  0  0  0  0  0  0  0
   39.9637   -0.5516   -5.9535 C   0  0  0  0  0  0  0  0  0  0  0  0
   46.2511    7.9233   -8.6601 C   0  0  2  0  0  0  0  0  0  0  0  0
   47.1510    9.0645   -8.5309 N   0  0  0  0  0  0  0  0  0  0  0  0
   50.1185    4.1515   -6.2234 C   0  0  0  0  0  0  0  0  0  0  0  0
   44.6035    4.0334   -2.9613 C   0  0  2  0  0  0  0  0  0  0  0  0
   44.0436    2.6826   -3.1406 O   0  0  0  0  0  0  0  0  0  0  0  0
   41.0270    5.0244   -0.8407 C   0  0  2  0  0  0  0  0  0  0  0  0
   40.3939    6.2314   -1.4695 N   0  0  0  0  0  0  0  0  0  0  0  0
   40.0626   -1.8793   -5.4758 C   0  0  0  0  0  0  0  0  0  0  0  0
   39.2655   -2.8780   -6.0309 N   0  0  0  0  0  0  0  0  0  0  0  0
   44.8820    8.1664   -7.8866 C   0  0  1  0  0  0  0  0  0  0  0  0
   44.2639    9.3363   -8.4027 O   0  0  0  0  0  0  0  0  0  0  0  0
   49.2715    5.3190   -6.9922 C   0  0  2  0  0  0  0  0  0  0  0  0
   50.1063    6.4181   -7.3405 N   0  0  0  0  0  0  0  0  0  0  0  0
   43.7311    5.2172   -2.6203 C   0  0  2  0  0  0  0  0  0  0  0  0
   43.1903    5.8980   -1.5531 O   0  0  0  0  0  0  0  0  0  0  0  0
   40.2084    4.5574    0.4155 C   0  0  1  0  0  0  0  0  0  0  0  0
   40.8812    3.3693    0.9609 O   0  0  0  0  0  0  0  0  0  0  0  0
   43.9737    6.9277   -8.0657 C   0  0  2  0  0  0  0  0  0  0  0  0
   42.6877    7.1066   -7.3446 O   0  0  0  0  0  0  0  0  0  0  0  0
   48.0925    5.8200   -6.0701 C   0  0  2  0  0  0  0  0  0  0  0  0
   43.2332    5.7207   -4.0647 C   0  0  2  0  0  0  0  0  0  0  0  0
   44.3466    5.5554   -4.8177 O   0  0  0  0  0  0  0  0  0  0  0  0
   40.1587    5.7723    1.5041 C   0  0  2  0  0  0  0  0  0  0  0  0
   39.4817    6.9633    0.9431 O   0  0  0  0  0  0  0  0  0  0  0  0
   44.6738    5.6431   -7.5095 C   0  0  2  0  0  0  0  0  0  0  0  0
   45.9182    5.5386   -8.2476 O   0  0  0  0  0  0  0  0  0  0  0  0
   47.2026    4.5775   -5.7283 C   0  0  2  0  0  0  0  0  0  0  0  0
   46.1844    5.1358   -4.9337 O   0  0  0  0  0  0  0  0  0  0  0  0
   42.8180    7.2307   -4.2168 C   0  0  0  0  0  0  0  0  0  0  0  0
   41.8632    7.5806   -3.1654 O   0  0  0  0  0  0  0  0  0  0  0  0
   41.6373    6.1863    1.9301 C   0  0  1  0  0  0  0  0  0  0  0  0
   42.3706    6.5712    0.6621 O   0  0  0  0  0  0  0  0  0  0  0  0
   43.7513    4.5160   -7.7428 C   0  0  0  0  0  0  0  0  0  0  0  0
   43.3822    4.4714   -9.0300 O   0  0  0  0  0  0  0  0  0  0  0  0
   48.0423    3.4738   -4.9542 C   0  0  1  0  0  0  0  0  0  0  0  0
   47.2416    2.3691   -4.6633 O   0  0  0  0  0  0  0  0  0  0  0  0
   43.3177    2.2173   -4.3337 C   0  0  0  0  0  0  0  0  0  0  0  0
   41.4657    7.3622    2.9504 C   0  0  0  0  0  0  0  0  0  0  0  0
   41.1627    8.6131    2.3164 N   0  0  0  0  0  0  0  0  0  0  0  0
   43.2115    0.6920   -4.2966 C   0  0  0  0  0  0  0  0  0  0  0  0
   42.2950    0.3029   -5.3859 N   0  0  0  0  0  0  0  0  0  0  0  0
   40.8020    0.5883   -5.2100 C   0  0  0  0  0  0  0  0  0  0  0  0
  1  2  1  1  0  0  0
  1  8  1  0  0  0  0
  1 33  1  0  0  0  0
  3  4  1  1  0  0  0
  3 10  1  0  0  0  0
  3 42  1  0  0  0  0
  5 11  1  0  0  0  0
  5 29  1  0  0  0  0
  5 35  1  1  0  0  0
  6 13  1  0  0  0  0
  6 39  1  0  0  0  0
  6 22  1  6  0  0  0
  7 15  1  0  0  0  0
  8  9  1  1  0  0  0
  8 17  1  0  0  0  0
 10 19  1  0  0  0  0
 11 12  1  6  0  0  0
 11 21  1  0  0  0  0
 12 44  1  0  0  0  0
 13 14  1  1  0  0  0
 13 23  1  0  0  0  0
 15 16  1  0  0  0  0
 17 18  1  6  0  0  0
 17 25  1  0  0  0  0
 19 20  1  1  0  0  0
 19 27  1  0  0  0  0
 21 22  1  1  0  0  0
 21 28  1  0  0  0  0
 23 24  1  1  0  0  0
 23 30  1  0  0  0  0
 25 26  1  1  0  0  0
 25 32  1  0  0  0  0
 27  2  1  6  0  0  0
 27 34  1  0  0  0  0
 28 29  1  0  0  0  0
 28 36  1  1  0  0  0
 30 31  1  6  0  0  0
 30 38  1  0  0  0  0
 32 33  1  0  0  0  0
 32 40  1  6  0  0  0
 34 35  1  1  0  0  0
 34 42  1  0  0  0  0
 36 37  1  0  0  0  0
 38 39  1  0  0  0  0
 38 45  1  1  0  0  0
 40 41  1  0  0  0  0
 42 43  1  6  0  0  0
 44 47  1  0  0  0  0
 45 46  1  0  0  0  0
 47 48  1  0  0  0  0
 48 49  1  0  0  0  0
 49  7  1  0  0  0  0
M  END
>  <CHROM.1>
-176.97513512,89.89132122,-76.63673328,174.88803551,-37.22773769,165.71708342
-45.42068490,50.00051461,-50.99591803,53.01720393,-172.94409325,-77.51168697
170.96334005,-72.66680614,-147.55708247,64.41607773,44.04931519,4.85889524
-4.33729741,-0.37131944,0.79809647,0.57400607

>  <Name>
2bee_lig

>  <RI>
3.71943e+07

>  <Rbt.Current_Directory>
/home/itssahil/PROJECTS/Mol_Feturizer/New_Systems/rnas/2bee

>  <Rbt.Executable>
rbdock ($Id: //depot/dev/client3/rdock/2013.1/src/exe/rbdock.cxx#4 $)

>  <Rbt.Library>
libRbt.so (2013.1, Build901 2013/11/27)

>  <Rbt.Parameter_File>
/export/apps/rDock/src/rDock_2013.1_src/data/scripts/dock_solv.prm

>  <Rbt.Receptor>
prm/pocket_docking_2.prm

>  <SCORE>
0.821261

>  <SCORE.INTER>
7.0725

>  <SCORE.INTER.CONST>
1

>  <SCORE.INTER.POLAR>
0

>  <SCORE.INTER.ROT>
16

>  <SCORE.INTER.SOLV>
14.688

>  <SCORE.INTER.VDW>
-14.4477

>  <SCORE.INTER.norm>
0.144337

>  <SCORE.INTRA>
-7.62247

>  <SCORE.INTRA.DIHEDRAL>
-19.8413

>  <SCORE.INTRA.DIHEDRAL.0>
36.0842

>  <SCORE.INTRA.POLAR>
0

>  <SCORE.INTRA.POLAR.0>
0

>  <SCORE.INTRA.REPUL>
0

>  <SCORE.INTRA.REPUL.0>
0

>  <SCORE.INTRA.SOLV>
1.4525

>  <SCORE.INTRA.SOLV.lig_0>
-126.444

>  <SCORE.INTRA.VDW>
1.57194

>  <SCORE.INTRA.VDW.0>
-7.40469

>  <SCORE.INTRA.norm>
-0.155561

>  <SCORE.RESTR>
1.37123

>  <SCORE.RESTR.CAVITY>
1.37123

>  <SCORE.RESTR.norm>
0.0279843

>  <SCORE.SYSTEM>
0

>  <SCORE.SYSTEM.CONST>
0

>  <SCORE.SYSTEM.DIHEDRAL>
0

>  <SCORE.SYSTEM.SOLV>
0

>  <SCORE.SYSTEM.norm>
0

>  <SCORE.heavy>
49

>  <SCORE.norm>
0.0167604

>  <RMSD>
2.792

$$$$
2bee_lig
 OpenBabel11021811423D
libRbt.so/2013.1/901 2013/11/27
 49 52  0  0  0  0  0  0  0  0999 V2000
   45.6724    6.4122   -7.6290 C   0  0  2  0  0  0  0  0  0  0  0  0
   45.9101    5.0716   -7.2186 O   0  0  0  0  0  0  0  0  0  0  0  0
   49.2711    2.8460   -5.4508 C   0  0  2  0  0  0  0  0  0  0  0  0
   50.4672    2.5603   -4.6126 N   0  0  0  0  0  0  0  0  0  0  0  0
   44.9870    3.2579   -3.7303 C   0  0  1  0  0  0  0  0  0  0  0  0
   42.8599    6.0224   -0.9038 C   0  0  1  0  0  0  0  0  0  0  0  0
   41.3576   -0.1294   -5.0794 C   0  0  0  0  0  0  0  0  0  0  0  0
   45.0738    7.2526   -6.4355 C   0  0  2  0  0  0  0  0  0  0  0  0
   45.9481    7.1606   -5.2712 N   0  0  0  0  0  0  0  0  0  0  0  0
   49.5636    4.1146   -6.3745 C   0  0  0  0  0  0  0  0  0  0  0  0
   44.8351    2.9116   -2.2848 C   0  0  2  0  0  0  0  0  0  0  0  0
   44.7370    1.4607   -2.0490 O   0  0  0  0  0  0  0  0  0  0  0  0
   43.9329    6.5658    0.1845 C   0  0  2  0  0  0  0  0  0  0  0  0
   43.7214    5.8114    1.4649 N   0  0  0  0  0  0  0  0  0  0  0  0
   40.5377    0.4913   -6.0507 C   0  0  0  0  0  0  0  0  0  0  0  0
   39.1873    0.1594   -6.1339 N   0  0  0  0  0  0  0  0  0  0  0  0
   43.6065    6.7307   -6.1091 C   0  0  1  0  0  0  0  0  0  0  0  0
   43.0744    7.4957   -5.0374 O   0  0  0  0  0  0  0  0  0  0  0  0
   48.2660    4.4695   -7.3029 C   0  0  2  0  0  0  0  0  0  0  0  0
   48.5204    5.5945   -8.1372 N   0  0  0  0  0  0  0  0  0  0  0  0
   43.6805    3.8427   -2.0042 C   0  0  2  0  0  0  0  0  0  0  0  0
   43.1126    4.6005   -1.0051 O   0  0  0  0  0  0  0  0  0  0  0  0
   43.6897    8.1026    0.3973 C   0  0  1  0  0  0  0  0  0  0  0  0
   43.9303    8.7676   -0.8917 O   0  0  0  0  0  0  0  0  0  0  0  0
   42.7309    6.8587   -7.3773 C   0  0  2  0  0  0  0  0  0  0  0  0
   41.3534    6.3665   -7.1203 O   0  0  0  0  0  0  0  0  0  0  0  0
   47.0154    4.7618   -6.3854 C   0  0  2  0  0  0  0  0  0  0  0  0
   42.8300    3.7768   -3.3679 C   0  0  2  0  0  0  0  0  0  0  0  0
   43.8068    3.7412   -4.3054 O   0  0  0  0  0  0  0  0  0  0  0  0
   42.1603    8.3356    0.9172 C   0  0  2  0  0  0  0  0  0  0  0  0
   41.9292    7.6596    2.2138 O   0  0  0  0  0  0  0  0  0  0  0  0
   43.3380    6.0258   -8.5553 C   0  0  2  0  0  0  0  0  0  0  0  0
   44.6771    6.5514   -8.7418 O   0  0  0  0  0  0  0  0  0  0  0  0
   46.7746    3.4922   -5.5007 C   0  0  2  0  0  0  0  0  0  0  0  0
   45.6391    3.8493   -4.7504 O   0  0  0  0  0  0  0  0  0  0  0  0
   41.9174    5.0068   -3.7284 C   0  0  0  0  0  0  0  0  0  0  0  0
   41.0660    4.6630   -4.8671 O   0  0  0  0  0  0  0  0  0  0  0  0
   41.1261    7.7539   -0.1464 C   0  0  1  0  0  0  0  0  0  0  0  0
   41.4605    6.2885   -0.3316 O   0  0  0  0  0  0  0  0  0  0  0  0
   42.4566    6.2249   -9.7211 C   0  0  0  0  0  0  0  0  0  0  0  0
   41.2858    5.6004   -9.5354 O   0  0  0  0  0  0  0  0  0  0  0  0
   48.0376    3.1899   -4.5864 C   0  0  1  0  0  0  0  0  0  0  0  0
   47.8145    2.0525   -3.8100 O   0  0  0  0  0  0  0  0  0  0  0  0
   45.0931    0.4173   -3.0244 C   0  0  0  0  0  0  0  0  0  0  0  0
   39.7071    8.0128    0.4640 C   0  0  0  0  0  0  0  0  0  0  0  0
   38.6452    7.4936   -0.3493 N   0  0  0  0  0  0  0  0  0  0  0  0
   44.0529   -0.7024   -2.9679 C   0  0  0  0  0  0  0  0  0  0  0  0
   43.6487   -0.9782   -4.3602 N   0  0  0  0  0  0  0  0  0  0  0  0
   42.9339    0.1292   -5.1375 C   0  0  0  0  0  0  0  0  0  0  0  0
  1  2  1  1  0  0  0
  1  8  1  0  0  0  0
  1 33  1  0  0  0  0
  3  4  1  1  0  0  0
  3 10  1  0  0  0  0
  3 42  1  0  0  0  0
  5 11  1  0  0  0  0
  5 29  1  0  0  0  0
  5 35  1  1  0  0  0
  6 13  1  0  0  0  0
  6 39  1  0  0  0  0
  6 22  1  1  0  0  0
  7 15  1  0  0  0  0
  8  9  1  1  0  0  0
  8 17  1  0  0  0  0
 10 19  1  0  0  0  0
 11 12  1  6  0  0  0
 11 21  1  0  0  0  0
 12 44  1  0  0  0  0
 13 14  1  1  0  0  0
 13 23  1  0  0  0  0
 15 16  1  0  0  0  0
 17 18  1  1  0  0  0
 17 25  1  0  0  0  0
 19 20  1  1  0  0  0
 19 27  1  0  0  0  0
 21 22  1  1  0  0  0
 21 28  1  0  0  0  0
 23 24  1  6  0  0  0
 23 30  1  0  0  0  0
 25 26  1  1  0  0  0
 25 32  1  0  0  0  0
 27  2  1  6  0  0  0
 27 34  1  0  0  0  0
 28 29  1  0  0  0  0
 28 36  1  6  0  0  0
 30 31  1  1  0  0  0
 30 38  1  0  0  0  0
 32 33  1  0  0  0  0
 32 40  1  6  0  0  0
 34 35  1  1  0  0  0
 34 42  1  0  0  0  0
 36 37  1  0  0  0  0
 38 39  1  0  0  0  0
 38 45  1  1  0  0  0
 40 41  1  0  0  0  0
 42 43  1  1  0  0  0
 44 47  1  0  0  0  0
 45 46  1  0  0  0  0
 47 48  1  0  0  0  0
 48 49  1  0  0  0  0
 49  7  1  0  0  0  0
M  END
>  <CHROM.1>
-75.10188088,79.21786140,-108.19513651,172.04153574,15.37130222,-138.97983100
119.82950210,-88.54653634,-170.46091558,-70.64694460,-173.38335990,-177.51634898
131.27153796,-64.24600980,-97.75722389,-160.15872142,43.99131143,4.66112583
-4.13964260,0.47113531,0.96280473,-1.00276242

>  <Name>
2bee_lig

>  <RI>
2.18182e+07

>  <Rbt.Current_Directory>
/home/itssahil/PROJECTS/Mol_Feturizer/New_Systems/rnas/2bee

>  <Rbt.Executable>
rbdock ($Id: //depot/dev/client3/rdock/2013.1/src/exe/rbdock.cxx#4 $)

>  <Rbt.Library>
libRbt.so (2013.1, Build901 2013/11/27)

>  <Rbt.Parameter_File>
/export/apps/rDock/src/rDock_2013.1_src/data/scripts/dock_solv.prm

>  <Rbt.Receptor>
prm/pocket_docking_3.prm

>  <SCORE>
3.98371

>  <SCORE.INTER>
2.55177

>  <SCORE.INTER.CONST>
1

>  <SCORE.INTER.POLAR>
0

>  <SCORE.INTER.ROT>
16

>  <SCORE.INTER.SOLV>
17.612

>  <SCORE.INTER.VDW>
-18.4362

>  <SCORE.INTER.norm>
0.052077

>  <SCORE.INTRA>
1.28924

>  <SCORE.INTRA.DIHEDRAL>
-0.318834

>  <SCORE.INTRA.DIHEDRAL.0>
36.0842

>  <SCORE.INTRA.POLAR>
0

>  <SCORE.INTRA.POLAR.0>
0

>  <SCORE.INTRA.REPUL>
0

>  <SCORE.INTRA.REPUL.0>
0

>  <SCORE.INTRA.SOLV>
-0.150093

>  <SCORE.INTRA.SOLV.lig_0>
-126.444

>  <SCORE.INTRA.VDW>
1.5237

>  <SCORE.INTRA.VDW.0>
-7.40469

>  <SCORE.INTRA.norm>
0.026311

>  <SCORE.RESTR>
0.142695

>  <SCORE.RESTR.CAVITY>
0.142695

>  <SCORE.RESTR.norm>
0.00291215

>  <SCORE.SYSTEM>
0

>  <SCORE.SYSTEM.CONST>
0

>  <SCORE.SYSTEM.DIHEDRAL>
0

>  <SCORE.SYSTEM.SOLV>
0

>  <SCORE.SYSTEM.norm>
0

>  <SCORE.heavy>
49

>  <SCORE.norm>
0.0813001

>  <RMSD>
2.815

$$$$
2bee_lig
 OpenBabel11021811423D
libRbt.so/2013.1/901 2013/11/27
 49 52  0  0  0  0  0  0  0  0999 V2000
   46.9309    6.7264   -8.1467 C   0  0  2  0  0  0  0  0  0  0  0  0
   47.3411    6.9139   -6.7981 O   0  0  0  0  0  0  0  0  0  0  0  0
   49.0102    2.9443   -5.8868 C   0  0  2  0  0  0  0  0  0  0  0  0
   49.7530    1.8765   -5.1637 N   0  0  0  0  0  0  0  0  0  0  0  0
   45.0772    4.6655   -4.2720 C   0  0  1  0  0  0  0  0  0  0  0  0
   42.5518    5.5421   -0.2811 C   0  0  1  0  0  0  0  0  0  0  0  0
   39.9493   -0.9285   -3.5971 C   0  0  0  0  0  0  0  0  0  0  0  0
   46.2265    8.0288   -8.6914 C   0  0  2  0  0  0  0  0  0  0  0  0
   47.1042    9.1814   -8.5186 N   0  0  0  0  0  0  0  0  0  0  0  0
   49.9948    4.1651   -6.1835 C   0  0  0  0  0  0  0  0  0  0  0  0
   44.6374    4.0519   -2.9826 C   0  0  2  0  0  0  0  0  0  0  0  0
   43.9885    2.7415   -3.1619 O   0  0  0  0  0  0  0  0  0  0  0  0
   41.1112    5.5568   -1.0263 C   0  0  2  0  0  0  0  0  0  0  0  0
   40.9070    6.9203   -1.6198 N   0  0  0  0  0  0  0  0  0  0  0  0
   38.6842   -1.4308   -3.9821 C   0  0  0  0  0  0  0  0  0  0  0  0
   38.3353   -2.7437   -3.6735 N   0  0  0  0  0  0  0  0  0  0  0  0
   44.8395    8.2304   -7.9380 C   0  0  1  0  0  0  0  0  0  0  0  0
   44.2110    9.4018   -8.4379 O   0  0  0  0  0  0  0  0  0  0  0  0
   49.2115    5.3670   -6.9667 C   0  0  2  0  0  0  0  0  0  0  0  0
   50.0839    6.4570   -7.2440 N   0  0  0  0  0  0  0  0  0  0  0  0
   43.8781    5.2518   -2.4701 C   0  0  2  0  0  0  0  0  0  0  0  0
   43.5111    5.8912   -1.3076 O   0  0  0  0  0  0  0  0  0  0  0  0
   39.9991    5.2401    0.0364 C   0  0  1  0  0  0  0  0  0  0  0  0
   40.2603    3.8897    0.5558 O   0  0  0  0  0  0  0  0  0  0  0  0
   43.9560    6.9814   -8.1631 C   0  0  2  0  0  0  0  0  0  0  0  0
   42.6542    7.1216   -7.4620 O   0  0  0  0  0  0  0  0  0  0  0  0
   47.9951    5.8696   -6.0955 C   0  0  2  0  0  0  0  0  0  0  0  0
   43.2322    5.8637   -3.8102 C   0  0  2  0  0  0  0  0  0  0  0  0
   44.2330    5.6932   -4.7064 O   0  0  0  0  0  0  0  0  0  0  0  0
   40.0561    6.3609    1.2213 C   0  0  2  0  0  0  0  0  0  0  0  0
   39.7943    7.7161    0.6862 O   0  0  0  0  0  0  0  0  0  0  0  0
   44.6678    5.6957   -7.6243 C   0  0  2  0  0  0  0  0  0  0  0  0
   45.9271    5.6297   -8.3414 O   0  0  0  0  0  0  0  0  0  0  0  0
   47.0654    4.6375   -5.8312 C   0  0  2  0  0  0  0  0  0  0  0  0
   46.0173    5.1974   -5.0775 O   0  0  0  0  0  0  0  0  0  0  0  0
   42.8822    7.3977   -3.8266 C   0  0  0  0  0  0  0  0  0  0  0  0
   41.9319    7.6678   -4.9052 O   0  0  0  0  0  0  0  0  0  0  0  0
   41.4940    6.3587    1.9080 C   0  0  1  0  0  0  0  0  0  0  0  0
   42.5069    6.6186    0.8125 O   0  0  0  0  0  0  0  0  0  0  0  0
   43.7692    4.5592   -7.9011 C   0  0  0  0  0  0  0  0  0  0  0  0
   42.7238    4.5737   -7.0631 O   0  0  0  0  0  0  0  0  0  0  0  0
   47.8423    3.4995   -5.0414 C   0  0  1  0  0  0  0  0  0  0  0  0
   47.0068    2.4045   -4.8198 O   0  0  0  0  0  0  0  0  0  0  0  0
   43.3861    2.2582   -4.4151 C   0  0  0  0  0  0  0  0  0  0  0  0
   41.4371    7.4769    3.0032 C   0  0  0  0  0  0  0  0  0  0  0  0
   41.3646    8.7987    2.4498 N   0  0  0  0  0  0  0  0  0  0  0  0
   42.8703    0.8331   -4.2101 C   0  0  0  0  0  0  0  0  0  0  0  0
   41.6701    0.9338   -3.3573 N   0  0  0  0  0  0  0  0  0  0  0  0
   40.3146    0.5813   -3.9736 C   0  0  0  0  0  0  0  0  0  0  0  0
  1  2  1  1  0  0  0
  1  8  1  0  0  0  0
  1 33  1  0  0  0  0
  3  4  1  1  0  0  0
  3 10  1  0  0  0  0
  3 42  1  0  0  0  0
  5 11  1  0  0  0  0
  5 29  1  0  0  0  0
  5 35  1  1  0  0  0
  6 13  1  0  0  0  0
  6 39  1  0  0  0  0
  6 22  1  6  0  0  0
  7 15  1  0  0  0  0
  8  9  1  1  0  0  0
  8 17  1  0  0  0  0
 10 19  1  0  0  0  0
 11 12  1  6  0  0  0
 11 21  1  0  0  0  0
 12 44  1  0  0  0  0
 13 14  1  1  0  0  0
 13 23  1  0  0  0  0
 15 16  1  0  0  0  0
 17 18  1  6  0  0  0
 17 25  1  0  0  0  0
 19 20  1  1  0  0  0
 19 27  1  0  0  0  0
 21 22  1  1  0  0  0
 21 28  1  0  0  0  0
 23 24  1  1  0  0  0
 23 30  1  0  0  0  0
 25 26  1  1  0  0  0
 25 32  1  0  0  0  0
 27  2  1  6  0  0  0
 27 34  1  0  0  0  0
 28 29  1  0  0  0  0
 28 36  1  1  0  0  0
 30 31  1  6  0  0  0
 30 38  1  0  0  0  0
 32 33  1  0  0  0  0
 32 40  1  6  0  0  0
 34 35  1  1  0  0  0
 34 42  1  0  0  0  0
 36 37  1  0  0  0  0
 38 39  1  0  0  0  0
 38 45  1  1  0  0  0
 40 41  1  0  0  0  0
 42 43  1  6  0  0  0
 44 47  1  0  0  0  0
 45 46  1  0  0  0  0
 47 48  1  0  0  0  0
 48 49  1  0  0  0  0
 49  7  1  0  0  0  0
M  END
>  <CHROM.1>
179.75165626,75.61672625,-63.72443822,179.79718298,-20.76662803,177.64989476
-71.98593682,52.05804935,-161.42946709,-73.79287773,-161.46957338,-69.04094717
72.18145123,112.52557263,97.17361712,175.26785843,43.93659900,5.00872594
-4.17004579,-0.12314265,0.81643376,0.38105928

>  <Name>
2bee_lig

>  <RI>
3.71943e+07

>  <Rbt.Current_Directory>
/home/itssahil/PROJECTS/Mol_Feturizer/New_Systems/rnas/2bee

>  <Rbt.Executable>
rbdock ($Id: //depot/dev/client3/rdock/2013.1/src/exe/rbdock.cxx#4 $)

>  <Rbt.Library>
libRbt.so (2013.1, Build901 2013/11/27)

>  <Rbt.Parameter_File>
/export/apps/rDock/src/rDock_2013.1_src/data/scripts/dock_solv.prm

>  <Rbt.Receptor>
prm/pocket_docking_2.prm

>  <SCORE>
1.27127

>  <SCORE.INTER>
7.57784

>  <SCORE.INTER.CONST>
1

>  <SCORE.INTER.POLAR>
0

>  <SCORE.INTER.ROT>
16

>  <SCORE.INTER.SOLV>
15.5758

>  <SCORE.INTER.VDW>
-14.4067

>  <SCORE.INTER.norm>
0.15465

>  <SCORE.INTRA>
-7.30512

>  <SCORE.INTRA.DIHEDRAL>
-17.7893

>  <SCORE.INTRA.DIHEDRAL.0>
36.0842

>  <SCORE.INTRA.POLAR>
0

>  <SCORE.INTRA.POLAR.0>
0

>  <SCORE.INTRA.REPUL>
0

>  <SCORE.INTRA.REPUL.0>
0

>  <SCORE.INTRA.SOLV>
2.17685

>  <SCORE.INTRA.SOLV.lig_0>
-126.444

>  <SCORE.INTRA.VDW>
0.50112

>  <SCORE.INTRA.VDW.0>
-7.40469

>  <SCORE.INTRA.norm>
-0.149084

>  <SCORE.RESTR>
0.998557

>  <SCORE.RESTR.CAVITY>
0.998557

>  <SCORE.RESTR.norm>
0.0203787

>  <SCORE.SYSTEM>
0

>  <SCORE.SYSTEM.CONST>
0

>  <SCORE.SYSTEM.DIHEDRAL>
0

>  <SCORE.SYSTEM.SOLV>
0

>  <SCORE.SYSTEM.norm>
0

>  <SCORE.heavy>
49

>  <SCORE.norm>
0.0259444

>  <RMSD>
2.817

$$$$
2bee_lig
 OpenBabel11021811423D
libRbt.so/2013.1/901 2013/11/27
 49 52  0  0  0  0  0  0  0  0999 V2000
   45.8404    5.8593   -8.4324 C   0  0  2  0  0  0  0  0  0  0  0  0
   46.0931    4.8346   -7.4793 O   0  0  0  0  0  0  0  0  0  0  0  0
   49.7957    3.4496   -5.5437 C   0  0  2  0  0  0  0  0  0  0  0  0
   51.0731    3.4981   -4.7817 N   0  0  0  0  0  0  0  0  0  0  0  0
   45.3141    3.6713   -3.8916 C   0  0  1  0  0  0  0  0  0  0  0  0
   42.9018    5.8406   -0.5446 C   0  0  1  0  0  0  0  0  0  0  0  0
   39.9295   -0.4887   -4.2971 C   0  0  0  0  0  0  0  0  0  0  0  0
   45.7212    7.2587   -7.7139 C   0  0  2  0  0  0  0  0  0  0  0  0
   46.9120    7.5109   -6.9096 N   0  0  0  0  0  0  0  0  0  0  0  0
   49.8805    4.4529   -6.7823 C   0  0  0  0  0  0  0  0  0  0  0  0
   45.0316    3.0379   -2.5682 C   0  0  2  0  0  0  0  0  0  0  0  0
   44.5079    1.6662   -2.6880 O   0  0  0  0  0  0  0  0  0  0  0  0
   43.7659    6.9816    0.2186 C   0  0  2  0  0  0  0  0  0  0  0  0
   44.3843    6.3611    1.4374 N   0  0  0  0  0  0  0  0  0  0  0  0
   40.0869   -0.1728   -5.6668 C   0  0  0  0  0  0  0  0  0  0  0  0
   39.6331   -1.0598   -6.6405 N   0  0  0  0  0  0  0  0  0  0  0  0
   44.3996    7.2837   -6.8279 C   0  0  1  0  0  0  0  0  0  0  0  0
   44.2985    8.5482   -6.1891 O   0  0  0  0  0  0  0  0  0  0  0  0
   48.4884    4.4385   -7.6387 C   0  0  2  0  0  0  0  0  0  0  0  0
   48.5575    5.3239   -8.7512 N   0  0  0  0  0  0  0  0  0  0  0  0
   44.1929    4.1637   -2.0131 C   0  0  2  0  0  0  0  0  0  0  0  0
   43.8464    4.7821   -0.8331 O   0  0  0  0  0  0  0  0  0  0  0  0
   42.7985    8.1518    0.6198 C   0  0  1  0  0  0  0  0  0  0  0  0
   42.2492    8.7129   -0.6233 O   0  0  0  0  0  0  0  0  0  0  0  0
   43.1772    7.0159   -7.7363 C   0  0  2  0  0  0  0  0  0  0  0  0
   41.9205    7.0151   -6.9446 O   0  0  0  0  0  0  0  0  0  0  0  0
   47.2828    4.8508   -6.7071 C   0  0  2  0  0  0  0  0  0  0  0  0
   43.3946    4.6855   -3.3085 C   0  0  2  0  0  0  0  0  0  0  0  0
   44.3414    4.6016   -4.2732 O   0  0  0  0  0  0  0  0  0  0  0  0
   41.6211    7.5657    1.5861 C   0  0  2  0  0  0  0  0  0  0  0  0
   42.1861    7.0015    2.8326 O   0  0  0  0  0  0  0  0  0  0  0  0
   43.3100    5.6280   -8.4477 C   0  0  2  0  0  0  0  0  0  0  0  0
   44.5554    5.6981   -9.1882 O   0  0  0  0  0  0  0  0  0  0  0  0
   47.2465    3.8408   -5.5108 C   0  0  2  0  0  0  0  0  0  0  0  0
   46.1358    4.2816   -4.7678 O   0  0  0  0  0  0  0  0  0  0  0  0
   42.8905    6.1760   -3.3137 C   0  0  0  0  0  0  0  0  0  0  0  0
   42.2824    6.4789   -4.6090 O   0  0  0  0  0  0  0  0  0  0  0  0
   40.8157    6.4162    0.8317 C   0  0  1  0  0  0  0  0  0  0  0  0
   41.8237    5.3576    0.4357 O   0  0  0  0  0  0  0  0  0  0  0  0
   42.1202    5.4692   -9.3050 C   0  0  0  0  0  0  0  0  0  0  0  0
   42.0586    6.4568  -10.2084 O   0  0  0  0  0  0  0  0  0  0  0  0
   48.5976    3.8990   -4.6780 C   0  0  1  0  0  0  0  0  0  0  0  0
   48.5567    2.9893   -3.6211 O   0  0  0  0  0  0  0  0  0  0  0  0
   43.9118    1.0895   -3.9042 C   0  0  0  0  0  0  0  0  0  0  0  0
   39.7372    5.9204    1.8536 C   0  0  0  0  0  0  0  0  0  0  0  0
   39.6563    4.4900    1.9314 N   0  0  0  0  0  0  0  0  0  0  0  0
   42.4920    1.6314   -4.0759 C   0  0  0  0  0  0  0  0  0  0  0  0
   41.6500    0.9412   -3.0795 N   0  0  0  0  0  0  0  0  0  0  0  0
   41.2284   -0.5016   -3.3656 C   0  0  0  0  0  0  0  0  0  0  0  0
  1  2  1  1  0  0  0
  1  8  1  0  0  0  0
  1 33  1  0  0  0  0
  3  4  1  1  0  0  0
  3 10  1  0  0  0  0
  3 42  1  0  0  0  0
  5 11  1  0  0  0  0
  5 29  1  0  0  0  0
  5 35  1  1  0  0  0
  6 13  1  0  0  0  0
  6 39  1  0  0  0  0
  6 22  1  1  0  0  0
  7 15  1  0  0  0  0
  8  9  1  1  0  0  0
  8 17  1  0  0  0  0
 10 19  1  0  0  0  0
 11 12  1  6  0  0  0
 11 21  1  0  0  0  0
 12 44  1  0  0  0  0
 13 14  1  1  0  0  0
 13 23  1  0  0  0  0
 15 16  1  0  0  0  0
 17 18  1  6  0  0  0
 17 25  1  0  0  0  0
 19 20  1  6  0  0  0
 19 27  1  0  0  0  0
 21 22  1  1  0  0  0
 21 28  1  0  0  0  0
 23 24  1  6  0  0  0
 23 30  1  0  0  0  0
 25 26  1  1  0  0  0
 25 32  1  0  0  0  0
 27  2  1  6  0  0  0
 27 34  1  0  0  0  0
 28 29  1  0  0  0  0
 28 36  1  1  0  0  0
 30 31  1  1  0  0  0
 30 38  1  0  0  0  0
 32 33  1  0  0  0  0
 32 40  1  6  0  0  0
 34 35  1  1  0  0  0
 34 42  1  0  0  0  0
 36 37  1  0  0  0  0
 38 39  1  0  0  0  0
 38 45  1  1  0  0  0
 40 41  1  0  0  0  0
 42 43  1  1  0  0  0
 44 47  1  0  0  0  0
 45 46  1  0  0  0  0
 47 48  1  0  0  0  0
 48 49  1  0  0  0  0
 49  7  1  0  0  0  0
M  END
>  <CHROM.1>
-62.76116561,69.66643416,-124.81329757,124.30187610,-18.55363498,-76.45692505
-174.85815318,-73.55407327,175.82318719,59.65385931,156.38962421,-134.11941291
-74.69423060,-76.76056469,-84.00713868,75.03074230,44.10599421,4.77116795
-4.12609058,-0.87793903,0.62441176,1.06877920

>  <Name>
2bee_lig

>  <RI>
3.71943e+07

>  <Rbt.Current_Directory>
/home/itssahil/PROJECTS/Mol_Feturizer/New_Systems/rnas/2bee

>  <Rbt.Executable>
rbdock ($Id: //depot/dev/client3/rdock/2013.1/src/exe/rbdock.cxx#4 $)

>  <Rbt.Library>
libRbt.so (2013.1, Build901 2013/11/27)

>  <Rbt.Parameter_File>
/export/apps/rDock/src/rDock_2013.1_src/data/scripts/dock_solv.prm

>  <Rbt.Receptor>
prm/pocket_docking_2.prm

>  <SCORE>
12.6797

>  <SCORE.INTER>
4.30175

>  <SCORE.INTER.CONST>
1

>  <SCORE.INTER.POLAR>
-0.640656

>  <SCORE.INTER.ROT>
16

>  <SCORE.INTER.SOLV>
20.4998

>  <SCORE.INTER.VDW>
-16.0966

>  <SCORE.INTER.norm>
0.0877907

>  <SCORE.INTRA>
6.70323

>  <SCORE.INTRA.DIHEDRAL>
-0.539531

>  <SCORE.INTRA.DIHEDRAL.0>
36.0842

>  <SCORE.INTRA.POLAR>
0

>  <SCORE.INTRA.POLAR.0>
0

>  <SCORE.INTRA.REPUL>
0

>  <SCORE.INTRA.REPUL.0>
0

>  <SCORE.INTRA.SOLV>
2.98101

>  <SCORE.INTRA.SOLV.lig_0>
-126.444

>  <SCORE.INTRA.VDW>
5.48248

>  <SCORE.INTRA.VDW.0>
-7.40469

>  <SCORE.INTRA.norm>
0.136801

>  <SCORE.RESTR>
1.67477

>  <SCORE.RESTR.CAVITY>
1.67477

>  <SCORE.RESTR.norm>
0.0341789

>  <SCORE.SYSTEM>
0

>  <SCORE.SYSTEM.CONST>
0

>  <SCORE.SYSTEM.DIHEDRAL>
0

>  <SCORE.SYSTEM.SOLV>
0

>  <SCORE.SYSTEM.norm>
0

>  <SCORE.heavy>
49

>  <SCORE.norm>
0.25877

>  <RMSD>
2.869

$$$$
2bee_lig
 OpenBabel11021811423D
libRbt.so/2013.1/901 2013/11/27
 49 52  0  0  0  0  0  0  0  0999 V2000
   47.0127    6.9012   -8.1452 C   0  0  2  0  0  0  0  0  0  0  0  0
   47.2714    7.0799   -6.7584 O   0  0  0  0  0  0  0  0  0  0  0  0
   48.6214    3.0398   -5.6497 C   0  0  2  0  0  0  0  0  0  0  0  0
   49.2109    1.9402   -4.8383 N   0  0  0  0  0  0  0  0  0  0  0  0
   44.6660    4.9596   -4.4494 C   0  0  1  0  0  0  0  0  0  0  0  0
   42.3269    5.9658   -0.4158 C   0  0  1  0  0  0  0  0  0  0  0  0
   40.8564   -0.3985   -5.8639 C   0  0  0  0  0  0  0  0  0  0  0  0
   46.4827    8.2442   -8.7812 C   0  0  2  0  0  0  0  0  0  0  0  0
   47.4206    9.3290   -8.5124 N   0  0  0  0  0  0  0  0  0  0  0  0
   49.6912    4.2143   -5.8049 C   0  0  0  0  0  0  0  0  0  0  0  0
   44.1577    4.4274   -3.1491 C   0  0  2  0  0  0  0  0  0  0  0  0
   43.4880    3.1223   -3.2851 O   0  0  0  0  0  0  0  0  0  0  0  0
   40.9559    5.2579   -0.9158 C   0  0  2  0  0  0  0  0  0  0  0  0
   40.1895    6.2535   -1.7371 N   0  0  0  0  0  0  0  0  0  0  0  0
   42.0816   -1.0896   -6.0119 C   0  0  0  0  0  0  0  0  0  0  0  0
   43.2863   -0.4001   -5.8938 N   0  0  0  0  0  0  0  0  0  0  0  0
   45.0353    8.5643   -8.2028 C   0  0  1  0  0  0  0  0  0  0  0  0
   44.5647    9.7717   -8.7841 O   0  0  0  0  0  0  0  0  0  0  0  0
   49.0757    5.4494   -6.6807 C   0  0  2  0  0  0  0  0  0  0  0  0
   50.0259    6.4985   -6.8324 N   0  0  0  0  0  0  0  0  0  0  0  0
   43.4042    5.6687   -2.7366 C   0  0  2  0  0  0  0  0  0  0  0  0
   43.0020    6.3788   -1.6280 O   0  0  0  0  0  0  0  0  0  0  0  0
   40.1302    4.8261    0.3483 C   0  0  1  0  0  0  0  0  0  0  0  0
   40.9389    3.8449    1.0865 O   0  0  0  0  0  0  0  0  0  0  0  0
   44.0904    7.3830   -8.5235 C   0  0  2  0  0  0  0  0  0  0  0  0
   42.7288    7.6344   -7.9862 O   0  0  0  0  0  0  0  0  0  0  0  0
   47.7769    6.0079   -5.9791 C   0  0  2  0  0  0  0  0  0  0  0  0
   42.8301    6.2182   -4.1352 C   0  0  2  0  0  0  0  0  0  0  0  0
   43.8644    5.9784   -4.9759 O   0  0  0  0  0  0  0  0  0  0  0  0
   39.8105    6.1450    1.2550 C   0  0  2  0  0  0  0  0  0  0  0  0
   38.9984    7.1263    0.5008 O   0  0  0  0  0  0  0  0  0  0  0  0
   44.6297    6.0560   -7.8925 C   0  0  2  0  0  0  0  0  0  0  0  0
   45.9570    5.8814   -8.4514 O   0  0  0  0  0  0  0  0  0  0  0  0
   46.7653    4.8195   -5.8486 C   0  0  2  0  0  0  0  0  0  0  0  0
   45.6514    5.4272   -5.2405 O   0  0  0  0  0  0  0  0  0  0  0  0
   42.5155    7.7556   -4.2506 C   0  0  0  0  0  0  0  0  0  0  0  0
   43.6877    8.5242   -3.8326 O   0  0  0  0  0  0  0  0  0  0  0  0
   41.1704    6.8485    1.6964 C   0  0  1  0  0  0  0  0  0  0  0  0
   41.9259    7.1843    0.4275 O   0  0  0  0  0  0  0  0  0  0  0  0
   43.6849    4.9871   -8.2672 C   0  0  0  0  0  0  0  0  0  0  0  0
   43.9435    3.8694   -7.5750 O   0  0  0  0  0  0  0  0  0  0  0  0
   47.3764    3.6484   -4.9669 C   0  0  1  0  0  0  0  0  0  0  0  0
   46.4701    2.5927   -4.8653 O   0  0  0  0  0  0  0  0  0  0  0  0
   42.5647    2.5363   -2.2997 C   0  0  0  0  0  0  0  0  0  0  0  0
   40.7418    8.1002    2.5346 C   0  0  0  0  0  0  0  0  0  0  0  0
   40.0893    9.1051    1.7453 N   0  0  0  0  0  0  0  0  0  0  0  0
   42.1843    1.1229   -2.7430 C   0  0  0  0  0  0  0  0  0  0  0  0
   41.4749    1.2573   -4.0302 N   0  0  0  0  0  0  0  0  0  0  0  0
   40.4728    0.1685   -4.4195 C   0  0  0  0  0  0  0  0  0  0  0  0
  1  2  1  1  0  0  0
  1  8  1  0  0  0  0
  1 33  1  0  0  0  0
  3  4  1  1  0  0  0
  3 10  1  0  0  0  0
  3 42  1  0  0  0  0
  5 11  1  0  0  0  0
  5 29  1  0  0  0  0
  5 35  1  1  0  0  0
  6 13  1  0  0  0  0
  6 39  1  0  0  0  0
  6 22  1  6  0  0  0
  7 15  1  0  0  0  0
  8  9  1  1  0  0  0
  8 17  1  0  0  0  0
 10 19  1  0  0  0  0
 11 12  1  6  0  0  0
 11 21  1  0  0  0  0
 12 44  1  0  0  0  0
 13 14  1  1  0  0  0
 13 23  1  0  0  0  0
 15 16  1  0  0  0  0
 17 18  1  6  0  0  0
 17 25  1  0  0  0  0
 19 20  1  1  0  0  0
 19 27  1  0  0  0  0
 21 22  1  1  0  0  0
 21 28  1  0  0  0  0
 23 24  1  1  0  0  0
 23 30  1  0  0  0  0
 25 26  1  1  0  0  0
 25 32  1  0  0  0  0
 27  2  1  6  0  0  0
 27 34  1  0  0  0  0
 28 29  1  0  0  0  0
 28 36  1  1  0  0  0
 30 31  1  6  0  0  0
 30 38  1  0  0  0  0
 32 33  1  0  0  0  0
 32 40  1  6  0  0  0
 34 35  1  1  0  0  0
 34 42  1  0  0  0  0
 36 37  1  0  0  0  0
 38 39  1  0  0  0  0
 38 45  1  6  0  0  0
 40 41  1  0  0  0  0
 42 43  1  6  0  0  0
 44 47  1  0  0  0  0
 45 46  1  0  0  0  0
 47 48  1  0  0  0  0
 48 49  1  0  0  0  0
 49  7  1  0  0  0  0
M  END
>  <CHROM.1>
-179.04797659,70.97952297,-56.44234044,-68.31654035,-161.34053183,-174.83094889
-49.61942172,53.37073681,52.18821032,-169.11371104,-152.93624912,-67.77947715
-62.76360399,-153.91870083,-125.74340363,65.28842867,43.96090464,5.24494257
-4.32265066,-0.08467000,0.87579935,0.15323945

>  <Name>
2bee_lig

>  <RI>
3.71943e+07

>  <Rbt.Current_Directory>
/home/itssahil/PROJECTS/Mol_Feturizer/New_Systems/rnas/2bee

>  <Rbt.Executable>
rbdock ($Id: //depot/dev/client3/rdock/2013.1/src/exe/rbdock.cxx#4 $)

>  <Rbt.Library>
libRbt.so (2013.1, Build901 2013/11/27)

>  <Rbt.Parameter_File>
/export/apps/rDock/src/rDock_2013.1_src/data/scripts/dock_solv.prm

>  <Rbt.Receptor>
prm/pocket_docking_2.prm

>  <SCORE>
-1.27184

>  <SCORE.INTER>
5.90624

>  <SCORE.INTER.CONST>
1

>  <SCORE.INTER.POLAR>
-0.460193

>  <SCORE.INTER.ROT>
16

>  <SCORE.INTER.SOLV>
15.7716

>  <SCORE.INTER.VDW>
-14.0524

>  <SCORE.INTER.norm>
0.120535

>  <SCORE.INTRA>
-9.75643

>  <SCORE.INTRA.DIHEDRAL>
-21.9881

>  <SCORE.INTRA.DIHEDRAL.0>
36.0842

>  <SCORE.INTRA.POLAR>
0

>  <SCORE.INTRA.POLAR.0>
0

>  <SCORE.INTRA.REPUL>
0.00450005

>  <SCORE.INTRA.REPUL.0>
0

>  <SCORE.INTRA.SOLV>
3.94827

>  <SCORE.INTRA.SOLV.lig_0>
-126.444

>  <SCORE.INTRA.VDW>
-0.759016

>  <SCORE.INTRA.VDW.0>
-7.40469

>  <SCORE.INTRA.norm>
-0.199111

>  <SCORE.RESTR>
2.57836

>  <SCORE.RESTR.CAVITY>
2.57836

>  <SCORE.RESTR.norm>
0.0526196

>  <SCORE.SYSTEM>
0

>  <SCORE.SYSTEM.CONST>
0

>  <SCORE.SYSTEM.DIHEDRAL>
0

>  <SCORE.SYSTEM.SOLV>
0

>  <SCORE.SYSTEM.norm>
0

>  <SCORE.heavy>
49

>  <SCORE.norm>
-0.0259559

>  <RMSD>
2.882

$$$$
2bee_lig
 OpenBabel11021811423D
libRbt.so/2013.1/901 2013/11/27
 49 52  0  0  0  0  0  0  0  0999 V2000
   46.1454    6.3170   -7.6650 C   0  0  2  0  0  0  0  0  0  0  0  0
   46.2481    4.9719   -7.2154 O   0  0  0  0  0  0  0  0  0  0  0  0
   49.2477    2.5989   -5.0370 C   0  0  2  0  0  0  0  0  0  0  0  0
   50.3077    2.2593   -4.0491 N   0  0  0  0  0  0  0  0  0  0  0  0
   44.9434    3.3539   -3.7100 C   0  0  1  0  0  0  0  0  0  0  0  0
   42.7039    5.8270   -0.3393 C   0  0  1  0  0  0  0  0  0  0  0  0
   42.1964   -2.1896   -4.7543 C   0  0  0  0  0  0  0  0  0  0  0  0
   45.4043    7.1998   -6.5878 C   0  0  2  0  0  0  0  0  0  0  0  0
   46.0741    7.0808   -5.2971 N   0  0  0  0  0  0  0  0  0  0  0  0
   49.7130    3.8589   -5.8995 C   0  0  0  0  0  0  0  0  0  0  0  0
   44.8877    3.0473   -2.2486 C   0  0  2  0  0  0  0  0  0  0  0  0
   44.4166    1.6803   -1.9661 O   0  0  0  0  0  0  0  0  0  0  0  0
   43.2125    6.7711    0.8777 C   0  0  2  0  0  0  0  0  0  0  0  0
   43.8570    5.8934    1.9108 N   0  0  0  0  0  0  0  0  0  0  0  0
   40.8992   -1.8247   -4.3243 C   0  0  0  0  0  0  0  0  0  0  0  0
   40.0151   -2.8038   -3.8766 N   0  0  0  0  0  0  0  0  0  0  0  0
   43.8798    6.7523   -6.5002 C   0  0  1  0  0  0  0  0  0  0  0  0
   43.2201    7.5551   -5.5320 O   0  0  0  0  0  0  0  0  0  0  0  0
   48.5675    4.2724   -6.9896 C   0  0  2  0  0  0  0  0  0  0  0  0
   48.9772    5.3900   -7.7702 N   0  0  0  0  0  0  0  0  0  0  0  0
   44.0879    4.2630   -1.8471 C   0  0  2  0  0  0  0  0  0  0  0  0
   43.8897    5.1382   -0.8033 O   0  0  0  0  0  0  0  0  0  0  0  0
   41.9693    7.5184    1.4795 C   0  0  1  0  0  0  0  0  0  0  0  0
   41.4076    8.3632    0.4152 O   0  0  0  0  0  0  0  0  0  0  0  0
   43.2272    6.9059   -7.8937 C   0  0  2  0  0  0  0  0  0  0  0  0
   41.8039    6.4830   -7.8602 O   0  0  0  0  0  0  0  0  0  0  0  0
   47.2179    4.6119   -6.2450 C   0  0  2  0  0  0  0  0  0  0  0  0
   43.0849    4.4560   -3.0898 C   0  0  2  0  0  0  0  0  0  0  0  0
   43.8829    4.1574   -4.1424 O   0  0  0  0  0  0  0  0  0  0  0  0
   40.8863    6.4172    2.0068 C   0  0  2  0  0  0  0  0  0  0  0  0
   41.4637    5.5713    3.0757 O   0  0  0  0  0  0  0  0  0  0  0  0
   43.9746    6.0305   -8.9543 C   0  0  2  0  0  0  0  0  0  0  0  0
   45.3504    6.4895   -8.9246 O   0  0  0  0  0  0  0  0  0  0  0  0
   46.8090    3.3490   -5.4141 C   0  0  2  0  0  0  0  0  0  0  0  0
   45.5984    3.7494   -4.8190 O   0  0  0  0  0  0  0  0  0  0  0  0
   42.5166    5.8977   -3.3621 C   0  0  0  0  0  0  0  0  0  0  0  0
   41.5411    5.8380   -4.4504 O   0  0  0  0  0  0  0  0  0  0  0  0
   40.4358    5.4734    0.8045 C   0  0  1  0  0  0  0  0  0  0  0  0
   41.6919    4.8344    0.2501 O   0  0  0  0  0  0  0  0  0  0  0  0
   43.3034    6.2568  -10.2481 C   0  0  0  0  0  0  0  0  0  0  0  0
   44.0341    5.7494  -11.2500 O   0  0  0  0  0  0  0  0  0  0  0  0
   47.9243    2.9896   -4.3421 C   0  0  1  0  0  0  0  0  0  0  0  0
   47.5528    1.8585   -3.6148 O   0  0  0  0  0  0  0  0  0  0  0  0
   45.0840    0.4451   -2.4087 C   0  0  0  0  0  0  0  0  0  0  0  0
   39.4231    4.4545    1.4285 C   0  0  0  0  0  0  0  0  0  0  0  0
   38.9479    3.4871    0.4814 N   0  0  0  0  0  0  0  0  0  0  0  0
   44.0269   -0.5745   -2.8352 C   0  0  0  0  0  0  0  0  0  0  0  0
   43.4133   -0.0581   -4.0741 N   0  0  0  0  0  0  0  0  0  0  0  0
   43.1923   -1.0341   -5.2316 C   0  0  0  0  0  0  0  0  0  0  0  0
  1  2  1  1  0  0  0
  1  8  1  0  0  0  0
  1 33  1  0  0  0  0
  3  4  1  1  0  0  0
  3 10  1  0  0  0  0
  3 42  1  0  0  0  0
  5 11  1  0  0  0  0
  5 29  1  0  0  0  0
  5 35  1  1  0  0  0
  6 13  1  0  0  0  0
  6 39  1  0  0  0  0
  6 22  1  1  0  0  0
  7 15  1  0  0  0  0
  8  9  1  1  0  0  0
  8 17  1  0  0  0  0
 10 19  1  0  0  0  0
 11 12  1  6  0  0  0
 11 21  1  0  0  0  0
 12 44  1  0  0  0  0
 13 14  1  1  0  0  0
 13 23  1  0  0  0  0
 15 16  1  0  0  0  0
 17 18  1  1  0  0  0
 17 25  1  0  0  0  0
 19 20  1  1  0  0  0
 19 27  1  0  0  0  0
 21 22  1  1  0  0  0
 21 28  1  0  0  0  0
 23 24  1  6  0  0  0
 23 30  1  0  0  0  0
 25 26  1  1  0  0  0
 25 32  1  0  0  0  0
 27  2  1  6  0  0  0
 27 34  1  0  0  0  0
 28 29  1  0  0  0  0
 28 36  1  6  0  0  0
 30 31  1  1  0  0  0
 30 38  1  0  0  0  0
 32 33  1  0  0  0  0
 32 40  1  6  0  0  0
 34 35  1  1  0  0  0
 34 42  1  0  0  0  0
 36 37  1  0  0  0  0
 38 39  1  0  0  0  0
 38 45  1  1  0  0  0
 40 41  1  0  0  0  0
 42 43  1  6  0  0  0
 44 47  1  0  0  0  0
 45 46  1  0  0  0  0
 47 48  1  0  0  0  0
 48 49  1  0  0  0  0
 49  7  1  0  0  0  0
M  END
>  <CHROM.1>
-77.16983921,50.91919934,-176.46658291,-178.71920988,61.14632761,-140.58295669
-145.54106419,-86.92024832,-175.01611772,168.12750222,-155.86181310,-177.88049716
68.94713934,135.29279120,61.48396618,59.92892236,44.10481581,4.23920451,-3.86444458
0.18687113,1.03198717,-0.20712174

>  <Name>
2bee_lig

>  <RI>
2.18182e+07

>  <Rbt.Current_Directory>
/home/itssahil/PROJECTS/Mol_Feturizer/New_Systems/rnas/2bee

>  <Rbt.Executable>
rbdock ($Id: //depot/dev/client3/rdock/2013.1/src/exe/rbdock.cxx#4 $)

>  <Rbt.Library>
libRbt.so (2013.1, Build901 2013/11/27)

>  <Rbt.Parameter_File>
/export/apps/rDock/src/rDock_2013.1_src/data/scripts/dock_solv.prm

>  <Rbt.Receptor>
prm/pocket_docking_3.prm

>  <SCORE>
-3.4084

>  <SCORE.INTER>
2.7167

>  <SCORE.INTER.CONST>
1

>  <SCORE.INTER.POLAR>
0

>  <SCORE.INTER.ROT>
16

>  <SCORE.INTER.SOLV>
21.2046

>  <SCORE.INTER.VDW>
-19.5237

>  <SCORE.INTER.norm>
0.0554429

>  <SCORE.INTRA>
-6.1251

>  <SCORE.INTRA.DIHEDRAL>
-16.9766

>  <SCORE.INTRA.DIHEDRAL.0>
36.0842

>  <SCORE.INTRA.POLAR>
0

>  <SCORE.INTRA.POLAR.0>
0

>  <SCORE.INTRA.REPUL>
0

>  <SCORE.INTRA.REPUL.0>
0

>  <SCORE.INTRA.SOLV>
0.847465

>  <SCORE.INTRA.SOLV.lig_0>
-126.444

>  <SCORE.INTRA.VDW>
1.93944

>  <SCORE.INTRA.VDW.0>
-7.40469

>  <SCORE.INTRA.norm>
-0.125002

>  <SCORE.RESTR>
0

>  <SCORE.RESTR.CAVITY>
0

>  <SCORE.RESTR.norm>
0

>  <SCORE.SYSTEM>
0

>  <SCORE.SYSTEM.CONST>
0

>  <SCORE.SYSTEM.DIHEDRAL>
0

>  <SCORE.SYSTEM.SOLV>
0

>  <SCORE.SYSTEM.norm>
0

>  <SCORE.heavy>
49

>  <SCORE.norm>
-0.0695592

>  <RMSD>
2.957

$$$$
2bee_lig
 OpenBabel11021811423D
libRbt.so/2013.1/901 2013/11/27
 49 52  0  0  0  0  0  0  0  0999 V2000
   46.4411    6.8405   -7.5952 C   0  0  2  0  0  0  0  0  0  0  0  0
   46.2123    6.8629   -6.1919 O   0  0  0  0  0  0  0  0  0  0  0  0
   47.0361    2.6801   -5.0966 C   0  0  2  0  0  0  0  0  0  0  0  0
   47.3988    1.5029   -4.2615 N   0  0  0  0  0  0  0  0  0  0  0  0
   43.0468    4.8889   -4.5694 C   0  0  1  0  0  0  0  0  0  0  0  0
   41.8481    6.4228   -0.5512 C   0  0  1  0  0  0  0  0  0  0  0  0
   43.4404   -1.5431   -4.0940 C   0  0  0  0  0  0  0  0  0  0  0  0
   45.8509    8.1400   -8.2675 C   0  0  2  0  0  0  0  0  0  0  0  0
   46.3959    9.3290   -7.6210 N   0  0  0  0  0  0  0  0  0  0  0  0
   48.2095    3.7600   -5.0261 C   0  0  0  0  0  0  0  0  0  0  0  0
   42.1923    4.1311   -3.6061 C   0  0  2  0  0  0  0  0  0  0  0  0
   41.3082    3.1555   -4.2670 O   0  0  0  0  0  0  0  0  0  0  0  0
   42.7301    5.2781    0.1855 C   0  0  2  0  0  0  0  0  0  0  0  0
   41.8024    4.1794    0.6158 N   0  0  0  0  0  0  0  0  0  0  0  0
   42.8107   -2.0126   -5.2704 C   0  0  0  0  0  0  0  0  0  0  0  0
   41.9460   -3.1029   -5.2073 N   0  0  0  0  0  0  0  0  0  0  0  0
   44.2625    8.1018   -8.1803 C   0  0  1  0  0  0  0  0  0  0  0  0
   43.7404    9.2725   -8.7917 O   0  0  0  0  0  0  0  0  0  0  0  0
   47.8424    5.0770   -5.9219 C   0  0  2  0  0  0  0  0  0  0  0  0
   48.8873    6.0424   -5.8726 N   0  0  0  0  0  0  0  0  0  0  0  0
   41.6448    5.3341   -2.8769 C   0  0  2  0  0  0  0  0  0  0  0  0
   41.1864    5.7435   -1.6451 O   0  0  0  0  0  0  0  0  0  0  0  0
   43.4430    5.9229    1.4273 C   0  0  1  0  0  0  0  0  0  0  0  0
   44.3397    6.9730    0.9222 O   0  0  0  0  0  0  0  0  0  0  0  0
   43.7484    6.8251   -8.8852 C   0  0  2  0  0  0  0  0  0  0  0  0
   42.2672    6.7417   -8.8134 O   0  0  0  0  0  0  0  0  0  0  0  0
   46.4996    5.7218   -5.4000 C   0  0  2  0  0  0  0  0  0  0  0  0
   41.4852    6.4208   -4.0520 C   0  0  2  0  0  0  0  0  0  0  0  0
   42.5933    6.1928   -4.7965 O   0  0  0  0  0  0  0  0  0  0  0  0
   42.3140    6.5312    2.4366 C   0  0  2  0  0  0  0  0  0  0  0  0
   41.4161    5.4657    2.9363 O   0  0  0  0  0  0  0  0  0  0  0  0
   44.3452    5.5436   -8.2134 C   0  0  2  0  0  0  0  0  0  0  0  0
   45.7843    5.6984   -8.3111 O   0  0  0  0  0  0  0  0  0  0  0  0
   45.3863    4.6239   -5.4867 C   0  0  2  0  0  0  0  0  0  0  0  0
   44.2443    5.3049   -5.0262 O   0  0  0  0  0  0  0  0  0  0  0  0
   41.5238    7.9439   -3.6587 C   0  0  0  0  0  0  0  0  0  0  0  0
   42.8070    8.2502   -3.0269 O   0  0  0  0  0  0  0  0  0  0  0  0
   41.4317    7.6201    1.6783 C   0  0  1  0  0  0  0  0  0  0  0  0
   40.8245    6.9343    0.4722 O   0  0  0  0  0  0  0  0  0  0  0  0
   43.8230    4.3839   -8.9606 C   0  0  0  0  0  0  0  0  0  0  0  0
   44.1608    4.4696  -10.2544 O   0  0  0  0  0  0  0  0  0  0  0  0
   45.7534    3.3709   -4.5824 C   0  0  1  0  0  0  0  0  0  0  0  0
   44.7590    2.3967   -4.6748 O   0  0  0  0  0  0  0  0  0  0  0  0
   40.3540    2.2723   -3.5767 C   0  0  0  0  0  0  0  0  0  0  0  0
   40.3801    8.1130    2.7292 C   0  0  0  0  0  0  0  0  0  0  0  0
   39.3500    7.1474    2.9848 N   0  0  0  0  0  0  0  0  0  0  0  0
   41.1237    1.2971   -2.6848 C   0  0  0  0  0  0  0  0  0  0  0  0
   41.8709    0.3970   -3.5845 N   0  0  0  0  0  0  0  0  0  0  0  0
   42.5385   -0.8391   -2.9779 C   0  0  0  0  0  0  0  0  0  0  0  0
  1  2  1  1  0  0  0
  1  8  1  0  0  0  0
  1 33  1  0  0  0  0
  3  4  1  1  0  0  0
  3 10  1  0  0  0  0
  3 42  1  0  0  0  0
  5 11  1  0  0  0  0
  5 29  1  0  0  0  0
  5 35  1  1  0  0  0
  6 13  1  0  0  0  0
  6 39  1  0  0  0  0
  6 22  1  6  0  0  0
  7 15  1  0  0  0  0
  8  9  1  1  0  0  0
  8 17  1  0  0  0  0
 10 19  1  0  0  0  0
 11 12  1  6  0  0  0
 11 21  1  0  0  0  0
 12 44  1  0  0  0  0
 13 14  1  1  0  0  0
 13 23  1  0  0  0  0
 15 16  1  0  0  0  0
 17 18  1  6  0  0  0
 17 25  1  0  0  0  0
 19 20  1  1  0  0  0
 19 27  1  0  0  0  0
 21 22  1  6  0  0  0
 21 28  1  0  0  0  0
 23 24  1  6  0  0  0
 23 30  1  0  0  0  0
 25 26  1  1  0  0  0
 25 32  1  0  0  0  0
 27  2  1  6  0  0  0
 27 34  1  0  0  0  0
 28 29  1  0  0  0  0
 28 36  1  1  0  0  0
 30 31  1  6  0  0  0
 30 38  1  0  0  0  0
 32 33  1  0  0  0  0
 32 40  1  6  0  0  0
 34 35  1  1  0  0  0
 34 42  1  0  0  0  0
 36 37  1  0  0  0  0
 38 39  1  0  0  0  0
 38 45  1  1  0  0  0
 40 41  1  0  0  0  0
 42 43  1  6  0  0  0
 44 47  1  0  0  0  0
 45 46  1  0  0  0  0
 47 48  1  0  0  0  0
 48 49  1  0  0  0  0
 49  7  1  0  0  0  0
M  END
>  <CHROM.1>
171.79801815,59.55263230,-77.41186409,-68.92168232,-179.74385779,-64.57437250
96.13839766,39.70277064,59.96840562,58.18717026,-162.43419079,-73.53954587
-67.68554704,-169.40254878,-172.49353435,-60.42542759,43.54128727,4.95309763
-4.00315231,-0.19138287,1.13201076,0.18339133

>  <Name>
2bee_lig

>  <RI>
2.18182e+07

>  <Rbt.Current_Directory>
/home/itssahil/PROJECTS/Mol_Feturizer/New_Systems/rnas/2bee

>  <Rbt.Executable>
rbdock ($Id: //depot/dev/client3/rdock/2013.1/src/exe/rbdock.cxx#4 $)

>  <Rbt.Library>
libRbt.so (2013.1, Build901 2013/11/27)

>  <Rbt.Parameter_File>
/export/apps/rDock/src/rDock_2013.1_src/data/scripts/dock_solv.prm

>  <Rbt.Receptor>
prm/pocket_docking_3.prm

>  <SCORE>
-14.0951

>  <SCORE.INTER>
-3.4115

>  <SCORE.INTER.CONST>
1

>  <SCORE.INTER.POLAR>
-0.640174

>  <SCORE.INTER.ROT>
16

>  <SCORE.INTER.SOLV>
20.5954

>  <SCORE.INTER.VDW>
-21.2722

>  <SCORE.INTER.norm>
-0.0696225

>  <SCORE.INTRA>
-10.7165

>  <SCORE.INTRA.DIHEDRAL>
-25.1895

>  <SCORE.INTRA.DIHEDRAL.0>
36.0842

>  <SCORE.INTRA.POLAR>
0

>  <SCORE.INTRA.POLAR.0>
0

>  <SCORE.INTRA.REPUL>
0

>  <SCORE.INTRA.REPUL.0>
0

>  <SCORE.INTRA.SOLV>
1.14464

>  <SCORE.INTRA.SOLV.lig_0>
-126.444

>  <SCORE.INTRA.VDW>
1.30593

>  <SCORE.INTRA.VDW.0>
-7.40469

>  <SCORE.INTRA.norm>
-0.218704

>  <SCORE.RESTR>
0.0328927

>  <SCORE.RESTR.CAVITY>
0.0328927

>  <SCORE.RESTR.norm>
0.00067128

>  <SCORE.SYSTEM>
0

>  <SCORE.SYSTEM.CONST>
0

>  <SCORE.SYSTEM.DIHEDRAL>
0

>  <SCORE.SYSTEM.SOLV>
0

>  <SCORE.SYSTEM.norm>
0

>  <SCORE.heavy>
49

>  <SCORE.norm>
-0.287656

>  <RMSD>
3.036

$$$$
2bee_lig
 OpenBabel11021811423D
libRbt.so/2013.1/901 2013/11/27
 49 52  0  0  0  0  0  0  0  0999 V2000
   46.7112    6.7885   -7.8637 C   0  0  2  0  0  0  0  0  0  0  0  0
   46.6801    6.6208   -6.4519 O   0  0  0  0  0  0  0  0  0  0  0  0
   48.4162    2.5947   -6.0633 C   0  0  2  0  0  0  0  0  0  0  0  0
   49.0217    1.3926   -5.4283 N   0  0  0  0  0  0  0  0  0  0  0  0
   44.6184    4.6580   -4.4560 C   0  0  1  0  0  0  0  0  0  0  0  0
   43.1436    8.4907   -2.0443 C   0  0  1  0  0  0  0  0  0  0  0  0
   41.0510   -0.2680   -2.7521 C   0  0  0  0  0  0  0  0  0  0  0  0
   45.9368    8.0995   -8.2769 C   0  0  2  0  0  0  0  0  0  0  0  0
   46.4762    9.2472   -7.5555 N   0  0  0  0  0  0  0  0  0  0  0  0
   49.3101    3.8748   -5.7316 C   0  0  0  0  0  0  0  0  0  0  0  0
   44.7945    4.9839   -3.0084 C   0  0  2  0  0  0  0  0  0  0  0  0
   44.2910    3.9255   -2.1160 O   0  0  0  0  0  0  0  0  0  0  0  0
   43.6788    9.1469   -0.6609 C   0  0  2  0  0  0  0  0  0  0  0  0
   43.9630    8.0330    0.3043 N   0  0  0  0  0  0  0  0  0  0  0  0
   41.7158   -1.1928   -3.5908 C   0  0  0  0  0  0  0  0  0  0  0  0
   41.2390   -1.4303   -4.8780 N   0  0  0  0  0  0  0  0  0  0  0  0
   44.3837    7.9047   -7.9907 C   0  0  1  0  0  0  0  0  0  0  0  0
   43.6947    9.0873   -8.3699 O   0  0  0  0  0  0  0  0  0  0  0  0
   48.6696    5.2209   -6.4017 C   0  0  2  0  0  0  0  0  0  0  0  0
   49.4650    6.3671   -6.1190 N   0  0  0  0  0  0  0  0  0  0  0  0
   44.1563    6.3510   -3.0599 C   0  0  2  0  0  0  0  0  0  0  0  0
   44.1975    7.5934   -2.4686 O   0  0  0  0  0  0  0  0  0  0  0  0
   42.5637   10.0992   -0.0990 C   0  0  1  0  0  0  0  0  0  0  0  0
   42.3562   11.1650   -1.0904 O   0  0  0  0  0  0  0  0  0  0  0  0
   43.8732    6.6801   -8.7851 C   0  0  2  0  0  0  0  0  0  0  0  0
   42.4272    6.4525   -8.5339 O   0  0  0  0  0  0  0  0  0  0  0  0
   47.2050    5.4446   -5.8576 C   0  0  2  0  0  0  0  0  0  0  0  0
   42.9696    6.1502   -4.1271 C   0  0  2  0  0  0  0  0  0  0  0  0
   43.5539    5.3468   -5.0475 O   0  0  0  0  0  0  0  0  0  0  0  0
   41.2002    9.2379    0.1513 C   0  0  2  0  0  0  0  0  0  0  0  0
   41.4219    8.1669    1.1489 O   0  0  0  0  0  0  0  0  0  0  0  0
   44.6528    5.3876   -8.3709 C   0  0  2  0  0  0  0  0  0  0  0  0
   46.0483    5.6851   -8.6326 O   0  0  0  0  0  0  0  0  0  0  0  0
   46.3738    4.1635   -6.2047 C   0  0  2  0  0  0  0  0  0  0  0  0
   45.0976    4.4776   -5.7022 O   0  0  0  0  0  0  0  0  0  0  0  0
   42.4579    7.4165   -4.9085 C   0  0  0  0  0  0  0  0  0  0  0  0
   40.9972    7.3879   -4.9770 O   0  0  0  0  0  0  0  0  0  0  0  0
   40.7191    8.5665   -1.2114 C   0  0  1  0  0  0  0  0  0  0  0  0
   41.8644    7.7104   -1.7102 O   0  0  0  0  0  0  0  0  0  0  0  0
   44.1197    4.2831   -9.1903 C   0  0  0  0  0  0  0  0  0  0  0  0
   42.8612    3.9976   -8.8298 O   0  0  0  0  0  0  0  0  0  0  0  0
   46.9997    2.8771   -5.5150 C   0  0  1  0  0  0  0  0  0  0  0  0
   46.2562    1.7418   -5.8385 O   0  0  0  0  0  0  0  0  0  0  0  0
   44.9488    2.6295   -1.8825 C   0  0  0  0  0  0  0  0  0  0  0  0
   39.4286    7.7572   -0.8470 C   0  0  0  0  0  0  0  0  0  0  0  0
   38.4325    8.5572   -0.1940 N   0  0  0  0  0  0  0  0  0  0  0  0
   44.0053    1.7195   -1.0946 C   0  0  0  0  0  0  0  0  0  0  0  0
   43.0322    1.1762   -2.0620 N   0  0  0  0  0  0  0  0  0  0  0  0
   41.8566    0.3589   -1.5221 C   0  0  0  0  0  0  0  0  0  0  0  0
  1  2  1  1  0  0  0
  1  8  1  0  0  0  0
  1 33  1  0  0  0  0
  3  4  1  1  0  0  0
  3 10  1  0  0  0  0
  3 42  1  0  0  0  0
  5 11  1  0  0  0  0
  5 29  1  0  0  0  0
  5 35  1  6  0  0  0
  6 13  1  0  0  0  0
  6 39  1  0  0  0  0
  6 22  1  1  0  0  0
  7 15  1  0  0  0  0
  8  9  1  1  0  0  0
  8 17  1  0  0  0  0
 10 19  1  0  0  0  0
 11 12  1  1  0  0  0
 11 21  1  0  0  0  0
 12 44  1  0  0  0  0
 13 14  1  1  0  0  0
 13 23  1  0  0  0  0
 15 16  1  0  0  0  0
 17 18  1  6  0  0  0
 17 25  1  0  0  0  0
 19 20  1  1  0  0  0
 19 27  1  0  0  0  0
 21 22  1  1  0  0  0
 21 28  1  0  0  0  0
 23 24  1  6  0  0  0
 23 30  1  0  0  0  0
 25 26  1  1  0  0  0
 25 32  1  0  0  0  0
 27  2  1  6  0  0  0
 27 34  1  0  0  0  0
 28 29  1  0  0  0  0
 28 36  1  6  0  0  0
 30 31  1  1  0  0  0
 30 38  1  0  0  0  0
 32 33  1  0  0  0  0
 32 40  1  6  0  0  0
 34 35  1  1  0  0  0
 34 42  1  0  0  0  0
 36 37  1  0  0  0  0
 38 39  1  0  0  0  0
 38 45  1  1  0  0  0
 40 41  1  0  0  0  0
 42 43  1  6  0  0  0
 44 47  1  0  0  0  0
 45 46  1  0  0  0  0
 47 48  1  0  0  0  0
 48 49  1  0  0  0  0
 49  7  1  0  0  0  0
M  END
>  <CHROM.1>
174.10172718,22.90109231,141.90810535,-159.29059272,73.78919141,-170.17995358
-136.89267480,51.82456035,-137.53175161,-68.91665839,-67.24235669,54.22013030
79.18693668,-172.77591319,-173.10164074,63.14127951,44.11394774,5.56156521
-4.41739050,-0.37129259,0.94662905,-0.12706699

>  <Name>
2bee_lig

>  <RI>
2.18182e+07

>  <Rbt.Current_Directory>
/home/itssahil/PROJECTS/Mol_Feturizer/New_Systems/rnas/2bee

>  <Rbt.Executable>
rbdock ($Id: //depot/dev/client3/rdock/2013.1/src/exe/rbdock.cxx#4 $)

>  <Rbt.Library>
libRbt.so (2013.1, Build901 2013/11/27)

>  <Rbt.Parameter_File>
/export/apps/rDock/src/rDock_2013.1_src/data/scripts/dock_solv.prm

>  <Rbt.Receptor>
prm/pocket_docking_3.prm

>  <SCORE>
-13.755

>  <SCORE.INTER>
-7.62043

>  <SCORE.INTER.CONST>
1

>  <SCORE.INTER.POLAR>
-2.29518

>  <SCORE.INTER.ROT>
16

>  <SCORE.INTER.SOLV>
21.0257

>  <SCORE.INTER.VDW>
-18.7049

>  <SCORE.INTER.norm>
-0.155519

>  <SCORE.INTRA>
-6.72204

>  <SCORE.INTRA.DIHEDRAL>
-13.8335

>  <SCORE.INTRA.DIHEDRAL.0>
36.0842

>  <SCORE.INTRA.POLAR>
0

>  <SCORE.INTRA.POLAR.0>
0

>  <SCORE.INTRA.REPUL>
0

>  <SCORE.INTRA.REPUL.0>
0

>  <SCORE.INTRA.SOLV>
-1.80417

>  <SCORE.INTRA.SOLV.lig_0>
-126.444

>  <SCORE.INTRA.VDW>
1.09681

>  <SCORE.INTRA.VDW.0>
-7.40469

>  <SCORE.INTRA.norm>
-0.137185

>  <SCORE.RESTR>
0.587511

>  <SCORE.RESTR.CAVITY>
0.587511

>  <SCORE.RESTR.norm>
0.01199

>  <SCORE.SYSTEM>
0

>  <SCORE.SYSTEM.CONST>
0

>  <SCORE.SYSTEM.DIHEDRAL>
0

>  <SCORE.SYSTEM.SOLV>
0

>  <SCORE.SYSTEM.norm>
0

>  <SCORE.heavy>
49

>  <SCORE.norm>
-0.280714

>  <RMSD>
3.075

$$$$
2bee_lig
 OpenBabel11021811423D
libRbt.so/2013.1/901 2013/11/27
 49 52  0  0  0  0  0  0  0  0999 V2000
   46.8781    6.7167   -8.0605 C   0  0  2  0  0  0  0  0  0  0  0  0
   47.4132    6.9346   -6.7612 O   0  0  0  0  0  0  0  0  0  0  0  0
   48.8612    2.8956   -5.7792 C   0  0  2  0  0  0  0  0  0  0  0  0
   49.5853    1.8093   -5.0648 N   0  0  0  0  0  0  0  0  0  0  0  0
   45.0119    5.0166   -4.1959 C   0  0  1  0  0  0  0  0  0  0  0  0
   42.6142    6.3292   -0.2611 C   0  0  1  0  0  0  0  0  0  0  0  0
   42.3775   -2.1829   -4.5334 C   0  0  0  0  0  0  0  0  0  0  0  0
   46.2119    8.0381   -8.6074 C   0  0  2  0  0  0  0  0  0  0  0  0
   47.1711    9.1366   -8.5640 N   0  0  0  0  0  0  0  0  0  0  0  0
   49.9023    4.0200   -6.2259 C   0  0  0  0  0  0  0  0  0  0  0  0
   44.3082    4.2340   -3.1352 C   0  0  2  0  0  0  0  0  0  0  0  0
   43.2694    3.3399   -3.6751 O   0  0  0  0  0  0  0  0  0  0  0  0
   43.1752    6.8259    1.1775 C   0  0  2  0  0  0  0  0  0  0  0  0
   43.7730    5.6413    1.8792 N   0  0  0  0  0  0  0  0  0  0  0  0
   42.0218   -1.3779   -5.6408 C   0  0  0  0  0  0  0  0  0  0  0  0
   41.1769   -1.8854   -6.6253 N   0  0  0  0  0  0  0  0  0  0  0  0
   44.9098    8.3630   -7.7525 C   0  0  1  0  0  0  0  0  0  0  0  0
   44.3148    9.5507   -8.2548 O   0  0  0  0  0  0  0  0  0  0  0  0
   49.1423    5.2401   -7.0041 C   0  0  2  0  0  0  0  0  0  0  0  0
   50.0641    6.2441   -7.4146 N   0  0  0  0  0  0  0  0  0  0  0  0
   43.9655    5.4092   -2.2518 C   0  0  2  0  0  0  0  0  0  0  0  0
   43.7601    5.7570   -0.9358 O   0  0  0  0  0  0  0  0  0  0  0  0
   41.9753    7.4142    2.0023 C   0  0  1  0  0  0  0  0  0  0  0  0
   41.4584    8.5729    1.2594 O   0  0  0  0  0  0  0  0  0  0  0  0
   43.9344    7.1665   -7.8428 C   0  0  2  0  0  0  0  0  0  0  0  0
   42.7087    7.4223   -7.0440 O   0  0  0  0  0  0  0  0  0  0  0  0
   48.0492    5.8776   -6.0608 C   0  0  2  0  0  0  0  0  0  0  0  0
   43.6518    6.5747   -3.3151 C   0  0  2  0  0  0  0  0  0  0  0  0
   44.5930    6.3499   -4.2625 O   0  0  0  0  0  0  0  0  0  0  0  0
   40.8353    6.2608    2.1857 C   0  0  2  0  0  0  0  0  0  0  0  0
   41.3678    5.0989    2.9325 O   0  0  0  0  0  0  0  0  0  0  0  0
   44.6085    5.8610   -7.3032 C   0  0  2  0  0  0  0  0  0  0  0  0
   45.7951    5.6812   -8.1180 O   0  0  0  0  0  0  0  0  0  0  0  0
   47.0588    4.7360   -5.6504 C   0  0  2  0  0  0  0  0  0  0  0  0
   46.1265    5.4117   -4.8416 O   0  0  0  0  0  0  0  0  0  0  0  0
   43.8403    8.0665   -2.8515 C   0  0  0  0  0  0  0  0  0  0  0  0
   43.3127    8.9648   -3.8782 O   0  0  0  0  0  0  0  0  0  0  0  0
   40.3322    5.7570    0.7602 C   0  0  1  0  0  0  0  0  0  0  0  0
   41.5510    5.2563    0.0135 O   0  0  0  0  0  0  0  0  0  0  0  0
   43.6206    4.7755   -7.4493 C   0  0  0  0  0  0  0  0  0  0  0  0
   42.6847    4.8622   -6.4943 O   0  0  0  0  0  0  0  0  0  0  0  0
   47.8177    3.5804   -4.8687 C   0  0  1  0  0  0  0  0  0  0  0  0
   46.9273    2.5659   -4.5164 O   0  0  0  0  0  0  0  0  0  0  0  0
   42.7502    2.1389   -3.0004 C   0  0  0  0  0  0  0  0  0  0  0  0
   39.2669    4.6485    1.0595 C   0  0  0  0  0  0  0  0  0  0  0  0
   39.8007    3.3200    0.9659 N   0  0  0  0  0  0  0  0  0  0  0  0
   43.6725    0.9554   -3.2968 C   0  0  0  0  0  0  0  0  0  0  0  0
   42.9224   -0.2664   -2.9469 N   0  0  0  0  0  0  0  0  0  0  0  0
   43.4338   -1.6057   -3.4818 C   0  0  0  0  0  0  0  0  0  0  0  0
  1  2  1  1  0  0  0
  1  8  1  0  0  0  0
  1 33  1  0  0  0  0
  3  4  1  1  0  0  0
  3 10  1  0  0  0  0
  3 42  1  0  0  0  0
  5 11  1  0  0  0  0
  5 29  1  0  0  0  0
  5 35  1  1  0  0  0
  6 13  1  0  0  0  0
  6 39  1  0  0  0  0
  6 22  1  6  0  0  0
  7 15  1  0  0  0  0
  8  9  1  1  0  0  0
  8 17  1  0  0  0  0
 10 19  1  0  0  0  0
 11 12  1  6  0  0  0
 11 21  1  0  0  0  0
 12 44  1  0  0  0  0
 13 14  1  1  0  0  0
 13 23  1  0  0  0  0
 15 16  1  0  0  0  0
 17 18  1  6  0  0  0
 17 25  1  0  0  0  0
 19 20  1  1  0  0  0
 19 27  1  0  0  0  0
 21 22  1  6  0  0  0
 21 28  1  0  0  0  0
 23 24  1  6  0  0  0
 23 30  1  0  0  0  0
 25 26  1  1  0  0  0
 25 32  1  0  0  0  0
 27  2  1  6  0  0  0
 27 34  1  0  0  0  0
 28 29  1  0  0  0  0
 28 36  1  1  0  0  0
 30 31  1  6  0  0  0
 30 38  1  0  0  0  0
 32 33  1  0  0  0  0
 32 40  1  6  0  0  0
 34 35  1  1  0  0  0
 34 42  1  0  0  0  0
 36 37  1  0  0  0  0
 38 39  1  0  0  0  0
 38 45  1  1  0  0  0
 40 41  1  0  0  0  0
 42 43  1  6  0  0  0
 44 47  1  0  0  0  0
 45 46  1  0  0  0  0
 47 48  1  0  0  0  0
 48 49  1  0  0  0  0
 49  7  1  0  0  0  0
M  END
>  <CHROM.1>
179.22605367,66.84868483,-165.95643999,175.51747762,157.23601226,-84.45588092
-120.96057611,51.69076972,-171.32005786,-76.39363860,178.55150257,-98.38927615
-163.84607558,163.76548902,-112.97578169,56.15718008,44.33567080,4.94944877
-3.95025882,-0.03909312,0.96202309,0.17356066

>  <Name>
2bee_lig

>  <RI>
2.18182e+07

>  <Rbt.Current_Directory>
/home/itssahil/PROJECTS/Mol_Feturizer/New_Systems/rnas/2bee

>  <Rbt.Executable>
rbdock ($Id: //depot/dev/client3/rdock/2013.1/src/exe/rbdock.cxx#4 $)

>  <Rbt.Library>
libRbt.so (2013.1, Build901 2013/11/27)

>  <Rbt.Parameter_File>
/export/apps/rDock/src/rDock_2013.1_src/data/scripts/dock_solv.prm

>  <Rbt.Receptor>
prm/pocket_docking_3.prm

>  <SCORE>
-7.29384

>  <SCORE.INTER>
2.92672

>  <SCORE.INTER.CONST>
1

>  <SCORE.INTER.POLAR>
0

>  <SCORE.INTER.ROT>
16

>  <SCORE.INTER.SOLV>
23.3537

>  <SCORE.INTER.VDW>
-20.1001

>  <SCORE.INTER.norm>
0.0597289

>  <SCORE.INTRA>
-10.3086

>  <SCORE.INTRA.DIHEDRAL>
-18.7713

>  <SCORE.INTRA.DIHEDRAL.0>
36.0842

>  <SCORE.INTRA.POLAR>
0

>  <SCORE.INTRA.POLAR.0>
0

>  <SCORE.INTRA.REPUL>
0

>  <SCORE.INTRA.REPUL.0>
0

>  <SCORE.INTRA.SOLV>
-1.24578

>  <SCORE.INTRA.SOLV.lig_0>
-126.444

>  <SCORE.INTRA.VDW>
-0.300018

>  <SCORE.INTRA.VDW.0>
-7.40469

>  <SCORE.INTRA.norm>
-0.210379

>  <SCORE.RESTR>
0.0879978

>  <SCORE.RESTR.CAVITY>
0.0879978

>  <SCORE.RESTR.norm>
0.00179587

>  <SCORE.SYSTEM>
0

>  <SCORE.SYSTEM.CONST>
0

>  <SCORE.SYSTEM.DIHEDRAL>
0

>  <SCORE.SYSTEM.SOLV>
0

>  <SCORE.SYSTEM.norm>
0

>  <SCORE.heavy>
49

>  <SCORE.norm>
-0.148854

>  <RMSD>
3.085

$$$$
2bee_lig
 OpenBabel11021811423D
libRbt.so/2013.1/901 2013/11/27
 49 52  0  0  0  0  0  0  0  0999 V2000
   47.0760    6.9782   -8.2653 C   0  0  2  0  0  0  0  0  0  0  0  0
   47.3931    7.1768   -6.8934 O   0  0  0  0  0  0  0  0  0  0  0  0
   48.6494    3.1354   -5.6837 C   0  0  2  0  0  0  0  0  0  0  0  0
   49.3233    2.0581   -4.9091 N   0  0  0  0  0  0  0  0  0  0  0  0
   45.0961    5.5050   -3.9857 C   0  0  1  0  0  0  0  0  0  0  0  0
   41.7237    7.5260   -1.3146 C   0  0  1  0  0  0  0  0  0  0  0  0
   42.3545    0.4456   -4.2404 C   0  0  0  0  0  0  0  0  0  0  0  0
   46.5400    8.3178   -8.9033 C   0  0  2  0  0  0  0  0  0  0  0  0
   47.5034    9.3928   -8.6919 N   0  0  0  0  0  0  0  0  0  0  0  0
   49.7416    4.1813   -6.1948 C   0  0  0  0  0  0  0  0  0  0  0  0
   44.4755    5.6061   -2.6302 C   0  0  2  0  0  0  0  0  0  0  0  0
   44.3277    4.2988   -1.9673 O   0  0  0  0  0  0  0  0  0  0  0  0
   42.7140    8.4452   -0.4171 C   0  0  2  0  0  0  0  0  0  0  0  0
   44.0430    7.7529   -0.3315 N   0  0  0  0  0  0  0  0  0  0  0  0
   42.7181   -0.8492   -4.6789 C   0  0  0  0  0  0  0  0  0  0  0  0
   43.0053   -1.0716   -6.0238 N   0  0  0  0  0  0  0  0  0  0  0  0
   45.1219    8.6695   -8.2730 C   0  0  1  0  0  0  0  0  0  0  0  0
   44.6455    9.8736   -8.8564 O   0  0  0  0  0  0  0  0  0  0  0  0
   49.0381    5.3901   -7.0407 C   0  0  2  0  0  0  0  0  0  0  0  0
   50.0054    6.3236   -7.5087 N   0  0  0  0  0  0  0  0  0  0  0  0
   43.2787    6.4255   -3.0485 C   0  0  2  0  0  0  0  0  0  0  0  0
   42.3975    7.3772   -2.5873 O   0  0  0  0  0  0  0  0  0  0  0  0
   42.0799    8.6113    1.0099 C   0  0  1  0  0  0  0  0  0  0  0  0
   40.7958    9.3072    0.8414 O   0  0  0  0  0  0  0  0  0  0  0  0
   44.1479    7.4972   -8.5343 C   0  0  2  0  0  0  0  0  0  0  0  0
   42.8129    7.7783   -7.9472 O   0  0  0  0  0  0  0  0  0  0  0  0
   47.9802    6.1321   -6.1344 C   0  0  2  0  0  0  0  0  0  0  0  0
   42.9339    5.8351   -4.5045 C   0  0  2  0  0  0  0  0  0  0  0  0
   44.1681    5.6347   -5.0246 O   0  0  0  0  0  0  0  0  0  0  0  0
   41.8809    7.1375    1.6821 C   0  0  2  0  0  0  0  0  0  0  0  0
   43.1796    6.4458    1.8444 O   0  0  0  0  0  0  0  0  0  0  0  0
   44.6933    6.1733   -7.9020 C   0  0  2  0  0  0  0  0  0  0  0  0
   45.9942    5.9692   -8.5106 O   0  0  0  0  0  0  0  0  0  0  0  0
   46.9378    5.0647   -5.6586 C   0  0  2  0  0  0  0  0  0  0  0  0
   46.0418    5.8294   -4.8889 O   0  0  0  0  0  0  0  0  0  0  0  0
   42.1744    6.7686   -5.5182 C   0  0  0  0  0  0  0  0  0  0  0  0
   41.4018    5.9474   -6.4499 O   0  0  0  0  0  0  0  0  0  0  0  0
   40.9419    6.2381    0.7609 C   0  0  1  0  0  0  0  0  0  0  0  0
   41.5952    6.1715   -0.6037 O   0  0  0  0  0  0  0  0  0  0  0  0
   43.7189    5.1124   -8.2193 C   0  0  0  0  0  0  0  0  0  0  0  0
   43.8891    4.6807   -9.4762 O   0  0  0  0  0  0  0  0  0  0  0  0
   47.6433    3.9204   -4.8129 C   0  0  1  0  0  0  0  0  0  0  0  0
   46.7065    2.9715   -4.4024 O   0  0  0  0  0  0  0  0  0  0  0  0
   43.5634    3.1594   -2.5006 C   0  0  0  0  0  0  0  0  0  0  0  0
   40.8413    4.8550    1.4889 C   0  0  0  0  0  0  0  0  0  0  0  0
   39.9215    3.9547    0.8548 N   0  0  0  0  0  0  0  0  0  0  0  0
   42.2049    3.0917   -1.8014 C   0  0  0  0  0  0  0  0  0  0  0  0
   41.4262    2.0413   -2.4857 N   0  0  0  0  0  0  0  0  0  0  0  0
   42.0786    0.6712   -2.6823 C   0  0  0  0  0  0  0  0  0  0  0  0
  1  2  1  1  0  0  0
  1  8  1  0  0  0  0
  1 33  1  0  0  0  0
  3  4  1  1  0  0  0
  3 10  1  0  0  0  0
  3 42  1  0  0  0  0
  5 11  1  0  0  0  0
  5 29  1  0  0  0  0
  5 35  1  6  0  0  0
  6 13  1  0  0  0  0
  6 39  1  0  0  0  0
  6 22  1  6  0  0  0
  7 15  1  0  0  0  0
  8  9  1  1  0  0  0
  8 17  1  0  0  0  0
 10 19  1  0  0  0  0
 11 12  1  6  0  0  0
 11 21  1  0  0  0  0
 12 44  1  0  0  0  0
 13 14  1  1  0  0  0
 13 23  1  0  0  0  0
 15 16  1  0  0  0  0
 17 18  1  6  0  0  0
 17 25  1  0  0  0  0
 19 20  1  1  0  0  0
 19 27  1  0  0  0  0
 21 22  1  1  0  0  0
 21 28  1  0  0  0  0
 23 24  1  6  0  0  0
 23 30  1  0  0  0  0
 25 26  1  1  0  0  0
 25 32  1  0  0  0  0
 27  2  1  6  0  0  0
 27 34  1  0  0  0  0
 28 29  1  0  0  0  0
 28 36  1  6  0  0  0
 30 31  1  6  0  0  0
 30 38  1  0  0  0  0
 32 33  1  0  0  0  0
 32 40  1  6  0  0  0
 34 35  1  1  0  0  0
 34 42  1  0  0  0  0
 36 37  1  0  0  0  0
 38 39  1  0  0  0  0
 38 45  1  1  0  0  0
 40 41  1  0  0  0  0
 42 43  1  6  0  0  0
 44 47  1  0  0  0  0
 45 46  1  0  0  0  0
 47 48  1  0  0  0  0
 48 49  1  0  0  0  0
 49  7  1  0  0  0  0
M  END
>  <CHROM.1>
-175.69367447,124.56205787,91.06794790,-178.04960414,-58.80610868,-100.76741603
-41.60935830,39.64762155,-152.67249759,79.45774478,-163.96273933,174.41820628
173.31117109,50.78218058,-111.67511284,-168.23077555,44.31465614,5.51857745
-4.33722422,0.14498055,0.97874679,-0.11055024

>  <Name>
2bee_lig

>  <RI>
3.71943e+07

>  <Rbt.Current_Directory>
/home/itssahil/PROJECTS/Mol_Feturizer/New_Systems/rnas/2bee

>  <Rbt.Executable>
rbdock ($Id: //depot/dev/client3/rdock/2013.1/src/exe/rbdock.cxx#4 $)

>  <Rbt.Library>
libRbt.so (2013.1, Build901 2013/11/27)

>  <Rbt.Parameter_File>
/export/apps/rDock/src/rDock_2013.1_src/data/scripts/dock_solv.prm

>  <Rbt.Receptor>
prm/pocket_docking_2.prm

>  <SCORE>
6.57661

>  <SCORE.INTER>
6.01275

>  <SCORE.INTER.CONST>
1

>  <SCORE.INTER.POLAR>
0

>  <SCORE.INTER.ROT>
16

>  <SCORE.INTER.SOLV>
18.4736

>  <SCORE.INTER.VDW>
-16.416

>  <SCORE.INTER.norm>
0.122709

>  <SCORE.INTRA>
-1.44506

>  <SCORE.INTRA.DIHEDRAL>
-7.53286

>  <SCORE.INTRA.DIHEDRAL.0>
36.0842

>  <SCORE.INTRA.POLAR>
0

>  <SCORE.INTRA.POLAR.0>
0

>  <SCORE.INTRA.REPUL>
0

>  <SCORE.INTRA.REPUL.0>
0

>  <SCORE.INTRA.SOLV>
0.373522

>  <SCORE.INTRA.SOLV.lig_0>
-126.444

>  <SCORE.INTRA.VDW>
2.13461

>  <SCORE.INTRA.VDW.0>
-7.40469

>  <SCORE.INTRA.norm>
-0.029491

>  <SCORE.RESTR>
2.00892

>  <SCORE.RESTR.CAVITY>
2.00892

>  <SCORE.RESTR.norm>
0.0409983

>  <SCORE.SYSTEM>
0

>  <SCORE.SYSTEM.CONST>
0

>  <SCORE.SYSTEM.DIHEDRAL>
0

>  <SCORE.SYSTEM.SOLV>
0

>  <SCORE.SYSTEM.norm>
0

>  <SCORE.heavy>
49

>  <SCORE.norm>
0.134217

>  <RMSD>
3.147

$$$$
2bee_lig
 OpenBabel11021811423D
libRbt.so/2013.1/901 2013/11/27
 49 52  0  0  0  0  0  0  0  0999 V2000
   44.7340    7.6197   -7.7152 C   0  0  2  0  0  0  0  0  0  0  0  0
   45.8807    6.9127   -8.1706 O   0  0  0  0  0  0  0  0  0  0  0  0
   49.1790    4.8290   -6.1325 C   0  0  2  0  0  0  0  0  0  0  0  0
   50.3602    4.6131   -5.2533 N   0  0  0  0  0  0  0  0  0  0  0  0
   44.8647    5.4805   -4.5424 C   0  0  1  0  0  0  0  0  0  0  0  0
   42.2647    7.4953   -1.0931 C   0  0  1  0  0  0  0  0  0  0  0  0
   40.9999    4.6408   -0.6102 C   0  0  0  0  0  0  0  0  0  0  0  0
   43.5639    7.5015   -8.7669 C   0  0  2  0  0  0  0  0  0  0  0  0
   43.2898    6.0976   -9.0543 N   0  0  0  0  0  0  0  0  0  0  0  0
   49.5057    5.9861   -7.1823 C   0  0  0  0  0  0  0  0  0  0  0  0
   44.7412    5.1005   -3.1026 C   0  0  2  0  0  0  0  0  0  0  0  0
   44.3364    3.6969   -2.9119 O   0  0  0  0  0  0  0  0  0  0  0  0
   42.0827    9.0172   -1.6237 C   0  0  2  0  0  0  0  0  0  0  0  0
   43.2580    9.8207   -1.1481 N   0  0  0  0  0  0  0  0  0  0  0  0
   40.4950    4.3493    0.6785 C   0  0  0  0  0  0  0  0  0  0  0  0
   39.4454    3.4450    0.8248 N   0  0  0  0  0  0  0  0  0  0  0  0
   43.9580    8.3030  -10.0838 C   0  0  1  0  0  0  0  0  0  0  0  0
   42.8975    8.1950  -11.0223 O   0  0  0  0  0  0  0  0  0  0  0  0
   48.2254    6.2630   -8.1599 C   0  0  2  0  0  0  0  0  0  0  0  0
   48.5103    7.2877   -9.1060 N   0  0  0  0  0  0  0  0  0  0  0  0
   43.8481    6.2479   -2.6968 C   0  0  2  0  0  0  0  0  0  0  0  0
   43.5368    7.0586   -1.6288 O   0  0  0  0  0  0  0  0  0  0  0  0
   40.7430    9.5905   -1.0382 C   0  0  1  0  0  0  0  0  0  0  0  0
   39.6460    8.7626   -1.5605 O   0  0  0  0  0  0  0  0  0  0  0  0
   44.2303    9.7797   -9.7141 C   0  0  2  0  0  0  0  0  0  0  0  0
   44.6177   10.5625  -10.9154 O   0  0  0  0  0  0  0  0  0  0  0  0
   46.9707    6.6739   -7.2950 C   0  0  2  0  0  0  0  0  0  0  0  0
   42.9105    6.4440   -3.9892 C   0  0  2  0  0  0  0  0  0  0  0  0
   43.7857    6.2428   -5.0029 O   0  0  0  0  0  0  0  0  0  0  0  0
   40.8077    9.5433    0.5919 C   0  0  2  0  0  0  0  0  0  0  0  0
   41.9170   10.3780    1.1057 O   0  0  0  0  0  0  0  0  0  0  0  0
   45.3883    9.8833   -8.6662 C   0  0  2  0  0  0  0  0  0  0  0  0
   44.9472    9.0926   -7.5329 O   0  0  0  0  0  0  0  0  0  0  0  0
   46.6960    5.5107   -6.2831 C   0  0  2  0  0  0  0  0  0  0  0  0
   45.5594    5.9661   -5.5898 O   0  0  0  0  0  0  0  0  0  0  0  0
   42.2745    7.8627   -4.2307 C   0  0  0  0  0  0  0  0  0  0  0  0
   41.1965    7.7512   -5.2130 O   0  0  0  0  0  0  0  0  0  0  0  0
   41.0318    8.0455    1.0875 C   0  0  1  0  0  0  0  0  0  0  0  0
   42.3093    7.5527    0.4404 O   0  0  0  0  0  0  0  0  0  0  0  0
   45.5611   11.3152   -8.3571 C   0  0  0  0  0  0  0  0  0  0  0  0
   46.1774   11.9417   -9.3685 O   0  0  0  0  0  0  0  0  0  0  0  0
   47.9430    5.2852   -5.3257 C   0  0  1  0  0  0  0  0  0  0  0  0
   47.6897    4.2414   -4.4353 O   0  0  0  0  0  0  0  0  0  0  0  0
   44.8972    2.7823   -1.9039 C   0  0  0  0  0  0  0  0  0  0  0  0
   41.0980    8.1268    2.6503 C   0  0  0  0  0  0  0  0  0  0  0  0
   41.2607    6.8434    3.2707 N   0  0  0  0  0  0  0  0  0  0  0  0
   43.7688    1.9473   -1.2970 C   0  0  0  0  0  0  0  0  0  0  0  0
   42.8515    2.8921   -0.6307 N   0  0  0  0  0  0  0  0  0  0  0  0
   41.6863    3.4615   -1.4427 C   0  0  0  0  0  0  0  0  0  0  0  0
  1  2  1  6  0  0  0
  1  8  1  0  0  0  0
  1 33  1  0  0  0  0
  3  4  1  1  0  0  0
  3 10  1  0  0  0  0
  3 42  1  0  0  0  0
  5 11  1  0  0  0  0
  5 29  1  0  0  0  0
  5 35  1  1  0  0  0
  6 13  1  0  0  0  0
  6 39  1  0  0  0  0
  6 22  1  6  0  0  0
  7 15  1  0  0  0  0
  8  9  1  6  0  0  0
  8 17  1  0  0  0  0
 10 19  1  0  0  0  0
 11 12  1  6  0  0  0
 11 21  1  0  0  0  0
 12 44  1  0  0  0  0
 13 14  1  1  0  0  0
 13 23  1  0  0  0  0
 15 16  1  0  0  0  0
 17 18  1  6  0  0  0
 17 25  1  0  0  0  0
 19 20  1  6  0  0  0
 19 27  1  0  0  0  0
 21 22  1  1  0  0  0
 21 28  1  0  0  0  0
 23 24  1  6  0  0  0
 23 30  1  0  0  0  0
 25 26  1  6  0  0  0
 25 32  1  0  0  0  0
 27  2  1  6  0  0  0
 27 34  1  0  0  0  0
 28 29  1  0  0  0  0
 28 36  1  6  0  0  0
 30 31  1  6  0  0  0
 30 38  1  0  0  0  0
 32 33  1  0  0  0  0
 32 40  1  1  0  0  0
 34 35  1  1  0  0  0
 34 42  1  0  0  0  0
 36 37  1  0  0  0  0
 38 39  1  0  0  0  0
 38 45  1  1  0  0  0
 40 41  1  0  0  0  0
 42 43  1  1  0  0  0
 44 47  1  0  0  0  0
 45 46  1  0  0  0  0
 47 48  1  0  0  0  0
 48 49  1  0  0  0  0
 49  7  1  0  0  0  0
M  END
>  <CHROM.1>
-168.65962913,65.14316725,-102.08924220,-63.70736797,138.26883489,139.21550534
-135.01420581,-163.81134742,-164.81506381,-74.74284595,-175.40553057,178.32945399
-62.28794180,90.82101259,-169.94771908,-57.81017054,44.02302578,6.92951894
-4.28324179,0.87536375,0.78507327,-0.87409426

>  <Name>
2bee_lig

>  <RI>
2.18182e+07

>  <Rbt.Current_Directory>
/home/itssahil/PROJECTS/Mol_Feturizer/New_Systems/rnas/2bee

>  <Rbt.Executable>
rbdock ($Id: //depot/dev/client3/rdock/2013.1/src/exe/rbdock.cxx#4 $)

>  <Rbt.Library>
libRbt.so (2013.1, Build901 2013/11/27)

>  <Rbt.Parameter_File>
/export/apps/rDock/src/rDock_2013.1_src/data/scripts/dock_solv.prm

>  <Rbt.Receptor>
prm/pocket_docking_3.prm

>  <SCORE>
-16.9277

>  <SCORE.INTER>
-12.0689

>  <SCORE.INTER.CONST>
1

>  <SCORE.INTER.POLAR>
-0.938083

>  <SCORE.INTER.ROT>
16

>  <SCORE.INTER.SOLV>
23.3717

>  <SCORE.INTER.VDW>
-26.9763

>  <SCORE.INTER.norm>
-0.246305

>  <SCORE.INTRA>
-4.86989

>  <SCORE.INTRA.DIHEDRAL>
-10.9901

>  <SCORE.INTRA.DIHEDRAL.0>
36.0842

>  <SCORE.INTRA.POLAR>
0

>  <SCORE.INTRA.POLAR.0>
0

>  <SCORE.INTRA.REPUL>
0

>  <SCORE.INTRA.REPUL.0>
0

>  <SCORE.INTRA.SOLV>
-0.335834

>  <SCORE.INTRA.SOLV.lig_0>
-126.444

>  <SCORE.INTRA.VDW>
0.793102

>  <SCORE.INTRA.VDW.0>
-7.40469

>  <SCORE.INTRA.norm>
-0.0993855

>  <SCORE.RESTR>
0.0111054

>  <SCORE.RESTR.CAVITY>
0.0111054

>  <SCORE.RESTR.norm>
0.000226641

>  <SCORE.SYSTEM>
0

>  <SCORE.SYSTEM.CONST>
0

>  <SCORE.SYSTEM.DIHEDRAL>
0

>  <SCORE.SYSTEM.SOLV>
0

>  <SCORE.SYSTEM.norm>
0

>  <SCORE.heavy>
49

>  <SCORE.norm>
-0.345464

>  <RMSD>
3.153

$$$$
2bee_lig
 OpenBabel11021811423D
libRbt.so/2013.1/901 2013/11/27
 49 52  0  0  0  0  0  0  0  0999 V2000
   46.3637    6.0169   -7.8885 C   0  0  2  0  0  0  0  0  0  0  0  0
   46.1568    6.1625   -6.4891 O   0  0  0  0  0  0  0  0  0  0  0  0
   47.7867    2.3469   -5.0196 C   0  0  2  0  0  0  0  0  0  0  0  0
   48.2134    1.2886   -4.0643 N   0  0  0  0  0  0  0  0  0  0  0  0
   43.5412    3.8902   -4.9053 C   0  0  1  0  0  0  0  0  0  0  0  0
   40.9998    6.2867   -1.6092 C   0  0  1  0  0  0  0  0  0  0  0  0
   39.5356   -1.0484   -3.9393 C   0  0  0  0  0  0  0  0  0  0  0  0
   46.5706    7.4286   -8.5616 C   0  0  2  0  0  0  0  0  0  0  0  0
   47.6543    8.1451   -7.8978 N   0  0  0  0  0  0  0  0  0  0  0  0
   48.5316    3.7128   -4.6627 C   0  0  0  0  0  0  0  0  0  0  0  0
   43.1187    3.8615   -3.4724 C   0  0  2  0  0  0  0  0  0  0  0  0
   42.5084    2.5797   -3.0791 O   0  0  0  0  0  0  0  0  0  0  0  0
   41.3805    7.6588   -0.8324 C   0  0  2  0  0  0  0  0  0  0  0  0
   42.8175    7.5709   -0.4077 N   0  0  0  0  0  0  0  0  0  0  0  0
   38.5091   -1.9308   -4.3497 C   0  0  0  0  0  0  0  0  0  0  0  0
   37.6500   -2.4846   -3.4032 N   0  0  0  0  0  0  0  0  0  0  0  0
   45.2058    8.2445   -8.5017 C   0  0  1  0  0  0  0  0  0  0  0  0
   45.4003    9.5113   -9.1138 O   0  0  0  0  0  0  0  0  0  0  0  0
   48.0785    4.9063   -5.6835 C   0  0  2  0  0  0  0  0  0  0  0  0
   48.7446    6.1268   -5.3788 N   0  0  0  0  0  0  0  0  0  0  0  0
   42.3246    5.1450   -3.5004 C   0  0  2  0  0  0  0  0  0  0  0  0
   41.9385    6.2025   -2.7082 O   0  0  0  0  0  0  0  0  0  0  0  0
   40.4387    7.8004    0.4162 C   0  0  1  0  0  0  0  0  0  0  0  0
   39.0591    7.8951   -0.0832 O   0  0  0  0  0  0  0  0  0  0  0  0
   44.1023    7.4372   -9.2241 C   0  0  2  0  0  0  0  0  0  0  0  0
   42.8043    8.1577   -9.1780 O   0  0  0  0  0  0  0  0  0  0  0  0
   46.5168    5.1189   -5.5984 C   0  0  2  0  0  0  0  0  0  0  0  0
   41.6618    5.1220   -4.9659 C   0  0  2  0  0  0  0  0  0  0  0  0
   42.6677    4.6186   -5.7201 O   0  0  0  0  0  0  0  0  0  0  0  0
   40.6384    6.5039    1.3871 C   0  0  2  0  0  0  0  0  0  0  0  0
   42.0311    6.4176    1.8815 O   0  0  0  0  0  0  0  0  0  0  0  0
   43.9107    6.0371   -8.5512 C   0  0  2  0  0  0  0  0  0  0  0  0
   45.2116    5.3995   -8.6233 O   0  0  0  0  0  0  0  0  0  0  0  0
   45.8366    3.7536   -5.9528 C   0  0  2  0  0  0  0  0  0  0  0  0
   44.4659    4.0607   -5.8704 O   0  0  0  0  0  0  0  0  0  0  0  0
   41.2673    6.4982   -5.6189 C   0  0  0  0  0  0  0  0  0  0  0  0
   40.2128    6.2817   -6.6091 O   0  0  0  0  0  0  0  0  0  0  0  0
   40.3023    5.1659    0.5897 C   0  0  1  0  0  0  0  0  0  0  0  0
   41.2129    5.1323   -0.6200 O   0  0  0  0  0  0  0  0  0  0  0  0
   42.8636    5.3330   -9.3151 C   0  0  0  0  0  0  0  0  0  0  0  0
   42.2392    4.4375   -8.5383 O   0  0  0  0  0  0  0  0  0  0  0  0
   46.2691    2.6210   -4.9268 C   0  0  1  0  0  0  0  0  0  0  0  0
   45.6640    1.4084   -5.2578 O   0  0  0  0  0  0  0  0  0  0  0  0
   43.2266    1.3004   -2.9580 C   0  0  0  0  0  0  0  0  0  0  0  0
   40.5473    3.9996    1.6059 C   0  0  0  0  0  0  0  0  0  0  0  0
   39.5708    3.9585    2.6563 N   0  0  0  0  0  0  0  0  0  0  0  0
   42.4215    0.2020   -3.6538 C   0  0  0  0  0  0  0  0  0  0  0  0
   41.6286   -0.4719   -2.6074 N   0  0  0  0  0  0  0  0  0  0  0  0
   40.7132   -1.6248   -3.0250 C   0  0  0  0  0  0  0  0  0  0  0  0
  1  2  1  1  0  0  0
  1  8  1  0  0  0  0
  1 33  1  0  0  0  0
  3  4  1  1  0  0  0
  3 10  1  0  0  0  0
  3 42  1  0  0  0  0
  5 11  1  0  0  0  0
  5 29  1  0  0  0  0
  5 35  1  1  0  0  0
  6 13  1  0  0  0  0
  6 39  1  0  0  0  0
  6 22  1  6  0  0  0
  7 15  1  0  0  0  0
  8  9  1  1  0  0  0
  8 17  1  0  0  0  0
 10 19  1  0  0  0  0
 11 12  1  6  0  0  0
 11 21  1  0  0  0  0
 12 44  1  0  0  0  0
 13 14  1  1  0  0  0
 13 23  1  0  0  0  0
 15 16  1  0  0  0  0
 17 18  1  6  0  0  0
 17 25  1  0  0  0  0
 19 20  1  1  0  0  0
 19 27  1  0  0  0  0
 21 22  1  1  0  0  0
 21 28  1  0  0  0  0
 23 24  1  6  0  0  0
 23 30  1  0  0  0  0
 25 26  1  1  0  0  0
 25 32  1  0  0  0  0
 27  2  1  6  0  0  0
 27 34  1  0  0  0  0
 28 29  1  0  0  0  0
 28 36  1  6  0  0  0
 30 31  1  6  0  0  0
 30 38  1  0  0  0  0
 32 33  1  0  0  0  0
 32 40  1  6  0  0  0
 34 35  1  1  0  0  0
 34 42  1  0  0  0  0
 36 37  1  0  0  0  0
 38 39  1  0  0  0  0
 38 45  1  1  0  0  0
 40 41  1  0  0  0  0
 42 43  1  6  0  0  0
 44 47  1  0  0  0  0
 45 46  1  0  0  0  0
 47 48  1  0  0  0  0
 48 49  1  0  0  0  0
 49  7  1  0  0  0  0
M  END
>  <CHROM.1>
-152.46090423,36.35839644,161.92122885,65.62231540,69.23424782,-133.53933218
-71.22028004,63.06251663,-155.84745927,-153.53164245,-97.77908132,70.03180377
-96.21931543,179.78089914,-66.84285917,-174.99894775,43.24498824,4.58907077
-4.38378633,-0.15717641,-0.93793223,-2.92993241

>  <Name>
2bee_lig

>  <RI>
3.71943e+07

>  <Rbt.Current_Directory>
/home/itssahil/PROJECTS/Mol_Feturizer/New_Systems/rnas/2bee

>  <Rbt.Executable>
rbdock ($Id: //depot/dev/client3/rdock/2013.1/src/exe/rbdock.cxx#4 $)

>  <Rbt.Library>
libRbt.so (2013.1, Build901 2013/11/27)

>  <Rbt.Parameter_File>
/export/apps/rDock/src/rDock_2013.1_src/data/scripts/dock_solv.prm

>  <Rbt.Receptor>
prm/pocket_docking_2.prm

>  <SCORE>
16.3275

>  <SCORE.INTER>
13.6334

>  <SCORE.INTER.CONST>
1

>  <SCORE.INTER.POLAR>
0

>  <SCORE.INTER.ROT>
16

>  <SCORE.INTER.SOLV>
15.5473

>  <SCORE.INTER.VDW>
-10.3602

>  <SCORE.INTER.norm>
0.278233

>  <SCORE.INTRA>
-2.33699

>  <SCORE.INTRA.DIHEDRAL>
-4.02492

>  <SCORE.INTRA.DIHEDRAL.0>
36.0842

>  <SCORE.INTRA.POLAR>
0

>  <SCORE.INTRA.POLAR.0>
0

>  <SCORE.INTRA.REPUL>
0

>  <SCORE.INTRA.REPUL.0>
0

>  <SCORE.INTRA.SOLV>
-0.844143

>  <SCORE.INTRA.SOLV.lig_0>
-126.444

>  <SCORE.INTRA.VDW>
0.0975358

>  <SCORE.INTRA.VDW.0>
-7.40469

>  <SCORE.INTRA.norm>
-0.0476938

>  <SCORE.RESTR>
5.03109

>  <SCORE.RESTR.CAVITY>
5.03109

>  <SCORE.RESTR.norm>
0.102675

>  <SCORE.SYSTEM>
0

>  <SCORE.SYSTEM.CONST>
0

>  <SCORE.SYSTEM.DIHEDRAL>
0

>  <SCORE.SYSTEM.SOLV>
0

>  <SCORE.SYSTEM.norm>
0

>  <SCORE.heavy>
49

>  <SCORE.norm>
0.333215

>  <RMSD>
3.160

$$$$
2bee_lig
 OpenBabel11021811423D
libRbt.so/2013.1/901 2013/11/27
 49 52  0  0  0  0  0  0  0  0999 V2000
   44.4920    7.6883   -7.7942 C   0  0  2  0  0  0  0  0  0  0  0  0
   45.6514    6.9467   -8.1522 O   0  0  0  0  0  0  0  0  0  0  0  0
   48.4792    4.5412   -5.7876 C   0  0  2  0  0  0  0  0  0  0  0  0
   49.5337    4.2085   -4.7915 N   0  0  0  0  0  0  0  0  0  0  0  0
   44.2308    5.7681   -4.5308 C   0  0  1  0  0  0  0  0  0  0  0  0
   40.8281    7.5514   -1.6416 C   0  0  1  0  0  0  0  0  0  0  0  0
   45.1563    0.3416   -2.4685 C   0  0  0  0  0  0  0  0  0  0  0  0
   43.4341    7.6499   -8.9639 C   0  0  2  0  0  0  0  0  0  0  0  0
   43.1367    6.2677   -9.3239 N   0  0  0  0  0  0  0  0  0  0  0  0
   49.0348    5.6465   -6.7964 C   0  0  0  0  0  0  0  0  0  0  0  0
   43.8779    5.9401   -3.0891 C   0  0  2  0  0  0  0  0  0  0  0  0
   43.9299    4.6783   -2.3305 O   0  0  0  0  0  0  0  0  0  0  0  0
   40.1956    9.0401   -1.5200 C   0  0  2  0  0  0  0  0  0  0  0  0
   41.3224   10.0103   -1.3151 N   0  0  0  0  0  0  0  0  0  0  0  0
   46.1914    0.9226   -3.2377 C   0  0  0  0  0  0  0  0  0  0  0  0
   45.9615    1.2587   -4.5700 N   0  0  0  0  0  0  0  0  0  0  0  0
   43.9943    8.4714  -10.2063 C   0  0  1  0  0  0  0  0  0  0  0  0
   43.0338    8.4352  -11.2519 O   0  0  0  0  0  0  0  0  0  0  0  0
   47.8989    6.0495   -7.9005 C   0  0  2  0  0  0  0  0  0  0  0  0
   48.3882    7.0285   -8.8107 N   0  0  0  0  0  0  0  0  0  0  0  0
   42.5812    6.6792   -3.3153 C   0  0  2  0  0  0  0  0  0  0  0  0
   41.7557    7.6251   -2.7506 O   0  0  0  0  0  0  0  0  0  0  0  0
   39.2117    9.0632   -0.2963 C   0  0  1  0  0  0  0  0  0  0  0  0
   38.1353    8.1029   -0.5804 O   0  0  0  0  0  0  0  0  0  0  0  0
   44.2842    9.9240   -9.7623 C   0  0  2  0  0  0  0  0  0  0  0  0
   44.8249   10.7237  -10.8910 O   0  0  0  0  0  0  0  0  0  0  0  0
   46.6136    6.6010   -7.1691 C   0  0  2  0  0  0  0  0  0  0  0  0
   41.9947    5.9736   -4.6366 C   0  0  2  0  0  0  0  0  0  0  0  0
   43.1148    5.7864   -5.3744 O   0  0  0  0  0  0  0  0  0  0  0  0
   40.0314    8.6637    1.0573 C   0  0  2  0  0  0  0  0  0  0  0  0
   41.1136    9.6358    1.3315 O   0  0  0  0  0  0  0  0  0  0  0  0
   45.3300    9.9485   -8.5981 C   0  0  2  0  0  0  0  0  0  0  0  0
   44.7427    9.1451   -7.5426 O   0  0  0  0  0  0  0  0  0  0  0  0
   46.1128    5.4837   -6.1926 C   0  0  2  0  0  0  0  0  0  0  0  0
   44.9666    6.0652   -5.6197 O   0  0  0  0  0  0  0  0  0  0  0  0
   41.0060    6.8015   -5.5381 C   0  0  0  0  0  0  0  0  0  0  0  0
   40.6286    6.0041   -6.7047 O   0  0  0  0  0  0  0  0  0  0  0  0
   40.6808    7.2175    0.8970 C   0  0  1  0  0  0  0  0  0  0  0  0
   41.5698    7.2660   -0.3281 O   0  0  0  0  0  0  0  0  0  0  0  0
   45.5256   11.3624   -8.2260 C   0  0  0  0  0  0  0  0  0  0  0  0
   46.3022   11.9805   -9.1260 O   0  0  0  0  0  0  0  0  0  0  0  0
   47.2232    5.1352   -5.1119 C   0  0  1  0  0  0  0  0  0  0  0  0
   46.7689    4.1332   -4.2540 O   0  0  0  0  0  0  0  0  0  0  0  0
   43.6828    4.5471   -0.8853 C   0  0  0  0  0  0  0  0  0  0  0  0
   41.4513    6.9536    2.2349 C   0  0  0  0  0  0  0  0  0  0  0  0
   42.1785    5.7167    2.2269 N   0  0  0  0  0  0  0  0  0  0  0  0
   43.1425    3.1469   -0.5910 C   0  0  0  0  0  0  0  0  0  0  0  0
   44.1858    2.1914   -1.0113 N   0  0  0  0  0  0  0  0  0  0  0  0
   43.8606    1.2215   -2.1492 C   0  0  0  0  0  0  0  0  0  0  0  0
  1  2  1  6  0  0  0
  1  8  1  0  0  0  0
  1 33  1  0  0  0  0
  3  4  1  1  0  0  0
  3 10  1  0  0  0  0
  3 42  1  0  0  0  0
  5 11  1  0  0  0  0
  5 29  1  0  0  0  0
  5 35  1  6  0  0  0
  6 13  1  0  0  0  0
  6 39  1  0  0  0  0
  6 22  1  6  0  0  0
  7 15  1  0  0  0  0
  8  9  1  6  0  0  0
  8 17  1  0  0  0  0
 10 19  1  0  0  0  0
 11 12  1  6  0  0  0
 11 21  1  0  0  0  0
 12 44  1  0  0  0  0
 13 14  1  1  0  0  0
 13 23  1  0  0  0  0
 15 16  1  0  0  0  0
 17 18  1  6  0  0  0
 17 25  1  0  0  0  0
 19 20  1  6  0  0  0
 19 27  1  0  0  0  0
 21 22  1  1  0  0  0
 21 28  1  0  0  0  0
 23 24  1  6  0  0  0
 23 30  1  0  0  0  0
 25 26  1  6  0  0  0
 25 32  1  0  0  0  0
 27  2  1  6  0  0  0
 27 34  1  0  0  0  0
 28 29  1  0  0  0  0
 28 36  1  6  0  0  0
 30 31  1  6  0  0  0
 30 38  1  0  0  0  0
 32 33  1  0  0  0  0
 32 40  1  1  0  0  0
 34 35  1  1  0  0  0
 34 42  1  0  0  0  0
 36 37  1  0  0  0  0
 38 39  1  0  0  0  0
 38 45  1  1  0  0  0
 40 41  1  0  0  0  0
 42 43  1  1  0  0  0
 44 47  1  0  0  0  0
 45 46  1  0  0  0  0
 47 48  1  0  0  0  0
 48 49  1  0  0  0  0
 49  7  1  0  0  0  0
M  END
>  <CHROM.1>
-166.67522153,94.96575401,179.82326912,-65.79171868,177.56152342,151.90380992
-75.67501592,-168.78868013,178.00418998,-76.64893750,-164.22226672,-176.06767529
61.19363688,-116.46881457,177.37262656,-78.47919900,43.89462183,6.58553772
-4.57522934,0.90972135,0.78931046,-0.87774480

>  <Name>
2bee_lig

>  <RI>
2.18182e+07

>  <Rbt.Current_Directory>
/home/itssahil/PROJECTS/Mol_Feturizer/New_Systems/rnas/2bee

>  <Rbt.Executable>
rbdock ($Id: //depot/dev/client3/rdock/2013.1/src/exe/rbdock.cxx#4 $)

>  <Rbt.Library>
libRbt.so (2013.1, Build901 2013/11/27)

>  <Rbt.Parameter_File>
/export/apps/rDock/src/rDock_2013.1_src/data/scripts/dock_solv.prm

>  <Rbt.Receptor>
prm/pocket_docking_3.prm

>  <SCORE>
-22.347

>  <SCORE.INTER>
-13.9498

>  <SCORE.INTER.CONST>
1

>  <SCORE.INTER.POLAR>
-0.916614

>  <SCORE.INTER.ROT>
16

>  <SCORE.INTER.SOLV>
23.2222

>  <SCORE.INTER.VDW>
-28.2519

>  <SCORE.INTER.norm>
-0.284689

>  <SCORE.INTRA>
-8.42383

>  <SCORE.INTRA.DIHEDRAL>
-17.6818

>  <SCORE.INTRA.DIHEDRAL.0>
36.0842

>  <SCORE.INTRA.POLAR>
0

>  <SCORE.INTRA.POLAR.0>
0

>  <SCORE.INTRA.REPUL>
0

>  <SCORE.INTRA.REPUL.0>
0

>  <SCORE.INTRA.SOLV>
0.468744

>  <SCORE.INTRA.SOLV.lig_0>
-126.444

>  <SCORE.INTRA.VDW>
0.182721

>  <SCORE.INTRA.VDW.0>
-7.40469

>  <SCORE.INTRA.norm>
-0.171915

>  <SCORE.RESTR>
0.0265848

>  <SCORE.RESTR.CAVITY>
0.0265848

>  <SCORE.RESTR.norm>
0.000542546

>  <SCORE.SYSTEM>
0

>  <SCORE.SYSTEM.CONST>
0

>  <SCORE.SYSTEM.DIHEDRAL>
0

>  <SCORE.SYSTEM.SOLV>
0

>  <SCORE.SYSTEM.norm>
0

>  <SCORE.heavy>
49

>  <SCORE.norm>
-0.456062

>  <RMSD>
3.266

$$$$
2bee_lig
 OpenBabel11021811423D
libRbt.so/2013.1/901 2013/11/27
 49 52  0  0  0  0  0  0  0  0999 V2000
   46.3416    6.9626   -7.7364 C   0  0  2  0  0  0  0  0  0  0  0  0
   46.5990    5.5676   -7.8351 O   0  0  0  0  0  0  0  0  0  0  0  0
   49.5725    2.7758   -6.1804 C   0  0  2  0  0  0  0  0  0  0  0  0
   50.5142    2.1563   -5.2086 N   0  0  0  0  0  0  0  0  0  0  0  0
   45.2326    3.2473   -5.0550 C   0  0  1  0  0  0  0  0  0  0  0  0
   41.7396    5.2918   -2.4922 C   0  0  1  0  0  0  0  0  0  0  0  0
   41.0640    0.4508   -3.6821 C   0  0  0  0  0  0  0  0  0  0  0  0
   45.4551    7.2679   -6.4676 C   0  0  2  0  0  0  0  0  0  0  0  0
   46.0874    6.7201   -5.2723 N   0  0  0  0  0  0  0  0  0  0  0  0
   49.9607    4.3100   -6.3881 C   0  0  0  0  0  0  0  0  0  0  0  0
   45.0988    3.5532   -3.5986 C   0  0  2  0  0  0  0  0  0  0  0  0
   45.2626    2.3639   -2.7447 O   0  0  0  0  0  0  0  0  0  0  0  0
   41.4176    6.8512   -2.1831 C   0  0  2  0  0  0  0  0  0  0  0  0
   42.5068    7.3861   -1.2996 N   0  0  0  0  0  0  0  0  0  0  0  0
   41.4813   -0.2038   -4.8646 C   0  0  0  0  0  0  0  0  0  0  0  0
   42.8362   -0.2650   -5.1830 N   0  0  0  0  0  0  0  0  0  0  0  0
   43.9982    6.6670   -6.6875 C   0  0  1  0  0  0  0  0  0  0  0  0
   43.2065    6.9506   -5.5429 O   0  0  0  0  0  0  0  0  0  0  0  0
   48.9392    5.0309   -7.4409 C   0  0  2  0  0  0  0  0  0  0  0  0
   49.2828    6.3979   -7.6398 N   0  0  0  0  0  0  0  0  0  0  0  0
   43.7834    4.2872   -3.6960 C   0  0  2  0  0  0  0  0  0  0  0  0
   43.0520    5.2916   -3.1034 O   0  0  0  0  0  0  0  0  0  0  0  0
   40.0245    6.9374   -1.4633 C   0  0  1  0  0  0  0  0  0  0  0  0
   39.0159    6.4116   -2.3950 O   0  0  0  0  0  0  0  0  0  0  0  0
   43.3822    7.2888   -7.9624 C   0  0  2  0  0  0  0  0  0  0  0  0
   42.0244    6.7422   -8.2140 O   0  0  0  0  0  0  0  0  0  0  0  0
   47.4583    4.9292   -6.9045 C   0  0  2  0  0  0  0  0  0  0  0  0
   43.0059    3.4742   -4.8458 C   0  0  2  0  0  0  0  0  0  0  0  0
   44.0032    3.2056   -5.7217 O   0  0  0  0  0  0  0  0  0  0  0  0
   40.0798    6.0671   -0.0839 C   0  0  2  0  0  0  0  0  0  0  0  0
   41.1000    6.6040    0.8447 O   0  0  0  0  0  0  0  0  0  0  0  0
   44.2734    6.9843   -9.2126 C   0  0  2  0  0  0  0  0  0  0  0  0
   45.5772    7.5341   -8.8930 O   0  0  0  0  0  0  0  0  0  0  0  0
   47.1303    3.4096   -6.7154 C   0  0  2  0  0  0  0  0  0  0  0  0
   45.7979    3.4350   -6.2636 O   0  0  0  0  0  0  0  0  0  0  0  0
   41.8943    4.2318   -5.6620 C   0  0  0  0  0  0  0  0  0  0  0  0
   40.6592    4.2718   -4.8795 O   0  0  0  0  0  0  0  0  0  0  0  0
   40.4417    4.5495   -0.4084 C   0  0  1  0  0  0  0  0  0  0  0  0
   41.7657    4.5589   -1.1435 O   0  0  0  0  0  0  0  0  0  0  0  0
   43.6260    7.6313  -10.3693 C   0  0  0  0  0  0  0  0  0  0  0  0
   42.4834    7.0035  -10.6783 O   0  0  0  0  0  0  0  0  0  0  0  0
   48.1166    2.7428   -5.6643 C   0  0  1  0  0  0  0  0  0  0  0  0
   47.8203    1.3881   -5.5111 O   0  0  0  0  0  0  0  0  0  0  0  0
   44.7583    2.2328   -1.3679 C   0  0  0  0  0  0  0  0  0  0  0  0
   40.4868    3.8237    0.9788 C   0  0  0  0  0  0  0  0  0  0  0  0
   40.9440    2.4669    0.8854 N   0  0  0  0  0  0  0  0  0  0  0  0
   43.2656    1.9017   -1.4069 C   0  0  0  0  0  0  0  0  0  0  0  0
   43.1247    0.6657   -2.2009 N   0  0  0  0  0  0  0  0  0  0  0  0
   41.7392    0.0237   -2.2977 C   0  0  0  0  0  0  0  0  0  0  0  0
  1  2  1  6  0  0  0
  1  8  1  0  0  0  0
  1 33  1  0  0  0  0
  3  4  1  1  0  0  0
  3 10  1  0  0  0  0
  3 42  1  0  0  0  0
  5 11  1  0  0  0  0
  5 29  1  0  0  0  0
  5 35  1  6  0  0  0
  6 13  1  0  0  0  0
  6 39  1  0  0  0  0
  6 22  1  1  0  0  0
  7 15  1  0  0  0  0
  8  9  1  1  0  0  0
  8 17  1  0  0  0  0
 10 19  1  0  0  0  0
 11 12  1  1  0  0  0
 11 21  1  0  0  0  0
 12 44  1  0  0  0  0
 13 14  1  1  0  0  0
 13 23  1  0  0  0  0
 15 16  1  0  0  0  0
 17 18  1  1  0  0  0
 17 25  1  0  0  0  0
 19 20  1  1  0  0  0
 19 27  1  0  0  0  0
 21 22  1  1  0  0  0
 21 28  1  0  0  0  0
 23 24  1  6  0  0  0
 23 30  1  0  0  0  0
 25 26  1  6  0  0  0
 25 32  1  0  0  0  0
 27  2  1  6  0  0  0
 27 34  1  0  0  0  0
 28 29  1  0  0  0  0
 28 36  1  6  0  0  0
 30 31  1  1  0  0  0
 30 38  1  0  0  0  0
 32 33  1  0  0  0  0
 32 40  1  6  0  0  0
 34 35  1  1  0  0  0
 34 42  1  0  0  0  0
 36 37  1  0  0  0  0
 38 39  1  0  0  0  0
 38 45  1  1  0  0  0
 40 41  1  0  0  0  0
 42 43  1  6  0  0  0
 44 47  1  0  0  0  0
 45 46  1  0  0  0  0
 47 48  1  0  0  0  0
 48 49  1  0  0  0  0
 49  7  1  0  0  0  0
M  END
>  <CHROM.1>
-70.06734653,53.90217042,-172.47049700,-52.73964370,-158.30761534,79.65828505
-121.34898367,-87.90952142,-80.05351287,-69.62881304,-104.74105818,-173.65676535
57.11163775,174.37216210,98.90417341,77.86496967,43.99323736,4.48659890,-4.66081515
0.67367320,0.56320498,-0.78319686

>  <Name>
2bee_lig

>  <RI>
2.18182e+07

>  <Rbt.Current_Directory>
/home/itssahil/PROJECTS/Mol_Feturizer/New_Systems/rnas/2bee

>  <Rbt.Executable>
rbdock ($Id: //depot/dev/client3/rdock/2013.1/src/exe/rbdock.cxx#4 $)

>  <Rbt.Library>
libRbt.so (2013.1, Build901 2013/11/27)

>  <Rbt.Parameter_File>
/export/apps/rDock/src/rDock_2013.1_src/data/scripts/dock_solv.prm

>  <Rbt.Receptor>
prm/pocket_docking_3.prm

>  <SCORE>
-0.339884

>  <SCORE.INTER>
4.53271

>  <SCORE.INTER.CONST>
1

>  <SCORE.INTER.POLAR>
0

>  <SCORE.INTER.ROT>
16

>  <SCORE.INTER.SOLV>
13.2995

>  <SCORE.INTER.VDW>
-15.678

>  <SCORE.INTER.norm>
0.0925043

>  <SCORE.INTRA>
-4.89848

>  <SCORE.INTRA.DIHEDRAL>
-14.2603

>  <SCORE.INTRA.DIHEDRAL.0>
36.0842

>  <SCORE.INTRA.POLAR>
0

>  <SCORE.INTRA.POLAR.0>
0

>  <SCORE.INTRA.REPUL>
0.0105946

>  <SCORE.INTRA.REPUL.0>
0

>  <SCORE.INTRA.SOLV>
8.81806

>  <SCORE.INTRA.SOLV.lig_0>
-126.444

>  <SCORE.INTRA.VDW>
-2.23035

>  <SCORE.INTRA.VDW.0>
-7.40469

>  <SCORE.INTRA.norm>
-0.099969

>  <SCORE.RESTR>
0.0258853

>  <SCORE.RESTR.CAVITY>
0.0258853

>  <SCORE.RESTR.norm>
0.000528271

>  <SCORE.SYSTEM>
0

>  <SCORE.SYSTEM.CONST>
0

>  <SCORE.SYSTEM.DIHEDRAL>
0

>  <SCORE.SYSTEM.SOLV>
0

>  <SCORE.SYSTEM.norm>
0

>  <SCORE.heavy>
49

>  <SCORE.norm>
-0.00693642

>  <RMSD>
3.279

$$$$
2bee_lig
 OpenBabel11021811423D
libRbt.so/2013.1/901 2013/11/27
 49 52  0  0  0  0  0  0  0  0999 V2000
   43.3303    4.5243   -8.1549 C   0  0  2  0  0  0  0  0  0  0  0  0
   44.5770    3.8900   -7.8988 O   0  0  0  0  0  0  0  0  0  0  0  0
   46.0139    1.2647   -4.6712 C   0  0  2  0  0  0  0  0  0  0  0  0
   46.3942    0.8154   -3.3043 N   0  0  0  0  0  0  0  0  0  0  0  0
   41.8048    2.6793   -5.4205 C   0  0  1  0  0  0  0  0  0  0  0  0
   41.5009    6.8083   -3.7423 C   0  0  1  0  0  0  0  0  0  0  0  0
   39.6290   -2.9809   -2.6584 C   0  0  0  0  0  0  0  0  0  0  0  0
   43.1091    4.6908   -9.7080 C   0  0  2  0  0  0  0  0  0  0  0  0
   43.2371    3.3984  -10.3728 N   0  0  0  0  0  0  0  0  0  0  0  0
   46.8372    2.5805   -5.0434 C   0  0  0  0  0  0  0  0  0  0  0  0
   41.3306    2.9682   -4.0333 C   0  0  2  0  0  0  0  0  0  0  0  0
   40.4231    1.9328   -3.5093 O   0  0  0  0  0  0  0  0  0  0  0  0
   42.9254    6.3925   -3.0874 C   0  0  2  0  0  0  0  0  0  0  0  0
   42.6686    5.8764   -1.7014 N   0  0  0  0  0  0  0  0  0  0  0  0
   39.1339   -3.6631   -3.7943 C   0  0  0  0  0  0  0  0  0  0  0  0
   38.1198   -4.6072   -3.6498 N   0  0  0  0  0  0  0  0  0  0  0  0
   44.1530    5.7483  -10.2772 C   0  0  1  0  0  0  0  0  0  0  0  0
   43.9433    5.8951  -11.6741 O   0  0  0  0  0  0  0  0  0  0  0  0
   46.4371    3.1142   -6.5356 C   0  0  2  0  0  0  0  0  0  0  0  0
   47.1731    4.2829   -6.8805 N   0  0  0  0  0  0  0  0  0  0  0  0
   40.8594    4.3771   -4.3015 C   0  0  2  0  0  0  0  0  0  0  0  0
   40.6991    5.6037   -3.6976 O   0  0  0  0  0  0  0  0  0  0  0  0
   43.8435    7.6658   -3.0459 C   0  0  1  0  0  0  0  0  0  0  0  0
   44.0583    8.0974   -4.4349 O   0  0  0  0  0  0  0  0  0  0  0  0
   43.9635    7.0934   -9.5382 C   0  0  2  0  0  0  0  0  0  0  0  0
   44.9314    8.1072  -10.0293 O   0  0  0  0  0  0  0  0  0  0  0  0
   44.8907    3.4243   -6.5962 C   0  0  2  0  0  0  0  0  0  0  0  0
   40.2683    4.2771   -5.7942 C   0  0  2  0  0  0  0  0  0  0  0  0
   41.1584    3.4502   -6.3927 O   0  0  0  0  0  0  0  0  0  0  0  0
   43.1103    8.8260   -2.1629 C   0  0  2  0  0  0  0  0  0  0  0  0
   42.8972    8.3793   -0.7677 O   0  0  0  0  0  0  0  0  0  0  0  0
   44.1796    6.9141   -7.9984 C   0  0  2  0  0  0  0  0  0  0  0  0
   43.2142    5.9098   -7.5935 O   0  0  0  0  0  0  0  0  0  0  0  0
   44.1320    2.1067   -6.2209 C   0  0  2  0  0  0  0  0  0  0  0  0
   42.7814    2.4865   -6.3285 O   0  0  0  0  0  0  0  0  0  0  0  0
   40.2319    5.5886   -6.6627 C   0  0  0  0  0  0  0  0  0  0  0  0
   39.3135    6.5499   -6.0527 O   0  0  0  0  0  0  0  0  0  0  0  0
   41.6945    9.1856   -2.7994 C   0  0  1  0  0  0  0  0  0  0  0  0
   40.8943    7.9008   -2.8505 O   0  0  0  0  0  0  0  0  0  0  0  0
   43.9570    8.2331   -7.3768 C   0  0  0  0  0  0  0  0  0  0  0  0
   45.0976    8.7030   -6.8539 O   0  0  0  0  0  0  0  0  0  0  0  0
   44.5149    1.6292   -4.7554 C   0  0  1  0  0  0  0  0  0  0  0  0
   43.8400    0.4507   -4.4363 O   0  0  0  0  0  0  0  0  0  0  0  0
   39.0931    1.6161   -4.0549 C   0  0  0  0  0  0  0  0  0  0  0  0
   41.0814   10.2828   -1.8649 C   0  0  0  0  0  0  0  0  0  0  0  0
   40.7314    9.7805   -0.5673 N   0  0  0  0  0  0  0  0  0  0  0  0
   38.5825    0.3218   -3.4200 C   0  0  0  0  0  0  0  0  0  0  0  0
   39.4623   -0.7623   -3.8982 N   0  0  0  0  0  0  0  0  0  0  0  0
   40.2819   -1.5364   -2.8636 C   0  0  0  0  0  0  0  0  0  0  0  0
  1  2  1  6  0  0  0
  1  8  1  0  0  0  0
  1 33  1  0  0  0  0
  3  4  1  1  0  0  0
  3 10  1  0  0  0  0
  3 42  1  0  0  0  0
  5 11  1  0  0  0  0
  5 29  1  0  0  0  0
  5 35  1  1  0  0  0
  6 13  1  0  0  0  0
  6 39  1  0  0  0  0
  6 22  1  1  0  0  0
  7 15  1  0  0  0  0
  8  9  1  6  0  0  0
  8 17  1  0  0  0  0
 10 19  1  0  0  0  0
 11 12  1  6  0  0  0
 11 21  1  0  0  0  0
 12 44  1  0  0  0  0
 13 14  1  1  0  0  0
 13 23  1  0  0  0  0
 15 16  1  0  0  0  0
 17 18  1  6  0  0  0
 17 25  1  0  0  0  0
 19 20  1  1  0  0  0
 19 27  1  0  0  0  0
 21 22  1  1  0  0  0
 21 28  1  0  0  0  0
 23 24  1  6  0  0  0
 23 30  1  0  0  0  0
 25 26  1  6  0  0  0
 25 32  1  0  0  0  0
 27  2  1  6  0  0  0
 27 34  1  0  0  0  0
 28 29  1  0  0  0  0
 28 36  1  6  0  0  0
 30 31  1  1  0  0  0
 30 38  1  0  0  0  0
 32 33  1  0  0  0  0
 32 40  1  1  0  0  0
 34 35  1  1  0  0  0
 34 42  1  0  0  0  0
 36 37  1  0  0  0  0
 38 39  1  0  0  0  0
 38 45  1  1  0  0  0
 40 41  1  0  0  0  0
 42 43  1  6  0  0  0
 44 47  1  0  0  0  0
 45 46  1  0  0  0  0
 47 48  1  0  0  0  0
 48 49  1  0  0  0  0
 49  7  1  0  0  0  0
M  END
>  <CHROM.1>
-168.98586245,22.08176720,-63.13657950,-154.10608438,-64.55008839,169.23566226
100.68195702,-165.83246013,-64.93439282,-113.64347028,-109.87252620,-68.31933575
-66.83894967,117.81999891,105.67767886,39.57235462,42.56767088,4.32300058
-5.30748163,-0.93580270,-0.99254768,-2.84296297

>  <Name>
2bee_lig

>  <RI>
2.18182e+07

>  <Rbt.Current_Directory>
/home/itssahil/PROJECTS/Mol_Feturizer/New_Systems/rnas/2bee

>  <Rbt.Executable>
rbdock ($Id: //depot/dev/client3/rdock/2013.1/src/exe/rbdock.cxx#4 $)

>  <Rbt.Library>
libRbt.so (2013.1, Build901 2013/11/27)

>  <Rbt.Parameter_File>
/export/apps/rDock/src/rDock_2013.1_src/data/scripts/dock_solv.prm

>  <Rbt.Receptor>
prm/pocket_docking_3.prm

>  <SCORE>
-2.74846

>  <SCORE.INTER>
-0.960969

>  <SCORE.INTER.CONST>
1

>  <SCORE.INTER.POLAR>
-0.938083

>  <SCORE.INTER.ROT>
16

>  <SCORE.INTER.SOLV>
10.7018

>  <SCORE.INTER.VDW>
-15.3476

>  <SCORE.INTER.norm>
-0.0196116

>  <SCORE.INTRA>
-3.43325

>  <SCORE.INTRA.DIHEDRAL>
-7.67286

>  <SCORE.INTRA.DIHEDRAL.0>
36.0842

>  <SCORE.INTRA.POLAR>
0

>  <SCORE.INTRA.POLAR.0>
0

>  <SCORE.INTRA.REPUL>
0.000699272

>  <SCORE.INTRA.REPUL.0>
0

>  <SCORE.INTRA.SOLV>
0.231169

>  <SCORE.INTRA.SOLV.lig_0>
-126.444

>  <SCORE.INTRA.VDW>
0.284103

>  <SCORE.INTRA.VDW.0>
-7.40469

>  <SCORE.INTRA.norm>
-0.0700663

>  <SCORE.RESTR>
1.64576

>  <SCORE.RESTR.CAVITY>
1.64576

>  <SCORE.RESTR.norm>
0.0335869

>  <SCORE.SYSTEM>
0

>  <SCORE.SYSTEM.CONST>
0

>  <SCORE.SYSTEM.DIHEDRAL>
0

>  <SCORE.SYSTEM.SOLV>
0

>  <SCORE.SYSTEM.norm>
0

>  <SCORE.heavy>
49

>  <SCORE.norm>
-0.056091

>  <RMSD>
3.429

$$$$
2bee_lig
 OpenBabel11021811423D
libRbt.so/2013.1/901 2013/11/27
 49 52  0  0  0  0  0  0  0  0999 V2000
   46.0989    6.2112   -7.7908 C   0  0  2  0  0  0  0  0  0  0  0  0
   45.6489    5.9626   -6.4649 O   0  0  0  0  0  0  0  0  0  0  0  0
   48.0003    2.3817   -5.4541 C   0  0  2  0  0  0  0  0  0  0  0  0
   48.5288    1.2386   -4.6610 N   0  0  0  0  0  0  0  0  0  0  0  0
   43.5139    3.0902   -5.9270 C   0  0  1  0  0  0  0  0  0  0  0  0
   41.0123    5.4852   -2.8565 C   0  0  1  0  0  0  0  0  0  0  0  0
   39.3576   -0.7138   -4.8395 C   0  0  0  0  0  0  0  0  0  0  0  0
   45.7115    7.6743   -8.2357 C   0  0  2  0  0  0  0  0  0  0  0  0
   46.2222    8.6421   -7.2707 N   0  0  0  0  0  0  0  0  0  0  0  0
   48.2478    3.7401   -4.6532 C   0  0  0  0  0  0  0  0  0  0  0  0
   42.8451    3.0131   -4.5931 C   0  0  2  0  0  0  0  0  0  0  0  0
   42.4741    1.6383   -4.2152 O   0  0  0  0  0  0  0  0  0  0  0  0
   42.3894    6.3162   -2.6468 C   0  0  2  0  0  0  0  0  0  0  0  0
   43.5378    5.4041   -2.9666 N   0  0  0  0  0  0  0  0  0  0  0  0
   39.4996   -1.6637   -5.8779 C   0  0  0  0  0  0  0  0  0  0  0  0
   38.8376   -1.4729   -7.0887 N   0  0  0  0  0  0  0  0  0  0  0  0
   44.1308    7.7764   -8.3873 C   0  0  1  0  0  0  0  0  0  0  0  0
   43.7921    9.0948   -8.7923 O   0  0  0  0  0  0  0  0  0  0  0  0
   47.6680    5.0207   -5.4871 C   0  0  2  0  0  0  0  0  0  0  0  0
   47.8922    6.2384   -4.7848 N   0  0  0  0  0  0  0  0  0  0  0  0
   41.8038    4.0729   -4.8601 C   0  0  2  0  0  0  0  0  0  0  0  0
   41.0478    5.0372   -4.2327 O   0  0  0  0  0  0  0  0  0  0  0  0
   42.4581    6.7948   -1.1527 C   0  0  1  0  0  0  0  0  0  0  0  0
   41.3143    7.6904   -0.9258 O   0  0  0  0  0  0  0  0  0  0  0  0
   43.6541    6.7324   -9.4237 C   0  0  2  0  0  0  0  0  0  0  0  0
   42.1785    6.7832   -9.5847 O   0  0  0  0  0  0  0  0  0  0  0  0
   46.1222    4.8349   -5.7463 C   0  0  2  0  0  0  0  0  0  0  0  0
   41.4528    3.8443   -6.4131 C   0  0  2  0  0  0  0  0  0  0  0  0
   42.6700    3.5648   -6.9369 O   0  0  0  0  0  0  0  0  0  0  0  0
   42.4056    5.4925   -0.1705 C   0  0  2  0  0  0  0  0  0  0  0  0
   43.5601    4.5974   -0.4098 O   0  0  0  0  0  0  0  0  0  0  0  0
   44.0493    5.2861   -8.9742 C   0  0  2  0  0  0  0  0  0  0  0  0
   45.4923    5.3145   -8.8283 O   0  0  0  0  0  0  0  0  0  0  0  0
   45.9349    3.4914   -6.5288 C   0  0  2  0  0  0  0  0  0  0  0  0
   44.5425    3.4391   -6.7243 O   0  0  0  0  0  0  0  0  0  0  0  0
   40.8911    5.0661   -7.2302 C   0  0  0  0  0  0  0  0  0  0  0  0
   39.7261    5.6183   -6.5394 O   0  0  0  0  0  0  0  0  0  0  0  0
   41.0662    4.6679   -0.4261 C   0  0  1  0  0  0  0  0  0  0  0  0
   41.0530    4.2908   -1.8928 O   0  0  0  0  0  0  0  0  0  0  0  0
   43.5792    4.3657  -10.0266 C   0  0  0  0  0  0  0  0  0  0  0  0
   44.0402    4.7495  -11.2247 O   0  0  0  0  0  0  0  0  0  0  0  0
   46.4771    2.2616   -5.6825 C   0  0  1  0  0  0  0  0  0  0  0  0
   46.3129    1.0724   -6.3932 O   0  0  0  0  0  0  0  0  0  0  0  0
   41.9445    1.2334   -2.9028 C   0  0  0  0  0  0  0  0  0  0  0  0
   41.1362    3.4429    0.5474 C   0  0  0  0  0  0  0  0  0  0  0  0
   42.2457    2.5748    0.2752 N   0  0  0  0  0  0  0  0  0  0  0  0
   40.4315    1.4551   -2.8792 C   0  0  0  0  0  0  0  0  0  0  0  0
   39.8191    0.1684   -2.4952 N   0  0  0  0  0  0  0  0  0  0  0  0
   40.0220   -1.0328   -3.4211 C   0  0  0  0  0  0  0  0  0  0  0  0
  1  2  1  1  0  0  0
  1  8  1  0  0  0  0
  1 33  1  0  0  0  0
  3  4  1  1  0  0  0
  3 10  1  0  0  0  0
  3 42  1  0  0  0  0
  5 11  1  0  0  0  0
  5 29  1  0  0  0  0
  5 35  1  1  0  0  0
  6 13  1  0  0  0  0
  6 39  1  0  0  0  0
  6 22  1  6  0  0  0
  7 15  1  0  0  0  0
  8  9  1  1  0  0  0
  8 17  1  0  0  0  0
 10 19  1  0  0  0  0
 11 12  1  6  0  0  0
 11 21  1  0  0  0  0
 12 44  1  0  0  0  0
 13 14  1  1  0  0  0
 13 23  1  0  0  0  0
 15 16  1  0  0  0  0
 17 18  1  6  0  0  0
 17 25  1  0  0  0  0
 19 20  1  1  0  0  0
 19 27  1  0  0  0  0
 21 22  1  1  0  0  0
 21 28  1  0  0  0  0
 23 24  1  1  0  0  0
 23 30  1  0  0  0  0
 25 26  1  1  0  0  0
 25 32  1  0  0  0  0
 27  2  1  6  0  0  0
 27 34  1  0  0  0  0
 28 29  1  0  0  0  0
 28 36  1  6  0  0  0
 30 31  1  6  0  0  0
 30 38  1  0  0  0  0
 32 33  1  0  0  0  0
 32 40  1  6  0  0  0
 34 35  1  1  0  0  0
 34 42  1  0  0  0  0
 36 37  1  0  0  0  0
 38 39  1  0  0  0  0
 38 45  1  1  0  0  0
 40 41  1  0  0  0  0
 42 43  1  6  0  0  0
 44 47  1  0  0  0  0
 45 46  1  0  0  0  0
 47 48  1  0  0  0  0
 48 49  1  0  0  0  0
 49  7  1  0  0  0  0
M  END
>  <CHROM.1>
-166.45230504,34.45876242,72.16146424,174.45916531,172.66489212,84.63646150
2.94748959,65.65747073,-53.83823881,53.24167009,-79.31591629,-62.42656721
125.58324178,-62.46115118,-62.43475642,176.26036787,43.29579984,4.13061058
-5.21459727,-0.52400616,0.89732665,1.21184461

>  <Name>
2bee_lig

>  <RI>
2.18182e+07

>  <Rbt.Current_Directory>
/home/itssahil/PROJECTS/Mol_Feturizer/New_Systems/rnas/2bee

>  <Rbt.Executable>
rbdock ($Id: //depot/dev/client3/rdock/2013.1/src/exe/rbdock.cxx#4 $)

>  <Rbt.Library>
libRbt.so (2013.1, Build901 2013/11/27)

>  <Rbt.Parameter_File>
/export/apps/rDock/src/rDock_2013.1_src/data/scripts/dock_solv.prm

>  <Rbt.Receptor>
prm/pocket_docking_3.prm

>  <SCORE>
0.839801

>  <SCORE.INTER>
6.40893

>  <SCORE.INTER.CONST>
1

>  <SCORE.INTER.POLAR>
-0.938083

>  <SCORE.INTER.ROT>
16

>  <SCORE.INTER.SOLV>
15.7826

>  <SCORE.INTER.VDW>
-12.128

>  <SCORE.INTER.norm>
0.130795

>  <SCORE.INTRA>
-6.52568

>  <SCORE.INTRA.DIHEDRAL>
-18.0474

>  <SCORE.INTRA.DIHEDRAL.0>
36.0842

>  <SCORE.INTRA.POLAR>
0

>  <SCORE.INTRA.POLAR.0>
0

>  <SCORE.INTRA.REPUL>
0

>  <SCORE.INTRA.REPUL.0>
0

>  <SCORE.INTRA.SOLV>
3.58571

>  <SCORE.INTRA.SOLV.lig_0>
-126.444

>  <SCORE.INTRA.VDW>
0.705161

>  <SCORE.INTRA.VDW.0>
-7.40469

>  <SCORE.INTRA.norm>
-0.133177

>  <SCORE.RESTR>
0.95655

>  <SCORE.RESTR.CAVITY>
0.95655

>  <SCORE.RESTR.norm>
0.0195214

>  <SCORE.SYSTEM>
0

>  <SCORE.SYSTEM.CONST>
0

>  <SCORE.SYSTEM.DIHEDRAL>
0

>  <SCORE.SYSTEM.SOLV>
0

>  <SCORE.SYSTEM.norm>
0

>  <SCORE.heavy>
49

>  <SCORE.norm>
0.0171388

>  <RMSD>
3.444

$$$$
2bee_lig
 OpenBabel11021811423D
libRbt.so/2013.1/901 2013/11/27
 49 52  0  0  0  0  0  0  0  0999 V2000
   45.8722    6.0172   -7.6649 C   0  0  2  0  0  0  0  0  0  0  0  0
   45.4512    5.8745   -6.3142 O   0  0  0  0  0  0  0  0  0  0  0  0
   46.5609    1.6891   -5.5238 C   0  0  2  0  0  0  0  0  0  0  0  0
   46.8785    0.4508   -4.7619 N   0  0  0  0  0  0  0  0  0  0  0  0
   42.7786    4.1571   -4.7236 C   0  0  1  0  0  0  0  0  0  0  0  0
   40.5430    7.6023   -2.2143 C   0  0  1  0  0  0  0  0  0  0  0  0
   38.3024   -0.2392   -5.4688 C   0  0  0  0  0  0  0  0  0  0  0  0
   45.4970    7.4503   -8.2075 C   0  0  2  0  0  0  0  0  0  0  0  0
   46.0464    8.4772   -7.3288 N   0  0  0  0  0  0  0  0  0  0  0  0
   47.5293    2.8655   -5.0481 C   0  0  0  0  0  0  0  0  0  0  0  0
   42.6328    4.6258   -3.3123 C   0  0  2  0  0  0  0  0  0  0  0  0
   42.1651    3.5670   -2.4010 O   0  0  0  0  0  0  0  0  0  0  0  0
   40.8761    9.1809   -2.0469 C   0  0  2  0  0  0  0  0  0  0  0  0
   42.3029    9.3116   -1.5994 N   0  0  0  0  0  0  0  0  0  0  0  0
   37.0246    0.0881   -4.9581 C   0  0  0  0  0  0  0  0  0  0  0  0
   36.4844   -0.6545   -3.9105 N   0  0  0  0  0  0  0  0  0  0  0  0
   43.9148    7.5685   -8.3292 C   0  0  1  0  0  0  0  0  0  0  0  0
   43.5870    8.8593   -8.8225 O   0  0  0  0  0  0  0  0  0  0  0  0
   47.2025    4.2495   -5.8538 C   0  0  2  0  0  0  0  0  0  0  0  0
   48.0673    5.3027   -5.4428 N   0  0  0  0  0  0  0  0  0  0  0  0
   41.7904    5.8402   -3.6194 C   0  0  2  0  0  0  0  0  0  0  0  0
   41.5117    7.1118   -3.1719 O   0  0  0  0  0  0  0  0  0  0  0  0
   39.8992    9.7837   -0.9753 C   0  0  1  0  0  0  0  0  0  0  0  0
   38.5316    9.6311   -1.4930 O   0  0  0  0  0  0  0  0  0  0  0  0
   43.3965    6.4597   -9.2743 C   0  0  2  0  0  0  0  0  0  0  0  0
   41.9184    6.5242   -9.4041 O   0  0  0  0  0  0  0  0  0  0  0  0
   45.7011    4.6699   -5.6083 C   0  0  2  0  0  0  0  0  0  0  0  0
   40.8673    5.3351   -4.8361 C   0  0  2  0  0  0  0  0  0  0  0  0
   41.7363    4.5842   -5.5536 O   0  0  0  0  0  0  0  0  0  0  0  0
   40.0989    8.9909    0.4372 C   0  0  2  0  0  0  0  0  0  0  0  0
   41.4795    9.1496    0.9471 O   0  0  0  0  0  0  0  0  0  0  0  0
   43.7799    5.0437   -8.7287 C   0  0  2  0  0  0  0  0  0  0  0  0
   45.2264    5.0575   -8.6190 O   0  0  0  0  0  0  0  0  0  0  0  0
   44.7967    3.4843   -6.0870 C   0  0  2  0  0  0  0  0  0  0  0  0
   43.4981    3.9701   -5.8474 O   0  0  0  0  0  0  0  0  0  0  0  0
   40.2961    6.4159   -5.8267 C   0  0  0  0  0  0  0  0  0  0  0  0
   39.2300    5.8214   -6.6326 O   0  0  0  0  0  0  0  0  0  0  0  0
   39.8102    7.4365    0.2379 C   0  0  1  0  0  0  0  0  0  0  0  0
   40.7527    6.9473   -0.8418 O   0  0  0  0  0  0  0  0  0  0  0  0
   43.2697    4.0568   -9.6989 C   0  0  0  0  0  0  0  0  0  0  0  0
   41.9337    3.9808   -9.6313 O   0  0  0  0  0  0  0  0  0  0  0  0
   45.1130    2.1621   -5.2659 C   0  0  1  0  0  0  0  0  0  0  0  0
   44.3078    1.1117   -5.7071 O   0  0  0  0  0  0  0  0  0  0  0  0
   40.9161    2.8039   -2.5581 C   0  0  0  0  0  0  0  0  0  0  0  0
   40.0513    6.7824    1.6404 C   0  0  0  0  0  0  0  0  0  0  0  0
   39.1043    7.2128    2.6286 N   0  0  0  0  0  0  0  0  0  0  0  0
   41.0035    1.9480   -3.8225 C   0  0  0  0  0  0  0  0  0  0  0  0
   39.6625    1.3710   -4.0390 N   0  0  0  0  0  0  0  0  0  0  0  0
   39.5689   -0.0831   -4.5061 C   0  0  0  0  0  0  0  0  0  0  0  0
  1  2  1  1  0  0  0
  1  8  1  0  0  0  0
  1 33  1  0  0  0  0
  3  4  1  1  0  0  0
  3 10  1  0  0  0  0
  3 42  1  0  0  0  0
  5 11  1  0  0  0  0
  5 29  1  0  0  0  0
  5 35  1  6  0  0  0
  6 13  1  0  0  0  0
  6 39  1  0  0  0  0
  6 22  1  6  0  0  0
  7 15  1  0  0  0  0
  8  9  1  1  0  0  0
  8 17  1  0  0  0  0
 10 19  1  0  0  0  0
 11 12  1  1  0  0  0
 11 21  1  0  0  0  0
 12 44  1  0  0  0  0
 13 14  1  1  0  0  0
 13 23  1  0  0  0  0
 15 16  1  0  0  0  0
 17 18  1  6  0  0  0
 17 25  1  0  0  0  0
 19 20  1  1  0  0  0
 19 27  1  0  0  0  0
 21 22  1  1  0  0  0
 21 28  1  0  0  0  0
 23 24  1  6  0  0  0
 23 30  1  0  0  0  0
 25 26  1  1  0  0  0
 25 32  1  0  0  0  0
 27  2  1  6  0  0  0
 27 34  1  0  0  0  0
 28 29  1  0  0  0  0
 28 36  1  6  0  0  0
 30 31  1  6  0  0  0
 30 38  1  0  0  0  0
 32 33  1  0  0  0  0
 32 40  1  6  0  0  0
 34 35  1  1  0  0  0
 34 42  1  0  0  0  0
 36 37  1  0  0  0  0
 38 39  1  0  0  0  0
 38 45  1  1  0  0  0
 40 41  1  0  0  0  0
 42 43  1  6  0  0  0
 44 47  1  0  0  0  0
 45 46  1  0  0  0  0
 47 48  1  0  0  0  0
 48 49  1  0  0  0  0
 49  7  1  0  0  0  0
M  END
>  <CHROM.1>
-179.05582891,44.54676445,173.78398021,-64.30181473,-57.44224895,65.72215178
-88.41275328,46.55910335,-165.57274340,-71.98222649,-73.57136662,65.81959959
-171.56551422,-139.79012943,-146.22827932,-58.90878226,42.39861291,5.11217508
-4.70843852,-0.68244367,0.76109301,0.46821032

>  <Name>
2bee_lig

>  <RI>
3.46266e+07

>  <Rbt.Current_Directory>
/home/itssahil/PROJECTS/Mol_Feturizer/New_Systems/rnas/2bee

>  <Rbt.Executable>
rbdock ($Id: //depot/dev/client3/rdock/2013.1/src/exe/rbdock.cxx#4 $)

>  <Rbt.Library>
libRbt.so (2013.1, Build901 2013/11/27)

>  <Rbt.Parameter_File>
/export/apps/rDock/src/rDock_2013.1_src/data/scripts/dock_solv.prm

>  <Rbt.Receptor>
prm/pocket_docking_4.prm

>  <SCORE>
-10.4594

>  <SCORE.INTER>
0.91085

>  <SCORE.INTER.CONST>
1

>  <SCORE.INTER.POLAR>
-0.938083

>  <SCORE.INTER.ROT>
16

>  <SCORE.INTER.SOLV>
14.0423

>  <SCORE.INTER.VDW>
-15.2133

>  <SCORE.INTER.norm>
0.0185888

>  <SCORE.INTRA>
-11.3702

>  <SCORE.INTRA.DIHEDRAL>
-24.9122

>  <SCORE.INTRA.DIHEDRAL.0>
36.0842

>  <SCORE.INTRA.POLAR>
0

>  <SCORE.INTRA.POLAR.0>
0

>  <SCORE.INTRA.REPUL>
0

>  <SCORE.INTRA.REPUL.0>
0

>  <SCORE.INTRA.SOLV>
-1.71001

>  <SCORE.INTRA.SOLV.lig_0>
-126.444

>  <SCORE.INTRA.VDW>
1.94086

>  <SCORE.INTRA.VDW.0>
-7.40469

>  <SCORE.INTRA.norm>
-0.232045

>  <SCORE.RESTR>
0

>  <SCORE.RESTR.CAVITY>
0

>  <SCORE.RESTR.norm>
0

>  <SCORE.SYSTEM>
0

>  <SCORE.SYSTEM.CONST>
0

>  <SCORE.SYSTEM.DIHEDRAL>
0

>  <SCORE.SYSTEM.SOLV>
0

>  <SCORE.SYSTEM.norm>
0

>  <SCORE.heavy>
49

>  <SCORE.norm>
-0.213457

>  <RMSD>
3.564

$$$$
2bee_lig
 OpenBabel11021811423D
libRbt.so/2013.1/901 2013/11/27
 49 52  0  0  0  0  0  0  0  0999 V2000
   44.8473    5.3974   -8.8236 C   0  0  2  0  0  0  0  0  0  0  0  0
   44.8972    6.0493   -7.5608 O   0  0  0  0  0  0  0  0  0  0  0  0
   48.4967    4.2024   -5.8269 C   0  0  2  0  0  0  0  0  0  0  0  0
   49.5875    3.9171   -4.8555 N   0  0  0  0  0  0  0  0  0  0  0  0
   44.1488    4.0336   -4.5308 C   0  0  1  0  0  0  0  0  0  0  0  0
   40.4155    6.1209   -2.3473 C   0  0  1  0  0  0  0  0  0  0  0  0
   41.7223   -1.7184   -2.3459 C   0  0  0  0  0  0  0  0  0  0  0  0
   43.6923    6.0060   -9.7093 C   0  0  2  0  0  0  0  0  0  0  0  0
   43.8567    7.4513   -9.8213 N   0  0  0  0  0  0  0  0  0  0  0  0
   48.5036    5.7573   -6.1878 C   0  0  0  0  0  0  0  0  0  0  0  0
   43.9563    4.7290   -3.2223 C   0  0  2  0  0  0  0  0  0  0  0  0
   44.3361    3.8961   -2.0680 O   0  0  0  0  0  0  0  0  0  0  0  0
   39.9353    7.6681   -2.2663 C   0  0  2  0  0  0  0  0  0  0  0  0
   41.0548    8.4734   -1.6735 N   0  0  0  0  0  0  0  0  0  0  0  0
   40.6585   -2.5459   -2.7754 C   0  0  0  0  0  0  0  0  0  0  0  0
   40.7022   -3.1336   -4.0377 N   0  0  0  0  0  0  0  0  0  0  0  0
   42.2849    5.6240   -9.0725 C   0  0  1  0  0  0  0  0  0  0  0  0
   41.2519    6.1719   -9.8786 O   0  0  0  0  0  0  0  0  0  0  0  0
   47.3088    6.1142   -7.2445 C   0  0  2  0  0  0  0  0  0  0  0  0
   47.3123    7.4977   -7.5797 N   0  0  0  0  0  0  0  0  0  0  0  0
   42.5275    5.1538   -3.4607 C   0  0  2  0  0  0  0  0  0  0  0  0
   41.6203    6.1413   -3.1498 O   0  0  0  0  0  0  0  0  0  0  0  0
   38.6548    7.7439   -1.3603 C   0  0  1  0  0  0  0  0  0  0  0  0
   37.6068    6.9466   -2.0142 O   0  0  0  0  0  0  0  0  0  0  0  0
   42.1707    4.0843   -8.9859 C   0  0  2  0  0  0  0  0  0  0  0  0
   40.8746    3.6837   -8.3812 O   0  0  0  0  0  0  0  0  0  0  0  0
   45.9112    5.7225   -6.6244 C   0  0  2  0  0  0  0  0  0  0  0  0
   41.9182    3.9109   -4.2802 C   0  0  2  0  0  0  0  0  0  0  0  0
   42.9506    3.5770   -5.0906 O   0  0  0  0  0  0  0  0  0  0  0  0
   39.0132    7.1643    0.1227 C   0  0  2  0  0  0  0  0  0  0  0  0
   40.0708    7.9731    0.7698 O   0  0  0  0  0  0  0  0  0  0  0  0
   43.3249    3.4922   -8.1101 C   0  0  2  0  0  0  0  0  0  0  0  0
   44.5507    3.9294   -8.7508 O   0  0  0  0  0  0  0  0  0  0  0  0
   45.9588    4.1940   -6.2865 C   0  0  2  0  0  0  0  0  0  0  0  0
   44.6728    3.9518   -5.7694 O   0  0  0  0  0  0  0  0  0  0  0  0
   40.6874    4.1808   -5.2225 C   0  0  0  0  0  0  0  0  0  0  0  0
   40.2162    2.9139   -5.7815 O   0  0  0  0  0  0  0  0  0  0  0  0
   39.5249    5.6592    0.0131 C   0  0  1  0  0  0  0  0  0  0  0  0
   40.7228    5.6665   -0.9134 O   0  0  0  0  0  0  0  0  0  0  0  0
   43.1508    2.0275   -8.1034 C   0  0  0  0  0  0  0  0  0  0  0  0
   44.0766    1.4494   -7.3262 O   0  0  0  0  0  0  0  0  0  0  0  0
   47.1066    3.8811   -5.2343 C   0  0  1  0  0  0  0  0  0  0  0  0
   47.1447    2.5162   -4.9482 O   0  0  0  0  0  0  0  0  0  0  0  0
   44.3918    2.4251   -2.0656 C   0  0  0  0  0  0  0  0  0  0  0  0
   39.8551    5.2211    1.4801 C   0  0  0  0  0  0  0  0  0  0  0  0
   40.2280    3.8393    1.5807 N   0  0  0  0  0  0  0  0  0  0  0  0
   42.9789    1.8666   -2.2414 C   0  0  0  0  0  0  0  0  0  0  0  0
   43.1183    0.4100   -2.4339 N   0  0  0  0  0  0  0  0  0  0  0  0
   41.9733   -0.3409   -3.1168 C   0  0  0  0  0  0  0  0  0  0  0  0
  1  2  1  1  0  0  0
  1  8  1  0  0  0  0
  1 33  1  0  0  0  0
  3  4  1  1  0  0  0
  3 10  1  0  0  0  0
  3 42  1  0  0  0  0
  5 11  1  0  0  0  0
  5 29  1  0  0  0  0
  5 35  1  6  0  0  0
  6 13  1  0  0  0  0
  6 39  1  0  0  0  0
  6 22  1  6  0  0  0
  7 15  1  0  0  0  0
  8  9  1  1  0  0  0
  8 17  1  0  0  0  0
 10 19  1  0  0  0  0
 11 12  1  1  0  0  0
 11 21  1  0  0  0  0
 12 44  1  0  0  0  0
 13 14  1  1  0  0  0
 13 23  1  0  0  0  0
 15 16  1  0  0  0  0
 17 18  1  6  0  0  0
 17 25  1  0  0  0  0
 19 20  1  1  0  0  0
 19 27  1  0  0  0  0
 21 22  1  1  0  0  0
 21 28  1  0  0  0  0
 23 24  1  6  0  0  0
 23 30  1  0  0  0  0
 25 26  1  1  0  0  0
 25 32  1  0  0  0  0
 27  2  1  6  0  0  0
 27 34  1  0  0  0  0
 28 29  1  0  0  0  0
 28 36  1  6  0  0  0
 30 31  1  6  0  0  0
 30 38  1  0  0  0  0
 32 33  1  0  0  0  0
 32 40  1  6  0  0  0
 34 35  1  1  0  0  0
 34 42  1  0  0  0  0
 36 37  1  0  0  0  0
 38 39  1  0  0  0  0
 38 45  1  1  0  0  0
 40 41  1  0  0  0  0
 42 43  1  6  0  0  0
 44 47  1  0  0  0  0
 45 46  1  0  0  0  0
 47 48  1  0  0  0  0
 48 49  1  0  0  0  0
 49  7  1  0  0  0  0
M  END
>  <CHROM.1>
-176.23803499,44.61088729,173.57676876,65.56192970,-22.99162783,-66.17559457
-112.02173756,63.58699091,-175.17048695,-177.57147204,-88.17777775,175.06310198
171.71011513,-158.56023793,-137.97473218,177.05884060,42.95314391,4.29345180
-4.64675434,0.17107784,0.89697638,-0.25624120

>  <Name>
2bee_lig

>  <RI>
3.46266e+07

>  <Rbt.Current_Directory>
/home/itssahil/PROJECTS/Mol_Feturizer/New_Systems/rnas/2bee

>  <Rbt.Executable>
rbdock ($Id: //depot/dev/client3/rdock/2013.1/src/exe/rbdock.cxx#4 $)

>  <Rbt.Library>
libRbt.so (2013.1, Build901 2013/11/27)

>  <Rbt.Parameter_File>
/export/apps/rDock/src/rDock_2013.1_src/data/scripts/dock_solv.prm

>  <Rbt.Receptor>
prm/pocket_docking_4.prm

>  <SCORE>
-8.88026

>  <SCORE.INTER>
2.24271

>  <SCORE.INTER.CONST>
1

>  <SCORE.INTER.POLAR>
0

>  <SCORE.INTER.ROT>
16

>  <SCORE.INTER.SOLV>
14.7227

>  <SCORE.INTER.VDW>
-17.6791

>  <SCORE.INTER.norm>
0.0457697

>  <SCORE.INTRA>
-11.123

>  <SCORE.INTRA.DIHEDRAL>
-20.9736

>  <SCORE.INTRA.DIHEDRAL.0>
36.0842

>  <SCORE.INTRA.POLAR>
0

>  <SCORE.INTRA.POLAR.0>
0

>  <SCORE.INTRA.REPUL>
0

>  <SCORE.INTRA.REPUL.0>
0

>  <SCORE.INTRA.SOLV>
-2.06528

>  <SCORE.INTRA.SOLV.lig_0>
-126.444

>  <SCORE.INTRA.VDW>
0.39649

>  <SCORE.INTRA.VDW.0>
-7.40469

>  <SCORE.INTRA.norm>
-0.226999

>  <SCORE.RESTR>
0

>  <SCORE.RESTR.CAVITY>
0

>  <SCORE.RESTR.norm>
0

>  <SCORE.SYSTEM>
0

>  <SCORE.SYSTEM.CONST>
0

>  <SCORE.SYSTEM.DIHEDRAL>
0

>  <SCORE.SYSTEM.SOLV>
0

>  <SCORE.SYSTEM.norm>
0

>  <SCORE.heavy>
49

>  <SCORE.norm>
-0.18123

>  <RMSD>
3.794

$$$$
2bee_lig
 OpenBabel11021811423D
libRbt.so/2013.1/901 2013/11/27
 49 52  0  0  0  0  0  0  0  0999 V2000
   42.5809    4.8250   -6.8141 C   0  0  2  0  0  0  0  0  0  0  0  0
   43.5866    4.0001   -7.3888 O   0  0  0  0  0  0  0  0  0  0  0  0
   46.1257    0.8604   -5.6369 C   0  0  2  0  0  0  0  0  0  0  0  0
   47.1882    0.2261   -4.8100 N   0  0  0  0  0  0  0  0  0  0  0  0
   42.3477    2.6560   -3.7532 C   0  0  1  0  0  0  0  0  0  0  0  0
   41.3781    4.4552    0.5811 C   0  0  1  0  0  0  0  0  0  0  0  0
   37.2572   -1.4269   -2.1425 C   0  0  0  0  0  0  0  0  0  0  0  0
   42.0439    5.8572   -7.8795 C   0  0  2  0  0  0  0  0  0  0  0  0
   41.5883    5.1525   -9.0730 N   0  0  0  0  0  0  0  0  0  0  0  0
   46.7805    1.9709   -6.5781 C   0  0  0  0  0  0  0  0  0  0  0  0
   42.3331    2.3557   -2.2896 C   0  0  2  0  0  0  0  0  0  0  0  0
   41.6500    1.0902   -1.9698 O   0  0  0  0  0  0  0  0  0  0  0  0
   39.7660    4.2932    0.5058 C   0  0  2  0  0  0  0  0  0  0  0  0
   39.2094    5.4920   -0.2057 N   0  0  0  0  0  0  0  0  0  0  0  0
   36.7785   -0.1931   -1.6429 C   0  0  0  0  0  0  0  0  0  0  0  0
   37.4097    0.9946   -2.0055 N   0  0  0  0  0  0  0  0  0  0  0  0
   43.1913    6.9057   -8.2203 C   0  0  1  0  0  0  0  0  0  0  0  0
   42.6974    7.8330   -9.1759 O   0  0  0  0  0  0  0  0  0  0  0  0
   45.6415    2.7016   -7.4947 C   0  0  2  0  0  0  0  0  0  0  0  0
   46.2172    3.6879   -8.3444 N   0  0  0  0  0  0  0  0  0  0  0  0
   41.7847    3.6899   -1.8446 C   0  0  2  0  0  0  0  0  0  0  0  0
   41.8093    4.5805   -0.7952 O   0  0  0  0  0  0  0  0  0  0  0  0
   39.2067    4.2060    1.9707 C   0  0  1  0  0  0  0  0  0  0  0  0
   39.7843    3.0043    2.5902 O   0  0  0  0  0  0  0  0  0  0  0  0
   43.6256    7.6201   -6.9194 C   0  0  2  0  0  0  0  0  0  0  0  0
   44.7090    8.5992   -7.1906 O   0  0  0  0  0  0  0  0  0  0  0  0
   44.5552    3.3709   -6.5656 C   0  0  2  0  0  0  0  0  0  0  0  0
   40.7533    4.0617   -3.0217 C   0  0  2  0  0  0  0  0  0  0  0  0
   41.4181    3.6346   -4.1215 O   0  0  0  0  0  0  0  0  0  0  0  0
   39.6211    5.5593    2.7834 C   0  0  2  0  0  0  0  0  0  0  0  0
   39.0362    6.7622    2.1492 O   0  0  0  0  0  0  0  0  0  0  0  0
   44.1506    6.5855   -5.8687 C   0  0  2  0  0  0  0  0  0  0  0  0
   43.0509    5.6622   -5.6623 O   0  0  0  0  0  0  0  0  0  0  0  0
   43.9487    2.2432   -5.6640 C   0  0  2  0  0  0  0  0  0  0  0  0
   42.9893    2.9376   -4.9041 O   0  0  0  0  0  0  0  0  0  0  0  0
   40.4287    5.5819   -3.2653 C   0  0  0  0  0  0  0  0  0  0  0  0
   39.4238    5.7011   -4.3214 O   0  0  0  0  0  0  0  0  0  0  0  0
   41.2063    5.7207    2.8052 C   0  0  1  0  0  0  0  0  0  0  0  0
   41.6676    5.7443    1.3630 O   0  0  0  0  0  0  0  0  0  0  0  0
   44.5171    7.3484   -4.6607 C   0  0  0  0  0  0  0  0  0  0  0  0
   43.4463    7.9829   -4.1646 O   0  0  0  0  0  0  0  0  0  0  0  0
   45.0708    1.5731   -4.7617 C   0  0  1  0  0  0  0  0  0  0  0  0
   44.5202    0.5649   -3.9700 O   0  0  0  0  0  0  0  0  0  0  0  0
   42.0099   -0.2289   -2.5153 C   0  0  0  0  0  0  0  0  0  0  0  0
   41.4813    7.0507    3.5853 C   0  0  0  0  0  0  0  0  0  0  0  0
   41.1597    8.2229    2.8231 N   0  0  0  0  0  0  0  0  0  0  0  0
   41.1691   -1.3056   -1.8278 C   0  0  0  0  0  0  0  0  0  0  0  0
   39.7549   -0.9396   -2.0381 N   0  0  0  0  0  0  0  0  0  0  0  0
   38.6797   -1.9516   -1.6366 C   0  0  0  0  0  0  0  0  0  0  0  0
  1  2  1  6  0  0  0
  1  8  1  0  0  0  0
  1 33  1  0  0  0  0
  3  4  1  1  0  0  0
  3 10  1  0  0  0  0
  3 42  1  0  0  0  0
  5 11  1  0  0  0  0
  5 29  1  0  0  0  0
  5 35  1  1  0  0  0
  6 13  1  0  0  0  0
  6 39  1  0  0  0  0
  6 22  1  6  0  0  0
  7 15  1  0  0  0  0
  8  9  1  6  0  0  0
  8 17  1  0  0  0  0
 10 19  1  0  0  0  0
 11 12  1  6  0  0  0
 11 21  1  0  0  0  0
 12 44  1  0  0  0  0
 13 14  1  1  0  0  0
 13 23  1  0  0  0  0
 15 16  1  0  0  0  0
 17 18  1  6  0  0  0
 17 25  1  0  0  0  0
 19 20  1  1  0  0  0
 19 27  1  0  0  0  0
 21 22  1  1  0  0  0
 21 28  1  0  0  0  0
 23 24  1  1  0  0  0
 23 30  1  0  0  0  0
 25 26  1  6  0  0  0
 25 32  1  0  0  0  0
 27  2  1  6  0  0  0
 27 34  1  0  0  0  0
 28 29  1  0  0  0  0
 28 36  1  6  0  0  0
 30 31  1  6  0  0  0
 30 38  1  0  0  0  0
 32 33  1  0  0  0  0
 32 40  1  1  0  0  0
 34 35  1  1  0  0  0
 34 42  1  0  0  0  0
 36 37  1  0  0  0  0
 38 39  1  0  0  0  0
 38 45  1  6  0  0  0
 40 41  1  0  0  0  0
 42 43  1  1  0  0  0
 44 47  1  0  0  0  0
 45 46  1  0  0  0  0
 47 48  1  0  0  0  0
 48 49  1  0  0  0  0
 49  7  1  0  0  0  0
M  END
>  <CHROM.1>
155.99227612,60.86843593,-66.27944844,68.61549013,57.02463566,173.83738261
-62.44566046,-172.09576572,-176.96919416,61.01390634,-161.69649536,-73.51588928
56.51644687,171.02197359,-172.11934449,-61.17262682,42.04414479,3.85430101
-3.26150252,-0.09154158,1.05780503,0.23909979

>  <Name>
2bee_lig

>  <RI>
0

>  <Rbt.Current_Directory>
/home/itssahil/PROJECTS/Mol_Feturizer/New_Systems/rnas/2bee

>  <Rbt.Executable>
rbdock ($Id: //depot/dev/client3/rdock/2013.1/src/exe/rbdock.cxx#4 $)

>  <Rbt.Library>
libRbt.so (2013.1, Build901 2013/11/27)

>  <Rbt.Parameter_File>
/export/apps/rDock/src/rDock_2013.1_src/data/scripts/dock_solv.prm

>  <Rbt.Receptor>
prm/pocket_docking_5.prm

>  <SCORE>
-11.1128

>  <SCORE.INTER>
-1.46871

>  <SCORE.INTER.CONST>
1

>  <SCORE.INTER.POLAR>
-0.938083

>  <SCORE.INTER.ROT>
16

>  <SCORE.INTER.SOLV>
11.7209

>  <SCORE.INTER.VDW>
-16.0258

>  <SCORE.INTER.norm>
-0.0299738

>  <SCORE.INTRA>
-9.64404

>  <SCORE.INTRA.DIHEDRAL>
-24.3164

>  <SCORE.INTRA.DIHEDRAL.0>
36.0842

>  <SCORE.INTRA.POLAR>
0

>  <SCORE.INTRA.POLAR.0>
0

>  <SCORE.INTRA.REPUL>
0.143397

>  <SCORE.INTRA.REPUL.0>
0

>  <SCORE.INTRA.SOLV>
1.97236

>  <SCORE.INTRA.SOLV.lig_0>
-126.444

>  <SCORE.INTRA.VDW>
0.811014

>  <SCORE.INTRA.VDW.0>
-7.40469

>  <SCORE.INTRA.norm>
-0.196817

>  <SCORE.RESTR>
0

>  <SCORE.RESTR.CAVITY>
0

>  <SCORE.RESTR.norm>
0

>  <SCORE.SYSTEM>
0

>  <SCORE.SYSTEM.CONST>
0

>  <SCORE.SYSTEM.DIHEDRAL>
0

>  <SCORE.SYSTEM.SOLV>
0

>  <SCORE.SYSTEM.norm>
0

>  <SCORE.heavy>
49

>  <SCORE.norm>
-0.226791

>  <RMSD>
3.837

$$$$
2bee_lig
 OpenBabel11021811423D
libRbt.so/2013.1/901 2013/11/27
 49 52  0  0  0  0  0  0  0  0999 V2000
   42.6914    4.8774   -6.8646 C   0  0  2  0  0  0  0  0  0  0  0  0
   43.7414    4.0861   -7.4066 O   0  0  0  0  0  0  0  0  0  0  0  0
   44.9333   -0.0768   -6.6170 C   0  0  2  0  0  0  0  0  0  0  0  0
   45.4804   -1.2576   -5.8950 N   0  0  0  0  0  0  0  0  0  0  0  0
   41.6270    2.3595   -4.7366 C   0  0  1  0  0  0  0  0  0  0  0  0
   42.1259    5.9560   -2.0973 C   0  0  1  0  0  0  0  0  0  0  0  0
   38.3131   -2.4673   -1.0401 C   0  0  0  0  0  0  0  0  0  0  0  0
   42.1884    5.9253   -7.9312 C   0  0  2  0  0  0  0  0  0  0  0  0
   41.8081    5.2420   -9.1628 N   0  0  0  0  0  0  0  0  0  0  0  0
   46.0481    1.0634   -6.6868 C   0  0  0  0  0  0  0  0  0  0  0  0
   41.8469    2.4944   -3.2648 C   0  0  2  0  0  0  0  0  0  0  0  0
   41.4534    1.2904   -2.5126 O   0  0  0  0  0  0  0  0  0  0  0  0
   42.6874    5.6311   -0.6107 C   0  0  2  0  0  0  0  0  0  0  0  0
   41.5319    5.6831    0.3460 N   0  0  0  0  0  0  0  0  0  0  0  0
   37.8870   -3.7089   -1.5671 C   0  0  0  0  0  0  0  0  0  0  0  0
   37.0288   -4.5193   -0.8274 N   0  0  0  0  0  0  0  0  0  0  0  0
   43.3302    7.0035   -8.1878 C   0  0  1  0  0  0  0  0  0  0  0  0
   42.8668    7.9447   -9.1451 O   0  0  0  0  0  0  0  0  0  0  0  0
   45.4803    2.3853   -7.4625 C   0  0  2  0  0  0  0  0  0  0  0  0
   46.4707    3.4049   -7.5379 N   0  0  0  0  0  0  0  0  0  0  0  0
   41.1202    3.8074   -3.1009 C   0  0  2  0  0  0  0  0  0  0  0  0
   41.1079    4.9563   -2.3428 O   0  0  0  0  0  0  0  0  0  0  0  0
   43.7657    6.7110   -0.2401 C   0  0  1  0  0  0  0  0  0  0  0  0
   44.8641    6.5850   -1.2094 O   0  0  0  0  0  0  0  0  0  0  0  0
   43.6835    7.6935   -6.8498 C   0  0  2  0  0  0  0  0  0  0  0  0
   44.7594    8.6993   -7.0418 O   0  0  0  0  0  0  0  0  0  0  0  0
   44.2056    2.9386   -6.7141 C   0  0  2  0  0  0  0  0  0  0  0  0
   39.9020    3.6728   -4.1427 C   0  0  2  0  0  0  0  0  0  0  0  0
   40.4948    3.0469   -5.1871 O   0  0  0  0  0  0  0  0  0  0  0  0
   43.0818    8.1917   -0.2963 C   0  0  2  0  0  0  0  0  0  0  0  0
   41.9763    8.3058    0.6815 O   0  0  0  0  0  0  0  0  0  0  0  0
   44.1753    6.6433   -5.7985 C   0  0  2  0  0  0  0  0  0  0  0  0
   43.0855    5.6945   -5.6707 O   0  0  0  0  0  0  0  0  0  0  0  0
   43.1483    1.7842   -6.6703 C   0  0  2  0  0  0  0  0  0  0  0  0
   42.0602    2.3866   -6.0121 O   0  0  0  0  0  0  0  0  0  0  0  0
   39.2751    4.9957   -4.7196 C   0  0  0  0  0  0  0  0  0  0  0  0
   40.2253    5.6239   -5.6372 O   0  0  0  0  0  0  0  0  0  0  0  0
   42.4980    8.4701   -1.7526 C   0  0  1  0  0  0  0  0  0  0  0  0
   41.5103    7.3616   -2.0516 O   0  0  0  0  0  0  0  0  0  0  0  0
   44.4647    7.3828   -4.5555 C   0  0  0  0  0  0  0  0  0  0  0  0
   45.2320    6.6465   -3.7403 O   0  0  0  0  0  0  0  0  0  0  0  0
   43.7143    0.5259   -5.8837 C   0  0  1  0  0  0  0  0  0  0  0  0
   42.7673   -0.4983   -5.8591 O   0  0  0  0  0  0  0  0  0  0  0  0
   41.4623    1.1665   -1.0458 C   0  0  0  0  0  0  0  0  0  0  0  0
   41.8546    9.8962   -1.6807 C   0  0  0  0  0  0  0  0  0  0  0  0
   41.3781   10.3597   -2.9522 N   0  0  0  0  0  0  0  0  0  0  0  0
   40.8583   -0.1815   -0.6497 C   0  0  0  0  0  0  0  0  0  0  0  0
   39.4928   -0.2163   -1.2085 N   0  0  0  0  0  0  0  0  0  0  0  0
   39.0721   -1.4493   -2.0109 C   0  0  0  0  0  0  0  0  0  0  0  0
  1  2  1  6  0  0  0
  1  8  1  0  0  0  0
  1 33  1  0  0  0  0
  3  4  1  1  0  0  0
  3 10  1  0  0  0  0
  3 42  1  0  0  0  0
  5 11  1  0  0  0  0
  5 29  1  0  0  0  0
  5 35  1  6  0  0  0
  6 13  1  0  0  0  0
  6 39  1  0  0  0  0
  6 22  1  1  0  0  0
  7 15  1  0  0  0  0
  8  9  1  6  0  0  0
  8 17  1  0  0  0  0
 10 19  1  0  0  0  0
 11 12  1  1  0  0  0
 11 21  1  0  0  0  0
 12 44  1  0  0  0  0
 13 14  1  1  0  0  0
 13 23  1  0  0  0  0
 15 16  1  0  0  0  0
 17 18  1  6  0  0  0
 17 25  1  0  0  0  0
 19 20  1  1  0  0  0
 19 27  1  0  0  0  0
 21 22  1  1  0  0  0
 21 28  1  0  0  0  0
 23 24  1  6  0  0  0
 23 30  1  0  0  0  0
 25 26  1  6  0  0  0
 25 32  1  0  0  0  0
 27  2  1  6  0  0  0
 27 34  1  0  0  0  0
 28 29  1  0  0  0  0
 28 36  1  6  0  0  0
 30 31  1  1  0  0  0
 30 38  1  0  0  0  0
 32 33  1  0  0  0  0
 32 40  1  1  0  0  0
 34 35  1  1  0  0  0
 34 42  1  0  0  0  0
 36 37  1  0  0  0  0
 38 39  1  0  0  0  0
 38 45  1  1  0  0  0
 40 41  1  0  0  0  0
 42 43  1  6  0  0  0
 44 47  1  0  0  0  0
 45 46  1  0  0  0  0
 47 48  1  0  0  0  0
 48 49  1  0  0  0  0
 49  7  1  0  0  0  0
M  END
>  <CHROM.1>
-169.78979263,50.54820743,-102.93096865,-168.97743968,-175.26071528,174.46066470
57.92198017,-172.88123198,70.55208271,-162.63147112,-98.74903262,174.84722339
-58.23038304,130.38894189,94.88200411,-177.25944998,42.33501965,4.00018558
-4.15334117,-0.82378348,-1.06807131,-2.70635950

>  <Name>
2bee_lig

>  <RI>
0

>  <Rbt.Current_Directory>
/home/itssahil/PROJECTS/Mol_Feturizer/New_Systems/rnas/2bee

>  <Rbt.Executable>
rbdock ($Id: //depot/dev/client3/rdock/2013.1/src/exe/rbdock.cxx#4 $)

>  <Rbt.Library>
libRbt.so (2013.1, Build901 2013/11/27)

>  <Rbt.Parameter_File>
/export/apps/rDock/src/rDock_2013.1_src/data/scripts/dock_solv.prm

>  <Rbt.Receptor>
prm/pocket_docking_5.prm

>  <SCORE>
-13.4377

>  <SCORE.INTER>
-5.04808

>  <SCORE.INTER.CONST>
1

>  <SCORE.INTER.POLAR>
-2.48971

>  <SCORE.INTER.ROT>
16

>  <SCORE.INTER.SOLV>
16.3613

>  <SCORE.INTER.VDW>
-14.7868

>  <SCORE.INTER.norm>
-0.103022

>  <SCORE.INTRA>
-8.3896

>  <SCORE.INTRA.DIHEDRAL>
-14.0978

>  <SCORE.INTRA.DIHEDRAL.0>
36.0842

>  <SCORE.INTRA.POLAR>
0

>  <SCORE.INTRA.POLAR.0>
0

>  <SCORE.INTRA.REPUL>
0.0469284

>  <SCORE.INTRA.REPUL.0>
0

>  <SCORE.INTRA.SOLV>
-2.33875

>  <SCORE.INTRA.SOLV.lig_0>
-126.444

>  <SCORE.INTRA.VDW>
-0.405959

>  <SCORE.INTRA.VDW.0>
-7.40469

>  <SCORE.INTRA.norm>
-0.171216

>  <SCORE.RESTR>
0

>  <SCORE.RESTR.CAVITY>
0

>  <SCORE.RESTR.norm>
0

>  <SCORE.SYSTEM>
0

>  <SCORE.SYSTEM.CONST>
0

>  <SCORE.SYSTEM.DIHEDRAL>
0

>  <SCORE.SYSTEM.SOLV>
0

>  <SCORE.SYSTEM.norm>
0

>  <SCORE.heavy>
49

>  <SCORE.norm>
-0.274238

>  <RMSD>
3.869

$$$$
2bee_lig
 OpenBabel11021811423D
libRbt.so/2013.1/901 2013/11/27
 49 52  0  0  0  0  0  0  0  0999 V2000
   45.9390    4.5195   -6.9156 C   0  0  2  0  0  0  0  0  0  0  0  0
   45.0323    3.7165   -6.1704 O   0  0  0  0  0  0  0  0  0  0  0  0
   45.4622   -0.0418   -3.9199 C   0  0  2  0  0  0  0  0  0  0  0  0
   46.0224   -1.0434   -2.9724 N   0  0  0  0  0  0  0  0  0  0  0  0
   43.2402    3.7776   -2.5451 C   0  0  1  0  0  0  0  0  0  0  0  0
   43.0120    6.7431    1.2372 C   0  0  1  0  0  0  0  0  0  0  0  0
   37.9330    1.5768   -5.7083 C   0  0  0  0  0  0  0  0  0  0  0  0
   46.5983    5.6094   -5.9848 C   0  0  2  0  0  0  0  0  0  0  0  0
   47.2207    4.9706   -4.8303 N   0  0  0  0  0  0  0  0  0  0  0  0
   46.5899    0.3850   -4.9658 C   0  0  0  0  0  0  0  0  0  0  0  0
   42.8924    3.6866   -1.0948 C   0  0  2  0  0  0  0  0  0  0  0  0
   41.5449    3.1391   -0.8607 O   0  0  0  0  0  0  0  0  0  0  0  0
   42.0173    5.7497    2.0463 C   0  0  2  0  0  0  0  0  0  0  0  0
   41.1182    5.0771    1.0501 N   0  0  0  0  0  0  0  0  0  0  0  0
   37.6111    0.7063   -6.7758 C   0  0  0  0  0  0  0  0  0  0  0  0
   38.3866    0.7105   -7.9331 N   0  0  0  0  0  0  0  0  0  0  0  0
   45.4911    6.6641   -5.5447 C   0  0  1  0  0  0  0  0  0  0  0  0
   46.0945    7.6432   -4.7115 O   0  0  0  0  0  0  0  0  0  0  0  0
   46.0165    1.4966   -6.0180 C   0  0  2  0  0  0  0  0  0  0  0  0
   47.0127    1.8770   -6.9610 N   0  0  0  0  0  0  0  0  0  0  0  0
   43.2440    5.1117   -0.7427 C   0  0  2  0  0  0  0  0  0  0  0  0
   43.7055    5.8943    0.2915 O   0  0  0  0  0  0  0  0  0  0  0  0
   41.1801    6.6051    3.0629 C   0  0  1  0  0  0  0  0  0  0  0  0
   42.1273    7.2147    4.0079 O   0  0  0  0  0  0  0  0  0  0  0  0
   44.8751    7.3073   -6.8089 C   0  0  2  0  0  0  0  0  0  0  0  0
   43.8230    8.2896   -6.4429 O   0  0  0  0  0  0  0  0  0  0  0  0
   45.5171    2.7705   -5.2313 C   0  0  2  0  0  0  0  0  0  0  0  0
   42.7913    5.9250   -2.0547 C   0  0  2  0  0  0  0  0  0  0  0  0
   43.1586    5.0807   -3.0478 O   0  0  0  0  0  0  0  0  0  0  0  0
   40.3369    7.7368    2.2433 C   0  0  2  0  0  0  0  0  0  0  0  0
   39.3889    7.1116    1.2937 O   0  0  0  0  0  0  0  0  0  0  0  0
   44.2298    6.2159   -7.7266 C   0  0  2  0  0  0  0  0  0  0  0  0
   45.3058    5.2926   -8.0335 O   0  0  0  0  0  0  0  0  0  0  0  0
   44.4186    2.2977   -4.2201 C   0  0  2  0  0  0  0  0  0  0  0  0
   44.0328    3.4997   -3.5987 O   0  0  0  0  0  0  0  0  0  0  0  0
   43.5032    7.2956   -2.3553 C   0  0  0  0  0  0  0  0  0  0  0  0
   42.6226    8.1322   -3.1702 O   0  0  0  0  0  0  0  0  0  0  0  0
   41.3316    8.6718    1.4213 C   0  0  1  0  0  0  0  0  0  0  0  0
   42.1328    7.7683    0.5074 O   0  0  0  0  0  0  0  0  0  0  0  0
   43.6927    6.9128   -8.9105 C   0  0  0  0  0  0  0  0  0  0  0  0
   43.1071    6.0405   -9.7420 O   0  0  0  0  0  0  0  0  0  0  0  0
   45.0111    1.2434   -3.1907 C   0  0  1  0  0  0  0  0  0  0  0  0
   44.0216    0.8235   -2.3014 O   0  0  0  0  0  0  0  0  0  0  0  0
   40.4130    3.2436   -1.7961 C   0  0  0  0  0  0  0  0  0  0  0  0
   40.4171    9.6949    0.6662 C   0  0  0  0  0  0  0  0  0  0  0  0
   39.6617    9.0929   -0.3947 N   0  0  0  0  0  0  0  0  0  0  0  0
   40.5458    2.1641   -2.8713 C   0  0  0  0  0  0  0  0  0  0  0  0
   39.4642    2.4004   -3.8471 N   0  0  0  0  0  0  0  0  0  0  0  0
   39.4053    1.5094   -5.0897 C   0  0  0  0  0  0  0  0  0  0  0  0
  1  2  1  1  0  0  0
  1  8  1  0  0  0  0
  1 33  1  0  0  0  0
  3  4  1  1  0  0  0
  3 10  1  0  0  0  0
  3 42  1  0  0  0  0
  5 11  1  0  0  0  0
  5 29  1  0  0  0  0
  5 35  1  1  0  0  0
  6 13  1  0  0  0  0
  6 39  1  0  0  0  0
  6 22  1  6  0  0  0
  7 15  1  0  0  0  0
  8  9  1  1  0  0  0
  8 17  1  0  0  0  0
 10 19  1  0  0  0  0
 11 12  1  6  0  0  0
 11 21  1  0  0  0  0
 12 44  1  0  0  0  0
 13 14  1  6  0  0  0
 13 23  1  0  0  0  0
 15 16  1  0  0  0  0
 17 18  1  1  0  0  0
 17 25  1  0  0  0  0
 19 20  1  6  0  0  0
 19 27  1  0  0  0  0
 21 22  1  1  0  0  0
 21 28  1  0  0  0  0
 23 24  1  1  0  0  0
 23 30  1  0  0  0  0
 25 26  1  1  0  0  0
 25 32  1  0  0  0  0
 27  2  1  6  0  0  0
 27 34  1  0  0  0  0
 28 29  1  0  0  0  0
 28 36  1  6  0  0  0
 30 31  1  6  0  0  0
 30 38  1  0  0  0  0
 32 33  1  0  0  0  0
 32 40  1  6  0  0  0
 34 35  1  1  0  0  0
 34 42  1  0  0  0  0
 36 37  1  0  0  0  0
 38 39  1  0  0  0  0
 38 45  1  6  0  0  0
 40 41  1  0  0  0  0
 42 43  1  1  0  0  0
 44 47  1  0  0  0  0
 45 46  1  0  0  0  0
 47 48  1  0  0  0  0
 48 49  1  0  0  0  0
 49  7  1  0  0  0  0
M  END
>  <CHROM.1>
-72.12196034,61.62713124,60.84936406,-55.84022213,-27.69067327,81.14206318
-98.80195986,-78.20843084,-155.35564149,-179.31041960,-171.68767160,-70.40000474
-174.61468759,176.39763519,160.16990492,-172.80115505,43.02190070,4.69538227
-3.22202778,-1.00233856,0.88707604,0.65444875

>  <Name>
2bee_lig

>  <RI>
3.46266e+07

>  <Rbt.Current_Directory>
/home/itssahil/PROJECTS/Mol_Feturizer/New_Systems/rnas/2bee

>  <Rbt.Executable>
rbdock ($Id: //depot/dev/client3/rdock/2013.1/src/exe/rbdock.cxx#4 $)

>  <Rbt.Library>
libRbt.so (2013.1, Build901 2013/11/27)

>  <Rbt.Parameter_File>
/export/apps/rDock/src/rDock_2013.1_src/data/scripts/dock_solv.prm

>  <Rbt.Receptor>
prm/pocket_docking_4.prm

>  <SCORE>
-3.66154

>  <SCORE.INTER>
2.73272

>  <SCORE.INTER.CONST>
1

>  <SCORE.INTER.POLAR>
-0.156582

>  <SCORE.INTER.ROT>
16

>  <SCORE.INTER.SOLV>
12.6266

>  <SCORE.INTER.VDW>
-16.1318

>  <SCORE.INTER.norm>
0.0557698

>  <SCORE.INTRA>
-6.39426

>  <SCORE.INTRA.DIHEDRAL>
-20.3768

>  <SCORE.INTRA.DIHEDRAL.0>
36.0842

>  <SCORE.INTRA.POLAR>
0

>  <SCORE.INTRA.POLAR.0>
0

>  <SCORE.INTRA.REPUL>
0

>  <SCORE.INTRA.REPUL.0>
0

>  <SCORE.INTRA.SOLV>
5.34883

>  <SCORE.INTRA.SOLV.lig_0>
-126.444

>  <SCORE.INTRA.VDW>
1.11971

>  <SCORE.INTRA.VDW.0>
-7.40469

>  <SCORE.INTRA.norm>
-0.130495

>  <SCORE.RESTR>
0

>  <SCORE.RESTR.CAVITY>
0

>  <SCORE.RESTR.norm>
0

>  <SCORE.SYSTEM>
0

>  <SCORE.SYSTEM.CONST>
0

>  <SCORE.SYSTEM.DIHEDRAL>
0

>  <SCORE.SYSTEM.SOLV>
0

>  <SCORE.SYSTEM.norm>
0

>  <SCORE.heavy>
49

>  <SCORE.norm>
-0.0747253

>  <RMSD>
3.909

$$$$
2bee_lig
 OpenBabel11021811423D
libRbt.so/2013.1/901 2013/11/27
 49 52  0  0  0  0  0  0  0  0999 V2000
   45.8780    7.4445   -6.2541 C   0  0  2  0  0  0  0  0  0  0  0  0
   44.6399    7.5439   -6.9465 O   0  0  0  0  0  0  0  0  0  0  0  0
   41.9686    5.0176   -9.3664 C   0  0  2  0  0  0  0  0  0  0  0  0
   41.5300    3.9328  -10.2860 N   0  0  0  0  0  0  0  0  0  0  0  0
   43.3258    4.2382   -5.0157 C   0  0  1  0  0  0  0  0  0  0  0  0
   43.1665    5.7117   -0.8018 C   0  0  1  0  0  0  0  0  0  0  0  0
   40.3446   -0.2457   -6.2141 C   0  0  0  0  0  0  0  0  0  0  0  0
   47.0489    8.0224   -7.1395 C   0  0  2  0  0  0  0  0  0  0  0  0
   46.7365    9.3861   -7.5535 N   0  0  0  0  0  0  0  0  0  0  0  0
   43.0848    5.9024  -10.0870 C   0  0  0  0  0  0  0  0  0  0  0  0
   43.6165    3.3759   -3.8306 C   0  0  2  0  0  0  0  0  0  0  0  0
   43.3531    1.9482   -4.0807 O   0  0  0  0  0  0  0  0  0  0  0  0
   43.1071    5.3221    0.7716 C   0  0  2  0  0  0  0  0  0  0  0  0
   41.7099    4.8746    1.0889 N   0  0  0  0  0  0  0  0  0  0  0  0
   40.0026   -1.6001   -6.4363 C   0  0  0  0  0  0  0  0  0  0  0  0
   39.9596   -2.4901   -5.3654 N   0  0  0  0  0  0  0  0  0  0  0  0
   47.2810    7.0685   -8.3918 C   0  0  1  0  0  0  0  0  0  0  0  0
   48.3392    7.5939   -9.1799 O   0  0  0  0  0  0  0  0  0  0  0  0
   43.6032    7.0995   -9.1023 C   0  0  2  0  0  0  0  0  0  0  0  0
   44.5928    7.9001   -9.7396 N   0  0  0  0  0  0  0  0  0  0  0  0
   42.8073    4.1714   -2.8350 C   0  0  2  0  0  0  0  0  0  0  0  0
   42.7543    4.5139   -1.5028 O   0  0  0  0  0  0  0  0  0  0  0  0
   43.4892    6.5922    1.6124 C   0  0  1  0  0  0  0  0  0  0  0  0
   44.8688    6.9554    1.2566 O   0  0  0  0  0  0  0  0  0  0  0  0
   47.6118    5.6445   -7.8878 C   0  0  2  0  0  0  0  0  0  0  0  0
   47.8211    4.7157   -9.0277 O   0  0  0  0  0  0  0  0  0  0  0  0
   44.1943    6.4826   -7.7752 C   0  0  2  0  0  0  0  0  0  0  0  0
   41.5462    4.6567   -3.7076 C   0  0  2  0  0  0  0  0  0  0  0  0
   42.1238    4.9445   -4.8982 O   0  0  0  0  0  0  0  0  0  0  0  0
   42.4431    7.7967    1.2683 C   0  0  2  0  0  0  0  0  0  0  0  0
   41.0578    7.4187    1.6283 O   0  0  0  0  0  0  0  0  0  0  0  0
   46.4459    5.0847   -7.0062 C   0  0  2  0  0  0  0  0  0  0  0  0
   46.2928    6.0413   -5.9265 O   0  0  0  0  0  0  0  0  0  0  0  0
   43.0645    5.6246   -7.1119 C   0  0  2  0  0  0  0  0  0  0  0  0
   43.6846    5.1485   -5.9420 O   0  0  0  0  0  0  0  0  0  0  0  0
   40.7946    5.9629   -3.2550 C   0  0  0  0  0  0  0  0  0  0  0  0
   40.0702    5.7006   -2.0117 O   0  0  0  0  0  0  0  0  0  0  0  0
   42.4864    8.1308   -0.2891 C   0  0  1  0  0  0  0  0  0  0  0  0
   42.1591    6.8484   -1.0251 O   0  0  0  0  0  0  0  0  0  0  0  0
   46.8562    3.7422   -6.5533 C   0  0  0  0  0  0  0  0  0  0  0  0
   46.0557    3.3156   -5.5671 O   0  0  0  0  0  0  0  0  0  0  0  0
   42.6029    4.4507   -8.0768 C   0  0  1  0  0  0  0  0  0  0  0  0
   41.5909    3.6994   -7.4788 O   0  0  0  0  0  0  0  0  0  0  0  0
   43.8411    0.8373   -3.2473 C   0  0  0  0  0  0  0  0  0  0  0  0
   41.4375    9.2744   -0.5016 C   0  0  0  0  0  0  0  0  0  0  0  0
   41.6925   10.4261    0.3152 N   0  0  0  0  0  0  0  0  0  0  0  0
   43.5193   -0.4896   -3.9364 C   0  0  0  0  0  0  0  0  0  0  0  0
   42.1187   -0.4028   -4.3934 N   0  0  0  0  0  0  0  0  0  0  0  0
   41.8524    0.1019   -5.8132 C   0  0  0  0  0  0  0  0  0  0  0  0
  1  2  1  6  0  0  0
  1  8  1  0  0  0  0
  1 33  1  0  0  0  0
  3  4  1  6  0  0  0
  3 10  1  0  0  0  0
  3 42  1  0  0  0  0
  5 11  1  0  0  0  0
  5 29  1  0  0  0  0
  5 35  1  1  0  0  0
  6 13  1  0  0  0  0
  6 39  1  0  0  0  0
  6 22  1  6  0  0  0
  7 15  1  0  0  0  0
  8  9  1  6  0  0  0
  8 17  1  0  0  0  0
 10 19  1  0  0  0  0
 11 12  1  6  0  0  0
 11 21  1  0  0  0  0
 12 44  1  0  0  0  0
 13 14  1  1  0  0  0
 13 23  1  0  0  0  0
 15 16  1  0  0  0  0
 17 18  1  1  0  0  0
 17 25  1  0  0  0  0
 19 20  1  6  0  0  0
 19 27  1  0  0  0  0
 21 22  1  1  0  0  0
 21 28  1  0  0  0  0
 23 24  1  6  0  0  0
 23 30  1  0  0  0  0
 25 26  1  6  0  0  0
 25 32  1  0  0  0  0
 27  2  1  1  0  0  0
 27 34  1  0  0  0  0
 28 29  1  0  0  0  0
 28 36  1  1  0  0  0
 30 31  1  6  0  0  0
 30 38  1  0  0  0  0
 32 33  1  0  0  0  0
 32 40  1  1  0  0  0
 34 35  1  1  0  0  0
 34 42  1  0  0  0  0
 36 37  1  0  0  0  0
 38 39  1  0  0  0  0
 38 45  1  1  0  0  0
 40 41  1  0  0  0  0
 42 43  1  1  0  0  0
 44 47  1  0  0  0  0
 45 46  1  0  0  0  0
 47 48  1  0  0  0  0
 48 49  1  0  0  0  0
 49  7  1  0  0  0  0
M  END
>  <CHROM.1>
90.26437195,170.07034559,-168.38952251,69.91395846,164.25805556,-172.38987964
99.86538123,-137.43523283,-70.16547192,166.52126403,-170.75828221,56.67095012
-45.87182496,92.21061628,165.34899035,-70.13170553,43.48463158,5.00240180
-4.75001358,-0.94659222,1.00781275,0.89054425

>  <Name>
2bee_lig

>  <RI>
3.71943e+07

>  <Rbt.Current_Directory>
/home/itssahil/PROJECTS/Mol_Feturizer/New_Systems/rnas/2bee

>  <Rbt.Executable>
rbdock ($Id: //depot/dev/client3/rdock/2013.1/src/exe/rbdock.cxx#4 $)

>  <Rbt.Library>
libRbt.so (2013.1, Build901 2013/11/27)

>  <Rbt.Parameter_File>
/export/apps/rDock/src/rDock_2013.1_src/data/scripts/dock_solv.prm

>  <Rbt.Receptor>
prm/pocket_docking_2.prm

>  <SCORE>
10.5008

>  <SCORE.INTER>
8.47474

>  <SCORE.INTER.CONST>
1

>  <SCORE.INTER.POLAR>
-0.119533

>  <SCORE.INTER.ROT>
16

>  <SCORE.INTER.SOLV>
17.9674

>  <SCORE.INTER.VDW>
-14.2075

>  <SCORE.INTER.norm>
0.172954

>  <SCORE.INTRA>
-2.53656

>  <SCORE.INTRA.DIHEDRAL>
-16.1467

>  <SCORE.INTRA.DIHEDRAL.0>
36.0842

>  <SCORE.INTRA.POLAR>
0

>  <SCORE.INTRA.POLAR.0>
0

>  <SCORE.INTRA.REPUL>
0

>  <SCORE.INTRA.REPUL.0>
0

>  <SCORE.INTRA.SOLV>
5.0554

>  <SCORE.INTRA.SOLV.lig_0>
-126.444

>  <SCORE.INTRA.VDW>
3.0091

>  <SCORE.INTRA.VDW.0>
-7.40469

>  <SCORE.INTRA.norm>
-0.0517665

>  <SCORE.RESTR>
4.56266

>  <SCORE.RESTR.CAVITY>
4.56266

>  <SCORE.RESTR.norm>
0.0931155

>  <SCORE.SYSTEM>
0

>  <SCORE.SYSTEM.CONST>
0

>  <SCORE.SYSTEM.DIHEDRAL>
0

>  <SCORE.SYSTEM.SOLV>
0

>  <SCORE.SYSTEM.norm>
0

>  <SCORE.heavy>
49

>  <SCORE.norm>
0.214303

>  <RMSD>
3.959

$$$$
2bee_lig
 OpenBabel11021811423D
libRbt.so/2013.1/901 2013/11/27
 49 52  0  0  0  0  0  0  0  0999 V2000
   46.4106    4.8475   -8.2292 C   0  0  2  0  0  0  0  0  0  0  0  0
   46.2090    4.1180   -7.0253 O   0  0  0  0  0  0  0  0  0  0  0  0
   45.2959    0.1247   -8.6360 C   0  0  2  0  0  0  0  0  0  0  0  0
   45.0138   -1.3363   -8.6645 N   0  0  0  0  0  0  0  0  0  0  0  0
   43.3183    3.2490   -5.7609 C   0  0  1  0  0  0  0  0  0  0  0  0
   42.6240    6.3591   -2.1933 C   0  0  1  0  0  0  0  0  0  0  0  0
   42.1387   -2.3550   -2.7180 C   0  0  0  0  0  0  0  0  0  0  0  0
   46.8624    6.3241   -7.9061 C   0  0  2  0  0  0  0  0  0  0  0  0
   48.0404    6.3096   -7.0456 N   0  0  0  0  0  0  0  0  0  0  0  0
   46.6905    0.3797   -7.9026 C   0  0  0  0  0  0  0  0  0  0  0  0
   43.6682    3.5919   -4.3493 C   0  0  2  0  0  0  0  0  0  0  0  0
   43.5635    2.4408   -3.4358 O   0  0  0  0  0  0  0  0  0  0  0  0
   44.1463    6.1178   -1.6880 C   0  0  2  0  0  0  0  0  0  0  0  0
   44.5055    4.6854   -1.9570 N   0  0  0  0  0  0  0  0  0  0  0  0
   41.0778   -2.4819   -1.7910 C   0  0  0  0  0  0  0  0  0  0  0  0
   40.0248   -3.3546   -2.0561 N   0  0  0  0  0  0  0  0  0  0  0  0
   45.6532    7.1078   -7.2310 C   0  0  1  0  0  0  0  0  0  0  0  0
   46.0675    8.4365   -6.9482 O   0  0  0  0  0  0  0  0  0  0  0  0
   47.0305    1.9772   -7.8388 C   0  0  2  0  0  0  0  0  0  0  0  0
   48.2773    2.2143   -7.1942 N   0  0  0  0  0  0  0  0  0  0  0  0
   42.7544    4.7875   -4.2301 C   0  0  2  0  0  0  0  0  0  0  0  0
   42.6315    6.0035   -3.5967 O   0  0  0  0  0  0  0  0  0  0  0  0
   44.2145    6.4294   -0.1504 C   0  0  1  0  0  0  0  0  0  0  0  0
   43.8662    7.8469    0.0260 O   0  0  0  0  0  0  0  0  0  0  0  0
   44.4414    7.0915   -8.1914 C   0  0  2  0  0  0  0  0  0  0  0  0
   43.2824    7.8009   -7.5920 O   0  0  0  0  0  0  0  0  0  0  0  0
   45.8822    2.7384   -7.0687 C   0  0  2  0  0  0  0  0  0  0  0  0
   41.4717    4.3430   -5.0930 C   0  0  2  0  0  0  0  0  0  0  0  0
   42.0459    3.6949   -6.1343 O   0  0  0  0  0  0  0  0  0  0  0  0
   43.1739    5.4521    0.6406 C   0  0  2  0  0  0  0  0  0  0  0  0
   43.5331    4.0282    0.4536 O   0  0  0  0  0  0  0  0  0  0  0  0
   44.0067    5.6218   -8.5089 C   0  0  2  0  0  0  0  0  0  0  0  0
   45.1830    4.9920   -9.0780 O   0  0  0  0  0  0  0  0  0  0  0  0
   44.5405    2.4535   -7.8244 C   0  0  2  0  0  0  0  0  0  0  0  0
   43.6025    3.1889   -7.0766 O   0  0  0  0  0  0  0  0  0  0  0  0
   40.5751    5.4747   -5.7184 C   0  0  0  0  0  0  0  0  0  0  0  0
   39.9219    6.2253   -4.6463 O   0  0  0  0  0  0  0  0  0  0  0  0
   41.6929    5.6746    0.0963 C   0  0  1  0  0  0  0  0  0  0  0  0
   41.7250    5.4055   -1.3937 O   0  0  0  0  0  0  0  0  0  0  0  0
   42.8685    5.7029   -9.4436 C   0  0  0  0  0  0  0  0  0  0  0  0
   41.7678    6.1241   -8.8061 O   0  0  0  0  0  0  0  0  0  0  0  0
   44.2190    0.8983   -7.8430 C   0  0  1  0  0  0  0  0  0  0  0  0
   43.0268    0.6565   -8.5260 O   0  0  0  0  0  0  0  0  0  0  0  0
   42.3588    1.6165   -3.2453 C   0  0  0  0  0  0  0  0  0  0  0  0
   40.7950    4.6787    0.9057 C   0  0  0  0  0  0  0  0  0  0  0  0
   40.9971    3.3095    0.5275 N   0  0  0  0  0  0  0  0  0  0  0  0
   42.1497    0.7363   -4.4784 C   0  0  0  0  0  0  0  0  0  0  0  0
   41.2709   -0.3745   -4.0640 N   0  0  0  0  0  0  0  0  0  0  0  0
   41.8080   -1.8025   -4.1810 C   0  0  0  0  0  0  0  0  0  0  0  0
  1  2  1  1  0  0  0
  1  8  1  0  0  0  0
  1 33  1  0  0  0  0
  3  4  1  1  0  0  0
  3 10  1  0  0  0  0
  3 42  1  0  0  0  0
  5 11  1  0  0  0  0
  5 29  1  0  0  0  0
  5 35  1  6  0  0  0
  6 13  1  0  0  0  0
  6 39  1  0  0  0  0
  6 22  1  6  0  0  0
  7 15  1  0  0  0  0
  8  9  1  1  0  0  0
  8 17  1  0  0  0  0
 10 19  1  0  0  0  0
 11 12  1  1  0  0  0
 11 21  1  0  0  0  0
 12 44  1  0  0  0  0
 13 14  1  1  0  0  0
 13 23  1  0  0  0  0
 15 16  1  0  0  0  0
 17 18  1  6  0  0  0
 17 25  1  0  0  0  0
 19 20  1  1  0  0  0
 19 27  1  0  0  0  0
 21 22  1  1  0  0  0
 21 28  1  0  0  0  0
 23 24  1  6  0  0  0
 23 30  1  0  0  0  0
 25 26  1  1  0  0  0
 25 32  1  0  0  0  0
 27  2  1  6  0  0  0
 27 34  1  0  0  0  0
 28 29  1  0  0  0  0
 28 36  1  6  0  0  0
 30 31  1  6  0  0  0
 30 38  1  0  0  0  0
 32 33  1  0  0  0  0
 32 40  1  6  0  0  0
 34 35  1  1  0  0  0
 34 42  1  0  0  0  0
 36 37  1  0  0  0  0
 38 39  1  0  0  0  0
 38 45  1  1  0  0  0
 40 41  1  0  0  0  0
 42 43  1  6  0  0  0
 44 47  1  0  0  0  0
 45 46  1  0  0  0  0
 47 48  1  0  0  0  0
 48 49  1  0  0  0  0
 49  7  1  0  0  0  0
M  END
>  <CHROM.1>
-175.90845719,66.37176706,70.19860694,62.58492120,-55.86916631,72.62077006
-56.98961701,58.39859965,-66.31475349,-72.78067484,-51.00052894,-71.71648174
160.11322222,-119.42426957,106.77129030,62.47824863,43.57029573,3.69797642
-4.99690394,-0.21640778,1.12343570,0.38468222

>  <Name>
2bee_lig

>  <RI>
0

>  <Rbt.Current_Directory>
/home/itssahil/PROJECTS/Mol_Feturizer/New_Systems/rnas/2bee

>  <Rbt.Executable>
rbdock ($Id: //depot/dev/client3/rdock/2013.1/src/exe/rbdock.cxx#4 $)

>  <Rbt.Library>
libRbt.so (2013.1, Build901 2013/11/27)

>  <Rbt.Parameter_File>
/export/apps/rDock/src/rDock_2013.1_src/data/scripts/dock_solv.prm

>  <Rbt.Receptor>
prm/pocket_docking_8.prm

>  <SCORE>
-11.0722

>  <SCORE.INTER>
-2.0714

>  <SCORE.INTER.CONST>
1

>  <SCORE.INTER.POLAR>
-0.933559

>  <SCORE.INTER.ROT>
16

>  <SCORE.INTER.SOLV>
11.1184

>  <SCORE.INTER.VDW>
-16.2419

>  <SCORE.INTER.norm>
-0.0422734

>  <SCORE.INTRA>
-9.00076

>  <SCORE.INTRA.DIHEDRAL>
-23.3082

>  <SCORE.INTRA.DIHEDRAL.0>
36.0842

>  <SCORE.INTRA.POLAR>
0

>  <SCORE.INTRA.POLAR.0>
0

>  <SCORE.INTRA.REPUL>
0

>  <SCORE.INTRA.REPUL.0>
0

>  <SCORE.INTRA.SOLV>
3.53864

>  <SCORE.INTRA.SOLV.lig_0>
-126.444

>  <SCORE.INTRA.VDW>
0.884009

>  <SCORE.INTRA.VDW.0>
-7.40469

>  <SCORE.INTRA.norm>
-0.183689

>  <SCORE.RESTR>
0

>  <SCORE.RESTR.CAVITY>
0

>  <SCORE.RESTR.norm>
0

>  <SCORE.SYSTEM>
0

>  <SCORE.SYSTEM.CONST>
0

>  <SCORE.SYSTEM.DIHEDRAL>
0

>  <SCORE.SYSTEM.SOLV>
0

>  <SCORE.SYSTEM.norm>
0

>  <SCORE.heavy>
49

>  <SCORE.norm>
-0.225962

>  <RMSD>
3.993

$$$$
2bee_lig
 OpenBabel11021811423D
libRbt.so/2013.1/901 2013/11/27
 49 52  0  0  0  0  0  0  0  0999 V2000
   47.0665    4.9112   -7.6517 C   0  0  2  0  0  0  0  0  0  0  0  0
   47.3521    4.6451   -6.2843 O   0  0  0  0  0  0  0  0  0  0  0  0
   45.8702    0.5213   -5.8690 C   0  0  2  0  0  0  0  0  0  0  0  0
   45.7097   -0.8545   -5.3248 N   0  0  0  0  0  0  0  0  0  0  0  0
   44.1743    4.3642   -3.8482 C   0  0  1  0  0  0  0  0  0  0  0  0
   42.5698    8.1461   -1.4021 C   0  0  1  0  0  0  0  0  0  0  0  0
   38.8291    5.1080   -5.1680 C   0  0  0  0  0  0  0  0  0  0  0  0
   47.6665    6.3075   -8.0752 C   0  0  2  0  0  0  0  0  0  0  0  0
   49.0932    6.3510   -7.7730 N   0  0  0  0  0  0  0  0  0  0  0  0
   47.4071    0.7762   -6.2169 C   0  0  0  0  0  0  0  0  0  0  0  0
   43.3636    4.4526   -2.5961 C   0  0  2  0  0  0  0  0  0  0  0  0
   42.0880    3.7210   -2.6851 O   0  0  0  0  0  0  0  0  0  0  0  0
   43.1566    8.9369   -0.1132 C   0  0  2  0  0  0  0  0  0  0  0  0
   43.0978    8.0124    1.0678 N   0  0  0  0  0  0  0  0  0  0  0  0
   39.6056    5.4994   -6.2836 C   0  0  0  0  0  0  0  0  0  0  0  0
   40.6583    6.3964   -6.1165 N   0  0  0  0  0  0  0  0  0  0  0  0
   46.8740    7.4682   -7.3291 C   0  0  1  0  0  0  0  0  0  0  0  0
   47.4177    8.7207   -7.7199 O   0  0  0  0  0  0  0  0  0  0  0  0
   47.6275    2.2847   -6.8063 C   0  0  2  0  0  0  0  0  0  0  0  0
   48.9942    2.5186   -7.1282 N   0  0  0  0  0  0  0  0  0  0  0  0
   43.4109    5.9557   -2.4651 C   0  0  2  0  0  0  0  0  0  0  0  0
   43.3995    6.9668   -1.5310 O   0  0  0  0  0  0  0  0  0  0  0  0
   42.2720   10.2110    0.1327 C   0  0  1  0  0  0  0  0  0  0  0  0
   42.3952   11.0670   -1.0563 O   0  0  0  0  0  0  0  0  0  0  0  0
   45.3742    7.3708   -7.6931 C   0  0  2  0  0  0  0  0  0  0  0  0
   44.5932    8.4295   -7.0038 O   0  0  0  0  0  0  0  0  0  0  0  0
   47.1426    3.3493   -5.7467 C   0  0  2  0  0  0  0  0  0  0  0  0
   43.3463    6.4489   -3.9948 C   0  0  2  0  0  0  0  0  0  0  0  0
   44.1237    5.5316   -4.6177 O   0  0  0  0  0  0  0  0  0  0  0  0
   40.7267    9.7496    0.3833 C   0  0  2  0  0  0  0  0  0  0  0  0
   40.6156    8.8866    1.5809 O   0  0  0  0  0  0  0  0  0  0  0  0
   44.7922    5.9797   -7.2737 C   0  0  2  0  0  0  0  0  0  0  0  0
   45.6045    5.0016   -7.9722 O   0  0  0  0  0  0  0  0  0  0  0  0
   45.6358    3.0536   -5.4390 C   0  0  2  0  0  0  0  0  0  0  0  0
   45.3055    4.0619   -4.5148 O   0  0  0  0  0  0  0  0  0  0  0  0
   43.9592    7.8557   -4.3428 C   0  0  0  0  0  0  0  0  0  0  0  0
   43.0670    8.9081   -3.8571 O   0  0  0  0  0  0  0  0  0  0  0  0
   40.1872    8.9365   -0.8764 C   0  0  1  0  0  0  0  0  0  0  0  0
   41.1203    7.7603   -1.0753 O   0  0  0  0  0  0  0  0  0  0  0  0
   43.3738    5.9678   -7.6781 C   0  0  0  0  0  0  0  0  0  0  0  0
   43.2621    6.1549   -9.0002 O   0  0  0  0  0  0  0  0  0  0  0  0
   45.4552    1.5946   -4.8381 C   0  0  1  0  0  0  0  0  0  0  0  0
   44.1087    1.3399   -4.5765 O   0  0  0  0  0  0  0  0  0  0  0  0
   41.9377    2.3324   -3.1500 C   0  0  0  0  0  0  0  0  0  0  0  0
   38.7177    8.5318   -0.5158 C   0  0  0  0  0  0  0  0  0  0  0  0
   38.0918    7.7349   -1.5316 N   0  0  0  0  0  0  0  0  0  0  0  0
   40.4535    2.0286   -3.3598 C   0  0  0  0  0  0  0  0  0  0  0  0
   39.9689    2.9670   -4.3905 N   0  0  0  0  0  0  0  0  0  0  0  0
   39.5619    4.3751   -3.9511 C   0  0  0  0  0  0  0  0  0  0  0  0
  1  2  1  1  0  0  0
  1  8  1  0  0  0  0
  1 33  1  0  0  0  0
  3  4  1  1  0  0  0
  3 10  1  0  0  0  0
  3 42  1  0  0  0  0
  5 11  1  0  0  0  0
  5 29  1  0  0  0  0
  5 35  1  1  0  0  0
  6 13  1  0  0  0  0
  6 39  1  0  0  0  0
  6 22  1  1  0  0  0
  7 15  1  0  0  0  0
  8  9  1  1  0  0  0
  8 17  1  0  0  0  0
 10 19  1  0  0  0  0
 11 12  1  6  0  0  0
 11 21  1  0  0  0  0
 12 44  1  0  0  0  0
 13 14  1  1  0  0  0
 13 23  1  0  0  0  0
 15 16  1  0  0  0  0
 17 18  1  6  0  0  0
 17 25  1  0  0  0  0
 19 20  1  1  0  0  0
 19 27  1  0  0  0  0
 21 22  1  1  0  0  0
 21 28  1  0  0  0  0
 23 24  1  6  0  0  0
 23 30  1  0  0  0  0
 25 26  1  1  0  0  0
 25 32  1  0  0  0  0
 27  2  1  6  0  0  0
 27 34  1  0  0  0  0
 28 29  1  0  0  0  0
 28 36  1  1  0  0  0
 30 31  1  1  0  0  0
 30 38  1  0  0  0  0
 32 33  1  0  0  0  0
 32 40  1  6  0  0  0
 34 35  1  1  0  0  0
 34 42  1  0  0  0  0
 36 37  1  0  0  0  0
 38 39  1  0  0  0  0
 38 45  1  1  0  0  0
 40 41  1  0  0  0  0
 42 43  1  6  0  0  0
 44 47  1  0  0  0  0
 45 46  1  0  0  0  0
 47 48  1  0  0  0  0
 48 49  1  0  0  0  0
 49  7  1  0  0  0  0
M  END
>  <CHROM.1>
-167.81427064,109.96194322,-177.10794931,-60.14609937,49.44138826,-168.87323965
-127.11051378,41.00361257,-74.23009115,59.17088313,-179.25449031,-177.55013949
60.81511209,-83.19023067,-169.73127603,-70.87191200,43.67013167,5.68033787
-4.36061564,-0.64814189,0.70661535,0.20007764

>  <Name>
2bee_lig

>  <RI>
3.46266e+07

>  <Rbt.Current_Directory>
/home/itssahil/PROJECTS/Mol_Feturizer/New_Systems/rnas/2bee

>  <Rbt.Executable>
rbdock ($Id: //depot/dev/client3/rdock/2013.1/src/exe/rbdock.cxx#4 $)

>  <Rbt.Library>
libRbt.so (2013.1, Build901 2013/11/27)

>  <Rbt.Parameter_File>
/export/apps/rDock/src/rDock_2013.1_src/data/scripts/dock_solv.prm

>  <Rbt.Receptor>
prm/pocket_docking_4.prm

>  <SCORE>
-9.06135

>  <SCORE.INTER>
-1.856

>  <SCORE.INTER.CONST>
1

>  <SCORE.INTER.POLAR>
-1.70846

>  <SCORE.INTER.ROT>
16

>  <SCORE.INTER.SOLV>
18.6657

>  <SCORE.INTER.VDW>
-16.031

>  <SCORE.INTER.norm>
-0.0378776

>  <SCORE.INTRA>
-7.20535

>  <SCORE.INTRA.DIHEDRAL>
-22.0512

>  <SCORE.INTRA.DIHEDRAL.0>
36.0842

>  <SCORE.INTRA.POLAR>
0

>  <SCORE.INTRA.POLAR.0>
0

>  <SCORE.INTRA.REPUL>
0

>  <SCORE.INTRA.REPUL.0>
0

>  <SCORE.INTRA.SOLV>
3.91574

>  <SCORE.INTRA.SOLV.lig_0>
-126.444

>  <SCORE.INTRA.VDW>
1.8624

>  <SCORE.INTRA.VDW.0>
-7.40469

>  <SCORE.INTRA.norm>
-0.147048

>  <SCORE.RESTR>
0

>  <SCORE.RESTR.CAVITY>
0

>  <SCORE.RESTR.norm>
0

>  <SCORE.SYSTEM>
0

>  <SCORE.SYSTEM.CONST>
0

>  <SCORE.SYSTEM.DIHEDRAL>
0

>  <SCORE.SYSTEM.SOLV>
0

>  <SCORE.SYSTEM.norm>
0

>  <SCORE.heavy>
49

>  <SCORE.norm>
-0.184926

>  <RMSD>
4.044

$$$$
2bee_lig
 OpenBabel11021811423D
libRbt.so/2013.1/901 2013/11/27
 49 52  0  0  0  0  0  0  0  0999 V2000
   46.4263    6.8947   -7.6988 C   0  0  2  0  0  0  0  0  0  0  0  0
   46.1784    6.8316   -6.3000 O   0  0  0  0  0  0  0  0  0  0  0  0
   47.0914    2.6287   -5.3641 C   0  0  2  0  0  0  0  0  0  0  0  0
   47.5277    1.4359   -4.5884 N   0  0  0  0  0  0  0  0  0  0  0  0
   44.0706    5.6954   -3.7382 C   0  0  1  0  0  0  0  0  0  0  0  0
   40.9320    8.3867   -1.2742 C   0  0  1  0  0  0  0  0  0  0  0  0
   42.1102    2.6937   -1.6231 C   0  0  0  0  0  0  0  0  0  0  0  0
   45.9109    8.2656   -8.2854 C   0  0  2  0  0  0  0  0  0  0  0  0
   46.5044    9.3782   -7.5516 N   0  0  0  0  0  0  0  0  0  0  0  0
   48.2686    3.7065   -5.3831 C   0  0  0  0  0  0  0  0  0  0  0  0
   44.0715    6.7600   -2.6898 C   0  0  2  0  0  0  0  0  0  0  0  0
   44.7966    6.3643   -1.4700 O   0  0  0  0  0  0  0  0  0  0  0  0
   39.4555    8.8245   -1.7833 C   0  0  2  0  0  0  0  0  0  0  0  0
   39.6176    9.9154   -2.8015 N   0  0  0  0  0  0  0  0  0  0  0  0
   41.1889    1.6475   -1.8629 C   0  0  0  0  0  0  0  0  0  0  0  0
   40.7466    1.3955   -3.1596 N   0  0  0  0  0  0  0  0  0  0  0  0
   44.3215    8.3013   -8.2189 C   0  0  1  0  0  0  0  0  0  0  0  0
   43.8668    9.5362   -8.7530 O   0  0  0  0  0  0  0  0  0  0  0  0
   47.8227    5.0402   -6.2161 C   0  0  2  0  0  0  0  0  0  0  0  0
   48.8697    6.0041   -6.2464 N   0  0  0  0  0  0  0  0  0  0  0  0
   42.5813    7.0008   -2.6864 C   0  0  2  0  0  0  0  0  0  0  0  0
   41.6384    7.9803   -2.4708 O   0  0  0  0  0  0  0  0  0  0  0  0
   38.6348    9.3356   -0.5458 C   0  0  1  0  0  0  0  0  0  0  0  0
   38.5083    8.2104    0.3921 O   0  0  0  0  0  0  0  0  0  0  0  0
   43.7553    7.1037   -9.0168 C   0  0  2  0  0  0  0  0  0  0  0  0
   42.2710    7.0902   -8.9675 O   0  0  0  0  0  0  0  0  0  0  0  0
   46.5357    5.6757   -5.5596 C   0  0  2  0  0  0  0  0  0  0  0  0
   41.9818    5.5273   -2.9249 C   0  0  2  0  0  0  0  0  0  0  0  0
   42.8521    5.0136   -3.8263 O   0  0  0  0  0  0  0  0  0  0  0  0
   39.4178   10.5972    0.1317 C   0  0  2  0  0  0  0  0  0  0  0  0
   39.5412   11.7224   -0.8223 O   0  0  0  0  0  0  0  0  0  0  0  0
   44.2783    5.7505   -8.4293 C   0  0  2  0  0  0  0  0  0  0  0  0
   45.7245    5.8392   -8.4999 O   0  0  0  0  0  0  0  0  0  0  0  0
   45.4167    4.5801   -5.5628 C   0  0  2  0  0  0  0  0  0  0  0  0
   44.3240    5.2529   -4.9854 O   0  0  0  0  0  0  0  0  0  0  0  0
   40.5533    5.4081   -3.5737 C   0  0  0  0  0  0  0  0  0  0  0  0
   40.6155    5.8424   -4.9690 O   0  0  0  0  0  0  0  0  0  0  0  0
   40.8808   10.1551    0.5826 C   0  0  1  0  0  0  0  0  0  0  0  0
   41.5834    9.6298   -0.6519 O   0  0  0  0  0  0  0  0  0  0  0  0
   43.7105    4.6730   -9.2613 C   0  0  0  0  0  0  0  0  0  0  0  0
   43.8187    3.4925   -8.6367 O   0  0  0  0  0  0  0  0  0  0  0  0
   45.8636    3.3103   -4.7201 C   0  0  1  0  0  0  0  0  0  0  0  0
   44.8628    2.3385   -4.7377 O   0  0  0  0  0  0  0  0  0  0  0  0
   44.2481    6.4115   -0.1048 C   0  0  0  0  0  0  0  0  0  0  0  0
   41.5372   11.4396    1.1928 C   0  0  0  0  0  0  0  0  0  0  0  0
   40.7720   12.0017    2.2685 N   0  0  0  0  0  0  0  0  0  0  0  0
   43.0712    5.4404   -0.0001 C   0  0  0  0  0  0  0  0  0  0  0  0
   43.6302    4.0800   -0.1215 N   0  0  0  0  0  0  0  0  0  0  0  0
   42.6580    2.8984   -0.1356 C   0  0  0  0  0  0  0  0  0  0  0  0
  1  2  1  1  0  0  0
  1  8  1  0  0  0  0
  1 33  1  0  0  0  0
  3  4  1  1  0  0  0
  3 10  1  0  0  0  0
  3 42  1  0  0  0  0
  5 11  1  0  0  0  0
  5 29  1  0  0  0  0
  5 35  1  6  0  0  0
  6 13  1  0  0  0  0
  6 39  1  0  0  0  0
  6 22  1  6  0  0  0
  7 15  1  0  0  0  0
  8  9  1  1  0  0  0
  8 17  1  0  0  0  0
 10 19  1  0  0  0  0
 11 12  1  1  0  0  0
 11 21  1  0  0  0  0
 12 44  1  0  0  0  0
 13 14  1  6  0  0  0
 13 23  1  0  0  0  0
 15 16  1  0  0  0  0
 17 18  1  6  0  0  0
 17 25  1  0  0  0  0
 19 20  1  1  0  0  0
 19 27  1  0  0  0  0
 21 22  1  1  0  0  0
 21 28  1  0  0  0  0
 23 24  1  1  0  0  0
 23 30  1  0  0  0  0
 25 26  1  1  0  0  0
 25 32  1  0  0  0  0
 27  2  1  6  0  0  0
 27 34  1  0  0  0  0
 28 29  1  0  0  0  0
 28 36  1  6  0  0  0
 30 31  1  6  0  0  0
 30 38  1  0  0  0  0
 32 33  1  0  0  0  0
 32 40  1  6  0  0  0
 34 35  1  1  0  0  0
 34 42  1  0  0  0  0
 36 37  1  0  0  0  0
 38 39  1  0  0  0  0
 38 45  1  6  0  0  0
 40 41  1  0  0  0  0
 42 43  1  6  0  0  0
 44 47  1  0  0  0  0
 45 46  1  0  0  0  0
 47 48  1  0  0  0  0
 48 49  1  0  0  0  0
 49  7  1  0  0  0  0
M  END
>  <CHROM.1>
178.80078619,94.17408681,-145.24907405,-176.56108275,-126.59891726,63.74118649
-90.52119622,32.07623263,68.72694090,-164.06138828,-69.70747167,56.44251283
67.76547726,-176.39294187,83.89936427,-179.91214278,43.34159200,6.40193928
-3.92554989,0.09879452,0.97543068,-0.64789434

>  <Name>
2bee_lig

>  <RI>
2.18182e+07

>  <Rbt.Current_Directory>
/home/itssahil/PROJECTS/Mol_Feturizer/New_Systems/rnas/2bee

>  <Rbt.Executable>
rbdock ($Id: //depot/dev/client3/rdock/2013.1/src/exe/rbdock.cxx#4 $)

>  <Rbt.Library>
libRbt.so (2013.1, Build901 2013/11/27)

>  <Rbt.Parameter_File>
/export/apps/rDock/src/rDock_2013.1_src/data/scripts/dock_solv.prm

>  <Rbt.Receptor>
prm/pocket_docking_3.prm

>  <SCORE>
11.8009

>  <SCORE.INTER>
14.6753

>  <SCORE.INTER.CONST>
1

>  <SCORE.INTER.POLAR>
-2.35861

>  <SCORE.INTER.ROT>
16

>  <SCORE.INTER.SOLV>
21.5768

>  <SCORE.INTER.VDW>
-3.81339

>  <SCORE.INTER.norm>
0.299496

>  <SCORE.INTRA>
-4.47818

>  <SCORE.INTRA.DIHEDRAL>
-11.248

>  <SCORE.INTRA.DIHEDRAL.0>
36.0842

>  <SCORE.INTRA.POLAR>
0

>  <SCORE.INTRA.POLAR.0>
0

>  <SCORE.INTRA.REPUL>
0

>  <SCORE.INTRA.REPUL.0>
0

>  <SCORE.INTRA.SOLV>
-0.59348

>  <SCORE.INTRA.SOLV.lig_0>
-126.444

>  <SCORE.INTRA.VDW>
1.44254

>  <SCORE.INTRA.VDW.0>
-7.40469

>  <SCORE.INTRA.norm>
-0.0913914

>  <SCORE.RESTR>
1.60381

>  <SCORE.RESTR.CAVITY>
1.60381

>  <SCORE.RESTR.norm>
0.0327308

>  <SCORE.SYSTEM>
0

>  <SCORE.SYSTEM.CONST>
0

>  <SCORE.SYSTEM.DIHEDRAL>
0

>  <SCORE.SYSTEM.SOLV>
0

>  <SCORE.SYSTEM.norm>
0

>  <SCORE.heavy>
49

>  <SCORE.norm>
0.240835

>  <RMSD>
4.059

$$$$
2bee_lig
 OpenBabel11021811423D
libRbt.so/2013.1/901 2013/11/27
 49 52  0  0  0  0  0  0  0  0999 V2000
   42.8117    5.4499   -6.6387 C   0  0  2  0  0  0  0  0  0  0  0  0
   43.6295    4.3320   -6.9607 O   0  0  0  0  0  0  0  0  0  0  0  0
   46.4397    2.0227   -4.4819 C   0  0  2  0  0  0  0  0  0  0  0  0
   47.6622    1.6912   -3.7007 N   0  0  0  0  0  0  0  0  0  0  0  0
   43.3434    5.0546   -2.9676 C   0  0  1  0  0  0  0  0  0  0  0  0
   42.5381    9.2240   -0.7598 C   0  0  1  0  0  0  0  0  0  0  0  0
   39.7238    1.3870    1.5895 C   0  0  0  0  0  0  0  0  0  0  0  0
   41.5045    5.4451   -7.5219 C   0  0  2  0  0  0  0  0  0  0  0  0
   40.8086    4.1709   -7.3782 N   0  0  0  0  0  0  0  0  0  0  0  0
   46.8573    2.4443   -5.9637 C   0  0  0  0  0  0  0  0  0  0  0  0
   43.6925    5.5389   -1.5978 C   0  0  2  0  0  0  0  0  0  0  0  0
   43.1762    4.6643   -0.5306 O   0  0  0  0  0  0  0  0  0  0  0  0
   43.3777   10.6117   -0.7764 C   0  0  2  0  0  0  0  0  0  0  0  0
   44.6620   10.3888   -0.0321 N   0  0  0  0  0  0  0  0  0  0  0  0
   39.8848    2.2891    2.6671 C   0  0  0  0  0  0  0  0  0  0  0  0
   38.8110    2.5599    3.5123 N   0  0  0  0  0  0  0  0  0  0  0  0
   41.8935    5.7326   -9.0379 C   0  0  1  0  0  0  0  0  0  0  0  0
   40.7107    5.7310   -9.8241 O   0  0  0  0  0  0  0  0  0  0  0  0
   45.5403    2.8297   -6.8517 C   0  0  2  0  0  0  0  0  0  0  0  0
   45.9018    3.1985   -8.1781 N   0  0  0  0  0  0  0  0  0  0  0  0
   43.1915    6.9511   -1.7807 C   0  0  2  0  0  0  0  0  0  0  0  0
   43.4141    8.2458   -1.3693 O   0  0  0  0  0  0  0  0  0  0  0  0
   42.5151   11.7225   -0.0777 C   0  0  1  0  0  0  0  0  0  0  0  0
   41.2891   11.8903   -0.8717 O   0  0  0  0  0  0  0  0  0  0  0  0
   42.6209    7.0945   -9.1234 C   0  0  2  0  0  0  0  0  0  0  0  0
   43.0165    7.3954  -10.5230 O   0  0  0  0  0  0  0  0  0  0  0  0
   44.7608    4.0179   -6.1648 C   0  0  2  0  0  0  0  0  0  0  0  0
   41.8916    6.7510   -2.7068 C   0  0  2  0  0  0  0  0  0  0  0  0
   42.2999    5.7777   -3.5555 O   0  0  0  0  0  0  0  0  0  0  0  0
   42.1819   11.2589    1.4512 C   0  0  2  0  0  0  0  0  0  0  0  0
   43.4234   11.0907    2.2398 O   0  0  0  0  0  0  0  0  0  0  0  0
   43.9121    7.0887   -8.2387 C   0  0  2  0  0  0  0  0  0  0  0  0
   43.4527    6.7805   -6.8977 O   0  0  0  0  0  0  0  0  0  0  0  0
   44.3787    3.5553   -4.7182 C   0  0  2  0  0  0  0  0  0  0  0  0
   43.6775    4.6661   -4.2137 O   0  0  0  0  0  0  0  0  0  0  0  0
   41.4343    7.9577   -3.6071 C   0  0  0  0  0  0  0  0  0  0  0  0
   40.3032    7.5437   -4.4369 O   0  0  0  0  0  0  0  0  0  0  0  0
   41.3971    9.8721    1.4438 C   0  0  1  0  0  0  0  0  0  0  0  0
   42.2699    8.8748    0.7109 O   0  0  0  0  0  0  0  0  0  0  0  0
   44.5232    8.4255   -8.3619 C   0  0  0  0  0  0  0  0  0  0  0  0
   45.1495    8.7608   -7.2258 O   0  0  0  0  0  0  0  0  0  0  0  0
   45.6776    3.2185   -3.8686 C   0  0  1  0  0  0  0  0  0  0  0  0
   45.3241    2.7996   -2.5857 O   0  0  0  0  0  0  0  0  0  0  0  0
   43.6150    3.2815   -0.2812 C   0  0  0  0  0  0  0  0  0  0  0  0
   41.1531    9.5207    2.9505 C   0  0  0  0  0  0  0  0  0  0  0  0
   40.2881   10.4564    3.6101 N   0  0  0  0  0  0  0  0  0  0  0  0
   42.6119    2.3129   -0.9094 C   0  0  0  0  0  0  0  0  0  0  0  0
   41.3999    2.3511   -0.0682 N   0  0  0  0  0  0  0  0  0  0  0  0
   40.9895    1.0726    0.6655 C   0  0  0  0  0  0  0  0  0  0  0  0
  1  2  1  6  0  0  0
  1  8  1  0  0  0  0
  1 33  1  0  0  0  0
  3  4  1  1  0  0  0
  3 10  1  0  0  0  0
  3 42  1  0  0  0  0
  5 11  1  0  0  0  0
  5 29  1  0  0  0  0
  5 35  1  6  0  0  0
  6 13  1  0  0  0  0
  6 39  1  0  0  0  0
  6 22  1  1  0  0  0
  7 15  1  0  0  0  0
  8  9  1  6  0  0  0
  8 17  1  0  0  0  0
 10 19  1  0  0  0  0
 11 12  1  1  0  0  0
 11 21  1  0  0  0  0
 12 44  1  0  0  0  0
 13 14  1  1  0  0  0
 13 23  1  0  0  0  0
 15 16  1  0  0  0  0
 17 18  1  6  0  0  0
 17 25  1  0  0  0  0
 19 20  1  6  0  0  0
 19 27  1  0  0  0  0
 21 22  1  1  0  0  0
 21 28  1  0  0  0  0
 23 24  1  6  0  0  0
 23 30  1  0  0  0  0
 25 26  1  6  0  0  0
 25 32  1  0  0  0  0
 27  2  1  6  0  0  0
 27 34  1  0  0  0  0
 28 29  1  0  0  0  0
 28 36  1  6  0  0  0
 30 31  1  1  0  0  0
 30 38  1  0  0  0  0
 32 33  1  0  0  0  0
 32 40  1  1  0  0  0
 34 35  1  1  0  0  0
 34 42  1  0  0  0  0
 36 37  1  0  0  0  0
 38 39  1  0  0  0  0
 38 45  1  1  0  0  0
 40 41  1  0  0  0  0
 42 43  1  1  0  0  0
 44 47  1  0  0  0  0
 45 46  1  0  0  0  0
 47 48  1  0  0  0  0
 48 49  1  0  0  0  0
 49  7  1  0  0  0  0
M  END
>  <CHROM.1>
-170.83927824,66.76734560,-170.48152753,-178.40096334,66.18385875,-98.81943382
-124.19251955,-174.30528883,175.93161624,148.23956128,-162.47064782,64.85198661
-72.77897692,-116.15575470,175.78904995,-64.90057842,42.95025530,6.05806304
-3.15492691,0.09115960,1.33677388,-0.42285496

>  <Name>
2bee_lig

>  <RI>
0

>  <Rbt.Current_Directory>
/home/itssahil/PROJECTS/Mol_Feturizer/New_Systems/rnas/2bee

>  <Rbt.Executable>
rbdock ($Id: //depot/dev/client3/rdock/2013.1/src/exe/rbdock.cxx#4 $)

>  <Rbt.Library>
libRbt.so (2013.1, Build901 2013/11/27)

>  <Rbt.Parameter_File>
/export/apps/rDock/src/rDock_2013.1_src/data/scripts/dock_solv.prm

>  <Rbt.Receptor>
prm/pocket_docking_7.prm

>  <SCORE>
-20.3584

>  <SCORE.INTER>
-10.4557

>  <SCORE.INTER.CONST>
1

>  <SCORE.INTER.POLAR>
-0.938083

>  <SCORE.INTER.ROT>
16

>  <SCORE.INTER.SOLV>
17.0223

>  <SCORE.INTER.VDW>
-23.7843

>  <SCORE.INTER.norm>
-0.213382

>  <SCORE.INTRA>
-9.90269

>  <SCORE.INTRA.DIHEDRAL>
-19.3775

>  <SCORE.INTRA.DIHEDRAL.0>
36.0842

>  <SCORE.INTRA.POLAR>
0

>  <SCORE.INTRA.POLAR.0>
0

>  <SCORE.INTRA.REPUL>
0

>  <SCORE.INTRA.REPUL.0>
0

>  <SCORE.INTRA.SOLV>
-3.68402

>  <SCORE.INTRA.SOLV.lig_0>
-126.444

>  <SCORE.INTRA.VDW>
1.62806

>  <SCORE.INTRA.VDW.0>
-7.40469

>  <SCORE.INTRA.norm>
-0.202096

>  <SCORE.RESTR>
0

>  <SCORE.RESTR.CAVITY>
0

>  <SCORE.RESTR.norm>
0

>  <SCORE.SYSTEM>
0

>  <SCORE.SYSTEM.CONST>
0

>  <SCORE.SYSTEM.DIHEDRAL>
0

>  <SCORE.SYSTEM.SOLV>
0

>  <SCORE.SYSTEM.norm>
0

>  <SCORE.heavy>
49

>  <SCORE.norm>
-0.415477

>  <RMSD>
4.189

$$$$
2bee_lig
 OpenBabel11021811423D
libRbt.so/2013.1/901 2013/11/27
 49 52  0  0  0  0  0  0  0  0999 V2000
   44.5222    9.3666   -7.8134 C   0  0  2  0  0  0  0  0  0  0  0  0
   43.7012    8.6393   -8.7184 O   0  0  0  0  0  0  0  0  0  0  0  0
   42.5249    4.4317   -9.2540 C   0  0  2  0  0  0  0  0  0  0  0  0
   42.6511    2.9553   -9.3915 N   0  0  0  0  0  0  0  0  0  0  0  0
   43.3227    6.5112   -5.2640 C   0  0  1  0  0  0  0  0  0  0  0  0
   40.6621    7.4031   -1.3974 C   0  0  1  0  0  0  0  0  0  0  0  0
   41.6752    0.8910   -1.9921 C   0  0  0  0  0  0  0  0  0  0  0  0
   45.7243   10.0387   -8.5830 C   0  0  2  0  0  0  0  0  0  0  0  0
   45.2201   10.8592   -9.6790 N   0  0  0  0  0  0  0  0  0  0  0  0
   43.4295    5.1449  -10.3589 C   0  0  0  0  0  0  0  0  0  0  0  0
   43.6955    6.5700   -3.8182 C   0  0  2  0  0  0  0  0  0  0  0  0
   44.3441    5.3362   -3.3417 O   0  0  0  0  0  0  0  0  0  0  0  0
   40.4530    8.7325   -0.4919 C   0  0  2  0  0  0  0  0  0  0  0  0
   41.7548    9.0437    0.1873 N   0  0  0  0  0  0  0  0  0  0  0  0
   41.6472   -0.3656   -2.6409 C   0  0  0  0  0  0  0  0  0  0  0  0
   40.4417   -0.8724   -3.1210 N   0  0  0  0  0  0  0  0  0  0  0  0
   46.7127    8.9064   -9.1055 C   0  0  1  0  0  0  0  0  0  0  0  0
   47.7933    9.5208   -9.7924 O   0  0  0  0  0  0  0  0  0  0  0  0
   43.3283    6.7713  -10.2322 C   0  0  2  0  0  0  0  0  0  0  0  0
   44.1250    7.4166  -11.2197 N   0  0  0  0  0  0  0  0  0  0  0  0
   42.3429    7.0054   -3.3084 C   0  0  2  0  0  0  0  0  0  0  0  0
   41.7408    7.7312   -2.3056 O   0  0  0  0  0  0  0  0  0  0  0  0
   39.3291    8.4414    0.5655 C   0  0  1  0  0  0  0  0  0  0  0  0
   38.0905    8.1625   -0.1759 O   0  0  0  0  0  0  0  0  0  0  0  0
   47.2142    8.0779   -7.8999 C   0  0  2  0  0  0  0  0  0  0  0  0
   48.1300    6.9970   -8.3459 O   0  0  0  0  0  0  0  0  0  0  0  0
   43.7947    7.2260   -8.7945 C   0  0  2  0  0  0  0  0  0  0  0  0
   41.3271    6.2143   -4.2727 C   0  0  2  0  0  0  0  0  0  0  0  0
   41.9555    6.2974   -5.4695 O   0  0  0  0  0  0  0  0  0  0  0  0
   39.7769    7.1708    1.4867 C   0  0  2  0  0  0  0  0  0  0  0  0
   41.0258    7.4624    2.2261 O   0  0  0  0  0  0  0  0  0  0  0  0
   46.0127    7.4214   -7.1415 C   0  0  2  0  0  0  0  0  0  0  0  0
   45.1616    8.5281   -6.7474 O   0  0  0  0  0  0  0  0  0  0  0  0
   42.8808    6.4979   -7.7518 C   0  0  2  0  0  0  0  0  0  0  0  0
   43.3623    6.9877   -6.5237 O   0  0  0  0  0  0  0  0  0  0  0  0
   39.8903    6.8192   -4.4861 C   0  0  0  0  0  0  0  0  0  0  0  0
   39.1659    6.0155   -5.4703 O   0  0  0  0  0  0  0  0  0  0  0  0
   40.0200    5.8896    0.5710 C   0  0  1  0  0  0  0  0  0  0  0  0
   41.0739    6.2690   -0.4483 O   0  0  0  0  0  0  0  0  0  0  0  0
   46.5796    6.6763   -6.0017 C   0  0  0  0  0  0  0  0  0  0  0  0
   46.2494    7.2667   -4.8452 O   0  0  0  0  0  0  0  0  0  0  0  0
   43.0233    4.9210   -7.8759 C   0  0  1  0  0  0  0  0  0  0  0  0
   42.1984    4.2839   -6.9485 O   0  0  0  0  0  0  0  0  0  0  0  0
   43.7417    3.9935   -3.3773 C   0  0  0  0  0  0  0  0  0  0  0  0
   40.4612    4.7511    1.5520 C   0  0  0  0  0  0  0  0  0  0  0  0
   39.4840    4.4768    2.5661 N   0  0  0  0  0  0  0  0  0  0  0  0
   44.7060    2.9910   -2.7416 C   0  0  0  0  0  0  0  0  0  0  0  0
   43.9926    1.7010   -2.6706 N   0  0  0  0  0  0  0  0  0  0  0  0
   43.0801    1.4457   -1.4691 C   0  0  0  0  0  0  0  0  0  0  0  0
  1  2  1  6  0  0  0
  1  8  1  0  0  0  0
  1 33  1  0  0  0  0
  3  4  1  1  0  0  0
  3 10  1  0  0  0  0
  3 42  1  0  0  0  0
  5 11  1  0  0  0  0
  5 29  1  0  0  0  0
  5 35  1  6  0  0  0
  6 13  1  0  0  0  0
  6 39  1  0  0  0  0
  6 22  1  6  0  0  0
  7 15  1  0  0  0  0
  8  9  1  6  0  0  0
  8 17  1  0  0  0  0
 10 19  1  0  0  0  0
 11 12  1  1  0  0  0
 11 21  1  0  0  0  0
 12 44  1  0  0  0  0
 13 14  1  1  0  0  0
 13 23  1  0  0  0  0
 15 16  1  0  0  0  0
 17 18  1  1  0  0  0
 17 25  1  0  0  0  0
 19 20  1  6  0  0  0
 19 27  1  0  0  0  0
 21 22  1  1  0  0  0
 21 28  1  0  0  0  0
 23 24  1  6  0  0  0
 23 30  1  0  0  0  0
 25 26  1  6  0  0  0
 25 32  1  0  0  0  0
 27  2  1  6  0  0  0
 27 34  1  0  0  0  0
 28 29  1  0  0  0  0
 28 36  1  6  0  0  0
 30 31  1  6  0  0  0
 30 38  1  0  0  0  0
 32 33  1  0  0  0  0
 32 40  1  1  0  0  0
 34 35  1  1  0  0  0
 34 42  1  0  0  0  0
 36 37  1  0  0  0  0
 38 39  1  0  0  0  0
 38 45  1  1  0  0  0
 40 41  1  0  0  0  0
 42 43  1  1  0  0  0
 44 47  1  0  0  0  0
 45 46  1  0  0  0  0
 47 48  1  0  0  0  0
 48 49  1  0  0  0  0
 49  7  1  0  0  0  0
M  END
>  <CHROM.1>
102.30884973,173.73501710,-179.26593086,-179.35381899,-59.16261399,-177.71151633
-129.20080048,-154.33545858,175.54730158,110.97762600,-156.59585107,58.72467873
173.89493524,-84.81640885,132.10368018,64.74499864,42.93646528,6.23220386
-4.72400599,0.02934374,1.10088965,0.22710030

>  <Name>
2bee_lig

>  <RI>
2.18182e+07

>  <Rbt.Current_Directory>
/home/itssahil/PROJECTS/Mol_Feturizer/New_Systems/rnas/2bee

>  <Rbt.Executable>
rbdock ($Id: //depot/dev/client3/rdock/2013.1/src/exe/rbdock.cxx#4 $)

>  <Rbt.Library>
libRbt.so (2013.1, Build901 2013/11/27)

>  <Rbt.Parameter_File>
/export/apps/rDock/src/rDock_2013.1_src/data/scripts/dock_solv.prm

>  <Rbt.Receptor>
prm/pocket_docking_3.prm

>  <SCORE>
-7.95003

>  <SCORE.INTER>
-7.43838

>  <SCORE.INTER.CONST>
1

>  <SCORE.INTER.POLAR>
-0.980164

>  <SCORE.INTER.ROT>
16

>  <SCORE.INTER.SOLV>
21.0979

>  <SCORE.INTER.VDW>
-22.991

>  <SCORE.INTER.norm>
-0.151804

>  <SCORE.INTRA>
-1.13281

>  <SCORE.INTRA.DIHEDRAL>
-14.3414

>  <SCORE.INTRA.DIHEDRAL.0>
36.0842

>  <SCORE.INTRA.POLAR>
0

>  <SCORE.INTRA.POLAR.0>
0

>  <SCORE.INTRA.REPUL>
0

>  <SCORE.INTRA.REPUL.0>
0

>  <SCORE.INTRA.SOLV>
-0.750787

>  <SCORE.INTRA.SOLV.lig_0>
-126.444

>  <SCORE.INTRA.VDW>
6.41329

>  <SCORE.INTRA.VDW.0>
-7.40469

>  <SCORE.INTRA.norm>
-0.0231185

>  <SCORE.RESTR>
0.621165

>  <SCORE.RESTR.CAVITY>
0.621165

>  <SCORE.RESTR.norm>
0.0126768

>  <SCORE.SYSTEM>
0

>  <SCORE.SYSTEM.CONST>
0

>  <SCORE.SYSTEM.DIHEDRAL>
0

>  <SCORE.SYSTEM.SOLV>
0

>  <SCORE.SYSTEM.norm>
0

>  <SCORE.heavy>
49

>  <SCORE.norm>
-0.162245

>  <RMSD>
4.355

$$$$
2bee_lig
 OpenBabel11021811423D
libRbt.so/2013.1/901 2013/11/27
 49 52  0  0  0  0  0  0  0  0999 V2000
   45.9633    4.5228   -7.6934 C   0  0  2  0  0  0  0  0  0  0  0  0
   45.9232    4.0268   -6.3613 O   0  0  0  0  0  0  0  0  0  0  0  0
   44.4151   -0.0497   -7.0553 C   0  0  2  0  0  0  0  0  0  0  0  0
   44.0089   -1.4533   -6.7724 N   0  0  0  0  0  0  0  0  0  0  0  0
   43.2598    3.7490   -4.5448 C   0  0  1  0  0  0  0  0  0  0  0  0
   40.2872    6.2444   -1.7619 C   0  0  1  0  0  0  0  0  0  0  0  0
   40.4160    0.2008   -0.9656 C   0  0  0  0  0  0  0  0  0  0  0  0
   46.5905    5.9702   -7.7205 C   0  0  2  0  0  0  0  0  0  0  0  0
   47.9002    5.9597   -7.0776 N   0  0  0  0  0  0  0  0  0  0  0  0
   45.9299    0.1642   -6.6001 C   0  0  0  0  0  0  0  0  0  0  0  0
   43.5461    4.6983   -3.4269 C   0  0  2  0  0  0  0  0  0  0  0  0
   44.3775    4.1029   -2.3665 O   0  0  0  0  0  0  0  0  0  0  0  0
   39.6740    7.7379   -1.9185 C   0  0  2  0  0  0  0  0  0  0  0  0
   40.7854    8.7234   -1.7029 N   0  0  0  0  0  0  0  0  0  0  0  0
   39.6303   -0.6389   -1.7892 C   0  0  0  0  0  0  0  0  0  0  0  0
   40.0494   -1.9408   -2.0541 N   0  0  0  0  0  0  0  0  0  0  0  0
   45.5960    6.9874   -7.0077 C   0  0  1  0  0  0  0  0  0  0  0  0
   46.1665    8.2875   -7.0411 O   0  0  0  0  0  0  0  0  0  0  0  0
   46.4105    1.7007   -6.8827 C   0  0  2  0  0  0  0  0  0  0  0  0
   47.7638    1.8991   -6.4882 N   0  0  0  0  0  0  0  0  0  0  0  0
   42.1150    5.1099   -3.1787 C   0  0  2  0  0  0  0  0  0  0  0  0
   41.3470    6.1668   -2.7451 O   0  0  0  0  0  0  0  0  0  0  0  0
   38.5460    7.9269   -0.8424 C   0  0  1  0  0  0  0  0  0  0  0  0
   37.4945    6.9405   -1.1308 O   0  0  0  0  0  0  0  0  0  0  0  0
   44.2325    6.9553   -7.7364 C   0  0  2  0  0  0  0  0  0  0  0  0
   43.2669    7.8817   -7.0919 O   0  0  0  0  0  0  0  0  0  0  0  0
   45.4776    2.7055   -6.1010 C   0  0  2  0  0  0  0  0  0  0  0  0
   41.3018    3.7470   -3.4405 C   0  0  2  0  0  0  0  0  0  0  0  0
   41.9629    3.2261   -4.5015 O   0  0  0  0  0  0  0  0  0  0  0  0
   39.1826    7.7090    0.6445 C   0  0  2  0  0  0  0  0  0  0  0  0
   40.2412    8.7057    0.9224 O   0  0  0  0  0  0  0  0  0  0  0  0
   43.6235    5.5137   -7.7079 C   0  0  2  0  0  0  0  0  0  0  0  0
   44.6184    4.6683   -8.3402 O   0  0  0  0  0  0  0  0  0  0  0  0
   44.0083    2.4525   -6.5802 C   0  0  2  0  0  0  0  0  0  0  0  0
   43.2759    3.4045   -5.8473 O   0  0  0  0  0  0  0  0  0  0  0  0
   39.7931    3.8596   -3.8730 C   0  0  0  0  0  0  0  0  0  0  0  0
   39.6991    4.6303   -5.1126 O   0  0  0  0  0  0  0  0  0  0  0  0
   39.8183    6.2523    0.7596 C   0  0  1  0  0  0  0  0  0  0  0  0
   40.8537    6.1344   -0.3393 O   0  0  0  0  0  0  0  0  0  0  0  0
   42.3452    5.5728   -8.4414 C   0  0  0  0  0  0  0  0  0  0  0  0
   41.7533    4.3707   -8.4485 O   0  0  0  0  0  0  0  0  0  0  0  0
   43.5571    0.9628   -6.2644 C   0  0  1  0  0  0  0  0  0  0  0  0
   42.2506    0.7472   -6.7036 O   0  0  0  0  0  0  0  0  0  0  0  0
   44.1232    2.8065   -1.7173 C   0  0  0  0  0  0  0  0  0  0  0  0
   40.4108    6.1669    2.2069 C   0  0  0  0  0  0  0  0  0  0  0  0
   41.6105    6.9375    2.3665 N   0  0  0  0  0  0  0  0  0  0  0  0
   42.8693    2.9148   -0.8483 C   0  0  0  0  0  0  0  0  0  0  0  0
   42.5161    1.5418   -0.4382 N   0  0  0  0  0  0  0  0  0  0  0  0
   41.8709    0.6215   -1.4765 C   0  0  0  0  0  0  0  0  0  0  0  0
  1  2  1  1  0  0  0
  1  8  1  0  0  0  0
  1 33  1  0  0  0  0
  3  4  1  1  0  0  0
  3 10  1  0  0  0  0
  3 42  1  0  0  0  0
  5 11  1  0  0  0  0
  5 29  1  0  0  0  0
  5 35  1  6  0  0  0
  6 13  1  0  0  0  0
  6 39  1  0  0  0  0
  6 22  1  6  0  0  0
  7 15  1  0  0  0  0
  8  9  1  1  0  0  0
  8 17  1  0  0  0  0
 10 19  1  0  0  0  0
 11 12  1  1  0  0  0
 11 21  1  0  0  0  0
 12 44  1  0  0  0  0
 13 14  1  1  0  0  0
 13 23  1  0  0  0  0
 15 16  1  0  0  0  0
 17 18  1  6  0  0  0
 17 25  1  0  0  0  0
 19 20  1  1  0  0  0
 19 27  1  0  0  0  0
 21 22  1  1  0  0  0
 21 28  1  0  0  0  0
 23 24  1  6  0  0  0
 23 30  1  0  0  0  0
 25 26  1  1  0  0  0
 25 32  1  0  0  0  0
 27  2  1  6  0  0  0
 27 34  1  0  0  0  0
 28 29  1  0  0  0  0
 28 36  1  6  0  0  0
 30 31  1  6  0  0  0
 30 38  1  0  0  0  0
 32 33  1  0  0  0  0
 32 40  1  6  0  0  0
 34 35  1  1  0  0  0
 34 42  1  0  0  0  0
 36 37  1  0  0  0  0
 38 39  1  0  0  0  0
 38 45  1  1  0  0  0
 40 41  1  0  0  0  0
 42 43  1  6  0  0  0
 44 47  1  0  0  0  0
 45 46  1  0  0  0  0
 47 48  1  0  0  0  0
 48 49  1  0  0  0  0
 49  7  1  0  0  0  0
M  END
>  <CHROM.1>
-175.91356961,109.91433501,-171.59898521,64.71272364,-49.67638488,-69.33399528
-130.20392505,59.23872990,58.78391957,-179.36693491,-48.11634963,-73.38967261
169.26927227,-75.00291975,-118.52234195,179.07023264,42.68901384,4.26003198
-4.07323342,-0.27437422,0.94724109,-0.03848996

>  <Name>
2bee_lig

>  <RI>
3.46266e+07

>  <Rbt.Current_Directory>
/home/itssahil/PROJECTS/Mol_Feturizer/New_Systems/rnas/2bee

>  <Rbt.Executable>
rbdock ($Id: //depot/dev/client3/rdock/2013.1/src/exe/rbdock.cxx#4 $)

>  <Rbt.Library>
libRbt.so (2013.1, Build901 2013/11/27)

>  <Rbt.Parameter_File>
/export/apps/rDock/src/rDock_2013.1_src/data/scripts/dock_solv.prm

>  <Rbt.Receptor>
prm/pocket_docking_4.prm

>  <SCORE>
-10.3649

>  <SCORE.INTER>
0.327819

>  <SCORE.INTER.CONST>
1

>  <SCORE.INTER.POLAR>
-0.931057

>  <SCORE.INTER.ROT>
16

>  <SCORE.INTER.SOLV>
9.18114

>  <SCORE.INTER.VDW>
-14.005

>  <SCORE.INTER.norm>
0.00669018

>  <SCORE.INTRA>
-10.6955

>  <SCORE.INTRA.DIHEDRAL>
-22.6051

>  <SCORE.INTRA.DIHEDRAL.0>
36.0842

>  <SCORE.INTRA.POLAR>
0

>  <SCORE.INTRA.POLAR.0>
0

>  <SCORE.INTRA.REPUL>
0

>  <SCORE.INTRA.REPUL.0>
0

>  <SCORE.INTRA.SOLV>
-0.458016

>  <SCORE.INTRA.SOLV.lig_0>
-126.444

>  <SCORE.INTRA.VDW>
0.836097

>  <SCORE.INTRA.VDW.0>
-7.40469

>  <SCORE.INTRA.norm>
-0.218275

>  <SCORE.RESTR>
0.00271316

>  <SCORE.RESTR.CAVITY>
0.00271316

>  <SCORE.RESTR.norm>
5.53706e-05

>  <SCORE.SYSTEM>
0

>  <SCORE.SYSTEM.CONST>
0

>  <SCORE.SYSTEM.DIHEDRAL>
0

>  <SCORE.SYSTEM.SOLV>
0

>  <SCORE.SYSTEM.norm>
0

>  <SCORE.heavy>
49

>  <SCORE.norm>
-0.211529

>  <RMSD>
4.437

$$$$
2bee_lig
 OpenBabel11021811423D
libRbt.so/2013.1/901 2013/11/27
 49 52  0  0  0  0  0  0  0  0999 V2000
   44.7493    2.3133   -8.6413 C   0  0  2  0  0  0  0  0  0  0  0  0
   45.2645    3.0135   -7.5160 O   0  0  0  0  0  0  0  0  0  0  0  0
   45.2186   -0.1751   -4.4820 C   0  0  2  0  0  0  0  0  0  0  0  0
   45.4513   -0.8717   -3.1876 N   0  0  0  0  0  0  0  0  0  0  0  0
   42.2197    3.2586   -4.8195 C   0  0  1  0  0  0  0  0  0  0  0  0
   42.4413    6.8750   -2.1974 C   0  0  1  0  0  0  0  0  0  0  0  0
   40.0927   -1.3855   -2.1504 C   0  0  0  0  0  0  0  0  0  0  0  0
   44.9208    3.1775   -9.9500 C   0  0  2  0  0  0  0  0  0  0  0  0
   46.3174    3.5667  -10.1127 N   0  0  0  0  0  0  0  0  0  0  0  0
   46.6129    0.3419   -5.0622 C   0  0  0  0  0  0  0  0  0  0  0  0
   41.5635    3.5054   -3.4999 C   0  0  2  0  0  0  0  0  0  0  0  0
   40.3918    2.6423   -3.2709 O   0  0  0  0  0  0  0  0  0  0  0  0
   42.8711    5.8770   -0.9931 C   0  0  2  0  0  0  0  0  0  0  0  0
   41.6478    5.5777   -0.1764 N   0  0  0  0  0  0  0  0  0  0  0  0
   40.2386   -2.2551   -1.0444 C   0  0  0  0  0  0  0  0  0  0  0  0
   39.4310   -3.3852   -0.9385 N   0  0  0  0  0  0  0  0  0  0  0  0
   43.9642    4.4466   -9.8708 C   0  0  1  0  0  0  0  0  0  0  0  0
   44.1219    5.2155  -11.0545 O   0  0  0  0  0  0  0  0  0  0  0  0
   46.3978    1.1260   -6.4801 C   0  0  2  0  0  0  0  0  0  0  0  0
   47.6372    1.5833   -7.0103 N   0  0  0  0  0  0  0  0  0  0  0  0
   41.4320    5.0018   -3.6492 C   0  0  2  0  0  0  0  0  0  0  0  0
   41.4044    6.1692   -2.9202 O   0  0  0  0  0  0  0  0  0  0  0  0
   43.9619    6.5936   -0.1197 C   0  0  1  0  0  0  0  0  0  0  0  0
   45.1261    6.8368   -0.9840 O   0  0  0  0  0  0  0  0  0  0  0  0
   42.5031    3.9685   -9.7042 C   0  0  2  0  0  0  0  0  0  0  0  0
   41.5760    5.1250   -9.6103 O   0  0  0  0  0  0  0  0  0  0  0  0
   45.4257    2.3519   -6.2717 C   0  0  2  0  0  0  0  0  0  0  0  0
   41.1178    5.1772   -5.2170 C   0  0  2  0  0  0  0  0  0  0  0  0
   41.9253    4.2415   -5.7706 O   0  0  0  0  0  0  0  0  0  0  0  0
   43.3474    7.9873    0.4667 C   0  0  2  0  0  0  0  0  0  0  0  0
   42.1749    7.7301    1.3329 O   0  0  0  0  0  0  0  0  0  0  0  0
   42.3471    3.1077   -8.4063 C   0  0  2  0  0  0  0  0  0  0  0  0
   43.2828    2.0104   -8.5633 O   0  0  0  0  0  0  0  0  0  0  0  0
   44.0793    1.7922   -5.7003 C   0  0  2  0  0  0  0  0  0  0  0  0
   43.2905    2.9508   -5.5772 O   0  0  0  0  0  0  0  0  0  0  0  0
   41.4968    6.5447   -5.8969 C   0  0  0  0  0  0  0  0  0  0  0  0
   42.9282    6.7923   -5.7257 O   0  0  0  0  0  0  0  0  0  0  0  0
   42.8912    8.9317   -0.7328 C   0  0  1  0  0  0  0  0  0  0  0  0
   41.8839    8.1509   -1.5510 O   0  0  0  0  0  0  0  0  0  0  0  0
   40.9374    2.6784   -8.3424 C   0  0  0  0  0  0  0  0  0  0  0  0
   40.7160    1.9613   -7.2324 O   0  0  0  0  0  0  0  0  0  0  0  0
   44.3128    1.0643   -4.3081 C   0  0  1  0  0  0  0  0  0  0  0  0
   43.1085    0.5627   -3.8138 O   0  0  0  0  0  0  0  0  0  0  0  0
   39.1601    2.6535   -4.0769 C   0  0  0  0  0  0  0  0  0  0  0  0
   42.3049   10.2163   -0.0551 C   0  0  0  0  0  0  0  0  0  0  0  0
   42.1574   11.3129   -0.9685 N   0  0  0  0  0  0  0  0  0  0  0  0
   38.1648    1.6509   -3.4912 C   0  0  0  0  0  0  0  0  0  0  0  0
   38.8168    0.3277   -3.5375 N   0  0  0  0  0  0  0  0  0  0  0  0
   38.7292   -0.5643   -2.2973 C   0  0  0  0  0  0  0  0  0  0  0  0
  1  2  1  1  0  0  0
  1  8  1  0  0  0  0
  1 33  1  0  0  0  0
  3  4  1  1  0  0  0
  3 10  1  0  0  0  0
  3 42  1  0  0  0  0
  5 11  1  0  0  0  0
  5 29  1  0  0  0  0
  5 35  1  1  0  0  0
  6 13  1  0  0  0  0
  6 39  1  0  0  0  0
  6 22  1  6  0  0  0
  7 15  1  0  0  0  0
  8  9  1  1  0  0  0
  8 17  1  0  0  0  0
 10 19  1  0  0  0  0
 11 12  1  6  0  0  0
 11 21  1  0  0  0  0
 12 44  1  0  0  0  0
 13 14  1  1  0  0  0
 13 23  1  0  0  0  0
 15 16  1  0  0  0  0
 17 18  1  6  0  0  0
 17 25  1  0  0  0  0
 19 20  1  1  0  0  0
 19 27  1  0  0  0  0
 21 22  1  1  0  0  0
 21 28  1  0  0  0  0
 23 24  1  6  0  0  0
 23 30  1  0  0  0  0
 25 26  1  1  0  0  0
 25 32  1  0  0  0  0
 27  2  1  6  0  0  0
 27 34  1  0  0  0  0
 28 29  1  0  0  0  0
 28 36  1  6  0  0  0
 30 31  1  1  0  0  0
 30 38  1  0  0  0  0
 32 33  1  0  0  0  0
 32 40  1  6  0  0  0
 34 35  1  1  0  0  0
 34 42  1  0  0  0  0
 36 37  1  0  0  0  0
 38 39  1  0  0  0  0
 38 45  1  1  0  0  0
 40 41  1  0  0  0  0
 42 43  1  6  0  0  0
 44 47  1  0  0  0  0
 45 46  1  0  0  0  0
 47 48  1  0  0  0  0
 48 49  1  0  0  0  0
 49  7  1  0  0  0  0
M  END
>  <CHROM.1>
-169.39769505,65.17830242,-64.87425600,66.19473516,-63.20839780,-177.97261747
70.56451440,58.81271137,57.91179713,-178.37327679,-157.15495480,165.07546880
-59.82486955,134.70028689,-144.78585537,178.55466550,42.67434357,3.65324383
-4.60766620,-1.10639480,1.13310338,0.49263055

>  <Name>
2bee_lig

>  <RI>
0

>  <Rbt.Current_Directory>
/home/itssahil/PROJECTS/Mol_Feturizer/New_Systems/rnas/2bee

>  <Rbt.Executable>
rbdock ($Id: //depot/dev/client3/rdock/2013.1/src/exe/rbdock.cxx#4 $)

>  <Rbt.Library>
libRbt.so (2013.1, Build901 2013/11/27)

>  <Rbt.Parameter_File>
/export/apps/rDock/src/rDock_2013.1_src/data/scripts/dock_solv.prm

>  <Rbt.Receptor>
prm/pocket_docking_6.prm

>  <SCORE>
-13.7004

>  <SCORE.INTER>
-0.285306

>  <SCORE.INTER.CONST>
1

>  <SCORE.INTER.POLAR>
-1.76439

>  <SCORE.INTER.ROT>
16

>  <SCORE.INTER.SOLV>
11.1662

>  <SCORE.INTER.VDW>
-12.2977

>  <SCORE.INTER.norm>
-0.00582258

>  <SCORE.INTRA>
-13.4412

>  <SCORE.INTRA.DIHEDRAL>
-24.462

>  <SCORE.INTRA.DIHEDRAL.0>
36.0842

>  <SCORE.INTRA.POLAR>
0

>  <SCORE.INTRA.POLAR.0>
0

>  <SCORE.INTRA.REPUL>
0.00563526

>  <SCORE.INTRA.REPUL.0>
0

>  <SCORE.INTRA.SOLV>
-0.749158

>  <SCORE.INTRA.SOLV.lig_0>
-126.444

>  <SCORE.INTRA.VDW>
-0.863827

>  <SCORE.INTRA.VDW.0>
-7.40469

>  <SCORE.INTRA.norm>
-0.274311

>  <SCORE.RESTR>
0.0261143

>  <SCORE.RESTR.CAVITY>
0.0261143

>  <SCORE.RESTR.norm>
0.000532944

>  <SCORE.SYSTEM>
0

>  <SCORE.SYSTEM.CONST>
0

>  <SCORE.SYSTEM.DIHEDRAL>
0

>  <SCORE.SYSTEM.SOLV>
0

>  <SCORE.SYSTEM.norm>
0

>  <SCORE.heavy>
49

>  <SCORE.norm>
-0.279601

>  <RMSD>
4.456

$$$$
2bee_lig
 OpenBabel11021811423D
libRbt.so/2013.1/901 2013/11/27
 49 52  0  0  0  0  0  0  0  0999 V2000
   46.3131    4.7353   -4.9733 C   0  0  2  0  0  0  0  0  0  0  0  0
   45.3598    3.9356   -5.6617 O   0  0  0  0  0  0  0  0  0  0  0  0
   44.0223   -0.2311   -5.1888 C   0  0  2  0  0  0  0  0  0  0  0  0
   43.5367   -1.4733   -4.5285 N   0  0  0  0  0  0  0  0  0  0  0  0
   42.1684    3.9809   -4.5558 C   0  0  1  0  0  0  0  0  0  0  0  0
   40.8286    8.3354   -3.0733 C   0  0  1  0  0  0  0  0  0  0  0  0
   40.0991    0.1034   -2.4760 C   0  0  0  0  0  0  0  0  0  0  0  0
   45.9748    6.2660   -5.1510 C   0  0  2  0  0  0  0  0  0  0  0  0
   44.6027    6.5270   -4.7294 N   0  0  0  0  0  0  0  0  0  0  0  0
   45.3718    0.2491   -4.4844 C   0  0  0  0  0  0  0  0  0  0  0  0
   42.2872    4.9782   -3.4495 C   0  0  2  0  0  0  0  0  0  0  0  0
   42.0336    4.3949   -2.1207 O   0  0  0  0  0  0  0  0  0  0  0  0
   42.2166    8.5686   -2.2670 C   0  0  2  0  0  0  0  0  0  0  0  0
   42.6816    7.2403   -1.7450 N   0  0  0  0  0  0  0  0  0  0  0  0
   40.9077   -1.0381   -2.6863 C   0  0  0  0  0  0  0  0  0  0  0  0
   40.3422   -2.3099   -2.6274 N   0  0  0  0  0  0  0  0  0  0  0  0
   46.2111    6.6838   -6.6681 C   0  0  1  0  0  0  0  0  0  0  0  0
   45.9087    8.0634   -6.8173 O   0  0  0  0  0  0  0  0  0  0  0  0
   45.9312    1.6214   -5.1739 C   0  0  2  0  0  0  0  0  0  0  0  0
   47.1399    2.0530   -4.5582 N   0  0  0  0  0  0  0  0  0  0  0  0
   41.3694    6.0145   -4.0515 C   0  0  2  0  0  0  0  0  0  0  0  0
   41.1494    7.3724   -4.1056 O   0  0  0  0  0  0  0  0  0  0  0  0
   41.9429    9.5661   -1.0854 C   0  0  1  0  0  0  0  0  0  0  0  0
   41.5088   10.8397   -1.6778 O   0  0  0  0  0  0  0  0  0  0  0  0
   47.6799    6.3879   -7.0507 C   0  0  2  0  0  0  0  0  0  0  0  0
   47.9401    6.7498   -8.4675 O   0  0  0  0  0  0  0  0  0  0  0  0
   44.8430    2.7591   -5.0611 C   0  0  2  0  0  0  0  0  0  0  0  0
   40.2413    5.1187   -4.7672 C   0  0  2  0  0  0  0  0  0  0  0  0
   40.9740    4.0990   -5.2746 O   0  0  0  0  0  0  0  0  0  0  0  0
   40.7973    8.9368   -0.1080 C   0  0  2  0  0  0  0  0  0  0  0  0
   41.2445    7.6541    0.4803 O   0  0  0  0  0  0  0  0  0  0  0  0
   48.0049    4.8682   -6.8646 C   0  0  2  0  0  0  0  0  0  0  0  0
   47.7199    4.5865   -5.4704 O   0  0  0  0  0  0  0  0  0  0  0  0
   43.5433    2.2375   -5.7619 C   0  0  2  0  0  0  0  0  0  0  0  0
   42.6607    3.3248   -5.6247 O   0  0  0  0  0  0  0  0  0  0  0  0
   39.4602    5.7467   -5.9802 C   0  0  0  0  0  0  0  0  0  0  0  0
   40.3763    5.9299   -7.1056 O   0  0  0  0  0  0  0  0  0  0  0  0
   39.4588    8.6746   -0.9318 C   0  0  1  0  0  0  0  0  0  0  0  0
   39.8186    7.7503   -2.0763 O   0  0  0  0  0  0  0  0  0  0  0  0
   49.4227    4.6844   -7.2274 C   0  0  0  0  0  0  0  0  0  0  0  0
   49.8467    3.4681   -6.8587 O   0  0  0  0  0  0  0  0  0  0  0  0
   43.0044    0.9230   -5.0521 C   0  0  1  0  0  0  0  0  0  0  0  0
   41.8522    0.4634   -5.6904 O   0  0  0  0  0  0  0  0  0  0  0  0
   42.9998    3.5997   -1.3454 C   0  0  0  0  0  0  0  0  0  0  0  0
   38.4493    8.0572    0.0943 C   0  0  0  0  0  0  0  0  0  0  0  0
   38.0079    9.0004    1.0813 N   0  0  0  0  0  0  0  0  0  0  0  0
   42.2438    2.5867   -0.4845 C   0  0  0  0  0  0  0  0  0  0  0  0
   41.9623    1.4222   -1.3464 N   0  0  0  0  0  0  0  0  0  0  0  0
   40.8127    1.5281   -2.3506 C   0  0  0  0  0  0  0  0  0  0  0  0
  1  2  1  6  0  0  0
  1  8  1  0  0  0  0
  1 33  1  0  0  0  0
  3  4  1  1  0  0  0
  3 10  1  0  0  0  0
  3 42  1  0  0  0  0
  5 11  1  0  0  0  0
  5 29  1  0  0  0  0
  5 35  1  6  0  0  0
  6 13  1  0  0  0  0
  6 39  1  0  0  0  0
  6 22  1  6  0  0  0
  7 15  1  0  0  0  0
  8  9  1  6  0  0  0
  8 17  1  0  0  0  0
 10 19  1  0  0  0  0
 11 12  1  1  0  0  0
 11 21  1  0  0  0  0
 12 44  1  0  0  0  0
 13 14  1  1  0  0  0
 13 23  1  0  0  0  0
 15 16  1  0  0  0  0
 17 18  1  1  0  0  0
 17 25  1  0  0  0  0
 19 20  1  1  0  0  0
 19 27  1  0  0  0  0
 21 22  1  1  0  0  0
 21 28  1  0  0  0  0
 23 24  1  6  0  0  0
 23 30  1  0  0  0  0
 25 26  1  6  0  0  0
 25 32  1  0  0  0  0
 27  2  1  6  0  0  0
 27 34  1  0  0  0  0
 28 29  1  0  0  0  0
 28 36  1  6  0  0  0
 30 31  1  6  0  0  0
 30 38  1  0  0  0  0
 32 33  1  0  0  0  0
 32 40  1  1  0  0  0
 34 35  1  1  0  0  0
 34 42  1  0  0  0  0
 36 37  1  0  0  0  0
 38 39  1  0  0  0  0
 38 45  1  1  0  0  0
 40 41  1  0  0  0  0
 42 43  1  6  0  0  0
 44 47  1  0  0  0  0
 45 46  1  0  0  0  0
 47 48  1  0  0  0  0
 48 49  1  0  0  0  0
 49  7  1  0  0  0  0
M  END
>  <CHROM.1>
-137.73114386,79.04379279,74.96696596,171.68919166,79.05338519,-149.52995285
-61.74765625,-77.13470553,67.22695967,168.42402376,-59.29478011,69.57821852
83.54990831,-77.69513123,-144.74321252,-49.29578128,43.13042877,4.65470764
-3.96391577,-0.62155864,0.60216052,0.09369248

>  <Name>
2bee_lig

>  <RI>
2.18182e+07

>  <Rbt.Current_Directory>
/home/itssahil/PROJECTS/Mol_Feturizer/New_Systems/rnas/2bee

>  <Rbt.Executable>
rbdock ($Id: //depot/dev/client3/rdock/2013.1/src/exe/rbdock.cxx#4 $)

>  <Rbt.Library>
libRbt.so (2013.1, Build901 2013/11/27)

>  <Rbt.Parameter_File>
/export/apps/rDock/src/rDock_2013.1_src/data/scripts/dock_solv.prm

>  <Rbt.Receptor>
prm/pocket_docking_3.prm

>  <SCORE>
-3.42963

>  <SCORE.INTER>
-1.39709

>  <SCORE.INTER.CONST>
1

>  <SCORE.INTER.POLAR>
-0.953127

>  <SCORE.INTER.ROT>
16

>  <SCORE.INTER.SOLV>
11.0415

>  <SCORE.INTER.VDW>
-15.7015

>  <SCORE.INTER.norm>
-0.0285121

>  <SCORE.INTRA>
-2.09832

>  <SCORE.INTRA.DIHEDRAL>
-10.9959

>  <SCORE.INTRA.DIHEDRAL.0>
36.0842

>  <SCORE.INTRA.POLAR>
0

>  <SCORE.INTRA.POLAR.0>
0

>  <SCORE.INTRA.REPUL>
0.0143015

>  <SCORE.INTRA.REPUL.0>
0

>  <SCORE.INTRA.SOLV>
8.73479

>  <SCORE.INTRA.SOLV.lig_0>
-126.444

>  <SCORE.INTRA.VDW>
-1.03929

>  <SCORE.INTRA.VDW.0>
-7.40469

>  <SCORE.INTRA.norm>
-0.0428229

>  <SCORE.RESTR>
0.0657907

>  <SCORE.RESTR.CAVITY>
0.0657907

>  <SCORE.RESTR.norm>
0.00134267

>  <SCORE.SYSTEM>
0

>  <SCORE.SYSTEM.CONST>
0

>  <SCORE.SYSTEM.DIHEDRAL>
0

>  <SCORE.SYSTEM.SOLV>
0

>  <SCORE.SYSTEM.norm>
0

>  <SCORE.heavy>
49

>  <SCORE.norm>
-0.0699924

>  <RMSD>
4.512

$$$$
2bee_lig
 OpenBabel11021811423D
libRbt.so/2013.1/901 2013/11/27
 49 52  0  0  0  0  0  0  0  0999 V2000
   45.6331    3.9019   -7.1698 C   0  0  2  0  0  0  0  0  0  0  0  0
   45.6817    2.4951   -6.9680 O   0  0  0  0  0  0  0  0  0  0  0  0
   44.8204   -0.4115   -3.7768 C   0  0  2  0  0  0  0  0  0  0  0  0
   44.6990   -0.9855   -2.4090 N   0  0  0  0  0  0  0  0  0  0  0  0
   41.9395    2.7968   -5.5421 C   0  0  1  0  0  0  0  0  0  0  0  0
   40.6610    5.8567   -2.5533 C   0  0  1  0  0  0  0  0  0  0  0  0
   37.9862   -3.4865   -7.5787 C   0  0  0  0  0  0  0  0  0  0  0  0
   46.1066    4.2626   -8.6309 C   0  0  2  0  0  0  0  0  0  0  0  0
   45.3194    3.5199   -9.6093 N   0  0  0  0  0  0  0  0  0  0  0  0
   46.3207    0.0797   -4.0127 C   0  0  0  0  0  0  0  0  0  0  0  0
   40.6361    2.7672   -4.8121 C   0  0  2  0  0  0  0  0  0  0  0  0
   39.5867    2.0330   -5.5400 O   0  0  0  0  0  0  0  0  0  0  0  0
   39.4328    6.2332   -1.5630 C   0  0  2  0  0  0  0  0  0  0  0  0
   38.4567    7.0767   -2.3303 N   0  0  0  0  0  0  0  0  0  0  0  0
   37.8415   -4.2437   -6.3927 C   0  0  0  0  0  0  0  0  0  0  0  0
   36.9429   -3.8317   -5.4112 N   0  0  0  0  0  0  0  0  0  0  0  0
   47.6608    3.9514   -8.7714 C   0  0  1  0  0  0  0  0  0  0  0  0
   48.0787    4.2834  -10.0876 O   0  0  0  0  0  0  0  0  0  0  0  0
   46.4921    0.7302   -5.5024 C   0  0  2  0  0  0  0  0  0  0  0  0
   47.8296    1.1632   -5.7258 N   0  0  0  0  0  0  0  0  0  0  0  0
   40.5418    4.2536   -4.5660 C   0  0  2  0  0  0  0  0  0  0  0  0
   40.0466    5.1793   -3.6755 O   0  0  0  0  0  0  0  0  0  0  0  0
   40.0092    7.0260   -0.3361 C   0  0  1  0  0  0  0  0  0  0  0  0
   40.9395    6.1306    0.3672 O   0  0  0  0  0  0  0  0  0  0  0  0
   48.4376    4.7698   -7.7141 C   0  0  2  0  0  0  0  0  0  0  0  0
   49.8950    4.4966   -7.8003 O   0  0  0  0  0  0  0  0  0  0  0  0
   45.5048    1.9500   -5.6705 C   0  0  2  0  0  0  0  0  0  0  0  0
   41.1718    4.8777   -5.9081 C   0  0  2  0  0  0  0  0  0  0  0  0
   42.1945    4.0262   -6.1593 O   0  0  0  0  0  0  0  0  0  0  0  0
   40.7608    8.3714   -0.8733 C   0  0  2  0  0  0  0  0  0  0  0  0
   39.8153    9.2635   -1.5815 O   0  0  0  0  0  0  0  0  0  0  0  0
   47.9550    4.4076   -6.2699 C   0  0  2  0  0  0  0  0  0  0  0  0
   46.5318    4.6884   -6.2632 O   0  0  0  0  0  0  0  0  0  0  0  0
   44.0528    1.4166   -5.4264 C   0  0  2  0  0  0  0  0  0  0  0  0
   43.2645    2.5656   -5.6220 O   0  0  0  0  0  0  0  0  0  0  0  0
   41.8051    6.3157   -5.8264 C   0  0  0  0  0  0  0  0  0  0  0  0
   42.9624    6.2870   -4.9324 O   0  0  0  0  0  0  0  0  0  0  0  0
   41.9333    7.9789   -1.8785 C   0  0  1  0  0  0  0  0  0  0  0  0
   41.3044    7.1774   -2.9990 O   0  0  0  0  0  0  0  0  0  0  0  0
   48.7279    5.2472   -5.3354 C   0  0  0  0  0  0  0  0  0  0  0  0
   48.6628    4.7481   -4.0936 O   0  0  0  0  0  0  0  0  0  0  0  0
   43.9062    0.8202   -3.9618 C   0  0  1  0  0  0  0  0  0  0  0  0
   42.6118    0.3405   -3.7596 O   0  0  0  0  0  0  0  0  0  0  0  0
   39.5573    0.5753   -5.7430 C   0  0  0  0  0  0  0  0  0  0  0  0
   42.5619    9.3372   -2.3399 C   0  0  0  0  0  0  0  0  0  0  0  0
   43.7856    9.1680   -3.0696 N   0  0  0  0  0  0  0  0  0  0  0  0
   38.1866    0.1692   -6.2864 C   0  0  0  0  0  0  0  0  0  0  0  0
   38.1433   -1.3059   -6.2719 N   0  0  0  0  0  0  0  0  0  0  0  0
   38.6943   -2.0564   -7.4862 C   0  0  0  0  0  0  0  0  0  0  0  0
  1  2  1  1  0  0  0
  1  8  1  0  0  0  0
  1 33  1  0  0  0  0
  3  4  1  1  0  0  0
  3 10  1  0  0  0  0
  3 42  1  0  0  0  0
  5 11  1  0  0  0  0
  5 29  1  0  0  0  0
  5 35  1  1  0  0  0
  6 13  1  0  0  0  0
  6 39  1  0  0  0  0
  6 22  1  6  0  0  0
  7 15  1  0  0  0  0
  8  9  1  6  0  0  0
  8 17  1  0  0  0  0
 10 19  1  0  0  0  0
 11 12  1  6  0  0  0
 11 21  1  0  0  0  0
 12 44  1  0  0  0  0
 13 14  1  6  0  0  0
 13 23  1  0  0  0  0
 15 16  1  0  0  0  0
 17 18  1  6  0  0  0
 17 25  1  0  0  0  0
 19 20  1  1  0  0  0
 19 27  1  0  0  0  0
 21 22  1  6  0  0  0
 21 28  1  0  0  0  0
 23 24  1  6  0  0  0
 23 30  1  0  0  0  0
 25 26  1  1  0  0  0
 25 32  1  0  0  0  0
 27  2  1  6  0  0  0
 27 34  1  0  0  0  0
 28 29  1  0  0  0  0
 28 36  1  1  0  0  0
 30 31  1  6  0  0  0
 30 38  1  0  0  0  0
 32 33  1  0  0  0  0
 32 40  1  1  0  0  0
 34 35  1  1  0  0  0
 34 42  1  0  0  0  0
 36 37  1  0  0  0  0
 38 39  1  0  0  0  0
 38 45  1  6  0  0  0
 40 41  1  0  0  0  0
 42 43  1  6  0  0  0
 44 47  1  0  0  0  0
 45 46  1  0  0  0  0
 47 48  1  0  0  0  0
 48 49  1  0  0  0  0
 49  7  1  0  0  0  0
M  END
>  <CHROM.1>
170.03079261,54.55571100,-154.23306543,70.32952419,70.21621361,168.54181911
94.56441888,-141.56842195,64.12655492,-162.43008360,-178.81847208,169.74257922
-171.45716989,-86.83874498,-154.60791232,-44.39712966,42.99352508,3.42582613
-5.02093693,-0.46391183,-0.36008359,-2.69773370

>  <Name>
2bee_lig

>  <RI>
3.46266e+07

>  <Rbt.Current_Directory>
/home/itssahil/PROJECTS/Mol_Feturizer/New_Systems/rnas/2bee

>  <Rbt.Executable>
rbdock ($Id: //depot/dev/client3/rdock/2013.1/src/exe/rbdock.cxx#4 $)

>  <Rbt.Library>
libRbt.so (2013.1, Build901 2013/11/27)

>  <Rbt.Parameter_File>
/export/apps/rDock/src/rDock_2013.1_src/data/scripts/dock_solv.prm

>  <Rbt.Receptor>
prm/pocket_docking_4.prm

>  <SCORE>
-0.54559

>  <SCORE.INTER>
7.68285

>  <SCORE.INTER.CONST>
1

>  <SCORE.INTER.POLAR>
-0.979796

>  <SCORE.INTER.ROT>
16

>  <SCORE.INTER.SOLV>
16.1409

>  <SCORE.INTER.VDW>
-11.2591

>  <SCORE.INTER.norm>
0.156793

>  <SCORE.INTRA>
-8.22844

>  <SCORE.INTRA.DIHEDRAL>
-17.9524

>  <SCORE.INTRA.DIHEDRAL.0>
36.0842

>  <SCORE.INTRA.POLAR>
0

>  <SCORE.INTRA.POLAR.0>
0

>  <SCORE.INTRA.REPUL>
0

>  <SCORE.INTRA.REPUL.0>
0

>  <SCORE.INTRA.SOLV>
0.545422

>  <SCORE.INTRA.SOLV.lig_0>
-126.444

>  <SCORE.INTRA.VDW>
0.475062

>  <SCORE.INTRA.VDW.0>
-7.40469

>  <SCORE.INTRA.norm>
-0.167927

>  <SCORE.RESTR>
0

>  <SCORE.RESTR.CAVITY>
0

>  <SCORE.RESTR.norm>
0

>  <SCORE.SYSTEM>
0

>  <SCORE.SYSTEM.CONST>
0

>  <SCORE.SYSTEM.DIHEDRAL>
0

>  <SCORE.SYSTEM.SOLV>
0

>  <SCORE.SYSTEM.norm>
0

>  <SCORE.heavy>
49

>  <SCORE.norm>
-0.0111345

>  <RMSD>
4.627

$$$$
2bee_lig
 OpenBabel11021811423D
libRbt.so/2013.1/901 2013/11/27
 49 52  0  0  0  0  0  0  0  0999 V2000
   42.2642    4.7049   -6.1223 C   0  0  2  0  0  0  0  0  0  0  0  0
   43.2066    3.6401   -6.1279 O   0  0  0  0  0  0  0  0  0  0  0  0
   44.9797    1.4841   -2.7246 C   0  0  2  0  0  0  0  0  0  0  0  0
   45.8608    1.2022   -1.5588 N   0  0  0  0  0  0  0  0  0  0  0  0
   41.1149    4.3062   -2.9869 C   0  0  1  0  0  0  0  0  0  0  0  0
   39.1566    6.9303    0.4107 C   0  0  1  0  0  0  0  0  0  0  0  0
   34.9135   -0.4937   -2.1399 C   0  0  0  0  0  0  0  0  0  0  0  0
   41.2300    4.5276   -7.3005 C   0  0  2  0  0  0  0  0  0  0  0  0
   40.6031    3.2125   -7.2217 N   0  0  0  0  0  0  0  0  0  0  0  0
   45.8803    1.8268   -3.9972 C   0  0  0  0  0  0  0  0  0  0  0  0
   40.1992    4.3399   -1.8067 C   0  0  2  0  0  0  0  0  0  0  0  0
   39.0344    3.4508   -1.9580 O   0  0  0  0  0  0  0  0  0  0  0  0
   39.3077    8.4668    0.9079 C   0  0  2  0  0  0  0  0  0  0  0  0
   40.7713    8.7917    0.9806 N   0  0  0  0  0  0  0  0  0  0  0  0
   34.3847   -1.8054   -2.1656 C   0  0  0  0  0  0  0  0  0  0  0  0
   34.4633   -2.6081   -1.0297 N   0  0  0  0  0  0  0  0  0  0  0  0
   41.9753    4.7391   -8.6903 C   0  0  1  0  0  0  0  0  0  0  0  0
   41.0360    4.5822   -9.7440 O   0  0  0  0  0  0  0  0  0  0  0  0
   44.9473    2.1563   -5.2982 C   0  0  2  0  0  0  0  0  0  0  0  0
   45.7417    2.4543   -6.4411 N   0  0  0  0  0  0  0  0  0  0  0  0
   40.0513    5.8409   -1.7453 C   0  0  2  0  0  0  0  0  0  0  0  0
   39.8393    6.8777   -0.8648 O   0  0  0  0  0  0  0  0  0  0  0  0
   38.6372    8.5995    2.3217 C   0  0  1  0  0  0  0  0  0  0  0  0
   37.2106    8.2816    2.1625 O   0  0  0  0  0  0  0  0  0  0  0  0
   42.6121    6.1481   -8.7130 C   0  0  2  0  0  0  0  0  0  0  0  0
   43.3331    6.3817   -9.9902 O   0  0  0  0  0  0  0  0  0  0  0  0
   43.9971    3.3758   -4.9802 C   0  0  2  0  0  0  0  0  0  0  0  0
   40.0530    6.2630   -3.2975 C   0  0  2  0  0  0  0  0  0  0  0  0
   40.9855    5.4275   -3.8136 O   0  0  0  0  0  0  0  0  0  0  0  0
   39.3689    7.5743    3.3596 C   0  0  2  0  0  0  0  0  0  0  0  0
   40.8046    7.9025    3.5098 O   0  0  0  0  0  0  0  0  0  0  0  0
   43.6311    6.3137   -7.5366 C   0  0  2  0  0  0  0  0  0  0  0  0
   42.8641    6.0632   -6.3311 O   0  0  0  0  0  0  0  0  0  0  0  0
   43.1414    2.9905   -3.7265 C   0  0  2  0  0  0  0  0  0  0  0  0
   42.3257    4.1232   -3.5491 O   0  0  0  0  0  0  0  0  0  0  0  0
   40.5157    7.7212   -3.6650 C   0  0  0  0  0  0  0  0  0  0  0  0
   40.5122    7.8803   -5.1190 O   0  0  0  0  0  0  0  0  0  0  0  0
   39.2465    6.0772    2.8277 C   0  0  1  0  0  0  0  0  0  0  0  0
   39.8668    6.0473    1.4464 O   0  0  0  0  0  0  0  0  0  0  0  0
   44.1670    7.6853   -7.6224 C   0  0  0  0  0  0  0  0  0  0  0  0
   45.0013    7.9269   -6.6021 O   0  0  0  0  0  0  0  0  0  0  0  0
   44.0710    2.7074   -2.4703 C   0  0  1  0  0  0  0  0  0  0  0  0
   43.2982    2.3569   -1.3629 O   0  0  0  0  0  0  0  0  0  0  0  0
   39.0983    1.9876   -2.1063 C   0  0  0  0  0  0  0  0  0  0  0  0
   39.9955    5.1951    3.8831 C   0  0  0  0  0  0  0  0  0  0  0  0
   39.5334    5.4137    5.2238 N   0  0  0  0  0  0  0  0  0  0  0  0
   37.8974    1.5106   -2.9245 C   0  0  0  0  0  0  0  0  0  0  0  0
   36.8340    1.1695   -1.9597 N   0  0  0  0  0  0  0  0  0  0  0  0
   36.4610   -0.3045   -1.7874 C   0  0  0  0  0  0  0  0  0  0  0  0
  1  2  1  6  0  0  0
  1  8  1  0  0  0  0
  1 33  1  0  0  0  0
  3  4  1  1  0  0  0
  3 10  1  0  0  0  0
  3 42  1  0  0  0  0
  5 11  1  0  0  0  0
  5 29  1  0  0  0  0
  5 35  1  1  0  0  0
  6 13  1  0  0  0  0
  6 39  1  0  0  0  0
  6 22  1  6  0  0  0
  7 15  1  0  0  0  0
  8  9  1  6  0  0  0
  8 17  1  0  0  0  0
 10 19  1  0  0  0  0
 11 12  1  6  0  0  0
 11 21  1  0  0  0  0
 12 44  1  0  0  0  0
 13 14  1  1  0  0  0
 13 23  1  0  0  0  0
 15 16  1  0  0  0  0
 17 18  1  6  0  0  0
 17 25  1  0  0  0  0
 19 20  1  6  0  0  0
 19 27  1  0  0  0  0
 21 22  1  6  0  0  0
 21 28  1  0  0  0  0
 23 24  1  6  0  0  0
 23 30  1  0  0  0  0
 25 26  1  6  0  0  0
 25 32  1  0  0  0  0
 27  2  1  6  0  0  0
 27 34  1  0  0  0  0
 28 29  1  0  0  0  0
 28 36  1  1  0  0  0
 30 31  1  6  0  0  0
 30 38  1  0  0  0  0
 32 33  1  0  0  0  0
 32 40  1  1  0  0  0
 34 35  1  1  0  0  0
 34 42  1  0  0  0  0
 36 37  1  0  0  0  0
 38 39  1  0  0  0  0
 38 45  1  1  0  0  0
 40 41  1  0  0  0  0
 42 43  1  1  0  0  0
 44 47  1  0  0  0  0
 45 46  1  0  0  0  0
 47 48  1  0  0  0  0
 48 49  1  0  0  0  0
 49  7  1  0  0  0  0
M  END
>  <CHROM.1>
-162.83308940,67.65395719,179.24164599,58.06390076,62.02642514,-150.86149324
-27.74984151,-179.41417405,177.04900083,176.87994922,154.19837676,52.94985297
-92.38020425,-110.49467132,-120.83586646,174.27641130,40.94731188,4.55285070
-2.88529821,-0.71734452,0.85716019,0.82070530

>  <Name>
2bee_lig

>  <RI>
0

>  <Rbt.Current_Directory>
/home/itssahil/PROJECTS/Mol_Feturizer/New_Systems/rnas/2bee

>  <Rbt.Executable>
rbdock ($Id: //depot/dev/client3/rdock/2013.1/src/exe/rbdock.cxx#4 $)

>  <Rbt.Library>
libRbt.so (2013.1, Build901 2013/11/27)

>  <Rbt.Parameter_File>
/export/apps/rDock/src/rDock_2013.1_src/data/scripts/dock_solv.prm

>  <Rbt.Receptor>
prm/pocket_docking_5.prm

>  <SCORE>
-11.9842

>  <SCORE.INTER>
-3.69549

>  <SCORE.INTER.CONST>
1

>  <SCORE.INTER.POLAR>
-0.938083

>  <SCORE.INTER.ROT>
16

>  <SCORE.INTER.SOLV>
15.2372

>  <SCORE.INTER.VDW>
-18.6825

>  <SCORE.INTER.norm>
-0.0754182

>  <SCORE.INTRA>
-8.30645

>  <SCORE.INTRA.DIHEDRAL>
-17.6712

>  <SCORE.INTRA.DIHEDRAL.0>
36.0842

>  <SCORE.INTRA.POLAR>
0

>  <SCORE.INTRA.POLAR.0>
0

>  <SCORE.INTRA.REPUL>
0

>  <SCORE.INTRA.REPUL.0>
0

>  <SCORE.INTRA.SOLV>
-3.25005

>  <SCORE.INTRA.SOLV.lig_0>
-126.444

>  <SCORE.INTRA.VDW>
2.15417

>  <SCORE.INTRA.VDW.0>
-7.40469

>  <SCORE.INTRA.norm>
-0.169519

>  <SCORE.RESTR>
0.0177148

>  <SCORE.RESTR.CAVITY>
0.0177148

>  <SCORE.RESTR.norm>
0.000361527

>  <SCORE.SYSTEM>
0

>  <SCORE.SYSTEM.CONST>
0

>  <SCORE.SYSTEM.DIHEDRAL>
0

>  <SCORE.SYSTEM.SOLV>
0

>  <SCORE.SYSTEM.norm>
0

>  <SCORE.heavy>
49

>  <SCORE.norm>
-0.244576

>  <RMSD>
4.683

$$$$
2bee_lig
 OpenBabel11021811423D
libRbt.so/2013.1/901 2013/11/27
 49 52  0  0  0  0  0  0  0  0999 V2000
   46.2640    5.6159   -6.8832 C   0  0  2  0  0  0  0  0  0  0  0  0
   46.0635    7.0061   -7.1053 O   0  0  0  0  0  0  0  0  0  0  0  0
   43.7580    9.2123  -10.1370 C   0  0  2  0  0  0  0  0  0  0  0  0
   43.3519    9.7420  -11.4672 N   0  0  0  0  0  0  0  0  0  0  0  0
   43.8044    4.8497   -7.6192 C   0  0  1  0  0  0  0  0  0  0  0  0
   42.0951    5.9787   -3.5677 C   0  0  1  0  0  0  0  0  0  0  0  0
   40.6394   -0.6841   -3.4908 C   0  0  0  0  0  0  0  0  0  0  0  0
   47.1500    5.3885   -5.5978 C   0  0  2  0  0  0  0  0  0  0  0  0
   46.5532    6.0674   -4.4526 N   0  0  0  0  0  0  0  0  0  0  0  0
   45.2724    9.6230   -9.8443 C   0  0  0  0  0  0  0  0  0  0  0  0
   43.8896    4.3603   -6.2100 C   0  0  2  0  0  0  0  0  0  0  0  0
   44.3560    2.9662   -6.1134 O   0  0  0  0  0  0  0  0  0  0  0  0
   43.6532    5.6434   -3.2658 C   0  0  2  0  0  0  0  0  0  0  0  0
   43.7759    4.1654   -3.0343 N   0  0  0  0  0  0  0  0  0  0  0  0
   39.5568   -0.4575   -4.3725 C   0  0  0  0  0  0  0  0  0  0  0  0
   38.8323   -1.5365   -4.8739 N   0  0  0  0  0  0  0  0  0  0  0  0
   48.6282    5.9052   -5.8803 C   0  0  1  0  0  0  0  0  0  0  0  0
   49.4191    5.6923   -4.7200 O   0  0  0  0  0  0  0  0  0  0  0  0
   45.7614    9.0470   -8.3950 C   0  0  2  0  0  0  0  0  0  0  0  0
   47.1086    9.4160   -8.1207 N   0  0  0  0  0  0  0  0  0  0  0  0
   42.4924    4.7614   -5.8028 C   0  0  2  0  0  0  0  0  0  0  0  0
   41.7507    5.1682   -4.7168 O   0  0  0  0  0  0  0  0  0  0  0  0
   44.0955    6.4453   -1.9901 C   0  0  1  0  0  0  0  0  0  0  0  0
   43.9611    7.8757   -2.3023 O   0  0  0  0  0  0  0  0  0  0  0  0
   49.2048    5.1463   -7.0980 C   0  0  2  0  0  0  0  0  0  0  0  0
   50.5815    5.6104   -7.4065 O   0  0  0  0  0  0  0  0  0  0  0  0
   45.6269    7.4746   -8.3710 C   0  0  2  0  0  0  0  0  0  0  0  0
   41.6390    4.4854   -7.1381 C   0  0  2  0  0  0  0  0  0  0  0  0
   42.4935    4.8946   -8.1059 O   0  0  0  0  0  0  0  0  0  0  0  0
   43.1500    6.0135   -0.7319 C   0  0  2  0  0  0  0  0  0  0  0  0
   43.2918    4.5715   -0.4286 O   0  0  0  0  0  0  0  0  0  0  0  0
   48.3143    5.3748   -8.3647 C   0  0  2  0  0  0  0  0  0  0  0  0
   46.9922    4.9113   -7.9885 O   0  0  0  0  0  0  0  0  0  0  0  0
   44.1288    7.1265   -8.6659 C   0  0  2  0  0  0  0  0  0  0  0  0
   44.1189    5.7211   -8.5976 O   0  0  0  0  0  0  0  0  0  0  0  0
   40.3113    5.3036   -7.3474 C   0  0  0  0  0  0  0  0  0  0  0  0
   39.5493    5.3210   -6.0990 O   0  0  0  0  0  0  0  0  0  0  0  0
   41.6211    6.3103   -1.0691 C   0  0  1  0  0  0  0  0  0  0  0  0
   41.2914    5.5451   -2.3337 O   0  0  0  0  0  0  0  0  0  0  0  0
   48.9224    4.6001   -9.4628 C   0  0  0  0  0  0  0  0  0  0  0  0
   50.0913    4.0735   -9.0732 O   0  0  0  0  0  0  0  0  0  0  0  0
   43.6904    7.6695  -10.0925 C   0  0  1  0  0  0  0  0  0  0  0  0
   42.3525    7.3611  -10.3399 O   0  0  0  0  0  0  0  0  0  0  0  0
   44.1811    2.0929   -4.9414 C   0  0  0  0  0  0  0  0  0  0  0  0
   40.8157    5.8409    0.1895 C   0  0  0  0  0  0  0  0  0  0  0  0
   40.2506    6.9317    0.9307 N   0  0  0  0  0  0  0  0  0  0  0  0
   43.0691    1.0825   -5.2267 C   0  0  0  0  0  0  0  0  0  0  0  0
   42.9566    0.2250   -4.0308 N   0  0  0  0  0  0  0  0  0  0  0  0
   42.0716   -1.0204   -4.1159 C   0  0  0  0  0  0  0  0  0  0  0  0
  1  2  1  6  0  0  0
  1  8  1  0  0  0  0
  1 33  1  0  0  0  0
  3  4  1  6  0  0  0
  3 10  1  0  0  0  0
  3 42  1  0  0  0  0
  5 11  1  0  0  0  0
  5 29  1  0  0  0  0
  5 35  1  1  0  0  0
  6 13  1  0  0  0  0
  6 39  1  0  0  0  0
  6 22  1  6  0  0  0
  7 15  1  0  0  0  0
  8  9  1  1  0  0  0
  8 17  1  0  0  0  0
 10 19  1  0  0  0  0
 11 12  1  6  0  0  0
 11 21  1  0  0  0  0
 12 44  1  0  0  0  0
 13 14  1  1  0  0  0
 13 23  1  0  0  0  0
 15 16  1  0  0  0  0
 17 18  1  1  0  0  0
 17 25  1  0  0  0  0
 19 20  1  6  0  0  0
 19 27  1  0  0  0  0
 21 22  1  1  0  0  0
 21 28  1  0  0  0  0
 23 24  1  6  0  0  0
 23 30  1  0  0  0  0
 25 26  1  6  0  0  0
 25 32  1  0  0  0  0
 27  2  1  1  0  0  0
 27 34  1  0  0  0  0
 28 29  1  0  0  0  0
 28 36  1  1  0  0  0
 30 31  1  6  0  0  0
 30 38  1  0  0  0  0
 32 33  1  0  0  0  0
 32 40  1  6  0  0  0
 34 35  1  6  0  0  0
 34 42  1  0  0  0  0
 36 37  1  0  0  0  0
 38 39  1  0  0  0  0
 38 45  1  1  0  0  0
 40 41  1  0  0  0  0
 42 43  1  1  0  0  0
 44 47  1  0  0  0  0
 45 46  1  0  0  0  0
 47 48  1  0  0  0  0
 48 49  1  0  0  0  0
 49  7  1  0  0  0  0
M  END
>  <CHROM.1>
162.56139433,-47.65925800,-33.17284553,84.36519294,-161.50565685,104.46783479
33.74354544,-169.35261152,-44.91481155,-6.31877850,96.47436301,110.16553309
179.06266547,-170.49269836,-97.54801276,103.36649011,44.15071813,5.18745133
-5.83591046,-0.87475295,-0.23425221,2.35409088

>  <Name>
2bee_lig

>  <RI>
3.71943e+07

>  <Rbt.Current_Directory>
/home/itssahil/PROJECTS/Mol_Feturizer/New_Systems/rnas/2bee

>  <Rbt.Executable>
rbdock ($Id: //depot/dev/client3/rdock/2013.1/src/exe/rbdock.cxx#4 $)

>  <Rbt.Library>
libRbt.so (2013.1, Build901 2013/11/27)

>  <Rbt.Parameter_File>
/export/apps/rDock/src/rDock_2013.1_src/data/scripts/dock_solv.prm

>  <Rbt.Receptor>
prm/pocket_docking_2.prm

>  <SCORE>
21.5823

>  <SCORE.INTER>
0.987032

>  <SCORE.INTER.CONST>
1

>  <SCORE.INTER.POLAR>
0

>  <SCORE.INTER.ROT>
16

>  <SCORE.INTER.SOLV>
23.957

>  <SCORE.INTER.VDW>
-21.5943

>  <SCORE.INTER.norm>
0.0201435

>  <SCORE.INTRA>
13.914

>  <SCORE.INTRA.DIHEDRAL>
4.88473

>  <SCORE.INTRA.DIHEDRAL.0>
36.0842

>  <SCORE.INTRA.POLAR>
0

>  <SCORE.INTRA.POLAR.0>
0

>  <SCORE.INTRA.REPUL>
0.0339653

>  <SCORE.INTRA.REPUL.0>
0

>  <SCORE.INTRA.SOLV>
2.98961

>  <SCORE.INTRA.SOLV.lig_0>
-126.444

>  <SCORE.INTRA.VDW>
9.80697

>  <SCORE.INTRA.VDW.0>
-7.40469

>  <SCORE.INTRA.norm>
0.283958

>  <SCORE.RESTR>
6.68131

>  <SCORE.RESTR.CAVITY>
6.68131

>  <SCORE.RESTR.norm>
0.136353

>  <SCORE.SYSTEM>
0

>  <SCORE.SYSTEM.CONST>
0

>  <SCORE.SYSTEM.DIHEDRAL>
0

>  <SCORE.SYSTEM.SOLV>
0

>  <SCORE.SYSTEM.norm>
0

>  <SCORE.heavy>
49

>  <SCORE.norm>
0.440455

>  <RMSD>
4.731

$$$$
2bee_lig
 OpenBabel11021811423D
libRbt.so/2013.1/901 2013/11/27
 49 52  0  0  0  0  0  0  0  0999 V2000
   47.3175    3.7661   -6.3472 C   0  0  2  0  0  0  0  0  0  0  0  0
   47.0038    5.1225   -6.0572 O   0  0  0  0  0  0  0  0  0  0  0  0
   45.0746    8.6060   -7.9326 C   0  0  2  0  0  0  0  0  0  0  0  0
   44.3470    9.4209   -8.9433 N   0  0  0  0  0  0  0  0  0  0  0  0
   43.6107    5.2320   -4.7195 C   0  0  1  0  0  0  0  0  0  0  0  0
   41.0379    7.3785   -1.2965 C   0  0  1  0  0  0  0  0  0  0  0  0
   41.9638   -1.5663   -4.3011 C   0  0  0  0  0  0  0  0  0  0  0  0
   47.8403    3.0353   -5.0504 C   0  0  2  0  0  0  0  0  0  0  0  0
   46.8689    3.1764   -3.9710 N   0  0  0  0  0  0  0  0  0  0  0  0
   46.3736    7.9667   -8.6047 C   0  0  0  0  0  0  0  0  0  0  0  0
   43.4342    5.3823   -3.2434 C   0  0  2  0  0  0  0  0  0  0  0  0
   43.3881    4.0908   -2.5361 O   0  0  0  0  0  0  0  0  0  0  0  0
   41.9799    8.4122   -0.4747 C   0  0  2  0  0  0  0  0  0  0  0  0
   43.3874    7.8920   -0.5133 N   0  0  0  0  0  0  0  0  0  0  0  0
   40.8074   -1.1542   -5.0037 C   0  0  0  0  0  0  0  0  0  0  0  0
   39.8433   -0.3807   -4.3611 N   0  0  0  0  0  0  0  0  0  0  0  0
   49.2578    3.6340   -4.6450 C   0  0  1  0  0  0  0  0  0  0  0  0
   49.7222    2.9672   -3.4802 O   0  0  0  0  0  0  0  0  0  0  0  0
   47.1947    7.0513   -7.5279 C   0  0  2  0  0  0  0  0  0  0  0  0
   48.3604    6.4838   -8.1157 N   0  0  0  0  0  0  0  0  0  0  0  0
   42.2361    6.2986   -3.3048 C   0  0  2  0  0  0  0  0  0  0  0  0
   41.6117    7.3194   -2.6243 O   0  0  0  0  0  0  0  0  0  0  0  0
   41.4567    8.4930    1.0037 C   0  0  1  0  0  0  0  0  0  0  0  0
   40.0859    9.0226    0.9558 O   0  0  0  0  0  0  0  0  0  0  0  0
   50.2402    3.4498   -5.8249 C   0  0  2  0  0  0  0  0  0  0  0  0
   51.5750    4.0105   -5.4937 O   0  0  0  0  0  0  0  0  0  0  0  0
   46.2621    5.9008   -6.9824 C   0  0  2  0  0  0  0  0  0  0  0  0
   41.4257    5.7407   -4.5774 C   0  0  2  0  0  0  0  0  0  0  0  0
   42.4277    5.4395   -5.4372 O   0  0  0  0  0  0  0  0  0  0  0  0
   41.5025    7.0038    1.6700 C   0  0  2  0  0  0  0  0  0  0  0  0
   42.8866    6.4803    1.7104 O   0  0  0  0  0  0  0  0  0  0  0  0
   49.7079    4.1738   -7.1064 C   0  0  2  0  0  0  0  0  0  0  0  0
   48.4065    3.5863   -7.3621 O   0  0  0  0  0  0  0  0  0  0  0  0
   45.0060    6.5794   -6.3388 C   0  0  2  0  0  0  0  0  0  0  0  0
   44.2655    5.4781   -5.8711 O   0  0  0  0  0  0  0  0  0  0  0  0
   40.4744    6.7353   -5.3401 C   0  0  0  0  0  0  0  0  0  0  0  0
   39.6362    5.9853   -6.2752 O   0  0  0  0  0  0  0  0  0  0  0  0
   40.6066    5.9964    0.8205 C   0  0  1  0  0  0  0  0  0  0  0  0
   41.1419    6.0164   -0.5961 O   0  0  0  0  0  0  0  0  0  0  0  0
   50.6898    3.9261   -8.1789 C   0  0  0  0  0  0  0  0  0  0  0  0
   50.1143    4.0619   -9.3813 O   0  0  0  0  0  0  0  0  0  0  0  0
   44.2101    7.4353   -7.4141 C   0  0  1  0  0  0  0  0  0  0  0  0
   43.0991    8.0415   -6.8271 O   0  0  0  0  0  0  0  0  0  0  0  0
   42.5566    2.9402   -2.9253 C   0  0  0  0  0  0  0  0  0  0  0  0
   40.7433    4.6095    1.5351 C   0  0  0  0  0  0  0  0  0  0  0  0
   39.9598    3.5805    0.9138 N   0  0  0  0  0  0  0  0  0  0  0  0
   43.2078    1.6527   -2.4183 C   0  0  0  0  0  0  0  0  0  0  0  0
   42.3890    0.5340   -2.9244 N   0  0  0  0  0  0  0  0  0  0  0  0
   43.0399   -0.4577   -3.8910 C   0  0  0  0  0  0  0  0  0  0  0  0
  1  2  1  1  0  0  0
  1  8  1  0  0  0  0
  1 33  1  0  0  0  0
  3  4  1  6  0  0  0
  3 10  1  0  0  0  0
  3 42  1  0  0  0  0
  5 11  1  0  0  0  0
  5 29  1  0  0  0  0
  5 35  1  6  0  0  0
  6 13  1  0  0  0  0
  6 39  1  0  0  0  0
  6 22  1  6  0  0  0
  7 15  1  0  0  0  0
  8  9  1  1  0  0  0
  8 17  1  0  0  0  0
 10 19  1  0  0  0  0
 11 12  1  1  0  0  0
 11 21  1  0  0  0  0
 12 44  1  0  0  0  0
 13 14  1  1  0  0  0
 13 23  1  0  0  0  0
 15 16  1  0  0  0  0
 17 18  1  1  0  0  0
 17 25  1  0  0  0  0
 19 20  1  6  0  0  0
 19 27  1  0  0  0  0
 21 22  1  1  0  0  0
 21 28  1  0  0  0  0
 23 24  1  6  0  0  0
 23 30  1  0  0  0  0
 25 26  1  1  0  0  0
 25 32  1  0  0  0  0
 27  2  1  1  0  0  0
 27 34  1  0  0  0  0
 28 29  1  0  0  0  0
 28 36  1  6  0  0  0
 30 31  1  6  0  0  0
 30 38  1  0  0  0  0
 32 33  1  0  0  0  0
 32 40  1  6  0  0  0
 34 35  1  6  0  0  0
 34 42  1  0  0  0  0
 36 37  1  0  0  0  0
 38 39  1  0  0  0  0
 38 45  1  1  0  0  0
 40 41  1  0  0  0  0
 42 43  1  1  0  0  0
 44 47  1  0  0  0  0
 45 46  1  0  0  0  0
 47 48  1  0  0  0  0
 48 49  1  0  0  0  0
 49  7  1  0  0  0  0
M  END
>  <CHROM.1>
-166.90520449,-31.70363008,113.38288156,-68.89445687,-48.61986052,154.04547947
-61.03790616,-114.12168692,-168.55664104,157.13181926,135.91459905,178.37383812
-175.77881337,116.85023518,-179.76326093,63.01431455,44.28504286,5.02610226
-4.19830128,-0.00364040,-0.71498229,2.98232085

>  <Name>
2bee_lig

>  <RI>
3.71943e+07

>  <Rbt.Current_Directory>
/home/itssahil/PROJECTS/Mol_Feturizer/New_Systems/rnas/2bee

>  <Rbt.Executable>
rbdock ($Id: //depot/dev/client3/rdock/2013.1/src/exe/rbdock.cxx#4 $)

>  <Rbt.Library>
libRbt.so (2013.1, Build901 2013/11/27)

>  <Rbt.Parameter_File>
/export/apps/rDock/src/rDock_2013.1_src/data/scripts/dock_solv.prm

>  <Rbt.Receptor>
prm/pocket_docking_2.prm

>  <SCORE>
15.4448

>  <SCORE.INTER>
8.25433

>  <SCORE.INTER.CONST>
1

>  <SCORE.INTER.POLAR>
0

>  <SCORE.INTER.ROT>
16

>  <SCORE.INTER.SOLV>
16.2107

>  <SCORE.INTER.VDW>
-14.1674

>  <SCORE.INTER.norm>
0.168456

>  <SCORE.INTRA>
1.70311

>  <SCORE.INTRA.DIHEDRAL>
0.15177

>  <SCORE.INTRA.DIHEDRAL.0>
36.0842

>  <SCORE.INTRA.POLAR>
0

>  <SCORE.INTRA.POLAR.0>
0

>  <SCORE.INTRA.REPUL>
0

>  <SCORE.INTRA.REPUL.0>
0

>  <SCORE.INTRA.SOLV>
2.97277

>  <SCORE.INTRA.SOLV.lig_0>
-126.444

>  <SCORE.INTRA.VDW>
0.140843

>  <SCORE.INTRA.VDW.0>
-7.40469

>  <SCORE.INTRA.norm>
0.0347574

>  <SCORE.RESTR>
5.48731

>  <SCORE.RESTR.CAVITY>
5.48731

>  <SCORE.RESTR.norm>
0.111986

>  <SCORE.SYSTEM>
0

>  <SCORE.SYSTEM.CONST>
0

>  <SCORE.SYSTEM.DIHEDRAL>
0

>  <SCORE.SYSTEM.SOLV>
0

>  <SCORE.SYSTEM.norm>
0

>  <SCORE.heavy>
49

>  <SCORE.norm>
0.315199

>  <RMSD>
4.843

$$$$
2bee_lig
 OpenBabel11021811423D
libRbt.so/2013.1/901 2013/11/27
 49 52  0  0  0  0  0  0  0  0999 V2000
   46.4359    4.8323   -7.5063 C   0  0  2  0  0  0  0  0  0  0  0  0
   46.6677    4.6630   -6.1136 O   0  0  0  0  0  0  0  0  0  0  0  0
   45.4299    0.4783   -5.5389 C   0  0  2  0  0  0  0  0  0  0  0  0
   45.0981   -0.7946   -4.8430 N   0  0  0  0  0  0  0  0  0  0  0  0
   43.9053    4.7244   -4.3147 C   0  0  1  0  0  0  0  0  0  0  0  0
   42.6434    9.0351   -2.5865 C   0  0  1  0  0  0  0  0  0  0  0  0
   40.6525    4.8387    2.3757 C   0  0  0  0  0  0  0  0  0  0  0  0
   47.2530    6.0667   -8.0518 C   0  0  2  0  0  0  0  0  0  0  0  0
   48.6666    5.9146   -7.7247 N   0  0  0  0  0  0  0  0  0  0  0  0
   46.9123    0.9233   -5.1486 C   0  0  0  0  0  0  0  0  0  0  0  0
   44.3615    5.7317   -3.3099 C   0  0  2  0  0  0  0  0  0  0  0  0
   44.5176    5.1653   -1.9589 O   0  0  0  0  0  0  0  0  0  0  0  0
   43.9385    9.2786   -1.6408 C   0  0  2  0  0  0  0  0  0  0  0  0
   44.4028    7.9445   -1.1332 N   0  0  0  0  0  0  0  0  0  0  0  0
   39.8553    5.3817    3.4103 C   0  0  0  0  0  0  0  0  0  0  0  0
   40.0338    6.7067    3.8016 N   0  0  0  0  0  0  0  0  0  0  0  0
   46.6512    7.4069   -7.4405 C   0  0  1  0  0  0  0  0  0  0  0  0
   47.3896    8.5123   -7.9405 O   0  0  0  0  0  0  0  0  0  0  0  0
   47.3105    2.3276   -5.8841 C   0  0  2  0  0  0  0  0  0  0  0  0
   48.6348    2.7284   -5.5492 N   0  0  0  0  0  0  0  0  0  0  0  0
   43.3127    6.7724   -3.6196 C   0  0  2  0  0  0  0  0  0  0  0  0
   43.0974    8.1320   -3.6229 O   0  0  0  0  0  0  0  0  0  0  0  0
   43.5157   10.2108   -0.4499 C   0  0  1  0  0  0  0  0  0  0  0  0
   43.0910   11.4947   -1.0270 O   0  0  0  0  0  0  0  0  0  0  0  0
   45.1571    7.5115   -7.8254 C   0  0  2  0  0  0  0  0  0  0  0  0
   44.5508    8.7439   -7.2603 O   0  0  0  0  0  0  0  0  0  0  0  0
   46.2924    3.4586   -5.4652 C   0  0  2  0  0  0  0  0  0  0  0  0
   42.0137    5.8823   -3.9481 C   0  0  2  0  0  0  0  0  0  0  0  0
   42.5502    4.8489   -4.6397 O   0  0  0  0  0  0  0  0  0  0  0  0
   42.3078    9.4984    0.3848 C   0  0  2  0  0  0  0  0  0  0  0  0
   42.7462    8.2062    0.9587 O   0  0  0  0  0  0  0  0  0  0  0  0
   44.3586    6.2789   -7.2841 C   0  0  2  0  0  0  0  0  0  0  0  0
   45.0087    5.1198   -7.8656 O   0  0  0  0  0  0  0  0  0  0  0  0
   44.8587    2.9722   -5.8656 C   0  0  2  0  0  0  0  0  0  0  0  0
   44.0455    4.0515   -5.4736 O   0  0  0  0  0  0  0  0  0  0  0  0
   40.9070    6.5067   -4.8760 C   0  0  0  0  0  0  0  0  0  0  0  0
   40.3859    7.7258   -4.2583 O   0  0  0  0  0  0  0  0  0  0  0  0
   41.0645    9.2285   -0.5746 C   0  0  1  0  0  0  0  0  0  0  0  0
   41.5666    8.3706   -1.7172 O   0  0  0  0  0  0  0  0  0  0  0  0
   42.9587    6.4506   -7.7159 C   0  0  0  0  0  0  0  0  0  0  0  0
   42.2694    5.3165   -7.5320 O   0  0  0  0  0  0  0  0  0  0  0  0
   44.4858    1.6245   -5.1125 C   0  0  1  0  0  0  0  0  0  0  0  0
   43.2109    1.1969   -5.4839 O   0  0  0  0  0  0  0  0  0  0  0  0
   43.4760    4.4315   -1.2217 C   0  0  0  0  0  0  0  0  0  0  0  0
   39.9868    8.5304    0.3223 C   0  0  0  0  0  0  0  0  0  0  0  0
   38.7940    8.1904   -0.3989 N   0  0  0  0  0  0  0  0  0  0  0  0
   42.3865    5.4097   -0.7801 C   0  0  0  0  0  0  0  0  0  0  0  0
   41.3717    4.6183   -0.0577 N   0  0  0  0  0  0  0  0  0  0  0  0
   40.4153    5.3557    0.8819 C   0  0  0  0  0  0  0  0  0  0  0  0
  1  2  1  1  0  0  0
  1  8  1  0  0  0  0
  1 33  1  0  0  0  0
  3  4  1  1  0  0  0
  3 10  1  0  0  0  0
  3 42  1  0  0  0  0
  5 11  1  0  0  0  0
  5 29  1  0  0  0  0
  5 35  1  6  0  0  0
  6 13  1  0  0  0  0
  6 39  1  0  0  0  0
  6 22  1  6  0  0  0
  7 15  1  0  0  0  0
  8  9  1  1  0  0  0
  8 17  1  0  0  0  0
 10 19  1  0  0  0  0
 11 12  1  1  0  0  0
 11 21  1  0  0  0  0
 12 44  1  0  0  0  0
 13 14  1  1  0  0  0
 13 23  1  0  0  0  0
 15 16  1  0  0  0  0
 17 18  1  6  0  0  0
 17 25  1  0  0  0  0
 19 20  1  1  0  0  0
 19 27  1  0  0  0  0
 21 22  1  1  0  0  0
 21 28  1  0  0  0  0
 23 24  1  6  0  0  0
 23 30  1  0  0  0  0
 25 26  1  1  0  0  0
 25 32  1  0  0  0  0
 27  2  1  6  0  0  0
 27 34  1  0  0  0  0
 28 29  1  0  0  0  0
 28 36  1  6  0  0  0
 30 31  1  6  0  0  0
 30 38  1  0  0  0  0
 32 33  1  0  0  0  0
 32 40  1  6  0  0  0
 34 35  1  1  0  0  0
 34 42  1  0  0  0  0
 36 37  1  0  0  0  0
 38 39  1  0  0  0  0
 38 45  1  1  0  0  0
 40 41  1  0  0  0  0
 42 43  1  6  0  0  0
 44 47  1  0  0  0  0
 45 46  1  0  0  0  0
 47 48  1  0  0  0  0
 48 49  1  0  0  0  0
 49  7  1  0  0  0  0
M  END
>  <CHROM.1>
-165.67116891,77.32601514,77.94545711,-69.80945557,-54.24876244,-71.36832881
-87.11312200,73.71671590,-60.07884427,167.39351477,-52.91939283,-178.93208300
179.64519389,160.30750588,-116.76167447,-179.24289212,43.66910987,5.90167716
-3.65798023,-0.19877676,1.01750615,-0.21466403

>  <Name>
2bee_lig

>  <RI>
3.46266e+07

>  <Rbt.Current_Directory>
/home/itssahil/PROJECTS/Mol_Feturizer/New_Systems/rnas/2bee

>  <Rbt.Executable>
rbdock ($Id: //depot/dev/client3/rdock/2013.1/src/exe/rbdock.cxx#4 $)

>  <Rbt.Library>
libRbt.so (2013.1, Build901 2013/11/27)

>  <Rbt.Parameter_File>
/export/apps/rDock/src/rDock_2013.1_src/data/scripts/dock_solv.prm

>  <Rbt.Receptor>
prm/pocket_docking_4.prm

>  <SCORE>
-22.0532

>  <SCORE.INTER>
-10.02

>  <SCORE.INTER.CONST>
1

>  <SCORE.INTER.POLAR>
-2.16323

>  <SCORE.INTER.ROT>
16

>  <SCORE.INTER.SOLV>
15.4882

>  <SCORE.INTER.VDW>
-18.8986

>  <SCORE.INTER.norm>
-0.204489

>  <SCORE.INTRA>
-12.0333

>  <SCORE.INTRA.DIHEDRAL>
-23.2796

>  <SCORE.INTRA.DIHEDRAL.0>
36.0842

>  <SCORE.INTRA.POLAR>
0

>  <SCORE.INTRA.POLAR.0>
0

>  <SCORE.INTRA.REPUL>
0

>  <SCORE.INTRA.REPUL.0>
0

>  <SCORE.INTRA.SOLV>
4.76133

>  <SCORE.INTRA.SOLV.lig_0>
-126.444

>  <SCORE.INTRA.VDW>
-2.77412

>  <SCORE.INTRA.VDW.0>
-7.40469

>  <SCORE.INTRA.norm>
-0.245577

>  <SCORE.RESTR>
0

>  <SCORE.RESTR.CAVITY>
0

>  <SCORE.RESTR.norm>
0

>  <SCORE.SYSTEM>
0

>  <SCORE.SYSTEM.CONST>
0

>  <SCORE.SYSTEM.DIHEDRAL>
0

>  <SCORE.SYSTEM.SOLV>
0

>  <SCORE.SYSTEM.norm>
0

>  <SCORE.heavy>
49

>  <SCORE.norm>
-0.450066

>  <RMSD>
4.919

$$$$
2bee_lig
 OpenBabel11021811423D
libRbt.so/2013.1/901 2013/11/27
 49 52  0  0  0  0  0  0  0  0999 V2000
   47.6953    5.2063   -5.1957 C   0  0  2  0  0  0  0  0  0  0  0  0
   47.2833    5.6888   -6.4683 O   0  0  0  0  0  0  0  0  0  0  0  0
   43.7372    5.6575   -9.0758 C   0  0  2  0  0  0  0  0  0  0  0  0
   42.4374    5.2243   -9.6567 N   0  0  0  0  0  0  0  0  0  0  0  0
   44.4557    6.1767   -4.5432 C   0  0  1  0  0  0  0  0  0  0  0  0
   42.1069    8.4912   -1.5284 C   0  0  1  0  0  0  0  0  0  0  0  0
   40.8140    1.2106   -5.5929 C   0  0  0  0  0  0  0  0  0  0  0  0
   49.2676    5.0900   -5.1365 C   0  0  2  0  0  0  0  0  0  0  0  0
   49.8770    6.3690   -5.4847 N   0  0  0  0  0  0  0  0  0  0  0  0
   44.7753    4.4467   -9.1410 C   0  0  0  0  0  0  0  0  0  0  0  0
   44.3811    5.9507   -3.0680 C   0  0  2  0  0  0  0  0  0  0  0  0
   44.7494    4.5787   -2.6778 O   0  0  0  0  0  0  0  0  0  0  0  0
   43.3399    8.6594   -0.4880 C   0  0  2  0  0  0  0  0  0  0  0  0
   43.1610    7.6555    0.6135 N   0  0  0  0  0  0  0  0  0  0  0  0
   39.4356    1.2733   -5.9041 C   0  0  0  0  0  0  0  0  0  0  0  0
   38.8804    0.3497   -6.7870 N   0  0  0  0  0  0  0  0  0  0  0  0
   49.7457    3.9280   -6.1129 C   0  0  1  0  0  0  0  0  0  0  0  0
   51.1609    3.8277   -6.0495 O   0  0  0  0  0  0  0  0  0  0  0  0
   46.2146    4.8794   -8.4988 C   0  0  2  0  0  0  0  0  0  0  0  0
   47.1504    3.8085   -8.5606 N   0  0  0  0  0  0  0  0  0  0  0  0
   42.9801    6.4813   -2.8823 C   0  0  2  0  0  0  0  0  0  0  0  0
   42.1688    7.1129   -1.9670 O   0  0  0  0  0  0  0  0  0  0  0  0
   43.3124   10.1223    0.0823 C   0  0  1  0  0  0  0  0  0  0  0  0
   43.5081   11.0388   -1.0506 O   0  0  0  0  0  0  0  0  0  0  0  0
   49.0708    2.6026   -5.6895 C   0  0  2  0  0  0  0  0  0  0  0  0
   49.4788    1.4916   -6.5869 O   0  0  0  0  0  0  0  0  0  0  0  0
   46.0183    5.3260   -6.9977 C   0  0  2  0  0  0  0  0  0  0  0  0
   42.2369    6.0033   -4.2265 C   0  0  2  0  0  0  0  0  0  0  0  0
   43.2000    6.1897   -5.1601 O   0  0  0  0  0  0  0  0  0  0  0  0
   41.8819   10.3809    0.8241 C   0  0  2  0  0  0  0  0  0  0  0  0
   41.6951    9.4512    1.9608 O   0  0  0  0  0  0  0  0  0  0  0  0
   47.5121    2.7325   -5.7465 C   0  0  2  0  0  0  0  0  0  0  0  0
   47.1899    3.8350   -4.8605 O   0  0  0  0  0  0  0  0  0  0  0  0
   44.9924    6.5092   -6.9898 C   0  0  2  0  0  0  0  0  0  0  0  0
   44.9118    6.8391   -5.6242 O   0  0  0  0  0  0  0  0  0  0  0  0
   40.9873    6.8272   -4.7115 C   0  0  0  0  0  0  0  0  0  0  0  0
   39.9704    6.8320   -3.6601 O   0  0  0  0  0  0  0  0  0  0  0  0
   40.6848   10.1661   -0.2055 C   0  0  1  0  0  0  0  0  0  0  0  0
   40.8138    8.7568   -0.7447 O   0  0  0  0  0  0  0  0  0  0  0  0
   46.9568    1.4386   -5.3069 C   0  0  0  0  0  0  0  0  0  0  0  0
   45.6175    1.4731   -5.3253 O   0  0  0  0  0  0  0  0  0  0  0  0
   43.5944    6.0521   -7.5889 C   0  0  1  0  0  0  0  0  0  0  0  0
   42.6923    7.1163   -7.5845 O   0  0  0  0  0  0  0  0  0  0  0  0
   43.8498    3.4144   -2.7215 C   0  0  0  0  0  0  0  0  0  0  0  0
   39.3753   10.4180    0.6161 C   0  0  0  0  0  0  0  0  0  0  0  0
   39.1523    9.4281    1.6304 N   0  0  0  0  0  0  0  0  0  0  0  0
   43.6519    2.9841   -4.1757 C   0  0  0  0  0  0  0  0  0  0  0  0
   42.8403    1.7517   -4.1479 N   0  0  0  0  0  0  0  0  0  0  0  0
   41.3187    1.8870   -4.2355 C   0  0  0  0  0  0  0  0  0  0  0  0
  1  2  1  6  0  0  0
  1  8  1  0  0  0  0
  1 33  1  0  0  0  0
  3  4  1  1  0  0  0
  3 10  1  0  0  0  0
  3 42  1  0  0  0  0
  5 11  1  0  0  0  0
  5 29  1  0  0  0  0
  5 35  1  1  0  0  0
  6 13  1  0  0  0  0
  6 39  1  0  0  0  0
  6 22  1  1  0  0  0
  7 15  1  0  0  0  0
  8  9  1  6  0  0  0
  8 17  1  0  0  0  0
 10 19  1  0  0  0  0
 11 12  1  6  0  0  0
 11 21  1  0  0  0  0
 12 44  1  0  0  0  0
 13 14  1  1  0  0  0
 13 23  1  0  0  0  0
 15 16  1  0  0  0  0
 17 18  1  1  0  0  0
 17 25  1  0  0  0  0
 19 20  1  1  0  0  0
 19 27  1  0  0  0  0
 21 22  1  1  0  0  0
 21 28  1  0  0  0  0
 23 24  1  6  0  0  0
 23 30  1  0  0  0  0
 25 26  1  6  0  0  0
 25 32  1  0  0  0  0
 27  2  1  6  0  0  0
 27 34  1  0  0  0  0
 28 29  1  0  0  0  0
 28 36  1  6  0  0  0
 30 31  1  1  0  0  0
 30 38  1  0  0  0  0
 32 33  1  0  0  0  0
 32 40  1  1  0  0  0
 34 35  1  1  0  0  0
 34 42  1  0  0  0  0
 36 37  1  0  0  0  0
 38 39  1  0  0  0  0
 38 45  1  1  0  0  0
 40 41  1  0  0  0  0
 42 43  1  6  0  0  0
 44 47  1  0  0  0  0
 45 46  1  0  0  0  0
 47 48  1  0  0  0  0
 48 49  1  0  0  0  0
 49  7  1  0  0  0  0
M  END
>  <CHROM.1>
151.09406261,160.25933974,-78.27731397,-158.09862523,-82.08489081,74.04803010
75.79561855,-133.08753550,-58.42299411,179.82439612,-65.50779898,-66.67683840
175.28007907,91.50981680,115.39239249,-177.34690738,44.12677842,5.57084387
-4.32039609,-0.96805173,0.12619859,0.76912126

>  <Name>
2bee_lig

>  <RI>
2.18182e+07

>  <Rbt.Current_Directory>
/home/itssahil/PROJECTS/Mol_Feturizer/New_Systems/rnas/2bee

>  <Rbt.Executable>
rbdock ($Id: //depot/dev/client3/rdock/2013.1/src/exe/rbdock.cxx#4 $)

>  <Rbt.Library>
libRbt.so (2013.1, Build901 2013/11/27)

>  <Rbt.Parameter_File>
/export/apps/rDock/src/rDock_2013.1_src/data/scripts/dock_solv.prm

>  <Rbt.Receptor>
prm/pocket_docking_3.prm

>  <SCORE>
3.62161

>  <SCORE.INTER>
3.35513

>  <SCORE.INTER.CONST>
1

>  <SCORE.INTER.POLAR>
-0.714001

>  <SCORE.INTER.ROT>
16

>  <SCORE.INTER.SOLV>
12.5604

>  <SCORE.INTER.VDW>
-13.8367

>  <SCORE.INTER.norm>
0.0684721

>  <SCORE.INTRA>
-0.233557

>  <SCORE.INTRA.DIHEDRAL>
-11.0172

>  <SCORE.INTRA.DIHEDRAL.0>
36.0842

>  <SCORE.INTRA.POLAR>
0

>  <SCORE.INTRA.POLAR.0>
0

>  <SCORE.INTRA.REPUL>
0.0122952

>  <SCORE.INTRA.REPUL.0>
0

>  <SCORE.INTRA.SOLV>
2.69517

>  <SCORE.INTRA.SOLV.lig_0>
-126.444

>  <SCORE.INTRA.VDW>
3.86599

>  <SCORE.INTRA.VDW.0>
-7.40469

>  <SCORE.INTRA.norm>
-0.00476647

>  <SCORE.RESTR>
0.500037

>  <SCORE.RESTR.CAVITY>
0.500037

>  <SCORE.RESTR.norm>
0.0102048

>  <SCORE.SYSTEM>
0

>  <SCORE.SYSTEM.CONST>
0

>  <SCORE.SYSTEM.DIHEDRAL>
0

>  <SCORE.SYSTEM.SOLV>
0

>  <SCORE.SYSTEM.norm>
0

>  <SCORE.heavy>
49

>  <SCORE.norm>
0.0739104

>  <RMSD>
5.009

$$$$
2bee_lig
 OpenBabel11021811423D
libRbt.so/2013.1/901 2013/11/27
 49 52  0  0  0  0  0  0  0  0999 V2000
   47.9280    4.6364   -5.4835 C   0  0  2  0  0  0  0  0  0  0  0  0
   47.5566    3.8982   -6.6408 O   0  0  0  0  0  0  0  0  0  0  0  0
   44.0847    1.2972   -7.3855 C   0  0  2  0  0  0  0  0  0  0  0  0
   43.1889    0.1113   -7.3086 N   0  0  0  0  0  0  0  0  0  0  0  0
   44.6062    4.2335   -3.8736 C   0  0  1  0  0  0  0  0  0  0  0  0
   43.5140    8.3744   -1.7458 C   0  0  1  0  0  0  0  0  0  0  0  0
   42.6346   -2.2404   -3.0017 C   0  0  0  0  0  0  0  0  0  0  0  0
   48.8083    5.8818   -5.8871 C   0  0  2  0  0  0  0  0  0  0  0  0
   48.1056    6.6911   -6.8770 N   0  0  0  0  0  0  0  0  0  0  0  0
   45.5348    0.8341   -7.8656 C   0  0  0  0  0  0  0  0  0  0  0  0
   44.3241    4.5610   -2.4433 C   0  0  2  0  0  0  0  0  0  0  0  0
   43.2288    3.7563   -1.8751 O   0  0  0  0  0  0  0  0  0  0  0  0
   44.1073    9.1137   -0.4296 C   0  0  2  0  0  0  0  0  0  0  0  0
   44.1391    8.1158    0.6913 N   0  0  0  0  0  0  0  0  0  0  0  0
   41.2614   -2.0370   -2.7303 C   0  0  0  0  0  0  0  0  0  0  0  0
   40.4700   -3.1055   -2.3146 N   0  0  0  0  0  0  0  0  0  0  0  0
   50.2142    5.3764   -6.4349 C   0  0  1  0  0  0  0  0  0  0  0  0
   51.0010    6.5039   -6.7910 O   0  0  0  0  0  0  0  0  0  0  0  0
   46.5541    2.1091   -7.9500 C   0  0  2  0  0  0  0  0  0  0  0  0
   47.8482    1.7075   -8.3862 N   0  0  0  0  0  0  0  0  0  0  0  0
   44.2006    6.0541   -2.6289 C   0  0  2  0  0  0  0  0  0  0  0  0
   44.3970    7.2508   -1.9776 O   0  0  0  0  0  0  0  0  0  0  0  0
   43.1692   10.3215   -0.0730 C   0  0  1  0  0  0  0  0  0  0  0  0
   43.2049   11.2550   -1.2084 O   0  0  0  0  0  0  0  0  0  0  0  0
   50.9086    4.5320   -5.3412 C   0  0  2  0  0  0  0  0  0  0  0  0
   52.2211    4.0260   -5.8180 O   0  0  0  0  0  0  0  0  0  0  0  0
   46.6625    2.8020   -6.5360 C   0  0  2  0  0  0  0  0  0  0  0  0
   43.4935    6.1769   -4.0685 C   0  0  2  0  0  0  0  0  0  0  0  0
   44.1018    5.1871   -4.7644 O   0  0  0  0  0  0  0  0  0  0  0  0
   41.6595    9.7645    0.1995 C   0  0  2  0  0  0  0  0  0  0  0  0
   41.6366    8.8242    1.3426 O   0  0  0  0  0  0  0  0  0  0  0  0
   50.0233    3.3034   -4.9453 C   0  0  2  0  0  0  0  0  0  0  0  0
   48.7634    3.8698   -4.5023 O   0  0  0  0  0  0  0  0  0  0  0  0
   45.2179    3.2325   -6.1116 C   0  0  2  0  0  0  0  0  0  0  0  0
   45.4332    3.8515   -4.8664 O   0  0  0  0  0  0  0  0  0  0  0  0
   43.7205    7.4985   -4.8916 C   0  0  0  0  0  0  0  0  0  0  0  0
   42.9801    7.4203   -6.1505 O   0  0  0  0  0  0  0  0  0  0  0  0
   41.1156    9.0038   -1.0907 C   0  0  1  0  0  0  0  0  0  0  0  0
   42.0990    7.8931   -1.3956 O   0  0  0  0  0  0  0  0  0  0  0  0
   50.7485    2.5744   -3.8877 C   0  0  0  0  0  0  0  0  0  0  0  0
   51.7969    1.9196   -4.4047 O   0  0  0  0  0  0  0  0  0  0  0  0
   44.2580    1.9715   -6.0063 C   0  0  1  0  0  0  0  0  0  0  0  0
   42.9728    2.3685   -5.6363 O   0  0  0  0  0  0  0  0  0  0  0  0
   43.3272    2.3368   -1.4978 C   0  0  0  0  0  0  0  0  0  0  0  0
   39.6828    8.5005   -0.7074 C   0  0  0  0  0  0  0  0  0  0  0  0
   39.0298    7.8034   -1.7780 N   0  0  0  0  0  0  0  0  0  0  0  0
   43.5875    1.4988   -2.7503 C   0  0  0  0  0  0  0  0  0  0  0  0
   43.4471    0.0845   -2.3526 N   0  0  0  0  0  0  0  0  0  0  0  0
   43.5163   -0.9835   -3.4462 C   0  0  0  0  0  0  0  0  0  0  0  0
  1  2  1  6  0  0  0
  1  8  1  0  0  0  0
  1 33  1  0  0  0  0
  3  4  1  1  0  0  0
  3 10  1  0  0  0  0
  3 42  1  0  0  0  0
  5 11  1  0  0  0  0
  5 29  1  0  0  0  0
  5 35  1  1  0  0  0
  6 13  1  0  0  0  0
  6 39  1  0  0  0  0
  6 22  1  1  0  0  0
  7 15  1  0  0  0  0
  8  9  1  6  0  0  0
  8 17  1  0  0  0  0
 10 19  1  0  0  0  0
 11 12  1  6  0  0  0
 11 21  1  0  0  0  0
 12 44  1  0  0  0  0
 13 14  1  1  0  0  0
 13 23  1  0  0  0  0
 15 16  1  0  0  0  0
 17 18  1  1  0  0  0
 17 25  1  0  0  0  0
 19 20  1  1  0  0  0
 19 27  1  0  0  0  0
 21 22  1  1  0  0  0
 21 28  1  0  0  0  0
 23 24  1  6  0  0  0
 23 30  1  0  0  0  0
 25 26  1  6  0  0  0
 25 32  1  0  0  0  0
 27  2  1  6  0  0  0
 27 34  1  0  0  0  0
 28 29  1  0  0  0  0
 28 36  1  6  0  0  0
 30 31  1  1  0  0  0
 30 38  1  0  0  0  0
 32 33  1  0  0  0  0
 32 40  1  1  0  0  0
 34 35  1  1  0  0  0
 34 42  1  0  0  0  0
 36 37  1  0  0  0  0
 38 39  1  0  0  0  0
 38 45  1  1  0  0  0
 40 41  1  0  0  0  0
 42 43  1  6  0  0  0
 44 47  1  0  0  0  0
 45 46  1  0  0  0  0
 47 48  1  0  0  0  0
 48 49  1  0  0  0  0
 49  7  1  0  0  0  0
M  END
>  <CHROM.1>
-174.32794299,155.43414925,155.91075701,-178.71163744,74.34296881,-64.42876499
-126.63508587,-174.70539250,-179.05130544,-73.24449747,-166.78675137,179.02039346
-170.54945185,173.92544124,-150.77103857,58.37306793,45.04823796,4.51106573
-3.91293883,-0.83806473,0.45739351,0.32129065

>  <Name>
2bee_lig

>  <RI>
0

>  <Rbt.Current_Directory>
/home/itssahil/PROJECTS/Mol_Feturizer/New_Systems/rnas/2bee

>  <Rbt.Executable>
rbdock ($Id: //depot/dev/client3/rdock/2013.1/src/exe/rbdock.cxx#4 $)

>  <Rbt.Library>
libRbt.so (2013.1, Build901 2013/11/27)

>  <Rbt.Parameter_File>
/export/apps/rDock/src/rDock_2013.1_src/data/scripts/dock_solv.prm

>  <Rbt.Receptor>
prm/pocket_docking_5.prm

>  <SCORE>
-18.2184

>  <SCORE.INTER>
-7.50874

>  <SCORE.INTER.CONST>
1

>  <SCORE.INTER.POLAR>
-1.77331

>  <SCORE.INTER.ROT>
16

>  <SCORE.INTER.SOLV>
17.5342

>  <SCORE.INTER.VDW>
-19.2062

>  <SCORE.INTER.norm>
-0.15324

>  <SCORE.INTRA>
-10.7136

>  <SCORE.INTRA.DIHEDRAL>
-24.0907

>  <SCORE.INTRA.DIHEDRAL.0>
36.0842

>  <SCORE.INTRA.POLAR>
0

>  <SCORE.INTRA.POLAR.0>
0

>  <SCORE.INTRA.REPUL>
0.0409145

>  <SCORE.INTRA.REPUL.0>
0

>  <SCORE.INTRA.SOLV>
-3.9409

>  <SCORE.INTRA.SOLV.lig_0>
-126.444

>  <SCORE.INTRA.VDW>
3.09766

>  <SCORE.INTRA.VDW.0>
-7.40469

>  <SCORE.INTRA.norm>
-0.218644

>  <SCORE.RESTR>
0.00388927

>  <SCORE.RESTR.CAVITY>
0.00388927

>  <SCORE.RESTR.norm>
7.93728e-05

>  <SCORE.SYSTEM>
0

>  <SCORE.SYSTEM.CONST>
0

>  <SCORE.SYSTEM.DIHEDRAL>
0

>  <SCORE.SYSTEM.SOLV>
0

>  <SCORE.SYSTEM.norm>
0

>  <SCORE.heavy>
49

>  <SCORE.norm>
-0.371805

>  <RMSD>
5.035

$$$$
2bee_lig
 OpenBabel11021811423D
libRbt.so/2013.1/901 2013/11/27
 49 52  0  0  0  0  0  0  0  0999 V2000
   46.6226    4.1673   -6.7669 C   0  0  2  0  0  0  0  0  0  0  0  0
   46.4799    4.4316   -5.3770 O   0  0  0  0  0  0  0  0  0  0  0  0
   45.3671    0.4384   -3.8970 C   0  0  2  0  0  0  0  0  0  0  0  0
   45.0245   -0.6484   -2.9397 N   0  0  0  0  0  0  0  0  0  0  0  0
   43.2763    4.5137   -3.8038 C   0  0  1  0  0  0  0  0  0  0  0  0
   42.9944    8.9023   -1.9266 C   0  0  1  0  0  0  0  0  0  0  0  0
   39.5962    6.0065    2.1919 C   0  0  0  0  0  0  0  0  0  0  0  0
   48.0623    4.5844   -7.2591 C   0  0  2  0  0  0  0  0  0  0  0  0
   49.0790    3.9244   -6.4472 N   0  0  0  0  0  0  0  0  0  0  0  0
   46.7871    1.0560   -3.5096 C   0  0  0  0  0  0  0  0  0  0  0  0
   43.3632    5.3193   -2.5484 C   0  0  2  0  0  0  0  0  0  0  0  0
   42.5908    4.7365   -1.4375 O   0  0  0  0  0  0  0  0  0  0  0  0
   43.9774    8.3560   -0.7578 C   0  0  2  0  0  0  0  0  0  0  0  0
   43.6095    6.9299   -0.4677 N   0  0  0  0  0  0  0  0  0  0  0  0
   39.5773    7.2609    2.8455 C   0  0  0  0  0  0  0  0  0  0  0  0
   38.5189    8.1405    2.6293 N   0  0  0  0  0  0  0  0  0  0  0  0
   48.2004    6.1684   -7.1973 C   0  0  1  0  0  0  0  0  0  0  0  0
   49.4971    6.5345   -7.6463 O   0  0  0  0  0  0  0  0  0  0  0  0
   47.1941    2.2646   -4.5319 C   0  0  2  0  0  0  0  0  0  0  0  0
   48.4637    2.8160   -4.2000 N   0  0  0  0  0  0  0  0  0  0  0  0
   42.9901    6.6447   -3.1671 C   0  0  2  0  0  0  0  0  0  0  0  0
   43.1954    8.0000   -3.0408 O   0  0  0  0  0  0  0  0  0  0  0  0
   43.7796    9.2521    0.5166 C   0  0  1  0  0  0  0  0  0  0  0  0
   44.1736   10.6218    0.1554 O   0  0  0  0  0  0  0  0  0  0  0  0
   47.1017    6.8062   -8.0789 C   0  0  2  0  0  0  0  0  0  0  0  0
   47.1850    8.2885   -8.0373 O   0  0  0  0  0  0  0  0  0  0  0  0
   46.0957    3.3971   -4.4858 C   0  0  2  0  0  0  0  0  0  0  0  0
   41.8989    6.2273   -4.2728 C   0  0  2  0  0  0  0  0  0  0  0  0
   42.4177    5.0734   -4.7562 O   0  0  0  0  0  0  0  0  0  0  0  0
   42.2179    9.1798    0.9847 C   0  0  2  0  0  0  0  0  0  0  0  0
   41.8323    7.7963    1.3432 O   0  0  0  0  0  0  0  0  0  0  0  0
   45.6790    6.3804   -7.5846 C   0  0  2  0  0  0  0  0  0  0  0  0
   45.6746    4.9309   -7.6424 O   0  0  0  0  0  0  0  0  0  0  0  0
   44.7268    2.7400   -4.8690 C   0  0  2  0  0  0  0  0  0  0  0  0
   43.8369    3.8289   -4.8198 O   0  0  0  0  0  0  0  0  0  0  0  0
   41.7043    7.1766   -5.5124 C   0  0  0  0  0  0  0  0  0  0  0  0
   43.0128    7.5497   -6.0490 O   0  0  0  0  0  0  0  0  0  0  0  0
   41.2694    9.6784   -0.1947 C   0  0  1  0  0  0  0  0  0  0  0  0
   41.5580    8.8005   -1.3945 O   0  0  0  0  0  0  0  0  0  0  0  0
   44.7022    7.0115   -8.4919 C   0  0  0  0  0  0  0  0  0  0  0  0
   43.4806    6.4972   -8.2960 O   0  0  0  0  0  0  0  0  0  0  0  0
   44.3411    1.5921   -3.8414 C   0  0  1  0  0  0  0  0  0  0  0  0
   43.1249    1.0089   -4.1981 O   0  0  0  0  0  0  0  0  0  0  0  0
   41.1656    4.3727   -1.4949 C   0  0  0  0  0  0  0  0  0  0  0  0
   39.8096    9.5457    0.3571 C   0  0  0  0  0  0  0  0  0  0  0  0
   38.9386    8.8311   -0.5313 N   0  0  0  0  0  0  0  0  0  0  0  0
   40.7109    3.8949   -0.1150 C   0  0  0  0  0  0  0  0  0  0  0  0
   39.3955    4.5146    0.1375 N   0  0  0  0  0  0  0  0  0  0  0  0
   39.3614    5.9691    0.6113 C   0  0  0  0  0  0  0  0  0  0  0  0
  1  2  1  1  0  0  0
  1  8  1  0  0  0  0
  1 33  1  0  0  0  0
  3  4  1  1  0  0  0
  3 10  1  0  0  0  0
  3 42  1  0  0  0  0
  5 11  1  0  0  0  0
  5 29  1  0  0  0  0
  5 35  1  6  0  0  0
  6 13  1  0  0  0  0
  6 39  1  0  0  0  0
  6 22  1  6  0  0  0
  7 15  1  0  0  0  0
  8  9  1  1  0  0  0
  8 17  1  0  0  0  0
 10 19  1  0  0  0  0
 11 12  1  1  0  0  0
 11 21  1  0  0  0  0
 12 44  1  0  0  0  0
 13 14  1  1  0  0  0
 13 23  1  0  0  0  0
 15 16  1  0  0  0  0
 17 18  1  6  0  0  0
 17 25  1  0  0  0  0
 19 20  1  1  0  0  0
 19 27  1  0  0  0  0
 21 22  1  1  0  0  0
 21 28  1  0  0  0  0
 23 24  1  6  0  0  0
 23 30  1  0  0  0  0
 25 26  1  1  0  0  0
 25 32  1  0  0  0  0
 27  2  1  6  0  0  0
 27 34  1  0  0  0  0
 28 29  1  0  0  0  0
 28 36  1  6  0  0  0
 30 31  1  6  0  0  0
 30 38  1  0  0  0  0
 32 33  1  0  0  0  0
 32 40  1  6  0  0  0
 34 35  1  1  0  0  0
 34 42  1  0  0  0  0
 36 37  1  0  0  0  0
 38 39  1  0  0  0  0
 38 45  1  1  0  0  0
 40 41  1  0  0  0  0
 42 43  1  6  0  0  0
 44 47  1  0  0  0  0
 45 46  1  0  0  0  0
 47 48  1  0  0  0  0
 48 49  1  0  0  0  0
 49  7  1  0  0  0  0
M  END
>  <CHROM.1>
-124.68627416,55.61504433,61.20358728,50.27292101,-53.59109359,-175.97362447
-55.77020845,61.40113217,46.19845807,168.26304216,-75.04179792,-129.08828202
136.66399636,-79.97324299,-82.73913147,-178.80184949,43.73813500,5.77076718
-3.28894140,0.20098000,-0.89700250,2.96508161

>  <Name>
2bee_lig

>  <RI>
3.71943e+07

>  <Rbt.Current_Directory>
/home/itssahil/PROJECTS/Mol_Feturizer/New_Systems/rnas/2bee

>  <Rbt.Executable>
rbdock ($Id: //depot/dev/client3/rdock/2013.1/src/exe/rbdock.cxx#4 $)

>  <Rbt.Library>
libRbt.so (2013.1, Build901 2013/11/27)

>  <Rbt.Parameter_File>
/export/apps/rDock/src/rDock_2013.1_src/data/scripts/dock_solv.prm

>  <Rbt.Receptor>
prm/pocket_docking_2.prm

>  <SCORE>
15.6127

>  <SCORE.INTER>
3.3643

>  <SCORE.INTER.CONST>
1

>  <SCORE.INTER.POLAR>
0

>  <SCORE.INTER.ROT>
16

>  <SCORE.INTER.SOLV>
14.2036

>  <SCORE.INTER.VDW>
-16.7583

>  <SCORE.INTER.norm>
0.0686592

>  <SCORE.INTRA>
3.49404

>  <SCORE.INTRA.DIHEDRAL>
-9.99146

>  <SCORE.INTRA.DIHEDRAL.0>
36.0842

>  <SCORE.INTRA.POLAR>
0

>  <SCORE.INTRA.POLAR.0>
0

>  <SCORE.INTRA.REPUL>
0.00405261

>  <SCORE.INTRA.REPUL.0>
0

>  <SCORE.INTRA.SOLV>
11.8195

>  <SCORE.INTRA.SOLV.lig_0>
-126.444

>  <SCORE.INTRA.VDW>
2.55976

>  <SCORE.INTRA.VDW.0>
-7.40469

>  <SCORE.INTRA.norm>
0.071307

>  <SCORE.RESTR>
8.75433

>  <SCORE.RESTR.CAVITY>
8.75433

>  <SCORE.RESTR.norm>
0.17866

>  <SCORE.SYSTEM>
0

>  <SCORE.SYSTEM.CONST>
0

>  <SCORE.SYSTEM.DIHEDRAL>
0

>  <SCORE.SYSTEM.SOLV>
0

>  <SCORE.SYSTEM.norm>
0

>  <SCORE.heavy>
49

>  <SCORE.norm>
0.318626

>  <RMSD>
5.098

$$$$
2bee_lig
 OpenBabel11021811423D
libRbt.so/2013.1/901 2013/11/27
 49 52  0  0  0  0  0  0  0  0999 V2000
   47.7383    5.1223   -5.6594 C   0  0  2  0  0  0  0  0  0  0  0  0
   47.3767    4.8417   -7.0057 O   0  0  0  0  0  0  0  0  0  0  0  0
   43.6480    5.8270   -9.1272 C   0  0  2  0  0  0  0  0  0  0  0  0
   42.2277    5.7419   -9.5634 N   0  0  0  0  0  0  0  0  0  0  0  0
   44.8396    5.8442   -4.7034 C   0  0  1  0  0  0  0  0  0  0  0  0
   43.5501    7.0804   -0.2398 C   0  0  1  0  0  0  0  0  0  0  0  0
   40.9288    3.4542   -4.1265 C   0  0  0  0  0  0  0  0  0  0  0  0
   49.2511    5.5625   -5.5787 C   0  0  2  0  0  0  0  0  0  0  0  0
   49.4941    6.6847   -6.4787 N   0  0  0  0  0  0  0  0  0  0  0  0
   44.3725    4.4332   -9.4108 C   0  0  0  0  0  0  0  0  0  0  0  0
   44.8848    5.1993   -3.3563 C   0  0  2  0  0  0  0  0  0  0  0  0
   44.1883    3.9018   -3.3171 O   0  0  0  0  0  0  0  0  0  0  0  0
   43.2434    5.5395    0.1633 C   0  0  2  0  0  0  0  0  0  0  0  0
   42.7003    4.8397   -1.0485 N   0  0  0  0  0  0  0  0  0  0  0  0
   39.8941    2.4999   -3.9872 C   0  0  0  0  0  0  0  0  0  0  0  0
   40.2004    1.1932   -3.6140 N   0  0  0  0  0  0  0  0  0  0  0  0
   50.1798    4.3187   -5.9291 C   0  0  1  0  0  0  0  0  0  0  0  0
   51.5389    4.7231   -5.8493 O   0  0  0  0  0  0  0  0  0  0  0  0
   45.9345    4.4817   -8.9320 C   0  0  2  0  0  0  0  0  0  0  0  0
   46.5920    3.2456   -9.1892 N   0  0  0  0  0  0  0  0  0  0  0  0
   44.3880    6.3925   -2.5765 C   0  0  2  0  0  0  0  0  0  0  0  0
   44.4808    7.0028   -1.3460 O   0  0  0  0  0  0  0  0  0  0  0  0
   42.1912    5.5312    1.3291 C   0  0  1  0  0  0  0  0  0  0  0  0
   42.8022    6.2180    2.4766 O   0  0  0  0  0  0  0  0  0  0  0  0
   49.8787    3.1688   -4.9400 C   0  0  2  0  0  0  0  0  0  0  0  0
   50.7153    1.9793   -5.2419 O   0  0  0  0  0  0  0  0  0  0  0  0
   46.0118    4.8127   -7.3907 C   0  0  2  0  0  0  0  0  0  0  0  0
   43.3127    7.0492   -3.5765 C   0  0  2  0  0  0  0  0  0  0  0  0
   43.9167    6.8931   -4.7785 O   0  0  0  0  0  0  0  0  0  0  0  0
   40.8333    6.2866    0.8301 C   0  0  2  0  0  0  0  0  0  0  0  0
   40.2289    5.5879   -0.3265 O   0  0  0  0  0  0  0  0  0  0  0  0
   48.3743    2.7453   -5.0251 C   0  0  2  0  0  0  0  0  0  0  0  0
   47.6229    3.9507   -4.7307 O   0  0  0  0  0  0  0  0  0  0  0  0
   45.2865    6.1826   -7.1672 C   0  0  2  0  0  0  0  0  0  0  0  0
   45.4343    6.3883   -5.7831 O   0  0  0  0  0  0  0  0  0  0  0  0
   43.0122    8.5868   -3.4304 C   0  0  0  0  0  0  0  0  0  0  0  0
   41.5996    8.8353   -3.7173 O   0  0  0  0  0  0  0  0  0  0  0  0
   41.1673    7.7834    0.3972 C   0  0  1  0  0  0  0  0  0  0  0  0
   42.2210    7.7045   -0.6877 O   0  0  0  0  0  0  0  0  0  0  0  0
   48.1748    1.6679   -4.0376 C   0  0  0  0  0  0  0  0  0  0  0  0
   46.9047    1.2418   -4.0596 O   0  0  0  0  0  0  0  0  0  0  0  0
   43.7637    6.0972   -7.6104 C   0  0  1  0  0  0  0  0  0  0  0  0
   43.1310    7.3251   -7.4149 O   0  0  0  0  0  0  0  0  0  0  0  0
   44.6247    2.6837   -4.0190 C   0  0  0  0  0  0  0  0  0  0  0  0
   39.8063    8.3957   -0.0779 C   0  0  0  0  0  0  0  0  0  0  0  0
   38.8446    8.5101    0.9807 N   0  0  0  0  0  0  0  0  0  0  0  0
   43.5044    1.6438   -3.9691 C   0  0  0  0  0  0  0  0  0  0  0  0
   42.6509    1.8812   -5.1495 N   0  0  0  0  0  0  0  0  0  0  0  0
   41.9941    3.2548   -5.3013 C   0  0  0  0  0  0  0  0  0  0  0  0
  1  2  1  6  0  0  0
  1  8  1  0  0  0  0
  1 33  1  0  0  0  0
  3  4  1  1  0  0  0
  3 10  1  0  0  0  0
  3 42  1  0  0  0  0
  5 11  1  0  0  0  0
  5 29  1  0  0  0  0
  5 35  1  1  0  0  0
  6 13  1  0  0  0  0
  6 39  1  0  0  0  0
  6 22  1  6  0  0  0
  7 15  1  0  0  0  0
  8  9  1  6  0  0  0
  8 17  1  0  0  0  0
 10 19  1  0  0  0  0
 11 12  1  6  0  0  0
 11 21  1  0  0  0  0
 12 44  1  0  0  0  0
 13 14  1  6  0  0  0
 13 23  1  0  0  0  0
 15 16  1  0  0  0  0
 17 18  1  1  0  0  0
 17 25  1  0  0  0  0
 19 20  1  1  0  0  0
 19 27  1  0  0  0  0
 21 22  1  1  0  0  0
 21 28  1  0  0  0  0
 23 24  1  1  0  0  0
 23 30  1  0  0  0  0
 25 26  1  6  0  0  0
 25 32  1  0  0  0  0
 27  2  1  6  0  0  0
 27 34  1  0  0  0  0
 28 29  1  0  0  0  0
 28 36  1  1  0  0  0
 30 31  1  6  0  0  0
 30 38  1  0  0  0  0
 32 33  1  0  0  0  0
 32 40  1  1  0  0  0
 34 35  1  1  0  0  0
 34 42  1  0  0  0  0
 36 37  1  0  0  0  0
 38 39  1  0  0  0  0
 38 45  1  6  0  0  0
 40 41  1  0  0  0  0
 42 43  1  6  0  0  0
 44 47  1  0  0  0  0
 45 46  1  0  0  0  0
 47 48  1  0  0  0  0
 48 49  1  0  0  0  0
 49  7  1  0  0  0  0
M  END
>  <CHROM.1>
-161.38059509,130.79415586,57.82670774,66.52500493,67.48557566,-168.44501763
-105.75555597,179.85473017,-144.83671686,-179.45728997,-75.01069804,65.32807792
88.84587310,-58.97237347,-66.24656762,-56.73939303,44.49050319,5.11183118
-4.13050788,-0.74754584,-0.26525908,1.46366727

>  <Name>
2bee_lig

>  <RI>
2.18182e+07

>  <Rbt.Current_Directory>
/home/itssahil/PROJECTS/Mol_Feturizer/New_Systems/rnas/2bee

>  <Rbt.Executable>
rbdock ($Id: //depot/dev/client3/rdock/2013.1/src/exe/rbdock.cxx#4 $)

>  <Rbt.Library>
libRbt.so (2013.1, Build901 2013/11/27)

>  <Rbt.Parameter_File>
/export/apps/rDock/src/rDock_2013.1_src/data/scripts/dock_solv.prm

>  <Rbt.Receptor>
prm/pocket_docking_3.prm

>  <SCORE>
-1.87426

>  <SCORE.INTER>
0.684972

>  <SCORE.INTER.CONST>
1

>  <SCORE.INTER.POLAR>
-0.959166

>  <SCORE.INTER.ROT>
16

>  <SCORE.INTER.SOLV>
15.0326

>  <SCORE.INTER.VDW>
-15.6237

>  <SCORE.INTER.norm>
0.013979

>  <SCORE.INTRA>
-3.40398

>  <SCORE.INTRA.DIHEDRAL>
-17.3709

>  <SCORE.INTRA.DIHEDRAL.0>
36.0842

>  <SCORE.INTRA.POLAR>
0

>  <SCORE.INTRA.POLAR.0>
0

>  <SCORE.INTRA.REPUL>
0.218012

>  <SCORE.INTRA.REPUL.0>
0

>  <SCORE.INTRA.SOLV>
4.01235

>  <SCORE.INTRA.SOLV.lig_0>
-126.444

>  <SCORE.INTRA.VDW>
2.18525

>  <SCORE.INTRA.VDW.0>
-7.40469

>  <SCORE.INTRA.norm>
-0.0694689

>  <SCORE.RESTR>
0.844742

>  <SCORE.RESTR.CAVITY>
0.844742

>  <SCORE.RESTR.norm>
0.0172396

>  <SCORE.SYSTEM>
0

>  <SCORE.SYSTEM.CONST>
0

>  <SCORE.SYSTEM.DIHEDRAL>
0

>  <SCORE.SYSTEM.SOLV>
0

>  <SCORE.SYSTEM.norm>
0

>  <SCORE.heavy>
49

>  <SCORE.norm>
-0.0382503

>  <RMSD>
5.128

$$$$
2bee_lig
 OpenBabel11021811423D
libRbt.so/2013.1/901 2013/11/27
 49 52  0  0  0  0  0  0  0  0999 V2000
   48.1782    5.7063   -6.0352 C   0  0  2  0  0  0  0  0  0  0  0  0
   47.9953    5.6268   -7.4431 O   0  0  0  0  0  0  0  0  0  0  0  0
   44.9393    8.6985   -8.2176 C   0  0  2  0  0  0  0  0  0  0  0  0
   43.8598    9.4461   -8.9182 N   0  0  0  0  0  0  0  0  0  0  0  0
   44.3524    4.5743   -6.1262 C   0  0  1  0  0  0  0  0  0  0  0  0
   40.9432    6.4925   -3.6896 C   0  0  1  0  0  0  0  0  0  0  0  0
   42.6320   -0.7024   -5.8812 C   0  0  0  0  0  0  0  0  0  0  0  0
   49.7088    5.5818   -5.6735 C   0  0  2  0  0  0  0  0  0  0  0  0
   50.4783    6.5828   -6.4046 N   0  0  0  0  0  0  0  0  0  0  0  0
   46.2169    8.5991   -9.1692 C   0  0  0  0  0  0  0  0  0  0  0  0
   43.5616    4.4264   -4.8671 C   0  0  2  0  0  0  0  0  0  0  0  0
   43.5515    3.0455   -4.3541 O   0  0  0  0  0  0  0  0  0  0  0  0
   41.9122    7.7927   -3.6516 C   0  0  2  0  0  0  0  0  0  0  0  0
   43.3304    7.3218   -3.7926 N   0  0  0  0  0  0  0  0  0  0  0  0
   41.3185   -0.2004   -6.0346 C   0  0  0  0  0  0  0  0  0  0  0  0
   40.2352   -0.9310   -5.5514 N   0  0  0  0  0  0  0  0  0  0  0  0
   50.2075    4.1064   -5.9994 C   0  0  1  0  0  0  0  0  0  0  0  0
   51.5842    4.0025   -5.6664 O   0  0  0  0  0  0  0  0  0  0  0  0
   47.4227    7.7715   -8.4393 C   0  0  2  0  0  0  0  0  0  0  0  0
   48.5704    7.6852   -9.2770 N   0  0  0  0  0  0  0  0  0  0  0  0
   42.3064    5.0966   -5.3714 C   0  0  2  0  0  0  0  0  0  0  0  0
   41.2299    5.8453   -4.9525 O   0  0  0  0  0  0  0  0  0  0  0  0
   41.7035    8.5275   -2.2795 C   0  0  1  0  0  0  0  0  0  0  0  0
   40.3019    8.9682   -2.2263 O   0  0  0  0  0  0  0  0  0  0  0  0
   49.3586    3.0964   -5.1928 C   0  0  2  0  0  0  0  0  0  0  0  0
   49.7819    1.7020   -5.4800 O   0  0  0  0  0  0  0  0  0  0  0  0
   46.9270    6.3198   -8.0679 C   0  0  2  0  0  0  0  0  0  0  0  0
   42.2460    4.6288   -6.9093 C   0  0  2  0  0  0  0  0  0  0  0  0
   43.5509    4.6780   -7.2682 O   0  0  0  0  0  0  0  0  0  0  0  0
   42.0566    7.4992   -1.0623 C   0  0  2  0  0  0  0  0  0  0  0  0
   43.4690    7.0607   -1.1278 O   0  0  0  0  0  0  0  0  0  0  0  0
   47.8423    3.2336   -5.5557 C   0  0  2  0  0  0  0  0  0  0  0  0
   47.5043    4.6132   -5.2610 O   0  0  0  0  0  0  0  0  0  0  0  0
   45.6750    6.4738   -7.1398 C   0  0  2  0  0  0  0  0  0  0  0  0
   45.3354    5.1383   -6.8550 O   0  0  0  0  0  0  0  0  0  0  0  0
   41.4733    5.5445   -7.9292 C   0  0  0  0  0  0  0  0  0  0  0  0
   41.9429    5.2648   -9.2859 O   0  0  0  0  0  0  0  0  0  0  0  0
   41.1236    6.2102   -1.1469 C   0  0  1  0  0  0  0  0  0  0  0  0
   41.3455    5.5934   -2.5121 O   0  0  0  0  0  0  0  0  0  0  0  0
   47.1120    2.2558   -4.7274 C   0  0  0  0  0  0  0  0  0  0  0  0
   47.3227    2.4944   -3.4259 O   0  0  0  0  0  0  0  0  0  0  0  0
   44.5086    7.2525   -7.8850 C   0  0  1  0  0  0  0  0  0  0  0  0
   43.4029    7.3910   -7.0457 O   0  0  0  0  0  0  0  0  0  0  0  0
   42.8929    2.6070   -3.1128 C   0  0  0  0  0  0  0  0  0  0  0  0
   41.5635    5.2956    0.0460 C   0  0  0  0  0  0  0  0  0  0  0  0
   41.3218    3.9026   -0.1985 N   0  0  0  0  0  0  0  0  0  0  0  0
   42.3400    1.1943   -3.3070 C   0  0  0  0  0  0  0  0  0  0  0  0
   43.4753    0.3461   -3.7187 N   0  0  0  0  0  0  0  0  0  0  0  0
   43.1692   -0.9878   -4.4031 C   0  0  0  0  0  0  0  0  0  0  0  0
  1  2  1  6  0  0  0
  1  8  1  0  0  0  0
  1 33  1  0  0  0  0
  3  4  1  6  0  0  0
  3 10  1  0  0  0  0
  3 42  1  0  0  0  0
  5 11  1  0  0  0  0
  5 29  1  0  0  0  0
  5 35  1  1  0  0  0
  6 13  1  0  0  0  0
  6 39  1  0  0  0  0
  6 22  1  6  0  0  0
  7 15  1  0  0  0  0
  8  9  1  6  0  0  0
  8 17  1  0  0  0  0
 10 19  1  0  0  0  0
 11 12  1  6  0  0  0
 11 21  1  0  0  0  0
 12 44  1  0  0  0  0
 13 14  1  1  0  0  0
 13 23  1  0  0  0  0
 15 16  1  0  0  0  0
 17 18  1  1  0  0  0
 17 25  1  0  0  0  0
 19 20  1  6  0  0  0
 19 27  1  0  0  0  0
 21 22  1  1  0  0  0
 21 28  1  0  0  0  0
 23 24  1  1  0  0  0
 23 30  1  0  0  0  0
 25 26  1  6  0  0  0
 25 32  1  0  0  0  0
 27  2  1  1  0  0  0
 27 34  1  0  0  0  0
 28 29  1  0  0  0  0
 28 36  1  6  0  0  0
 30 31  1  6  0  0  0
 30 38  1  0  0  0  0
 32 33  1  0  0  0  0
 32 40  1  1  0  0  0
 34 35  1  6  0  0  0
 34 42  1  0  0  0  0
 36 37  1  0  0  0  0
 38 39  1  0  0  0  0
 38 45  1  1  0  0  0
 40 41  1  0  0  0  0
 42 43  1  1  0  0  0
 44 47  1  0  0  0  0
 45 46  1  0  0  0  0
 47 48  1  0  0  0  0
 48 49  1  0  0  0  0
 49  7  1  0  0  0  0
M  END
>  <CHROM.1>
-149.15763475,-51.98288187,74.18356158,-59.23116111,177.97425160,145.24921327
9.47900578,88.68023956,158.38976164,58.83649651,-179.23358972,-152.73585259
56.17070041,-161.01634830,72.06917378,-73.96160286,44.55745070,4.93436291
-5.27020726,0.25200331,0.45354482,-0.30105444

>  <Name>
2bee_lig

>  <RI>
3.71943e+07

>  <Rbt.Current_Directory>
/home/itssahil/PROJECTS/Mol_Feturizer/New_Systems/rnas/2bee

>  <Rbt.Executable>
rbdock ($Id: //depot/dev/client3/rdock/2013.1/src/exe/rbdock.cxx#4 $)

>  <Rbt.Library>
libRbt.so (2013.1, Build901 2013/11/27)

>  <Rbt.Parameter_File>
/export/apps/rDock/src/rDock_2013.1_src/data/scripts/dock_solv.prm

>  <Rbt.Receptor>
prm/pocket_docking_2.prm

>  <SCORE>
8.56767

>  <SCORE.INTER>
10.543

>  <SCORE.INTER.CONST>
1

>  <SCORE.INTER.POLAR>
0

>  <SCORE.INTER.ROT>
16

>  <SCORE.INTER.SOLV>
23.0102

>  <SCORE.INTER.VDW>
-14.9081

>  <SCORE.INTER.norm>
0.215163

>  <SCORE.INTRA>
-3.82974

>  <SCORE.INTRA.DIHEDRAL>
-14.4595

>  <SCORE.INTRA.DIHEDRAL.0>
36.0842

>  <SCORE.INTRA.POLAR>
0

>  <SCORE.INTRA.POLAR.0>
0

>  <SCORE.INTRA.REPUL>
0

>  <SCORE.INTRA.REPUL.0>
0

>  <SCORE.INTRA.SOLV>
5.55977

>  <SCORE.INTRA.SOLV.lig_0>
-126.444

>  <SCORE.INTRA.VDW>
0.620129

>  <SCORE.INTRA.VDW.0>
-7.40469

>  <SCORE.INTRA.norm>
-0.0781579

>  <SCORE.RESTR>
1.85443

>  <SCORE.RESTR.CAVITY>
1.85443

>  <SCORE.RESTR.norm>
0.0378454

>  <SCORE.SYSTEM>
0

>  <SCORE.SYSTEM.CONST>
0

>  <SCORE.SYSTEM.DIHEDRAL>
0

>  <SCORE.SYSTEM.SOLV>
0

>  <SCORE.SYSTEM.norm>
0

>  <SCORE.heavy>
49

>  <SCORE.norm>
0.17485

>  <RMSD>
5.185

$$$$
2bee_lig
 OpenBabel11021811423D
libRbt.so/2013.1/901 2013/11/27
 49 52  0  0  0  0  0  0  0  0999 V2000
   45.7249    3.9016   -7.5893 C   0  0  2  0  0  0  0  0  0  0  0  0
   44.5172    3.3921   -7.0379 O   0  0  0  0  0  0  0  0  0  0  0  0
   42.0775    2.8604  -10.6627 C   0  0  2  0  0  0  0  0  0  0  0  0
   40.9968    2.3599  -11.5552 N   0  0  0  0  0  0  0  0  0  0  0  0
   41.3378    4.5195   -6.4077 C   0  0  1  0  0  0  0  0  0  0  0  0
   40.5010    5.2328   -1.7229 C   0  0  1  0  0  0  0  0  0  0  0  0
   35.9514   -0.5125   -2.0887 C   0  0  0  0  0  0  0  0  0  0  0  0
   46.7098    4.3422   -6.4383 C   0  0  2  0  0  0  0  0  0  0  0  0
   46.9289    3.2333   -5.5159 N   0  0  0  0  0  0  0  0  0  0  0  0
   42.8897    1.6209  -10.0695 C   0  0  0  0  0  0  0  0  0  0  0  0
   40.9769    3.7554   -5.1754 C   0  0  2  0  0  0  0  0  0  0  0  0
   39.7506    2.9548   -5.3346 O   0  0  0  0  0  0  0  0  0  0  0  0
   41.5135    5.5747   -0.5026 C   0  0  2  0  0  0  0  0  0  0  0  0
   42.6059    4.5453   -0.5007 N   0  0  0  0  0  0  0  0  0  0  0  0
   35.6000   -1.7618   -2.6512 C   0  0  0  0  0  0  0  0  0  0  0  0
   35.3227   -2.8444   -1.8195 N   0  0  0  0  0  0  0  0  0  0  0  0
   46.1116    5.6146   -5.6932 C   0  0  1  0  0  0  0  0  0  0  0  0
   47.0066    6.0065   -4.6625 O   0  0  0  0  0  0  0  0  0  0  0  0
   44.0799    2.1296   -9.0713 C   0  0  2  0  0  0  0  0  0  0  0  0
   44.8161    1.0313   -8.5440 N   0  0  0  0  0  0  0  0  0  0  0  0
   41.0461    4.9233   -4.2213 C   0  0  2  0  0  0  0  0  0  0  0  0
   41.3266    5.2428   -2.9121 O   0  0  0  0  0  0  0  0  0  0  0  0
   40.7037    5.5293    0.8421 C   0  0  1  0  0  0  0  0  0  0  0  0
   39.6691    6.5713    0.7668 O   0  0  0  0  0  0  0  0  0  0  0  0
   45.9079    6.7523   -6.7205 C   0  0  2  0  0  0  0  0  0  0  0  0
   45.3349    7.9572   -6.0679 O   0  0  0  0  0  0  0  0  0  0  0  0
   43.4622    2.9712   -7.8875 C   0  0  2  0  0  0  0  0  0  0  0  0
   40.4820    6.1413   -5.1076 C   0  0  2  0  0  0  0  0  0  0  0  0
   41.0259    5.8805   -6.3201 O   0  0  0  0  0  0  0  0  0  0  0  0
   40.0495    4.0451    1.0233 C   0  0  2  0  0  0  0  0  0  0  0  0
   41.1000    3.0047    1.0953 O   0  0  0  0  0  0  0  0  0  0  0  0
   44.9342    6.3013   -7.8599 C   0  0  2  0  0  0  0  0  0  0  0  0
   45.5492    5.1230   -8.4411 O   0  0  0  0  0  0  0  0  0  0  0  0
   42.6764    4.1681   -8.5218 C   0  0  2  0  0  0  0  0  0  0  0  0
   42.1946    4.8548   -7.3921 O   0  0  0  0  0  0  0  0  0  0  0  0
   40.9315    7.6005   -4.7273 C   0  0  0  0  0  0  0  0  0  0  0  0
   40.5944    7.8638   -3.3286 O   0  0  0  0  0  0  0  0  0  0  0  0
   39.0948    3.7138   -0.2087 C   0  0  1  0  0  0  0  0  0  0  0  0
   39.9360    3.8293   -1.4627 O   0  0  0  0  0  0  0  0  0  0  0  0
   44.8187    7.4326   -8.7992 C   0  0  0  0  0  0  0  0  0  0  0  0
   44.0636    8.4051   -8.2706 O   0  0  0  0  0  0  0  0  0  0  0  0
   41.5068    3.6452   -9.4605 C   0  0  1  0  0  0  0  0  0  0  0  0
   40.8202    4.7198  -10.0261 O   0  0  0  0  0  0  0  0  0  0  0  0
   39.2232    2.0052   -4.3411 C   0  0  0  0  0  0  0  0  0  0  0  0
   38.5468    2.2717    0.0619 C   0  0  0  0  0  0  0  0  0  0  0  0
   39.5485    1.2554   -0.0882 N   0  0  0  0  0  0  0  0  0  0  0  0
   37.9874    1.3099   -4.9143 C   0  0  0  0  0  0  0  0  0  0  0  0
   37.5292    0.3474   -3.8937 N   0  0  0  0  0  0  0  0  0  0  0  0
   36.2846    0.6994   -3.0762 C   0  0  0  0  0  0  0  0  0  0  0  0
  1  2  1  1  0  0  0
  1  8  1  0  0  0  0
  1 33  1  0  0  0  0
  3  4  1  6  0  0  0
  3 10  1  0  0  0  0
  3 42  1  0  0  0  0
  5 11  1  0  0  0  0
  5 29  1  0  0  0  0
  5 35  1  1  0  0  0
  6 13  1  0  0  0  0
  6 39  1  0  0  0  0
  6 22  1  6  0  0  0
  7 15  1  0  0  0  0
  8  9  1  1  0  0  0
  8 17  1  0  0  0  0
 10 19  1  0  0  0  0
 11 12  1  6  0  0  0
 11 21  1  0  0  0  0
 12 44  1  0  0  0  0
 13 14  1  1  0  0  0
 13 23  1  0  0  0  0
 15 16  1  0  0  0  0
 17 18  1  1  0  0  0
 17 25  1  0  0  0  0
 19 20  1  1  0  0  0
 19 27  1  0  0  0  0
 21 22  1  1  0  0  0
 21 28  1  0  0  0  0
 23 24  1  6  0  0  0
 23 30  1  0  0  0  0
 25 26  1  1  0  0  0
 25 32  1  0  0  0  0
 27  2  1  1  0  0  0
 27 34  1  0  0  0  0
 28 29  1  0  0  0  0
 28 36  1  1  0  0  0
 30 31  1  6  0  0  0
 30 38  1  0  0  0  0
 32 33  1  0  0  0  0
 32 40  1  6  0  0  0
 34 35  1  1  0  0  0
 34 42  1  0  0  0  0
 36 37  1  0  0  0  0
 38 39  1  0  0  0  0
 38 45  1  1  0  0  0
 40 41  1  0  0  0  0
 42 43  1  6  0  0  0
 44 47  1  0  0  0  0
 45 46  1  0  0  0  0
 47 48  1  0  0  0  0
 48 49  1  0  0  0  0
 49  7  1  0  0  0  0
M  END
>  <CHROM.1>
178.05791411,71.64612879,174.27574075,179.05762333,173.84756401,-176.38833216
-85.44550593,43.65647108,-56.02738363,-73.96486614,-63.59879180,-70.61941279
178.40897075,104.85392526,177.62107097,-63.72004518,41.67092879,3.97189011
-4.95489703,0.56080781,-0.73306142,-1.98052735

>  <Name>
2bee_lig

>  <RI>
0

>  <Rbt.Current_Directory>
/home/itssahil/PROJECTS/Mol_Feturizer/New_Systems/rnas/2bee

>  <Rbt.Executable>
rbdock ($Id: //depot/dev/client3/rdock/2013.1/src/exe/rbdock.cxx#4 $)

>  <Rbt.Library>
libRbt.so (2013.1, Build901 2013/11/27)

>  <Rbt.Parameter_File>
/export/apps/rDock/src/rDock_2013.1_src/data/scripts/dock_solv.prm

>  <Rbt.Receptor>
prm/pocket_docking_6.prm

>  <SCORE>
-11.0248

>  <SCORE.INTER>
1.37229

>  <SCORE.INTER.CONST>
1

>  <SCORE.INTER.POLAR>
-0.534879

>  <SCORE.INTER.ROT>
16

>  <SCORE.INTER.SOLV>
10.1204

>  <SCORE.INTER.VDW>
-14.9423

>  <SCORE.INTER.norm>
0.028006

>  <SCORE.INTRA>
-12.4855

>  <SCORE.INTRA.DIHEDRAL>
-26.539

>  <SCORE.INTRA.DIHEDRAL.0>
36.0842

>  <SCORE.INTRA.POLAR>
0

>  <SCORE.INTRA.POLAR.0>
0

>  <SCORE.INTRA.REPUL>
0

>  <SCORE.INTRA.REPUL.0>
0

>  <SCORE.INTRA.SOLV>
-1.2698

>  <SCORE.INTRA.SOLV.lig_0>
-126.444

>  <SCORE.INTRA.VDW>
1.41892

>  <SCORE.INTRA.VDW.0>
-7.40469

>  <SCORE.INTRA.norm>
-0.254806

>  <SCORE.RESTR>
0.0884233

>  <SCORE.RESTR.CAVITY>
0.0884233

>  <SCORE.RESTR.norm>
0.00180456

>  <SCORE.SYSTEM>
0

>  <SCORE.SYSTEM.CONST>
0

>  <SCORE.SYSTEM.DIHEDRAL>
0

>  <SCORE.SYSTEM.SOLV>
0

>  <SCORE.SYSTEM.norm>
0

>  <SCORE.heavy>
49

>  <SCORE.norm>
-0.224996

>  <RMSD>
5.187

$$$$
2bee_lig
 OpenBabel11021811423D
libRbt.so/2013.1/901 2013/11/27
 49 52  0  0  0  0  0  0  0  0999 V2000
   44.3816    3.6719   -6.1973 C   0  0  2  0  0  0  0  0  0  0  0  0
   43.1600    4.1466   -6.7490 O   0  0  0  0  0  0  0  0  0  0  0  0
   44.5404    7.7200   -8.9167 C   0  0  2  0  0  0  0  0  0  0  0  0
   44.4855    8.9692   -9.7237 N   0  0  0  0  0  0  0  0  0  0  0  0
   41.8621    6.5065   -5.1905 C   0  0  1  0  0  0  0  0  0  0  0  0
   40.8022    5.6222   -0.9375 C   0  0  1  0  0  0  0  0  0  0  0  0
   39.9055    0.0926   -5.3633 C   0  0  0  0  0  0  0  0  0  0  0  0
   44.2332    2.1655   -5.7525 C   0  0  2  0  0  0  0  0  0  0  0  0
   43.7628    1.3574   -6.8724 N   0  0  0  0  0  0  0  0  0  0  0  0
   43.8187    6.5420   -9.7162 C   0  0  0  0  0  0  0  0  0  0  0  0
   40.6977    5.7377   -4.6560 C   0  0  2  0  0  0  0  0  0  0  0  0
   39.5781    5.6541   -5.6097 O   0  0  0  0  0  0  0  0  0  0  0  0
   39.7259    5.7149    0.2725 C   0  0  2  0  0  0  0  0  0  0  0  0
   39.4614    7.1659    0.5513 N   0  0  0  0  0  0  0  0  0  0  0  0
   39.3527   -0.1007   -4.0757 C   0  0  0  0  0  0  0  0  0  0  0  0
   38.9593    0.9993   -3.3168 N   0  0  0  0  0  0  0  0  0  0  0  0
   43.2420    2.0794   -4.5107 C   0  0  1  0  0  0  0  0  0  0  0  0
   43.1184    0.7211   -4.1146 O   0  0  0  0  0  0  0  0  0  0  0  0
   43.8461    5.1529   -8.8553 C   0  0  2  0  0  0  0  0  0  0  0  0
   43.2125    4.0935   -9.5642 N   0  0  0  0  0  0  0  0  0  0  0  0
   40.5776    6.4896   -3.3525 C   0  0  2  0  0  0  0  0  0  0  0  0
   40.1927    6.3359   -2.0398 O   0  0  0  0  0  0  0  0  0  0  0  0
   40.3360    5.0078    1.5351 C   0  0  1  0  0  0  0  0  0  0  0  0
   40.5503    3.5956    1.1865 O   0  0  0  0  0  0  0  0  0  0  0  0
   43.7972    2.9500   -3.3596 C   0  0  2  0  0  0  0  0  0  0  0  0
   42.8919    2.9103   -2.1828 O   0  0  0  0  0  0  0  0  0  0  0  0
   43.1247    5.3687   -7.4682 C   0  0  2  0  0  0  0  0  0  0  0  0
   40.9517    7.9961   -3.7744 C   0  0  2  0  0  0  0  0  0  0  0  0
   41.9574    7.7973   -4.6594 O   0  0  0  0  0  0  0  0  0  0  0  0
   41.7346    5.7459    1.9385 C   0  0  2  0  0  0  0  0  0  0  0  0
   41.5067    7.1670    2.2848 O   0  0  0  0  0  0  0  0  0  0  0  0
   43.9454    4.4402   -3.8148 C   0  0  2  0  0  0  0  0  0  0  0  0
   44.8284    4.4002   -4.9651 O   0  0  0  0  0  0  0  0  0  0  0  0
   43.8668    6.5326   -6.7285 C   0  0  2  0  0  0  0  0  0  0  0  0
   43.1655    6.6222   -5.5119 O   0  0  0  0  0  0  0  0  0  0  0  0
   41.5242    8.9527   -2.6640 C   0  0  0  0  0  0  0  0  0  0  0  0
   40.5575    9.0628   -1.5719 O   0  0  0  0  0  0  0  0  0  0  0  0
   42.7588    5.6815    0.7195 C   0  0  1  0  0  0  0  0  0  0  0  0
   42.0773    6.3345   -0.4648 O   0  0  0  0  0  0  0  0  0  0  0  0
   44.4997    5.1862   -2.6694 C   0  0  0  0  0  0  0  0  0  0  0  0
   44.8628    6.4199   -3.0453 O   0  0  0  0  0  0  0  0  0  0  0  0
   43.7966    7.8766   -7.5717 C   0  0  1  0  0  0  0  0  0  0  0  0
   44.4682    8.9030   -6.9071 O   0  0  0  0  0  0  0  0  0  0  0  0
   38.6559    4.5137   -5.7368 C   0  0  0  0  0  0  0  0  0  0  0  0
   44.0427    6.4320    1.2110 C   0  0  0  0  0  0  0  0  0  0  0  0
   44.9435    6.7578    0.1427 N   0  0  0  0  0  0  0  0  0  0  0  0
   39.4569    3.2503   -6.0547 C   0  0  0  0  0  0  0  0  0  0  0  0
   38.5072    2.1216   -6.0075 N   0  0  0  0  0  0  0  0  0  0  0  0
   38.9879    0.7526   -6.4935 C   0  0  0  0  0  0  0  0  0  0  0  0
  1  2  1  1  0  0  0
  1  8  1  0  0  0  0
  1 33  1  0  0  0  0
  3  4  1  6  0  0  0
  3 10  1  0  0  0  0
  3 42  1  0  0  0  0
  5 11  1  0  0  0  0
  5 29  1  0  0  0  0
  5 35  1  1  0  0  0
  6 13  1  0  0  0  0
  6 39  1  0  0  0  0
  6 22  1  6  0  0  0
  7 15  1  0  0  0  0
  8  9  1  6  0  0  0
  8 17  1  0  0  0  0
 10 19  1  0  0  0  0
 11 12  1  6  0  0  0
 11 21  1  0  0  0  0
 12 44  1  0  0  0  0
 13 14  1  1  0  0  0
 13 23  1  0  0  0  0
 15 16  1  0  0  0  0
 17 18  1  1  0  0  0
 17 25  1  0  0  0  0
 19 20  1  6  0  0  0
 19 27  1  0  0  0  0
 21 22  1  6  0  0  0
 21 28  1  0  0  0  0
 23 24  1  6  0  0  0
 23 30  1  0  0  0  0
 25 26  1  1  0  0  0
 25 32  1  0  0  0  0
 27  2  1  1  0  0  0
 27 34  1  0  0  0  0
 28 29  1  0  0  0  0
 28 36  1  1  0  0  0
 30 31  1  6  0  0  0
 30 38  1  0  0  0  0
 32 33  1  0  0  0  0
 32 40  1  1  0  0  0
 34 35  1  1  0  0  0
 34 42  1  0  0  0  0
 36 37  1  0  0  0  0
 38 39  1  0  0  0  0
 38 45  1  1  0  0  0
 40 41  1  0  0  0  0
 42 43  1  1  0  0  0
 44 47  1  0  0  0  0
 45 46  1  0  0  0  0
 47 48  1  0  0  0  0
 48 49  1  0  0  0  0
 49  7  1  0  0  0  0
M  END
>  <CHROM.1>
-166.79666290,100.38919706,-173.44264812,-63.51911391,147.00014776,-58.21195641
71.48290308,71.67391894,-58.53688232,169.79410456,-38.27834790,-165.64715888
173.27043003,170.92868749,77.21791814,57.70939723,42.13449164,5.11094303
-3.99255624,1.07997085,-1.08590964,-2.11836775

>  <Name>
2bee_lig

>  <RI>
3.46266e+07

>  <Rbt.Current_Directory>
/home/itssahil/PROJECTS/Mol_Feturizer/New_Systems/rnas/2bee

>  <Rbt.Executable>
rbdock ($Id: //depot/dev/client3/rdock/2013.1/src/exe/rbdock.cxx#4 $)

>  <Rbt.Library>
libRbt.so (2013.1, Build901 2013/11/27)

>  <Rbt.Parameter_File>
/export/apps/rDock/src/rDock_2013.1_src/data/scripts/dock_solv.prm

>  <Rbt.Receptor>
prm/pocket_docking_4.prm

>  <SCORE>
-19.8831

>  <SCORE.INTER>
-11.7084

>  <SCORE.INTER.CONST>
1

>  <SCORE.INTER.POLAR>
-1.84397

>  <SCORE.INTER.ROT>
16

>  <SCORE.INTER.SOLV>
17.8466

>  <SCORE.INTER.VDW>
-21.8746

>  <SCORE.INTER.norm>
-0.238947

>  <SCORE.INTRA>
-8.20262

>  <SCORE.INTRA.DIHEDRAL>
-16.7982

>  <SCORE.INTRA.DIHEDRAL.0>
36.0842

>  <SCORE.INTRA.POLAR>
0

>  <SCORE.INTRA.POLAR.0>
0

>  <SCORE.INTRA.REPUL>
0

>  <SCORE.INTRA.REPUL.0>
0

>  <SCORE.INTRA.SOLV>
4.74705

>  <SCORE.INTRA.SOLV.lig_0>
-126.444

>  <SCORE.INTRA.VDW>
-2.17704

>  <SCORE.INTRA.VDW.0>
-7.40469

>  <SCORE.INTRA.norm>
-0.1674

>  <SCORE.RESTR>
0.027912

>  <SCORE.RESTR.CAVITY>
0.027912

>  <SCORE.RESTR.norm>
0.000569632

>  <SCORE.SYSTEM>
0

>  <SCORE.SYSTEM.CONST>
0

>  <SCORE.SYSTEM.DIHEDRAL>
0

>  <SCORE.SYSTEM.SOLV>
0

>  <SCORE.SYSTEM.norm>
0

>  <SCORE.heavy>
49

>  <SCORE.norm>
-0.405778

>  <RMSD>
5.291

$$$$
2bee_lig
 OpenBabel11021811423D
libRbt.so/2013.1/901 2013/11/27
 49 52  0  0  0  0  0  0  0  0999 V2000
   44.1577    2.6047   -7.2037 C   0  0  2  0  0  0  0  0  0  0  0  0
   44.4938    3.3738   -8.3516 O   0  0  0  0  0  0  0  0  0  0  0  0
   44.5525    7.7154   -9.0737 C   0  0  2  0  0  0  0  0  0  0  0  0
   44.0530    9.1049   -9.2595 N   0  0  0  0  0  0  0  0  0  0  0  0
   44.3866    5.6756   -4.9903 C   0  0  1  0  0  0  0  0  0  0  0  0
   42.8493    9.6104   -2.6845 C   0  0  1  0  0  0  0  0  0  0  0  0
   42.1784    1.0665   -0.5078 C   0  0  0  0  0  0  0  0  0  0  0  0
   44.9527    1.2420   -7.2051 C   0  0  2  0  0  0  0  0  0  0  0  0
   46.3844    1.4985   -7.3189 N   0  0  0  0  0  0  0  0  0  0  0  0
   43.8342    6.7507  -10.1231 C   0  0  0  0  0  0  0  0  0  0  0  0
   44.8697    6.6042   -3.9240 C   0  0  2  0  0  0  0  0  0  0  0  0
   45.2176    5.9098   -2.6722 O   0  0  0  0  0  0  0  0  0  0  0  0
   44.0504    9.6466   -1.5950 C   0  0  2  0  0  0  0  0  0  0  0  0
   44.4543    8.2316   -1.2990 N   0  0  0  0  0  0  0  0  0  0  0  0
   41.6216    0.6589   -1.7425 C   0  0  0  0  0  0  0  0  0  0  0  0
   42.3864   -0.0872   -2.6365 N   0  0  0  0  0  0  0  0  0  0  0  0
   44.4250    0.3269   -8.3951 C   0  0  1  0  0  0  0  0  0  0  0  0
   45.1428   -0.8986   -8.3855 O   0  0  0  0  0  0  0  0  0  0  0  0
   44.3473    5.2094   -9.9419 C   0  0  2  0  0  0  0  0  0  0  0  0
   43.7188    4.3424  -10.8798 N   0  0  0  0  0  0  0  0  0  0  0  0
   43.7143    7.5727   -4.0016 C   0  0  2  0  0  0  0  0  0  0  0  0
   43.3933    8.8992   -3.8221 O   0  0  0  0  0  0  0  0  0  0  0  0
   43.5230   10.3578   -0.2979 C   0  0  1  0  0  0  0  0  0  0  0  0
   43.1646   11.7350   -0.6674 O   0  0  0  0  0  0  0  0  0  0  0  0
   42.9078    0.0887   -8.2148 C   0  0  2  0  0  0  0  0  0  0  0  0
   42.3701   -0.7505   -9.3160 O   0  0  0  0  0  0  0  0  0  0  0  0
   44.0433    4.7132   -8.4748 C   0  0  2  0  0  0  0  0  0  0  0  0
   42.4614    6.6094   -4.3013 C   0  0  2  0  0  0  0  0  0  0  0  0
   42.9984    5.7111   -5.1608 O   0  0  0  0  0  0  0  0  0  0  0  0
   42.2359    9.5358    0.2775 C   0  0  2  0  0  0  0  0  0  0  0  0
   42.6081    8.1506    0.6436 O   0  0  0  0  0  0  0  0  0  0  0  0
   42.1311    1.4476   -8.2091 C   0  0  2  0  0  0  0  0  0  0  0  0
   42.7126    2.2131   -7.1227 O   0  0  0  0  0  0  0  0  0  0  0  0
   44.7654    5.6920   -7.4885 C   0  0  2  0  0  0  0  0  0  0  0  0
   44.4511    5.1492   -6.2289 O   0  0  0  0  0  0  0  0  0  0  0  0
   41.2135    7.2283   -5.0331 C   0  0  0  0  0  0  0  0  0  0  0  0
   40.1468    6.2300   -5.1034 O   0  0  0  0  0  0  0  0  0  0  0  0
   41.0876    9.4750   -0.8256 C   0  0  1  0  0  0  0  0  0  0  0  0
   41.6898    8.8261   -2.0544 O   0  0  0  0  0  0  0  0  0  0  0  0
   40.7053    1.1267   -8.0097 C   0  0  0  0  0  0  0  0  0  0  0  0
   39.9555    2.2306   -8.1294 O   0  0  0  0  0  0  0  0  0  0  0  0
   44.2250    7.1751   -7.6638 C   0  0  1  0  0  0  0  0  0  0  0  0
   44.8816    8.0387   -6.7866 O   0  0  0  0  0  0  0  0  0  0  0  0
   44.2499    5.3205   -1.7323 C   0  0  0  0  0  0  0  0  0  0  0  0
   39.9243    8.6527   -0.1746 C   0  0  0  0  0  0  0  0  0  0  0  0
   38.7900    8.5063   -1.0409 N   0  0  0  0  0  0  0  0  0  0  0  0
   43.7536    3.9858   -2.2901 C   0  0  0  0  0  0  0  0  0  0  0  0
   42.8705    3.3981   -1.2640 N   0  0  0  0  0  0  0  0  0  0  0  0
   43.3544    2.1490   -0.5244 C   0  0  0  0  0  0  0  0  0  0  0  0
  1  2  1  6  0  0  0
  1  8  1  0  0  0  0
  1 33  1  0  0  0  0
  3  4  1  1  0  0  0
  3 10  1  0  0  0  0
  3 42  1  0  0  0  0
  5 11  1  0  0  0  0
  5 29  1  0  0  0  0
  5 35  1  6  0  0  0
  6 13  1  0  0  0  0
  6 39  1  0  0  0  0
  6 22  1  6  0  0  0
  7 15  1  0  0  0  0
  8  9  1  6  0  0  0
  8 17  1  0  0  0  0
 10 19  1  0  0  0  0
 11 12  1  1  0  0  0
 11 21  1  0  0  0  0
 12 44  1  0  0  0  0
 13 14  1  1  0  0  0
 13 23  1  0  0  0  0
 15 16  1  0  0  0  0
 17 18  1  1  0  0  0
 17 25  1  0  0  0  0
 19 20  1  6  0  0  0
 19 27  1  0  0  0  0
 21 22  1  1  0  0  0
 21 28  1  0  0  0  0
 23 24  1  6  0  0  0
 23 30  1  0  0  0  0
 25 26  1  6  0  0  0
 25 32  1  0  0  0  0
 27  2  1  6  0  0  0
 27 34  1  0  0  0  0
 28 29  1  0  0  0  0
 28 36  1  6  0  0  0
 30 31  1  6  0  0  0
 30 38  1  0  0  0  0
 32 33  1  0  0  0  0
 32 40  1  1  0  0  0
 34 35  1  1  0  0  0
 34 42  1  0  0  0  0
 36 37  1  0  0  0  0
 38 39  1  0  0  0  0
 38 45  1  1  0  0  0
 40 41  1  0  0  0  0
 42 43  1  1  0  0  0
 44 47  1  0  0  0  0
 45 46  1  0  0  0  0
 47 48  1  0  0  0  0
 48 49  1  0  0  0  0
 49  7  1  0  0  0  0
M  END
>  <CHROM.1>
-171.40469468,-36.19083185,70.89232011,68.05806458,-72.19744894,77.64180583
-94.78540965,-169.98340849,-174.99893855,-173.69683206,-156.00656205,179.63577782
175.82808862,-110.63261056,-132.53811507,55.93743915,43.17468560,5.25326586
-4.91916339,1.09389067,-1.34144369,-2.82017258

>  <Name>
2bee_lig

>  <RI>
0

>  <Rbt.Current_Directory>
/home/itssahil/PROJECTS/Mol_Feturizer/New_Systems/rnas/2bee

>  <Rbt.Executable>
rbdock ($Id: //depot/dev/client3/rdock/2013.1/src/exe/rbdock.cxx#4 $)

>  <Rbt.Library>
libRbt.so (2013.1, Build901 2013/11/27)

>  <Rbt.Parameter_File>
/export/apps/rDock/src/rDock_2013.1_src/data/scripts/dock_solv.prm

>  <Rbt.Receptor>
prm/pocket_docking_6.prm

>  <SCORE>
-26.6255

>  <SCORE.INTER>
-17.334

>  <SCORE.INTER.CONST>
1

>  <SCORE.INTER.POLAR>
-3.60991

>  <SCORE.INTER.ROT>
16

>  <SCORE.INTER.SOLV>
20.7633

>  <SCORE.INTER.VDW>
-20.7108

>  <SCORE.INTER.norm>
-0.353756

>  <SCORE.INTRA>
-9.29147

>  <SCORE.INTRA.DIHEDRAL>
-20.8526

>  <SCORE.INTRA.DIHEDRAL.0>
36.0842

>  <SCORE.INTRA.POLAR>
0

>  <SCORE.INTRA.POLAR.0>
0

>  <SCORE.INTRA.REPUL>
0.0480089

>  <SCORE.INTRA.REPUL.0>
0

>  <SCORE.INTRA.SOLV>
0.578799

>  <SCORE.INTRA.SOLV.lig_0>
-126.444

>  <SCORE.INTRA.VDW>
0.605379

>  <SCORE.INTRA.VDW.0>
-7.40469

>  <SCORE.INTRA.norm>
-0.189622

>  <SCORE.RESTR>
0

>  <SCORE.RESTR.CAVITY>
0

>  <SCORE.RESTR.norm>
0

>  <SCORE.SYSTEM>
0

>  <SCORE.SYSTEM.CONST>
0

>  <SCORE.SYSTEM.DIHEDRAL>
0

>  <SCORE.SYSTEM.SOLV>
0

>  <SCORE.SYSTEM.norm>
0

>  <SCORE.heavy>
49

>  <SCORE.norm>
-0.543378

>  <RMSD>
5.556

$$$$
2bee_lig
 OpenBabel11021811423D
libRbt.so/2013.1/901 2013/11/27
 49 52  0  0  0  0  0  0  0  0999 V2000
   42.7202    5.8520   -8.6431 C   0  0  2  0  0  0  0  0  0  0  0  0
   43.7036    5.0280   -9.2564 O   0  0  0  0  0  0  0  0  0  0  0  0
   43.9463    0.6333   -9.2129 C   0  0  2  0  0  0  0  0  0  0  0  0
   44.2433   -0.7421   -8.7282 N   0  0  0  0  0  0  0  0  0  0  0  0
   40.5551    3.2211   -7.4519 C   0  0  1  0  0  0  0  0  0  0  0  0
   38.8293    2.6459   -3.1299 C   0  0  1  0  0  0  0  0  0  0  0  0
   35.9942   -2.6986   -7.5483 C   0  0  0  0  0  0  0  0  0  0  0  0
   42.6703    7.2626   -9.3478 C   0  0  2  0  0  0  0  0  0  0  0  0
   42.4604    7.0978  -10.7822 N   0  0  0  0  0  0  0  0  0  0  0  0
   45.2881    1.4977   -9.2053 C   0  0  0  0  0  0  0  0  0  0  0  0
   39.6825    2.3963   -6.5627 C   0  0  2  0  0  0  0  0  0  0  0  0
   38.5387    1.7994   -7.2738 O   0  0  0  0  0  0  0  0  0  0  0  0
   38.6888    3.5200   -1.7708 C   0  0  2  0  0  0  0  0  0  0  0  0
   40.0239    4.1385   -1.4739 N   0  0  0  0  0  0  0  0  0  0  0  0
   37.1637   -2.6042   -8.3384 C   0  0  0  0  0  0  0  0  0  0  0  0
   37.3728   -3.5058   -9.3796 N   0  0  0  0  0  0  0  0  0  0  0  0
   44.0171    8.0520   -9.0396 C   0  0  1  0  0  0  0  0  0  0  0  0
   43.9610    9.3216   -9.6737 O   0  0  0  0  0  0  0  0  0  0  0  0
   45.0006    3.0223   -9.7197 C   0  0  2  0  0  0  0  0  0  0  0  0
   46.1936    3.7989   -9.7251 N   0  0  0  0  0  0  0  0  0  0  0  0
   39.4942    3.4400   -5.4884 C   0  0  2  0  0  0  0  0  0  0  0  0
   39.2852    3.5826   -4.1353 O   0  0  0  0  0  0  0  0  0  0  0  0
   38.2483    2.5616   -0.6073 C   0  0  1  0  0  0  0  0  0  0  0  0
   36.9327    2.0118   -0.9660 O   0  0  0  0  0  0  0  0  0  0  0  0
   44.1784    8.1975   -7.5086 C   0  0  2  0  0  0  0  0  0  0  0  0
   45.4343    8.9170   -7.1755 O   0  0  0  0  0  0  0  0  0  0  0  0
   43.9261    3.7075   -8.7886 C   0  0  2  0  0  0  0  0  0  0  0  0
   39.4273    4.8093   -6.3299 C   0  0  2  0  0  0  0  0  0  0  0  0
   40.3637    4.5970   -7.2849 O   0  0  0  0  0  0  0  0  0  0  0  0
   39.3643    1.3838   -0.4324 C   0  0  2  0  0  0  0  0  0  0  0  0
   40.6846    1.9493   -0.0741 O   0  0  0  0  0  0  0  0  0  0  0  0
   44.2206    6.7922   -6.8206 C   0  0  2  0  0  0  0  0  0  0  0  0
   42.9762    6.1480   -7.1956 O   0  0  0  0  0  0  0  0  0  0  0  0
   42.6356    2.8212   -8.8288 C   0  0  2  0  0  0  0  0  0  0  0  0
   41.7493    3.5280   -7.9953 O   0  0  0  0  0  0  0  0  0  0  0  0
   39.8346    6.1434   -5.6018 C   0  0  0  0  0  0  0  0  0  0  0  0
   41.1782    6.0005   -5.0415 O   0  0  0  0  0  0  0  0  0  0  0  0
   39.5171    0.5682   -1.7929 C   0  0  1  0  0  0  0  0  0  0  0  0
   39.8904    1.5680   -2.8674 O   0  0  0  0  0  0  0  0  0  0  0  0
   44.3512    7.0277   -5.3704 C   0  0  0  0  0  0  0  0  0  0  0  0
   45.5850    7.4589   -5.0750 O   0  0  0  0  0  0  0  0  0  0  0  0
   42.9365    1.3564   -8.2940 C   0  0  1  0  0  0  0  0  0  0  0  0
   41.7822    0.5744   -8.3429 O   0  0  0  0  0  0  0  0  0  0  0  0
   37.4611    1.0199   -6.6427 C   0  0  0  0  0  0  0  0  0  0  0  0
   40.6184   -0.5099   -1.5136 C   0  0  0  0  0  0  0  0  0  0  0  0
   40.2131   -1.4848   -0.5421 N   0  0  0  0  0  0  0  0  0  0  0  0
   36.5500    0.4471   -7.7293 C   0  0  0  0  0  0  0  0  0  0  0  0
   35.4564   -0.2621   -7.0371 N   0  0  0  0  0  0  0  0  0  0  0  0
   35.7665   -1.6158   -6.3947 C   0  0  0  0  0  0  0  0  0  0  0  0
  1  2  1  6  0  0  0
  1  8  1  0  0  0  0
  1 33  1  0  0  0  0
  3  4  1  1  0  0  0
  3 10  1  0  0  0  0
  3 42  1  0  0  0  0
  5 11  1  0  0  0  0
  5 29  1  0  0  0  0
  5 35  1  1  0  0  0
  6 13  1  0  0  0  0
  6 39  1  0  0  0  0
  6 22  1  6  0  0  0
  7 15  1  0  0  0  0
  8  9  1  6  0  0  0
  8 17  1  0  0  0  0
 10 19  1  0  0  0  0
 11 12  1  6  0  0  0
 11 21  1  0  0  0  0
 12 44  1  0  0  0  0
 13 14  1  1  0  0  0
 13 23  1  0  0  0  0
 15 16  1  0  0  0  0
 17 18  1  6  0  0  0
 17 25  1  0  0  0  0
 19 20  1  1  0  0  0
 19 27  1  0  0  0  0
 21 22  1  6  0  0  0
 21 28  1  0  0  0  0
 23 24  1  6  0  0  0
 23 30  1  0  0  0  0
 25 26  1  6  0  0  0
 25 32  1  0  0  0  0
 27  2  1  6  0  0  0
 27 34  1  0  0  0  0
 28 29  1  0  0  0  0
 28 36  1  1  0  0  0
 30 31  1  6  0  0  0
 30 38  1  0  0  0  0
 32 33  1  0  0  0  0
 32 40  1  1  0  0  0
 34 35  1  1  0  0  0
 34 42  1  0  0  0  0
 36 37  1  0  0  0  0
 38 39  1  0  0  0  0
 38 45  1  1  0  0  0
 40 41  1  0  0  0  0
 42 43  1  6  0  0  0
 44 47  1  0  0  0  0
 45 46  1  0  0  0  0
 47 48  1  0  0  0  0
 48 49  1  0  0  0  0
 49  7  1  0  0  0  0
M  END
>  <CHROM.1>
-179.90984137,62.13849744,-175.10674286,-177.96927611,-175.43743061,-173.85361410
-17.27705396,176.42073864,55.02527139,-72.52741085,-168.67848928,65.94286394
-177.17783590,-74.63838164,-70.95625302,70.27262182,41.04953141,3.14675892
-6.27193783,0.07860921,-0.89371814,-2.05771657

>  <Name>
2bee_lig

>  <RI>
0

>  <Rbt.Current_Directory>
/home/itssahil/PROJECTS/Mol_Feturizer/New_Systems/rnas/2bee

>  <Rbt.Executable>
rbdock ($Id: //depot/dev/client3/rdock/2013.1/src/exe/rbdock.cxx#4 $)

>  <Rbt.Library>
libRbt.so (2013.1, Build901 2013/11/27)

>  <Rbt.Parameter_File>
/export/apps/rDock/src/rDock_2013.1_src/data/scripts/dock_solv.prm

>  <Rbt.Receptor>
prm/pocket_docking_6.prm

>  <SCORE>
-17.9319

>  <SCORE.INTER>
-5.82951

>  <SCORE.INTER.CONST>
1

>  <SCORE.INTER.POLAR>
-0.938083

>  <SCORE.INTER.ROT>
16

>  <SCORE.INTER.SOLV>
18.0857

>  <SCORE.INTER.VDW>
-21.0546

>  <SCORE.INTER.norm>
-0.11897

>  <SCORE.INTRA>
-12.1024

>  <SCORE.INTRA.DIHEDRAL>
-29.2882

>  <SCORE.INTRA.DIHEDRAL.0>
36.0842

>  <SCORE.INTRA.POLAR>
0

>  <SCORE.INTRA.POLAR.0>
0

>  <SCORE.INTRA.REPUL>
0.252652

>  <SCORE.INTRA.REPUL.0>
0

>  <SCORE.INTRA.SOLV>
-3.09504

>  <SCORE.INTRA.SOLV.lig_0>
-126.444

>  <SCORE.INTRA.VDW>
2.82592

>  <SCORE.INTRA.VDW.0>
-7.40469

>  <SCORE.INTRA.norm>
-0.246988

>  <SCORE.RESTR>
0

>  <SCORE.RESTR.CAVITY>
0

>  <SCORE.RESTR.norm>
0

>  <SCORE.SYSTEM>
0

>  <SCORE.SYSTEM.CONST>
0

>  <SCORE.SYSTEM.DIHEDRAL>
0

>  <SCORE.SYSTEM.SOLV>
0

>  <SCORE.SYSTEM.norm>
0

>  <SCORE.heavy>
49

>  <SCORE.norm>
-0.365958

>  <RMSD>
5.636

$$$$
2bee_lig
 OpenBabel11021811423D
libRbt.so/2013.1/901 2013/11/27
 49 52  0  0  0  0  0  0  0  0999 V2000
   44.9072    4.3272   -7.1061 C   0  0  2  0  0  0  0  0  0  0  0  0
   44.9678    4.8368   -5.7799 O   0  0  0  0  0  0  0  0  0  0  0  0
   45.2553    1.0952   -3.4795 C   0  0  2  0  0  0  0  0  0  0  0  0
   45.4538    0.1824   -2.3210 N   0  0  0  0  0  0  0  0  0  0  0  0
   42.4849    4.7791   -3.3468 C   0  0  1  0  0  0  0  0  0  0  0  0
   42.4846    9.4541   -2.2603 C   0  0  1  0  0  0  0  0  0  0  0  0
   41.3909    7.0554    3.5510 C   0  0  0  0  0  0  0  0  0  0  0  0
   44.7578    5.5088   -8.1408 C   0  0  2  0  0  0  0  0  0  0  0  0
   45.8322    6.4776   -7.9521 N   0  0  0  0  0  0  0  0  0  0  0  0
   46.5484    2.0141   -3.6563 C   0  0  0  0  0  0  0  0  0  0  0  0
   42.8564    5.7652   -2.2875 C   0  0  2  0  0  0  0  0  0  0  0  0
   42.3261    5.4091   -0.9600 O   0  0  0  0  0  0  0  0  0  0  0  0
   43.8357    9.4687   -1.3628 C   0  0  2  0  0  0  0  0  0  0  0  0
   43.9605    8.1346   -0.6862 N   0  0  0  0  0  0  0  0  0  0  0  0
   40.8891    7.5883    4.7614 C   0  0  0  0  0  0  0  0  0  0  0  0
   41.4731    8.7259    5.3141 N   0  0  0  0  0  0  0  0  0  0  0  0
   43.3258    6.1809   -7.9680 C   0  0  1  0  0  0  0  0  0  0  0  0
   43.1988    7.2396   -8.9061 O   0  0  0  0  0  0  0  0  0  0  0  0
   46.3638    3.0424   -4.9133 C   0  0  2  0  0  0  0  0  0  0  0  0
   47.5161    3.8603   -5.0847 N   0  0  0  0  0  0  0  0  0  0  0  0
   42.3902    6.9964   -3.0260 C   0  0  2  0  0  0  0  0  0  0  0  0
   42.6487    8.3407   -3.1710 O   0  0  0  0  0  0  0  0  0  0  0  0
   43.7155   10.6212   -0.3030 C   0  0  1  0  0  0  0  0  0  0  0  0
   43.6130   11.8881   -1.0421 O   0  0  0  0  0  0  0  0  0  0  0  0
   42.2343    5.1071   -8.1843 C   0  0  2  0  0  0  0  0  0  0  0  0
   40.8787    5.6902   -8.0162 O   0  0  0  0  0  0  0  0  0  0  0  0
   45.0969    3.9537   -4.6774 C   0  0  2  0  0  0  0  0  0  0  0  0
   41.0787    6.4741   -3.7973 C   0  0  2  0  0  0  0  0  0  0  0  0
   41.4557    5.2309   -4.1799 O   0  0  0  0  0  0  0  0  0  0  0  0
   42.3993   10.3594    0.6257 C   0  0  2  0  0  0  0  0  0  0  0  0
   42.5127    9.0805    1.3626 O   0  0  0  0  0  0  0  0  0  0  0  0
   42.3966    3.9380   -7.1563 C   0  0  2  0  0  0  0  0  0  0  0  0
   43.7373    3.4272   -7.3703 O   0  0  0  0  0  0  0  0  0  0  0  0
   43.8615    3.0065   -4.5075 C   0  0  2  0  0  0  0  0  0  0  0  0
   42.7997    3.9124   -4.3293 O   0  0  0  0  0  0  0  0  0  0  0  0
   40.6455    7.2270   -5.1093 C   0  0  0  0  0  0  0  0  0  0  0  0
   39.4722    6.5683   -5.6826 O   0  0  0  0  0  0  0  0  0  0  0  0
   41.0909   10.3043   -0.2822 C   0  0  1  0  0  0  0  0  0  0  0  0
   41.3088    9.2082   -1.3044 O   0  0  0  0  0  0  0  0  0  0  0  0
   41.3357    2.9566   -7.4508 C   0  0  0  0  0  0  0  0  0  0  0  0
   40.1537    3.3938   -6.9958 O   0  0  0  0  0  0  0  0  0  0  0  0
   44.0537    2.0414   -3.2609 C   0  0  1  0  0  0  0  0  0  0  0  0
   42.9515    1.1971   -3.1252 O   0  0  0  0  0  0  0  0  0  0  0  0
   40.8982    5.3294   -0.6109 C   0  0  0  0  0  0  0  0  0  0  0  0
   39.9067   10.0300    0.7054 C   0  0  0  0  0  0  0  0  0  0  0  0
   38.6323    9.9733    0.0487 N   0  0  0  0  0  0  0  0  0  0  0  0
   40.7409    4.5482    0.6945 C   0  0  0  0  0  0  0  0  0  0  0  0
   41.5000    5.2838    1.7244 N   0  0  0  0  0  0  0  0  0  0  0  0
   40.7720    5.6849    3.0092 C   0  0  0  0  0  0  0  0  0  0  0  0
  1  2  1  1  0  0  0
  1  8  1  0  0  0  0
  1 33  1  0  0  0  0
  3  4  1  1  0  0  0
  3 10  1  0  0  0  0
  3 42  1  0  0  0  0
  5 11  1  0  0  0  0
  5 29  1  0  0  0  0
  5 35  1  6  0  0  0
  6 13  1  0  0  0  0
  6 39  1  0  0  0  0
  6 22  1  6  0  0  0
  7 15  1  0  0  0  0
  8  9  1  1  0  0  0
  8 17  1  0  0  0  0
 10 19  1  0  0  0  0
 11 12  1  1  0  0  0
 11 21  1  0  0  0  0
 12 44  1  0  0  0  0
 13 14  1  1  0  0  0
 13 23  1  0  0  0  0
 15 16  1  0  0  0  0
 17 18  1  6  0  0  0
 17 25  1  0  0  0  0
 19 20  1  1  0  0  0
 19 27  1  0  0  0  0
 21 22  1  1  0  0  0
 21 28  1  0  0  0  0
 23 24  1  6  0  0  0
 23 30  1  0  0  0  0
 25 26  1  1  0  0  0
 25 32  1  0  0  0  0
 27  2  1  6  0  0  0
 27 34  1  0  0  0  0
 28 29  1  0  0  0  0
 28 36  1  6  0  0  0
 30 31  1  6  0  0  0
 30 38  1  0  0  0  0
 32 33  1  0  0  0  0
 32 40  1  6  0  0  0
 34 35  1  1  0  0  0
 34 42  1  0  0  0  0
 36 37  1  0  0  0  0
 38 39  1  0  0  0  0
 38 45  1  1  0  0  0
 40 41  1  0  0  0  0
 42 43  1  6  0  0  0
 44 47  1  0  0  0  0
 45 46  1  0  0  0  0
 47 48  1  0  0  0  0
 48 49  1  0  0  0  0
 49  7  1  0  0  0  0
M  END
>  <CHROM.1>
179.73327944,36.26902304,84.76616153,175.19741102,-63.72067857,163.41885165
-68.29367039,54.77271027,177.70222479,-76.18442388,-67.25419221,178.92285462
59.74633169,125.95645903,-148.33237947,-178.01461413,42.70068077,5.98448886
-3.04337963,0.82338922,1.21247125,-1.38391622

>  <Name>
2bee_lig

>  <RI>
0

>  <Rbt.Current_Directory>
/home/itssahil/PROJECTS/Mol_Feturizer/New_Systems/rnas/2bee

>  <Rbt.Executable>
rbdock ($Id: //depot/dev/client3/rdock/2013.1/src/exe/rbdock.cxx#4 $)

>  <Rbt.Library>
libRbt.so (2013.1, Build901 2013/11/27)

>  <Rbt.Parameter_File>
/export/apps/rDock/src/rDock_2013.1_src/data/scripts/dock_solv.prm

>  <Rbt.Receptor>
prm/pocket_docking_5.prm

>  <SCORE>
-14.8588

>  <SCORE.INTER>
-3.29551

>  <SCORE.INTER.CONST>
1

>  <SCORE.INTER.POLAR>
-0.87178

>  <SCORE.INTER.ROT>
16

>  <SCORE.INTER.SOLV>
16.3793

>  <SCORE.INTER.VDW>
-19.0175

>  <SCORE.INTER.norm>
-0.0672553

>  <SCORE.INTRA>
-11.5633

>  <SCORE.INTRA.DIHEDRAL>
-21.2553

>  <SCORE.INTRA.DIHEDRAL.0>
36.0842

>  <SCORE.INTRA.POLAR>
0

>  <SCORE.INTRA.POLAR.0>
0

>  <SCORE.INTRA.REPUL>
0.0142338

>  <SCORE.INTRA.REPUL.0>
0

>  <SCORE.INTRA.SOLV>
0.04942

>  <SCORE.INTRA.SOLV.lig_0>
-126.444

>  <SCORE.INTRA.VDW>
-1.03152

>  <SCORE.INTRA.VDW.0>
-7.40469

>  <SCORE.INTRA.norm>
-0.235986

>  <SCORE.RESTR>
0

>  <SCORE.RESTR.CAVITY>
0

>  <SCORE.RESTR.norm>
0

>  <SCORE.SYSTEM>
0

>  <SCORE.SYSTEM.CONST>
0

>  <SCORE.SYSTEM.DIHEDRAL>
0

>  <SCORE.SYSTEM.SOLV>
0

>  <SCORE.SYSTEM.norm>
0

>  <SCORE.heavy>
49

>  <SCORE.norm>
-0.303241

>  <RMSD>
5.827

$$$$
2bee_lig
 OpenBabel11021811423D
libRbt.so/2013.1/901 2013/11/27
 49 52  0  0  0  0  0  0  0  0999 V2000
   43.2905    3.4214   -7.7112 C   0  0  2  0  0  0  0  0  0  0  0  0
   44.3443    4.2864   -7.3070 O   0  0  0  0  0  0  0  0  0  0  0  0
   47.1897    1.4351   -5.5326 C   0  0  2  0  0  0  0  0  0  0  0  0
   48.3759    0.9281   -4.7905 N   0  0  0  0  0  0  0  0  0  0  0  0
   44.2998    4.7414   -3.9877 C   0  0  1  0  0  0  0  0  0  0  0  0
   41.8422    7.8633   -1.3783 C   0  0  1  0  0  0  0  0  0  0  0  0
   49.7466    6.0542   -6.1762 C   0  0  0  0  0  0  0  0  0  0  0  0
   42.4712    4.0707   -8.8927 C   0  0  2  0  0  0  0  0  0  0  0  0
   43.3681    4.4250   -9.9876 N   0  0  0  0  0  0  0  0  0  0  0  0
   47.6736    2.4089   -6.7011 C   0  0  0  0  0  0  0  0  0  0  0  0
   43.9687    6.1793   -3.7521 C   0  0  2  0  0  0  0  0  0  0  0  0
   45.1449    7.0617   -3.8422 O   0  0  0  0  0  0  0  0  0  0  0  0
   43.0728    8.4338   -0.4889 C   0  0  2  0  0  0  0  0  0  0  0  0
   43.2293    7.5483    0.7130 N   0  0  0  0  0  0  0  0  0  0  0  0
   50.9504    5.5792   -6.7471 C   0  0  0  0  0  0  0  0  0  0  0  0
   52.0925    5.4586   -5.9586 N   0  0  0  0  0  0  0  0  0  0  0  0
   41.6808    5.3401   -8.3487 C   0  0  1  0  0  0  0  0  0  0  0  0
   40.9430    5.9149   -9.4176 O   0  0  0  0  0  0  0  0  0  0  0  0
   46.3962    2.9986   -7.5331 C   0  0  2  0  0  0  0  0  0  0  0  0
   46.8182    3.8614   -8.5836 N   0  0  0  0  0  0  0  0  0  0  0  0
   43.2252    5.9752   -2.4543 C   0  0  2  0  0  0  0  0  0  0  0  0
   42.2048    6.4973   -1.6918 O   0  0  0  0  0  0  0  0  0  0  0  0
   42.7329    9.9046   -0.0561 C   0  0  1  0  0  0  0  0  0  0  0  0
   42.6116   10.7060   -1.2828 O   0  0  0  0  0  0  0  0  0  0  0  0
   40.7472    4.8989   -7.1976 C   0  0  2  0  0  0  0  0  0  0  0  0
   39.9999    6.0593   -6.6490 O   0  0  0  0  0  0  0  0  0  0  0  0
   45.4370    3.7831   -6.5555 C   0  0  2  0  0  0  0  0  0  0  0  0
   44.0505    4.7853   -1.7540 C   0  0  2  0  0  0  0  0  0  0  0  0
   44.3421    3.9883   -2.8094 O   0  0  0  0  0  0  0  0  0  0  0  0
   41.3437    9.9031    0.8004 C   0  0  2  0  0  0  0  0  0  0  0  0
   41.4772    9.0914    2.0311 O   0  0  0  0  0  0  0  0  0  0  0  0
   41.5707    4.2512   -6.0347 C   0  0  2  0  0  0  0  0  0  0  0  0
   42.2770    3.1395   -6.6426 O   0  0  0  0  0  0  0  0  0  0  0  0
   44.9957    2.7872   -5.4304 C   0  0  2  0  0  0  0  0  0  0  0  0
   44.1371    3.5741   -4.6407 O   0  0  0  0  0  0  0  0  0  0  0  0
   43.2971    3.8788   -0.7117 C   0  0  0  0  0  0  0  0  0  0  0  0
   41.9690    3.5468   -1.2268 O   0  0  0  0  0  0  0  0  0  0  0  0
   40.1600    9.2974   -0.0777 C   0  0  1  0  0  0  0  0  0  0  0  0
   40.5874    7.9056   -0.4949 O   0  0  0  0  0  0  0  0  0  0  0  0
   40.6031    3.8421   -4.9993 C   0  0  0  0  0  0  0  0  0  0  0  0
   41.1979    3.0669   -4.0825 O   0  0  0  0  0  0  0  0  0  0  0  0
   46.2526    2.2555   -4.6183 C   0  0  1  0  0  0  0  0  0  0  0  0
   45.8477    1.3631   -3.6253 O   0  0  0  0  0  0  0  0  0  0  0  0
   45.9316    7.3039   -5.0627 C   0  0  0  0  0  0  0  0  0  0  0  0
   38.8956    9.3269    0.8461 C   0  0  0  0  0  0  0  0  0  0  0  0
   38.4826   10.6581    1.1865 N   0  0  0  0  0  0  0  0  0  0  0  0
   46.7171    6.0401   -5.4156 C   0  0  0  0  0  0  0  0  0  0  0  0
   47.8525    5.9685   -4.4755 N   0  0  0  0  0  0  0  0  0  0  0  0
   49.1274    5.2586   -4.9358 C   0  0  0  0  0  0  0  0  0  0  0  0
  1  2  1  1  0  0  0
  1  8  1  0  0  0  0
  1 33  1  0  0  0  0
  3  4  1  1  0  0  0
  3 10  1  0  0  0  0
  3 42  1  0  0  0  0
  5 11  1  0  0  0  0
  5 29  1  0  0  0  0
  5 35  1  6  0  0  0
  6 13  1  0  0  0  0
  6 39  1  0  0  0  0
  6 22  1  1  0  0  0
  7 15  1  0  0  0  0
  8  9  1  6  0  0  0
  8 17  1  0  0  0  0
 10 19  1  0  0  0  0
 11 12  1  1  0  0  0
 11 21  1  0  0  0  0
 12 44  1  0  0  0  0
 13 14  1  1  0  0  0
 13 23  1  0  0  0  0
 15 16  1  0  0  0  0
 17 18  1  6  0  0  0
 17 25  1  0  0  0  0
 19 20  1  6  0  0  0
 19 27  1  0  0  0  0
 21 22  1  1  0  0  0
 21 28  1  0  0  0  0
 23 24  1  6  0  0  0
 23 30  1  0  0  0  0
 25 26  1  1  0  0  0
 25 32  1  0  0  0  0
 27  2  1  6  0  0  0
 27 34  1  0  0  0  0
 28 29  1  0  0  0  0
 28 36  1  1  0  0  0
 30 31  1  1  0  0  0
 30 38  1  0  0  0  0
 32 33  1  0  0  0  0
 32 40  1  1  0  0  0
 34 35  1  1  0  0  0
 34 42  1  0  0  0  0
 36 37  1  0  0  0  0
 38 39  1  0  0  0  0
 38 45  1  1  0  0  0
 40 41  1  0  0  0  0
 42 43  1  1  0  0  0
 44 47  1  0  0  0  0
 45 46  1  0  0  0  0
 47 48  1  0  0  0  0
 48 49  1  0  0  0  0
 49  7  1  0  0  0  0
M  END
>  <CHROM.1>
-161.50126633,117.60067448,-65.62198627,-58.19806525,65.23862859,-70.25258186
-41.77422933,76.71676699,43.22610366,168.89762088,-57.14000991,65.07909995
-75.91208680,-151.91255797,63.35270575,178.90336233,43.94162677,5.45181888
-4.15146732,0.96226526,0.11941993,-2.12411903

>  <Name>
2bee_lig

>  <RI>
2.18182e+07

>  <Rbt.Current_Directory>
/home/itssahil/PROJECTS/Mol_Feturizer/New_Systems/rnas/2bee

>  <Rbt.Executable>
rbdock ($Id: //depot/dev/client3/rdock/2013.1/src/exe/rbdock.cxx#4 $)

>  <Rbt.Library>
libRbt.so (2013.1, Build901 2013/11/27)

>  <Rbt.Parameter_File>
/export/apps/rDock/src/rDock_2013.1_src/data/scripts/dock_solv.prm

>  <Rbt.Receptor>
prm/pocket_docking_3.prm

>  <SCORE>
-7.13615

>  <SCORE.INTER>
-0.44445

>  <SCORE.INTER.CONST>
1

>  <SCORE.INTER.POLAR>
-0.985556

>  <SCORE.INTER.ROT>
16

>  <SCORE.INTER.SOLV>
14.3954

>  <SCORE.INTER.VDW>
-16.0763

>  <SCORE.INTER.norm>
-0.00907042

>  <SCORE.INTRA>
-7.16363

>  <SCORE.INTRA.DIHEDRAL>
-18.6009

>  <SCORE.INTRA.DIHEDRAL.0>
36.0842

>  <SCORE.INTRA.POLAR>
0

>  <SCORE.INTRA.POLAR.0>
0

>  <SCORE.INTRA.REPUL>
0.0997613

>  <SCORE.INTRA.REPUL.0>
0

>  <SCORE.INTRA.SOLV>
2.71343

>  <SCORE.INTRA.SOLV.lig_0>
-126.444

>  <SCORE.INTRA.VDW>
0.28129

>  <SCORE.INTRA.VDW.0>
-7.40469

>  <SCORE.INTRA.norm>
-0.146197

>  <SCORE.RESTR>
0.47193

>  <SCORE.RESTR.CAVITY>
0.47193

>  <SCORE.RESTR.norm>
0.00963122

>  <SCORE.SYSTEM>
0

>  <SCORE.SYSTEM.CONST>
0

>  <SCORE.SYSTEM.DIHEDRAL>
0

>  <SCORE.SYSTEM.SOLV>
0

>  <SCORE.SYSTEM.norm>
0

>  <SCORE.heavy>
49

>  <SCORE.norm>
-0.145636

>  <RMSD>
5.834

$$$$
2bee_lig
 OpenBabel11021811423D
libRbt.so/2013.1/901 2013/11/27
 49 52  0  0  0  0  0  0  0  0999 V2000
   48.9261    1.1875   -6.0819 C   0  0  2  0  0  0  0  0  0  0  0  0
   47.6536    1.0610   -5.4598 O   0  0  0  0  0  0  0  0  0  0  0  0
   45.3935   -0.9973   -8.6267 C   0  0  2  0  0  0  0  0  0  0  0  0
   44.2600   -1.6673   -9.3204 N   0  0  0  0  0  0  0  0  0  0  0  0
   44.9268    3.0807   -6.5982 C   0  0  1  0  0  0  0  0  0  0  0  0
   43.5946    5.7497   -2.8459 C   0  0  1  0  0  0  0  0  0  0  0  0
   37.8424    1.1396   -4.5240 C   0  0  0  0  0  0  0  0  0  0  0  0
   50.0329    1.5099   -5.0049 C   0  0  2  0  0  0  0  0  0  0  0  0
   50.0128    0.5021   -3.9501 N   0  0  0  0  0  0  0  0  0  0  0  0
   45.6939   -1.7531   -7.2533 C   0  0  0  0  0  0  0  0  0  0  0  0
   43.9151    3.2179   -5.5072 C   0  0  2  0  0  0  0  0  0  0  0  0
   42.5281    3.1273   -5.9955 O   0  0  0  0  0  0  0  0  0  0  0  0
   43.2989    7.2289   -3.4420 C   0  0  2  0  0  0  0  0  0  0  0  0
   44.5952    7.9847   -3.4786 N   0  0  0  0  0  0  0  0  0  0  0  0
   38.3111   -0.1415   -4.1499 C   0  0  0  0  0  0  0  0  0  0  0  0
   37.9239   -0.6938   -2.9309 N   0  0  0  0  0  0  0  0  0  0  0  0
   49.7908    2.9712   -4.4236 C   0  0  1  0  0  0  0  0  0  0  0  0
   50.7940    3.2542   -3.4590 O   0  0  0  0  0  0  0  0  0  0  0  0
   46.9267   -1.0377   -6.4534 C   0  0  2  0  0  0  0  0  0  0  0  0
   47.2083   -1.7103   -5.2308 N   0  0  0  0  0  0  0  0  0  0  0  0
   44.4688    4.4922   -4.9171 C   0  0  2  0  0  0  0  0  0  0  0  0
   44.5887    5.1786   -3.7298 O   0  0  0  0  0  0  0  0  0  0  0  0
   42.2635    7.9449   -2.5031 C   0  0  1  0  0  0  0  0  0  0  0  0
   41.0237    7.1551   -2.5340 O   0  0  0  0  0  0  0  0  0  0  0  0
   49.8286    3.9901   -5.5862 C   0  0  2  0  0  0  0  0  0  0  0  0
   49.5908    5.3691   -5.0884 O   0  0  0  0  0  0  0  0  0  0  0  0
   46.5691    0.4711   -6.1583 C   0  0  2  0  0  0  0  0  0  0  0  0
   44.9759    5.2953   -6.2153 C   0  0  2  0  0  0  0  0  0  0  0  0
   45.4987    4.3015   -6.9725 O   0  0  0  0  0  0  0  0  0  0  0  0
   42.8811    8.0347   -0.9951 C   0  0  2  0  0  0  0  0  0  0  0  0
   44.1298    8.8297   -0.9770 O   0  0  0  0  0  0  0  0  0  0  0  0
   48.7305    3.6563   -6.6505 C   0  0  2  0  0  0  0  0  0  0  0  0
   49.0182    2.3014   -7.0814 O   0  0  0  0  0  0  0  0  0  0  0  0
   46.2811    1.1634   -7.5332 C   0  0  2  0  0  0  0  0  0  0  0  0
   46.0007    2.4903   -7.1582 O   0  0  0  0  0  0  0  0  0  0  0  0
   46.1233    6.3552   -6.0257 C   0  0  0  0  0  0  0  0  0  0  0  0
   45.5892    7.6966   -6.2598 O   0  0  0  0  0  0  0  0  0  0  0  0
   43.2052    6.5735   -0.4485 C   0  0  1  0  0  0  0  0  0  0  0  0
   44.1641    5.9366   -1.4326 O   0  0  0  0  0  0  0  0  0  0  0  0
   48.8557    4.6582   -7.7258 C   0  0  0  0  0  0  0  0  0  0  0  0
   47.9733    4.4094   -8.7029 O   0  0  0  0  0  0  0  0  0  0  0  0
   45.0593    0.4690   -8.2731 C   0  0  1  0  0  0  0  0  0  0  0  0
   44.8183    1.0885   -9.4997 O   0  0  0  0  0  0  0  0  0  0  0  0
   42.0043    2.0638   -6.8682 C   0  0  0  0  0  0  0  0  0  0  0  0
   43.8059    6.7851    0.9824 C   0  0  0  0  0  0  0  0  0  0  0  0
   43.9935    5.5556    1.6977 N   0  0  0  0  0  0  0  0  0  0  0  0
   40.5188    2.3139   -7.1322 C   0  0  0  0  0  0  0  0  0  0  0  0
   39.8101    2.0407   -5.8669 N   0  0  0  0  0  0  0  0  0  0  0  0
   38.3110    1.7402   -5.9292 C   0  0  0  0  0  0  0  0  0  0  0  0
  1  2  1  1  0  0  0
  1  8  1  0  0  0  0
  1 33  1  0  0  0  0
  3  4  1  1  0  0  0
  3 10  1  0  0  0  0
  3 42  1  0  0  0  0
  5 11  1  0  0  0  0
  5 29  1  0  0  0  0
  5 35  1  1  0  0  0
  6 13  1  0  0  0  0
  6 39  1  0  0  0  0
  6 22  1  6  0  0  0
  7 15  1  0  0  0  0
  8  9  1  1  0  0  0
  8 17  1  0  0  0  0
 10 19  1  0  0  0  0
 11 12  1  6  0  0  0
 11 21  1  0  0  0  0
 12 44  1  0  0  0  0
 13 14  1  1  0  0  0
 13 23  1  0  0  0  0
 15 16  1  0  0  0  0
 17 18  1  1  0  0  0
 17 25  1  0  0  0  0
 19 20  1  1  0  0  0
 19 27  1  0  0  0  0
 21 22  1  6  0  0  0
 21 28  1  0  0  0  0
 23 24  1  1  0  0  0
 23 30  1  0  0  0  0
 25 26  1  1  0  0  0
 25 32  1  0  0  0  0
 27  2  1  6  0  0  0
 27 34  1  0  0  0  0
 28 29  1  0  0  0  0
 28 36  1  1  0  0  0
 30 31  1  6  0  0  0
 30 38  1  0  0  0  0
 32 33  1  0  0  0  0
 32 40  1  6  0  0  0
 34 35  1  1  0  0  0
 34 42  1  0  0  0  0
 36 37  1  0  0  0  0
 38 39  1  0  0  0  0
 38 45  1  1  0  0  0
 40 41  1  0  0  0  0
 42 43  1  6  0  0  0
 44 47  1  0  0  0  0
 45 46  1  0  0  0  0
 47 48  1  0  0  0  0
 48 49  1  0  0  0  0
 49  7  1  0  0  0  0
M  END
>  <CHROM.1>
-165.12927068,56.88457321,-85.94826249,179.89612536,50.10947142,179.14563674
-63.55556454,63.94201014,-112.29875287,177.86135940,-75.82717704,172.22775422
-70.70205722,-159.44925283,166.48115539,-67.95316132,44.98883850,3.35593517
-5.11505680,-0.85550124,0.16462828,0.63888545

>  <Name>
2bee_lig

>  <RI>
0

>  <Rbt.Current_Directory>
/home/itssahil/PROJECTS/Mol_Feturizer/New_Systems/rnas/2bee

>  <Rbt.Executable>
rbdock ($Id: //depot/dev/client3/rdock/2013.1/src/exe/rbdock.cxx#4 $)

>  <Rbt.Library>
libRbt.so (2013.1, Build901 2013/11/27)

>  <Rbt.Parameter_File>
/export/apps/rDock/src/rDock_2013.1_src/data/scripts/dock_solv.prm

>  <Rbt.Receptor>
prm/pocket_docking_8.prm

>  <SCORE>
-12.6306

>  <SCORE.INTER>
-2.63933

>  <SCORE.INTER.CONST>
1

>  <SCORE.INTER.POLAR>
-2.27989

>  <SCORE.INTER.ROT>
16

>  <SCORE.INTER.SOLV>
19.7991

>  <SCORE.INTER.VDW>
-15.0263

>  <SCORE.INTER.norm>
-0.0538639

>  <SCORE.INTRA>
-9.99124

>  <SCORE.INTRA.DIHEDRAL>
-18.3582

>  <SCORE.INTRA.DIHEDRAL.0>
36.0842

>  <SCORE.INTRA.POLAR>
0

>  <SCORE.INTRA.POLAR.0>
0

>  <SCORE.INTRA.REPUL>
0

>  <SCORE.INTRA.REPUL.0>
0

>  <SCORE.INTRA.SOLV>
-0.707286

>  <SCORE.INTRA.SOLV.lig_0>
-126.444

>  <SCORE.INTRA.VDW>
-0.458492

>  <SCORE.INTRA.VDW.0>
-7.40469

>  <SCORE.INTRA.norm>
-0.203903

>  <SCORE.RESTR>
0

>  <SCORE.RESTR.CAVITY>
0

>  <SCORE.RESTR.norm>
0

>  <SCORE.SYSTEM>
0

>  <SCORE.SYSTEM.CONST>
0

>  <SCORE.SYSTEM.DIHEDRAL>
0

>  <SCORE.SYSTEM.SOLV>
0

>  <SCORE.SYSTEM.norm>
0

>  <SCORE.heavy>
49

>  <SCORE.norm>
-0.257767

>  <RMSD>
5.863

$$$$
2bee_lig
 OpenBabel11021811423D
libRbt.so/2013.1/901 2013/11/27
 49 52  0  0  0  0  0  0  0  0999 V2000
   40.3427    2.0948   -6.4665 C   0  0  2  0  0  0  0  0  0  0  0  0
   41.0638    0.9510   -6.0262 O   0  0  0  0  0  0  0  0  0  0  0  0
   44.0894    0.4471   -2.8693 C   0  0  2  0  0  0  0  0  0  0  0  0
   45.3862    0.5663   -2.1489 N   0  0  0  0  0  0  0  0  0  0  0  0
   40.9568    3.8874   -3.3110 C   0  0  1  0  0  0  0  0  0  0  0  0
   41.8324    8.4100   -2.2161 C   0  0  1  0  0  0  0  0  0  0  0  0
   39.6582    0.1254   -1.6206 C   0  0  0  0  0  0  0  0  0  0  0  0
   39.0078    1.6580   -7.1849 C   0  0  2  0  0  0  0  0  0  0  0  0
   38.2255    0.7961   -6.3053 N   0  0  0  0  0  0  0  0  0  0  0  0
   44.3428   -0.1846   -4.3131 C   0  0  0  0  0  0  0  0  0  0  0  0
   41.1178    4.9006   -2.2246 C   0  0  2  0  0  0  0  0  0  0  0  0
   40.1621    4.7141   -1.1191 O   0  0  0  0  0  0  0  0  0  0  0  0
   43.4231    8.6997   -2.3458 C   0  0  2  0  0  0  0  0  0  0  0  0
   44.1514    7.4031   -2.1418 N   0  0  0  0  0  0  0  0  0  0  0  0
   40.7249   -0.7693   -1.8705 C   0  0  0  0  0  0  0  0  0  0  0  0
   40.4636   -2.0296   -2.4035 N   0  0  0  0  0  0  0  0  0  0  0  0
   39.3621    0.9301   -8.5548 C   0  0  1  0  0  0  0  0  0  0  0  0
   38.1549    0.5450   -9.1962 O   0  0  0  0  0  0  0  0  0  0  0  0
   42.9411   -0.3199   -5.1428 C   0  0  2  0  0  0  0  0  0  0  0  0
   43.1556   -0.8910   -6.4290 N   0  0  0  0  0  0  0  0  0  0  0  0
   41.0752    6.1182   -3.1159 C   0  0  2  0  0  0  0  0  0  0  0  0
   41.5486    7.4066   -3.2204 O   0  0  0  0  0  0  0  0  0  0  0  0
   43.8288    9.7449   -1.2462 C   0  0  1  0  0  0  0  0  0  0  0  0
   43.0881   10.9842   -1.5242 O   0  0  0  0  0  0  0  0  0  0  0  0
   40.1843    1.8942   -9.4413 C   0  0  2  0  0  0  0  0  0  0  0  0
   40.5505    1.2472  -10.7271 O   0  0  0  0  0  0  0  0  0  0  0  0
   42.2721    1.1011   -5.2985 C   0  0  2  0  0  0  0  0  0  0  0  0
   40.0046    5.6990   -4.2409 C   0  0  2  0  0  0  0  0  0  0  0  0
   40.3055    4.3938   -4.4409 O   0  0  0  0  0  0  0  0  0  0  0  0
   43.4620    9.1431    0.2258 C   0  0  2  0  0  0  0  0  0  0  0  0
   44.2115    7.8948    0.4932 O   0  0  0  0  0  0  0  0  0  0  0  0
   41.5026    2.3248   -8.7156 C   0  0  2  0  0  0  0  0  0  0  0  0
   41.0702    2.9353   -7.4728 O   0  0  0  0  0  0  0  0  0  0  0  0
   42.0489    1.6757   -3.8588 C   0  0  2  0  0  0  0  0  0  0  0  0
   41.4350    2.9161   -4.1130 O   0  0  0  0  0  0  0  0  0  0  0  0
   40.1029    6.3949   -5.6487 C   0  0  0  0  0  0  0  0  0  0  0  0
   41.4582    6.2364   -6.1755 O   0  0  0  0  0  0  0  0  0  0  0  0
   41.9032    8.8245    0.3139 C   0  0  1  0  0  0  0  0  0  0  0  0
   41.5867    7.8553   -0.8059 O   0  0  0  0  0  0  0  0  0  0  0  0
   42.2057    3.2554   -9.6186 C   0  0  0  0  0  0  0  0  0  0  0  0
   41.4827    4.3689   -9.7992 O   0  0  0  0  0  0  0  0  0  0  0  0
   43.4293    1.8267   -3.0880 C   0  0  1  0  0  0  0  0  0  0  0  0
   43.2168    2.3308   -1.8046 O   0  0  0  0  0  0  0  0  0  0  0  0
   38.6980    4.6645   -1.2634 C   0  0  0  0  0  0  0  0  0  0  0  0
   41.6757    8.2388    1.7486 C   0  0  0  0  0  0  0  0  0  0  0  0
   42.2670    6.9433    1.9241 N   0  0  0  0  0  0  0  0  0  0  0  0
   38.2882    3.2834   -1.7768 C   0  0  0  0  0  0  0  0  0  0  0  0
   38.6866    2.3096   -0.7419 N   0  0  0  0  0  0  0  0  0  0  0  0
   39.9904    1.5346   -0.9434 C   0  0  0  0  0  0  0  0  0  0  0  0
  1  2  1  6  0  0  0
  1  8  1  0  0  0  0
  1 33  1  0  0  0  0
  3  4  1  6  0  0  0
  3 10  1  0  0  0  0
  3 42  1  0  0  0  0
  5 11  1  0  0  0  0
  5 29  1  0  0  0  0
  5 35  1  6  0  0  0
  6 13  1  0  0  0  0
  6 39  1  0  0  0  0
  6 22  1  6  0  0  0
  7 15  1  0  0  0  0
  8  9  1  1  0  0  0
  8 17  1  0  0  0  0
 10 19  1  0  0  0  0
 11 12  1  1  0  0  0
 11 21  1  0  0  0  0
 12 44  1  0  0  0  0
 13 14  1  1  0  0  0
 13 23  1  0  0  0  0
 15 16  1  0  0  0  0
 17 18  1  6  0  0  0
 17 25  1  0  0  0  0
 19 20  1  6  0  0  0
 19 27  1  0  0  0  0
 21 22  1  1  0  0  0
 21 28  1  0  0  0  0
 23 24  1  6  0  0  0
 23 30  1  0  0  0  0
 25 26  1  6  0  0  0
 25 32  1  0  0  0  0
 27  2  1  1  0  0  0
 27 34  1  0  0  0  0
 28 29  1  0  0  0  0
 28 36  1  6  0  0  0
 30 31  1  6  0  0  0
 30 38  1  0  0  0  0
 32 33  1  0  0  0  0
 32 40  1  6  0  0  0
 34 35  1  6  0  0  0
 34 42  1  0  0  0  0
 36 37  1  0  0  0  0
 38 39  1  0  0  0  0
 38 45  1  1  0  0  0
 40 41  1  0  0  0  0
 42 43  1  1  0  0  0
 44 47  1  0  0  0  0
 45 46  1  0  0  0  0
 47 48  1  0  0  0  0
 48 49  1  0  0  0  0
 49  7  1  0  0  0  0
M  END
>  <CHROM.1>
-177.20421592,57.53766167,117.86339972,177.09288450,-55.55299881,78.51377639
-34.02394975,-171.62468779,53.77877854,64.19767495,178.07210333,-68.85056952
63.02189446,-99.35733215,-95.16290101,-178.61451881,41.42129144,3.80872096
-3.86847445,2.91870486,1.39634465,2.55617383

>  <Name>
2bee_lig

>  <RI>
0

>  <Rbt.Current_Directory>
/home/itssahil/PROJECTS/Mol_Feturizer/New_Systems/rnas/2bee

>  <Rbt.Executable>
rbdock ($Id: //depot/dev/client3/rdock/2013.1/src/exe/rbdock.cxx#4 $)

>  <Rbt.Library>
libRbt.so (2013.1, Build901 2013/11/27)

>  <Rbt.Parameter_File>
/export/apps/rDock/src/rDock_2013.1_src/data/scripts/dock_solv.prm

>  <Rbt.Receptor>
prm/pocket_docking_7.prm

>  <SCORE>
-14.4998

>  <SCORE.INTER>
-3.75566

>  <SCORE.INTER.CONST>
1

>  <SCORE.INTER.POLAR>
-1.09676

>  <SCORE.INTER.ROT>
16

>  <SCORE.INTER.SOLV>
10.8721

>  <SCORE.INTER.VDW>
-16.7386

>  <SCORE.INTER.norm>
-0.076646

>  <SCORE.INTRA>
-10.7487

>  <SCORE.INTRA.DIHEDRAL>
-19.6721

>  <SCORE.INTRA.DIHEDRAL.0>
36.0842

>  <SCORE.INTRA.POLAR>
0

>  <SCORE.INTRA.POLAR.0>
0

>  <SCORE.INTRA.REPUL>
0.00887704

>  <SCORE.INTRA.REPUL.0>
0

>  <SCORE.INTRA.SOLV>
0.675897

>  <SCORE.INTRA.SOLV.lig_0>
-126.444

>  <SCORE.INTRA.VDW>
-1.29502

>  <SCORE.INTRA.VDW.0>
-7.40469

>  <SCORE.INTRA.norm>
-0.219362

>  <SCORE.RESTR>
0.00459083

>  <SCORE.RESTR.CAVITY>
0.00459083

>  <SCORE.RESTR.norm>
9.36903e-05

>  <SCORE.SYSTEM>
0

>  <SCORE.SYSTEM.CONST>
0

>  <SCORE.SYSTEM.DIHEDRAL>
0

>  <SCORE.SYSTEM.SOLV>
0

>  <SCORE.SYSTEM.norm>
0

>  <SCORE.heavy>
49

>  <SCORE.norm>
-0.295914

>  <RMSD>
5.905

$$$$
2bee_lig
 OpenBabel11021811423D
libRbt.so/2013.1/901 2013/11/27
 49 52  0  0  0  0  0  0  0  0999 V2000
   42.6618    5.1986   -5.1050 C   0  0  2  0  0  0  0  0  0  0  0  0
   42.1631    4.6645   -6.3249 O   0  0  0  0  0  0  0  0  0  0  0  0
   39.2900    1.5656   -7.5566 C   0  0  2  0  0  0  0  0  0  0  0  0
   38.5701    0.2634   -7.5841 N   0  0  0  0  0  0  0  0  0  0  0  0
   40.0249    3.9877   -3.6941 C   0  0  1  0  0  0  0  0  0  0  0  0
   40.2456    6.3379    0.4515 C   0  0  1  0  0  0  0  0  0  0  0  0
   43.5870   -1.4426   -4.0058 C   0  0  0  0  0  0  0  0  0  0  0  0
   43.2586    6.6398   -5.3412 C   0  0  2  0  0  0  0  0  0  0  0  0
   42.2606    7.4970   -5.9718 N   0  0  0  0  0  0  0  0  0  0  0  0
   40.8547    1.3087   -7.7402 C   0  0  0  0  0  0  0  0  0  0  0  0
   40.9474    3.7989   -2.5339 C   0  0  2  0  0  0  0  0  0  0  0  0
   40.9372    2.4220   -2.0102 O   0  0  0  0  0  0  0  0  0  0  0  0
   41.2171    7.5184    0.9935 C   0  0  2  0  0  0  0  0  0  0  0  0
   42.6000    6.9536    1.1407 N   0  0  0  0  0  0  0  0  0  0  0  0
   42.3247   -2.0492   -3.8071 C   0  0  0  0  0  0  0  0  0  0  0  0
   42.0663   -2.7443   -2.6278 N   0  0  0  0  0  0  0  0  0  0  0  0
   44.5756    6.5246   -6.2267 C   0  0  1  0  0  0  0  0  0  0  0  0
   45.1080    7.8255   -6.4300 O   0  0  0  0  0  0  0  0  0  0  0  0
   41.6836    2.7169   -7.7021 C   0  0  2  0  0  0  0  0  0  0  0  0
   43.0798    2.4989   -7.8743 N   0  0  0  0  0  0  0  0  0  0  0  0
   40.4404    4.9637   -1.7184 C   0  0  2  0  0  0  0  0  0  0  0  0
   40.8423    5.8998   -0.7926 O   0  0  0  0  0  0  0  0  0  0  0  0
   40.6689    8.0162    2.3784 C   0  0  1  0  0  0  0  0  0  0  0  0
   39.3248    8.5652    2.1466 O   0  0  0  0  0  0  0  0  0  0  0  0
   45.5920    5.6103   -5.5040 C   0  0  2  0  0  0  0  0  0  0  0  0
   46.8335    5.4627   -6.3058 O   0  0  0  0  0  0  0  0  0  0  0  0
   41.4270    3.4519   -6.3292 C   0  0  2  0  0  0  0  0  0  0  0  0
   38.8629    4.9591   -2.0330 C   0  0  2  0  0  0  0  0  0  0  0  0
   38.8414    4.6504   -3.3514 O   0  0  0  0  0  0  0  0  0  0  0  0
   40.6338    6.7622    3.4223 C   0  0  2  0  0  0  0  0  0  0  0  0
   41.9916    6.2164    3.6457 O   0  0  0  0  0  0  0  0  0  0  0  0
   44.9865    4.1860   -5.2702 C   0  0  2  0  0  0  0  0  0  0  0  0
   43.7806    4.4083   -4.4951 O   0  0  0  0  0  0  0  0  0  0  0  0
   39.8827    3.6761   -6.1975 C   0  0  2  0  0  0  0  0  0  0  0  0
   39.7721    4.3496   -4.9671 O   0  0  0  0  0  0  0  0  0  0  0  0
   38.0771    6.3141   -1.8844 C   0  0  0  0  0  0  0  0  0  0  0  0
   36.6872    6.1175   -2.2956 O   0  0  0  0  0  0  0  0  0  0  0  0
   39.7101    5.5976    2.8480 C   0  0  1  0  0  0  0  0  0  0  0  0
   40.2738    5.2131    1.4959 O   0  0  0  0  0  0  0  0  0  0  0  0
   46.0092    3.3957   -4.5594 C   0  0  0  0  0  0  0  0  0  0  0  0
   45.5851    2.1382   -4.3753 O   0  0  0  0  0  0  0  0  0  0  0  0
   39.1057    2.2910   -6.2050 C   0  0  1  0  0  0  0  0  0  0  0  0
   37.7313    2.5041   -6.0960 O   0  0  0  0  0  0  0  0  0  0  0  0
   41.8767    1.8882   -1.0105 C   0  0  0  0  0  0  0  0  0  0  0  0
   39.7695    4.4515    3.9138 C   0  0  0  0  0  0  0  0  0  0  0  0
   38.9625    3.3185    3.5623 N   0  0  0  0  0  0  0  0  0  0  0  0
   43.2461    1.6880   -1.6614 C   0  0  0  0  0  0  0  0  0  0  0  0
   43.0601    0.7104   -2.7513 N   0  0  0  0  0  0  0  0  0  0  0  0
   44.1064   -0.3937   -2.9173 C   0  0  0  0  0  0  0  0  0  0  0  0
  1  2  1  6  0  0  0
  1  8  1  0  0  0  0
  1 33  1  0  0  0  0
  3  4  1  1  0  0  0
  3 10  1  0  0  0  0
  3 42  1  0  0  0  0
  5 11  1  0  0  0  0
  5 29  1  0  0  0  0
  5 35  1  6  0  0  0
  6 13  1  0  0  0  0
  6 39  1  0  0  0  0
  6 22  1  6  0  0  0
  7 15  1  0  0  0  0
  8  9  1  6  0  0  0
  8 17  1  0  0  0  0
 10 19  1  0  0  0  0
 11 12  1  1  0  0  0
 11 21  1  0  0  0  0
 12 44  1  0  0  0  0
 13 14  1  1  0  0  0
 13 23  1  0  0  0  0
 15 16  1  0  0  0  0
 17 18  1  1  0  0  0
 17 25  1  0  0  0  0
 19 20  1  1  0  0  0
 19 27  1  0  0  0  0
 21 22  1  1  0  0  0
 21 28  1  0  0  0  0
 23 24  1  6  0  0  0
 23 30  1  0  0  0  0
 25 26  1  6  0  0  0
 25 32  1  0  0  0  0
 27  2  1  6  0  0  0
 27 34  1  0  0  0  0
 28 29  1  0  0  0  0
 28 36  1  6  0  0  0
 30 31  1  6  0  0  0
 30 38  1  0  0  0  0
 32 33  1  0  0  0  0
 32 40  1  1  0  0  0
 34 35  1  1  0  0  0
 34 42  1  0  0  0  0
 36 37  1  0  0  0  0
 38 39  1  0  0  0  0
 38 45  1  1  0  0  0
 40 41  1  0  0  0  0
 42 43  1  6  0  0  0
 44 47  1  0  0  0  0
 45 46  1  0  0  0  0
 47 48  1  0  0  0  0
 48 49  1  0  0  0  0
 49  7  1  0  0  0  0
M  END
>  <CHROM.1>
-171.97203524,84.43173816,-177.37934793,-56.04964060,170.55563018,-73.04069469
-132.86063027,-149.35903298,176.38539384,-177.21799597,-65.64099582,178.92540723
-61.10707127,-136.94574390,171.74278328,-55.52941203,41.54264088,4.05368735
-2.99366431,-1.08050007,0.96680354,0.73502867

>  <Name>
2bee_lig

>  <RI>
0

>  <Rbt.Current_Directory>
/home/itssahil/PROJECTS/Mol_Feturizer/New_Systems/rnas/2bee

>  <Rbt.Executable>
rbdock ($Id: //depot/dev/client3/rdock/2013.1/src/exe/rbdock.cxx#4 $)

>  <Rbt.Library>
libRbt.so (2013.1, Build901 2013/11/27)

>  <Rbt.Parameter_File>
/export/apps/rDock/src/rDock_2013.1_src/data/scripts/dock_solv.prm

>  <Rbt.Receptor>
prm/pocket_docking_7.prm

>  <SCORE>
-17.3261

>  <SCORE.INTER>
-4.85616

>  <SCORE.INTER.CONST>
1

>  <SCORE.INTER.POLAR>
-0.841497

>  <SCORE.INTER.ROT>
16

>  <SCORE.INTER.SOLV>
15.2408

>  <SCORE.INTER.VDW>
-19.7794

>  <SCORE.INTER.norm>
-0.0991053

>  <SCORE.INTRA>
-12.47

>  <SCORE.INTRA.DIHEDRAL>
-23.4287

>  <SCORE.INTRA.DIHEDRAL.0>
36.0842

>  <SCORE.INTRA.POLAR>
0

>  <SCORE.INTRA.POLAR.0>
0

>  <SCORE.INTRA.REPUL>
0

>  <SCORE.INTRA.REPUL.0>
0

>  <SCORE.INTRA.SOLV>
-1.66958

>  <SCORE.INTRA.SOLV.lig_0>
-126.444

>  <SCORE.INTRA.VDW>
0.0791723

>  <SCORE.INTRA.VDW.0>
-7.40469

>  <SCORE.INTRA.norm>
-0.254489

>  <SCORE.RESTR>
0

>  <SCORE.RESTR.CAVITY>
0

>  <SCORE.RESTR.norm>
0

>  <SCORE.SYSTEM>
0

>  <SCORE.SYSTEM.CONST>
0

>  <SCORE.SYSTEM.DIHEDRAL>
0

>  <SCORE.SYSTEM.SOLV>
0

>  <SCORE.SYSTEM.norm>
0

>  <SCORE.heavy>
49

>  <SCORE.norm>
-0.353595

>  <RMSD>
5.910

$$$$
2bee_lig
 OpenBabel11021811423D
libRbt.so/2013.1/901 2013/11/27
 49 52  0  0  0  0  0  0  0  0999 V2000
   44.4085    6.7779   -6.8574 C   0  0  2  0  0  0  0  0  0  0  0  0
   43.3768    7.1603   -5.9566 O   0  0  0  0  0  0  0  0  0  0  0  0
   43.9374    4.2042   -2.7439 C   0  0  2  0  0  0  0  0  0  0  0  0
   43.7077    3.4672   -1.4715 N   0  0  0  0  0  0  0  0  0  0  0  0
   40.6529    4.3293   -5.8197 C   0  0  1  0  0  0  0  0  0  0  0  0
   38.0530    2.0961   -2.5894 C   0  0  1  0  0  0  0  0  0  0  0  0
   36.5132   -2.8453   -6.9426 C   0  0  0  0  0  0  0  0  0  0  0  0
   44.6634    7.9202   -7.9153 C   0  0  2  0  0  0  0  0  0  0  0  0
   44.9411    9.1800   -7.2338 N   0  0  0  0  0  0  0  0  0  0  0  0
   44.1258    5.7576   -2.4285 C   0  0  0  0  0  0  0  0  0  0  0  0
   39.6883    3.2223   -5.5426 C   0  0  2  0  0  0  0  0  0  0  0  0
   38.7491    2.9876   -6.6530 O   0  0  0  0  0  0  0  0  0  0  0  0
   37.6714    2.3143   -1.0280 C   0  0  2  0  0  0  0  0  0  0  0  0
   38.9412    2.5672   -0.2685 N   0  0  0  0  0  0  0  0  0  0  0  0
   36.3200   -2.9213   -8.3418 C   0  0  0  0  0  0  0  0  0  0  0  0
   35.9062   -1.7940   -9.0478 N   0  0  0  0  0  0  0  0  0  0  0  0
   43.3997    8.0394   -8.8749 C   0  0  1  0  0  0  0  0  0  0  0  0
   43.6402    9.0662   -9.8262 O   0  0  0  0  0  0  0  0  0  0  0  0
   44.3677    6.6053   -3.8049 C   0  0  2  0  0  0  0  0  0  0  0  0
   44.5459    7.9912   -3.5330 N   0  0  0  0  0  0  0  0  0  0  0  0
   39.2216    3.7315   -4.2003 C   0  0  2  0  0  0  0  0  0  0  0  0
   38.7467    3.3050   -2.9806 O   0  0  0  0  0  0  0  0  0  0  0  0
   36.9590    1.0163   -0.5047 C   0  0  1  0  0  0  0  0  0  0  0  0
   35.7240    0.8487   -1.2847 O   0  0  0  0  0  0  0  0  0  0  0  0
   43.1619    6.6780   -9.5687 C   0  0  2  0  0  0  0  0  0  0  0  0
   41.9788    6.7407  -10.4643 O   0  0  0  0  0  0  0  0  0  0  0  0
   43.1397    6.4092   -4.7769 C   0  0  2  0  0  0  0  0  0  0  0  0
   39.2177    5.3268   -4.4061 C   0  0  2  0  0  0  0  0  0  0  0  0
   40.3330    5.5157   -5.1506 O   0  0  0  0  0  0  0  0  0  0  0  0
   37.9634   -0.2568   -0.6890 C   0  0  2  0  0  0  0  0  0  0  0  0
   39.2037   -0.0757    0.0985 O   0  0  0  0  0  0  0  0  0  0  0  0
   42.9163    5.5524   -8.5091 C   0  0  2  0  0  0  0  0  0  0  0  0
   44.0993    5.5560   -7.6696 O   0  0  0  0  0  0  0  0  0  0  0  0
   42.9973    4.8739   -5.0504 C   0  0  2  0  0  0  0  0  0  0  0  0
   41.9035    4.8176   -5.9338 O   0  0  0  0  0  0  0  0  0  0  0  0
   39.3791    6.2355   -3.1317 C   0  0  0  0  0  0  0  0  0  0  0  0
   38.3062    5.9373   -2.1832 O   0  0  0  0  0  0  0  0  0  0  0  0
   38.3597   -0.4237   -2.2233 C   0  0  1  0  0  0  0  0  0  0  0  0
   38.9897    0.8820   -2.6611 O   0  0  0  0  0  0  0  0  0  0  0  0
   42.7243    4.2946   -9.2552 C   0  0  0  0  0  0  0  0  0  0  0  0
   43.8137    4.0097   -9.9814 O   0  0  0  0  0  0  0  0  0  0  0  0
   42.7312    4.0795   -3.7012 C   0  0  1  0  0  0  0  0  0  0  0  0
   42.6149    2.7129   -3.9565 O   0  0  0  0  0  0  0  0  0  0  0  0
   37.7206    1.9349   -6.6853 C   0  0  0  0  0  0  0  0  0  0  0  0
   39.3322   -1.6504   -2.2739 C   0  0  0  0  0  0  0  0  0  0  0  0
   38.7102   -2.8748   -1.8582 N   0  0  0  0  0  0  0  0  0  0  0  0
   38.3962    0.5664   -6.5867 C   0  0  0  0  0  0  0  0  0  0  0  0
   37.3263   -0.4447   -6.6922 N   0  0  0  0  0  0  0  0  0  0  0  0
   37.6773   -1.9022   -6.3858 C   0  0  0  0  0  0  0  0  0  0  0  0
  1  2  1  1  0  0  0
  1  8  1  0  0  0  0
  1 33  1  0  0  0  0
  3  4  1  1  0  0  0
  3 10  1  0  0  0  0
  3 42  1  0  0  0  0
  5 11  1  0  0  0  0
  5 29  1  0  0  0  0
  5 35  1  1  0  0  0
  6 13  1  0  0  0  0
  6 39  1  0  0  0  0
  6 22  1  1  0  0  0
  7 15  1  0  0  0  0
  8  9  1  1  0  0  0
  8 17  1  0  0  0  0
 10 19  1  0  0  0  0
 11 12  1  6  0  0  0
 11 21  1  0  0  0  0
 12 44  1  0  0  0  0
 13 14  1  1  0  0  0
 13 23  1  0  0  0  0
 15 16  1  0  0  0  0
 17 18  1  6  0  0  0
 17 25  1  0  0  0  0
 19 20  1  1  0  0  0
 19 27  1  0  0  0  0
 21 22  1  6  0  0  0
 21 28  1  0  0  0  0
 23 24  1  6  0  0  0
 23 30  1  0  0  0  0
 25 26  1  6  0  0  0
 25 32  1  0  0  0  0
 27  2  1  6  0  0  0
 27 34  1  0  0  0  0
 28 29  1  0  0  0  0
 28 36  1  1  0  0  0
 30 31  1  1  0  0  0
 30 38  1  0  0  0  0
 32 33  1  0  0  0  0
 32 40  1  6  0  0  0
 34 35  1  6  0  0  0
 34 42  1  0  0  0  0
 36 37  1  0  0  0  0
 38 39  1  0  0  0  0
 38 45  1  1  0  0  0
 40 41  1  0  0  0  0
 42 43  1  6  0  0  0
 44 47  1  0  0  0  0
 45 46  1  0  0  0  0
 47 48  1  0  0  0  0
 48 49  1  0  0  0  0
 49  7  1  0  0  0  0
M  END
>  <CHROM.1>
-168.38782167,-56.66489770,-174.87576590,-65.04611639,177.73060457,-60.70446567
-24.53628305,68.42425676,-58.19213838,60.34644758,-112.69377195,63.08488428
-177.21909486,-169.68049106,-164.57536989,66.40571957,40.62863421,3.46680054
-5.03318061,-0.35518205,0.89159737,1.52438105

>  <Name>
2bee_lig

>  <RI>
0

>  <Rbt.Current_Directory>
/home/itssahil/PROJECTS/Mol_Feturizer/New_Systems/rnas/2bee

>  <Rbt.Executable>
rbdock ($Id: //depot/dev/client3/rdock/2013.1/src/exe/rbdock.cxx#4 $)

>  <Rbt.Library>
libRbt.so (2013.1, Build901 2013/11/27)

>  <Rbt.Parameter_File>
/export/apps/rDock/src/rDock_2013.1_src/data/scripts/dock_solv.prm

>  <Rbt.Receptor>
prm/pocket_docking_7.prm

>  <SCORE>
-17.2677

>  <SCORE.INTER>
-6.85024

>  <SCORE.INTER.CONST>
1

>  <SCORE.INTER.POLAR>
-1.46256

>  <SCORE.INTER.ROT>
16

>  <SCORE.INTER.SOLV>
18.7875

>  <SCORE.INTER.VDW>
-20.2208

>  <SCORE.INTER.norm>
-0.139801

>  <SCORE.INTRA>
-10.4175

>  <SCORE.INTRA.DIHEDRAL>
-22.7901

>  <SCORE.INTRA.DIHEDRAL.0>
36.0842

>  <SCORE.INTRA.POLAR>
0

>  <SCORE.INTRA.POLAR.0>
0

>  <SCORE.INTRA.REPUL>
0

>  <SCORE.INTRA.REPUL.0>
0

>  <SCORE.INTRA.SOLV>
0.330878

>  <SCORE.INTRA.SOLV.lig_0>
-126.444

>  <SCORE.INTRA.VDW>
0.812122

>  <SCORE.INTRA.VDW.0>
-7.40469

>  <SCORE.INTRA.norm>
-0.212602

>  <SCORE.RESTR>
0

>  <SCORE.RESTR.CAVITY>
0

>  <SCORE.RESTR.norm>
0

>  <SCORE.SYSTEM>
0

>  <SCORE.SYSTEM.CONST>
0

>  <SCORE.SYSTEM.DIHEDRAL>
0

>  <SCORE.SYSTEM.SOLV>
0

>  <SCORE.SYSTEM.norm>
0

>  <SCORE.heavy>
49

>  <SCORE.norm>
-0.352403

>  <RMSD>
5.931

$$$$
2bee_lig
 OpenBabel11021811423D
libRbt.so/2013.1/901 2013/11/27
 49 52  0  0  0  0  0  0  0  0999 V2000
   45.7580    3.7528   -4.8047 C   0  0  2  0  0  0  0  0  0  0  0  0
   45.4583    3.2288   -6.0923 O   0  0  0  0  0  0  0  0  0  0  0  0
   41.5794    2.4475   -8.0205 C   0  0  2  0  0  0  0  0  0  0  0  0
   40.2784    1.7897   -8.3198 N   0  0  0  0  0  0  0  0  0  0  0  0
   42.7757    3.6401   -3.7638 C   0  0  1  0  0  0  0  0  0  0  0  0
   41.4736    4.8651    0.6967 C   0  0  1  0  0  0  0  0  0  0  0  0
   41.2799   -2.5247   -1.7095 C   0  0  0  0  0  0  0  0  0  0  0  0
   47.2782    4.1661   -4.7215 C   0  0  2  0  0  0  0  0  0  0  0  0
   47.6050    5.0904   -5.8021 N   0  0  0  0  0  0  0  0  0  0  0  0
   42.7558    1.3766   -8.1518 C   0  0  0  0  0  0  0  0  0  0  0  0
   43.0526    3.3444   -2.3256 C   0  0  2  0  0  0  0  0  0  0  0  0
   42.9676    1.9084   -2.0078 O   0  0  0  0  0  0  0  0  0  0  0  0
   39.8884    4.5322    0.6102 C   0  0  2  0  0  0  0  0  0  0  0  0
   39.1942    5.7208    0.0115 N   0  0  0  0  0  0  0  0  0  0  0  0
   40.4926   -3.6933   -1.5860 C   0  0  0  0  0  0  0  0  0  0  0  0
   41.0997   -4.9466   -1.6224 N   0  0  0  0  0  0  0  0  0  0  0  0
   48.1823    2.8578   -4.7761 C   0  0  1  0  0  0  0  0  0  0  0  0
   49.5480    3.2392   -4.6960 O   0  0  0  0  0  0  0  0  0  0  0  0
   44.2030    2.0584   -7.8169 C   0  0  2  0  0  0  0  0  0  0  0  0
   45.2601    1.1130   -7.9402 N   0  0  0  0  0  0  0  0  0  0  0  0
   42.0781    4.3448   -1.7526 C   0  0  2  0  0  0  0  0  0  0  0  0
   41.8716    5.1609   -0.6634 O   0  0  0  0  0  0  0  0  0  0  0  0
   39.3598    4.2519    2.0621 C   0  0  1  0  0  0  0  0  0  0  0  0
   40.0743    3.0710    2.5689 O   0  0  0  0  0  0  0  0  0  0  0  0
   47.7920    1.9247   -3.6064 C   0  0  2  0  0  0  0  0  0  0  0  0
   48.6034    0.6809   -3.6292 O   0  0  0  0  0  0  0  0  0  0  0  0
   44.1896    2.6510   -6.3541 C   0  0  2  0  0  0  0  0  0  0  0  0
   40.8534    4.2860   -2.7939 C   0  0  2  0  0  0  0  0  0  0  0  0
   41.4990    4.1702   -3.9788 O   0  0  0  0  0  0  0  0  0  0  0  0
   39.6318    5.5642    2.9935 C   0  0  2  0  0  0  0  0  0  0  0  0
   38.9098    6.7467    2.4722 O   0  0  0  0  0  0  0  0  0  0  0  0
   46.2809    1.5267   -3.6966 C   0  0  2  0  0  0  0  0  0  0  0  0
   45.5554    2.7827   -3.6794 O   0  0  0  0  0  0  0  0  0  0  0  0
   43.0198    3.6894   -6.2783 C   0  0  2  0  0  0  0  0  0  0  0  0
   43.1143    4.1654   -4.9575 O   0  0  0  0  0  0  0  0  0  0  0  0
   39.9286    5.5529   -2.9175 C   0  0  0  0  0  0  0  0  0  0  0  0
   38.8638    5.2850   -3.8839 O   0  0  0  0  0  0  0  0  0  0  0  0
   41.1895    5.8983    3.0268 C   0  0  1  0  0  0  0  0  0  0  0  0
   41.6280    6.1028    1.5918 O   0  0  0  0  0  0  0  0  0  0  0  0
   45.9944    0.6621   -2.5364 C   0  0  0  0  0  0  0  0  0  0  0  0
   45.9741    1.3841   -1.4079 O   0  0  0  0  0  0  0  0  0  0  0  0
   41.6235    2.9938   -6.5760 C   0  0  1  0  0  0  0  0  0  0  0  0
   40.5910    3.9300   -6.5143 O   0  0  0  0  0  0  0  0  0  0  0  0
   41.7665    1.0733   -2.1723 C   0  0  0  0  0  0  0  0  0  0  0  0
   41.3251    7.1750    3.9239 C   0  0  0  0  0  0  0  0  0  0  0  0
   40.9238    8.3768    3.2507 N   0  0  0  0  0  0  0  0  0  0  0  0
   41.9295    0.1942   -3.4131 C   0  0  0  0  0  0  0  0  0  0  0  0
   42.7851   -0.9421   -3.0198 N   0  0  0  0  0  0  0  0  0  0  0  0
   42.1712   -2.3437   -3.0239 C   0  0  0  0  0  0  0  0  0  0  0  0
  1  2  1  6  0  0  0
  1  8  1  0  0  0  0
  1 33  1  0  0  0  0
  3  4  1  1  0  0  0
  3 10  1  0  0  0  0
  3 42  1  0  0  0  0
  5 11  1  0  0  0  0
  5 29  1  0  0  0  0
  5 35  1  1  0  0  0
  6 13  1  0  0  0  0
  6 39  1  0  0  0  0
  6 22  1  6  0  0  0
  7 15  1  0  0  0  0
  8  9  1  6  0  0  0
  8 17  1  0  0  0  0
 10 19  1  0  0  0  0
 11 12  1  6  0  0  0
 11 21  1  0  0  0  0
 12 44  1  0  0  0  0
 13 14  1  1  0  0  0
 13 23  1  0  0  0  0
 15 16  1  0  0  0  0
 17 18  1  1  0  0  0
 17 25  1  0  0  0  0
 19 20  1  1  0  0  0
 19 27  1  0  0  0  0
 21 22  1  1  0  0  0
 21 28  1  0  0  0  0
 23 24  1  1  0  0  0
 23 30  1  0  0  0  0
 25 26  1  6  0  0  0
 25 32  1  0  0  0  0
 27  2  1  6  0  0  0
 27 34  1  0  0  0  0
 28 29  1  0  0  0  0
 28 36  1  6  0  0  0
 30 31  1  6  0  0  0
 30 38  1  0  0  0  0
 32 33  1  0  0  0  0
 32 40  1  1  0  0  0
 34 35  1  1  0  0  0
 34 42  1  0  0  0  0
 36 37  1  0  0  0  0
 38 39  1  0  0  0  0
 38 45  1  1  0  0  0
 40 41  1  0  0  0  0
 42 43  1  6  0  0  0
 44 47  1  0  0  0  0
 45 46  1  0  0  0  0
 47 48  1  0  0  0  0
 48 49  1  0  0  0  0
 49  7  1  0  0  0  0
M  END
>  <CHROM.1>
172.84547308,135.88200007,-74.73189063,58.38217774,-60.47435628,104.19093797
-74.13336830,-175.36532253,-178.55157408,72.27961819,-75.54232611,-76.18437244
79.73561693,114.49325434,-78.20174803,172.75244173,42.85496438,2.95707724
-2.79299891,-0.82418577,0.71705807,0.55134024

>  <Name>
2bee_lig

>  <RI>
0

>  <Rbt.Current_Directory>
/home/itssahil/PROJECTS/Mol_Feturizer/New_Systems/rnas/2bee

>  <Rbt.Executable>
rbdock ($Id: //depot/dev/client3/rdock/2013.1/src/exe/rbdock.cxx#4 $)

>  <Rbt.Library>
libRbt.so (2013.1, Build901 2013/11/27)

>  <Rbt.Parameter_File>
/export/apps/rDock/src/rDock_2013.1_src/data/scripts/dock_solv.prm

>  <Rbt.Receptor>
prm/pocket_docking_5.prm

>  <SCORE>
-3.66118

>  <SCORE.INTER>
1.53639

>  <SCORE.INTER.CONST>
1

>  <SCORE.INTER.POLAR>
0

>  <SCORE.INTER.ROT>
16

>  <SCORE.INTER.SOLV>
11.9529

>  <SCORE.INTER.VDW>
-17.2267

>  <SCORE.INTER.norm>
0.0313548

>  <SCORE.INTRA>
-5.19757

>  <SCORE.INTRA.DIHEDRAL>
-13.0406

>  <SCORE.INTRA.DIHEDRAL.0>
36.0842

>  <SCORE.INTRA.POLAR>
0

>  <SCORE.INTRA.POLAR.0>
0

>  <SCORE.INTRA.REPUL>
0

>  <SCORE.INTRA.REPUL.0>
0

>  <SCORE.INTRA.SOLV>
1.13496

>  <SCORE.INTRA.SOLV.lig_0>
-126.444

>  <SCORE.INTRA.VDW>
0.755237

>  <SCORE.INTRA.VDW.0>
-7.40469

>  <SCORE.INTRA.norm>
-0.106073

>  <SCORE.RESTR>
0

>  <SCORE.RESTR.CAVITY>
0

>  <SCORE.RESTR.norm>
0

>  <SCORE.SYSTEM>
0

>  <SCORE.SYSTEM.CONST>
0

>  <SCORE.SYSTEM.DIHEDRAL>
0

>  <SCORE.SYSTEM.SOLV>
0

>  <SCORE.SYSTEM.norm>
0

>  <SCORE.heavy>
49

>  <SCORE.norm>
-0.074718

>  <RMSD>
5.972

$$$$
2bee_lig
 OpenBabel11021811423D
libRbt.so/2013.1/901 2013/11/27
 49 52  0  0  0  0  0  0  0  0999 V2000
   45.3136    8.2855   -9.1499 C   0  0  2  0  0  0  0  0  0  0  0  0
   44.2203    8.2958   -8.2406 O   0  0  0  0  0  0  0  0  0  0  0  0
   40.8598    5.5758   -7.4147 C   0  0  2  0  0  0  0  0  0  0  0  0
   40.1165    4.3066   -7.1874 N   0  0  0  0  0  0  0  0  0  0  0  0
   43.9449    6.9810   -4.3965 C   0  0  1  0  0  0  0  0  0  0  0  0
   42.1865    3.9278   -1.2061 C   0  0  1  0  0  0  0  0  0  0  0  0
   40.5082   10.4559   -1.3126 C   0  0  0  0  0  0  0  0  0  0  0  0
   46.3895    9.3584   -8.7255 C   0  0  2  0  0  0  0  0  0  0  0  0
   46.7977    9.1371   -7.3424 N   0  0  0  0  0  0  0  0  0  0  0  0
   41.5997    5.5094   -8.8274 C   0  0  0  0  0  0  0  0  0  0  0  0
   43.4695    6.7823   -2.9940 C   0  0  2  0  0  0  0  0  0  0  0  0
   44.3221    7.4540   -1.9980 O   0  0  0  0  0  0  0  0  0  0  0  0
   41.1309    2.7079   -1.3753 C   0  0  2  0  0  0  0  0  0  0  0  0
   40.0481    3.1549   -2.3138 N   0  0  0  0  0  0  0  0  0  0  0  0
   39.3711   11.2551   -1.0497 C   0  0  0  0  0  0  0  0  0  0  0  0
   39.0009   11.5244    0.2660 N   0  0  0  0  0  0  0  0  0  0  0  0
   45.7876   10.8167   -8.9326 C   0  0  1  0  0  0  0  0  0  0  0  0
   46.7643   11.7753   -8.5526 O   0  0  0  0  0  0  0  0  0  0  0  0
   42.4401    6.8827   -9.1089 C   0  0  2  0  0  0  0  0  0  0  0  0
   43.0965    6.8368  -10.3711 N   0  0  0  0  0  0  0  0  0  0  0  0
   43.3579    5.2783   -3.0606 C   0  0  2  0  0  0  0  0  0  0  0  0
   42.6472    4.2168   -2.5478 O   0  0  0  0  0  0  0  0  0  0  0  0
   40.5367    2.3658    0.0375 C   0  0  1  0  0  0  0  0  0  0  0  0
   41.6522    1.9248    0.8877 O   0  0  0  0  0  0  0  0  0  0  0  0
   45.3802   10.9895  -10.4143 C   0  0  2  0  0  0  0  0  0  0  0  0
   44.7976   12.3354  -10.6487 O   0  0  0  0  0  0  0  0  0  0  0  0
   43.5052    7.1023   -7.9650 C   0  0  2  0  0  0  0  0  0  0  0  0
   44.6029    4.8696   -3.9937 C   0  0  2  0  0  0  0  0  0  0  0  0
   44.5949    5.8579   -4.9196 O   0  0  0  0  0  0  0  0  0  0  0  0
   39.8054    3.6919    0.6461 C   0  0  2  0  0  0  0  0  0  0  0  0
   38.6862    4.1278   -0.2193 O   0  0  0  0  0  0  0  0  0  0  0  0
   44.3175    9.9163  -10.8248 C   0  0  2  0  0  0  0  0  0  0  0  0
   44.9480    8.6367  -10.5611 O   0  0  0  0  0  0  0  0  0  0  0  0
   42.7302    7.1565   -6.6052 C   0  0  2  0  0  0  0  0  0  0  0  0
   43.7596    7.3759   -5.6714 O   0  0  0  0  0  0  0  0  0  0  0  0
   44.5136    3.5167   -4.7920 C   0  0  0  0  0  0  0  0  0  0  0  0
   45.7245    3.3451   -5.5944 O   0  0  0  0  0  0  0  0  0  0  0  0
   40.8505    4.8892    0.7608 C   0  0  1  0  0  0  0  0  0  0  0  0
   41.4117    5.1199   -0.6268 O   0  0  0  0  0  0  0  0  0  0  0  0
   44.0082   10.1408  -12.2494 C   0  0  0  0  0  0  0  0  0  0  0  0
   43.3153   11.2770  -12.4049 O   0  0  0  0  0  0  0  0  0  0  0  0
   41.9497    5.7985   -6.3425 C   0  0  1  0  0  0  0  0  0  0  0  0
   41.2566    5.8623   -5.1334 O   0  0  0  0  0  0  0  0  0  0  0  0
   44.0081    7.5888   -0.5661 C   0  0  0  0  0  0  0  0  0  0  0  0
   40.0383    6.1012    1.3306 C   0  0  0  0  0  0  0  0  0  0  0  0
   39.6648    5.9275    2.7050 N   0  0  0  0  0  0  0  0  0  0  0  0
   42.9218    8.6502   -0.3857 C   0  0  0  0  0  0  0  0  0  0  0  0
   41.7967    8.2596   -1.2572 N   0  0  0  0  0  0  0  0  0  0  0  0
   40.4277    8.8913   -0.9957 C   0  0  0  0  0  0  0  0  0  0  0  0
  1  2  1  1  0  0  0
  1  8  1  0  0  0  0
  1 33  1  0  0  0  0
  3  4  1  1  0  0  0
  3 10  1  0  0  0  0
  3 42  1  0  0  0  0
  5 11  1  0  0  0  0
  5 29  1  0  0  0  0
  5 35  1  6  0  0  0
  6 13  1  0  0  0  0
  6 39  1  0  0  0  0
  6 22  1  6  0  0  0
  7 15  1  0  0  0  0
  8  9  1  1  0  0  0
  8 17  1  0  0  0  0
 10 19  1  0  0  0  0
 11 12  1  1  0  0  0
 11 21  1  0  0  0  0
 12 44  1  0  0  0  0
 13 14  1  6  0  0  0
 13 23  1  0  0  0  0
 15 16  1  0  0  0  0
 17 18  1  6  0  0  0
 17 25  1  0  0  0  0
 19 20  1  6  0  0  0
 19 27  1  0  0  0  0
 21 22  1  1  0  0  0
 21 28  1  0  0  0  0
 23 24  1  1  0  0  0
 23 30  1  0  0  0  0
 25 26  1  1  0  0  0
 25 32  1  0  0  0  0
 27  2  1  6  0  0  0
 27 34  1  0  0  0  0
 28 29  1  0  0  0  0
 28 36  1  6  0  0  0
 30 31  1  6  0  0  0
 30 38  1  0  0  0  0
 32 33  1  0  0  0  0
 32 40  1  6  0  0  0
 34 35  1  1  0  0  0
 34 42  1  0  0  0  0
 36 37  1  0  0  0  0
 38 39  1  0  0  0  0
 38 45  1  6  0  0  0
 40 41  1  0  0  0  0
 42 43  1  1  0  0  0
 44 47  1  0  0  0  0
 45 46  1  0  0  0  0
 47 48  1  0  0  0  0
 48 49  1  0  0  0  0
 49  7  1  0  0  0  0
M  END
>  <CHROM.1>
-148.28057459,-46.95447059,167.13274413,70.98499971,171.31110981,-74.60410812
-41.66883530,-82.58422206,178.83889018,-70.32807386,-146.36271212,70.44499295
54.02462956,162.70867923,66.39573671,-175.74621400,42.76485003,6.99743252
-4.73986956,-0.35154477,-1.20869534,-3.09836289

>  <Name>
2bee_lig

>  <RI>
0

>  <Rbt.Current_Directory>
/home/itssahil/PROJECTS/Mol_Feturizer/New_Systems/rnas/2bee

>  <Rbt.Executable>
rbdock ($Id: //depot/dev/client3/rdock/2013.1/src/exe/rbdock.cxx#4 $)

>  <Rbt.Library>
libRbt.so (2013.1, Build901 2013/11/27)

>  <Rbt.Parameter_File>
/export/apps/rDock/src/rDock_2013.1_src/data/scripts/dock_solv.prm

>  <Rbt.Receptor>
prm/pocket_docking_8.prm

>  <SCORE>
-25.4186

>  <SCORE.INTER>
-19.6417

>  <SCORE.INTER.CONST>
1

>  <SCORE.INTER.POLAR>
-1.5801

>  <SCORE.INTER.ROT>
16

>  <SCORE.INTER.SOLV>
23.088

>  <SCORE.INTER.VDW>
-29.7902

>  <SCORE.INTER.norm>
-0.400852

>  <SCORE.INTRA>
-5.77683

>  <SCORE.INTRA.DIHEDRAL>
-15.7372

>  <SCORE.INTRA.DIHEDRAL.0>
36.0842

>  <SCORE.INTRA.POLAR>
0

>  <SCORE.INTRA.POLAR.0>
0

>  <SCORE.INTRA.REPUL>
0

>  <SCORE.INTRA.REPUL.0>
0

>  <SCORE.INTRA.SOLV>
1.96302

>  <SCORE.INTRA.SOLV.lig_0>
-126.444

>  <SCORE.INTRA.VDW>
1.11029

>  <SCORE.INTRA.VDW.0>
-7.40469

>  <SCORE.INTRA.norm>
-0.117894

>  <SCORE.RESTR>
0

>  <SCORE.RESTR.CAVITY>
0

>  <SCORE.RESTR.norm>
0

>  <SCORE.SYSTEM>
0

>  <SCORE.SYSTEM.CONST>
0

>  <SCORE.SYSTEM.DIHEDRAL>
0

>  <SCORE.SYSTEM.SOLV>
0

>  <SCORE.SYSTEM.norm>
0

>  <SCORE.heavy>
49

>  <SCORE.norm>
-0.518746

>  <RMSD>
6.115

$$$$
2bee_lig
 OpenBabel11021811423D
libRbt.so/2013.1/901 2013/11/27
 49 52  0  0  0  0  0  0  0  0999 V2000
   43.2857    3.7791   -8.2461 C   0  0  2  0  0  0  0  0  0  0  0  0
   44.5032    3.6962   -7.5160 O   0  0  0  0  0  0  0  0  0  0  0  0
   44.9128   -0.6587   -7.0249 C   0  0  2  0  0  0  0  0  0  0  0  0
   45.4565   -1.9649   -6.5631 N   0  0  0  0  0  0  0  0  0  0  0  0
   44.0848    3.2462   -4.4604 C   0  0  1  0  0  0  0  0  0  0  0  0
   42.3316    6.4767   -1.7371 C   0  0  1  0  0  0  0  0  0  0  0  0
   51.2696    4.5598   -6.0785 C   0  0  0  0  0  0  0  0  0  0  0  0
   43.1533    5.1935   -8.9321 C   0  0  2  0  0  0  0  0  0  0  0  0
   44.3287    5.4629   -9.7534 N   0  0  0  0  0  0  0  0  0  0  0  0
   46.0666    0.1645   -7.7589 C   0  0  0  0  0  0  0  0  0  0  0  0
   44.4110    4.6017   -3.9229 C   0  0  2  0  0  0  0  0  0  0  0  0
   45.8526    4.9028   -3.9606 O   0  0  0  0  0  0  0  0  0  0  0  0
   43.4155    7.4529   -2.4465 C   0  0  2  0  0  0  0  0  0  0  0  0
   44.6713    7.4308   -1.6246 N   0  0  0  0  0  0  0  0  0  0  0  0
   52.6573    4.7062   -5.8473 C   0  0  0  0  0  0  0  0  0  0  0  0
   53.1297    4.8871   -4.5493 N   0  0  0  0  0  0  0  0  0  0  0  0
   42.9548    6.3050   -7.8108 C   0  0  1  0  0  0  0  0  0  0  0  0
   42.8320    7.5734   -8.4377 O   0  0  0  0  0  0  0  0  0  0  0  0
   45.5115    1.6143   -8.2702 C   0  0  2  0  0  0  0  0  0  0  0  0
   46.5313    2.3526   -8.9345 N   0  0  0  0  0  0  0  0  0  0  0  0
   43.6628    4.4558   -2.6199 C   0  0  2  0  0  0  0  0  0  0  0  0
   42.9754    5.1815   -1.6735 O   0  0  0  0  0  0  0  0  0  0  0  0
   42.8144    8.9026   -2.5054 C   0  0  1  0  0  0  0  0  0  0  0  0
   41.6028    8.8418   -3.3361 O   0  0  0  0  0  0  0  0  0  0  0  0
   41.6948    5.9661   -6.9810 C   0  0  2  0  0  0  0  0  0  0  0  0
   41.4807    6.9728   -5.9101 O   0  0  0  0  0  0  0  0  0  0  0  0
   44.9711    2.4442   -7.0412 C   0  0  2  0  0  0  0  0  0  0  0  0
   43.8969    2.9090   -2.2458 C   0  0  2  0  0  0  0  0  0  0  0  0
   43.8061    2.3112   -3.4576 O   0  0  0  0  0  0  0  0  0  0  0  0
   42.4789    9.4050   -0.9893 C   0  0  2  0  0  0  0  0  0  0  0  0
   43.7053    9.4597   -0.1621 O   0  0  0  0  0  0  0  0  0  0  0  0
   41.8356    4.5588   -6.3106 C   0  0  2  0  0  0  0  0  0  0  0  0
   42.0507    3.6349   -7.4081 O   0  0  0  0  0  0  0  0  0  0  0  0
   43.8482    1.5936   -6.3571 C   0  0  2  0  0  0  0  0  0  0  0  0
   43.4274    2.4271   -5.3043 O   0  0  0  0  0  0  0  0  0  0  0  0
   42.8336    2.2035   -1.3253 C   0  0  0  0  0  0  0  0  0  0  0  0
   42.8119    2.8585   -0.0177 O   0  0  0  0  0  0  0  0  0  0  0  0
   41.4477    8.4064   -0.2974 C   0  0  1  0  0  0  0  0  0  0  0  0
   42.0783    7.0298   -0.3276 O   0  0  0  0  0  0  0  0  0  0  0  0
   40.5872    4.3112   -5.5650 C   0  0  0  0  0  0  0  0  0  0  0  0
   39.5497    4.2150   -6.4074 O   0  0  0  0  0  0  0  0  0  0  0  0
   44.4223    0.2054   -5.8418 C   0  0  1  0  0  0  0  0  0  0  0  0
   43.4114   -0.5464   -5.2425 O   0  0  0  0  0  0  0  0  0  0  0  0
   46.6532    5.0643   -5.1853 C   0  0  0  0  0  0  0  0  0  0  0  0
   41.2196    8.9727    1.1449 C   0  0  0  0  0  0  0  0  0  0  0  0
   40.5378   10.2351    1.1488 N   0  0  0  0  0  0  0  0  0  0  0  0
   48.0841    5.4482   -4.8056 C   0  0  0  0  0  0  0  0  0  0  0  0
   48.8750    5.4271   -6.0514 N   0  0  0  0  0  0  0  0  0  0  0  0
   50.3417    5.8578   -5.9830 C   0  0  0  0  0  0  0  0  0  0  0  0
  1  2  1  1  0  0  0
  1  8  1  0  0  0  0
  1 33  1  0  0  0  0
  3  4  1  1  0  0  0
  3 10  1  0  0  0  0
  3 42  1  0  0  0  0
  5 11  1  0  0  0  0
  5 29  1  0  0  0  0
  5 35  1  6  0  0  0
  6 13  1  0  0  0  0
  6 39  1  0  0  0  0
  6 22  1  1  0  0  0
  7 15  1  0  0  0  0
  8  9  1  1  0  0  0
  8 17  1  0  0  0  0
 10 19  1  0  0  0  0
 11 12  1  1  0  0  0
 11 21  1  0  0  0  0
 12 44  1  0  0  0  0
 13 14  1  1  0  0  0
 13 23  1  0  0  0  0
 15 16  1  0  0  0  0
 17 18  1  6  0  0  0
 17 25  1  0  0  0  0
 19 20  1  1  0  0  0
 19 27  1  0  0  0  0
 21 22  1  1  0  0  0
 21 28  1  0  0  0  0
 23 24  1  6  0  0  0
 23 30  1  0  0  0  0
 25 26  1  1  0  0  0
 25 32  1  0  0  0  0
 27  2  1  6  0  0  0
 27 34  1  0  0  0  0
 28 29  1  0  0  0  0
 28 36  1  1  0  0  0
 30 31  1  1  0  0  0
 30 38  1  0  0  0  0
 32 33  1  0  0  0  0
 32 40  1  6  0  0  0
 34 35  1  1  0  0  0
 34 42  1  0  0  0  0
 36 37  1  0  0  0  0
 38 39  1  0  0  0  0
 38 45  1  1  0  0  0
 40 41  1  0  0  0  0
 42 43  1  6  0  0  0
 44 47  1  0  0  0  0
 45 46  1  0  0  0  0
 47 48  1  0  0  0  0
 48 49  1  0  0  0  0
 49  7  1  0  0  0  0
M  END
>  <CHROM.1>
-167.23010142,113.76439082,-47.29273583,74.68958317,66.05757794,176.77197937
21.04108034,73.23587033,-62.81035832,65.18345022,-38.68870726,66.97787854
172.94843070,176.37036929,105.27368642,-171.27380642,44.22150551,4.71606988
-4.68697343,1.04737467,-0.06628851,-2.36174713

>  <Name>
2bee_lig

>  <RI>
0

>  <Rbt.Current_Directory>
/home/itssahil/PROJECTS/Mol_Feturizer/New_Systems/rnas/2bee

>  <Rbt.Executable>
rbdock ($Id: //depot/dev/client3/rdock/2013.1/src/exe/rbdock.cxx#4 $)

>  <Rbt.Library>
libRbt.so (2013.1, Build901 2013/11/27)

>  <Rbt.Parameter_File>
/export/apps/rDock/src/rDock_2013.1_src/data/scripts/dock_solv.prm

>  <Rbt.Receptor>
prm/pocket_docking_5.prm

>  <SCORE>
-12.6737

>  <SCORE.INTER>
-3.584

>  <SCORE.INTER.CONST>
1

>  <SCORE.INTER.POLAR>
-1.80769

>  <SCORE.INTER.ROT>
16

>  <SCORE.INTER.SOLV>
16.8413

>  <SCORE.INTER.VDW>
-16.2441

>  <SCORE.INTER.norm>
-0.0731428

>  <SCORE.INTRA>
-9.08968

>  <SCORE.INTRA.DIHEDRAL>
-19.2713

>  <SCORE.INTRA.DIHEDRAL.0>
36.0842

>  <SCORE.INTRA.POLAR>
0

>  <SCORE.INTRA.POLAR.0>
0

>  <SCORE.INTRA.REPUL>
0.0281193

>  <SCORE.INTRA.REPUL.0>
0

>  <SCORE.INTRA.SOLV>
-0.815092

>  <SCORE.INTRA.SOLV.lig_0>
-126.444

>  <SCORE.INTRA.VDW>
0.812927

>  <SCORE.INTRA.VDW.0>
-7.40469

>  <SCORE.INTRA.norm>
-0.185504

>  <SCORE.RESTR>
0

>  <SCORE.RESTR.CAVITY>
0

>  <SCORE.RESTR.norm>
0

>  <SCORE.SYSTEM>
0

>  <SCORE.SYSTEM.CONST>
0

>  <SCORE.SYSTEM.DIHEDRAL>
0

>  <SCORE.SYSTEM.SOLV>
0

>  <SCORE.SYSTEM.norm>
0

>  <SCORE.heavy>
49

>  <SCORE.norm>
-0.258646

>  <RMSD>
6.313

$$$$
2bee_lig
 OpenBabel11021811423D
libRbt.so/2013.1/901 2013/11/27
 49 52  0  0  0  0  0  0  0  0999 V2000
   43.9261    7.9128   -9.0472 C   0  0  2  0  0  0  0  0  0  0  0  0
   43.3244    8.0120   -7.7625 O   0  0  0  0  0  0  0  0  0  0  0  0
   40.3712    5.1504   -6.1931 C   0  0  2  0  0  0  0  0  0  0  0  0
   39.8183    3.9094   -5.5854 N   0  0  0  0  0  0  0  0  0  0  0  0
   43.6057    7.4870   -4.0499 C   0  0  1  0  0  0  0  0  0  0  0  0
   44.4457    3.1977   -2.7307 C   0  0  1  0  0  0  0  0  0  0  0  0
   40.8700    5.3930    1.6039 C   0  0  0  0  0  0  0  0  0  0  0  0
   45.2765    7.1019   -8.9587 C   0  0  2  0  0  0  0  0  0  0  0  0
   45.0397    5.8023   -8.3394 N   0  0  0  0  0  0  0  0  0  0  0  0
   41.2301    4.7698   -7.4835 C   0  0  0  0  0  0  0  0  0  0  0  0
   43.8783    6.7095   -2.8034 C   0  0  2  0  0  0  0  0  0  0  0  0
   44.3670    7.5506   -1.6972 O   0  0  0  0  0  0  0  0  0  0  0  0
   45.3820    1.9207   -3.0822 C   0  0  2  0  0  0  0  0  0  0  0  0
   45.5140    1.8360   -4.5751 N   0  0  0  0  0  0  0  0  0  0  0  0
   41.3651    6.3509    2.5195 C   0  0  0  0  0  0  0  0  0  0  0  0
   42.7024    6.3136    2.9078 N   0  0  0  0  0  0  0  0  0  0  0  0
   46.3477    7.9522   -8.1453 C   0  0  1  0  0  0  0  0  0  0  0  0
   47.5607    7.2167   -8.0750 O   0  0  0  0  0  0  0  0  0  0  0  0
   41.8669    6.1077   -8.1735 C   0  0  2  0  0  0  0  0  0  0  0  0
   42.6276    5.7793   -9.3310 N   0  0  0  0  0  0  0  0  0  0  0  0
   44.7473    5.6544   -3.4442 C   0  0  2  0  0  0  0  0  0  0  0  0
   45.1143    4.3325   -3.3317 O   0  0  0  0  0  0  0  0  0  0  0  0
   44.6957    0.6293   -2.5101 C   0  0  1  0  0  0  0  0  0  0  0  0
   44.6181    0.7837   -1.0500 O   0  0  0  0  0  0  0  0  0  0  0  0
   46.5570    9.3111   -8.8529 C   0  0  2  0  0  0  0  0  0  0  0  0
   47.5407   10.1448   -8.1159 O   0  0  0  0  0  0  0  0  0  0  0  0
   42.7834    6.8618   -7.1331 C   0  0  2  0  0  0  0  0  0  0  0  0
   45.5526    6.4861   -4.5610 C   0  0  2  0  0  0  0  0  0  0  0  0
   44.5997    7.3308   -5.0221 O   0  0  0  0  0  0  0  0  0  0  0  0
   43.2147    0.4699   -3.1769 C   0  0  2  0  0  0  0  0  0  0  0  0
   43.3053    0.3177   -4.6466 O   0  0  0  0  0  0  0  0  0  0  0  0
   45.2098   10.1031   -8.9398 C   0  0  2  0  0  0  0  0  0  0  0  0
   44.3011    9.2298   -9.6582 O   0  0  0  0  0  0  0  0  0  0  0  0
   41.8964    7.2080   -5.8898 C   0  0  2  0  0  0  0  0  0  0  0  0
   42.7956    7.8892   -5.0487 O   0  0  0  0  0  0  0  0  0  0  0  0
   46.0937    5.7050   -5.8151 C   0  0  0  0  0  0  0  0  0  0  0  0
   47.0743    4.7099   -5.3819 O   0  0  0  0  0  0  0  0  0  0  0  0
   42.3289    1.7551   -2.8563 C   0  0  1  0  0  0  0  0  0  0  0  0
   43.0818    2.9550   -3.3922 O   0  0  0  0  0  0  0  0  0  0  0  0
   45.4984   11.3657   -9.6455 C   0  0  0  0  0  0  0  0  0  0  0  0
   45.9868   11.1178  -10.8684 O   0  0  0  0  0  0  0  0  0  0  0  0
   41.3176    5.8890   -5.2207 C   0  0  1  0  0  0  0  0  0  0  0  0
   40.5226    6.2107   -4.1203 O   0  0  0  0  0  0  0  0  0  0  0  0
   44.2132    7.2425   -0.2660 C   0  0  0  0  0  0  0  0  0  0  0  0
   40.9517    1.5004   -3.5574 C   0  0  0  0  0  0  0  0  0  0  0  0
   40.4599    0.1676   -3.3564 N   0  0  0  0  0  0  0  0  0  0  0  0
   42.7410    7.3807    0.1245 C   0  0  0  0  0  0  0  0  0  0  0  0
   42.0279    6.2480   -0.4973 N   0  0  0  0  0  0  0  0  0  0  0  0
   41.7795    4.9984    0.3501 C   0  0  0  0  0  0  0  0  0  0  0  0
  1  2  1  1  0  0  0
  1  8  1  0  0  0  0
  1 33  1  0  0  0  0
  3  4  1  1  0  0  0
  3 10  1  0  0  0  0
  3 42  1  0  0  0  0
  5 11  1  0  0  0  0
  5 29  1  0  0  0  0
  5 35  1  6  0  0  0
  6 13  1  0  0  0  0
  6 39  1  0  0  0  0
  6 22  1  6  0  0  0
  7 15  1  0  0  0  0
  8  9  1  1  0  0  0
  8 17  1  0  0  0  0
 10 19  1  0  0  0  0
 11 12  1  1  0  0  0
 11 21  1  0  0  0  0
 12 44  1  0  0  0  0
 13 14  1  6  0  0  0
 13 23  1  0  0  0  0
 15 16  1  0  0  0  0
 17 18  1  6  0  0  0
 17 25  1  0  0  0  0
 19 20  1  6  0  0  0
 19 27  1  0  0  0  0
 21 22  1  1  0  0  0
 21 28  1  0  0  0  0
 23 24  1  1  0  0  0
 23 30  1  0  0  0  0
 25 26  1  1  0  0  0
 25 32  1  0  0  0  0
 27  2  1  6  0  0  0
 27 34  1  0  0  0  0
 28 29  1  0  0  0  0
 28 36  1  6  0  0  0
 30 31  1  6  0  0  0
 30 38  1  0  0  0  0
 32 33  1  0  0  0  0
 32 40  1  6  0  0  0
 34 35  1  1  0  0  0
 34 42  1  0  0  0  0
 36 37  1  0  0  0  0
 38 39  1  0  0  0  0
 38 45  1  6  0  0  0
 40 41  1  0  0  0  0
 42 43  1  1  0  0  0
 44 47  1  0  0  0  0
 45 46  1  0  0  0  0
 47 48  1  0  0  0  0
 48 49  1  0  0  0  0
 49  7  1  0  0  0  0
M  END
>  <CHROM.1>
-68.93469848,-45.53610009,174.82848757,-41.48729437,153.96447159,-69.83731884
24.19926885,-48.41065007,-63.05362745,59.23316692,-92.57784733,44.32381244
71.05093745,95.97540855,61.44585385,-60.77916477,43.71531201,5.74717252,-4.80380375
0.09760268,-1.29668767,-2.43406653

>  <Name>
2bee_lig

>  <RI>
3.71943e+07

>  <Rbt.Current_Directory>
/home/itssahil/PROJECTS/Mol_Feturizer/New_Systems/rnas/2bee

>  <Rbt.Executable>
rbdock ($Id: //depot/dev/client3/rdock/2013.1/src/exe/rbdock.cxx#4 $)

>  <Rbt.Library>
libRbt.so (2013.1, Build901 2013/11/27)

>  <Rbt.Parameter_File>
/export/apps/rDock/src/rDock_2013.1_src/data/scripts/dock_solv.prm

>  <Rbt.Receptor>
prm/pocket_docking_2.prm

>  <SCORE>
-3.28289

>  <SCORE.INTER>
-12.423

>  <SCORE.INTER.CONST>
1

>  <SCORE.INTER.POLAR>
-0.909644

>  <SCORE.INTER.ROT>
16

>  <SCORE.INTER.SOLV>
16.965

>  <SCORE.INTER.VDW>
-25.1715

>  <SCORE.INTER.norm>
-0.253531

>  <SCORE.INTRA>
2.81561

>  <SCORE.INTRA.DIHEDRAL>
-19.0134

>  <SCORE.INTRA.DIHEDRAL.0>
36.0842

>  <SCORE.INTRA.POLAR>
0

>  <SCORE.INTRA.POLAR.0>
0

>  <SCORE.INTRA.REPUL>
0.0163161

>  <SCORE.INTRA.REPUL.0>
0

>  <SCORE.INTRA.SOLV>
12.4

>  <SCORE.INTRA.SOLV.lig_0>
-126.444

>  <SCORE.INTRA.VDW>
6.04071

>  <SCORE.INTRA.VDW.0>
-7.40469

>  <SCORE.INTRA.norm>
0.0574613

>  <SCORE.RESTR>
6.32454

>  <SCORE.RESTR.CAVITY>
6.32454

>  <SCORE.RESTR.norm>
0.129072

>  <SCORE.SYSTEM>
0

>  <SCORE.SYSTEM.CONST>
0

>  <SCORE.SYSTEM.DIHEDRAL>
0

>  <SCORE.SYSTEM.SOLV>
0

>  <SCORE.SYSTEM.norm>
0

>  <SCORE.heavy>
49

>  <SCORE.norm>
-0.0669978

>  <RMSD>
6.384

$$$$
2bee_lig
 OpenBabel11021811423D
libRbt.so/2013.1/901 2013/11/27
 49 52  0  0  0  0  0  0  0  0999 V2000
   44.1492    6.3017   -7.0636 C   0  0  2  0  0  0  0  0  0  0  0  0
   45.2453    5.4872   -7.4605 O   0  0  0  0  0  0  0  0  0  0  0  0
   49.4430    4.8467   -6.3017 C   0  0  2  0  0  0  0  0  0  0  0  0
   50.6717    4.8362   -5.4620 N   0  0  0  0  0  0  0  0  0  0  0  0
   45.0799    3.4303   -5.1090 C   0  0  1  0  0  0  0  0  0  0  0  0
   41.3709    0.8782   -5.2204 C   0  0  1  0  0  0  0  0  0  0  0  0
   42.5231    8.8107   -1.9321 C   0  0  0  0  0  0  0  0  0  0  0  0
   42.8611    5.9303   -7.8953 C   0  0  2  0  0  0  0  0  0  0  0  0
   42.5825    4.5032   -7.7750 N   0  0  0  0  0  0  0  0  0  0  0  0
   48.8603    6.3313   -6.3674 C   0  0  0  0  0  0  0  0  0  0  0  0
   43.7756    3.9714   -4.6204 C   0  0  2  0  0  0  0  0  0  0  0  0
   43.9289    4.9130   -3.4978 O   0  0  0  0  0  0  0  0  0  0  0  0
   39.8787    1.2733   -5.7185 C   0  0  2  0  0  0  0  0  0  0  0  0
   39.0618    1.6264   -4.5097 N   0  0  0  0  0  0  0  0  0  0  0  0
   41.9278    8.5708   -0.6716 C   0  0  0  0  0  0  0  0  0  0  0  0
   41.8541    7.2715   -0.1746 N   0  0  0  0  0  0  0  0  0  0  0  0
   43.0733    6.3599   -9.4127 C   0  0  1  0  0  0  0  0  0  0  0  0
   41.9076    6.0261  -10.1522 O   0  0  0  0  0  0  0  0  0  0  0  0
   47.4997    6.3826   -7.2716 C   0  0  2  0  0  0  0  0  0  0  0  0
   46.9773    7.7047   -7.3437 N   0  0  0  0  0  0  0  0  0  0  0  0
   43.0874    2.6384   -4.4520 C   0  0  2  0  0  0  0  0  0  0  0  0
   41.8486    2.0402   -4.5011 O   0  0  0  0  0  0  0  0  0  0  0  0
   39.2613    0.0380   -6.4661 C   0  0  1  0  0  0  0  0  0  0  0  0
   40.1060   -0.2323   -7.6387 O   0  0  0  0  0  0  0  0  0  0  0  0
   43.3587    7.8785   -9.4727 C   0  0  2  0  0  0  0  0  0  0  0  0
   43.5789    8.3200  -10.8736 O   0  0  0  0  0  0  0  0  0  0  0  0
   46.4131    5.4158   -6.6586 C   0  0  2  0  0  0  0  0  0  0  0  0
   44.2780    1.6848   -3.9414 C   0  0  2  0  0  0  0  0  0  0  0  0
   45.3231    2.1194   -4.6849 O   0  0  0  0  0  0  0  0  0  0  0  0
   39.2197   -1.2374   -5.4487 C   0  0  2  0  0  0  0  0  0  0  0  0
   38.3688   -0.9527   -4.2714 O   0  0  0  0  0  0  0  0  0  0  0  0
   44.6348    8.2351   -8.6393 C   0  0  2  0  0  0  0  0  0  0  0  0
   44.3531    7.7691   -7.2948 O   0  0  0  0  0  0  0  0  0  0  0  0
   47.0343    3.9789   -6.6136 C   0  0  2  0  0  0  0  0  0  0  0  0
   45.9865    3.2059   -6.0801 O   0  0  0  0  0  0  0  0  0  0  0  0
   44.1546    0.1401   -4.2146 C   0  0  0  0  0  0  0  0  0  0  0  0
   44.8419   -0.5972   -3.1547 O   0  0  0  0  0  0  0  0  0  0  0  0
   40.6901   -1.5783   -4.9380 C   0  0  1  0  0  0  0  0  0  0  0  0
   41.2299   -0.3262   -4.2790 O   0  0  0  0  0  0  0  0  0  0  0  0
   44.8149    9.6960   -8.7334 C   0  0  0  0  0  0  0  0  0  0  0  0
   46.1109    9.9992   -8.8875 O   0  0  0  0  0  0  0  0  0  0  0  0
   48.3353    3.9515   -5.7030 C   0  0  1  0  0  0  0  0  0  0  0  0
   48.8841    2.6691   -5.6779 O   0  0  0  0  0  0  0  0  0  0  0  0
   44.2654    4.5363   -2.1152 C   0  0  0  0  0  0  0  0  0  0  0  0
   40.5239   -2.7924   -3.9625 C   0  0  0  0  0  0  0  0  0  0  0  0
   40.6120   -4.0606   -4.6277 N   0  0  0  0  0  0  0  0  0  0  0  0
   43.9957    5.7232   -1.1891 C   0  0  0  0  0  0  0  0  0  0  0  0
   44.2557    6.9443   -1.9760 N   0  0  0  0  0  0  0  0  0  0  0  0
   43.0925    7.5635   -2.7539 C   0  0  0  0  0  0  0  0  0  0  0  0
  1  2  1  6  0  0  0
  1  8  1  0  0  0  0
  1 33  1  0  0  0  0
  3  4  1  1  0  0  0
  3 10  1  0  0  0  0
  3 42  1  0  0  0  0
  5 11  1  0  0  0  0
  5 29  1  0  0  0  0
  5 35  1  6  0  0  0
  6 13  1  0  0  0  0
  6 39  1  0  0  0  0
  6 22  1  1  0  0  0
  7 15  1  0  0  0  0
  8  9  1  6  0  0  0
  8 17  1  0  0  0  0
 10 19  1  0  0  0  0
 11 12  1  1  0  0  0
 11 21  1  0  0  0  0
 12 44  1  0  0  0  0
 13 14  1  1  0  0  0
 13 23  1  0  0  0  0
 15 16  1  0  0  0  0
 17 18  1  6  0  0  0
 17 25  1  0  0  0  0
 19 20  1  1  0  0  0
 19 27  1  0  0  0  0
 21 22  1  1  0  0  0
 21 28  1  0  0  0  0
 23 24  1  6  0  0  0
 23 30  1  0  0  0  0
 25 26  1  6  0  0  0
 25 32  1  0  0  0  0
 27  2  1  6  0  0  0
 27 34  1  0  0  0  0
 28 29  1  0  0  0  0
 28 36  1  6  0  0  0
 30 31  1  1  0  0  0
 30 38  1  0  0  0  0
 32 33  1  0  0  0  0
 32 40  1  1  0  0  0
 34 35  1  1  0  0  0
 34 42  1  0  0  0  0
 36 37  1  0  0  0  0
 38 39  1  0  0  0  0
 38 45  1  1  0  0  0
 40 41  1  0  0  0  0
 42 43  1  6  0  0  0
 44 47  1  0  0  0  0
 45 46  1  0  0  0  0
 47 48  1  0  0  0  0
 48 49  1  0  0  0  0
 49  7  1  0  0  0  0
M  END
>  <CHROM.1>
-165.36668390,85.28217428,-140.84253495,0.22869022,-73.83255573,-166.09476898
127.56247998,-99.01192751,-149.91617161,-139.06286655,-39.63196818,89.54234497
-31.91028545,90.28828649,100.73218954,-64.63252361,43.77647964,4.03723299
-5.58363763,0.85089072,-0.65850034,-0.79122365

>  <Name>
2bee_lig

>  <RI>
3.71943e+07

>  <Rbt.Current_Directory>
/home/itssahil/PROJECTS/Mol_Feturizer/New_Systems/rnas/2bee

>  <Rbt.Executable>
rbdock ($Id: //depot/dev/client3/rdock/2013.1/src/exe/rbdock.cxx#4 $)

>  <Rbt.Library>
libRbt.so (2013.1, Build901 2013/11/27)

>  <Rbt.Parameter_File>
/export/apps/rDock/src/rDock_2013.1_src/data/scripts/dock_solv.prm

>  <Rbt.Receptor>
prm/pocket_docking_2.prm

>  <SCORE>
12.1347

>  <SCORE.INTER>
-2.78795

>  <SCORE.INTER.CONST>
1

>  <SCORE.INTER.POLAR>
-0.937595

>  <SCORE.INTER.ROT>
16

>  <SCORE.INTER.SOLV>
12.8047

>  <SCORE.INTER.VDW>
-17.2682

>  <SCORE.INTER.norm>
-0.0568969

>  <SCORE.INTRA>
7.85638

>  <SCORE.INTRA.DIHEDRAL>
3.55324

>  <SCORE.INTRA.DIHEDRAL.0>
36.0842

>  <SCORE.INTRA.POLAR>
0

>  <SCORE.INTRA.POLAR.0>
0

>  <SCORE.INTRA.REPUL>
0

>  <SCORE.INTRA.REPUL.0>
0

>  <SCORE.INTRA.SOLV>
5.4752

>  <SCORE.INTRA.SOLV.lig_0>
-126.444

>  <SCORE.INTRA.VDW>
3.34216

>  <SCORE.INTRA.VDW.0>
-7.40469

>  <SCORE.INTRA.norm>
0.160334

>  <SCORE.RESTR>
7.06628

>  <SCORE.RESTR.CAVITY>
7.06628

>  <SCORE.RESTR.norm>
0.14421

>  <SCORE.SYSTEM>
0

>  <SCORE.SYSTEM.CONST>
0

>  <SCORE.SYSTEM.DIHEDRAL>
0

>  <SCORE.SYSTEM.SOLV>
0

>  <SCORE.SYSTEM.norm>
0

>  <SCORE.heavy>
49

>  <SCORE.norm>
0.247647

>  <RMSD>
6.418

$$$$
2bee_lig
 OpenBabel11021811423D
libRbt.so/2013.1/901 2013/11/27
 49 52  0  0  0  0  0  0  0  0999 V2000
   43.6016    1.1405   -4.7452 C   0  0  2  0  0  0  0  0  0  0  0  0
   44.2777    2.3647   -5.0025 O   0  0  0  0  0  0  0  0  0  0  0  0
   43.7049    5.6300   -7.8980 C   0  0  2  0  0  0  0  0  0  0  0  0
   43.5794    6.3269   -9.2070 N   0  0  0  0  0  0  0  0  0  0  0  0
   40.7233    2.7239   -5.2944 C   0  0  1  0  0  0  0  0  0  0  0  0
   38.9670    5.4156   -1.9340 C   0  0  1  0  0  0  0  0  0  0  0  0
   40.8028   -2.3985   -2.7652 C   0  0  0  0  0  0  0  0  0  0  0  0
   44.1080    0.5089   -3.3911 C   0  0  2  0  0  0  0  0  0  0  0  0
   43.9690    1.4744   -2.3062 N   0  0  0  0  0  0  0  0  0  0  0  0
   45.1043    4.8646   -7.8386 C   0  0  0  0  0  0  0  0  0  0  0  0
   40.0960    2.7330   -3.9383 C   0  0  2  0  0  0  0  0  0  0  0  0
   39.3612    1.4921   -3.6371 O   0  0  0  0  0  0  0  0  0  0  0  0
   40.3875    6.1471   -1.6542 C   0  0  2  0  0  0  0  0  0  0  0  0
   41.4830    5.2296   -2.1138 N   0  0  0  0  0  0  0  0  0  0  0  0
   41.4408   -3.1301   -1.7365 C   0  0  0  0  0  0  0  0  0  0  0  0
   40.8638   -4.3050   -1.2595 N   0  0  0  0  0  0  0  0  0  0  0  0
   45.6172    0.0352   -3.5641 C   0  0  1  0  0  0  0  0  0  0  0  0
   46.0626   -0.5359   -2.3424 O   0  0  0  0  0  0  0  0  0  0  0  0
   45.2748    4.0738   -6.4183 C   0  0  2  0  0  0  0  0  0  0  0  0
   46.5243    3.3952   -6.3521 N   0  0  0  0  0  0  0  0  0  0  0  0
   39.3906    4.0598   -4.0828 C   0  0  2  0  0  0  0  0  0  0  0  0
   38.9557    5.1450   -3.3561 O   0  0  0  0  0  0  0  0  0  0  0  0
   40.5064    6.4281   -0.1138 C   0  0  1  0  0  0  0  0  0  0  0  0
   39.4131    7.3408    0.2515 O   0  0  0  0  0  0  0  0  0  0  0  0
   45.6964   -0.9871   -4.7217 C   0  0  2  0  0  0  0  0  0  0  0  0
   47.0942   -1.4447   -4.9280 O   0  0  0  0  0  0  0  0  0  0  0  0
   44.0982    3.0373   -6.2384 C   0  0  2  0  0  0  0  0  0  0  0  0
   38.9478    4.0613   -5.6292 C   0  0  2  0  0  0  0  0  0  0  0  0
   40.0216    3.4938   -6.2284 O   0  0  0  0  0  0  0  0  0  0  0  0
   40.4062    5.0156    0.6975 C   0  0  2  0  0  0  0  0  0  0  0  0
   41.5101    4.1044    0.3197 O   0  0  0  0  0  0  0  0  0  0  0  0
   45.1860   -0.3509   -6.0576 C   0  0  2  0  0  0  0  0  0  0  0  0
   43.8287    0.0790   -5.7797 O   0  0  0  0  0  0  0  0  0  0  0  0
   42.7532    3.8363   -6.3076 C   0  0  2  0  0  0  0  0  0  0  0  0
   41.7868    2.8319   -6.1146 O   0  0  0  0  0  0  0  0  0  0  0  0
   38.7334    5.4518   -6.3338 C   0  0  0  0  0  0  0  0  0  0  0  0
   39.8158    6.3601   -5.9560 O   0  0  0  0  0  0  0  0  0  0  0  0
   39.0230    4.2945    0.3720 C   0  0  1  0  0  0  0  0  0  0  0  0
   38.9650    4.1080   -1.1298 O   0  0  0  0  0  0  0  0  0  0  0  0
   45.2746   -1.3975   -7.0932 C   0  0  0  0  0  0  0  0  0  0  0  0
   44.4243   -2.3971   -6.8229 O   0  0  0  0  0  0  0  0  0  0  0  0
   42.5992    4.5676   -7.7090 C   0  0  1  0  0  0  0  0  0  0  0  0
   41.4022    5.2827   -7.7552 O   0  0  0  0  0  0  0  0  0  0  0  0
   38.1700    1.0157   -4.3589 C   0  0  0  0  0  0  0  0  0  0  0  0
   39.0488    2.9538    1.1813 C   0  0  0  0  0  0  0  0  0  0  0  0
   39.0782    3.1581    2.6012 N   0  0  0  0  0  0  0  0  0  0  0  0
   37.6695   -0.2753   -3.7095 C   0  0  0  0  0  0  0  0  0  0  0  0
   38.7751   -1.2494   -3.7924 N   0  0  0  0  0  0  0  0  0  0  0  0
   39.3429   -1.8100   -2.4868 C   0  0  0  0  0  0  0  0  0  0  0  0
  1  2  1  6  0  0  0
  1  8  1  0  0  0  0
  1 33  1  0  0  0  0
  3  4  1  6  0  0  0
  3 10  1  0  0  0  0
  3 42  1  0  0  0  0
  5 11  1  0  0  0  0
  5 29  1  0  0  0  0
  5 35  1  1  0  0  0
  6 13  1  0  0  0  0
  6 39  1  0  0  0  0
  6 22  1  6  0  0  0
  7 15  1  0  0  0  0
  8  9  1  1  0  0  0
  8 17  1  0  0  0  0
 10 19  1  0  0  0  0
 11 12  1  6  0  0  0
 11 21  1  0  0  0  0
 12 44  1  0  0  0  0
 13 14  1  1  0  0  0
 13 23  1  0  0  0  0
 15 16  1  0  0  0  0
 17 18  1  1  0  0  0
 17 25  1  0  0  0  0
 19 20  1  6  0  0  0
 19 27  1  0  0  0  0
 21 22  1  1  0  0  0
 21 28  1  0  0  0  0
 23 24  1  1  0  0  0
 23 30  1  0  0  0  0
 25 26  1  6  0  0  0
 25 32  1  0  0  0  0
 27  2  1  1  0  0  0
 27 34  1  0  0  0  0
 28 29  1  0  0  0  0
 28 36  1  6  0  0  0
 30 31  1  6  0  0  0
 30 38  1  0  0  0  0
 32 33  1  0  0  0  0
 32 40  1  6  0  0  0
 34 35  1  6  0  0  0
 34 42  1  0  0  0  0
 36 37  1  0  0  0  0
 38 39  1  0  0  0  0
 38 45  1  1  0  0  0
 40 41  1  0  0  0  0
 42 43  1  1  0  0  0
 44 47  1  0  0  0  0
 45 46  1  0  0  0  0
 47 48  1  0  0  0  0
 48 49  1  0  0  0  0
 49  7  1  0  0  0  0
M  END
>  <CHROM.1>
172.80593067,-55.34894776,89.76554853,61.43814061,-63.85167259,-177.65498811
-4.14333044,-162.48494102,43.20513728,65.59316738,130.21221328,64.02670804
-59.40394153,119.37440437,-160.00779420,-171.56251888,41.78811184,2.43526496
-3.97678888,0.19813179,-0.83553718,2.63904671

>  <Name>
2bee_lig

>  <RI>
0

>  <Rbt.Current_Directory>
/home/itssahil/PROJECTS/Mol_Feturizer/New_Systems/rnas/2bee

>  <Rbt.Executable>
rbdock ($Id: //depot/dev/client3/rdock/2013.1/src/exe/rbdock.cxx#4 $)

>  <Rbt.Library>
libRbt.so (2013.1, Build901 2013/11/27)

>  <Rbt.Parameter_File>
/export/apps/rDock/src/rDock_2013.1_src/data/scripts/dock_solv.prm

>  <Rbt.Receptor>
prm/pocket_docking_6.prm

>  <SCORE>
-7.87984

>  <SCORE.INTER>
0.365291

>  <SCORE.INTER.CONST>
1

>  <SCORE.INTER.POLAR>
0

>  <SCORE.INTER.ROT>
16

>  <SCORE.INTER.SOLV>
7.59722

>  <SCORE.INTER.VDW>
-16.5555

>  <SCORE.INTER.norm>
0.00745491

>  <SCORE.INTRA>
-8.24513

>  <SCORE.INTRA.DIHEDRAL>
-17.3372

>  <SCORE.INTRA.DIHEDRAL.0>
36.0842

>  <SCORE.INTRA.POLAR>
0

>  <SCORE.INTRA.POLAR.0>
0

>  <SCORE.INTRA.REPUL>
0

>  <SCORE.INTRA.REPUL.0>
0

>  <SCORE.INTRA.SOLV>
-0.120814

>  <SCORE.INTRA.SOLV.lig_0>
-126.444

>  <SCORE.INTRA.VDW>
0.483891

>  <SCORE.INTRA.VDW.0>
-7.40469

>  <SCORE.INTRA.norm>
-0.168268

>  <SCORE.RESTR>
0

>  <SCORE.RESTR.CAVITY>
0

>  <SCORE.RESTR.norm>
0

>  <SCORE.SYSTEM>
0

>  <SCORE.SYSTEM.CONST>
0

>  <SCORE.SYSTEM.DIHEDRAL>
0

>  <SCORE.SYSTEM.SOLV>
0

>  <SCORE.SYSTEM.norm>
0

>  <SCORE.heavy>
49

>  <SCORE.norm>
-0.160813

>  <RMSD>
6.519

$$$$
2bee_lig
 OpenBabel11021811423D
libRbt.so/2013.1/901 2013/11/27
 49 52  0  0  0  0  0  0  0  0999 V2000
   42.3365    2.6341   -6.2397 C   0  0  2  0  0  0  0  0  0  0  0  0
   41.3605    3.6580   -6.3854 O   0  0  0  0  0  0  0  0  0  0  0  0
   43.9422    7.1985   -6.8033 C   0  0  2  0  0  0  0  0  0  0  0  0
   44.3494    8.6018   -7.0854 N   0  0  0  0  0  0  0  0  0  0  0  0
   41.5610    5.8224   -3.0254 C   0  0  1  0  0  0  0  0  0  0  0  0
   40.1859    9.3504   -0.2028 C   0  0  1  0  0  0  0  0  0  0  0  0
   40.5674    1.8485    1.7661 C   0  0  0  0  0  0  0  0  0  0  0  0
   41.6372    1.2274   -6.0936 C   0  0  2  0  0  0  0  0  0  0  0  0
   40.7354    0.9982   -7.2173 N   0  0  0  0  0  0  0  0  0  0  0  0
   43.2286    6.5857   -8.0929 C   0  0  0  0  0  0  0  0  0  0  0  0
   41.9179    6.7236   -1.8882 C   0  0  2  0  0  0  0  0  0  0  0  0
   42.7134    6.0484   -0.8482 O   0  0  0  0  0  0  0  0  0  0  0  0
   39.2991   10.6421   -0.6224 C   0  0  2  0  0  0  0  0  0  0  0  0
   39.6211   10.9859   -2.0476 N   0  0  0  0  0  0  0  0  0  0  0  0
   40.0229    0.6598    1.2262 C   0  0  0  0  0  0  0  0  0  0  0  0
   38.6708    0.3736    1.4012 N   0  0  0  0  0  0  0  0  0  0  0  0
   40.8674    1.1652   -4.7024 C   0  0  1  0  0  0  0  0  0  0  0  0
   40.2454   -0.1055   -4.5778 O   0  0  0  0  0  0  0  0  0  0  0  0
   42.7535    5.0461   -7.8183 C   0  0  2  0  0  0  0  0  0  0  0  0
   42.1237    4.4875   -8.9662 N   0  0  0  0  0  0  0  0  0  0  0  0
   40.5197    7.2252   -1.6197 C   0  0  2  0  0  0  0  0  0  0  0  0
   39.8278    8.3213   -1.1560 O   0  0  0  0  0  0  0  0  0  0  0  0
   39.6698   11.8310    0.3343 C   0  0  1  0  0  0  0  0  0  0  0  0
   39.3119   11.4228    1.7006 O   0  0  0  0  0  0  0  0  0  0  0  0
   41.8755    1.4101   -3.5557 C   0  0  2  0  0  0  0  0  0  0  0  0
   41.1939    1.3758   -2.2365 O   0  0  0  0  0  0  0  0  0  0  0  0
   41.7582    5.0035   -6.5940 C   0  0  2  0  0  0  0  0  0  0  0  0
   39.6141    5.9271   -1.9067 C   0  0  2  0  0  0  0  0  0  0  0  0
   40.2319    5.3877   -2.9844 O   0  0  0  0  0  0  0  0  0  0  0  0
   41.2650   12.1484    0.2005 C   0  0  2  0  0  0  0  0  0  0  0  0
   41.6137   12.5556   -1.1793 O   0  0  0  0  0  0  0  0  0  0  0  0
   42.5666    2.8054   -3.7150 C   0  0  2  0  0  0  0  0  0  0  0  0
   43.1984    2.7698   -5.0203 O   0  0  0  0  0  0  0  0  0  0  0  0
   42.5036    5.6167   -5.3608 C   0  0  2  0  0  0  0  0  0  0  0  0
   41.5459    5.5083   -4.3356 O   0  0  0  0  0  0  0  0  0  0  0  0
   38.1140    6.1518   -2.3249 C   0  0  0  0  0  0  0  0  0  0  0  0
   37.4143    6.8682   -1.2588 O   0  0  0  0  0  0  0  0  0  0  0  0
   42.1140   10.8526    0.5739 C   0  0  1  0  0  0  0  0  0  0  0  0
   41.6615    9.7455   -0.3551 O   0  0  0  0  0  0  0  0  0  0  0  0
   43.5216    2.9417   -2.5991 C   0  0  0  0  0  0  0  0  0  0  0  0
   44.0898    4.1550   -2.6144 O   0  0  0  0  0  0  0  0  0  0  0  0
   42.9247    7.1218   -5.6433 C   0  0  1  0  0  0  0  0  0  0  0  0
   43.5951    7.6539   -4.5416 O   0  0  0  0  0  0  0  0  0  0  0  0
   42.2319    4.9540    0.0105 C   0  0  0  0  0  0  0  0  0  0  0  0
   43.6133   11.2669    0.3907 C   0  0  0  0  0  0  0  0  0  0  0  0
   43.9286   11.6442   -0.9572 N   0  0  0  0  0  0  0  0  0  0  0  0
   41.2079    5.5052    1.0037 C   0  0  0  0  0  0  0  0  0  0  0  0
   40.8123    4.3813    1.8746 N   0  0  0  0  0  0  0  0  0  0  0  0
   39.9855    3.2491    1.2615 C   0  0  0  0  0  0  0  0  0  0  0  0
  1  2  1  1  0  0  0
  1  8  1  0  0  0  0
  1 33  1  0  0  0  0
  3  4  1  6  0  0  0
  3 10  1  0  0  0  0
  3 42  1  0  0  0  0
  5 11  1  0  0  0  0
  5 29  1  0  0  0  0
  5 35  1  6  0  0  0
  6 13  1  0  0  0  0
  6 39  1  0  0  0  0
  6 22  1  6  0  0  0
  7 15  1  0  0  0  0
  8  9  1  6  0  0  0
  8 17  1  0  0  0  0
 10 19  1  0  0  0  0
 11 12  1  1  0  0  0
 11 21  1  0  0  0  0
 12 44  1  0  0  0  0
 13 14  1  6  0  0  0
 13 23  1  0  0  0  0
 15 16  1  0  0  0  0
 17 18  1  1  0  0  0
 17 25  1  0  0  0  0
 19 20  1  6  0  0  0
 19 27  1  0  0  0  0
 21 22  1  1  0  0  0
 21 28  1  0  0  0  0
 23 24  1  1  0  0  0
 23 30  1  0  0  0  0
 25 26  1  1  0  0  0
 25 32  1  0  0  0  0
 27  2  1  1  0  0  0
 27 34  1  0  0  0  0
 28 29  1  0  0  0  0
 28 36  1  6  0  0  0
 30 31  1  6  0  0  0
 30 38  1  0  0  0  0
 32 33  1  0  0  0  0
 32 40  1  1  0  0  0
 34 35  1  1  0  0  0
 34 42  1  0  0  0  0
 36 37  1  0  0  0  0
 38 39  1  0  0  0  0
 38 45  1  6  0  0  0
 40 41  1  0  0  0  0
 42 43  1  1  0  0  0
 44 47  1  0  0  0  0
 45 46  1  0  0  0  0
 47 48  1  0  0  0  0
 48 49  1  0  0  0  0
 49  7  1  0  0  0  0
M  END
>  <CHROM.1>
-177.13391890,41.18647100,153.92907277,-60.91224196,-65.92850316,-70.45228549
-29.34510857,52.88018319,-60.37379462,-175.77455598,178.26745403,-61.66198536
-177.34724570,-69.09995556,136.27896501,-174.53784981,41.42075999,5.90988075
-2.64519153,-1.35041310,1.21085005,0.32637304

>  <Name>
2bee_lig

>  <RI>
0

>  <Rbt.Current_Directory>
/home/itssahil/PROJECTS/Mol_Feturizer/New_Systems/rnas/2bee

>  <Rbt.Executable>
rbdock ($Id: //depot/dev/client3/rdock/2013.1/src/exe/rbdock.cxx#4 $)

>  <Rbt.Library>
libRbt.so (2013.1, Build901 2013/11/27)

>  <Rbt.Parameter_File>
/export/apps/rDock/src/rDock_2013.1_src/data/scripts/dock_solv.prm

>  <Rbt.Receptor>
prm/pocket_docking_6.prm

>  <SCORE>
-18.3907

>  <SCORE.INTER>
-6.05451

>  <SCORE.INTER.CONST>
1

>  <SCORE.INTER.POLAR>
-2.65661

>  <SCORE.INTER.ROT>
16

>  <SCORE.INTER.SOLV>
21.2042

>  <SCORE.INTER.VDW>
-16.5157

>  <SCORE.INTER.norm>
-0.123562

>  <SCORE.INTRA>
-12.3362

>  <SCORE.INTRA.DIHEDRAL>
-24.9615

>  <SCORE.INTRA.DIHEDRAL.0>
36.0842

>  <SCORE.INTRA.POLAR>
0

>  <SCORE.INTRA.POLAR.0>
0

>  <SCORE.INTRA.REPUL>
0

>  <SCORE.INTRA.REPUL.0>
0

>  <SCORE.INTRA.SOLV>
0.374741

>  <SCORE.INTRA.SOLV.lig_0>
-126.444

>  <SCORE.INTRA.VDW>
-0.0428332

>  <SCORE.INTRA.VDW.0>
-7.40469

>  <SCORE.INTRA.norm>
-0.251759

>  <SCORE.RESTR>
0

>  <SCORE.RESTR.CAVITY>
0

>  <SCORE.RESTR.norm>
0

>  <SCORE.SYSTEM>
0

>  <SCORE.SYSTEM.CONST>
0

>  <SCORE.SYSTEM.DIHEDRAL>
0

>  <SCORE.SYSTEM.SOLV>
0

>  <SCORE.SYSTEM.norm>
0

>  <SCORE.heavy>
49

>  <SCORE.norm>
-0.375321

>  <RMSD>
6.534

$$$$
2bee_lig
 OpenBabel11021811423D
libRbt.so/2013.1/901 2013/11/27
 49 52  0  0  0  0  0  0  0  0999 V2000
   48.4167    4.2201   -5.1606 C   0  0  2  0  0  0  0  0  0  0  0  0
   47.9602    3.5528   -6.3304 O   0  0  0  0  0  0  0  0  0  0  0  0
   44.6729    0.7305   -7.1069 C   0  0  2  0  0  0  0  0  0  0  0  0
   43.8488   -0.5061   -7.0276 N   0  0  0  0  0  0  0  0  0  0  0  0
   44.9137    3.9256   -3.7319 C   0  0  1  0  0  0  0  0  0  0  0  0
   40.4617    3.1362   -2.4462 C   0  0  1  0  0  0  0  0  0  0  0  0
   39.5825    5.8136   -5.9627 C   0  0  0  0  0  0  0  0  0  0  0  0
   49.2685    5.4894   -5.5510 C   0  0  2  0  0  0  0  0  0  0  0  0
   48.4976    6.3560   -6.4361 N   0  0  0  0  0  0  0  0  0  0  0  0
   46.1606    0.3476   -7.5405 C   0  0  0  0  0  0  0  0  0  0  0  0
   43.5897    4.5292   -3.3924 C   0  0  2  0  0  0  0  0  0  0  0  0
   43.7093    5.8287   -2.7087 O   0  0  0  0  0  0  0  0  0  0  0  0
   40.3413    4.1000   -1.1472 C   0  0  2  0  0  0  0  0  0  0  0  0
   40.7131    3.2971    0.0653 N   0  0  0  0  0  0  0  0  0  0  0  0
   40.1109    4.6309   -6.5309 C   0  0  0  0  0  0  0  0  0  0  0  0
   41.4574    4.5713   -6.8831 N   0  0  0  0  0  0  0  0  0  0  0  0
   50.6294    5.0208   -6.2293 C   0  0  1  0  0  0  0  0  0  0  0  0
   51.3910    6.1692   -6.5728 O   0  0  0  0  0  0  0  0  0  0  0  0
   47.1027    1.6805   -7.6262 C   0  0  2  0  0  0  0  0  0  0  0  0
   48.4298    1.3502   -8.0211 N   0  0  0  0  0  0  0  0  0  0  0  0
   43.0188    3.3156   -2.6995 C   0  0  2  0  0  0  0  0  0  0  0  0
   41.8315    2.6679   -2.4428 O   0  0  0  0  0  0  0  0  0  0  0  0
   38.8600    4.6111   -1.0435 C   0  0  1  0  0  0  0  0  0  0  0  0
   38.5809    5.3963   -2.2549 O   0  0  0  0  0  0  0  0  0  0  0  0
   51.3995    4.1128   -5.2424 C   0  0  2  0  0  0  0  0  0  0  0  0
   52.6725    3.6392   -5.8433 O   0  0  0  0  0  0  0  0  0  0  0  0
   47.1316    2.4063   -6.2250 C   0  0  2  0  0  0  0  0  0  0  0  0
   44.3015    2.6952   -1.9530 C   0  0  2  0  0  0  0  0  0  0  0  0
   45.2785    2.8844   -2.8715 O   0  0  0  0  0  0  0  0  0  0  0  0
   37.8589    3.3286   -0.9150 C   0  0  2  0  0  0  0  0  0  0  0  0
   38.1510    2.5447    0.3064 O   0  0  0  0  0  0  0  0  0  0  0  0
   50.5423    2.8609   -4.8583 C   0  0  2  0  0  0  0  0  0  0  0  0
   49.3194    3.3970   -4.2912 O   0  0  0  0  0  0  0  0  0  0  0  0
   45.6528    2.7560   -5.8462 C   0  0  2  0  0  0  0  0  0  0  0  0
   45.7974    3.4113   -4.6094 O   0  0  0  0  0  0  0  0  0  0  0  0
   44.2933    1.1556   -1.6287 C   0  0  0  0  0  0  0  0  0  0  0  0
   44.1736    0.3973   -2.8738 O   0  0  0  0  0  0  0  0  0  0  0  0
   38.0274    2.3739   -2.1796 C   0  0  1  0  0  0  0  0  0  0  0  0
   39.4858    1.9698   -2.2365 O   0  0  0  0  0  0  0  0  0  0  0  0
   51.3406    2.0704   -3.9026 C   0  0  0  0  0  0  0  0  0  0  0  0
   50.7624    0.8825   -3.6791 O   0  0  0  0  0  0  0  0  0  0  0  0
   44.7687    1.4411   -5.7384 C   0  0  1  0  0  0  0  0  0  0  0  0
   43.4525    1.7660   -5.4094 O   0  0  0  0  0  0  0  0  0  0  0  0
   42.5917    6.7442   -2.4265 C   0  0  0  0  0  0  0  0  0  0  0  0
   37.0431    1.1799   -1.9374 C   0  0  0  0  0  0  0  0  0  0  0  0
   37.2239    0.1073   -2.8729 N   0  0  0  0  0  0  0  0  0  0  0  0
   42.2318    7.5089   -3.7012 C   0  0  0  0  0  0  0  0  0  0  0  0
   41.6297    6.5310   -4.6281 N   0  0  0  0  0  0  0  0  0  0  0  0
   40.1237    6.2776   -4.5321 C   0  0  0  0  0  0  0  0  0  0  0  0
  1  2  1  6  0  0  0
  1  8  1  0  0  0  0
  1 33  1  0  0  0  0
  3  4  1  1  0  0  0
  3 10  1  0  0  0  0
  3 42  1  0  0  0  0
  5 11  1  0  0  0  0
  5 29  1  0  0  0  0
  5 35  1  6  0  0  0
  6 13  1  0  0  0  0
  6 39  1  0  0  0  0
  6 22  1  1  0  0  0
  7 15  1  0  0  0  0
  8  9  1  6  0  0  0
  8 17  1  0  0  0  0
 10 19  1  0  0  0  0
 11 12  1  1  0  0  0
 11 21  1  0  0  0  0
 12 44  1  0  0  0  0
 13 14  1  1  0  0  0
 13 23  1  0  0  0  0
 15 16  1  0  0  0  0
 17 18  1  1  0  0  0
 17 25  1  0  0  0  0
 19 20  1  1  0  0  0
 19 27  1  0  0  0  0
 21 22  1  1  0  0  0
 21 28  1  0  0  0  0
 23 24  1  6  0  0  0
 23 30  1  0  0  0  0
 25 26  1  6  0  0  0
 25 32  1  0  0  0  0
 27  2  1  6  0  0  0
 27 34  1  0  0  0  0
 28 29  1  0  0  0  0
 28 36  1  6  0  0  0
 30 31  1  1  0  0  0
 30 38  1  0  0  0  0
 32 33  1  0  0  0  0
 32 40  1  1  0  0  0
 34 35  1  1  0  0  0
 34 42  1  0  0  0  0
 36 37  1  0  0  0  0
 38 39  1  0  0  0  0
 38 45  1  1  0  0  0
 40 41  1  0  0  0  0
 42 43  1  6  0  0  0
 44 47  1  0  0  0  0
 45 46  1  0  0  0  0
 47 48  1  0  0  0  0
 48 49  1  0  0  0  0
 49  7  1  0  0  0  0
M  END
>  <CHROM.1>
-177.75970991,-26.54572717,-70.66837446,-64.71498509,170.75386627,-78.42489040
-21.28801519,-165.40941416,60.03127147,-170.73533833,-177.59924833,-170.23383396
69.41680088,87.31828658,152.44882360,60.54102270,44.28363308,3.35520281,-4.16240632
-0.01595491,0.31631934,0.04051959

>  <Name>
2bee_lig

>  <RI>
0

>  <Rbt.Current_Directory>
/home/itssahil/PROJECTS/Mol_Feturizer/New_Systems/rnas/2bee

>  <Rbt.Executable>
rbdock ($Id: //depot/dev/client3/rdock/2013.1/src/exe/rbdock.cxx#4 $)

>  <Rbt.Library>
libRbt.so (2013.1, Build901 2013/11/27)

>  <Rbt.Parameter_File>
/export/apps/rDock/src/rDock_2013.1_src/data/scripts/dock_solv.prm

>  <Rbt.Receptor>
prm/pocket_docking_8.prm

>  <SCORE>
-15.1973

>  <SCORE.INTER>
-3.35252

>  <SCORE.INTER.CONST>
1

>  <SCORE.INTER.POLAR>
-0.670345

>  <SCORE.INTER.ROT>
16

>  <SCORE.INTER.SOLV>
10.5752

>  <SCORE.INTER.VDW>
-17.7922

>  <SCORE.INTER.norm>
-0.0684187

>  <SCORE.INTRA>
-11.8448

>  <SCORE.INTRA.DIHEDRAL>
-22.8821

>  <SCORE.INTRA.DIHEDRAL.0>
36.0842

>  <SCORE.INTRA.POLAR>
0

>  <SCORE.INTRA.POLAR.0>
0

>  <SCORE.INTRA.REPUL>
0.00507476

>  <SCORE.INTRA.REPUL.0>
0

>  <SCORE.INTRA.SOLV>
1.68217

>  <SCORE.INTRA.SOLV.lig_0>
-126.444

>  <SCORE.INTRA.VDW>
-1.2702

>  <SCORE.INTRA.VDW.0>
-7.40469

>  <SCORE.INTRA.norm>
-0.241731

>  <SCORE.RESTR>
0

>  <SCORE.RESTR.CAVITY>
0

>  <SCORE.RESTR.norm>
0

>  <SCORE.SYSTEM>
0

>  <SCORE.SYSTEM.CONST>
0

>  <SCORE.SYSTEM.DIHEDRAL>
0

>  <SCORE.SYSTEM.SOLV>
0

>  <SCORE.SYSTEM.norm>
0

>  <SCORE.heavy>
49

>  <SCORE.norm>
-0.310149

>  <RMSD>
6.551

$$$$
2bee_lig
 OpenBabel11021811423D
libRbt.so/2013.1/901 2013/11/27
 49 52  0  0  0  0  0  0  0  0999 V2000
   45.4989    4.8147   -4.8423 C   0  0  2  0  0  0  0  0  0  0  0  0
   44.1419    4.4302   -4.6612 O   0  0  0  0  0  0  0  0  0  0  0  0
   44.5947    0.0933   -4.0614 C   0  0  2  0  0  0  0  0  0  0  0  0
   44.2270   -1.3220   -3.7847 N   0  0  0  0  0  0  0  0  0  0  0  0
   42.4188    2.5277   -7.2446 C   0  0  1  0  0  0  0  0  0  0  0  0
   39.2777    1.2655   -4.3216 C   0  0  1  0  0  0  0  0  0  0  0  0
   42.5388    2.0903  -13.7423 C   0  0  0  0  0  0  0  0  0  0  0  0
   45.6139    6.3844   -4.9509 C   0  0  2  0  0  0  0  0  0  0  0  0
   44.9948    7.0127   -3.7887 N   0  0  0  0  0  0  0  0  0  0  0  0
   44.1131    1.0116   -2.8479 C   0  0  0  0  0  0  0  0  0  0  0  0
   41.2423    1.6967   -7.6421 C   0  0  2  0  0  0  0  0  0  0  0  0
   40.8560    1.8849   -9.0512 O   0  0  0  0  0  0  0  0  0  0  0  0
   38.1862    0.0675   -4.2562 C   0  0  2  0  0  0  0  0  0  0  0  0
   36.8806    0.5972   -4.7738 N   0  0  0  0  0  0  0  0  0  0  0  0
   43.5933    2.6985  -13.0219 C   0  0  0  0  0  0  0  0  0  0  0  0
   44.9096    2.5361  -13.4483 N   0  0  0  0  0  0  0  0  0  0  0  0
   44.9384    6.8683   -6.3079 C   0  0  1  0  0  0  0  0  0  0  0  0
   45.0508    8.2812   -6.3990 O   0  0  0  0  0  0  0  0  0  0  0  0
   44.4875    2.5791   -3.1206 C   0  0  2  0  0  0  0  0  0  0  0  0
   44.0699    3.4053   -2.0392 N   0  0  0  0  0  0  0  0  0  0  0  0
   40.3409    2.1187   -6.5072 C   0  0  2  0  0  0  0  0  0  0  0  0
   39.3114    1.6696   -5.7113 O   0  0  0  0  0  0  0  0  0  0  0  0
   38.0459   -0.3955   -2.7622 C   0  0  1  0  0  0  0  0  0  0  0  0
   39.3555   -0.9118   -2.3379 O   0  0  0  0  0  0  0  0  0  0  0  0
   45.6400    6.1729   -7.4976 C   0  0  2  0  0  0  0  0  0  0  0  0
   45.0284    6.5858   -8.7866 O   0  0  0  0  0  0  0  0  0  0  0  0
   43.8035    3.0681   -4.4563 C   0  0  2  0  0  0  0  0  0  0  0  0
   40.7247    3.6677   -6.3045 C   0  0  2  0  0  0  0  0  0  0  0  0
   42.0665    3.6496   -6.4865 O   0  0  0  0  0  0  0  0  0  0  0  0
   37.5763    0.8738   -1.8502 C   0  0  2  0  0  0  0  0  0  0  0  0
   36.2584    1.3864   -2.2881 O   0  0  0  0  0  0  0  0  0  0  0  0
   45.5242    4.6168   -7.3755 C   0  0  2  0  0  0  0  0  0  0  0  0
   46.1285    4.2898   -6.0979 O   0  0  0  0  0  0  0  0  0  0  0  0
   44.3052    2.1354   -5.6100 C   0  0  2  0  0  0  0  0  0  0  0  0
   43.6605    2.6691   -6.7412 O   0  0  0  0  0  0  0  0  0  0  0  0
   40.4804    4.3091   -4.8886 C   0  0  0  0  0  0  0  0  0  0  0  0
   39.0723    4.6841   -4.7614 O   0  0  0  0  0  0  0  0  0  0  0  0
   38.6405    2.0542   -1.9658 C   0  0  1  0  0  0  0  0  0  0  0  0
   38.7540    2.4040   -3.4349 O   0  0  0  0  0  0  0  0  0  0  0  0
   46.2369    4.0410   -8.5315 C   0  0  0  0  0  0  0  0  0  0  0  0
   45.5770    4.3048   -9.6674 O   0  0  0  0  0  0  0  0  0  0  0  0
   43.9000    0.6246   -5.3350 C   0  0  1  0  0  0  0  0  0  0  0  0
   44.3597   -0.1971   -6.3645 O   0  0  0  0  0  0  0  0  0  0  0  0
   39.8103    1.1224   -9.7528 C   0  0  0  0  0  0  0  0  0  0  0  0
   38.0789    3.2135   -1.0750 C   0  0  0  0  0  0  0  0  0  0  0  0
   39.0141    4.2874   -0.8995 N   0  0  0  0  0  0  0  0  0  0  0  0
   39.6082    1.7111  -11.1498 C   0  0  0  0  0  0  0  0  0  0  0  0
   40.9113    1.6305  -11.8379 N   0  0  0  0  0  0  0  0  0  0  0  0
   41.0435    2.2879  -13.2133 C   0  0  0  0  0  0  0  0  0  0  0  0
  1  2  1  6  0  0  0
  1  8  1  0  0  0  0
  1 33  1  0  0  0  0
  3  4  1  1  0  0  0
  3 10  1  0  0  0  0
  3 42  1  0  0  0  0
  5 11  1  0  0  0  0
  5 29  1  0  0  0  0
  5 35  1  1  0  0  0
  6 13  1  0  0  0  0
  6 39  1  0  0  0  0
  6 22  1  6  0  0  0
  7 15  1  0  0  0  0
  8  9  1  1  0  0  0
  8 17  1  0  0  0  0
 10 19  1  0  0  0  0
 11 12  1  6  0  0  0
 11 21  1  0  0  0  0
 12 44  1  0  0  0  0
 13 14  1  1  0  0  0
 13 23  1  0  0  0  0
 15 16  1  0  0  0  0
 17 18  1  6  0  0  0
 17 25  1  0  0  0  0
 19 20  1  1  0  0  0
 19 27  1  0  0  0  0
 21 22  1  6  0  0  0
 21 28  1  0  0  0  0
 23 24  1  1  0  0  0
 23 30  1  0  0  0  0
 25 26  1  6  0  0  0
 25 32  1  0  0  0  0
 27  2  1  6  0  0  0
 27 34  1  0  0  0  0
 28 29  1  0  0  0  0
 28 36  1  1  0  0  0
 30 31  1  6  0  0  0
 30 38  1  0  0  0  0
 32 33  1  0  0  0  0
 32 40  1  6  0  0  0
 34 35  1  6  0  0  0
 34 42  1  0  0  0  0
 36 37  1  0  0  0  0
 38 39  1  0  0  0  0
 38 45  1  1  0  0  0
 40 41  1  0  0  0  0
 42 43  1  6  0  0  0
 44 47  1  0  0  0  0
 45 46  1  0  0  0  0
 47 48  1  0  0  0  0
 48 49  1  0  0  0  0
 49  7  1  0  0  0  0
M  END
>  <CHROM.1>
-176.14389040,-45.60254377,-145.41316161,179.40277127,174.71772264,174.05224656
106.91438242,62.17531034,-81.19004064,-68.58098909,-81.33151300,171.07208885
58.53840117,-173.62116079,179.10272225,-64.09948912,42.13372422,2.81561955
-6.10266778,-0.80079833,0.55347935,1.44216172

>  <Name>
2bee_lig

>  <RI>
0

>  <Rbt.Current_Directory>
/home/itssahil/PROJECTS/Mol_Feturizer/New_Systems/rnas/2bee

>  <Rbt.Executable>
rbdock ($Id: //depot/dev/client3/rdock/2013.1/src/exe/rbdock.cxx#4 $)

>  <Rbt.Library>
libRbt.so (2013.1, Build901 2013/11/27)

>  <Rbt.Parameter_File>
/export/apps/rDock/src/rDock_2013.1_src/data/scripts/dock_solv.prm

>  <Rbt.Receptor>
prm/pocket_docking_8.prm

>  <SCORE>
-9.75583

>  <SCORE.INTER>
0.959045

>  <SCORE.INTER.CONST>
1

>  <SCORE.INTER.POLAR>
-1.37215

>  <SCORE.INTER.ROT>
16

>  <SCORE.INTER.SOLV>
16.2361

>  <SCORE.INTER.VDW>
-14.4655

>  <SCORE.INTER.norm>
0.0195723

>  <SCORE.INTRA>
-10.7149

>  <SCORE.INTRA.DIHEDRAL>
-22.416

>  <SCORE.INTRA.DIHEDRAL.0>
36.0842

>  <SCORE.INTRA.POLAR>
0

>  <SCORE.INTRA.POLAR.0>
0

>  <SCORE.INTRA.REPUL>
0

>  <SCORE.INTRA.REPUL.0>
0

>  <SCORE.INTRA.SOLV>
-1.85757

>  <SCORE.INTRA.SOLV.lig_0>
-126.444

>  <SCORE.INTRA.VDW>
1.4219

>  <SCORE.INTRA.VDW.0>
-7.40469

>  <SCORE.INTRA.norm>
-0.218671

>  <SCORE.RESTR>
0

>  <SCORE.RESTR.CAVITY>
0

>  <SCORE.RESTR.norm>
0

>  <SCORE.SYSTEM>
0

>  <SCORE.SYSTEM.CONST>
0

>  <SCORE.SYSTEM.DIHEDRAL>
0

>  <SCORE.SYSTEM.SOLV>
0

>  <SCORE.SYSTEM.norm>
0

>  <SCORE.heavy>
49

>  <SCORE.norm>
-0.199099

>  <RMSD>
6.629

$$$$
2bee_lig
 OpenBabel11021811423D
libRbt.so/2013.1/901 2013/11/27
 49 52  0  0  0  0  0  0  0  0999 V2000
   42.8496   -0.3702   -3.4130 C   0  0  2  0  0  0  0  0  0  0  0  0
   42.2852    0.4568   -4.4227 O   0  0  0  0  0  0  0  0  0  0  0  0
   45.9116    1.8698   -6.4786 C   0  0  2  0  0  0  0  0  0  0  0  0
   46.7687    2.6182   -7.4379 N   0  0  0  0  0  0  0  0  0  0  0  0
   42.6979    3.9127   -3.9028 C   0  0  1  0  0  0  0  0  0  0  0  0
   40.7513    7.0133   -0.8967 C   0  0  1  0  0  0  0  0  0  0  0  0
   39.6234    0.8000   -6.3745 C   0  0  0  0  0  0  0  0  0  0  0  0
   41.7263   -1.2373   -2.7236 C   0  0  2  0  0  0  0  0  0  0  0  0
   40.9885   -1.9922   -3.7309 N   0  0  0  0  0  0  0  0  0  0  0  0
   44.8235    1.0277   -7.2876 C   0  0  0  0  0  0  0  0  0  0  0  0
   41.3609    4.5673   -4.0321 C   0  0  2  0  0  0  0  0  0  0  0  0
   41.1762    5.2451   -5.3269 O   0  0  0  0  0  0  0  0  0  0  0  0
   39.3817    7.0722   -0.0297 C   0  0  2  0  0  0  0  0  0  0  0  0
   38.2261    7.1253   -0.9862 N   0  0  0  0  0  0  0  0  0  0  0  0
   40.0621    0.5932   -7.7033 C   0  0  0  0  0  0  0  0  0  0  0  0
   39.1641    0.1440   -8.6689 N   0  0  0  0  0  0  0  0  0  0  0  0
   40.7661   -0.2839   -1.8862 C   0  0  1  0  0  0  0  0  0  0  0  0
   39.7616   -1.0733   -1.2659 O   0  0  0  0  0  0  0  0  0  0  0  0
   43.8518    0.2001   -6.2666 C   0  0  2  0  0  0  0  0  0  0  0  0
   42.8832   -0.5616   -6.9793 N   0  0  0  0  0  0  0  0  0  0  0  0
   41.4178    5.3349   -2.7335 C   0  0  2  0  0  0  0  0  0  0  0  0
   40.6188    5.8382   -1.7318 O   0  0  0  0  0  0  0  0  0  0  0  0
   39.4186    8.3584    0.8705 C   0  0  1  0  0  0  0  0  0  0  0  0
   40.5628    8.2222    1.7838 O   0  0  0  0  0  0  0  0  0  0  0  0
   41.6046    0.4816   -0.8363 C   0  0  2  0  0  0  0  0  0  0  0  0
   40.7473    1.3971   -0.0408 O   0  0  0  0  0  0  0  0  0  0  0  0
   43.1234    1.2034   -5.2899 C   0  0  2  0  0  0  0  0  0  0  0  0
   42.9696    5.7455   -2.6300 C   0  0  2  0  0  0  0  0  0  0  0  0
   43.5852    4.6327   -3.0955 O   0  0  0  0  0  0  0  0  0  0  0  0
   39.5643    9.6750   -0.0828 C   0  0  2  0  0  0  0  0  0  0  0  0
   38.4085    9.8002   -0.9992 O   0  0  0  0  0  0  0  0  0  0  0  0
   42.7187    1.3329   -1.5318 C   0  0  2  0  0  0  0  0  0  0  0  0
   43.5051    0.3808   -2.2929 O   0  0  0  0  0  0  0  0  0  0  0  0
   44.2317    2.0039   -4.5261 C   0  0  2  0  0  0  0  0  0  0  0  0
   43.4809    2.8393   -3.6786 O   0  0  0  0  0  0  0  0  0  0  0  0
   43.5677    6.0147   -1.1997 C   0  0  0  0  0  0  0  0  0  0  0  0
   44.8773    6.6524   -1.3327 O   0  0  0  0  0  0  0  0  0  0  0  0
   40.8927    9.5734   -0.9570 C   0  0  1  0  0  0  0  0  0  0  0  0
   40.8010    8.2875   -1.7516 O   0  0  0  0  0  0  0  0  0  0  0  0
   43.4779    2.0046   -0.4602 C   0  0  0  0  0  0  0  0  0  0  0  0
   44.2020    3.0144   -0.9614 O   0  0  0  0  0  0  0  0  0  0  0  0
   45.1399    2.8232   -5.5392 C   0  0  1  0  0  0  0  0  0  0  0  0
   46.1281    3.5246   -4.8481 O   0  0  0  0  0  0  0  0  0  0  0  0
   39.8852    5.6984   -5.8700 C   0  0  0  0  0  0  0  0  0  0  0  0
   40.9145   10.8682   -1.8381 C   0  0  0  0  0  0  0  0  0  0  0  0
   41.7932   11.8795   -1.3244 N   0  0  0  0  0  0  0  0  0  0  0  0
   38.8470    4.5892   -5.6952 C   0  0  0  0  0  0  0  0  0  0  0  0
   39.4966    3.3297   -6.1074 N   0  0  0  0  0  0  0  0  0  0  0  0
   38.6665    2.0447   -6.0747 C   0  0  0  0  0  0  0  0  0  0  0  0
  1  2  1  6  0  0  0
  1  8  1  0  0  0  0
  1 33  1  0  0  0  0
  3  4  1  6  0  0  0
  3 10  1  0  0  0  0
  3 42  1  0  0  0  0
  5 11  1  0  0  0  0
  5 29  1  0  0  0  0
  5 35  1  1  0  0  0
  6 13  1  0  0  0  0
  6 39  1  0  0  0  0
  6 22  1  6  0  0  0
  7 15  1  0  0  0  0
  8  9  1  6  0  0  0
  8 17  1  0  0  0  0
 10 19  1  0  0  0  0
 11 12  1  6  0  0  0
 11 21  1  0  0  0  0
 12 44  1  0  0  0  0
 13 14  1  6  0  0  0
 13 23  1  0  0  0  0
 15 16  1  0  0  0  0
 17 18  1  1  0  0  0
 17 25  1  0  0  0  0
 19 20  1  6  0  0  0
 19 27  1  0  0  0  0
 21 22  1  6  0  0  0
 21 28  1  0  0  0  0
 23 24  1  1  0  0  0
 23 30  1  0  0  0  0
 25 26  1  6  0  0  0
 25 32  1  0  0  0  0
 27  2  1  1  0  0  0
 27 34  1  0  0  0  0
 28 29  1  0  0  0  0
 28 36  1  1  0  0  0
 30 31  1  6  0  0  0
 30 38  1  0  0  0  0
 32 33  1  0  0  0  0
 32 40  1  1  0  0  0
 34 35  1  1  0  0  0
 34 42  1  0  0  0  0
 36 37  1  0  0  0  0
 38 39  1  0  0  0  0
 38 45  1  6  0  0  0
 40 41  1  0  0  0  0
 42 43  1  1  0  0  0
 44 47  1  0  0  0  0
 45 46  1  0  0  0  0
 47 48  1  0  0  0  0
 48 49  1  0  0  0  0
 49  7  1  0  0  0  0
M  END
>  <CHROM.1>
-172.21623687,103.89619852,174.80001316,-71.50954235,164.94200610,-45.69161578
-147.83300592,70.47468665,-167.52388089,-163.41814263,-70.73486711,100.70912796
-44.86169184,-178.19331335,-172.70540419,-74.64396374,41.83553507,3.79072992
-3.24541071,1.28168664,-0.71501719,-2.83715060

>  <Name>
2bee_lig

>  <RI>
3.46266e+07

>  <Rbt.Current_Directory>
/home/itssahil/PROJECTS/Mol_Feturizer/New_Systems/rnas/2bee

>  <Rbt.Executable>
rbdock ($Id: //depot/dev/client3/rdock/2013.1/src/exe/rbdock.cxx#4 $)

>  <Rbt.Library>
libRbt.so (2013.1, Build901 2013/11/27)

>  <Rbt.Parameter_File>
/export/apps/rDock/src/rDock_2013.1_src/data/scripts/dock_solv.prm

>  <Rbt.Receptor>
prm/pocket_docking_4.prm

>  <SCORE>
-9.68366

>  <SCORE.INTER>
-2.80408

>  <SCORE.INTER.CONST>
1

>  <SCORE.INTER.POLAR>
-1.42037

>  <SCORE.INTER.ROT>
16

>  <SCORE.INTER.SOLV>
12.797

>  <SCORE.INTER.VDW>
-15.6672

>  <SCORE.INTER.norm>
-0.0572261

>  <SCORE.INTRA>
-6.89676

>  <SCORE.INTRA.DIHEDRAL>
-15.8048

>  <SCORE.INTRA.DIHEDRAL.0>
36.0842

>  <SCORE.INTRA.POLAR>
0

>  <SCORE.INTRA.POLAR.0>
0

>  <SCORE.INTRA.REPUL>
0.014044

>  <SCORE.INTRA.REPUL.0>
0

>  <SCORE.INTRA.SOLV>
1.50817

>  <SCORE.INTRA.SOLV.lig_0>
-126.444

>  <SCORE.INTRA.VDW>
0.181326

>  <SCORE.INTRA.VDW.0>
-7.40469

>  <SCORE.INTRA.norm>
-0.14075

>  <SCORE.RESTR>
0.017184

>  <SCORE.RESTR.CAVITY>
0.017184

>  <SCORE.RESTR.norm>
0.000350694

>  <SCORE.SYSTEM>
0

>  <SCORE.SYSTEM.CONST>
0

>  <SCORE.SYSTEM.DIHEDRAL>
0

>  <SCORE.SYSTEM.SOLV>
0

>  <SCORE.SYSTEM.norm>
0

>  <SCORE.heavy>
49

>  <SCORE.norm>
-0.197626

>  <RMSD>
6.668

$$$$
2bee_lig
 OpenBabel11021811423D
libRbt.so/2013.1/901 2013/11/27
 49 52  0  0  0  0  0  0  0  0999 V2000
   44.3168   -1.3001  -10.2311 C   0  0  2  0  0  0  0  0  0  0  0  0
   43.9163    0.0482  -10.0218 O   0  0  0  0  0  0  0  0  0  0  0  0
   47.7940    1.9375   -9.1452 C   0  0  2  0  0  0  0  0  0  0  0  0
   48.8095    3.0053   -8.9370 N   0  0  0  0  0  0  0  0  0  0  0  0
   44.3805    0.9056   -6.1343 C   0  0  1  0  0  0  0  0  0  0  0  0
   43.8222    4.6761   -3.7816 C   0  0  1  0  0  0  0  0  0  0  0  0
   40.8454   -3.8100   -2.6866 C   0  0  0  0  0  0  0  0  0  0  0  0
   43.0535   -2.2188  -10.4530 C   0  0  2  0  0  0  0  0  0  0  0  0
   42.2373   -1.6921  -11.5416 N   0  0  0  0  0  0  0  0  0  0  0  0
   47.1483    2.0976  -10.5962 C   0  0  0  0  0  0  0  0  0  0  0  0
   44.8347    1.2627   -4.7563 C   0  0  2  0  0  0  0  0  0  0  0  0
   45.1410    0.0830   -3.9288 O   0  0  0  0  0  0  0  0  0  0  0  0
   42.8683    5.5051   -2.7648 C   0  0  2  0  0  0  0  0  0  0  0  0
   41.4438    5.3029   -3.1925 N   0  0  0  0  0  0  0  0  0  0  0  0
   40.1195   -4.7464   -3.4593 C   0  0  0  0  0  0  0  0  0  0  0  0
   38.9915   -4.3369   -4.1667 N   0  0  0  0  0  0  0  0  0  0  0  0
   42.2286   -2.3149   -9.0958 C   0  0  1  0  0  0  0  0  0  0  0  0
   41.0967   -3.1471   -9.3039 O   0  0  0  0  0  0  0  0  0  0  0  0
   46.0159    0.9486  -10.8589 C   0  0  2  0  0  0  0  0  0  0  0  0
   45.4404    1.0776  -12.1544 N   0  0  0  0  0  0  0  0  0  0  0  0
   43.6865    2.1868   -4.4297 C   0  0  2  0  0  0  0  0  0  0  0  0
   43.3660    3.3050   -3.6936 O   0  0  0  0  0  0  0  0  0  0  0  0
   43.2622    7.0234   -2.8408 C   0  0  1  0  0  0  0  0  0  0  0  0
   44.6583    7.1375   -2.3943 O   0  0  0  0  0  0  0  0  0  0  0  0
   43.1447   -2.8826   -7.9868 C   0  0  2  0  0  0  0  0  0  0  0  0
   42.4166   -2.9746   -6.6955 O   0  0  0  0  0  0  0  0  0  0  0  0
   44.8844    1.0521   -9.7633 C   0  0  2  0  0  0  0  0  0  0  0  0
   42.4392    1.4752   -5.1545 C   0  0  2  0  0  0  0  0  0  0  0  0
   42.9984    1.0366   -6.3073 O   0  0  0  0  0  0  0  0  0  0  0  0
   43.0773    7.5482   -4.3751 C   0  0  2  0  0  0  0  0  0  0  0  0
   41.6688    7.4261   -4.8141 O   0  0  0  0  0  0  0  0  0  0  0  0
   44.3966   -1.9662   -7.7802 C   0  0  2  0  0  0  0  0  0  0  0  0
   45.0480   -1.9150   -9.0754 O   0  0  0  0  0  0  0  0  0  0  0  0
   45.5691    0.8925   -8.3640 C   0  0  2  0  0  0  0  0  0  0  0  0
   44.4807    0.9759   -7.4761 O   0  0  0  0  0  0  0  0  0  0  0  0
   41.2171    2.3743   -5.5714 C   0  0  0  0  0  0  0  0  0  0  0  0
   40.1415    1.5255   -6.0833 O   0  0  0  0  0  0  0  0  0  0  0  0
   43.9892    6.6902   -5.3606 C   0  0  1  0  0  0  0  0  0  0  0  0
   43.5833    5.2414   -5.1888 O   0  0  0  0  0  0  0  0  0  0  0  0
   45.2193   -2.5934   -6.7288 C   0  0  0  0  0  0  0  0  0  0  0  0
   46.2613   -1.8099   -6.4196 O   0  0  0  0  0  0  0  0  0  0  0  0
   46.6406    2.0397   -8.1224 C   0  0  1  0  0  0  0  0  0  0  0  0
   47.2495    1.8817   -6.8772 O   0  0  0  0  0  0  0  0  0  0  0  0
   44.2222   -1.0399   -3.6802 C   0  0  0  0  0  0  0  0  0  0  0  0
   43.7151    7.2647   -6.7917 C   0  0  0  0  0  0  0  0  0  0  0  0
   44.3906    8.5070   -7.0346 N   0  0  0  0  0  0  0  0  0  0  0  0
   43.0038   -0.5332   -2.9071 C   0  0  0  0  0  0  0  0  0  0  0  0
   42.2841   -1.7254   -2.4186 N   0  0  0  0  0  0  0  0  0  0  0  0
   41.4373   -2.5173   -3.4171 C   0  0  0  0  0  0  0  0  0  0  0  0
  1  2  1  1  0  0  0
  1  8  1  0  0  0  0
  1 33  1  0  0  0  0
  3  4  1  1  0  0  0
  3 10  1  0  0  0  0
  3 42  1  0  0  0  0
  5 11  1  0  0  0  0
  5 29  1  0  0  0  0
  5 35  1  6  0  0  0
  6 13  1  0  0  0  0
  6 39  1  0  0  0  0
  6 22  1  6  0  0  0
  7 15  1  0  0  0  0
  8  9  1  6  0  0  0
  8 17  1  0  0  0  0
 10 19  1  0  0  0  0
 11 12  1  1  0  0  0
 11 21  1  0  0  0  0
 12 44  1  0  0  0  0
 13 14  1  6  0  0  0
 13 23  1  0  0  0  0
 15 16  1  0  0  0  0
 17 18  1  6  0  0  0
 17 25  1  0  0  0  0
 19 20  1  6  0  0  0
 19 27  1  0  0  0  0
 21 22  1  1  0  0  0
 21 28  1  0  0  0  0
 23 24  1  6  0  0  0
 23 30  1  0  0  0  0
 25 26  1  1  0  0  0
 25 32  1  0  0  0  0
 27  2  1  6  0  0  0
 27 34  1  0  0  0  0
 28 29  1  0  0  0  0
 28 36  1  6  0  0  0
 30 31  1  6  0  0  0
 30 38  1  0  0  0  0
 32 33  1  0  0  0  0
 32 40  1  1  0  0  0
 34 35  1  1  0  0  0
 34 42  1  0  0  0  0
 36 37  1  0  0  0  0
 38 39  1  0  0  0  0
 38 45  1  6  0  0  0
 40 41  1  0  0  0  0
 42 43  1  1  0  0  0
 44 47  1  0  0  0  0
 45 46  1  0  0  0  0
 47 48  1  0  0  0  0
 48 49  1  0  0  0  0
 49  7  1  0  0  0  0
M  END
>  <CHROM.1>
178.28640417,44.98453111,171.47811985,-57.73964890,-54.15743052,-64.10774813
64.53708421,49.98135608,-174.20858956,-175.13656889,179.48372592,77.21100691
-167.18282779,-76.53946258,176.01948018,-174.82938597,43.71945741,1.19244373
-6.40939149,-1.70346264,0.99050530,0.44732745

>  <Name>
2bee_lig

>  <RI>
0

>  <Rbt.Current_Directory>
/home/itssahil/PROJECTS/Mol_Feturizer/New_Systems/rnas/2bee

>  <Rbt.Executable>
rbdock ($Id: //depot/dev/client3/rdock/2013.1/src/exe/rbdock.cxx#4 $)

>  <Rbt.Library>
libRbt.so (2013.1, Build901 2013/11/27)

>  <Rbt.Parameter_File>
/export/apps/rDock/src/rDock_2013.1_src/data/scripts/dock_solv.prm

>  <Rbt.Receptor>
prm/pocket_docking_7.prm

>  <SCORE>
-13.5847

>  <SCORE.INTER>
0.305878

>  <SCORE.INTER.CONST>
1

>  <SCORE.INTER.POLAR>
-1.89725

>  <SCORE.INTER.ROT>
16

>  <SCORE.INTER.SOLV>
9.35419

>  <SCORE.INTER.VDW>
-10.8566

>  <SCORE.INTER.norm>
0.0062424

>  <SCORE.INTRA>
-13.9055

>  <SCORE.INTRA.DIHEDRAL>
-26.1513

>  <SCORE.INTRA.DIHEDRAL.0>
36.0842

>  <SCORE.INTRA.POLAR>
0

>  <SCORE.INTRA.POLAR.0>
0

>  <SCORE.INTRA.REPUL>
0

>  <SCORE.INTRA.REPUL.0>
0

>  <SCORE.INTRA.SOLV>
-1.52388

>  <SCORE.INTRA.SOLV.lig_0>
-126.444

>  <SCORE.INTRA.VDW>
-0.0678841

>  <SCORE.INTRA.VDW.0>
-7.40469

>  <SCORE.INTRA.norm>
-0.283785

>  <SCORE.RESTR>
0.014885

>  <SCORE.RESTR.CAVITY>
0.014885

>  <SCORE.RESTR.norm>
0.000303775

>  <SCORE.SYSTEM>
0

>  <SCORE.SYSTEM.CONST>
0

>  <SCORE.SYSTEM.DIHEDRAL>
0

>  <SCORE.SYSTEM.SOLV>
0

>  <SCORE.SYSTEM.norm>
0

>  <SCORE.heavy>
49

>  <SCORE.norm>
-0.277239

>  <RMSD>
6.734

$$$$
2bee_lig
 OpenBabel11021811423D
libRbt.so/2013.1/901 2013/11/27
 49 52  0  0  0  0  0  0  0  0999 V2000
   45.3127    8.7018   -9.8313 C   0  0  2  0  0  0  0  0  0  0  0  0
   44.3812    8.6360   -8.7588 O   0  0  0  0  0  0  0  0  0  0  0  0
   41.3586    5.6106   -7.7171 C   0  0  2  0  0  0  0  0  0  0  0  0
   40.7703    4.2860   -7.3792 N   0  0  0  0  0  0  0  0  0  0  0  0
   44.0510    7.8731   -4.7745 C   0  0  1  0  0  0  0  0  0  0  0  0
   41.6835    5.2032   -1.9190 C   0  0  1  0  0  0  0  0  0  0  0  0
   42.4469   12.6065    0.8473 C   0  0  0  0  0  0  0  0  0  0  0  0
   46.5834    9.5330   -9.4032 C   0  0  2  0  0  0  0  0  0  0  0  0
   47.1583    8.9752   -8.1838 N   0  0  0  0  0  0  0  0  0  0  0  0
   42.1332    5.5055   -9.1089 C   0  0  0  0  0  0  0  0  0  0  0  0
   43.4278    7.9142   -3.4170 C   0  0  2  0  0  0  0  0  0  0  0  0
   43.9951    8.9668   -2.5564 O   0  0  0  0  0  0  0  0  0  0  0  0
   41.4559    6.3413   -0.7860 C   0  0  2  0  0  0  0  0  0  0  0  0
   42.5134    6.1707    0.2656 N   0  0  0  0  0  0  0  0  0  0  0  0
   41.0967   12.4755    0.4466 C   0  0  0  0  0  0  0  0  0  0  0  0
   40.6714   11.3123   -0.1912 N   0  0  0  0  0  0  0  0  0  0  0  0
   46.1738   11.0588   -9.2132 C   0  0  1  0  0  0  0  0  0  0  0  0
   47.3243   11.7995   -8.8327 O   0  0  0  0  0  0  0  0  0  0  0  0
   42.8064    6.9400   -9.5095 C   0  0  2  0  0  0  0  0  0  0  0  0
   43.4922    6.8588  -10.7542 N   0  0  0  0  0  0  0  0  0  0  0  0
   43.6035    6.4485   -3.1015 C   0  0  2  0  0  0  0  0  0  0  0  0
   43.0340    5.4118   -2.3973 O   0  0  0  0  0  0  0  0  0  0  0  0
   40.0236    6.1505   -0.1710 C   0  0  1  0  0  0  0  0  0  0  0  0
   39.0506    6.3474   -1.2556 O   0  0  0  0  0  0  0  0  0  0  0  0
   45.5780   11.5907  -10.5373 C   0  0  2  0  0  0  0  0  0  0  0  0
   45.1669   13.0112  -10.3989 O   0  0  0  0  0  0  0  0  0  0  0  0
   43.8105    7.3940   -8.3796 C   0  0  2  0  0  0  0  0  0  0  0  0
   45.0206    6.1051   -3.7808 C   0  0  2  0  0  0  0  0  0  0  0  0
   44.9621    6.8225   -4.9280 O   0  0  0  0  0  0  0  0  0  0  0  0
   39.9120    4.6546    0.4719 C   0  0  2  0  0  0  0  0  0  0  0  0
   40.8976    4.4674    1.5604 O   0  0  0  0  0  0  0  0  0  0  0  0
   44.3222   10.7547  -10.9543 C   0  0  2  0  0  0  0  0  0  0  0  0
   44.7941    9.3871  -11.0600 O   0  0  0  0  0  0  0  0  0  0  0  0
   43.0039    7.4778   -7.0398 C   0  0  2  0  0  0  0  0  0  0  0  0
   43.9774    7.9079   -6.1194 O   0  0  0  0  0  0  0  0  0  0  0  0
   45.2930    4.6149   -4.2061 C   0  0  0  0  0  0  0  0  0  0  0  0
   44.4062    4.2554   -5.3124 O   0  0  0  0  0  0  0  0  0  0  0  0
   40.1835    3.5553   -0.6492 C   0  0  1  0  0  0  0  0  0  0  0  0
   41.5554    3.8404   -1.2240 O   0  0  0  0  0  0  0  0  0  0  0  0
   43.8384   11.3138  -12.2306 C   0  0  0  0  0  0  0  0  0  0  0  0
   43.2649   12.5083  -12.0314 O   0  0  0  0  0  0  0  0  0  0  0  0
   42.3886    6.0642   -6.6587 C   0  0  1  0  0  0  0  0  0  0  0  0
   41.6655    6.1536   -5.4689 O   0  0  0  0  0  0  0  0  0  0  0  0
   43.6678    9.1679   -1.1354 C   0  0  0  0  0  0  0  0  0  0  0  0
   40.0719    2.1747    0.0819 C   0  0  0  0  0  0  0  0  0  0  0  0
   38.7158    1.7966    0.3589 N   0  0  0  0  0  0  0  0  0  0  0  0
   44.3864   10.4174   -0.6241 C   0  0  0  0  0  0  0  0  0  0  0  0
   43.6457   11.5798   -1.1516 N   0  0  0  0  0  0  0  0  0  0  0  0
   43.5561   12.8347   -0.2807 C   0  0  0  0  0  0  0  0  0  0  0  0
  1  2  1  1  0  0  0
  1  8  1  0  0  0  0
  1 33  1  0  0  0  0
  3  4  1  1  0  0  0
  3 10  1  0  0  0  0
  3 42  1  0  0  0  0
  5 11  1  0  0  0  0
  5 29  1  0  0  0  0
  5 35  1  6  0  0  0
  6 13  1  0  0  0  0
  6 39  1  0  0  0  0
  6 22  1  1  0  0  0
  7 15  1  0  0  0  0
  8  9  1  1  0  0  0
  8 17  1  0  0  0  0
 10 19  1  0  0  0  0
 11 12  1  1  0  0  0
 11 21  1  0  0  0  0
 12 44  1  0  0  0  0
 13 14  1  1  0  0  0
 13 23  1  0  0  0  0
 15 16  1  0  0  0  0
 17 18  1  6  0  0  0
 17 25  1  0  0  0  0
 19 20  1  6  0  0  0
 19 27  1  0  0  0  0
 21 22  1  1  0  0  0
 21 28  1  0  0  0  0
 23 24  1  6  0  0  0
 23 30  1  0  0  0  0
 25 26  1  1  0  0  0
 25 32  1  0  0  0  0
 27  2  1  6  0  0  0
 27 34  1  0  0  0  0
 28 29  1  0  0  0  0
 28 36  1  6  0  0  0
 30 31  1  1  0  0  0
 30 38  1  0  0  0  0
 32 33  1  0  0  0  0
 32 40  1  6  0  0  0
 34 35  1  1  0  0  0
 34 42  1  0  0  0  0
 36 37  1  0  0  0  0
 38 39  1  0  0  0  0
 38 45  1  1  0  0  0
 40 41  1  0  0  0  0
 42 43  1  1  0  0  0
 44 47  1  0  0  0  0
 45 46  1  0  0  0  0
 47 48  1  0  0  0  0
 48 49  1  0  0  0  0
 49  7  1  0  0  0  0
M  END
>  <CHROM.1>
-131.60704141,-32.44263269,-66.68479726,72.51543605,-174.20144964,-176.09873606
22.54095904,-70.74293405,67.56243027,-72.18625426,-161.13612303,75.68474431
75.85375386,145.62330548,-78.24042068,-66.17673314,43.12668759,7.78912939
-4.89429559,0.48869758,-1.19227551,-2.21689762

>  <Name>
2bee_lig

>  <RI>
0

>  <Rbt.Current_Directory>
/home/itssahil/PROJECTS/Mol_Feturizer/New_Systems/rnas/2bee

>  <Rbt.Executable>
rbdock ($Id: //depot/dev/client3/rdock/2013.1/src/exe/rbdock.cxx#4 $)

>  <Rbt.Library>
libRbt.so (2013.1, Build901 2013/11/27)

>  <Rbt.Parameter_File>
/export/apps/rDock/src/rDock_2013.1_src/data/scripts/dock_solv.prm

>  <Rbt.Receptor>
prm/pocket_docking_6.prm

>  <SCORE>
-29.8202

>  <SCORE.INTER>
-24.8772

>  <SCORE.INTER.CONST>
1

>  <SCORE.INTER.POLAR>
-2.37648

>  <SCORE.INTER.ROT>
16

>  <SCORE.INTER.SOLV>
24.2312

>  <SCORE.INTER.VDW>
-31.0069

>  <SCORE.INTER.norm>
-0.507697

>  <SCORE.INTRA>
-4.94301

>  <SCORE.INTRA.DIHEDRAL>
-15.9531

>  <SCORE.INTRA.DIHEDRAL.0>
36.0842

>  <SCORE.INTRA.POLAR>
0

>  <SCORE.INTRA.POLAR.0>
0

>  <SCORE.INTRA.REPUL>
0

>  <SCORE.INTRA.REPUL.0>
0

>  <SCORE.INTRA.SOLV>
3.81519

>  <SCORE.INTRA.SOLV.lig_0>
-126.444

>  <SCORE.INTRA.VDW>
1.12596

>  <SCORE.INTRA.VDW.0>
-7.40469

>  <SCORE.INTRA.norm>
-0.100878

>  <SCORE.RESTR>
0

>  <SCORE.RESTR.CAVITY>
0

>  <SCORE.RESTR.norm>
0

>  <SCORE.SYSTEM>
0

>  <SCORE.SYSTEM.CONST>
0

>  <SCORE.SYSTEM.DIHEDRAL>
0

>  <SCORE.SYSTEM.SOLV>
0

>  <SCORE.SYSTEM.norm>
0

>  <SCORE.heavy>
49

>  <SCORE.norm>
-0.608575

>  <RMSD>
6.775

$$$$
2bee_lig
 OpenBabel11021811423D
libRbt.so/2013.1/901 2013/11/27
 49 52  0  0  0  0  0  0  0  0999 V2000
   44.7675    4.8504   -8.6843 C   0  0  2  0  0  0  0  0  0  0  0  0
   45.0926    5.5949   -7.5172 O   0  0  0  0  0  0  0  0  0  0  0  0
   49.3460    4.5831   -7.0087 C   0  0  2  0  0  0  0  0  0  0  0  0
   50.6994    4.5158   -6.3933 N   0  0  0  0  0  0  0  0  0  0  0  0
   45.3394    3.7081   -4.7881 C   0  0  1  0  0  0  0  0  0  0  0  0
   42.9042    0.5047   -2.8413 C   0  0  1  0  0  0  0  0  0  0  0  0
   43.5420    5.9886    1.5891 C   0  0  0  0  0  0  0  0  0  0  0  0
   43.4798    5.4466   -9.3737 C   0  0  2  0  0  0  0  0  0  0  0  0
   43.6682    6.8686   -9.6401 N   0  0  0  0  0  0  0  0  0  0  0  0
   48.9117    6.1112   -7.1647 C   0  0  0  0  0  0  0  0  0  0  0  0
   44.2006    4.0049   -3.8675 C   0  0  2  0  0  0  0  0  0  0  0  0
   44.3450    5.2960   -3.1729 O   0  0  0  0  0  0  0  0  0  0  0  0
   42.0850    0.7709   -4.2158 C   0  0  2  0  0  0  0  0  0  0  0  0
   41.0291    1.8008   -3.9374 N   0  0  0  0  0  0  0  0  0  0  0  0
   42.1890    6.0293    1.9996 C   0  0  0  0  0  0  0  0  0  0  0  0
   41.7560    7.0311    2.8654 N   0  0  0  0  0  0  0  0  0  0  0  0
   42.2167    5.1876   -8.4412 C   0  0  1  0  0  0  0  0  0  0  0  0
   41.0624    5.7232   -9.0717 O   0  0  0  0  0  0  0  0  0  0  0  0
   47.4216    6.2275   -7.8262 C   0  0  2  0  0  0  0  0  0  0  0  0
   47.0288    7.5873   -7.9779 N   0  0  0  0  0  0  0  0  0  0  0  0
   44.2342    2.6927   -3.1220 C   0  0  2  0  0  0  0  0  0  0  0  0
   43.4259    1.7991   -2.4564 O   0  0  0  0  0  0  0  0  0  0  0  0
   41.4348   -0.5823   -4.6765 C   0  0  1  0  0  0  0  0  0  0  0  0
   42.5295   -1.5272   -4.9421 O   0  0  0  0  0  0  0  0  0  0  0  0
   42.0691    3.6671   -8.2014 C   0  0  2  0  0  0  0  0  0  0  0  0
   40.9079    3.3812   -7.3205 O   0  0  0  0  0  0  0  0  0  0  0  0
   46.3735    5.4707   -6.9207 C   0  0  2  0  0  0  0  0  0  0  0  0
   45.8074    2.3659   -3.0466 C   0  0  2  0  0  0  0  0  0  0  0  0
   46.2356    2.7688   -4.2666 O   0  0  0  0  0  0  0  0  0  0  0  0
   40.4429   -1.1273   -3.5007 C   0  0  2  0  0  0  0  0  0  0  0  0
   39.3467   -0.1670   -3.2404 O   0  0  0  0  0  0  0  0  0  0  0  0
   43.3545    3.0865   -7.5229 C   0  0  2  0  0  0  0  0  0  0  0  0
   44.4411    3.4095   -8.4281 O   0  0  0  0  0  0  0  0  0  0  0  0
   46.8465    3.9829   -6.7975 C   0  0  2  0  0  0  0  0  0  0  0  0
   45.8413    3.4040   -6.0010 O   0  0  0  0  0  0  0  0  0  0  0  0
   46.2421    0.8606   -2.9017 C   0  0  0  0  0  0  0  0  0  0  0  0
   47.6951    0.7867   -2.7511 O   0  0  0  0  0  0  0  0  0  0  0  0
   41.2603   -1.3383   -2.1492 C   0  0  1  0  0  0  0  0  0  0  0  0
   41.8944   -0.0069   -1.8043 O   0  0  0  0  0  0  0  0  0  0  0  0
   43.1349    1.6375   -7.3556 C   0  0  0  0  0  0  0  0  0  0  0  0
   43.0147    1.0411   -8.5494 O   0  0  0  0  0  0  0  0  0  0  0  0
   48.2818    3.8979   -6.1228 C   0  0  1  0  0  0  0  0  0  0  0  0
   48.6958    2.5692   -6.0265 O   0  0  0  0  0  0  0  0  0  0  0  0
   43.4610    5.7868   -2.1031 C   0  0  0  0  0  0  0  0  0  0  0  0
   40.2113   -1.8371   -1.0985 C   0  0  0  0  0  0  0  0  0  0  0  0
   39.6008   -3.0826   -1.4656 N   0  0  0  0  0  0  0  0  0  0  0  0
   43.8339    7.2305   -1.7630 C   0  0  0  0  0  0  0  0  0  0  0  0
   43.2648    7.5144   -0.4313 N   0  0  0  0  0  0  0  0  0  0  0  0
   44.1348    7.2448    0.7982 C   0  0  0  0  0  0  0  0  0  0  0  0
  1  2  1  1  0  0  0
  1  8  1  0  0  0  0
  1 33  1  0  0  0  0
  3  4  1  1  0  0  0
  3 10  1  0  0  0  0
  3 42  1  0  0  0  0
  5 11  1  0  0  0  0
  5 29  1  0  0  0  0
  5 35  1  6  0  0  0
  6 13  1  0  0  0  0
  6 39  1  0  0  0  0
  6 22  1  1  0  0  0
  7 15  1  0  0  0  0
  8  9  1  1  0  0  0
  8 17  1  0  0  0  0
 10 19  1  0  0  0  0
 11 12  1  1  0  0  0
 11 21  1  0  0  0  0
 12 44  1  0  0  0  0
 13 14  1  1  0  0  0
 13 23  1  0  0  0  0
 15 16  1  0  0  0  0
 17 18  1  6  0  0  0
 17 25  1  0  0  0  0
 19 20  1  1  0  0  0
 19 27  1  0  0  0  0
 21 22  1  1  0  0  0
 21 28  1  0  0  0  0
 23 24  1  1  0  0  0
 23 30  1  0  0  0  0
 25 26  1  1  0  0  0
 25 32  1  0  0  0  0
 27  2  1  6  0  0  0
 27 34  1  0  0  0  0
 28 29  1  0  0  0  0
 28 36  1  6  0  0  0
 30 31  1  1  0  0  0
 30 38  1  0  0  0  0
 32 33  1  0  0  0  0
 32 40  1  6  0  0  0
 34 35  1  1  0  0  0
 34 42  1  0  0  0  0
 36 37  1  0  0  0  0
 38 39  1  0  0  0  0
 38 45  1  1  0  0  0
 40 41  1  0  0  0  0
 42 43  1  6  0  0  0
 44 47  1  0  0  0  0
 45 46  1  0  0  0  0
 47 48  1  0  0  0  0
 48 49  1  0  0  0  0
 49  7  1  0  0  0  0
M  END
>  <CHROM.1>
-164.16372031,127.48277269,-57.07780560,-60.15892757,-173.00836744,-173.05895398
104.35864497,73.82120222,-175.82115287,63.73220856,-55.27732699,61.41347058
-161.34388430,91.01833593,-109.97918350,-55.55683371,44.04989511,3.29439697
-4.68571005,0.50377075,-0.89414367,-1.92088800

>  <Name>
2bee_lig

>  <RI>
3.46266e+07

>  <Rbt.Current_Directory>
/home/itssahil/PROJECTS/Mol_Feturizer/New_Systems/rnas/2bee

>  <Rbt.Executable>
rbdock ($Id: //depot/dev/client3/rdock/2013.1/src/exe/rbdock.cxx#4 $)

>  <Rbt.Library>
libRbt.so (2013.1, Build901 2013/11/27)

>  <Rbt.Parameter_File>
/export/apps/rDock/src/rDock_2013.1_src/data/scripts/dock_solv.prm

>  <Rbt.Receptor>
prm/pocket_docking_4.prm

>  <SCORE>
-10.2817

>  <SCORE.INTER>
-1.03336

>  <SCORE.INTER.CONST>
1

>  <SCORE.INTER.POLAR>
0

>  <SCORE.INTER.ROT>
16

>  <SCORE.INTER.SOLV>
12.4974

>  <SCORE.INTER.VDW>
-19.1214

>  <SCORE.INTER.norm>
-0.0210891

>  <SCORE.INTRA>
-9.24923

>  <SCORE.INTRA.DIHEDRAL>
-20.9374

>  <SCORE.INTRA.DIHEDRAL.0>
36.0842

>  <SCORE.INTRA.POLAR>
0

>  <SCORE.INTRA.POLAR.0>
0

>  <SCORE.INTRA.REPUL>
0

>  <SCORE.INTRA.REPUL.0>
0

>  <SCORE.INTRA.SOLV>
0.358149

>  <SCORE.INTRA.SOLV.lig_0>
-126.444

>  <SCORE.INTRA.VDW>
1.04038

>  <SCORE.INTRA.VDW.0>
-7.40469

>  <SCORE.INTRA.norm>
-0.18876

>  <SCORE.RESTR>
0.000896177

>  <SCORE.RESTR.CAVITY>
0.000896177

>  <SCORE.RESTR.norm>
1.82893e-05

>  <SCORE.SYSTEM>
0

>  <SCORE.SYSTEM.CONST>
0

>  <SCORE.SYSTEM.DIHEDRAL>
0

>  <SCORE.SYSTEM.SOLV>
0

>  <SCORE.SYSTEM.norm>
0

>  <SCORE.heavy>
49

>  <SCORE.norm>
-0.209831

>  <RMSD>
6.781

$$$$
2bee_lig
 OpenBabel11021811423D
libRbt.so/2013.1/901 2013/11/27
 49 52  0  0  0  0  0  0  0  0999 V2000
   45.5723    8.7807   -9.6265 C   0  0  2  0  0  0  0  0  0  0  0  0
   44.3523    8.5924   -8.9205 O   0  0  0  0  0  0  0  0  0  0  0  0
   41.4674    5.4033   -7.9818 C   0  0  2  0  0  0  0  0  0  0  0  0
   40.8601    4.0460   -7.9212 N   0  0  0  0  0  0  0  0  0  0  0  0
   45.1963    6.4833   -5.5429 C   0  0  1  0  0  0  0  0  0  0  0  0
   46.7884    2.4153   -3.6038 C   0  0  1  0  0  0  0  0  0  0  0  0
   44.0466    7.0174    1.0117 C   0  0  0  0  0  0  0  0  0  0  0  0
   46.4136    9.9410   -8.9672 C   0  0  2  0  0  0  0  0  0  0  0  0
   46.6138    9.6691   -7.5478 N   0  0  0  0  0  0  0  0  0  0  0  0
   41.7497    5.7887   -9.5048 C   0  0  0  0  0  0  0  0  0  0  0  0
   45.1140    5.5691   -4.3639 C   0  0  2  0  0  0  0  0  0  0  0  0
   45.2034    6.2814   -3.0775 O   0  0  0  0  0  0  0  0  0  0  0  0
   47.1274    0.9641   -4.2441 C   0  0  2  0  0  0  0  0  0  0  0  0
   45.9724    0.5557   -5.1115 N   0  0  0  0  0  0  0  0  0  0  0  0
   43.3549    6.1106    1.8485 C   0  0  0  0  0  0  0  0  0  0  0  0
   42.3453    5.3095    1.3196 N   0  0  0  0  0  0  0  0  0  0  0  0
   45.6682   11.3276   -9.1986 C   0  0  1  0  0  0  0  0  0  0  0  0
   46.4348   12.3660   -8.6061 O   0  0  0  0  0  0  0  0  0  0  0  0
   42.4307    7.2706   -9.6132 C   0  0  2  0  0  0  0  0  0  0  0  0
   42.6780    7.6272  -10.9689 N   0  0  0  0  0  0  0  0  0  0  0  0
   46.1854    4.6066   -4.8162 C   0  0  2  0  0  0  0  0  0  0  0  0
   46.5632    3.2852   -4.7389 O   0  0  0  0  0  0  0  0  0  0  0  0
   47.3325   -0.0604   -3.0717 C   0  0  1  0  0  0  0  0  0  0  0  0
   48.4845    0.4004   -2.2828 O   0  0  0  0  0  0  0  0  0  0  0  0
   45.4914   11.5589  -10.7174 C   0  0  2  0  0  0  0  0  0  0  0  0
   44.7841   12.8385  -10.9783 O   0  0  0  0  0  0  0  0  0  0  0  0
   43.7844    7.2980   -8.8022 C   0  0  2  0  0  0  0  0  0  0  0  0
   47.2515    5.5726   -5.5358 C   0  0  2  0  0  0  0  0  0  0  0  0
   46.4448    6.4537   -6.1737 O   0  0  0  0  0  0  0  0  0  0  0  0
   45.9732   -0.1218   -2.1705 C   0  0  2  0  0  0  0  0  0  0  0  0
   44.8203   -0.5843   -2.9757 O   0  0  0  0  0  0  0  0  0  0  0  0
   44.6607   10.3988  -11.3608 C   0  0  2  0  0  0  0  0  0  0  0  0
   45.4014    9.1885  -11.0593 O   0  0  0  0  0  0  0  0  0  0  0  0
   43.4531    6.9110   -7.3213 C   0  0  2  0  0  0  0  0  0  0  0  0
   44.7097    6.9893   -6.6930 O   0  0  0  0  0  0  0  0  0  0  0  0
   48.1842    4.9497   -6.6393 C   0  0  0  0  0  0  0  0  0  0  0  0
   49.1111    4.0055   -6.0159 O   0  0  0  0  0  0  0  0  0  0  0  0
   45.6358    1.3231   -1.5897 C   0  0  1  0  0  0  0  0  0  0  0  0
   45.5057    2.2562   -2.7754 O   0  0  0  0  0  0  0  0  0  0  0  0
   44.5636   10.6890  -12.8037 C   0  0  0  0  0  0  0  0  0  0  0  0
   45.7780   10.6631  -13.3694 O   0  0  0  0  0  0  0  0  0  0  0  0
   42.8231    5.4552   -7.2427 C   0  0  1  0  0  0  0  0  0  0  0  0
   42.5244    5.1256   -5.9204 O   0  0  0  0  0  0  0  0  0  0  0  0
   44.2504    6.1437   -1.9641 C   0  0  0  0  0  0  0  0  0  0  0  0
   44.3140    1.1464   -0.7683 C   0  0  0  0  0  0  0  0  0  0  0  0
   43.8564    2.3700   -0.1749 N   0  0  0  0  0  0  0  0  0  0  0  0
   43.0390    7.0406   -2.2230 C   0  0  0  0  0  0  0  0  0  0  0  0
   42.4012    7.2822   -0.9143 N   0  0  0  0  0  0  0  0  0  0  0  0
   43.1933    8.0534    0.1437 C   0  0  0  0  0  0  0  0  0  0  0  0
  1  2  1  1  0  0  0
  1  8  1  0  0  0  0
  1 33  1  0  0  0  0
  3  4  1  6  0  0  0
  3 10  1  0  0  0  0
  3 42  1  0  0  0  0
  5 11  1  0  0  0  0
  5 29  1  0  0  0  0
  5 35  1  6  0  0  0
  6 13  1  0  0  0  0
  6 39  1  0  0  0  0
  6 22  1  6  0  0  0
  7 15  1  0  0  0  0
  8  9  1  1  0  0  0
  8 17  1  0  0  0  0
 10 19  1  0  0  0  0
 11 12  1  1  0  0  0
 11 21  1  0  0  0  0
 12 44  1  0  0  0  0
 13 14  1  6  0  0  0
 13 23  1  0  0  0  0
 15 16  1  0  0  0  0
 17 18  1  6  0  0  0
 17 25  1  0  0  0  0
 19 20  1  6  0  0  0
 19 27  1  0  0  0  0
 21 22  1  1  0  0  0
 21 28  1  0  0  0  0
 23 24  1  1  0  0  0
 23 30  1  0  0  0  0
 25 26  1  1  0  0  0
 25 32  1  0  0  0  0
 27  2  1  1  0  0  0
 27 34  1  0  0  0  0
 28 29  1  0  0  0  0
 28 36  1  6  0  0  0
 30 31  1  6  0  0  0
 30 38  1  0  0  0  0
 32 33  1  0  0  0  0
 32 40  1  6  0  0  0
 34 35  1  1  0  0  0
 34 42  1  0  0  0  0
 36 37  1  0  0  0  0
 38 39  1  0  0  0  0
 38 45  1  6  0  0  0
 40 41  1  0  0  0  0
 42 43  1  1  0  0  0
 44 47  1  0  0  0  0
 45 46  1  0  0  0  0
 47 48  1  0  0  0  0
 48 49  1  0  0  0  0
 49  7  1  0  0  0  0
M  END
>  <CHROM.1>
-146.44199420,12.71532706,176.78228325,53.13432375,128.16812326,-82.38166215
-54.62609692,-113.24472597,-67.84394918,63.85585604,-160.90888773,-179.60963813
-158.34257828,64.19249453,-89.40138224,-67.23281956,44.92147594,5.99025603
-5.75992257,-1.64769241,-1.14850377,2.20148297

>  <Name>
2bee_lig

>  <RI>
3.46266e+07

>  <Rbt.Current_Directory>
/home/itssahil/PROJECTS/Mol_Feturizer/New_Systems/rnas/2bee

>  <Rbt.Executable>
rbdock ($Id: //depot/dev/client3/rdock/2013.1/src/exe/rbdock.cxx#4 $)

>  <Rbt.Library>
libRbt.so (2013.1, Build901 2013/11/27)

>  <Rbt.Parameter_File>
/export/apps/rDock/src/rDock_2013.1_src/data/scripts/dock_solv.prm

>  <Rbt.Receptor>
prm/pocket_docking_4.prm

>  <SCORE>
-18.9788

>  <SCORE.INTER>
-22.5067

>  <SCORE.INTER.CONST>
1

>  <SCORE.INTER.POLAR>
-1.40025

>  <SCORE.INTER.ROT>
16

>  <SCORE.INTER.SOLV>
31.5501

>  <SCORE.INTER.VDW>
-35.1203

>  <SCORE.INTER.norm>
-0.459321

>  <SCORE.INTRA>
3.47945

>  <SCORE.INTRA.DIHEDRAL>
-0.750808

>  <SCORE.INTRA.DIHEDRAL.0>
36.0842

>  <SCORE.INTRA.POLAR>
0

>  <SCORE.INTRA.POLAR.0>
0

>  <SCORE.INTRA.REPUL>
0.0863162

>  <SCORE.INTRA.REPUL.0>
0

>  <SCORE.INTRA.SOLV>
3.61616

>  <SCORE.INTRA.SOLV.lig_0>
-126.444

>  <SCORE.INTRA.VDW>
1.6152

>  <SCORE.INTRA.VDW.0>
-7.40469

>  <SCORE.INTRA.norm>
0.0710092

>  <SCORE.RESTR>
0.0484692

>  <SCORE.RESTR.CAVITY>
0.0484692

>  <SCORE.RESTR.norm>
0.000989168

>  <SCORE.SYSTEM>
0

>  <SCORE.SYSTEM.CONST>
0

>  <SCORE.SYSTEM.DIHEDRAL>
0

>  <SCORE.SYSTEM.SOLV>
0

>  <SCORE.SYSTEM.norm>
0

>  <SCORE.heavy>
49

>  <SCORE.norm>
-0.387323

>  <RMSD>
6.808

$$$$
2bee_lig
 OpenBabel11021811423D
libRbt.so/2013.1/901 2013/11/27
 49 52  0  0  0  0  0  0  0  0999 V2000
   46.9992    6.4649   -7.6511 C   0  0  2  0  0  0  0  0  0  0  0  0
   47.0380    6.3878   -6.2317 O   0  0  0  0  0  0  0  0  0  0  0  0
   49.2492    2.6272   -5.6457 C   0  0  2  0  0  0  0  0  0  0  0  0
   50.0581    1.5759   -4.9711 N   0  0  0  0  0  0  0  0  0  0  0  0
   44.6498    3.5216   -4.9963 C   0  0  1  0  0  0  0  0  0  0  0  0
   43.1550   -0.8137   -6.0230 C   0  0  1  0  0  0  0  0  0  0  0  0
   36.9321    1.9813   -7.5354 C   0  0  0  0  0  0  0  0  0  0  0  0
   45.9958    7.5919   -8.1115 C   0  0  2  0  0  0  0  0  0  0  0  0
   46.3461    8.8607   -7.4821 N   0  0  0  0  0  0  0  0  0  0  0  0
   50.0273    4.0192   -5.5758 C   0  0  0  0  0  0  0  0  0  0  0  0
   43.5772    2.6897   -5.6211 C   0  0  2  0  0  0  0  0  0  0  0  0
   42.2342    3.2759   -5.4695 O   0  0  0  0  0  0  0  0  0  0  0  0
   43.7644   -2.3057   -5.8400 C   0  0  2  0  0  0  0  0  0  0  0  0
   45.2250   -2.2581   -6.1826 N   0  0  0  0  0  0  0  0  0  0  0  0
   36.4079    0.6853   -7.7508 C   0  0  0  0  0  0  0  0  0  0  0  0
   35.4491    0.4798   -8.7403 N   0  0  0  0  0  0  0  0  0  0  0  0
   44.5096    7.1508   -7.7532 C   0  0  1  0  0  0  0  0  0  0  0  0
   43.6136    8.1687   -8.1753 O   0  0  0  0  0  0  0  0  0  0  0  0
   49.1634    5.2052   -6.2960 C   0  0  2  0  0  0  0  0  0  0  0  0
   49.8534    6.4492   -6.2468 N   0  0  0  0  0  0  0  0  0  0  0  0
   43.9572    1.3892   -4.9556 C   0  0  2  0  0  0  0  0  0  0  0  0
   43.9425    0.0258   -5.1449 O   0  0  0  0  0  0  0  0  0  0  0  0
   42.9974   -3.2773   -6.8063 C   0  0  1  0  0  0  0  0  0  0  0  0
   41.5853   -3.2790   -6.3971 O   0  0  0  0  0  0  0  0  0  0  0  0
   44.1991    5.8066   -8.4519 C   0  0  2  0  0  0  0  0  0  0  0  0
   42.8230    5.3494   -8.1307 O   0  0  0  0  0  0  0  0  0  0  0  0
   47.7595    5.3492   -5.5892 C   0  0  2  0  0  0  0  0  0  0  0  0
   44.4349    1.8629   -3.4944 C   0  0  2  0  0  0  0  0  0  0  0  0
   45.1005    3.0083   -3.7754 O   0  0  0  0  0  0  0  0  0  0  0  0
   43.1771   -2.7565   -8.3426 C   0  0  2  0  0  0  0  0  0  0  0  0
   44.6024   -2.7568   -8.7423 O   0  0  0  0  0  0  0  0  0  0  0  0
   45.2044    4.6987   -7.9918 C   0  0  2  0  0  0  0  0  0  0  0  0
   46.5182    5.2151   -8.3258 O   0  0  0  0  0  0  0  0  0  0  0  0
   47.0416    3.9605   -5.6826 C   0  0  2  0  0  0  0  0  0  0  0  0
   45.8083    4.2072   -5.0516 O   0  0  0  0  0  0  0  0  0  0  0  0
   45.4473    0.9442   -2.7154 C   0  0  0  0  0  0  0  0  0  0  0  0
   45.6505    1.4777   -1.3688 O   0  0  0  0  0  0  0  0  0  0  0  0
   42.6127   -1.2734   -8.4872 C   0  0  1  0  0  0  0  0  0  0  0  0
   43.3646   -0.4158   -7.4908 O   0  0  0  0  0  0  0  0  0  0  0  0
   44.8499    3.4670   -8.7219 C   0  0  0  0  0  0  0  0  0  0  0  0
   45.5312    2.4212   -8.2346 O   0  0  0  0  0  0  0  0  0  0  0  0
   47.8866    2.8344   -4.9475 C   0  0  1  0  0  0  0  0  0  0  0  0
   47.2417    1.6012   -5.0451 O   0  0  0  0  0  0  0  0  0  0  0  0
   41.0918    3.0201   -6.3620 C   0  0  0  0  0  0  0  0  0  0  0  0
   42.8559   -0.8765   -9.9827 C   0  0  0  0  0  0  0  0  0  0  0  0
   42.4084    0.4519  -10.2886 N   0  0  0  0  0  0  0  0  0  0  0  0
   40.5822    1.5964   -6.1337 C   0  0  0  0  0  0  0  0  0  0  0  0
   39.3495    1.4527   -6.9325 N   0  0  0  0  0  0  0  0  0  0  0  0
   38.0856    2.1633   -6.4439 C   0  0  0  0  0  0  0  0  0  0  0  0
  1  2  1  1  0  0  0
  1  8  1  0  0  0  0
  1 33  1  0  0  0  0
  3  4  1  1  0  0  0
  3 10  1  0  0  0  0
  3 42  1  0  0  0  0
  5 11  1  0  0  0  0
  5 29  1  0  0  0  0
  5 35  1  6  0  0  0
  6 13  1  0  0  0  0
  6 39  1  0  0  0  0
  6 22  1  1  0  0  0
  7 15  1  0  0  0  0
  8  9  1  1  0  0  0
  8 17  1  0  0  0  0
 10 19  1  0  0  0  0
 11 12  1  1  0  0  0
 11 21  1  0  0  0  0
 12 44  1  0  0  0  0
 13 14  1  6  0  0  0
 13 23  1  0  0  0  0
 15 16  1  0  0  0  0
 17 18  1  6  0  0  0
 17 25  1  0  0  0  0
 19 20  1  1  0  0  0
 19 27  1  0  0  0  0
 21 22  1  1  0  0  0
 21 28  1  0  0  0  0
 23 24  1  1  0  0  0
 23 30  1  0  0  0  0
 25 26  1  1  0  0  0
 25 32  1  0  0  0  0
 27  2  1  6  0  0  0
 27 34  1  0  0  0  0
 28 29  1  0  0  0  0
 28 36  1  6  0  0  0
 30 31  1  1  0  0  0
 30 38  1  0  0  0  0
 32 33  1  0  0  0  0
 32 40  1  6  0  0  0
 34 35  1  1  0  0  0
 34 42  1  0  0  0  0
 36 37  1  0  0  0  0
 38 39  1  0  0  0  0
 38 45  1  6  0  0  0
 40 41  1  0  0  0  0
 42 43  1  6  0  0  0
 44 47  1  0  0  0  0
 45 46  1  0  0  0  0
 47 48  1  0  0  0  0
 48 49  1  0  0  0  0
 49  7  1  0  0  0  0
M  END
>  <CHROM.1>
173.07729998,-40.81513090,174.21883092,-176.83495949,155.08266929,71.78887036
-20.76391562,45.08896206,-174.44779821,-170.56432776,166.48339385,-179.60255326
173.49295173,-73.10150958,174.52321861,67.17639703,44.27990625,2.43245264
-6.56868559,0.62767933,-0.30356804,-0.19756442

>  <Name>
2bee_lig

>  <RI>
0

>  <Rbt.Current_Directory>
/home/itssahil/PROJECTS/Mol_Feturizer/New_Systems/rnas/2bee

>  <Rbt.Executable>
rbdock ($Id: //depot/dev/client3/rdock/2013.1/src/exe/rbdock.cxx#4 $)

>  <Rbt.Library>
libRbt.so (2013.1, Build901 2013/11/27)

>  <Rbt.Parameter_File>
/export/apps/rDock/src/rDock_2013.1_src/data/scripts/dock_solv.prm

>  <Rbt.Receptor>
prm/pocket_docking_8.prm

>  <SCORE>
-13.7812

>  <SCORE.INTER>
0.370505

>  <SCORE.INTER.CONST>
1

>  <SCORE.INTER.POLAR>
-0.898531

>  <SCORE.INTER.ROT>
16

>  <SCORE.INTER.SOLV>
16.4927

>  <SCORE.INTER.VDW>
-16.5221

>  <SCORE.INTER.norm>
0.00756132

>  <SCORE.INTRA>
-14.1517

>  <SCORE.INTRA.DIHEDRAL>
-23.9776

>  <SCORE.INTRA.DIHEDRAL.0>
36.0842

>  <SCORE.INTRA.POLAR>
0

>  <SCORE.INTRA.POLAR.0>
0

>  <SCORE.INTRA.REPUL>
0

>  <SCORE.INTRA.REPUL.0>
0

>  <SCORE.INTRA.SOLV>
-1.67598

>  <SCORE.INTRA.SOLV.lig_0>
-126.444

>  <SCORE.INTRA.VDW>
-1.32488

>  <SCORE.INTRA.VDW.0>
-7.40469

>  <SCORE.INTRA.norm>
-0.28881

>  <SCORE.RESTR>
0

>  <SCORE.RESTR.CAVITY>
0

>  <SCORE.RESTR.norm>
0

>  <SCORE.SYSTEM>
0

>  <SCORE.SYSTEM.CONST>
0

>  <SCORE.SYSTEM.DIHEDRAL>
0

>  <SCORE.SYSTEM.SOLV>
0

>  <SCORE.SYSTEM.norm>
0

>  <SCORE.heavy>
49

>  <SCORE.norm>
-0.281248

>  <RMSD>
6.858

$$$$
2bee_lig
 OpenBabel11021811423D
libRbt.so/2013.1/901 2013/11/27
 49 52  0  0  0  0  0  0  0  0999 V2000
   48.4469    4.5292   -7.8111 C   0  0  2  0  0  0  0  0  0  0  0  0
   48.5632    3.4097   -6.9421 O   0  0  0  0  0  0  0  0  0  0  0  0
   51.9679    0.7390   -6.1361 C   0  0  2  0  0  0  0  0  0  0  0  0
   53.3328    0.3019   -5.7351 N   0  0  0  0  0  0  0  0  0  0  0  0
   47.7371    2.6868   -4.1433 C   0  0  1  0  0  0  0  0  0  0  0  0
   43.7612    0.5588   -5.3886 C   0  0  1  0  0  0  0  0  0  0  0  0
   40.6193    6.8433   -5.2069 C   0  0  0  0  0  0  0  0  0  0  0  0
   47.1623    5.3713   -7.4511 C   0  0  2  0  0  0  0  0  0  0  0  0
   47.1888    5.7457   -6.0412 N   0  0  0  0  0  0  0  0  0  0  0  0
   52.0818    1.8365   -7.2895 C   0  0  0  0  0  0  0  0  0  0  0  0
   46.3276    2.8692   -4.6044 C   0  0  2  0  0  0  0  0  0  0  0  0
   45.7144    4.1102   -4.1001 O   0  0  0  0  0  0  0  0  0  0  0  0
   42.7143    1.5803   -4.6874 C   0  0  2  0  0  0  0  0  0  0  0  0
   42.4222    1.0728   -3.3053 N   0  0  0  0  0  0  0  0  0  0  0  0
   40.1204    5.5599   -5.5307 C   0  0  0  0  0  0  0  0  0  0  0  0
   38.7547    5.3776   -5.7365 N   0  0  0  0  0  0  0  0  0  0  0  0
   45.8625    4.5258   -7.8084 C   0  0  1  0  0  0  0  0  0  0  0  0
   44.7119    5.2933   -7.4854 O   0  0  0  0  0  0  0  0  0  0  0  0
   50.6007    2.3528   -7.7493 C   0  0  2  0  0  0  0  0  0  0  0  0
   50.6915    3.3257   -8.7844 N   0  0  0  0  0  0  0  0  0  0  0  0
   45.8300    1.5078   -4.1826 C   0  0  2  0  0  0  0  0  0  0  0  0
   44.9118    0.5360   -4.5103 O   0  0  0  0  0  0  0  0  0  0  0  0
   41.4050    1.6215   -5.5535 C   0  0  1  0  0  0  0  0  0  0  0  0
   41.7719    2.1408   -6.8792 O   0  0  0  0  0  0  0  0  0  0  0  0
   45.8915    4.1658   -9.3120 C   0  0  2  0  0  0  0  0  0  0  0  0
   44.7005    3.3609   -9.6857 O   0  0  0  0  0  0  0  0  0  0  0  0
   49.8395    2.9664   -6.5102 C   0  0  2  0  0  0  0  0  0  0  0  0
   46.6399    1.2392   -2.8190 C   0  0  2  0  0  0  0  0  0  0  0  0
   47.8600    1.7479   -3.1134 O   0  0  0  0  0  0  0  0  0  0  0  0
   40.7791    0.1174   -5.6496 C   0  0  2  0  0  0  0  0  0  0  0  0
   40.4161   -0.3956   -4.3092 O   0  0  0  0  0  0  0  0  0  0  0  0
   47.1728    3.3360   -9.6577 C   0  0  2  0  0  0  0  0  0  0  0  0
   48.2875    4.1745   -9.2593 O   0  0  0  0  0  0  0  0  0  0  0  0
   49.7583    1.8542   -5.4107 C   0  0  2  0  0  0  0  0  0  0  0  0
   49.0500    2.4934   -4.3764 O   0  0  0  0  0  0  0  0  0  0  0  0
   46.8780   -0.2542   -2.3843 C   0  0  0  0  0  0  0  0  0  0  0  0
   45.5879   -0.9138   -2.1847 O   0  0  0  0  0  0  0  0  0  0  0  0
   41.8411   -0.8769   -6.2997 C   0  0  1  0  0  0  0  0  0  0  0  0
   43.0853   -0.8187   -5.4382 O   0  0  0  0  0  0  0  0  0  0  0  0
   47.1282    3.0602  -11.1060 C   0  0  0  0  0  0  0  0  0  0  0  0
   48.1696    2.2999  -11.4703 O   0  0  0  0  0  0  0  0  0  0  0  0
   51.2103    1.3947   -4.9601 C   0  0  1  0  0  0  0  0  0  0  0  0
   51.1249    0.3983   -3.9875 O   0  0  0  0  0  0  0  0  0  0  0  0
   44.3129    4.5091   -4.3090 C   0  0  0  0  0  0  0  0  0  0  0  0
   41.1441   -2.2793   -6.3207 C   0  0  0  0  0  0  0  0  0  0  0  0
   41.9974   -3.3206   -6.8168 N   0  0  0  0  0  0  0  0  0  0  0  0
   44.0726    5.8697   -3.6533 C   0  0  0  0  0  0  0  0  0  0  0  0
   42.6349    6.1666   -3.8045 N   0  0  0  0  0  0  0  0  0  0  0  0
   42.1946    7.0163   -4.9984 C   0  0  0  0  0  0  0  0  0  0  0  0
  1  2  1  1  0  0  0
  1  8  1  0  0  0  0
  1 33  1  0  0  0  0
  3  4  1  1  0  0  0
  3 10  1  0  0  0  0
  3 42  1  0  0  0  0
  5 11  1  0  0  0  0
  5 29  1  0  0  0  0
  5 35  1  6  0  0  0
  6 13  1  0  0  0  0
  6 39  1  0  0  0  0
  6 22  1  1  0  0  0
  7 15  1  0  0  0  0
  8  9  1  1  0  0  0
  8 17  1  0  0  0  0
 10 19  1  0  0  0  0
 11 12  1  1  0  0  0
 11 21  1  0  0  0  0
 12 44  1  0  0  0  0
 13 14  1  1  0  0  0
 13 23  1  0  0  0  0
 15 16  1  0  0  0  0
 17 18  1  6  0  0  0
 17 25  1  0  0  0  0
 19 20  1  6  0  0  0
 19 27  1  0  0  0  0
 21 22  1  1  0  0  0
 21 28  1  0  0  0  0
 23 24  1  6  0  0  0
 23 30  1  0  0  0  0
 25 26  1  1  0  0  0
 25 32  1  0  0  0  0
 27  2  1  6  0  0  0
 27 34  1  0  0  0  0
 28 29  1  0  0  0  0
 28 36  1  6  0  0  0
 30 31  1  1  0  0  0
 30 38  1  0  0  0  0
 32 33  1  0  0  0  0
 32 40  1  6  0  0  0
 34 35  1  1  0  0  0
 34 42  1  0  0  0  0
 36 37  1  0  0  0  0
 38 39  1  0  0  0  0
 38 45  1  1  0  0  0
 40 41  1  0  0  0  0
 42 43  1  1  0  0  0
 44 47  1  0  0  0  0
 45 46  1  0  0  0  0
 47 48  1  0  0  0  0
 48 49  1  0  0  0  0
 49  7  1  0  0  0  0
M  END
>  <CHROM.1>
-143.98000163,-28.93762463,-66.34453248,-179.15358918,-175.47710396,-178.98636024
-13.58446593,-68.92544936,-60.60618881,-177.34939167,83.56165539,-176.88712811
-175.73540566,-94.66683995,163.21358365,-62.94296196,45.79214021,2.46077223
-5.93370463,0.07851499,0.15611488,-0.56484650

>  <Name>
2bee_lig

>  <RI>
0

>  <Rbt.Current_Directory>
/home/itssahil/PROJECTS/Mol_Feturizer/New_Systems/rnas/2bee

>  <Rbt.Executable>
rbdock ($Id: //depot/dev/client3/rdock/2013.1/src/exe/rbdock.cxx#4 $)

>  <Rbt.Library>
libRbt.so (2013.1, Build901 2013/11/27)

>  <Rbt.Parameter_File>
/export/apps/rDock/src/rDock_2013.1_src/data/scripts/dock_solv.prm

>  <Rbt.Receptor>
prm/pocket_docking_6.prm

>  <SCORE>
-8.83153

>  <SCORE.INTER>
0.280067

>  <SCORE.INTER.CONST>
1

>  <SCORE.INTER.POLAR>
-0.916515

>  <SCORE.INTER.ROT>
16

>  <SCORE.INTER.SOLV>
10.4981

>  <SCORE.INTER.VDW>
-14.5243

>  <SCORE.INTER.norm>
0.00571565

>  <SCORE.INTRA>
-9.11159

>  <SCORE.INTRA.DIHEDRAL>
-20.2588

>  <SCORE.INTRA.DIHEDRAL.0>
36.0842

>  <SCORE.INTRA.POLAR>
0

>  <SCORE.INTRA.POLAR.0>
0

>  <SCORE.INTRA.REPUL>
0.0189413

>  <SCORE.INTRA.REPUL.0>
0

>  <SCORE.INTRA.SOLV>
2.81244

>  <SCORE.INTRA.SOLV.lig_0>
-126.444

>  <SCORE.INTRA.VDW>
-0.483141

>  <SCORE.INTRA.VDW.0>
-7.40469

>  <SCORE.INTRA.norm>
-0.185951

>  <SCORE.RESTR>
0

>  <SCORE.RESTR.CAVITY>
0

>  <SCORE.RESTR.norm>
0

>  <SCORE.SYSTEM>
0

>  <SCORE.SYSTEM.CONST>
0

>  <SCORE.SYSTEM.DIHEDRAL>
0

>  <SCORE.SYSTEM.SOLV>
0

>  <SCORE.SYSTEM.norm>
0

>  <SCORE.heavy>
49

>  <SCORE.norm>
-0.180235

>  <RMSD>
6.859

$$$$
2bee_lig
 OpenBabel11021811423D
libRbt.so/2013.1/901 2013/11/27
 49 52  0  0  0  0  0  0  0  0999 V2000
   44.7581    9.8164   -7.8310 C   0  0  2  0  0  0  0  0  0  0  0  0
   43.8145    9.1908   -8.6915 O   0  0  0  0  0  0  0  0  0  0  0  0
   42.1924    5.1264   -9.1644 C   0  0  2  0  0  0  0  0  0  0  0  0
   42.1620    3.6479   -9.3312 N   0  0  0  0  0  0  0  0  0  0  0  0
   43.4511    7.1165   -5.2153 C   0  0  1  0  0  0  0  0  0  0  0  0
   42.3217    2.8446   -4.5847 C   0  0  1  0  0  0  0  0  0  0  0  0
   41.3016    7.7032    2.5884 C   0  0  0  0  0  0  0  0  0  0  0  0
   45.7774   10.6795   -8.6707 C   0  0  2  0  0  0  0  0  0  0  0  0
   45.0554   11.6297   -9.5099 N   0  0  0  0  0  0  0  0  0  0  0  0
   43.0552    5.7735  -10.3412 C   0  0  0  0  0  0  0  0  0  0  0  0
   42.6943    6.5932   -4.0381 C   0  0  2  0  0  0  0  0  0  0  0  0
   42.8275    7.4462   -2.8444 O   0  0  0  0  0  0  0  0  0  0  0  0
   41.0154    2.3844   -3.7406 C   0  0  2  0  0  0  0  0  0  0  0  0
   41.4723    1.9308   -2.3846 N   0  0  0  0  0  0  0  0  0  0  0  0
   40.1729    6.8897    2.3337 C   0  0  0  0  0  0  0  0  0  0  0  0
   38.9405    7.4784    2.0590 N   0  0  0  0  0  0  0  0  0  0  0  0
   46.6958    9.7119   -9.5380 C   0  0  1  0  0  0  0  0  0  0  0  0
   47.6126   10.4970  -10.2863 O   0  0  0  0  0  0  0  0  0  0  0  0
   43.1239    7.3991  -10.1858 C   0  0  2  0  0  0  0  0  0  0  0  0
   43.8840    7.9866  -11.2362 N   0  0  0  0  0  0  0  0  0  0  0  0
   43.2547    5.1922   -4.0809 C   0  0  2  0  0  0  0  0  0  0  0  0
   42.9381    3.8848   -3.7885 O   0  0  0  0  0  0  0  0  0  0  0  0
   40.3133    1.2108   -4.5126 C   0  0  1  0  0  0  0  0  0  0  0  0
   39.8846    1.7379   -5.8165 O   0  0  0  0  0  0  0  0  0  0  0  0
   47.4352    8.7360   -8.5933 C   0  0  2  0  0  0  0  0  0  0  0  0
   48.2942    7.8021   -9.3652 O   0  0  0  0  0  0  0  0  0  0  0  0
   43.7635    7.7770   -8.7932 C   0  0  2  0  0  0  0  0  0  0  0  0
   44.7774    5.4314   -4.5410 C   0  0  2  0  0  0  0  0  0  0  0  0
   44.6412    6.4212   -5.4553 O   0  0  0  0  0  0  0  0  0  0  0  0
   41.3661   -0.0248   -4.6808 C   0  0  2  0  0  0  0  0  0  0  0  0
   41.7924   -0.5452   -3.3621 O   0  0  0  0  0  0  0  0  0  0  0  0
   46.4139    7.8901   -7.7619 C   0  0  2  0  0  0  0  0  0  0  0  0
   45.6084    8.8619   -7.0471 O   0  0  0  0  0  0  0  0  0  0  0  0
   42.8843    7.1172   -7.6777 C   0  0  2  0  0  0  0  0  0  0  0  0
   43.5229    7.5329   -6.4947 O   0  0  0  0  0  0  0  0  0  0  0  0
   45.5205    4.2537   -5.2735 C   0  0  0  0  0  0  0  0  0  0  0  0
   46.9522    4.3271   -4.9832 O   0  0  0  0  0  0  0  0  0  0  0  0
   42.6599    0.4626   -5.4731 C   0  0  1  0  0  0  0  0  0  0  0  0
   43.2441    1.6223   -4.6937 O   0  0  0  0  0  0  0  0  0  0  0  0
   47.2028    7.0112   -6.8783 C   0  0  0  0  0  0  0  0  0  0  0  0
   47.8418    6.0773   -7.5958 O   0  0  0  0  0  0  0  0  0  0  0  0
   42.8616    5.5369   -7.8338 C   0  0  1  0  0  0  0  0  0  0  0  0
   42.0687    4.9616   -6.8404 O   0  0  0  0  0  0  0  0  0  0  0  0
   41.9511    7.3937   -1.6627 C   0  0  0  0  0  0  0  0  0  0  0  0
   43.5979   -0.7891   -5.5542 C   0  0  0  0  0  0  0  0  0  0  0  0
   44.1042   -1.1925   -4.2737 N   0  0  0  0  0  0  0  0  0  0  0  0
   42.3001    8.5496   -0.7241 C   0  0  0  0  0  0  0  0  0  0  0  0
   41.1849    8.6701    0.2351 N   0  0  0  0  0  0  0  0  0  0  0  0
   41.5172    9.0075    1.6901 C   0  0  0  0  0  0  0  0  0  0  0  0
  1  2  1  6  0  0  0
  1  8  1  0  0  0  0
  1 33  1  0  0  0  0
  3  4  1  6  0  0  0
  3 10  1  0  0  0  0
  3 42  1  0  0  0  0
  5 11  1  0  0  0  0
  5 29  1  0  0  0  0
  5 35  1  6  0  0  0
  6 13  1  0  0  0  0
  6 39  1  0  0  0  0
  6 22  1  1  0  0  0
  7 15  1  0  0  0  0
  8  9  1  6  0  0  0
  8 17  1  0  0  0  0
 10 19  1  0  0  0  0
 11 12  1  1  0  0  0
 11 21  1  0  0  0  0
 12 44  1  0  0  0  0
 13 14  1  1  0  0  0
 13 23  1  0  0  0  0
 15 16  1  0  0  0  0
 17 18  1  1  0  0  0
 17 25  1  0  0  0  0
 19 20  1  6  0  0  0
 19 27  1  0  0  0  0
 21 22  1  1  0  0  0
 21 28  1  0  0  0  0
 23 24  1  6  0  0  0
 23 30  1  0  0  0  0
 25 26  1  6  0  0  0
 25 32  1  0  0  0  0
 27  2  1  1  0  0  0
 27 34  1  0  0  0  0
 28 29  1  0  0  0  0
 28 36  1  6  0  0  0
 30 31  1  1  0  0  0
 30 38  1  0  0  0  0
 32 33  1  0  0  0  0
 32 40  1  1  0  0  0
 34 35  1  1  0  0  0
 34 42  1  0  0  0  0
 36 37  1  0  0  0  0
 38 39  1  0  0  0  0
 38 45  1  1  0  0  0
 40 41  1  0  0  0  0
 42 43  1  1  0  0  0
 44 47  1  0  0  0  0
 45 46  1  0  0  0  0
 47 48  1  0  0  0  0
 48 49  1  0  0  0  0
 49  7  1  0  0  0  0
M  END
>  <CHROM.1>
116.01188157,-36.81548557,-122.90556110,-41.23612653,163.53846816,-172.76106970
90.03579020,-156.08005275,-149.99792846,-69.03338808,-164.40488323,-66.94411985
165.08856139,141.83931598,-107.24016173,-41.17460279,43.54718366,5.84662136
-5.55613413,0.08493944,1.11571378,0.48079692

>  <Name>
2bee_lig

>  <RI>
3.71943e+07

>  <Rbt.Current_Directory>
/home/itssahil/PROJECTS/Mol_Feturizer/New_Systems/rnas/2bee

>  <Rbt.Executable>
rbdock ($Id: //depot/dev/client3/rdock/2013.1/src/exe/rbdock.cxx#4 $)

>  <Rbt.Library>
libRbt.so (2013.1, Build901 2013/11/27)

>  <Rbt.Parameter_File>
/export/apps/rDock/src/rDock_2013.1_src/data/scripts/dock_solv.prm

>  <Rbt.Receptor>
prm/pocket_docking_2.prm

>  <SCORE>
3.62142

>  <SCORE.INTER>
-2.41511

>  <SCORE.INTER.CONST>
1

>  <SCORE.INTER.POLAR>
-0.938083

>  <SCORE.INTER.ROT>
16

>  <SCORE.INTER.SOLV>
22.9665

>  <SCORE.INTER.VDW>
-20.4053

>  <SCORE.INTER.norm>
-0.049288

>  <SCORE.INTRA>
1.26163

>  <SCORE.INTRA.DIHEDRAL>
-2.11329

>  <SCORE.INTRA.DIHEDRAL.0>
36.0842

>  <SCORE.INTRA.POLAR>
0

>  <SCORE.INTRA.POLAR.0>
0

>  <SCORE.INTRA.REPUL>
0

>  <SCORE.INTRA.REPUL.0>
0

>  <SCORE.INTRA.SOLV>
2.51737

>  <SCORE.INTRA.SOLV.lig_0>
-126.444

>  <SCORE.INTRA.VDW>
1.05959

>  <SCORE.INTRA.VDW.0>
-7.40469

>  <SCORE.INTRA.norm>
0.0257476

>  <SCORE.RESTR>
4.7749

>  <SCORE.RESTR.CAVITY>
4.7749

>  <SCORE.RESTR.norm>
0.0974469

>  <SCORE.SYSTEM>
0

>  <SCORE.SYSTEM.CONST>
0

>  <SCORE.SYSTEM.DIHEDRAL>
0

>  <SCORE.SYSTEM.SOLV>
0

>  <SCORE.SYSTEM.norm>
0

>  <SCORE.heavy>
49

>  <SCORE.norm>
0.0739065

>  <RMSD>
6.924

$$$$
2bee_lig
 OpenBabel11021811423D
libRbt.so/2013.1/901 2013/11/27
 49 52  0  0  0  0  0  0  0  0999 V2000
   43.7219    8.0695   -9.1570 C   0  0  2  0  0  0  0  0  0  0  0  0
   43.1270    7.9575   -7.8703 O   0  0  0  0  0  0  0  0  0  0  0  0
   40.6624    4.7330   -6.1664 C   0  0  2  0  0  0  0  0  0  0  0  0
   40.2751    3.3774   -5.6900 N   0  0  0  0  0  0  0  0  0  0  0  0
   43.9181    7.0075   -4.0070 C   0  0  1  0  0  0  0  0  0  0  0  0
   43.9184    2.7262   -2.7430 C   0  0  1  0  0  0  0  0  0  0  0  0
   39.9561    9.2697    0.5559 C   0  0  0  0  0  0  0  0  0  0  0  0
   45.0452    7.2133   -9.2254 C   0  0  2  0  0  0  0  0  0  0  0  0
   44.7675    5.8324   -8.8452 N   0  0  0  0  0  0  0  0  0  0  0  0
   41.1375    4.6431   -7.6876 C   0  0  0  0  0  0  0  0  0  0  0  0
   43.8638    6.5013   -2.6023 C   0  0  2  0  0  0  0  0  0  0  0  0
   44.3432    7.4868   -1.6177 O   0  0  0  0  0  0  0  0  0  0  0  0
   44.6802    1.5030   -1.9985 C   0  0  2  0  0  0  0  0  0  0  0  0
   46.0962    1.4641   -2.4950 N   0  0  0  0  0  0  0  0  0  0  0  0
   40.7323   10.2421    1.2287 C   0  0  0  0  0  0  0  0  0  0  0  0
   40.5004   11.5964    0.9985 N   0  0  0  0  0  0  0  0  0  0  0  0
   46.1457    7.8706   -8.2826 C   0  0  1  0  0  0  0  0  0  0  0  0
   47.3341    7.0962   -8.3542 O   0  0  0  0  0  0  0  0  0  0  0  0
   41.5850    6.1131   -8.2449 C   0  0  2  0  0  0  0  0  0  0  0  0
   42.0020    6.0448   -9.6043 N   0  0  0  0  0  0  0  0  0  0  0  0
   44.5996    5.2078   -2.8559 C   0  0  2  0  0  0  0  0  0  0  0  0
   44.6926    3.9058   -2.4188 O   0  0  0  0  0  0  0  0  0  0  0  0
   43.9317    0.1668   -2.3459 C   0  0  1  0  0  0  0  0  0  0  0  0
   42.5650    0.2788   -1.8156 O   0  0  0  0  0  0  0  0  0  0  0  0
   46.3977    9.3264   -8.7389 C   0  0  2  0  0  0  0  0  0  0  0  0
   47.4100    9.9838   -7.8735 O   0  0  0  0  0  0  0  0  0  0  0  0
   42.7582    6.6870   -7.3587 C   0  0  2  0  0  0  0  0  0  0  0  0
   45.6941    5.6304   -3.9564 C   0  0  2  0  0  0  0  0  0  0  0  0
   44.9904    6.4840   -4.7375 O   0  0  0  0  0  0  0  0  0  0  0  0
   43.9328   -0.0421   -3.9645 C   0  0  2  0  0  0  0  0  0  0  0  0
   45.3136   -0.1509   -4.4870 O   0  0  0  0  0  0  0  0  0  0  0  0
   45.0769   10.1637   -8.6724 C   0  0  2  0  0  0  0  0  0  0  0  0
   44.1384    9.4615   -9.5271 O   0  0  0  0  0  0  0  0  0  0  0  0
   42.2429    6.7512   -5.8812 C   0  0  2  0  0  0  0  0  0  0  0  0
   43.3449    7.2915   -5.1929 O   0  0  0  0  0  0  0  0  0  0  0  0
   46.2479    4.5113   -4.9138 C   0  0  0  0  0  0  0  0  0  0  0  0
   47.6894    4.6892   -5.0868 O   0  0  0  0  0  0  0  0  0  0  0  0
   43.2198    1.1925   -4.6762 C   0  0  1  0  0  0  0  0  0  0  0  0
   43.9667    2.4392   -4.2503 O   0  0  0  0  0  0  0  0  0  0  0  0
   45.4051   11.5220   -9.1447 C   0  0  0  0  0  0  0  0  0  0  0  0
   45.8402   11.4851  -10.4114 O   0  0  0  0  0  0  0  0  0  0  0  0
   41.8460    5.3061   -5.3554 C   0  0  1  0  0  0  0  0  0  0  0  0
   41.3806    5.3776   -4.0422 O   0  0  0  0  0  0  0  0  0  0  0  0
   43.7321    8.8026   -1.3687 C   0  0  0  0  0  0  0  0  0  0  0  0
   43.2991    0.8939   -6.2117 C   0  0  0  0  0  0  0  0  0  0  0  0
   42.3610    1.6611   -6.9798 N   0  0  0  0  0  0  0  0  0  0  0  0
   42.2140    8.6439   -1.2731 C   0  0  0  0  0  0  0  0  0  0  0  0
   41.9473    7.8151   -0.0815 N   0  0  0  0  0  0  0  0  0  0  0  0
   40.5190    7.7764    0.4662 C   0  0  0  0  0  0  0  0  0  0  0  0
  1  2  1  1  0  0  0
  1  8  1  0  0  0  0
  1 33  1  0  0  0  0
  3  4  1  1  0  0  0
  3 10  1  0  0  0  0
  3 42  1  0  0  0  0
  5 11  1  0  0  0  0
  5 29  1  0  0  0  0
  5 35  1  6  0  0  0
  6 13  1  0  0  0  0
  6 39  1  0  0  0  0
  6 22  1  6  0  0  0
  7 15  1  0  0  0  0
  8  9  1  1  0  0  0
  8 17  1  0  0  0  0
 10 19  1  0  0  0  0
 11 12  1  1  0  0  0
 11 21  1  0  0  0  0
 12 44  1  0  0  0  0
 13 14  1  6  0  0  0
 13 23  1  0  0  0  0
 15 16  1  0  0  0  0
 17 18  1  6  0  0  0
 17 25  1  0  0  0  0
 19 20  1  6  0  0  0
 19 27  1  0  0  0  0
 21 22  1  1  0  0  0
 21 28  1  0  0  0  0
 23 24  1  6  0  0  0
 23 30  1  0  0  0  0
 25 26  1  1  0  0  0
 25 32  1  0  0  0  0
 27  2  1  6  0  0  0
 27 34  1  0  0  0  0
 28 29  1  0  0  0  0
 28 36  1  6  0  0  0
 30 31  1  6  0  0  0
 30 38  1  0  0  0  0
 32 33  1  0  0  0  0
 32 40  1  6  0  0  0
 34 35  1  1  0  0  0
 34 42  1  0  0  0  0
 36 37  1  0  0  0  0
 38 39  1  0  0  0  0
 38 45  1  6  0  0  0
 40 41  1  0  0  0  0
 42 43  1  1  0  0  0
 44 47  1  0  0  0  0
 45 46  1  0  0  0  0
 47 48  1  0  0  0  0
 48 49  1  0  0  0  0
 49  7  1  0  0  0  0
M  END
>  <CHROM.1>
-58.05676644,-28.18589128,173.62807242,160.86725719,62.01478893,45.53068810
83.86244707,-66.32969580,-138.88520940,61.27898653,-138.24818351,161.53961668
64.75955392,165.01422430,-46.94470712,-51.82961523,43.72189297,5.93625594
-5.00485392,-0.94962957,-1.21079685,2.91382767

>  <Name>
2bee_lig

>  <RI>
2.18182e+07

>  <Rbt.Current_Directory>
/home/itssahil/PROJECTS/Mol_Feturizer/New_Systems/rnas/2bee

>  <Rbt.Executable>
rbdock ($Id: //depot/dev/client3/rdock/2013.1/src/exe/rbdock.cxx#4 $)

>  <Rbt.Library>
libRbt.so (2013.1, Build901 2013/11/27)

>  <Rbt.Parameter_File>
/export/apps/rDock/src/rDock_2013.1_src/data/scripts/dock_solv.prm

>  <Rbt.Receptor>
prm/pocket_docking_3.prm

>  <SCORE>
-6.80559

>  <SCORE.INTER>
-7.54426

>  <SCORE.INTER.CONST>
1

>  <SCORE.INTER.POLAR>
-0.93649

>  <SCORE.INTER.ROT>
16

>  <SCORE.INTER.SOLV>
16.1952

>  <SCORE.INTER.VDW>
-21.5729

>  <SCORE.INTER.norm>
-0.153964

>  <SCORE.INTRA>
0.164478

>  <SCORE.INTRA.DIHEDRAL>
-13.8998

>  <SCORE.INTRA.DIHEDRAL.0>
36.0842

>  <SCORE.INTRA.POLAR>
0

>  <SCORE.INTRA.POLAR.0>
0

>  <SCORE.INTRA.REPUL>
0

>  <SCORE.INTRA.REPUL.0>
0

>  <SCORE.INTRA.SOLV>
8.19664

>  <SCORE.INTRA.SOLV.lig_0>
-126.444

>  <SCORE.INTRA.VDW>
3.01604

>  <SCORE.INTRA.VDW.0>
-7.40469

>  <SCORE.INTRA.norm>
0.00335669

>  <SCORE.RESTR>
0.574191

>  <SCORE.RESTR.CAVITY>
0.574191

>  <SCORE.RESTR.norm>
0.0117182

>  <SCORE.SYSTEM>
0

>  <SCORE.SYSTEM.CONST>
0

>  <SCORE.SYSTEM.DIHEDRAL>
0

>  <SCORE.SYSTEM.SOLV>
0

>  <SCORE.SYSTEM.norm>
0

>  <SCORE.heavy>
49

>  <SCORE.norm>
-0.13889

>  <RMSD>
6.931

$$$$
2bee_lig
 OpenBabel11021811423D
libRbt.so/2013.1/901 2013/11/27
 49 52  0  0  0  0  0  0  0  0999 V2000
   46.3345    4.4252   -8.0798 C   0  0  2  0  0  0  0  0  0  0  0  0
   46.1264    3.6720   -6.8917 O   0  0  0  0  0  0  0  0  0  0  0  0
   48.8055    0.9437   -4.7117 C   0  0  2  0  0  0  0  0  0  0  0  0
   50.0017    0.4627   -3.9682 N   0  0  0  0  0  0  0  0  0  0  0  0
   44.8456    3.9911   -4.0391 C   0  0  1  0  0  0  0  0  0  0  0  0
   41.4220    1.0665   -4.4616 C   0  0  1  0  0  0  0  0  0  0  0  0
   43.3257    9.1201   -2.2120 C   0  0  0  0  0  0  0  0  0  0  0  0
   46.7802    5.8964   -7.7248 C   0  0  2  0  0  0  0  0  0  0  0  0
   47.9522    5.8681   -6.8565 N   0  0  0  0  0  0  0  0  0  0  0  0
   49.2629    1.5407   -6.1196 C   0  0  0  0  0  0  0  0  0  0  0  0
   43.4524    4.0393   -4.5770 C   0  0  2  0  0  0  0  0  0  0  0  0
   42.9238    5.4105   -4.6801 O   0  0  0  0  0  0  0  0  0  0  0  0
   40.2351    0.2769   -3.6877 C   0  0  2  0  0  0  0  0  0  0  0  0
   40.8008   -0.2849   -2.4158 N   0  0  0  0  0  0  0  0  0  0  0  0
   43.5785    8.3247   -1.0700 C   0  0  0  0  0  0  0  0  0  0  0  0
   42.7590    8.4387    0.0508 N   0  0  0  0  0  0  0  0  0  0  0  0
   45.5643    6.6638   -7.0431 C   0  0  1  0  0  0  0  0  0  0  0  0
   45.9732    7.9878   -6.7316 O   0  0  0  0  0  0  0  0  0  0  0  0
   47.9762    2.0930   -6.9627 C   0  0  2  0  0  0  0  0  0  0  0  0
   48.3730    2.6195   -8.2243 N   0  0  0  0  0  0  0  0  0  0  0  0
   42.8632    3.0295   -3.6220 C   0  0  2  0  0  0  0  0  0  0  0  0
   41.8819    2.0691   -3.5239 O   0  0  0  0  0  0  0  0  0  0  0  0
   39.7134   -0.8735   -4.6207 C   0  0  1  0  0  0  0  0  0  0  0  0
   39.1650   -0.2428   -5.8303 O   0  0  0  0  0  0  0  0  0  0  0  0
   44.3593    6.6633   -8.0122 C   0  0  2  0  0  0  0  0  0  0  0  0
   43.1943    7.3581   -7.4072 O   0  0  0  0  0  0  0  0  0  0  0  0
   47.2318    3.2100   -6.1324 C   0  0  2  0  0  0  0  0  0  0  0  0
   43.6508    3.3324   -2.2525 C   0  0  2  0  0  0  0  0  0  0  0  0
   44.9030    3.5880   -2.7005 O   0  0  0  0  0  0  0  0  0  0  0  0
   40.9500   -1.8779   -4.9748 C   0  0  2  0  0  0  0  0  0  0  0  0
   41.4953   -2.5046   -3.7495 O   0  0  0  0  0  0  0  0  0  0  0  0
   43.9306    5.1990   -8.3613 C   0  0  2  0  0  0  0  0  0  0  0  0
   45.1125    4.5833   -8.9342 O   0  0  0  0  0  0  0  0  0  0  0  0
   46.8089    2.5756   -4.7645 C   0  0  2  0  0  0  0  0  0  0  0  0
   46.1428    3.6370   -4.1244 O   0  0  0  0  0  0  0  0  0  0  0  0
   43.7866    2.1653   -1.2059 C   0  0  0  0  0  0  0  0  0  0  0  0
   42.4558    1.7628   -0.7515 O   0  0  0  0  0  0  0  0  0  0  0  0
   42.1215   -1.0715   -5.6933 C   0  0  1  0  0  0  0  0  0  0  0  0
   42.5295    0.0447   -4.7545 O   0  0  0  0  0  0  0  0  0  0  0  0
   42.7988    5.2955   -9.3022 C   0  0  0  0  0  0  0  0  0  0  0  0
   42.2173    4.0987   -9.4599 O   0  0  0  0  0  0  0  0  0  0  0  0
   48.0800    2.0773   -3.9531 C   0  0  1  0  0  0  0  0  0  0  0  0
   47.6901    1.5066   -2.7413 O   0  0  0  0  0  0  0  0  0  0  0  0
   41.5380    5.7606   -5.0323 C   0  0  0  0  0  0  0  0  0  0  0  0
   43.2501   -2.1234   -5.9630 C   0  0  0  0  0  0  0  0  0  0  0  0
   42.8665   -3.1229   -6.9183 N   0  0  0  0  0  0  0  0  0  0  0  0
   41.3137    7.2516   -4.7763 C   0  0  0  0  0  0  0  0  0  0  0  0
   41.7371    7.5128   -3.3868 N   0  0  0  0  0  0  0  0  0  0  0  0
   41.9147    8.9678   -2.9475 C   0  0  0  0  0  0  0  0  0  0  0  0
  1  2  1  1  0  0  0
  1  8  1  0  0  0  0
  1 33  1  0  0  0  0
  3  4  1  1  0  0  0
  3 10  1  0  0  0  0
  3 42  1  0  0  0  0
  5 11  1  0  0  0  0
  5 29  1  0  0  0  0
  5 35  1  6  0  0  0
  6 13  1  0  0  0  0
  6 39  1  0  0  0  0
  6 22  1  1  0  0  0
  7 15  1  0  0  0  0
  8  9  1  1  0  0  0
  8 17  1  0  0  0  0
 10 19  1  0  0  0  0
 11 12  1  1  0  0  0
 11 21  1  0  0  0  0
 12 44  1  0  0  0  0
 13 14  1  1  0  0  0
 13 23  1  0  0  0  0
 15 16  1  0  0  0  0
 17 18  1  6  0  0  0
 17 25  1  0  0  0  0
 19 20  1  6  0  0  0
 19 27  1  0  0  0  0
 21 22  1  1  0  0  0
 21 28  1  0  0  0  0
 23 24  1  6  0  0  0
 23 30  1  0  0  0  0
 25 26  1  1  0  0  0
 25 32  1  0  0  0  0
 27  2  1  6  0  0  0
 27 34  1  0  0  0  0
 28 29  1  0  0  0  0
 28 36  1  1  0  0  0
 30 31  1  1  0  0  0
 30 38  1  0  0  0  0
 32 33  1  0  0  0  0
 32 40  1  6  0  0  0
 34 35  1  1  0  0  0
 34 42  1  0  0  0  0
 36 37  1  0  0  0  0
 38 39  1  0  0  0  0
 38 45  1  1  0  0  0
 40 41  1  0  0  0  0
 42 43  1  1  0  0  0
 44 47  1  0  0  0  0
 45 46  1  0  0  0  0
 47 48  1  0  0  0  0
 48 49  1  0  0  0  0
 49  7  1  0  0  0  0
M  END
>  <CHROM.1>
-74.76845495,-28.40450323,-179.90689885,-60.25270267,-172.88693840,169.30647339
40.91676818,-68.97385736,-62.19607927,-168.70800444,94.74051387,66.54181908
-52.66571534,166.83043922,-131.25984113,-58.31984072,44.09963181,3.32156341
-5.02026578,-1.20472727,-0.51848991,-3.08451351

>  <Name>
2bee_lig

>  <RI>
0

>  <Rbt.Current_Directory>
/home/itssahil/PROJECTS/Mol_Feturizer/New_Systems/rnas/2bee

>  <Rbt.Executable>
rbdock ($Id: //depot/dev/client3/rdock/2013.1/src/exe/rbdock.cxx#4 $)

>  <Rbt.Library>
libRbt.so (2013.1, Build901 2013/11/27)

>  <Rbt.Parameter_File>
/export/apps/rDock/src/rDock_2013.1_src/data/scripts/dock_solv.prm

>  <Rbt.Receptor>
prm/pocket_docking_5.prm

>  <SCORE>
-12.4446

>  <SCORE.INTER>
-4.60111

>  <SCORE.INTER.CONST>
1

>  <SCORE.INTER.POLAR>
-1.70493

>  <SCORE.INTER.ROT>
16

>  <SCORE.INTER.SOLV>
11.1881

>  <SCORE.INTER.VDW>
-15.3803

>  <SCORE.INTER.norm>
-0.0939001

>  <SCORE.INTRA>
-7.84354

>  <SCORE.INTRA.DIHEDRAL>
-18.9786

>  <SCORE.INTRA.DIHEDRAL.0>
36.0842

>  <SCORE.INTRA.POLAR>
0

>  <SCORE.INTRA.POLAR.0>
0

>  <SCORE.INTRA.REPUL>
0

>  <SCORE.INTRA.REPUL.0>
0

>  <SCORE.INTRA.SOLV>
3.03032

>  <SCORE.INTRA.SOLV.lig_0>
-126.444

>  <SCORE.INTRA.VDW>
0.130594

>  <SCORE.INTRA.VDW.0>
-7.40469

>  <SCORE.INTRA.norm>
-0.160072

>  <SCORE.RESTR>
0

>  <SCORE.RESTR.CAVITY>
0

>  <SCORE.RESTR.norm>
0

>  <SCORE.SYSTEM>
0

>  <SCORE.SYSTEM.CONST>
0

>  <SCORE.SYSTEM.DIHEDRAL>
0

>  <SCORE.SYSTEM.SOLV>
0

>  <SCORE.SYSTEM.norm>
0

>  <SCORE.heavy>
49

>  <SCORE.norm>
-0.253972

>  <RMSD>
6.963

$$$$
2bee_lig
 OpenBabel11021811423D
libRbt.so/2013.1/901 2013/11/27
 49 52  0  0  0  0  0  0  0  0999 V2000
   45.3371    4.4404   -5.8372 C   0  0  2  0  0  0  0  0  0  0  0  0
   45.4592    4.6930   -4.4431 O   0  0  0  0  0  0  0  0  0  0  0  0
   43.6012    2.9757   -0.8413 C   0  0  2  0  0  0  0  0  0  0  0  0
   42.5425    2.5614    0.1191 N   0  0  0  0  0  0  0  0  0  0  0  0
   43.8879    0.9676   -4.8944 C   0  0  1  0  0  0  0  0  0  0  0  0
   40.1346    0.1837   -7.4764 C   0  0  1  0  0  0  0  0  0  0  0  0
   40.5861    0.6802    0.7123 C   0  0  0  0  0  0  0  0  0  0  0  0
   46.4541    5.2181   -6.6349 C   0  0  2  0  0  0  0  0  0  0  0  0
   47.7720    4.8794   -6.1086 N   0  0  0  0  0  0  0  0  0  0  0  0
   43.4751    4.5416   -1.1240 C   0  0  0  0  0  0  0  0  0  0  0  0
   42.7071    0.0664   -5.0558 C   0  0  2  0  0  0  0  0  0  0  0  0
   42.9229   -1.2718   -4.4788 O   0  0  0  0  0  0  0  0  0  0  0  0
   39.5830    1.3219   -8.4918 C   0  0  2  0  0  0  0  0  0  0  0  0
   40.1133    2.6502   -8.0360 N   0  0  0  0  0  0  0  0  0  0  0  0
   39.6894    1.6013    1.3024 C   0  0  0  0  0  0  0  0  0  0  0  0
   38.3571    1.2448    1.4989 N   0  0  0  0  0  0  0  0  0  0  0  0
   46.1716    6.7815   -6.5456 C   0  0  1  0  0  0  0  0  0  0  0  0
   47.1788    7.4727   -7.2700 O   0  0  0  0  0  0  0  0  0  0  0  0
   44.6148    5.0343   -2.1869 C   0  0  2  0  0  0  0  0  0  0  0  0
   44.5162    6.4319   -2.4387 N   0  0  0  0  0  0  0  0  0  0  0  0
   42.5330    0.2735   -6.5409 C   0  0  2  0  0  0  0  0  0  0  0  0
   41.5769    0.2964   -7.5310 O   0  0  0  0  0  0  0  0  0  0  0  0
   38.0133    1.3055   -8.4508 C   0  0  1  0  0  0  0  0  0  0  0  0
   37.5757   -0.0162   -8.9233 O   0  0  0  0  0  0  0  0  0  0  0  0
   44.7667    7.0749   -7.1213 C   0  0  2  0  0  0  0  0  0  0  0  0
   44.4555    8.5250   -7.0427 O   0  0  0  0  0  0  0  0  0  0  0  0
   44.4622    4.2394   -3.5419 C   0  0  2  0  0  0  0  0  0  0  0  0
   44.0492    0.3991   -7.0633 C   0  0  2  0  0  0  0  0  0  0  0  0
   44.6280    1.1179   -6.0722 O   0  0  0  0  0  0  0  0  0  0  0  0
   37.5146    1.5929   -6.9236 C   0  0  2  0  0  0  0  0  0  0  0  0
   37.9631    2.9247   -6.4581 O   0  0  0  0  0  0  0  0  0  0  0  0
   43.6684    6.2934   -6.3258 C   0  0  2  0  0  0  0  0  0  0  0  0
   44.0405    4.8957   -6.4372 O   0  0  0  0  0  0  0  0  0  0  0  0
   44.5899    2.7144   -3.2091 C   0  0  2  0  0  0  0  0  0  0  0  0
   44.4642    2.1106   -4.4738 O   0  0  0  0  0  0  0  0  0  0  0  0
   44.3070    1.1966   -8.3949 C   0  0  0  0  0  0  0  0  0  0  0  0
   45.7239    1.1091   -8.7473 O   0  0  0  0  0  0  0  0  0  0  0  0
   38.1052    0.4888   -5.9381 C   0  0  1  0  0  0  0  0  0  0  0  0
   39.6127    0.5349   -6.0760 O   0  0  0  0  0  0  0  0  0  0  0  0
   42.3731    6.6126   -6.9552 C   0  0  0  0  0  0  0  0  0  0  0  0
   41.3696    6.0355   -6.2805 O   0  0  0  0  0  0  0  0  0  0  0  0
   43.4517    2.2566   -2.2005 C   0  0  1  0  0  0  0  0  0  0  0  0
   43.5812    0.8993   -1.9050 O   0  0  0  0  0  0  0  0  0  0  0  0
   42.8157   -1.6060   -3.0492 C   0  0  0  0  0  0  0  0  0  0  0  0
   37.5823    0.8759   -4.5134 C   0  0  0  0  0  0  0  0  0  0  0  0
   37.7988   -0.1548   -3.5390 N   0  0  0  0  0  0  0  0  0  0  0  0
   41.3933   -1.3151   -2.5683 C   0  0  0  0  0  0  0  0  0  0  0  0
   41.5167   -0.6001   -1.2831 N   0  0  0  0  0  0  0  0  0  0  0  0
   40.3205    0.2198   -0.7952 C   0  0  0  0  0  0  0  0  0  0  0  0
  1  2  1  1  0  0  0
  1  8  1  0  0  0  0
  1 33  1  0  0  0  0
  3  4  1  1  0  0  0
  3 10  1  0  0  0  0
  3 42  1  0  0  0  0
  5 11  1  0  0  0  0
  5 29  1  0  0  0  0
  5 35  1  6  0  0  0
  6 13  1  0  0  0  0
  6 39  1  0  0  0  0
  6 22  1  1  0  0  0
  7 15  1  0  0  0  0
  8  9  1  1  0  0  0
  8 17  1  0  0  0  0
 10 19  1  0  0  0  0
 11 12  1  6  0  0  0
 11 21  1  0  0  0  0
 12 44  1  0  0  0  0
 13 14  1  1  0  0  0
 13 23  1  0  0  0  0
 15 16  1  0  0  0  0
 17 18  1  6  0  0  0
 17 25  1  0  0  0  0
 19 20  1  6  0  0  0
 19 27  1  0  0  0  0
 21 22  1  6  0  0  0
 21 28  1  0  0  0  0
 23 24  1  1  0  0  0
 23 30  1  0  0  0  0
 25 26  1  1  0  0  0
 25 32  1  0  0  0  0
 27  2  1  6  0  0  0
 27 34  1  0  0  0  0
 28 29  1  0  0  0  0
 28 36  1  6  0  0  0
 30 31  1  1  0  0  0
 30 38  1  0  0  0  0
 32 33  1  0  0  0  0
 32 40  1  6  0  0  0
 34 35  1  6  0  0  0
 34 42  1  0  0  0  0
 36 37  1  0  0  0  0
 38 39  1  0  0  0  0
 38 45  1  1  0  0  0
 40 41  1  0  0  0  0
 42 43  1  1  0  0  0
 44 47  1  0  0  0  0
 45 46  1  0  0  0  0
 47 48  1  0  0  0  0
 48 49  1  0  0  0  0
 49  7  1  0  0  0  0
M  END
>  <CHROM.1>
171.89901334,58.93004569,136.64865381,63.79278490,79.67589182,60.85463742
4.85574282,-162.23306606,-175.79353994,-176.59494941,-143.76349297,168.46291617
-134.58745355,159.99320839,170.07036137,171.60393296,42.44360809,2.50893957
-4.86176715,-0.44742397,0.69952986,1.74708639

>  <Name>
2bee_lig

>  <RI>
0

>  <Rbt.Current_Directory>
/home/itssahil/PROJECTS/Mol_Feturizer/New_Systems/rnas/2bee

>  <Rbt.Executable>
rbdock ($Id: //depot/dev/client3/rdock/2013.1/src/exe/rbdock.cxx#4 $)

>  <Rbt.Library>
libRbt.so (2013.1, Build901 2013/11/27)

>  <Rbt.Parameter_File>
/export/apps/rDock/src/rDock_2013.1_src/data/scripts/dock_solv.prm

>  <Rbt.Receptor>
prm/pocket_docking_5.prm

>  <SCORE>
-9.23458

>  <SCORE.INTER>
-4.90837

>  <SCORE.INTER.CONST>
1

>  <SCORE.INTER.POLAR>
-1.79551

>  <SCORE.INTER.ROT>
16

>  <SCORE.INTER.SOLV>
14.5351

>  <SCORE.INTER.VDW>
-16.3989

>  <SCORE.INTER.norm>
-0.100171

>  <SCORE.INTRA>
-4.37584

>  <SCORE.INTRA.DIHEDRAL>
-12.2226

>  <SCORE.INTRA.DIHEDRAL.0>
36.0842

>  <SCORE.INTRA.POLAR>
0

>  <SCORE.INTRA.POLAR.0>
0

>  <SCORE.INTRA.REPUL>
0.00166933

>  <SCORE.INTRA.REPUL.0>
0

>  <SCORE.INTRA.SOLV>
2.50309

>  <SCORE.INTRA.SOLV.lig_0>
-126.444

>  <SCORE.INTRA.VDW>
0.475574

>  <SCORE.INTRA.VDW.0>
-7.40469

>  <SCORE.INTRA.norm>
-0.0893028

>  <SCORE.RESTR>
0.0496271

>  <SCORE.RESTR.CAVITY>
0.0496271

>  <SCORE.RESTR.norm>
0.0010128

>  <SCORE.SYSTEM>
0

>  <SCORE.SYSTEM.CONST>
0

>  <SCORE.SYSTEM.DIHEDRAL>
0

>  <SCORE.SYSTEM.SOLV>
0

>  <SCORE.SYSTEM.norm>
0

>  <SCORE.heavy>
49

>  <SCORE.norm>
-0.188461

>  <RMSD>
7.013

$$$$
2bee_lig
 OpenBabel11021811423D
libRbt.so/2013.1/901 2013/11/27
 49 52  0  0  0  0  0  0  0  0999 V2000
   46.7930    5.0035   -7.0754 C   0  0  2  0  0  0  0  0  0  0  0  0
   47.1502    5.0323   -5.6993 O   0  0  0  0  0  0  0  0  0  0  0  0
   46.1447    0.9167   -4.5056 C   0  0  2  0  0  0  0  0  0  0  0  0
   46.0028   -0.2912   -3.6479 N   0  0  0  0  0  0  0  0  0  0  0  0
   43.4610    4.6814   -4.1062 C   0  0  1  0  0  0  0  0  0  0  0  0
   41.0186    1.0757   -3.1127 C   0  0  1  0  0  0  0  0  0  0  0  0
   40.6083   10.4564   -1.2890 C   0  0  0  0  0  0  0  0  0  0  0  0
   47.4667    6.2068   -7.8417 C   0  0  2  0  0  0  0  0  0  0  0  0
   48.9098    6.1904   -7.6280 N   0  0  0  0  0  0  0  0  0  0  0  0
   47.6700    1.3871   -4.5083 C   0  0  0  0  0  0  0  0  0  0  0  0
   42.0004    4.4764   -4.3451 C   0  0  2  0  0  0  0  0  0  0  0  0
   41.2582    5.7413   -4.4847 O   0  0  0  0  0  0  0  0  0  0  0  0
   41.0838    1.0244   -4.7326 C   0  0  2  0  0  0  0  0  0  0  0  0
   39.8842    1.7487   -5.2708 N   0  0  0  0  0  0  0  0  0  0  0  0
   41.5862   10.8215   -0.3344 C   0  0  0  0  0  0  0  0  0  0  0  0
   42.8310   11.2824   -0.7570 N   0  0  0  0  0  0  0  0  0  0  0  0
   46.8169    7.5733   -7.3493 C   0  0  1  0  0  0  0  0  0  0  0  0
   47.4259    8.6496   -8.0475 O   0  0  0  0  0  0  0  0  0  0  0  0
   47.8652    2.7222   -5.4307 C   0  0  2  0  0  0  0  0  0  0  0  0
   49.2245    3.1444   -5.4467 N   0  0  0  0  0  0  0  0  0  0  0  0
   41.7650    3.5401   -3.1847 C   0  0  2  0  0  0  0  0  0  0  0  0
   40.9790    2.4844   -2.7812 O   0  0  0  0  0  0  0  0  0  0  0  0
   41.0737   -0.4801   -5.1826 C   0  0  1  0  0  0  0  0  0  0  0  0
   42.2813   -1.1113   -4.6306 O   0  0  0  0  0  0  0  0  0  0  0  0
   45.2927    7.5297   -7.6068 C   0  0  2  0  0  0  0  0  0  0  0  0
   44.6429    8.7833   -7.1462 O   0  0  0  0  0  0  0  0  0  0  0  0
   46.9540    3.8889   -4.8832 C   0  0  2  0  0  0  0  0  0  0  0  0
   42.7426    4.1264   -2.0497 C   0  0  2  0  0  0  0  0  0  0  0  0
   43.8327    4.4766   -2.7730 O   0  0  0  0  0  0  0  0  0  0  0  0
   39.7153   -1.1954   -4.6290 C   0  0  2  0  0  0  0  0  0  0  0  0
   38.5066   -0.5500   -5.1893 O   0  0  0  0  0  0  0  0  0  0  0  0
   44.6371    6.3289   -6.8465 C   0  0  2  0  0  0  0  0  0  0  0  0
   45.3235    5.1486   -7.3364 O   0  0  0  0  0  0  0  0  0  0  0  0
   45.4743    3.3761   -4.8982 C   0  0  2  0  0  0  0  0  0  0  0  0
   44.7571    4.4882   -4.4200 O   0  0  0  0  0  0  0  0  0  0  0  0
   43.2518    3.1411   -0.9337 C   0  0  0  0  0  0  0  0  0  0  0  0
   43.8143    1.9454   -1.5608 O   0  0  0  0  0  0  0  0  0  0  0  0
   39.6513   -1.0929   -3.0401 C   0  0  1  0  0  0  0  0  0  0  0  0
   39.7178    0.3789   -2.6896 O   0  0  0  0  0  0  0  0  0  0  0  0
   43.1976    6.3518   -7.1673 C   0  0  0  0  0  0  0  0  0  0  0  0
   42.6077    7.4118   -6.5984 O   0  0  0  0  0  0  0  0  0  0  0  0
   45.3070    2.0988   -3.9693 C   0  0  1  0  0  0  0  0  0  0  0  0
   43.9876    1.6465   -3.9979 O   0  0  0  0  0  0  0  0  0  0  0  0
   41.7033    7.0467   -3.9700 C   0  0  0  0  0  0  0  0  0  0  0  0
   38.3089   -1.7871   -2.6291 C   0  0  0  0  0  0  0  0  0  0  0  0
   38.2222   -3.1472   -3.0779 N   0  0  0  0  0  0  0  0  0  0  0  0
   41.8140    6.9771   -2.4463 C   0  0  0  0  0  0  0  0  0  0  0  0
   40.9004    8.0027   -1.9062 N   0  0  0  0  0  0  0  0  0  0  0  0
   41.0188    9.4303   -2.4438 C   0  0  0  0  0  0  0  0  0  0  0  0
  1  2  1  1  0  0  0
  1  8  1  0  0  0  0
  1 33  1  0  0  0  0
  3  4  1  1  0  0  0
  3 10  1  0  0  0  0
  3 42  1  0  0  0  0
  5 11  1  0  0  0  0
  5 29  1  0  0  0  0
  5 35  1  6  0  0  0
  6 13  1  0  0  0  0
  6 39  1  0  0  0  0
  6 22  1  6  0  0  0
  7 15  1  0  0  0  0
  8  9  1  1  0  0  0
  8 17  1  0  0  0  0
 10 19  1  0  0  0  0
 11 12  1  1  0  0  0
 11 21  1  0  0  0  0
 12 44  1  0  0  0  0
 13 14  1  6  0  0  0
 13 23  1  0  0  0  0
 15 16  1  0  0  0  0
 17 18  1  6  0  0  0
 17 25  1  0  0  0  0
 19 20  1  1  0  0  0
 19 27  1  0  0  0  0
 21 22  1  1  0  0  0
 21 28  1  0  0  0  0
 23 24  1  1  0  0  0
 23 30  1  0  0  0  0
 25 26  1  1  0  0  0
 25 32  1  0  0  0  0
 27  2  1  6  0  0  0
 27 34  1  0  0  0  0
 28 29  1  0  0  0  0
 28 36  1  1  0  0  0
 30 31  1  6  0  0  0
 30 38  1  0  0  0  0
 32 33  1  0  0  0  0
 32 40  1  6  0  0  0
 34 35  1  1  0  0  0
 34 42  1  0  0  0  0
 36 37  1  0  0  0  0
 38 39  1  0  0  0  0
 38 45  1  6  0  0  0
 40 41  1  0  0  0  0
 42 43  1  6  0  0  0
 44 47  1  0  0  0  0
 45 46  1  0  0  0  0
 47 48  1  0  0  0  0
 48 49  1  0  0  0  0
 49  7  1  0  0  0  0
M  END
>  <CHROM.1>
-164.01427881,-38.58991473,-50.00859564,51.62604716,-22.06846325,-62.20250439
77.29714068,63.45986076,51.15293591,-69.21161828,-174.66279192,57.65847964
-120.73305797,-51.72511426,-149.18068881,83.26689044,43.38240006,4.03823904
-4.40020403,-0.94606670,-0.51734695,-3.04628868

>  <Name>
2bee_lig

>  <RI>
2.18182e+07

>  <Rbt.Current_Directory>
/home/itssahil/PROJECTS/Mol_Feturizer/New_Systems/rnas/2bee

>  <Rbt.Executable>
rbdock ($Id: //depot/dev/client3/rdock/2013.1/src/exe/rbdock.cxx#4 $)

>  <Rbt.Library>
libRbt.so (2013.1, Build901 2013/11/27)

>  <Rbt.Parameter_File>
/export/apps/rDock/src/rDock_2013.1_src/data/scripts/dock_solv.prm

>  <Rbt.Receptor>
prm/pocket_docking_3.prm

>  <SCORE>
-0.0977154

>  <SCORE.INTER>
0.512673

>  <SCORE.INTER.CONST>
1

>  <SCORE.INTER.POLAR>
-1.57857

>  <SCORE.INTER.ROT>
16

>  <SCORE.INTER.SOLV>
11.4072

>  <SCORE.INTER.VDW>
-12.4654

>  <SCORE.INTER.norm>
0.0104627

>  <SCORE.INTRA>
-1.39052

>  <SCORE.INTRA.DIHEDRAL>
-13.369

>  <SCORE.INTRA.DIHEDRAL.0>
36.0842

>  <SCORE.INTRA.POLAR>
0

>  <SCORE.INTRA.POLAR.0>
0

>  <SCORE.INTRA.REPUL>
0

>  <SCORE.INTRA.REPUL.0>
0

>  <SCORE.INTRA.SOLV>
4.15614

>  <SCORE.INTRA.SOLV.lig_0>
-126.444

>  <SCORE.INTRA.VDW>
3.21593

>  <SCORE.INTRA.VDW.0>
-7.40469

>  <SCORE.INTRA.norm>
-0.028378

>  <SCORE.RESTR>
0.780132

>  <SCORE.RESTR.CAVITY>
0.780132

>  <SCORE.RESTR.norm>
0.0159211

>  <SCORE.SYSTEM>
0

>  <SCORE.SYSTEM.CONST>
0

>  <SCORE.SYSTEM.DIHEDRAL>
0

>  <SCORE.SYSTEM.SOLV>
0

>  <SCORE.SYSTEM.norm>
0

>  <SCORE.heavy>
49

>  <SCORE.norm>
-0.00199419

>  <RMSD>
7.022

$$$$
2bee_lig
 OpenBabel11021811423D
libRbt.so/2013.1/901 2013/11/27
 49 52  0  0  0  0  0  0  0  0999 V2000
   40.5860    2.4407   -5.9444 C   0  0  2  0  0  0  0  0  0  0  0  0
   41.8842    2.1528   -5.4405 O   0  0  0  0  0  0  0  0  0  0  0  0
   43.3176    2.1310   -1.2789 C   0  0  2  0  0  0  0  0  0  0  0  0
   43.7859    2.6439    0.0373 N   0  0  0  0  0  0  0  0  0  0  0  0
   38.9595    2.5868   -2.6466 C   0  0  1  0  0  0  0  0  0  0  0  0
   39.3111    2.6995    1.8020 C   0  0  1  0  0  0  0  0  0  0  0  0
   35.1380   -2.1215    1.1737 C   0  0  0  0  0  0  0  0  0  0  0  0
   40.5705    2.3236   -7.5177 C   0  0  2  0  0  0  0  0  0  0  0  0
   41.0615    1.0119   -7.9263 N   0  0  0  0  0  0  0  0  0  0  0  0
   44.2584    2.7033   -2.4344 C   0  0  0  0  0  0  0  0  0  0  0  0
   37.9534    2.0704   -1.6700 C   0  0  2  0  0  0  0  0  0  0  0  0
   36.5931    1.9983   -2.2308 O   0  0  0  0  0  0  0  0  0  0  0  0
   39.2534    1.0785    1.8009 C   0  0  2  0  0  0  0  0  0  0  0  0
   37.8499    0.6615    2.1321 N   0  0  0  0  0  0  0  0  0  0  0  0
   35.2588   -3.4819    1.5419 C   0  0  0  0  0  0  0  0  0  0  0  0
   36.1603   -3.8546    2.5365 N   0  0  0  0  0  0  0  0  0  0  0  0
   41.4460    3.4971   -8.1407 C   0  0  1  0  0  0  0  0  0  0  0  0
   41.4223    3.3864   -9.5564 O   0  0  0  0  0  0  0  0  0  0  0  0
   43.7676    2.1723   -3.9003 C   0  0  2  0  0  0  0  0  0  0  0  0
   44.6063    2.6703   -4.9371 N   0  0  0  0  0  0  0  0  0  0  0  0
   38.3014    3.0166   -0.5464 C   0  0  2  0  0  0  0  0  0  0  0  0
   38.3244    3.1127    0.8266 O   0  0  0  0  0  0  0  0  0  0  0  0
   40.2618    0.5448    2.8799 C   0  0  1  0  0  0  0  0  0  0  0  0
   41.6070    0.9803    2.4768 O   0  0  0  0  0  0  0  0  0  0  0  0
   40.8735    4.8563   -7.6757 C   0  0  2  0  0  0  0  0  0  0  0  0
   41.6730    5.9818   -8.2235 O   0  0  0  0  0  0  0  0  0  0  0  0
   42.2776    2.6226   -4.1613 C   0  0  2  0  0  0  0  0  0  0  0  0
   38.6547    4.3793   -1.3247 C   0  0  2  0  0  0  0  0  0  0  0  0
   39.3212    3.9173   -2.4093 O   0  0  0  0  0  0  0  0  0  0  0  0
   39.8491    1.1437    4.3409 C   0  0  2  0  0  0  0  0  0  0  0  0
   38.4926    0.7008    4.7348 O   0  0  0  0  0  0  0  0  0  0  0  0
   40.8887    4.9579   -6.1139 C   0  0  2  0  0  0  0  0  0  0  0  0
   40.1027    3.8296   -5.6519 O   0  0  0  0  0  0  0  0  0  0  0  0
   41.4006    2.0399   -3.0020 C   0  0  2  0  0  0  0  0  0  0  0  0
   40.1073    2.4764   -3.3436 O   0  0  0  0  0  0  0  0  0  0  0  0
   39.6178    5.4038   -0.6185 C   0  0  0  0  0  0  0  0  0  0  0  0
   39.7548    6.5969   -1.4535 O   0  0  0  0  0  0  0  0  0  0  0  0
   39.8692    2.7366    4.3050 C   0  0  1  0  0  0  0  0  0  0  0  0
   38.9150    3.1656    3.2100 O   0  0  0  0  0  0  0  0  0  0  0  0
   40.3072    6.2672   -5.7629 C   0  0  0  0  0  0  0  0  0  0  0  0
   39.0366    6.3428   -6.1814 O   0  0  0  0  0  0  0  0  0  0  0  0
   41.8787    2.5972   -1.5937 C   0  0  1  0  0  0  0  0  0  0  0  0
   41.0961    2.0645   -0.5691 O   0  0  0  0  0  0  0  0  0  0  0  0
   35.3928    1.5738   -1.4918 C   0  0  0  0  0  0  0  0  0  0  0  0
   39.4407    3.1936    5.7405 C   0  0  0  0  0  0  0  0  0  0  0  0
   39.3985    4.6205    5.8839 N   0  0  0  0  0  0  0  0  0  0  0  0
   35.4746    0.0715   -1.2170 C   0  0  0  0  0  0  0  0  0  0  0  0
   34.3157   -0.2695   -0.3693 N   0  0  0  0  0  0  0  0  0  0  0  0
   34.1080   -1.7363    0.0137 C   0  0  0  0  0  0  0  0  0  0  0  0
  1  2  1  6  0  0  0
  1  8  1  0  0  0  0
  1 33  1  0  0  0  0
  3  4  1  1  0  0  0
  3 10  1  0  0  0  0
  3 42  1  0  0  0  0
  5 11  1  0  0  0  0
  5 29  1  0  0  0  0
  5 35  1  1  0  0  0
  6 13  1  0  0  0  0
  6 39  1  0  0  0  0
  6 22  1  6  0  0  0
  7 15  1  0  0  0  0
  8  9  1  1  0  0  0
  8 17  1  0  0  0  0
 10 19  1  0  0  0  0
 11 12  1  6  0  0  0
 11 21  1  0  0  0  0
 12 44  1  0  0  0  0
 13 14  1  1  0  0  0
 13 23  1  0  0  0  0
 15 16  1  0  0  0  0
 17 18  1  6  0  0  0
 17 25  1  0  0  0  0
 19 20  1  6  0  0  0
 19 27  1  0  0  0  0
 21 22  1  1  0  0  0
 21 28  1  0  0  0  0
 23 24  1  6  0  0  0
 23 30  1  0  0  0  0
 25 26  1  6  0  0  0
 25 32  1  0  0  0  0
 27  2  1  6  0  0  0
 27 34  1  0  0  0  0
 28 29  1  0  0  0  0
 28 36  1  1  0  0  0
 30 31  1  6  0  0  0
 30 38  1  0  0  0  0
 32 33  1  0  0  0  0
 32 40  1  6  0  0  0
 34 35  1  6  0  0  0
 34 42  1  0  0  0  0
 36 37  1  0  0  0  0
 38 39  1  0  0  0  0
 38 45  1  1  0  0  0
 40 41  1  0  0  0  0
 42 43  1  1  0  0  0
 44 47  1  0  0  0  0
 45 46  1  0  0  0  0
 47 48  1  0  0  0  0
 48 49  1  0  0  0  0
 49  7  1  0  0  0  0
M  END
>  <CHROM.1>
158.17671971,-43.06010664,-70.26089584,179.12468861,-177.78780211,-70.33218818
84.43247026,-178.80796825,-177.07806994,62.12593379,-162.44128411,-179.68932888
174.77303852,177.31748547,77.04739955,-170.66941848,39.65756162,2.39811866
-1.64831714,1.14364614,-0.62144745,-1.49856714

>  <Name>
2bee_lig

>  <RI>
0

>  <Rbt.Current_Directory>
/home/itssahil/PROJECTS/Mol_Feturizer/New_Systems/rnas/2bee

>  <Rbt.Executable>
rbdock ($Id: //depot/dev/client3/rdock/2013.1/src/exe/rbdock.cxx#4 $)

>  <Rbt.Library>
libRbt.so (2013.1, Build901 2013/11/27)

>  <Rbt.Parameter_File>
/export/apps/rDock/src/rDock_2013.1_src/data/scripts/dock_solv.prm

>  <Rbt.Receptor>
prm/pocket_docking_8.prm

>  <SCORE>
-12.2705

>  <SCORE.INTER>
-0.619463

>  <SCORE.INTER.CONST>
1

>  <SCORE.INTER.POLAR>
0

>  <SCORE.INTER.ROT>
16

>  <SCORE.INTER.SOLV>
12.1298

>  <SCORE.INTER.VDW>
-18.7229

>  <SCORE.INTER.norm>
-0.0126421

>  <SCORE.INTRA>
-11.651

>  <SCORE.INTRA.DIHEDRAL>
-24.6514

>  <SCORE.INTRA.DIHEDRAL.0>
36.0842

>  <SCORE.INTRA.POLAR>
0

>  <SCORE.INTRA.POLAR.0>
0

>  <SCORE.INTRA.REPUL>
0.166888

>  <SCORE.INTRA.REPUL.0>
0

>  <SCORE.INTRA.SOLV>
-2.28197

>  <SCORE.INTRA.SOLV.lig_0>
-126.444

>  <SCORE.INTRA.VDW>
0.981208

>  <SCORE.INTRA.VDW.0>
-7.40469

>  <SCORE.INTRA.norm>
-0.237776

>  <SCORE.RESTR>
0

>  <SCORE.RESTR.CAVITY>
0

>  <SCORE.RESTR.norm>
0

>  <SCORE.SYSTEM>
0

>  <SCORE.SYSTEM.CONST>
0

>  <SCORE.SYSTEM.DIHEDRAL>
0

>  <SCORE.SYSTEM.SOLV>
0

>  <SCORE.SYSTEM.norm>
0

>  <SCORE.heavy>
49

>  <SCORE.norm>
-0.250418

>  <RMSD>
7.022

$$$$
2bee_lig
 OpenBabel11021811423D
libRbt.so/2013.1/901 2013/11/27
 49 52  0  0  0  0  0  0  0  0999 V2000
   46.4755    5.0388   -7.8458 C   0  0  2  0  0  0  0  0  0  0  0  0
   46.3113    3.6380   -7.6645 O   0  0  0  0  0  0  0  0  0  0  0  0
   42.1727    3.0634   -9.0489 C   0  0  2  0  0  0  0  0  0  0  0  0
   40.9595    2.3773   -9.5707 N   0  0  0  0  0  0  0  0  0  0  0  0
   43.9006    2.7583   -4.6679 C   0  0  1  0  0  0  0  0  0  0  0  0
   41.2595   -0.0412   -2.0443 C   0  0  1  0  0  0  0  0  0  0  0  0
   37.8057    6.8174   -1.3527 C   0  0  0  0  0  0  0  0  0  0  0  0
   47.7974    5.5315   -7.1396 C   0  0  2  0  0  0  0  0  0  0  0  0
   48.9382    4.7583   -7.6185 N   0  0  0  0  0  0  0  0  0  0  0  0
   43.3828    2.8444  -10.0666 C   0  0  0  0  0  0  0  0  0  0  0  0
   42.7918    2.6998   -3.6680 C   0  0  2  0  0  0  0  0  0  0  0  0
   42.7051    3.9117   -2.8349 O   0  0  0  0  0  0  0  0  0  0  0  0
   41.2523   -1.6273   -1.7050 C   0  0  2  0  0  0  0  0  0  0  0  0
   41.6597   -2.3710   -2.9436 N   0  0  0  0  0  0  0  0  0  0  0  0
   38.7562    7.8323   -1.6121 C   0  0  0  0  0  0  0  0  0  0  0  0
   40.0894    7.6425   -1.2555 N   0  0  0  0  0  0  0  0  0  0  0  0
   47.6276    5.4093   -5.5622 C   0  0  1  0  0  0  0  0  0  0  0  0
   48.8199    5.8592   -4.9353 O   0  0  0  0  0  0  0  0  0  0  0  0
   44.7404    3.5731   -9.5214 C   0  0  2  0  0  0  0  0  0  0  0  0
   45.8234    3.3911  -10.4271 N   0  0  0  0  0  0  0  0  0  0  0  0
   43.1573    1.3570   -3.0829 C   0  0  2  0  0  0  0  0  0  0  0  0
   42.6073    0.2431   -2.4898 O   0  0  0  0  0  0  0  0  0  0  0  0
   39.8012   -2.0342   -1.2636 C   0  0  1  0  0  0  0  0  0  0  0  0
   39.4856   -1.2779   -0.0429 O   0  0  0  0  0  0  0  0  0  0  0  0
   46.4093    6.2521   -5.1184 C   0  0  2  0  0  0  0  0  0  0  0  0
   46.2049    6.1534   -3.6506 O   0  0  0  0  0  0  0  0  0  0  0  0
   45.1288    2.9913   -8.1066 C   0  0  2  0  0  0  0  0  0  0  0  0
   44.7653    1.3787   -3.1180 C   0  0  2  0  0  0  0  0  0  0  0  0
   45.0111    1.9906   -4.3010 O   0  0  0  0  0  0  0  0  0  0  0  0
   38.7580   -1.6895   -2.4704 C   0  0  2  0  0  0  0  0  0  0  0  0
   39.0871   -2.4545   -3.6943 O   0  0  0  0  0  0  0  0  0  0  0  0
   45.1058    5.7578   -5.8299 C   0  0  2  0  0  0  0  0  0  0  0  0
   45.3809    5.8724   -7.2496 O   0  0  0  0  0  0  0  0  0  0  0  0
   43.9111    3.2278   -7.1507 C   0  0  2  0  0  0  0  0  0  0  0  0
   44.3697    2.6999   -5.9296 O   0  0  0  0  0  0  0  0  0  0  0  0
   45.5208   -0.0005   -3.1696 C   0  0  0  0  0  0  0  0  0  0  0  0
   46.9640    0.2340   -3.1278 O   0  0  0  0  0  0  0  0  0  0  0  0
   38.8155   -0.1351   -2.8163 C   0  0  1  0  0  0  0  0  0  0  0  0
   40.2508    0.1836   -3.1795 O   0  0  0  0  0  0  0  0  0  0  0  0
   44.0079    6.6280   -5.3680 C   0  0  0  0  0  0  0  0  0  0  0  0
   42.8896    6.3799   -6.0630 O   0  0  0  0  0  0  0  0  0  0  0  0
   42.6153    2.4827   -7.6873 C   0  0  1  0  0  0  0  0  0  0  0  0
   41.5360    2.7080   -6.8326 O   0  0  0  0  0  0  0  0  0  0  0  0
   41.6512    4.1861   -1.8446 C   0  0  0  0  0  0  0  0  0  0  0  0
   37.7991    0.0709   -3.9899 C   0  0  0  0  0  0  0  0  0  0  0  0
   36.4375   -0.1526   -3.5964 N   0  0  0  0  0  0  0  0  0  0  0  0
   40.3111    4.3438   -2.5645 C   0  0  0  0  0  0  0  0  0  0  0  0
   39.3343    4.7899   -1.5522 N   0  0  0  0  0  0  0  0  0  0  0  0
   38.0127    5.3884   -2.0384 C   0  0  0  0  0  0  0  0  0  0  0  0
  1  2  1  1  0  0  0
  1  8  1  0  0  0  0
  1 33  1  0  0  0  0
  3  4  1  6  0  0  0
  3 10  1  0  0  0  0
  3 42  1  0  0  0  0
  5 11  1  0  0  0  0
  5 29  1  0  0  0  0
  5 35  1  6  0  0  0
  6 13  1  0  0  0  0
  6 39  1  0  0  0  0
  6 22  1  6  0  0  0
  7 15  1  0  0  0  0
  8  9  1  6  0  0  0
  8 17  1  0  0  0  0
 10 19  1  0  0  0  0
 11 12  1  1  0  0  0
 11 21  1  0  0  0  0
 12 44  1  0  0  0  0
 13 14  1  6  0  0  0
 13 23  1  0  0  0  0
 15 16  1  0  0  0  0
 17 18  1  1  0  0  0
 17 25  1  0  0  0  0
 19 20  1  6  0  0  0
 19 27  1  0  0  0  0
 21 22  1  1  0  0  0
 21 28  1  0  0  0  0
 23 24  1  1  0  0  0
 23 30  1  0  0  0  0
 25 26  1  1  0  0  0
 25 32  1  0  0  0  0
 27  2  1  1  0  0  0
 27 34  1  0  0  0  0
 28 29  1  0  0  0  0
 28 36  1  6  0  0  0
 30 31  1  6  0  0  0
 30 38  1  0  0  0  0
 32 33  1  0  0  0  0
 32 40  1  1  0  0  0
 34 35  1  1  0  0  0
 34 42  1  0  0  0  0
 36 37  1  0  0  0  0
 38 39  1  0  0  0  0
 38 45  1  6  0  0  0
 40 41  1  0  0  0  0
 42 43  1  1  0  0  0
 44 47  1  0  0  0  0
 45 46  1  0  0  0  0
 47 48  1  0  0  0  0
 48 49  1  0  0  0  0
 49  7  1  0  0  0  0
M  END
>  <CHROM.1>
174.14743263,43.21028595,169.50380324,-60.71799300,174.76548747,-65.51910721
-6.75187670,41.91239459,-177.17953478,172.01695263,168.70837626,66.76713485
-172.71207347,163.80384322,-126.57484546,61.55925992,42.84435724,2.87195353
-4.64672357,-0.40104096,-0.66348426,-3.02846850

>  <Name>
2bee_lig

>  <RI>
0

>  <Rbt.Current_Directory>
/home/itssahil/PROJECTS/Mol_Feturizer/New_Systems/rnas/2bee

>  <Rbt.Executable>
rbdock ($Id: //depot/dev/client3/rdock/2013.1/src/exe/rbdock.cxx#4 $)

>  <Rbt.Library>
libRbt.so (2013.1, Build901 2013/11/27)

>  <Rbt.Parameter_File>
/export/apps/rDock/src/rDock_2013.1_src/data/scripts/dock_solv.prm

>  <Rbt.Receptor>
prm/pocket_docking_7.prm

>  <SCORE>
-10.1419

>  <SCORE.INTER>
2.77321

>  <SCORE.INTER.CONST>
1

>  <SCORE.INTER.POLAR>
-0.0922093

>  <SCORE.INTER.ROT>
16

>  <SCORE.INTER.SOLV>
10.6777

>  <SCORE.INTER.VDW>
-15.6697

>  <SCORE.INTER.norm>
0.0565962

>  <SCORE.INTRA>
-12.9152

>  <SCORE.INTRA.DIHEDRAL>
-26.1567

>  <SCORE.INTRA.DIHEDRAL.0>
36.0842

>  <SCORE.INTRA.POLAR>
0

>  <SCORE.INTRA.POLAR.0>
0

>  <SCORE.INTRA.REPUL>
0

>  <SCORE.INTRA.REPUL.0>
0

>  <SCORE.INTRA.SOLV>
-0.0525781

>  <SCORE.INTRA.SOLV.lig_0>
-126.444

>  <SCORE.INTRA.VDW>
0.189494

>  <SCORE.INTRA.VDW.0>
-7.40469

>  <SCORE.INTRA.norm>
-0.263575

>  <SCORE.RESTR>
0

>  <SCORE.RESTR.CAVITY>
0

>  <SCORE.RESTR.norm>
0

>  <SCORE.SYSTEM>
0

>  <SCORE.SYSTEM.CONST>
0

>  <SCORE.SYSTEM.DIHEDRAL>
0

>  <SCORE.SYSTEM.SOLV>
0

>  <SCORE.SYSTEM.norm>
0

>  <SCORE.heavy>
49

>  <SCORE.norm>
-0.206978

>  <RMSD>
7.029

$$$$
2bee_lig
 OpenBabel11021811423D
libRbt.so/2013.1/901 2013/11/27
 49 52  0  0  0  0  0  0  0  0999 V2000
   45.1730    8.1962   -8.9846 C   0  0  2  0  0  0  0  0  0  0  0  0
   44.1401    8.2972   -8.0124 O   0  0  0  0  0  0  0  0  0  0  0  0
   40.8900    5.5564   -6.8727 C   0  0  2  0  0  0  0  0  0  0  0  0
   40.2068    4.3067   -6.4411 N   0  0  0  0  0  0  0  0  0  0  0  0
   44.1053    7.3260   -4.2569 C   0  0  1  0  0  0  0  0  0  0  0  0
   43.4965    2.9622   -3.4733 C   0  0  1  0  0  0  0  0  0  0  0  0
   39.9928    9.6916   -1.1309 C   0  0  0  0  0  0  0  0  0  0  0  0
   46.3174    9.2381   -8.6784 C   0  0  2  0  0  0  0  0  0  0  0  0
   46.8017    9.0622   -7.3135 N   0  0  0  0  0  0  0  0  0  0  0  0
   41.7422    5.2650   -8.1905 C   0  0  0  0  0  0  0  0  0  0  0  0
   44.0363    6.5918   -2.9573 C   0  0  2  0  0  0  0  0  0  0  0  0
   44.6618    7.3302   -1.8466 O   0  0  0  0  0  0  0  0  0  0  0  0
   43.9632    1.6381   -2.6609 C   0  0  2  0  0  0  0  0  0  0  0  0
   45.3006    1.2119   -3.1927 N   0  0  0  0  0  0  0  0  0  0  0  0
   39.5202   11.0240   -1.1780 C   0  0  0  0  0  0  0  0  0  0  0  0
   38.9771   11.6088   -0.0361 N   0  0  0  0  0  0  0  0  0  0  0  0
   45.7655   10.7110   -8.9191 C   0  0  1  0  0  0  0  0  0  0  0  0
   46.8034   11.6411   -8.6457 O   0  0  0  0  0  0  0  0  0  0  0  0
   42.5202    6.6129   -8.6898 C   0  0  2  0  0  0  0  0  0  0  0  0
   43.2762    6.3653   -9.8703 N   0  0  0  0  0  0  0  0  0  0  0  0
   44.6034    5.2881   -3.4649 C   0  0  2  0  0  0  0  0  0  0  0  0
   44.5540    3.9277   -3.2603 O   0  0  0  0  0  0  0  0  0  0  0  0
   42.8905    0.5135   -2.8860 C   0  0  1  0  0  0  0  0  0  0  0  0
   41.6206    1.0001   -2.3274 O   0  0  0  0  0  0  0  0  0  0  0  0
   45.2738   10.8339  -10.3801 C   0  0  2  0  0  0  0  0  0  0  0  0
   44.7346   12.1925  -10.6437 O   0  0  0  0  0  0  0  0  0  0  0  0
   43.4767    7.1330   -7.5471 C   0  0  2  0  0  0  0  0  0  0  0  0
   45.7044    5.7706   -4.5338 C   0  0  2  0  0  0  0  0  0  0  0  0
   45.0830    6.8209   -5.1208 O   0  0  0  0  0  0  0  0  0  0  0  0
   42.7652    0.2054   -4.4838 C   0  0  2  0  0  0  0  0  0  0  0  0
   44.0499   -0.2812   -5.0352 O   0  0  0  0  0  0  0  0  0  0  0  0
   44.1434    9.7918  -10.6731 C   0  0  2  0  0  0  0  0  0  0  0  0
   44.7350    8.4987  -10.3864 O   0  0  0  0  0  0  0  0  0  0  0  0
   42.5945    7.3994   -6.2809 C   0  0  2  0  0  0  0  0  0  0  0  0
   43.5321    7.8751   -5.3456 O   0  0  0  0  0  0  0  0  0  0  0  0
   46.0890    4.7806   -5.6948 C   0  0  0  0  0  0  0  0  0  0  0  0
   46.7711    3.6148   -5.1334 O   0  0  0  0  0  0  0  0  0  0  0  0
   42.3499    1.5303   -5.2657 C   0  0  1  0  0  0  0  0  0  0  0  0
   43.4024    2.5741   -4.9556 O   0  0  0  0  0  0  0  0  0  0  0  0
   43.7553    9.9646  -12.0856 C   0  0  0  0  0  0  0  0  0  0  0  0
   42.9494   11.0261  -12.2234 O   0  0  0  0  0  0  0  0  0  0  0  0
   41.8766    6.0672   -5.7991 C   0  0  1  0  0  0  0  0  0  0  0  0
   41.0874    6.3190   -4.6765 O   0  0  0  0  0  0  0  0  0  0  0  0
   43.9422    8.1701   -0.8753 C   0  0  0  0  0  0  0  0  0  0  0  0
   42.2817    1.1214   -6.7761 C   0  0  0  0  0  0  0  0  0  0  0  0
   41.1967    0.2283   -7.0653 N   0  0  0  0  0  0  0  0  0  0  0  0
   43.3194    9.3623   -1.6031 C   0  0  0  0  0  0  0  0  0  0  0  0
   42.4618   10.0578   -0.6239 N   0  0  0  0  0  0  0  0  0  0  0  0
   41.1971    9.3465   -0.1382 C   0  0  0  0  0  0  0  0  0  0  0  0
  1  2  1  1  0  0  0
  1  8  1  0  0  0  0
  1 33  1  0  0  0  0
  3  4  1  1  0  0  0
  3 10  1  0  0  0  0
  3 42  1  0  0  0  0
  5 11  1  0  0  0  0
  5 29  1  0  0  0  0
  5 35  1  6  0  0  0
  6 13  1  0  0  0  0
  6 39  1  0  0  0  0
  6 22  1  6  0  0  0
  7 15  1  0  0  0  0
  8  9  1  1  0  0  0
  8 17  1  0  0  0  0
 10 19  1  0  0  0  0
 11 12  1  1  0  0  0
 11 21  1  0  0  0  0
 12 44  1  0  0  0  0
 13 14  1  6  0  0  0
 13 23  1  0  0  0  0
 15 16  1  0  0  0  0
 17 18  1  6  0  0  0
 17 25  1  0  0  0  0
 19 20  1  6  0  0  0
 19 27  1  0  0  0  0
 21 22  1  1  0  0  0
 21 28  1  0  0  0  0
 23 24  1  6  0  0  0
 23 30  1  0  0  0  0
 25 26  1  1  0  0  0
 25 32  1  0  0  0  0
 27  2  1  6  0  0  0
 27 34  1  0  0  0  0
 28 29  1  0  0  0  0
 28 36  1  6  0  0  0
 30 31  1  6  0  0  0
 30 38  1  0  0  0  0
 32 33  1  0  0  0  0
 32 40  1  6  0  0  0
 34 35  1  1  0  0  0
 34 42  1  0  0  0  0
 36 37  1  0  0  0  0
 38 39  1  0  0  0  0
 38 45  1  6  0  0  0
 40 41  1  0  0  0  0
 42 43  1  1  0  0  0
 44 47  1  0  0  0  0
 45 46  1  0  0  0  0
 47 48  1  0  0  0  0
 48 49  1  0  0  0  0
 49  7  1  0  0  0  0
M  END
>  <CHROM.1>
-142.52253226,-49.58623433,-165.05283466,-61.67213717,96.98377159,-64.60121208
67.82324718,-73.07362620,-66.61431772,-78.70162717,-105.83263947,68.45635837
172.25770920,-68.24929395,-88.21113206,-66.85532264,43.49057547,6.45923704
-5.65626670,-1.00109786,-1.28310089,3.03302343

>  <Name>
2bee_lig

>  <RI>
2.18182e+07

>  <Rbt.Current_Directory>
/home/itssahil/PROJECTS/Mol_Feturizer/New_Systems/rnas/2bee

>  <Rbt.Executable>
rbdock ($Id: //depot/dev/client3/rdock/2013.1/src/exe/rbdock.cxx#4 $)

>  <Rbt.Library>
libRbt.so (2013.1, Build901 2013/11/27)

>  <Rbt.Parameter_File>
/export/apps/rDock/src/rDock_2013.1_src/data/scripts/dock_solv.prm

>  <Rbt.Receptor>
prm/pocket_docking_3.prm

>  <SCORE>
-20.5254

>  <SCORE.INTER>
-19.3293

>  <SCORE.INTER.CONST>
1

>  <SCORE.INTER.POLAR>
-1.57937

>  <SCORE.INTER.ROT>
16

>  <SCORE.INTER.SOLV>
20.6773

>  <SCORE.INTER.VDW>
-28.7807

>  <SCORE.INTER.norm>
-0.394475

>  <SCORE.INTRA>
-2.01331

>  <SCORE.INTRA.DIHEDRAL>
-9.3393

>  <SCORE.INTRA.DIHEDRAL.0>
36.0842

>  <SCORE.INTRA.POLAR>
0

>  <SCORE.INTRA.POLAR.0>
0

>  <SCORE.INTRA.REPUL>
0

>  <SCORE.INTRA.REPUL.0>
0

>  <SCORE.INTRA.SOLV>
3.17343

>  <SCORE.INTRA.SOLV.lig_0>
-126.444

>  <SCORE.INTRA.VDW>
1.06962

>  <SCORE.INTRA.VDW.0>
-7.40469

>  <SCORE.INTRA.norm>
-0.0410881

>  <SCORE.RESTR>
0.817178

>  <SCORE.RESTR.CAVITY>
0.817178

>  <SCORE.RESTR.norm>
0.0166771

>  <SCORE.SYSTEM>
0

>  <SCORE.SYSTEM.CONST>
0

>  <SCORE.SYSTEM.DIHEDRAL>
0

>  <SCORE.SYSTEM.SOLV>
0

>  <SCORE.SYSTEM.norm>
0

>  <SCORE.heavy>
49

>  <SCORE.norm>
-0.418886

>  <RMSD>
7.061

$$$$
2bee_lig
 OpenBabel11021811423D
libRbt.so/2013.1/901 2013/11/27
 49 52  0  0  0  0  0  0  0  0999 V2000
   40.6177    3.1204   -3.0995 C   0  0  2  0  0  0  0  0  0  0  0  0
   41.8406    2.6162   -3.6215 O   0  0  0  0  0  0  0  0  0  0  0  0
   45.6670    4.6224   -4.4627 C   0  0  2  0  0  0  0  0  0  0  0  0
   46.6606    5.5066   -5.1303 N   0  0  0  0  0  0  0  0  0  0  0  0
   41.7289    5.1719   -1.4496 C   0  0  1  0  0  0  0  0  0  0  0  0
   40.0894    8.2872    1.8290 C   0  0  1  0  0  0  0  0  0  0  0  0
   39.6464    2.5581    5.3958 C   0  0  0  0  0  0  0  0  0  0  0  0
   39.6647    1.9314   -2.6909 C   0  0  2  0  0  0  0  0  0  0  0  0
   40.3512    1.0352   -1.7667 N   0  0  0  0  0  0  0  0  0  0  0  0
   45.0529    3.6126   -5.5357 C   0  0  0  0  0  0  0  0  0  0  0  0
   41.7558    5.3061    0.0383 C   0  0  2  0  0  0  0  0  0  0  0  0
   41.1937    4.1336    0.7309 O   0  0  0  0  0  0  0  0  0  0  0  0
   38.9101    8.9871    0.9626 C   0  0  2  0  0  0  0  0  0  0  0  0
   39.5253   10.0742    0.1302 N   0  0  0  0  0  0  0  0  0  0  0  0
   38.2670    2.6949    5.6774 C   0  0  0  0  0  0  0  0  0  0  0  0
   37.4428    3.3863    4.7923 N   0  0  0  0  0  0  0  0  0  0  0  0
   39.1864    1.1668   -4.0019 C   0  0  1  0  0  0  0  0  0  0  0  0
   38.3258    0.1018   -3.6247 O   0  0  0  0  0  0  0  0  0  0  0  0
   43.9449    2.6310   -4.8428 C   0  0  2  0  0  0  0  0  0  0  0  0
   43.3977    1.7202   -5.7902 N   0  0  0  0  0  0  0  0  0  0  0  0
   41.0927    6.6608    0.1018 C   0  0  2  0  0  0  0  0  0  0  0  0
   41.0464    7.8148    0.8508 O   0  0  0  0  0  0  0  0  0  0  0  0
   37.8489    9.5804    1.9566 C   0  0  1  0  0  0  0  0  0  0  0  0
   37.2857    8.4566    2.7194 O   0  0  0  0  0  0  0  0  0  0  0  0
   38.4643    2.1666   -4.9348 C   0  0  2  0  0  0  0  0  0  0  0  0
   38.0138    1.4959   -6.1810 O   0  0  0  0  0  0  0  0  0  0  0  0
   42.7867    3.4952   -4.2080 C   0  0  2  0  0  0  0  0  0  0  0  0
   40.0204    6.5891   -1.0951 C   0  0  2  0  0  0  0  0  0  0  0  0
   40.7106    5.9207   -2.0495 O   0  0  0  0  0  0  0  0  0  0  0  0
   38.5784   10.6645    2.9343 C   0  0  2  0  0  0  0  0  0  0  0  0
   39.1435   11.7893    2.1553 O   0  0  0  0  0  0  0  0  0  0  0  0
   39.4176    3.3440   -5.3281 C   0  0  2  0  0  0  0  0  0  0  0  0
   39.8226    3.9417   -4.0699 O   0  0  0  0  0  0  0  0  0  0  0  0
   43.4410    4.4674   -3.1692 C   0  0  2  0  0  0  0  0  0  0  0  0
   42.3311    5.1627   -2.6550 O   0  0  0  0  0  0  0  0  0  0  0  0
   39.5566    7.9416   -1.7520 C   0  0  0  0  0  0  0  0  0  0  0  0
   40.7133    8.6198   -2.3364 O   0  0  0  0  0  0  0  0  0  0  0  0
   39.7613    9.9649    3.7410 C   0  0  1  0  0  0  0  0  0  0  0  0
   40.7081    9.3774    2.7152 O   0  0  0  0  0  0  0  0  0  0  0  0
   38.6427    4.2538   -6.1928 C   0  0  0  0  0  0  0  0  0  0  0  0
   39.4132    5.2631   -6.6205 O   0  0  0  0  0  0  0  0  0  0  0  0
   44.4887    5.4302   -3.8747 C   0  0  1  0  0  0  0  0  0  0  0  0
   45.0708    6.2849   -2.9382 O   0  0  0  0  0  0  0  0  0  0  0  0
   39.8172    3.6360    0.5747 C   0  0  0  0  0  0  0  0  0  0  0  0
   40.3946   11.0954    4.6206 C   0  0  0  0  0  0  0  0  0  0  0  0
   41.5348   10.6495    5.3687 N   0  0  0  0  0  0  0  0  0  0  0  0
   39.6108    2.4277    1.4893 C   0  0  0  0  0  0  0  0  0  0  0  0
   39.6688    2.9292    2.8761 N   0  0  0  0  0  0  0  0  0  0  0  0
   40.0772    1.9523    3.9807 C   0  0  0  0  0  0  0  0  0  0  0  0
  1  2  1  6  0  0  0
  1  8  1  0  0  0  0
  1 33  1  0  0  0  0
  3  4  1  6  0  0  0
  3 10  1  0  0  0  0
  3 42  1  0  0  0  0
  5 11  1  0  0  0  0
  5 29  1  0  0  0  0
  5 35  1  6  0  0  0
  6 13  1  0  0  0  0
  6 39  1  0  0  0  0
  6 22  1  6  0  0  0
  7 15  1  0  0  0  0
  8  9  1  1  0  0  0
  8 17  1  0  0  0  0
 10 19  1  0  0  0  0
 11 12  1  1  0  0  0
 11 21  1  0  0  0  0
 12 44  1  0  0  0  0
 13 14  1  1  0  0  0
 13 23  1  0  0  0  0
 15 16  1  0  0  0  0
 17 18  1  1  0  0  0
 17 25  1  0  0  0  0
 19 20  1  6  0  0  0
 19 27  1  0  0  0  0
 21 22  1  1  0  0  0
 21 28  1  0  0  0  0
 23 24  1  1  0  0  0
 23 30  1  0  0  0  0
 25 26  1  6  0  0  0
 25 32  1  0  0  0  0
 27  2  1  1  0  0  0
 27 34  1  0  0  0  0
 28 29  1  0  0  0  0
 28 36  1  6  0  0  0
 30 31  1  6  0  0  0
 30 38  1  0  0  0  0
 32 33  1  0  0  0  0
 32 40  1  6  0  0  0
 34 35  1  6  0  0  0
 34 42  1  0  0  0  0
 36 37  1  0  0  0  0
 38 39  1  0  0  0  0
 38 45  1  6  0  0  0
 40 41  1  0  0  0  0
 42 43  1  1  0  0  0
 44 47  1  0  0  0  0
 45 46  1  0  0  0  0
 47 48  1  0  0  0  0
 48 49  1  0  0  0  0
 49  7  1  0  0  0  0
M  END
>  <CHROM.1>
172.17194708,52.36856758,-83.86028479,-53.64579869,-59.91459824,-178.40685834
-100.99737368,-173.29183312,60.80786151,-177.30670012,111.47836939,-176.87173867
67.46679318,-154.83291892,-162.83770274,66.40459280,40.65035843,5.32193908
-0.98835855,1.13627467,-1.02793419,-2.54980057

>  <Name>
2bee_lig

>  <RI>
0

>  <Rbt.Current_Directory>
/home/itssahil/PROJECTS/Mol_Feturizer/New_Systems/rnas/2bee

>  <Rbt.Executable>
rbdock ($Id: //depot/dev/client3/rdock/2013.1/src/exe/rbdock.cxx#4 $)

>  <Rbt.Library>
libRbt.so (2013.1, Build901 2013/11/27)

>  <Rbt.Parameter_File>
/export/apps/rDock/src/rDock_2013.1_src/data/scripts/dock_solv.prm

>  <Rbt.Receptor>
prm/pocket_docking_7.prm

>  <SCORE>
-9.22016

>  <SCORE.INTER>
-3.08282

>  <SCORE.INTER.CONST>
1

>  <SCORE.INTER.POLAR>
-0.922248

>  <SCORE.INTER.ROT>
16

>  <SCORE.INTER.SOLV>
11.5851

>  <SCORE.INTER.VDW>
-17.1094

>  <SCORE.INTER.norm>
-0.0629147

>  <SCORE.INTRA>
-6.13734

>  <SCORE.INTRA.DIHEDRAL>
-20.5322

>  <SCORE.INTRA.DIHEDRAL.0>
36.0842

>  <SCORE.INTRA.POLAR>
0

>  <SCORE.INTRA.POLAR.0>
0

>  <SCORE.INTRA.REPUL>
0.204836

>  <SCORE.INTRA.REPUL.0>
0

>  <SCORE.INTRA.SOLV>
2.13009

>  <SCORE.INTRA.SOLV.lig_0>
-126.444

>  <SCORE.INTRA.VDW>
2.03956

>  <SCORE.INTRA.VDW.0>
-7.40469

>  <SCORE.INTRA.norm>
-0.125252

>  <SCORE.RESTR>
0

>  <SCORE.RESTR.CAVITY>
0

>  <SCORE.RESTR.norm>
0

>  <SCORE.SYSTEM>
0

>  <SCORE.SYSTEM.CONST>
0

>  <SCORE.SYSTEM.DIHEDRAL>
0

>  <SCORE.SYSTEM.SOLV>
0

>  <SCORE.SYSTEM.norm>
0

>  <SCORE.heavy>
49

>  <SCORE.norm>
-0.188166

>  <RMSD>
7.109

$$$$
2bee_lig
 OpenBabel11021811423D
libRbt.so/2013.1/901 2013/11/27
 49 52  0  0  0  0  0  0  0  0999 V2000
   45.3538    1.6376   -5.6110 C   0  0  2  0  0  0  0  0  0  0  0  0
   44.2804    2.3377   -4.9945 O   0  0  0  0  0  0  0  0  0  0  0  0
   40.6183    0.4885   -3.3998 C   0  0  2  0  0  0  0  0  0  0  0  0
   39.7252   -0.2722   -2.4840 N   0  0  0  0  0  0  0  0  0  0  0  0
   43.0137    4.9055   -3.5374 C   0  0  1  0  0  0  0  0  0  0  0  0
   41.2547    8.3958   -1.3504 C   0  0  1  0  0  0  0  0  0  0  0  0
   43.8679    8.3719   -9.6816 C   0  0  0  0  0  0  0  0  0  0  0  0
   46.5097    1.3792   -4.5689 C   0  0  2  0  0  0  0  0  0  0  0  0
   45.9809    0.6913   -3.3959 N   0  0  0  0  0  0  0  0  0  0  0  0
   41.8464   -0.4361   -3.8293 C   0  0  0  0  0  0  0  0  0  0  0  0
   42.5829    6.2443   -4.0418 C   0  0  2  0  0  0  0  0  0  0  0  0
   43.1968    6.5961   -5.3339 O   0  0  0  0  0  0  0  0  0  0  0  0
   40.8925    9.9255   -1.7503 C   0  0  2  0  0  0  0  0  0  0  0  0
   42.0444   10.7986   -1.3456 N   0  0  0  0  0  0  0  0  0  0  0  0
   44.0853    8.9097  -10.9716 C   0  0  0  0  0  0  0  0  0  0  0  0
   44.0576   10.2893  -11.1624 N   0  0  0  0  0  0  0  0  0  0  0  0
   47.1861    2.7659   -4.1795 C   0  0  1  0  0  0  0  0  0  0  0  0
   48.2278    2.5228   -3.2453 O   0  0  0  0  0  0  0  0  0  0  0  0
   42.8599    0.3695   -4.8270 C   0  0  2  0  0  0  0  0  0  0  0  0
   43.9543   -0.4501   -5.2230 N   0  0  0  0  0  0  0  0  0  0  0  0
   42.8916    7.0123   -2.7794 C   0  0  2  0  0  0  0  0  0  0  0  0
   42.4906    8.1065   -2.0465 O   0  0  0  0  0  0  0  0  0  0  0  0
   39.5841   10.3416   -0.9880 C   0  0  1  0  0  0  0  0  0  0  0  0
   38.5065    9.4539   -1.4490 O   0  0  0  0  0  0  0  0  0  0  0  0
   47.7290    3.4406   -5.4607 C   0  0  2  0  0  0  0  0  0  0  0  0
   48.3565    4.7489   -5.1436 O   0  0  0  0  0  0  0  0  0  0  0  0
   43.4014    1.6656   -4.1072 C   0  0  2  0  0  0  0  0  0  0  0  0
   44.2198    6.2856   -2.2359 C   0  0  2  0  0  0  0  0  0  0  0  0
   43.9586    4.9850   -2.5087 O   0  0  0  0  0  0  0  0  0  0  0  0
   39.8327   10.2003    0.6188 C   0  0  2  0  0  0  0  0  0  0  0  0
   40.9210   11.0964    1.0705 O   0  0  0  0  0  0  0  0  0  0  0  0
   46.5745    3.6862   -6.4885 C   0  0  2  0  0  0  0  0  0  0  0  0
   46.0057    2.3759   -6.7416 O   0  0  0  0  0  0  0  0  0  0  0  0
   42.1609    2.5329   -3.7051 C   0  0  2  0  0  0  0  0  0  0  0  0
   42.7529    3.6575   -3.1013 O   0  0  0  0  0  0  0  0  0  0  0  0
   44.5232    6.3604   -0.6938 C   0  0  0  0  0  0  0  0  0  0  0  0
   43.4703    5.6619    0.0431 O   0  0  0  0  0  0  0  0  0  0  0  0
   40.2308    8.7006    0.9812 C   0  0  1  0  0  0  0  0  0  0  0  0
   41.4643    8.3628    0.1700 O   0  0  0  0  0  0  0  0  0  0  0  0
   47.1845    4.3063   -7.6797 C   0  0  0  0  0  0  0  0  0  0  0  0
   46.2468    4.5831   -8.5959 O   0  0  0  0  0  0  0  0  0  0  0  0
   41.2111    1.7379   -2.7110 C   0  0  1  0  0  0  0  0  0  0  0  0
   40.1060    2.5171   -2.3672 O   0  0  0  0  0  0  0  0  0  0  0  0
   44.6385    6.5504   -5.6280 C   0  0  0  0  0  0  0  0  0  0  0  0
   40.4631    8.6913    2.5301 C   0  0  0  0  0  0  0  0  0  0  0  0
   40.7407    7.3817    3.0463 N   0  0  0  0  0  0  0  0  0  0  0  0
   44.8950    7.1869   -6.9947 C   0  0  0  0  0  0  0  0  0  0  0  0
   44.0064    6.5044   -7.9552 N   0  0  0  0  0  0  0  0  0  0  0  0
   44.1722    6.8209   -9.4431 C   0  0  0  0  0  0  0  0  0  0  0  0
  1  2  1  1  0  0  0
  1  8  1  0  0  0  0
  1 33  1  0  0  0  0
  3  4  1  1  0  0  0
  3 10  1  0  0  0  0
  3 42  1  0  0  0  0
  5 11  1  0  0  0  0
  5 29  1  0  0  0  0
  5 35  1  1  0  0  0
  6 13  1  0  0  0  0
  6 39  1  0  0  0  0
  6 22  1  6  0  0  0
  7 15  1  0  0  0  0
  8  9  1  1  0  0  0
  8 17  1  0  0  0  0
 10 19  1  0  0  0  0
 11 12  1  6  0  0  0
 11 21  1  0  0  0  0
 12 44  1  0  0  0  0
 13 14  1  1  0  0  0
 13 23  1  0  0  0  0
 15 16  1  0  0  0  0
 17 18  1  1  0  0  0
 17 25  1  0  0  0  0
 19 20  1  1  0  0  0
 19 27  1  0  0  0  0
 21 22  1  6  0  0  0
 21 28  1  0  0  0  0
 23 24  1  6  0  0  0
 23 30  1  0  0  0  0
 25 26  1  1  0  0  0
 25 32  1  0  0  0  0
 27  2  1  6  0  0  0
 27 34  1  0  0  0  0
 28 29  1  0  0  0  0
 28 36  1  1  0  0  0
 30 31  1  6  0  0  0
 30 38  1  0  0  0  0
 32 33  1  0  0  0  0
 32 40  1  6  0  0  0
 34 35  1  1  0  0  0
 34 42  1  0  0  0  0
 36 37  1  0  0  0  0
 38 39  1  0  0  0  0
 38 45  1  1  0  0  0
 40 41  1  0  0  0  0
 42 43  1  6  0  0  0
 44 47  1  0  0  0  0
 45 46  1  0  0  0  0
 47 48  1  0  0  0  0
 48 49  1  0  0  0  0
 49  7  1  0  0  0  0
M  END
>  <CHROM.1>
-74.77970209,63.44320247,-134.96942212,-168.82358781,-51.63160841,-171.43799402
64.85354269,-52.07039227,64.07743751,-178.25680115,100.22947655,175.83146970
-53.28711200,-172.61818870,-62.07481282,174.13349320,43.36942976,5.33566882
-3.77381843,0.32388259,-1.04215622,2.77513284

>  <Name>
2bee_lig

>  <RI>
2.18182e+07

>  <Rbt.Current_Directory>
/home/itssahil/PROJECTS/Mol_Feturizer/New_Systems/rnas/2bee

>  <Rbt.Executable>
rbdock ($Id: //depot/dev/client3/rdock/2013.1/src/exe/rbdock.cxx#4 $)

>  <Rbt.Library>
libRbt.so (2013.1, Build901 2013/11/27)

>  <Rbt.Parameter_File>
/export/apps/rDock/src/rDock_2013.1_src/data/scripts/dock_solv.prm

>  <Rbt.Receptor>
prm/pocket_docking_3.prm

>  <SCORE>
-3.08845

>  <SCORE.INTER>
0.359975

>  <SCORE.INTER.CONST>
1

>  <SCORE.INTER.POLAR>
-0.49685

>  <SCORE.INTER.ROT>
16

>  <SCORE.INTER.SOLV>
13.3616

>  <SCORE.INTER.VDW>
-16.8244

>  <SCORE.INTER.norm>
0.00734642

>  <SCORE.INTRA>
-4.10552

>  <SCORE.INTRA.DIHEDRAL>
-15.7194

>  <SCORE.INTRA.DIHEDRAL.0>
36.0842

>  <SCORE.INTRA.POLAR>
0

>  <SCORE.INTRA.POLAR.0>
0

>  <SCORE.INTRA.REPUL>
0.000350474

>  <SCORE.INTRA.REPUL.0>
0

>  <SCORE.INTRA.SOLV>
1.69097

>  <SCORE.INTRA.SOLV.lig_0>
-126.444

>  <SCORE.INTRA.VDW>
2.90695

>  <SCORE.INTRA.VDW.0>
-7.40469

>  <SCORE.INTRA.norm>
-0.083786

>  <SCORE.RESTR>
0.657092

>  <SCORE.RESTR.CAVITY>
0.657092

>  <SCORE.RESTR.norm>
0.01341

>  <SCORE.SYSTEM>
0

>  <SCORE.SYSTEM.CONST>
0

>  <SCORE.SYSTEM.DIHEDRAL>
0

>  <SCORE.SYSTEM.SOLV>
0

>  <SCORE.SYSTEM.norm>
0

>  <SCORE.heavy>
49

>  <SCORE.norm>
-0.0630296

>  <RMSD>
7.136

$$$$
2bee_lig
 OpenBabel11021811423D
libRbt.so/2013.1/901 2013/11/27
 49 52  0  0  0  0  0  0  0  0999 V2000
   41.1464    3.3828   -7.8429 C   0  0  2  0  0  0  0  0  0  0  0  0
   42.2717    2.6158   -7.4336 O   0  0  0  0  0  0  0  0  0  0  0  0
   40.2841   -0.9755   -5.8442 C   0  0  2  0  0  0  0  0  0  0  0  0
   40.1184   -2.3240   -5.2368 N   0  0  0  0  0  0  0  0  0  0  0  0
   41.5630    2.8547   -3.4988 C   0  0  1  0  0  0  0  0  0  0  0  0
   41.4694    1.4669    1.0176 C   0  0  1  0  0  0  0  0  0  0  0  0
   38.9737    8.8728   -0.5703 C   0  0  0  0  0  0  0  0  0  0  0  0
   41.4753    4.1746   -9.1672 C   0  0  2  0  0  0  0  0  0  0  0  0
   41.9413    3.2532  -10.1980 N   0  0  0  0  0  0  0  0  0  0  0  0
   41.1988   -1.0913   -7.1472 C   0  0  0  0  0  0  0  0  0  0  0  0
   40.8137    2.8592   -2.2061 C   0  0  2  0  0  0  0  0  0  0  0  0
   40.1293    4.1370   -1.9433 O   0  0  0  0  0  0  0  0  0  0  0  0
   40.2819    0.4339    0.6254 C   0  0  2  0  0  0  0  0  0  0  0  0
   39.4922    1.0365   -0.4999 N   0  0  0  0  0  0  0  0  0  0  0  0
   38.3100    8.9206    0.6779 C   0  0  0  0  0  0  0  0  0  0  0  0
   38.4615    7.8745    1.5853 N   0  0  0  0  0  0  0  0  0  0  0  0
   42.5575    5.2980   -8.8529 C   0  0  1  0  0  0  0  0  0  0  0  0
   42.8436    6.0081  -10.0491 O   0  0  0  0  0  0  0  0  0  0  0  0
   41.4160    0.3743   -7.8374 C   0  0  2  0  0  0  0  0  0  0  0  0
   42.2234    0.2800   -9.0060 N   0  0  0  0  0  0  0  0  0  0  0  0
   41.9543    2.3758   -1.3434 C   0  0  2  0  0  0  0  0  0  0  0  0
   42.2251    1.6538   -0.2030 O   0  0  0  0  0  0  0  0  0  0  0  0
   39.3745    0.2176    1.8887 C   0  0  1  0  0  0  0  0  0  0  0  0
   40.2140   -0.3861    2.9339 O   0  0  0  0  0  0  0  0  0  0  0  0
   42.0034    6.2418   -7.7604 C   0  0  2  0  0  0  0  0  0  0  0  0
   42.9910    7.2991   -7.4248 O   0  0  0  0  0  0  0  0  0  0  0  0
   42.0916    1.3576   -6.8040 C   0  0  2  0  0  0  0  0  0  0  0  0
   43.2329    3.0867   -2.0120 C   0  0  2  0  0  0  0  0  0  0  0  0
   42.9449    2.9963   -3.3322 O   0  0  0  0  0  0  0  0  0  0  0  0
   38.7657    1.6556    2.3631 C   0  0  2  0  0  0  0  0  0  0  0  0
   37.9248    2.2546    1.3023 O   0  0  0  0  0  0  0  0  0  0  0  0
   41.6755    5.4440   -6.4543 C   0  0  2  0  0  0  0  0  0  0  0  0
   40.7200    4.4300   -6.8581 O   0  0  0  0  0  0  0  0  0  0  0  0
   41.1592    1.4326   -5.5480 C   0  0  2  0  0  0  0  0  0  0  0  0
   41.8366    2.3414   -4.7142 O   0  0  0  0  0  0  0  0  0  0  0  0
   44.6391    2.4074   -1.8200 C   0  0  0  0  0  0  0  0  0  0  0  0
   44.5925    1.0394   -2.3359 O   0  0  0  0  0  0  0  0  0  0  0  0
   39.9501    2.6672    2.6995 C   0  0  1  0  0  0  0  0  0  0  0  0
   40.8024    2.7794    1.4527 O   0  0  0  0  0  0  0  0  0  0  0  0
   41.1344    6.4135   -5.4832 C   0  0  0  0  0  0  0  0  0  0  0  0
   40.9918    5.8413   -4.2800 O   0  0  0  0  0  0  0  0  0  0  0  0
   40.9919    0.0017   -4.8794 C   0  0  1  0  0  0  0  0  0  0  0  0
   40.1528    0.0799   -3.7676 O   0  0  0  0  0  0  0  0  0  0  0  0
   38.9419    4.6264   -2.6628 C   0  0  0  0  0  0  0  0  0  0  0  0
   39.2521    4.0053    3.1183 C   0  0  0  0  0  0  0  0  0  0  0  0
   38.5238    3.8947    4.3495 N   0  0  0  0  0  0  0  0  0  0  0  0
   37.9709    5.2567   -1.6634 C   0  0  0  0  0  0  0  0  0  0  0  0
   38.6827    6.3852   -1.0326 N   0  0  0  0  0  0  0  0  0  0  0  0
   38.5067    7.7792   -1.6384 C   0  0  0  0  0  0  0  0  0  0  0  0
  1  2  1  1  0  0  0
  1  8  1  0  0  0  0
  1 33  1  0  0  0  0
  3  4  1  1  0  0  0
  3 10  1  0  0  0  0
  3 42  1  0  0  0  0
  5 11  1  0  0  0  0
  5 29  1  0  0  0  0
  5 35  1  1  0  0  0
  6 13  1  0  0  0  0
  6 39  1  0  0  0  0
  6 22  1  6  0  0  0
  7 15  1  0  0  0  0
  8  9  1  6  0  0  0
  8 17  1  0  0  0  0
 10 19  1  0  0  0  0
 11 12  1  1  0  0  0
 11 21  1  0  0  0  0
 12 44  1  0  0  0  0
 13 14  1  6  0  0  0
 13 23  1  0  0  0  0
 15 16  1  0  0  0  0
 17 18  1  6  0  0  0
 17 25  1  0  0  0  0
 19 20  1  6  0  0  0
 19 27  1  0  0  0  0
 21 22  1  1  0  0  0
 21 28  1  0  0  0  0
 23 24  1  1  0  0  0
 23 30  1  0  0  0  0
 25 26  1  1  0  0  0
 25 32  1  0  0  0  0
 27  2  1  6  0  0  0
 27 34  1  0  0  0  0
 28 29  1  0  0  0  0
 28 36  1  6  0  0  0
 30 31  1  6  0  0  0
 30 38  1  0  0  0  0
 32 33  1  0  0  0  0
 32 40  1  1  0  0  0
 34 35  1  1  0  0  0
 34 42  1  0  0  0  0
 36 37  1  0  0  0  0
 38 39  1  0  0  0  0
 38 45  1  6  0  0  0
 40 41  1  0  0  0  0
 42 43  1  1  0  0  0
 44 47  1  0  0  0  0
 45 46  1  0  0  0  0
 47 48  1  0  0  0  0
 48 49  1  0  0  0  0
 49  7  1  0  0  0  0
M  END
>  <CHROM.1>
-145.73468543,15.50901736,75.30965273,68.14115075,71.25865864,138.61491141
-30.47204521,64.58846379,57.48098301,-171.94122808,178.93255326,66.81634295
60.96207346,93.65047719,162.75214332,-59.72308937,40.85748784,3.18335388
-3.16038464,0.54199786,1.27465846,-0.57174129

>  <Name>
2bee_lig

>  <RI>
0

>  <Rbt.Current_Directory>
/home/itssahil/PROJECTS/Mol_Feturizer/New_Systems/rnas/2bee

>  <Rbt.Executable>
rbdock ($Id: //depot/dev/client3/rdock/2013.1/src/exe/rbdock.cxx#4 $)

>  <Rbt.Library>
libRbt.so (2013.1, Build901 2013/11/27)

>  <Rbt.Parameter_File>
/export/apps/rDock/src/rDock_2013.1_src/data/scripts/dock_solv.prm

>  <Rbt.Receptor>
prm/pocket_docking_7.prm

>  <SCORE>
-7.11752

>  <SCORE.INTER>
-2.95391

>  <SCORE.INTER.CONST>
1

>  <SCORE.INTER.POLAR>
0

>  <SCORE.INTER.ROT>
16

>  <SCORE.INTER.SOLV>
9.85068

>  <SCORE.INTER.VDW>
-19.5195

>  <SCORE.INTER.norm>
-0.0602839

>  <SCORE.INTRA>
-4.16361

>  <SCORE.INTRA.DIHEDRAL>
-13.2561

>  <SCORE.INTRA.DIHEDRAL.0>
36.0842

>  <SCORE.INTRA.POLAR>
0

>  <SCORE.INTRA.POLAR.0>
0

>  <SCORE.INTRA.REPUL>
0.0173987

>  <SCORE.INTRA.REPUL.0>
0

>  <SCORE.INTRA.SOLV>
5.72106

>  <SCORE.INTRA.SOLV.lig_0>
-126.444

>  <SCORE.INTRA.VDW>
-0.483082

>  <SCORE.INTRA.VDW.0>
-7.40469

>  <SCORE.INTRA.norm>
-0.0849716

>  <SCORE.RESTR>
0

>  <SCORE.RESTR.CAVITY>
0

>  <SCORE.RESTR.norm>
0

>  <SCORE.SYSTEM>
0

>  <SCORE.SYSTEM.CONST>
0

>  <SCORE.SYSTEM.DIHEDRAL>
0

>  <SCORE.SYSTEM.SOLV>
0

>  <SCORE.SYSTEM.norm>
0

>  <SCORE.heavy>
49

>  <SCORE.norm>
-0.145256

>  <RMSD>
7.142

$$$$
2bee_lig
 OpenBabel11021811423D
libRbt.so/2013.1/901 2013/11/27
 49 52  0  0  0  0  0  0  0  0999 V2000
   47.3923    5.0258   -7.7802 C   0  0  2  0  0  0  0  0  0  0  0  0
   46.4043    5.8153   -7.1302 O   0  0  0  0  0  0  0  0  0  0  0  0
   42.0541    6.0819   -7.7460 C   0  0  2  0  0  0  0  0  0  0  0  0
   40.6325    5.6553   -7.8550 N   0  0  0  0  0  0  0  0  0  0  0  0
   44.1669    5.6839   -3.7842 C   0  0  1  0  0  0  0  0  0  0  0  0
   41.6345    2.0032   -3.8559 C   0  0  1  0  0  0  0  0  0  0  0  0
   41.9536    6.0834    1.9016 C   0  0  0  0  0  0  0  0  0  0  0  0
   47.4893    3.6036   -7.1042 C   0  0  2  0  0  0  0  0  0  0  0  0
   46.1759    2.9686   -7.0848 N   0  0  0  0  0  0  0  0  0  0  0  0
   42.9428    5.2228   -8.7560 C   0  0  0  0  0  0  0  0  0  0  0  0
   43.0096    5.4713   -2.8633 C   0  0  2  0  0  0  0  0  0  0  0  0
   43.1459    6.2020   -1.5914 O   0  0  0  0  0  0  0  0  0  0  0  0
   40.4242    1.2093   -3.1238 C   0  0  2  0  0  0  0  0  0  0  0  0
   40.9933    0.4772   -1.9434 N   0  0  0  0  0  0  0  0  0  0  0  0
   40.9999    5.0512    2.0628 C   0  0  0  0  0  0  0  0  0  0  0  0
   40.4041    4.4754    0.9429 N   0  0  0  0  0  0  0  0  0  0  0  0
   48.0870    3.7584   -5.6377 C   0  0  1  0  0  0  0  0  0  0  0  0
   48.1748    2.4734   -5.0392 O   0  0  0  0  0  0  0  0  0  0  0  0
   44.5164    5.6531   -8.6565 C   0  0  2  0  0  0  0  0  0  0  0  0
   45.3162    4.8984   -9.5604 N   0  0  0  0  0  0  0  0  0  0  0  0
   43.0192    3.9627   -2.9188 C   0  0  2  0  0  0  0  0  0  0  0  0
   42.1912    2.8662   -2.8354 O   0  0  0  0  0  0  0  0  0  0  0  0
   39.7962    0.2030   -4.1529 C   0  0  1  0  0  0  0  0  0  0  0  0
   39.2510    0.9955   -5.2648 O   0  0  0  0  0  0  0  0  0  0  0  0
   49.4767    4.4308   -5.7268 C   0  0  2  0  0  0  0  0  0  0  0  0
   50.0653    4.6089   -4.3748 O   0  0  0  0  0  0  0  0  0  0  0  0
   45.0375    5.4395   -7.1821 C   0  0  2  0  0  0  0  0  0  0  0  0
   44.5884    3.6192   -3.0015 C   0  0  2  0  0  0  0  0  0  0  0  0
   45.0459    4.5960   -3.8203 O   0  0  0  0  0  0  0  0  0  0  0  0
   40.9507   -0.8320   -4.6623 C   0  0  2  0  0  0  0  0  0  0  0  0
   41.4937   -1.6221   -3.5344 O   0  0  0  0  0  0  0  0  0  0  0  0
   49.3683    5.8376   -6.4042 C   0  0  2  0  0  0  0  0  0  0  0  0
   48.7804    5.5880   -7.7067 O   0  0  0  0  0  0  0  0  0  0  0  0
   44.1331    6.2982   -6.2349 C   0  0  2  0  0  0  0  0  0  0  0  0
   44.6938    6.0544   -4.9676 O   0  0  0  0  0  0  0  0  0  0  0  0
   45.0112    2.2555   -3.6629 C   0  0  0  0  0  0  0  0  0  0  0  0
   44.5368    2.2184   -5.0460 O   0  0  0  0  0  0  0  0  0  0  0  0
   42.1487   -0.0265   -5.3370 C   0  0  1  0  0  0  0  0  0  0  0  0
   42.6612    0.9523   -4.3012 O   0  0  0  0  0  0  0  0  0  0  0  0
   50.7344    6.3902   -6.4679 C   0  0  0  0  0  0  0  0  0  0  0  0
   51.5058    5.6412   -7.2674 O   0  0  0  0  0  0  0  0  0  0  0  0
   42.6160    5.8375   -6.3278 C   0  0  1  0  0  0  0  0  0  0  0  0
   41.8195    6.6150   -5.4868 O   0  0  0  0  0  0  0  0  0  0  0  0
   43.5235    7.6191   -1.4640 C   0  0  0  0  0  0  0  0  0  0  0  0
   43.1952   -1.1111   -5.7633 C   0  0  0  0  0  0  0  0  0  0  0  0
   42.6940   -2.0091   -6.7638 N   0  0  0  0  0  0  0  0  0  0  0  0
   43.3524    8.0580   -0.0090 C   0  0  0  0  0  0  0  0  0  0  0  0
   44.0460    7.0549    0.8222 N   0  0  0  0  0  0  0  0  0  0  0  0
   43.3157    5.7473    1.1357 C   0  0  0  0  0  0  0  0  0  0  0  0
  1  2  1  1  0  0  0
  1  8  1  0  0  0  0
  1 33  1  0  0  0  0
  3  4  1  1  0  0  0
  3 10  1  0  0  0  0
  3 42  1  0  0  0  0
  5 11  1  0  0  0  0
  5 29  1  0  0  0  0
  5 35  1  6  0  0  0
  6 13  1  0  0  0  0
  6 39  1  0  0  0  0
  6 22  1  1  0  0  0
  7 15  1  0  0  0  0
  8  9  1  1  0  0  0
  8 17  1  0  0  0  0
 10 19  1  0  0  0  0
 11 12  1  1  0  0  0
 11 21  1  0  0  0  0
 12 44  1  0  0  0  0
 13 14  1  1  0  0  0
 13 23  1  0  0  0  0
 15 16  1  0  0  0  0
 17 18  1  6  0  0  0
 17 25  1  0  0  0  0
 19 20  1  6  0  0  0
 19 27  1  0  0  0  0
 21 22  1  1  0  0  0
 21 28  1  0  0  0  0
 23 24  1  6  0  0  0
 23 30  1  0  0  0  0
 25 26  1  1  0  0  0
 25 32  1  0  0  0  0
 27  2  1  6  0  0  0
 27 34  1  0  0  0  0
 28 29  1  0  0  0  0
 28 36  1  6  0  0  0
 30 31  1  1  0  0  0
 30 38  1  0  0  0  0
 32 33  1  0  0  0  0
 32 40  1  6  0  0  0
 34 35  1  1  0  0  0
 34 42  1  0  0  0  0
 36 37  1  0  0  0  0
 38 39  1  0  0  0  0
 38 45  1  1  0  0  0
 40 41  1  0  0  0  0
 42 43  1  1  0  0  0
 44 47  1  0  0  0  0
 45 46  1  0  0  0  0
 47 48  1  0  0  0  0
 48 49  1  0  0  0  0
 49  7  1  0  0  0  0
M  END
>  <CHROM.1>
-65.17815026,-14.09662038,-163.64272583,-63.11866837,47.67923540,171.56631944
101.95551195,-69.80834018,59.87298872,64.50031872,-129.81012483,64.06360430
50.08299297,-80.94377841,-59.19603676,168.11692340,44.21447439,3.97749725
-4.54768454,0.25399093,-0.63448494,-2.26181724

>  <Name>
2bee_lig

>  <RI>
3.71943e+07

>  <Rbt.Current_Directory>
/home/itssahil/PROJECTS/Mol_Feturizer/New_Systems/rnas/2bee

>  <Rbt.Executable>
rbdock ($Id: //depot/dev/client3/rdock/2013.1/src/exe/rbdock.cxx#4 $)

>  <Rbt.Library>
libRbt.so (2013.1, Build901 2013/11/27)

>  <Rbt.Parameter_File>
/export/apps/rDock/src/rDock_2013.1_src/data/scripts/dock_solv.prm

>  <Rbt.Receptor>
prm/pocket_docking_2.prm

>  <SCORE>
8.30681

>  <SCORE.INTER>
2.36125

>  <SCORE.INTER.CONST>
1

>  <SCORE.INTER.POLAR>
0

>  <SCORE.INTER.ROT>
16

>  <SCORE.INTER.SOLV>
12.172

>  <SCORE.INTER.VDW>
-16.7498

>  <SCORE.INTER.norm>
0.0481889

>  <SCORE.INTRA>
-1.24762

>  <SCORE.INTRA.DIHEDRAL>
-16.1925

>  <SCORE.INTRA.DIHEDRAL.0>
36.0842

>  <SCORE.INTRA.POLAR>
0

>  <SCORE.INTRA.POLAR.0>
0

>  <SCORE.INTRA.REPUL>
0.00548502

>  <SCORE.INTRA.REPUL.0>
0

>  <SCORE.INTRA.SOLV>
5.39083

>  <SCORE.INTRA.SOLV.lig_0>
-126.444

>  <SCORE.INTRA.VDW>
4.12578

>  <SCORE.INTRA.VDW.0>
-7.40469

>  <SCORE.INTRA.norm>
-0.0254616

>  <SCORE.RESTR>
7.19318

>  <SCORE.RESTR.CAVITY>
7.19318

>  <SCORE.RESTR.norm>
0.1468

>  <SCORE.SYSTEM>
0

>  <SCORE.SYSTEM.CONST>
0

>  <SCORE.SYSTEM.DIHEDRAL>
0

>  <SCORE.SYSTEM.SOLV>
0

>  <SCORE.SYSTEM.norm>
0

>  <SCORE.heavy>
49

>  <SCORE.norm>
0.169527

>  <RMSD>
7.169

$$$$
2bee_lig
 OpenBabel11021811423D
libRbt.so/2013.1/901 2013/11/27
 49 52  0  0  0  0  0  0  0  0999 V2000
   45.5015    3.8417   -7.8225 C   0  0  2  0  0  0  0  0  0  0  0  0
   45.0499    3.3266   -6.5763 O   0  0  0  0  0  0  0  0  0  0  0  0
   40.8961    2.2540   -7.5608 C   0  0  2  0  0  0  0  0  0  0  0  0
   39.5595    1.6085   -7.4524 N   0  0  0  0  0  0  0  0  0  0  0  0
   42.7422    4.5245   -4.0558 C   0  0  1  0  0  0  0  0  0  0  0  0
   40.9227    0.8866   -2.0413 C   0  0  1  0  0  0  0  0  0  0  0  0
   41.6286    9.1280   -2.9998 C   0  0  0  0  0  0  0  0  0  0  0  0
   46.9297    4.4924   -7.6613 C   0  0  2  0  0  0  0  0  0  0  0  0
   47.8550    3.5286   -7.0751 N   0  0  0  0  0  0  0  0  0  0  0  0
   42.0272    1.1279   -7.5787 C   0  0  0  0  0  0  0  0  0  0  0  0
   41.8782    4.2371   -2.8711 C   0  0  2  0  0  0  0  0  0  0  0  0
   41.8714    5.3325   -1.8860 O   0  0  0  0  0  0  0  0  0  0  0  0
   41.4001   -0.6634   -2.0162 C   0  0  2  0  0  0  0  0  0  0  0  0
   42.2999   -0.8934   -3.1954 N   0  0  0  0  0  0  0  0  0  0  0  0
   42.7770    9.1908   -2.1764 C   0  0  0  0  0  0  0  0  0  0  0  0
   42.6511    9.0439   -0.7969 N   0  0  0  0  0  0  0  0  0  0  0  0
   46.8112    5.8065   -6.7719 C   0  0  1  0  0  0  0  0  0  0  0  0
   48.1001    6.3874   -6.6363 O   0  0  0  0  0  0  0  0  0  0  0  0
   43.5140    1.7987   -7.6836 C   0  0  2  0  0  0  0  0  0  0  0  0
   44.5295    0.8015   -7.7094 N   0  0  0  0  0  0  0  0  0  0  0  0
   42.4668    2.8842   -2.5519 C   0  0  2  0  0  0  0  0  0  0  0  0
   42.1469    1.6589   -2.0121 O   0  0  0  0  0  0  0  0  0  0  0  0
   40.1258   -1.5770   -2.1019 C   0  0  1  0  0  0  0  0  0  0  0  0
   39.3091   -1.3040   -0.9102 O   0  0  0  0  0  0  0  0  0  0  0  0
   45.8236    6.7863   -7.4471 C   0  0  2  0  0  0  0  0  0  0  0  0
   45.6713    8.0234   -6.6396 O   0  0  0  0  0  0  0  0  0  0  0  0
   43.7520    2.7664   -6.4597 C   0  0  2  0  0  0  0  0  0  0  0  0
   44.0240    3.0809   -2.9043 C   0  0  2  0  0  0  0  0  0  0  0  0
   43.9638    3.8434   -4.0219 O   0  0  0  0  0  0  0  0  0  0  0  0
   39.3148   -1.2371   -3.4768 C   0  0  2  0  0  0  0  0  0  0  0  0
   40.1476   -1.5134   -4.6690 O   0  0  0  0  0  0  0  0  0  0  0  0
   44.4128    6.1275   -7.6068 C   0  0  2  0  0  0  0  0  0  0  0  0
   44.6397    4.9288   -8.3916 O   0  0  0  0  0  0  0  0  0  0  0  0
   42.6178    3.8459   -6.4866 C   0  0  2  0  0  0  0  0  0  0  0  0
   42.9374    4.6574   -5.3824 O   0  0  0  0  0  0  0  0  0  0  0  0
   44.8610    1.8043   -3.2860 C   0  0  0  0  0  0  0  0  0  0  0  0
   44.8657    0.8715   -2.1593 O   0  0  0  0  0  0  0  0  0  0  0  0
   38.8958    0.3001   -3.4992 C   0  0  1  0  0  0  0  0  0  0  0  0
   40.1699    1.1071   -3.3609 O   0  0  0  0  0  0  0  0  0  0  0  0
   43.5494    7.1183   -8.2765 C   0  0  0  0  0  0  0  0  0  0  0  0
   42.2989    6.6503   -8.3885 O   0  0  0  0  0  0  0  0  0  0  0  0
   41.1873    3.1694   -6.3507 C   0  0  1  0  0  0  0  0  0  0  0  0
   40.1855    4.1397   -6.3848 O   0  0  0  0  0  0  0  0  0  0  0  0
   40.9069    5.4749   -0.7831 C   0  0  0  0  0  0  0  0  0  0  0  0
   38.1507    0.5115   -4.8605 C   0  0  0  0  0  0  0  0  0  0  0  0
   36.8833   -0.1587   -4.9144 N   0  0  0  0  0  0  0  0  0  0  0  0
   39.6709    6.2215   -1.2871 C   0  0  0  0  0  0  0  0  0  0  0  0
   40.1161    7.5787   -1.6585 N   0  0  0  0  0  0  0  0  0  0  0  0
   40.7823    7.7722   -3.0223 C   0  0  0  0  0  0  0  0  0  0  0  0
  1  2  1  1  0  0  0
  1  8  1  0  0  0  0
  1 33  1  0  0  0  0
  3  4  1  1  0  0  0
  3 10  1  0  0  0  0
  3 42  1  0  0  0  0
  5 11  1  0  0  0  0
  5 29  1  0  0  0  0
  5 35  1  6  0  0  0
  6 13  1  0  0  0  0
  6 39  1  0  0  0  0
  6 22  1  6  0  0  0
  7 15  1  0  0  0  0
  8  9  1  1  0  0  0
  8 17  1  0  0  0  0
 10 19  1  0  0  0  0
 11 12  1  1  0  0  0
 11 21  1  0  0  0  0
 12 44  1  0  0  0  0
 13 14  1  6  0  0  0
 13 23  1  0  0  0  0
 15 16  1  0  0  0  0
 17 18  1  6  0  0  0
 17 25  1  0  0  0  0
 19 20  1  1  0  0  0
 19 27  1  0  0  0  0
 21 22  1  1  0  0  0
 21 28  1  0  0  0  0
 23 24  1  1  0  0  0
 23 30  1  0  0  0  0
 25 26  1  1  0  0  0
 25 32  1  0  0  0  0
 27  2  1  6  0  0  0
 27 34  1  0  0  0  0
 28 29  1  0  0  0  0
 28 36  1  6  0  0  0
 30 31  1  6  0  0  0
 30 38  1  0  0  0  0
 32 33  1  0  0  0  0
 32 40  1  6  0  0  0
 34 35  1  1  0  0  0
 34 42  1  0  0  0  0
 36 37  1  0  0  0  0
 38 39  1  0  0  0  0
 38 45  1  6  0  0  0
 40 41  1  0  0  0  0
 42 43  1  6  0  0  0
 44 47  1  0  0  0  0
 45 46  1  0  0  0  0
 47 48  1  0  0  0  0
 48 49  1  0  0  0  0
 49  7  1  0  0  0  0
M  END
>  <CHROM.1>
176.12776976,-49.31715669,148.40952900,-61.79407599,165.78668881,-86.76606453
34.07105951,45.90073103,-61.35537888,-176.86771223,-79.50164231,68.71714998
-64.28038252,80.97287353,-159.85366714,67.79334679,42.51634411,3.51247931
-4.72437029,-0.53174320,-0.83372563,-2.72089438

>  <Name>
2bee_lig

>  <RI>
3.46266e+07

>  <Rbt.Current_Directory>
/home/itssahil/PROJECTS/Mol_Feturizer/New_Systems/rnas/2bee

>  <Rbt.Executable>
rbdock ($Id: //depot/dev/client3/rdock/2013.1/src/exe/rbdock.cxx#4 $)

>  <Rbt.Library>
libRbt.so (2013.1, Build901 2013/11/27)

>  <Rbt.Parameter_File>
/export/apps/rDock/src/rDock_2013.1_src/data/scripts/dock_solv.prm

>  <Rbt.Receptor>
prm/pocket_docking_4.prm

>  <SCORE>
-5.47986

>  <SCORE.INTER>
1.91688

>  <SCORE.INTER.CONST>
1

>  <SCORE.INTER.POLAR>
-0.926531

>  <SCORE.INTER.ROT>
16

>  <SCORE.INTER.SOLV>
6.13191

>  <SCORE.INTER.VDW>
-11.9443

>  <SCORE.INTER.norm>
0.0391201

>  <SCORE.INTRA>
-7.52211

>  <SCORE.INTRA.DIHEDRAL>
-18.8415

>  <SCORE.INTRA.DIHEDRAL.0>
36.0842

>  <SCORE.INTRA.POLAR>
0

>  <SCORE.INTRA.POLAR.0>
0

>  <SCORE.INTRA.REPUL>
0

>  <SCORE.INTRA.REPUL.0>
0

>  <SCORE.INTRA.SOLV>
4.36217

>  <SCORE.INTRA.SOLV.lig_0>
-126.444

>  <SCORE.INTRA.VDW>
-0.28246

>  <SCORE.INTRA.VDW.0>
-7.40469

>  <SCORE.INTRA.norm>
-0.153512

>  <SCORE.RESTR>
0.125367

>  <SCORE.RESTR.CAVITY>
0.125367

>  <SCORE.RESTR.norm>
0.00255852

>  <SCORE.SYSTEM>
0

>  <SCORE.SYSTEM.CONST>
0

>  <SCORE.SYSTEM.DIHEDRAL>
0

>  <SCORE.SYSTEM.SOLV>
0

>  <SCORE.SYSTEM.norm>
0

>  <SCORE.heavy>
49

>  <SCORE.norm>
-0.111834

>  <RMSD>
7.184

$$$$
2bee_lig
 OpenBabel11021811423D
libRbt.so/2013.1/901 2013/11/27
 49 52  0  0  0  0  0  0  0  0999 V2000
   48.7376    0.3351   -5.5435 C   0  0  2  0  0  0  0  0  0  0  0  0
   47.9616   -0.2234   -4.4908 O   0  0  0  0  0  0  0  0  0  0  0  0
   44.1612   -0.9730   -6.5810 C   0  0  2  0  0  0  0  0  0  0  0  0
   42.7924   -1.4962   -6.8411 N   0  0  0  0  0  0  0  0  0  0  0  0
   45.2254    2.5429   -3.6602 C   0  0  1  0  0  0  0  0  0  0  0  0
   41.1535    4.3082   -1.8428 C   0  0  1  0  0  0  0  0  0  0  0  0
   44.0696    8.2286   -8.2170 C   0  0  0  0  0  0  0  0  0  0  0  0
   50.1732    0.7254   -5.0185 C   0  0  2  0  0  0  0  0  0  0  0  0
   50.8087   -0.4302   -4.3946 N   0  0  0  0  0  0  0  0  0  0  0  0
   45.1422   -2.1921   -6.2660 C   0  0  0  0  0  0  0  0  0  0  0  0
   44.3919    3.7389   -3.9882 C   0  0  2  0  0  0  0  0  0  0  0  0
   45.1487    5.0012   -3.9248 O   0  0  0  0  0  0  0  0  0  0  0  0
   39.6182    4.2687   -2.3648 C   0  0  2  0  0  0  0  0  0  0  0  0
   39.5718    4.9002   -3.7257 N   0  0  0  0  0  0  0  0  0  0  0  0
   43.6540    8.5770   -9.5234 C   0  0  0  0  0  0  0  0  0  0  0  0
   44.5225    8.4011  -10.5983 N   0  0  0  0  0  0  0  0  0  0  0  0
   50.0481    1.9444   -4.0033 C   0  0  1  0  0  0  0  0  0  0  0  0
   51.3449    2.2915   -3.5399 O   0  0  0  0  0  0  0  0  0  0  0  0
   46.6560   -1.6565   -5.9610 C   0  0  2  0  0  0  0  0  0  0  0  0
   47.5408   -2.7376   -5.6877 N   0  0  0  0  0  0  0  0  0  0  0  0
   43.2686    3.4359   -3.0264 C   0  0  2  0  0  0  0  0  0  0  0  0
   41.9130    3.5995   -2.8512 O   0  0  0  0  0  0  0  0  0  0  0  0
   38.7276    5.0693   -1.3490 C   0  0  1  0  0  0  0  0  0  0  0  0
   38.8146    4.3819   -0.0523 O   0  0  0  0  0  0  0  0  0  0  0  0
   49.3737    3.1348   -4.7239 C   0  0  2  0  0  0  0  0  0  0  0  0
   49.2229    4.2920   -3.8051 O   0  0  0  0  0  0  0  0  0  0  0  0
   46.6356   -0.6647   -4.7334 C   0  0  2  0  0  0  0  0  0  0  0  0
   44.0399    2.7975   -1.7674 C   0  0  2  0  0  0  0  0  0  0  0  0
   44.9911    2.0475   -2.3729 O   0  0  0  0  0  0  0  0  0  0  0  0
   39.2732    6.6044   -1.2529 C   0  0  2  0  0  0  0  0  0  0  0  0
   39.1831    7.2853   -2.5643 O   0  0  0  0  0  0  0  0  0  0  0  0
   47.9534    2.7336   -5.2451 C   0  0  2  0  0  0  0  0  0  0  0  0
   48.1766    1.5997   -6.1219 O   0  0  0  0  0  0  0  0  0  0  0  0
   45.6596    0.5064   -5.0916 C   0  0  2  0  0  0  0  0  0  0  0  0
   45.7356    1.3309   -3.9538 O   0  0  0  0  0  0  0  0  0  0  0  0
   43.2389    1.8205   -0.8294 C   0  0  0  0  0  0  0  0  0  0  0  0
   44.1090    1.3648    0.2543 O   0  0  0  0  0  0  0  0  0  0  0  0
   40.7955    6.6157   -0.7821 C   0  0  1  0  0  0  0  0  0  0  0  0
   41.5727    5.7837   -1.7808 O   0  0  0  0  0  0  0  0  0  0  0  0
   47.3994    3.9142   -5.9343 C   0  0  0  0  0  0  0  0  0  0  0  0
   48.1721    4.2547   -6.9746 O   0  0  0  0  0  0  0  0  0  0  0  0
   44.1905   -0.0385   -5.3510 C   0  0  1  0  0  0  0  0  0  0  0  0
   43.3329    1.0123   -5.6775 O   0  0  0  0  0  0  0  0  0  0  0  0
   44.5616    6.3476   -4.0224 C   0  0  0  0  0  0  0  0  0  0  0  0
   41.2122    8.1251   -0.7471 C   0  0  0  0  0  0  0  0  0  0  0  0
   41.4820    8.6612   -2.0503 N   0  0  0  0  0  0  0  0  0  0  0  0
   43.7557    6.4537   -5.3179 C   0  0  0  0  0  0  0  0  0  0  0  0
   44.7327    6.5501   -6.4198 N   0  0  0  0  0  0  0  0  0  0  0  0
   44.1996    6.6787   -7.8483 C   0  0  0  0  0  0  0  0  0  0  0  0
  1  2  1  1  0  0  0
  1  8  1  0  0  0  0
  1 33  1  0  0  0  0
  3  4  1  1  0  0  0
  3 10  1  0  0  0  0
  3 42  1  0  0  0  0
  5 11  1  0  0  0  0
  5 29  1  0  0  0  0
  5 35  1  6  0  0  0
  6 13  1  0  0  0  0
  6 39  1  0  0  0  0
  6 22  1  6  0  0  0
  7 15  1  0  0  0  0
  8  9  1  1  0  0  0
  8 17  1  0  0  0  0
 10 19  1  0  0  0  0
 11 12  1  1  0  0  0
 11 21  1  0  0  0  0
 12 44  1  0  0  0  0
 13 14  1  6  0  0  0
 13 23  1  0  0  0  0
 15 16  1  0  0  0  0
 17 18  1  6  0  0  0
 17 25  1  0  0  0  0
 19 20  1  1  0  0  0
 19 27  1  0  0  0  0
 21 22  1  1  0  0  0
 21 28  1  0  0  0  0
 23 24  1  1  0  0  0
 23 30  1  0  0  0  0
 25 26  1  1  0  0  0
 25 32  1  0  0  0  0
 27  2  1  6  0  0  0
 27 34  1  0  0  0  0
 28 29  1  0  0  0  0
 28 36  1  6  0  0  0
 30 31  1  6  0  0  0
 30 38  1  0  0  0  0
 32 33  1  0  0  0  0
 32 40  1  6  0  0  0
 34 35  1  1  0  0  0
 34 42  1  0  0  0  0
 36 37  1  0  0  0  0
 38 39  1  0  0  0  0
 38 45  1  6  0  0  0
 40 41  1  0  0  0  0
 42 43  1  6  0  0  0
 44 47  1  0  0  0  0
 45 46  1  0  0  0  0
 47 48  1  0  0  0  0
 48 49  1  0  0  0  0
 49  7  1  0  0  0  0
M  END
>  <CHROM.1>
-179.24168339,3.46307835,171.99946489,-72.26635433,-171.52369232,-55.45302410
-117.49918550,52.68984681,-179.39987115,61.20409983,174.03025779,-77.61188123
-73.95291014,-179.56297493,91.93870748,176.94479908,44.67251364,3.30979150
-4.23529754,-0.39137238,0.59981185,-0.50061158

>  <Name>
2bee_lig

>  <RI>
0

>  <Rbt.Current_Directory>
/home/itssahil/PROJECTS/Mol_Feturizer/New_Systems/rnas/2bee

>  <Rbt.Executable>
rbdock ($Id: //depot/dev/client3/rdock/2013.1/src/exe/rbdock.cxx#4 $)

>  <Rbt.Library>
libRbt.so (2013.1, Build901 2013/11/27)

>  <Rbt.Parameter_File>
/export/apps/rDock/src/rDock_2013.1_src/data/scripts/dock_solv.prm

>  <Rbt.Receptor>
prm/pocket_docking_7.prm

>  <SCORE>
-14.218

>  <SCORE.INTER>
-2.97196

>  <SCORE.INTER.CONST>
1

>  <SCORE.INTER.POLAR>
-0.916515

>  <SCORE.INTER.ROT>
16

>  <SCORE.INTER.SOLV>
19.6084

>  <SCORE.INTER.VDW>
-19.7291

>  <SCORE.INTER.norm>
-0.0606522

>  <SCORE.INTRA>
-11.2461

>  <SCORE.INTRA.DIHEDRAL>
-22.7782

>  <SCORE.INTRA.DIHEDRAL.0>
36.0842

>  <SCORE.INTRA.POLAR>
0

>  <SCORE.INTRA.POLAR.0>
0

>  <SCORE.INTRA.REPUL>
0.00626481

>  <SCORE.INTRA.REPUL.0>
0

>  <SCORE.INTRA.SOLV>
-0.277686

>  <SCORE.INTRA.SOLV.lig_0>
-126.444

>  <SCORE.INTRA.VDW>
0.250557

>  <SCORE.INTRA.VDW.0>
-7.40469

>  <SCORE.INTRA.norm>
-0.229512

>  <SCORE.RESTR>
0

>  <SCORE.RESTR.CAVITY>
0

>  <SCORE.RESTR.norm>
0

>  <SCORE.SYSTEM>
0

>  <SCORE.SYSTEM.CONST>
0

>  <SCORE.SYSTEM.DIHEDRAL>
0

>  <SCORE.SYSTEM.SOLV>
0

>  <SCORE.SYSTEM.norm>
0

>  <SCORE.heavy>
49

>  <SCORE.norm>
-0.290164

>  <RMSD>
7.201

$$$$
2bee_lig
 OpenBabel11021811423D
libRbt.so/2013.1/901 2013/11/27
 49 52  0  0  0  0  0  0  0  0999 V2000
   43.5979   12.4745  -12.0144 C   0  0  2  0  0  0  0  0  0  0  0  0
   44.0224   11.2855  -11.3599 O   0  0  0  0  0  0  0  0  0  0  0  0
   48.0356   11.5168   -9.5671 C   0  0  2  0  0  0  0  0  0  0  0  0
   49.0936   11.6280   -8.5263 N   0  0  0  0  0  0  0  0  0  0  0  0
   45.2536    7.9780   -9.4804 C   0  0  1  0  0  0  0  0  0  0  0  0
   45.3298    7.4642   -4.7252 C   0  0  1  0  0  0  0  0  0  0  0  0
   50.3542    5.5831   -7.2457 C   0  0  0  0  0  0  0  0  0  0  0  0
   42.3205   12.1890  -12.8952 C   0  0  2  0  0  0  0  0  0  0  0  0
   41.2741   11.5850  -12.0775 N   0  0  0  0  0  0  0  0  0  0  0  0
   47.0464   12.7641   -9.4507 C   0  0  0  0  0  0  0  0  0  0  0  0
   45.9702    7.0037   -8.6031 C   0  0  2  0  0  0  0  0  0  0  0  0
   45.6738    5.6007   -8.9409 O   0  0  0  0  0  0  0  0  0  0  0  0
   45.6592    5.8956   -4.4760 C   0  0  2  0  0  0  0  0  0  0  0  0
   45.1303    5.1166   -5.6450 N   0  0  0  0  0  0  0  0  0  0  0  0
   51.2596    6.0555   -6.2671 C   0  0  0  0  0  0  0  0  0  0  0  0
   52.1669    7.0625   -6.5890 N   0  0  0  0  0  0  0  0  0  0  0  0
   42.7232   11.2524  -14.1170 C   0  0  1  0  0  0  0  0  0  0  0  0
   41.5688   11.0049  -14.9063 O   0  0  0  0  0  0  0  0  0  0  0  0
   45.8597   12.6717  -10.5709 C   0  0  2  0  0  0  0  0  0  0  0  0
   44.9771   13.7849  -10.4810 N   0  0  0  0  0  0  0  0  0  0  0  0
   45.5470    7.6114   -7.2877 C   0  0  2  0  0  0  0  0  0  0  0  0
   45.9622    7.7865   -5.9869 O   0  0  0  0  0  0  0  0  0  0  0  0
   44.9579    5.4463   -3.1446 C   0  0  1  0  0  0  0  0  0  0  0  0
   45.5389    6.2411   -2.0527 O   0  0  0  0  0  0  0  0  0  0  0  0
   43.8286   11.9487  -14.9445 C   0  0  2  0  0  0  0  0  0  0  0  0
   44.2460   11.0993  -16.0892 O   0  0  0  0  0  0  0  0  0  0  0  0
   45.0460   11.3330  -10.3791 C   0  0  2  0  0  0  0  0  0  0  0  0
   44.0452    8.1028   -7.5890 C   0  0  2  0  0  0  0  0  0  0  0  0
   44.1534    8.5736   -8.8542 O   0  0  0  0  0  0  0  0  0  0  0  0
   43.3499    5.6925   -3.2771 C   0  0  2  0  0  0  0  0  0  0  0  0
   42.7769    4.8894   -4.3808 O   0  0  0  0  0  0  0  0  0  0  0  0
   45.0875   12.2318  -14.0587 C   0  0  2  0  0  0  0  0  0  0  0  0
   44.6051   13.0517  -12.9635 O   0  0  0  0  0  0  0  0  0  0  0  0
   46.0599   10.1454  -10.4986 C   0  0  2  0  0  0  0  0  0  0  0  0
   45.2346    9.0172  -10.3379 O   0  0  0  0  0  0  0  0  0  0  0  0
   43.4688    9.2855   -6.7261 C   0  0  0  0  0  0  0  0  0  0  0  0
   44.3794   10.4280   -6.7975 O   0  0  0  0  0  0  0  0  0  0  0  0
   43.0538    7.2313   -3.5662 C   0  0  1  0  0  0  0  0  0  0  0  0
   43.8039    7.5953   -4.8305 O   0  0  0  0  0  0  0  0  0  0  0  0
   46.0732   12.9137  -14.9184 C   0  0  0  0  0  0  0  0  0  0  0  0
   47.2264   13.0907  -14.2596 O   0  0  0  0  0  0  0  0  0  0  0  0
   47.1822   10.2428   -9.3791 C   0  0  1  0  0  0  0  0  0  0  0  0
   48.0837    9.1851   -9.5014 O   0  0  0  0  0  0  0  0  0  0  0  0
   46.4966    4.4433   -8.5534 C   0  0  0  0  0  0  0  0  0  0  0  0
   41.4967    7.3416   -3.6935 C   0  0  0  0  0  0  0  0  0  0  0  0
   41.0714    8.5632   -4.3143 N   0  0  0  0  0  0  0  0  0  0  0  0
   47.9463    4.6919   -8.9725 C   0  0  0  0  0  0  0  0  0  0  0  0
   48.7853    3.7945   -8.1548 N   0  0  0  0  0  0  0  0  0  0  0  0
   49.4033    4.3540   -6.8717 C   0  0  0  0  0  0  0  0  0  0  0  0
  1  2  1  6  0  0  0
  1  8  1  0  0  0  0
  1 33  1  0  0  0  0
  3  4  1  1  0  0  0
  3 10  1  0  0  0  0
  3 42  1  0  0  0  0
  5 11  1  0  0  0  0
  5 29  1  0  0  0  0
  5 35  1  1  0  0  0
  6 13  1  0  0  0  0
  6 39  1  0  0  0  0
  6 22  1  6  0  0  0
  7 15  1  0  0  0  0
  8  9  1  1  0  0  0
  8 17  1  0  0  0  0
 10 19  1  0  0  0  0
 11 12  1  1  0  0  0
 11 21  1  0  0  0  0
 12 44  1  0  0  0  0
 13 14  1  6  0  0  0
 13 23  1  0  0  0  0
 15 16  1  0  0  0  0
 17 18  1  6  0  0  0
 17 25  1  0  0  0  0
 19 20  1  1  0  0  0
 19 27  1  0  0  0  0
 21 22  1  1  0  0  0
 21 28  1  0  0  0  0
 23 24  1  1  0  0  0
 23 30  1  0  0  0  0
 25 26  1  6  0  0  0
 25 32  1  0  0  0  0
 27  2  1  6  0  0  0
 27 34  1  0  0  0  0
 28 29  1  0  0  0  0
 28 36  1  1  0  0  0
 30 31  1  6  0  0  0
 30 38  1  0  0  0  0
 32 33  1  0  0  0  0
 32 40  1  6  0  0  0
 34 35  1  1  0  0  0
 34 42  1  0  0  0  0
 36 37  1  0  0  0  0
 38 39  1  0  0  0  0
 38 45  1  6  0  0  0
 40 41  1  0  0  0  0
 42 43  1  6  0  0  0
 44 47  1  0  0  0  0
 45 46  1  0  0  0  0
 47 48  1  0  0  0  0
 48 49  1  0  0  0  0
 49  7  1  0  0  0  0
M  END
>  <CHROM.1>
-171.80102624,-30.67277876,82.88593185,175.52387658,160.78232914,-52.22665674
-125.76957836,-19.55266924,54.03487348,-174.83638922,-123.70086907,-163.66719446
159.49984207,-95.19706492,-60.34319876,-165.73264092,45.42310852,8.90154388
-8.80043919,1.70591178,0.28466765,-0.96915878

>  <Name>
2bee_lig

>  <RI>
0

>  <Rbt.Current_Directory>
/home/itssahil/PROJECTS/Mol_Feturizer/New_Systems/rnas/2bee

>  <Rbt.Executable>
rbdock ($Id: //depot/dev/client3/rdock/2013.1/src/exe/rbdock.cxx#4 $)

>  <Rbt.Library>
libRbt.so (2013.1, Build901 2013/11/27)

>  <Rbt.Parameter_File>
/export/apps/rDock/src/rDock_2013.1_src/data/scripts/dock_solv.prm

>  <Rbt.Receptor>
prm/blind_docking_60.prm

>  <SCORE>
132.317

>  <SCORE.INTER>
107.922

>  <SCORE.INTER.CONST>
1

>  <SCORE.INTER.POLAR>
-1.24701

>  <SCORE.INTER.ROT>
16

>  <SCORE.INTER.SOLV>
49.1929

>  <SCORE.INTER.VDW>
45.4402

>  <SCORE.INTER.norm>
2.20248

>  <SCORE.INTRA>
5.88401

>  <SCORE.INTRA.DIHEDRAL>
-8.39682

>  <SCORE.INTRA.DIHEDRAL.0>
36.0842

>  <SCORE.INTRA.POLAR>
0

>  <SCORE.INTRA.POLAR.0>
0

>  <SCORE.INTRA.REPUL>
0

>  <SCORE.INTRA.REPUL.0>
0

>  <SCORE.INTRA.SOLV>
2.82956

>  <SCORE.INTRA.SOLV.lig_0>
-126.444

>  <SCORE.INTRA.VDW>
8.66764

>  <SCORE.INTRA.VDW.0>
-7.40469

>  <SCORE.INTRA.norm>
0.120082

>  <SCORE.RESTR>
18.5112

>  <SCORE.RESTR.CAVITY>
18.5112

>  <SCORE.RESTR.norm>
0.37778

>  <SCORE.SYSTEM>
0

>  <SCORE.SYSTEM.CONST>
0

>  <SCORE.SYSTEM.DIHEDRAL>
0

>  <SCORE.SYSTEM.SOLV>
0

>  <SCORE.SYSTEM.norm>
0

>  <SCORE.heavy>
49

>  <SCORE.norm>
2.70035

>  <RMSD>
7.202

$$$$
2bee_lig
 OpenBabel11021811423D
libRbt.so/2013.1/901 2013/11/27
 49 52  0  0  0  0  0  0  0  0999 V2000
   41.2341    3.9772   -6.4078 C   0  0  2  0  0  0  0  0  0  0  0  0
   42.5151    3.4935   -6.0242 O   0  0  0  0  0  0  0  0  0  0  0  0
   46.6214    4.9884   -5.4971 C   0  0  2  0  0  0  0  0  0  0  0  0
   47.8318    5.8343   -5.6818 N   0  0  0  0  0  0  0  0  0  0  0  0
   42.8047    6.3681   -3.2239 C   0  0  1  0  0  0  0  0  0  0  0  0
   40.0888    6.6441    0.7200 C   0  0  1  0  0  0  0  0  0  0  0  0
   43.0748   13.4299   -0.0174 C   0  0  0  0  0  0  0  0  0  0  0  0
   40.1090    2.9689   -5.9532 C   0  0  2  0  0  0  0  0  0  0  0  0
   40.2152    2.7138   -4.5207 N   0  0  0  0  0  0  0  0  0  0  0  0
   46.1748    4.3894   -6.9076 C   0  0  0  0  0  0  0  0  0  0  0  0
   41.9532    7.2848   -2.4071 C   0  0  2  0  0  0  0  0  0  0  0  0
   42.6195    8.5609   -2.0941 O   0  0  0  0  0  0  0  0  0  0  0  0
   41.3955    7.1644    1.5280 C   0  0  2  0  0  0  0  0  0  0  0  0
   42.2447    5.9718    1.8589 N   0  0  0  0  0  0  0  0  0  0  0  0
   41.8520   13.8570   -0.5858 C   0  0  0  0  0  0  0  0  0  0  0  0
   41.4126   13.3018   -1.7855 N   0  0  0  0  0  0  0  0  0  0  0  0
   40.2337    1.6264   -6.7983 C   0  0  1  0  0  0  0  0  0  0  0  0
   39.2146    0.7273   -6.3857 O   0  0  0  0  0  0  0  0  0  0  0  0
   44.8376    3.4630   -6.7488 C   0  0  2  0  0  0  0  0  0  0  0  0
   44.4365    2.9166   -8.0006 N   0  0  0  0  0  0  0  0  0  0  0  0
   41.6048    6.2847   -1.3313 C   0  0  2  0  0  0  0  0  0  0  0  0
   40.6127    5.9502   -0.4376 O   0  0  0  0  0  0  0  0  0  0  0  0
   40.9149    7.8860    2.8374 C   0  0  1  0  0  0  0  0  0  0  0  0
   40.1069    9.0444    2.4288 O   0  0  0  0  0  0  0  0  0  0  0  0
   40.1084    1.9627   -8.3025 C   0  0  2  0  0  0  0  0  0  0  0  0
   40.2351    0.7363   -9.1306 O   0  0  0  0  0  0  0  0  0  0  0  0
   43.6600    4.3222   -6.1436 C   0  0  2  0  0  0  0  0  0  0  0  0
   42.9599    5.4302   -1.1869 C   0  0  2  0  0  0  0  0  0  0  0  0
   43.3644    5.3271   -2.4752 O   0  0  0  0  0  0  0  0  0  0  0  0
   40.0487    6.8374    3.7394 C   0  0  2  0  0  0  0  0  0  0  0  0
   40.8715    5.6747    4.1425 O   0  0  0  0  0  0  0  0  0  0  0  0
   41.2258    2.9678   -8.7397 C   0  0  2  0  0  0  0  0  0  0  0  0
   41.0476    4.1284   -7.8879 O   0  0  0  0  0  0  0  0  0  0  0  0
   44.1496    4.8872   -4.7675 C   0  0  2  0  0  0  0  0  0  0  0  0
   43.0292    5.6068   -4.3128 O   0  0  0  0  0  0  0  0  0  0  0  0
   42.8496    3.9588   -0.6403 C   0  0  0  0  0  0  0  0  0  0  0  0
   44.1677    3.3260   -0.6787 O   0  0  0  0  0  0  0  0  0  0  0  0
   38.7965    6.3059    2.9094 C   0  0  1  0  0  0  0  0  0  0  0  0
   39.3409    5.6740    1.6453 O   0  0  0  0  0  0  0  0  0  0  0  0
   41.0150    3.2477  -10.1725 C   0  0  0  0  0  0  0  0  0  0  0  0
   41.6365    2.3301  -10.9254 O   0  0  0  0  0  0  0  0  0  0  0  0
   45.4294    5.8086   -4.9554 C   0  0  1  0  0  0  0  0  0  0  0  0
   45.8610    6.2984   -3.7225 O   0  0  0  0  0  0  0  0  0  0  0  0
   43.7453    8.7226   -1.1596 C   0  0  0  0  0  0  0  0  0  0  0  0
   38.0599    5.3017    3.8591 C   0  0  0  0  0  0  0  0  0  0  0  0
   38.7215    4.0320    3.9520 N   0  0  0  0  0  0  0  0  0  0  0  0
   44.2659   10.1584   -1.2405 C   0  0  0  0  0  0  0  0  0  0  0  0
   43.1335   11.0412   -0.8994 N   0  0  0  0  0  0  0  0  0  0  0  0
   43.2351   11.8877    0.3712 C   0  0  0  0  0  0  0  0  0  0  0  0
  1  2  1  6  0  0  0
  1  8  1  0  0  0  0
  1 33  1  0  0  0  0
  3  4  1  6  0  0  0
  3 10  1  0  0  0  0
  3 42  1  0  0  0  0
  5 11  1  0  0  0  0
  5 29  1  0  0  0  0
  5 35  1  6  0  0  0
  6 13  1  0  0  0  0
  6 39  1  0  0  0  0
  6 22  1  6  0  0  0
  7 15  1  0  0  0  0
  8  9  1  1  0  0  0
  8 17  1  0  0  0  0
 10 19  1  0  0  0  0
 11 12  1  1  0  0  0
 11 21  1  0  0  0  0
 12 44  1  0  0  0  0
 13 14  1  1  0  0  0
 13 23  1  0  0  0  0
 15 16  1  0  0  0  0
 17 18  1  1  0  0  0
 17 25  1  0  0  0  0
 19 20  1  6  0  0  0
 19 27  1  0  0  0  0
 21 22  1  1  0  0  0
 21 28  1  0  0  0  0
 23 24  1  6  0  0  0
 23 30  1  0  0  0  0
 25 26  1  6  0  0  0
 25 32  1  0  0  0  0
 27  2  1  1  0  0  0
 27 34  1  0  0  0  0
 28 29  1  0  0  0  0
 28 36  1  6  0  0  0
 30 31  1  6  0  0  0
 30 38  1  0  0  0  0
 32 33  1  0  0  0  0
 32 40  1  6  0  0  0
 34 35  1  6  0  0  0
 34 42  1  0  0  0  0
 36 37  1  0  0  0  0
 38 39  1  0  0  0  0
 38 45  1  1  0  0  0
 40 41  1  0  0  0  0
 42 43  1  1  0  0  0
 44 47  1  0  0  0  0
 45 46  1  0  0  0  0
 47 48  1  0  0  0  0
 48 49  1  0  0  0  0
 49  7  1  0  0  0  0
M  END
>  <CHROM.1>
-170.38864603,174.81823781,-45.31832268,-60.06155279,-70.93744409,172.95607755
-65.75825699,-136.51551836,175.84500336,-86.57649865,-177.13993688,-76.63180796
58.71838524,115.38948041,122.21374979,62.91468774,42.13254263,5.79061596
-2.82740585,1.41616723,-0.88094099,-2.22900143

>  <Name>
2bee_lig

>  <RI>
0

>  <Rbt.Current_Directory>
/home/itssahil/PROJECTS/Mol_Feturizer/New_Systems/rnas/2bee

>  <Rbt.Executable>
rbdock ($Id: //depot/dev/client3/rdock/2013.1/src/exe/rbdock.cxx#4 $)

>  <Rbt.Library>
libRbt.so (2013.1, Build901 2013/11/27)

>  <Rbt.Parameter_File>
/export/apps/rDock/src/rDock_2013.1_src/data/scripts/dock_solv.prm

>  <Rbt.Receptor>
prm/pocket_docking_6.prm

>  <SCORE>
-14.1265

>  <SCORE.INTER>
-10.9702

>  <SCORE.INTER.CONST>
1

>  <SCORE.INTER.POLAR>
-2.40754

>  <SCORE.INTER.ROT>
16

>  <SCORE.INTER.SOLV>
17.3396

>  <SCORE.INTER.VDW>
-19.3349

>  <SCORE.INTER.norm>
-0.223881

>  <SCORE.INTRA>
-3.15627

>  <SCORE.INTRA.DIHEDRAL>
-16.3125

>  <SCORE.INTRA.DIHEDRAL.0>
36.0842

>  <SCORE.INTRA.POLAR>
0

>  <SCORE.INTRA.POLAR.0>
0

>  <SCORE.INTRA.REPUL>
0

>  <SCORE.INTRA.REPUL.0>
0

>  <SCORE.INTRA.SOLV>
3.85914

>  <SCORE.INTRA.SOLV.lig_0>
-126.444

>  <SCORE.INTRA.VDW>
3.07043

>  <SCORE.INTRA.VDW.0>
-7.40469

>  <SCORE.INTRA.norm>
-0.0644136

>  <SCORE.RESTR>
0

>  <SCORE.RESTR.CAVITY>
0

>  <SCORE.RESTR.norm>
0

>  <SCORE.SYSTEM>
0

>  <SCORE.SYSTEM.CONST>
0

>  <SCORE.SYSTEM.DIHEDRAL>
0

>  <SCORE.SYSTEM.SOLV>
0

>  <SCORE.SYSTEM.norm>
0

>  <SCORE.heavy>
49

>  <SCORE.norm>
-0.288295

>  <RMSD>
7.222

$$$$
2bee_lig
 OpenBabel11021811423D
libRbt.so/2013.1/901 2013/11/27
 49 52  0  0  0  0  0  0  0  0999 V2000
   42.7820    7.0245   -3.6151 C   0  0  2  0  0  0  0  0  0  0  0  0
   43.9795    6.8134   -4.3525 O   0  0  0  0  0  0  0  0  0  0  0  0
   42.3954    5.9094   -8.3584 C   0  0  2  0  0  0  0  0  0  0  0  0
   42.3704    5.4882   -9.7856 N   0  0  0  0  0  0  0  0  0  0  0  0
   42.9819    2.9191   -4.8987 C   0  0  1  0  0  0  0  0  0  0  0  0
   40.3262    0.6736   -1.6708 C   0  0  1  0  0  0  0  0  0  0  0  0
   47.6295    0.9484   -3.9734 C   0  0  0  0  0  0  0  0  0  0  0  0
   42.8835    8.3557   -2.7746 C   0  0  2  0  0  0  0  0  0  0  0  0
   43.2182    9.4748   -3.6489 N   0  0  0  0  0  0  0  0  0  0  0  0
   43.4486    7.0948   -8.1755 C   0  0  0  0  0  0  0  0  0  0  0  0
   43.2062    1.5577   -4.3254 C   0  0  2  0  0  0  0  0  0  0  0  0
   43.3418    0.5151   -5.3574 O   0  0  0  0  0  0  0  0  0  0  0  0
   39.9382    1.7347   -0.5070 C   0  0  2  0  0  0  0  0  0  0  0  0
   41.0156    1.6961    0.5375 N   0  0  0  0  0  0  0  0  0  0  0  0
   49.0091    1.1648   -3.7483 C   0  0  0  0  0  0  0  0  0  0  0  0
   49.9088    0.1101   -3.8859 N   0  0  0  0  0  0  0  0  0  0  0  0
   43.9649    8.1686   -1.6224 C   0  0  1  0  0  0  0  0  0  0  0  0
   44.0459    9.3697   -0.8687 O   0  0  0  0  0  0  0  0  0  0  0  0
   43.5155    7.5776   -6.6153 C   0  0  2  0  0  0  0  0  0  0  0  0
   44.4459    8.6411   -6.4435 N   0  0  0  0  0  0  0  0  0  0  0  0
   42.0412    1.5799   -3.3657 C   0  0  2  0  0  0  0  0  0  0  0  0
   41.6275    1.0939   -2.1460 O   0  0  0  0  0  0  0  0  0  0  0  0
   38.5541    1.3161    0.1055 C   0  0  1  0  0  0  0  0  0  0  0  0
   37.5561    1.3941   -0.9714 O   0  0  0  0  0  0  0  0  0  0  0  0
   43.5518    6.9747   -0.7307 C   0  0  2  0  0  0  0  0  0  0  0  0
   44.5450    6.7548    0.3515 O   0  0  0  0  0  0  0  0  0  0  0  0
   43.9245    6.3616   -5.6959 C   0  0  2  0  0  0  0  0  0  0  0  0
   40.9172    2.3846   -4.1883 C   0  0  2  0  0  0  0  0  0  0  0  0
   41.6518    3.3424   -4.8023 O   0  0  0  0  0  0  0  0  0  0  0  0
   38.6707   -0.1961    0.7081 C   0  0  2  0  0  0  0  0  0  0  0  0
   39.6798   -0.2628    1.7891 O   0  0  0  0  0  0  0  0  0  0  0  0
   43.4488    5.6618   -1.5766 C   0  0  2  0  0  0  0  0  0  0  0  0
   42.4757    5.9525   -2.6125 O   0  0  0  0  0  0  0  0  0  0  0  0
   42.8649    5.2295   -5.9152 C   0  0  2  0  0  0  0  0  0  0  0  0
   43.3077    4.2186   -5.0421 O   0  0  0  0  0  0  0  0  0  0  0  0
   39.8036    3.1388   -3.3716 C   0  0  0  0  0  0  0  0  0  0  0  0
   38.9336    3.8674   -4.2945 O   0  0  0  0  0  0  0  0  0  0  0  0
   39.0964   -1.2126   -0.4429 C   0  0  1  0  0  0  0  0  0  0  0  0
   40.4069   -0.7109   -1.0125 O   0  0  0  0  0  0  0  0  0  0  0  0
   43.0294    4.5890   -0.6553 C   0  0  0  0  0  0  0  0  0  0  0  0
   42.8166    3.4502   -1.3284 O   0  0  0  0  0  0  0  0  0  0  0  0
   42.8442    4.7577   -7.4315 C   0  0  1  0  0  0  0  0  0  0  0  0
   41.8910    3.7559   -7.6159 O   0  0  0  0  0  0  0  0  0  0  0  0
   43.7363   -0.8806   -5.1059 C   0  0  0  0  0  0  0  0  0  0  0  0
   39.1963   -2.6132    0.2509 C   0  0  0  0  0  0  0  0  0  0  0  0
   37.9342   -3.0839    0.7450 N   0  0  0  0  0  0  0  0  0  0  0  0
   45.2307   -0.9324   -4.7850 C   0  0  0  0  0  0  0  0  0  0  0  0
   45.4158   -0.2209   -3.5053 N   0  0  0  0  0  0  0  0  0  0  0  0
   46.8421   -0.0301   -2.9849 C   0  0  0  0  0  0  0  0  0  0  0  0
  1  2  1  1  0  0  0
  1  8  1  0  0  0  0
  1 33  1  0  0  0  0
  3  4  1  6  0  0  0
  3 10  1  0  0  0  0
  3 42  1  0  0  0  0
  5 11  1  0  0  0  0
  5 29  1  0  0  0  0
  5 35  1  1  0  0  0
  6 13  1  0  0  0  0
  6 39  1  0  0  0  0
  6 22  1  1  0  0  0
  7 15  1  0  0  0  0
  8  9  1  6  0  0  0
  8 17  1  0  0  0  0
 10 19  1  0  0  0  0
 11 12  1  6  0  0  0
 11 21  1  0  0  0  0
 12 44  1  0  0  0  0
 13 14  1  1  0  0  0
 13 23  1  0  0  0  0
 15 16  1  0  0  0  0
 17 18  1  1  0  0  0
 17 25  1  0  0  0  0
 19 20  1  6  0  0  0
 19 27  1  0  0  0  0
 21 22  1  6  0  0  0
 21 28  1  0  0  0  0
 23 24  1  6  0  0  0
 23 30  1  0  0  0  0
 25 26  1  1  0  0  0
 25 32  1  0  0  0  0
 27  2  1  1  0  0  0
 27 34  1  0  0  0  0
 28 29  1  0  0  0  0
 28 36  1  1  0  0  0
 30 31  1  1  0  0  0
 30 38  1  0  0  0  0
 32 33  1  0  0  0  0
 32 40  1  1  0  0  0
 34 35  1  1  0  0  0
 34 42  1  0  0  0  0
 36 37  1  0  0  0  0
 38 39  1  0  0  0  0
 38 45  1  1  0  0  0
 40 41  1  0  0  0  0
 42 43  1  1  0  0  0
 44 47  1  0  0  0  0
 45 46  1  0  0  0  0
 47 48  1  0  0  0  0
 48 49  1  0  0  0  0
 49  7  1  0  0  0  0
M  END
>  <CHROM.1>
-137.89182656,169.48433159,-114.86872916,65.07756372,171.84268584,-73.19859936
-144.60704444,76.53782501,176.65387559,175.14509907,-167.55180409,64.73381374
65.81317932,-175.76370983,66.47312068,-174.24077899,42.56757072,3.27335547
-3.23716812,0.99898411,0.73299864,-0.17102282

>  <Name>
2bee_lig

>  <RI>
0

>  <Rbt.Current_Directory>
/home/itssahil/PROJECTS/Mol_Feturizer/New_Systems/rnas/2bee

>  <Rbt.Executable>
rbdock ($Id: //depot/dev/client3/rdock/2013.1/src/exe/rbdock.cxx#4 $)

>  <Rbt.Library>
libRbt.so (2013.1, Build901 2013/11/27)

>  <Rbt.Parameter_File>
/export/apps/rDock/src/rDock_2013.1_src/data/scripts/dock_solv.prm

>  <Rbt.Receptor>
prm/pocket_docking_8.prm

>  <SCORE>
-10.485

>  <SCORE.INTER>
-7.04771

>  <SCORE.INTER.CONST>
1

>  <SCORE.INTER.POLAR>
-2.53259

>  <SCORE.INTER.ROT>
16

>  <SCORE.INTER.SOLV>
21.9294

>  <SCORE.INTER.VDW>
-17.833

>  <SCORE.INTER.norm>
-0.143831

>  <SCORE.INTRA>
-3.43731

>  <SCORE.INTRA.DIHEDRAL>
-14.6895

>  <SCORE.INTRA.DIHEDRAL.0>
36.0842

>  <SCORE.INTRA.POLAR>
0

>  <SCORE.INTRA.POLAR.0>
0

>  <SCORE.INTRA.REPUL>
0

>  <SCORE.INTRA.REPUL.0>
0

>  <SCORE.INTRA.SOLV>
2.80845

>  <SCORE.INTRA.SOLV.lig_0>
-126.444

>  <SCORE.INTRA.VDW>
2.5032

>  <SCORE.INTRA.VDW.0>
-7.40469

>  <SCORE.INTRA.norm>
-0.0701491

>  <SCORE.RESTR>
0

>  <SCORE.RESTR.CAVITY>
0

>  <SCORE.RESTR.norm>
0

>  <SCORE.SYSTEM>
0

>  <SCORE.SYSTEM.CONST>
0

>  <SCORE.SYSTEM.DIHEDRAL>
0

>  <SCORE.SYSTEM.SOLV>
0

>  <SCORE.SYSTEM.norm>
0

>  <SCORE.heavy>
49

>  <SCORE.norm>
-0.21398

>  <RMSD>
7.228

$$$$
2bee_lig
 OpenBabel11021811423D
libRbt.so/2013.1/901 2013/11/27
 49 52  0  0  0  0  0  0  0  0999 V2000
   41.8915    5.6914   -2.6865 C   0  0  2  0  0  0  0  0  0  0  0  0
   41.3480    5.4819   -3.9837 O   0  0  0  0  0  0  0  0  0  0  0  0
   42.6624    6.6062   -8.0312 C   0  0  2  0  0  0  0  0  0  0  0  0
   43.5563    6.7855   -9.2075 N   0  0  0  0  0  0  0  0  0  0  0  0
   42.2285    2.5463   -6.0265 C   0  0  1  0  0  0  0  0  0  0  0  0
   46.4612    3.3765   -4.7700 C   0  0  1  0  0  0  0  0  0  0  0  0
   41.1727   -2.4639   -4.2066 C   0  0  0  0  0  0  0  0  0  0  0  0
   41.0690    4.8823   -1.6105 C   0  0  2  0  0  0  0  0  0  0  0  0
   41.0106    3.4726   -1.9820 N   0  0  0  0  0  0  0  0  0  0  0  0
   43.3058    7.3309   -6.7629 C   0  0  0  0  0  0  0  0  0  0  0  0
   43.3652    1.7680   -6.6052 C   0  0  2  0  0  0  0  0  0  0  0  0
   42.9984    0.3821   -6.9445 O   0  0  0  0  0  0  0  0  0  0  0  0
   46.1157    4.6143   -5.7597 C   0  0  2  0  0  0  0  0  0  0  0  0
   46.4974    4.2158   -7.1557 N   0  0  0  0  0  0  0  0  0  0  0  0
   40.6955   -2.8718   -2.9390 C   0  0  0  0  0  0  0  0  0  0  0  0
   39.8802   -2.0200   -2.1971 N   0  0  0  0  0  0  0  0  0  0  0  0
   39.6146    5.5137   -1.4768 C   0  0  1  0  0  0  0  0  0  0  0  0
   38.8837    4.7823   -0.5033 O   0  0  0  0  0  0  0  0  0  0  0  0
   42.3583    7.1451   -5.4441 C   0  0  2  0  0  0  0  0  0  0  0  0
   42.9194    7.7960   -4.3093 N   0  0  0  0  0  0  0  0  0  0  0  0
   44.3624    2.0829   -5.5165 C   0  0  2  0  0  0  0  0  0  0  0  0
   45.7097    2.2547   -5.2924 O   0  0  0  0  0  0  0  0  0  0  0  0
   46.9394    5.8675   -5.2938 C   0  0  1  0  0  0  0  0  0  0  0  0
   46.4982    6.2009   -3.9315 O   0  0  0  0  0  0  0  0  0  0  0  0
   39.7447    7.0021   -1.0778 C   0  0  2  0  0  0  0  0  0  0  0  0
   38.4068    7.6357   -0.9570 O   0  0  0  0  0  0  0  0  0  0  0  0
   42.1678    5.6093   -5.1342 C   0  0  2  0  0  0  0  0  0  0  0  0
   43.4497    2.1028   -4.1921 C   0  0  2  0  0  0  0  0  0  0  0  0
   42.3208    2.7025   -4.6393 O   0  0  0  0  0  0  0  0  0  0  0  0
   48.5309    5.5091   -5.3390 C   0  0  2  0  0  0  0  0  0  0  0  0
   48.9627    5.1728   -6.7144 O   0  0  0  0  0  0  0  0  0  0  0  0
   40.5672    7.7925   -2.1495 C   0  0  2  0  0  0  0  0  0  0  0  0
   41.8484    7.1158   -2.2202 O   0  0  0  0  0  0  0  0  0  0  0  0
   41.5393    4.9473   -6.4067 C   0  0  2  0  0  0  0  0  0  0  0  0
   41.3933    3.6035   -6.0158 O   0  0  0  0  0  0  0  0  0  0  0  0
   43.9463    2.9558   -2.9667 C   0  0  0  0  0  0  0  0  0  0  0  0
   43.4142    2.3848   -1.7296 O   0  0  0  0  0  0  0  0  0  0  0  0
   48.8384    4.2629   -4.3947 C   0  0  1  0  0  0  0  0  0  0  0  0
   47.9708    3.1190   -4.8769 O   0  0  0  0  0  0  0  0  0  0  0  0
   40.6600    9.1868   -1.6773 C   0  0  0  0  0  0  0  0  0  0  0  0
   41.2492    9.9564   -2.6025 O   0  0  0  0  0  0  0  0  0  0  0  0
   42.4949    5.1149   -7.6641 C   0  0  1  0  0  0  0  0  0  0  0  0
   41.9206    4.5293   -8.7926 O   0  0  0  0  0  0  0  0  0  0  0  0
   41.8699   -0.0099   -7.8045 C   0  0  0  0  0  0  0  0  0  0  0  0
   50.3762    4.0007   -4.5344 C   0  0  0  0  0  0  0  0  0  0  0  0
   50.7284    3.3910   -5.7845 N   0  0  0  0  0  0  0  0  0  0  0  0
   40.6913   -0.4352   -6.9276 C   0  0  0  0  0  0  0  0  0  0  0  0
   40.8556   -1.8781   -6.6649 N   0  0  0  0  0  0  0  0  0  0  0  0
   40.1568   -2.4733   -5.4406 C   0  0  0  0  0  0  0  0  0  0  0  0
  1  2  1  6  0  0  0
  1  8  1  0  0  0  0
  1 33  1  0  0  0  0
  3  4  1  6  0  0  0
  3 10  1  0  0  0  0
  3 42  1  0  0  0  0
  5 11  1  0  0  0  0
  5 29  1  0  0  0  0
  5 35  1  6  0  0  0
  6 13  1  0  0  0  0
  6 39  1  0  0  0  0
  6 22  1  6  0  0  0
  7 15  1  0  0  0  0
  8  9  1  6  0  0  0
  8 17  1  0  0  0  0
 10 19  1  0  0  0  0
 11 12  1  1  0  0  0
 11 21  1  0  0  0  0
 12 44  1  0  0  0  0
 13 14  1  6  0  0  0
 13 23  1  0  0  0  0
 15 16  1  0  0  0  0
 17 18  1  1  0  0  0
 17 25  1  0  0  0  0
 19 20  1  1  0  0  0
 19 27  1  0  0  0  0
 21 22  1  1  0  0  0
 21 28  1  0  0  0  0
 23 24  1  1  0  0  0
 23 30  1  0  0  0  0
 25 26  1  6  0  0  0
 25 32  1  0  0  0  0
 27  2  1  1  0  0  0
 27 34  1  0  0  0  0
 28 29  1  0  0  0  0
 28 36  1  1  0  0  0
 30 31  1  6  0  0  0
 30 38  1  0  0  0  0
 32 33  1  0  0  0  0
 32 40  1  1  0  0  0
 34 35  1  1  0  0  0
 34 42  1  0  0  0  0
 36 37  1  0  0  0  0
 38 39  1  0  0  0  0
 38 45  1  6  0  0  0
 40 41  1  0  0  0  0
 42 43  1  6  0  0  0
 44 47  1  0  0  0  0
 45 46  1  0  0  0  0
 47 48  1  0  0  0  0
 48 49  1  0  0  0  0
 49  7  1  0  0  0  0
M  END
>  <CHROM.1>
-153.64979928,-31.40991838,-57.75537584,-75.23706763,53.97214709,-99.80147220
121.64142293,-77.98662810,-152.97996961,-174.44584852,-85.12072932,-74.24592778
-88.47961185,158.01773335,-93.36289702,174.91123739,43.16615589,3.97738938
-4.66147485,-2.84226163,-0.40395270,-2.88404439

>  <Name>
2bee_lig

>  <RI>
2.18182e+07

>  <Rbt.Current_Directory>
/home/itssahil/PROJECTS/Mol_Feturizer/New_Systems/rnas/2bee

>  <Rbt.Executable>
rbdock ($Id: //depot/dev/client3/rdock/2013.1/src/exe/rbdock.cxx#4 $)

>  <Rbt.Library>
libRbt.so (2013.1, Build901 2013/11/27)

>  <Rbt.Parameter_File>
/export/apps/rDock/src/rDock_2013.1_src/data/scripts/dock_solv.prm

>  <Rbt.Receptor>
prm/pocket_docking_3.prm

>  <SCORE>
3.22286

>  <SCORE.INTER>
5.08004

>  <SCORE.INTER.CONST>
1

>  <SCORE.INTER.POLAR>
-0.0271779

>  <SCORE.INTER.ROT>
16

>  <SCORE.INTER.SOLV>
8.96781

>  <SCORE.INTER.VDW>
-13.7786

>  <SCORE.INTER.norm>
0.103674

>  <SCORE.INTRA>
-1.87351

>  <SCORE.INTRA.DIHEDRAL>
-9.72135

>  <SCORE.INTRA.DIHEDRAL.0>
36.0842

>  <SCORE.INTRA.POLAR>
0

>  <SCORE.INTRA.POLAR.0>
0

>  <SCORE.INTRA.REPUL>
0

>  <SCORE.INTRA.REPUL.0>
0

>  <SCORE.INTRA.SOLV>
6.28147

>  <SCORE.INTRA.SOLV.lig_0>
-126.444

>  <SCORE.INTRA.VDW>
-0.15357

>  <SCORE.INTRA.VDW.0>
-7.40469

>  <SCORE.INTRA.norm>
-0.0382349

>  <SCORE.RESTR>
0.0163271

>  <SCORE.RESTR.CAVITY>
0.0163271

>  <SCORE.RESTR.norm>
0.000333206

>  <SCORE.SYSTEM>
0

>  <SCORE.SYSTEM.CONST>
0

>  <SCORE.SYSTEM.DIHEDRAL>
0

>  <SCORE.SYSTEM.SOLV>
0

>  <SCORE.SYSTEM.norm>
0

>  <SCORE.heavy>
49

>  <SCORE.norm>
0.0657727

>  <RMSD>
7.231

$$$$
2bee_lig
 OpenBabel11021811423D
libRbt.so/2013.1/901 2013/11/27
 49 52  0  0  0  0  0  0  0  0999 V2000
   45.3138    8.6481   -9.5939 C   0  0  2  0  0  0  0  0  0  0  0  0
   44.1195    8.5431   -8.8293 O   0  0  0  0  0  0  0  0  0  0  0  0
   41.2028    5.4288   -7.7484 C   0  0  2  0  0  0  0  0  0  0  0  0
   40.6430    4.0773   -7.4745 N   0  0  0  0  0  0  0  0  0  0  0  0
   44.1792    7.5184   -4.9074 C   0  0  1  0  0  0  0  0  0  0  0  0
   42.4943    3.9570   -2.8099 C   0  0  1  0  0  0  0  0  0  0  0  0
   42.9339   11.4792    2.5487 C   0  0  0  0  0  0  0  0  0  0  0  0
   46.2565    9.7586   -8.9879 C   0  0  2  0  0  0  0  0  0  0  0  0
   46.5065    9.4866   -7.5765 N   0  0  0  0  0  0  0  0  0  0  0  0
   41.8157    5.4584   -9.2219 C   0  0  0  0  0  0  0  0  0  0  0  0
   43.6550    7.5084   -3.5082 C   0  0  2  0  0  0  0  0  0  0  0  0
   44.2240    8.5812   -2.6742 O   0  0  0  0  0  0  0  0  0  0  0  0
   42.2149    3.2009   -1.4023 C   0  0  2  0  0  0  0  0  0  0  0  0
   43.5210    2.6627   -0.8947 N   0  0  0  0  0  0  0  0  0  0  0  0
   42.1246   12.5865    2.2026 C   0  0  0  0  0  0  0  0  0  0  0  0
   41.2965   12.5187    1.0845 N   0  0  0  0  0  0  0  0  0  0  0  0
   45.5891   11.1874   -9.2000 C   0  0  1  0  0  0  0  0  0  0  0  0
   46.4465   12.1804   -8.6559 O   0  0  0  0  0  0  0  0  0  0  0  0
   42.4540    6.9254   -9.5568 C   0  0  2  0  0  0  0  0  0  0  0  0
   42.9954    6.9647  -10.8728 N   0  0  0  0  0  0  0  0  0  0  0  0
   43.9342    6.0513   -3.2293 C   0  0  2  0  0  0  0  0  0  0  0  0
   43.4757    4.9759   -2.5024 O   0  0  0  0  0  0  0  0  0  0  0  0
   41.1945    2.0351   -1.6587 C   0  0  1  0  0  0  0  0  0  0  0  0
   39.9442    2.6434   -2.1366 O   0  0  0  0  0  0  0  0  0  0  0  0
   45.3552   11.4166  -10.7113 C   0  0  2  0  0  0  0  0  0  0  0  0
   44.7177   12.7360  -10.9534 O   0  0  0  0  0  0  0  0  0  0  0  0
   43.5826    7.2699   -8.5087 C   0  0  2  0  0  0  0  0  0  0  0  0
   45.3150    5.7965   -4.0140 C   0  0  2  0  0  0  0  0  0  0  0  0
   45.1337    6.5228   -5.1426 O   0  0  0  0  0  0  0  0  0  0  0  0
   41.8219    1.0072   -2.7603 C   0  0  2  0  0  0  0  0  0  0  0  0
   43.0811    0.4033   -2.2694 O   0  0  0  0  0  0  0  0  0  0  0  0
   44.4240   10.3058  -11.3018 C   0  0  2  0  0  0  0  0  0  0  0  0
   45.1009    9.0537  -11.0216 O   0  0  0  0  0  0  0  0  0  0  0  0
   42.9318    7.2240   -7.0850 C   0  0  2  0  0  0  0  0  0  0  0  0
   44.0064    7.5647   -6.2429 O   0  0  0  0  0  0  0  0  0  0  0  0
   45.6381    4.3291   -4.4812 C   0  0  0  0  0  0  0  0  0  0  0  0
   46.9656    4.2956   -5.0946 O   0  0  0  0  0  0  0  0  0  0  0  0
   42.1296    1.7817   -4.1185 C   0  0  1  0  0  0  0  0  0  0  0  0
   43.0744    2.9148   -3.7763 O   0  0  0  0  0  0  0  0  0  0  0  0
   44.2768   10.5893  -12.7418 C   0  0  0  0  0  0  0  0  0  0  0  0
   43.3971   11.5810  -12.9365 O   0  0  0  0  0  0  0  0  0  0  0  0
   42.3491    5.7797   -6.7739 C   0  0  1  0  0  0  0  0  0  0  0  0
   41.7646    5.7538   -5.5074 O   0  0  0  0  0  0  0  0  0  0  0  0
   43.7839    8.9186   -1.3105 C   0  0  0  0  0  0  0  0  0  0  0  0
   42.7413    0.7096   -5.0827 C   0  0  0  0  0  0  0  0  0  0  0  0
   42.9345    1.2022   -6.4164 N   0  0  0  0  0  0  0  0  0  0  0  0
   44.3182   10.3017   -0.9358 C   0  0  0  0  0  0  0  0  0  0  0  0
   43.4544   10.8125    0.1463 N   0  0  0  0  0  0  0  0  0  0  0  0
   44.0767   11.0241    1.5281 C   0  0  0  0  0  0  0  0  0  0  0  0
  1  2  1  1  0  0  0
  1  8  1  0  0  0  0
  1 33  1  0  0  0  0
  3  4  1  1  0  0  0
  3 10  1  0  0  0  0
  3 42  1  0  0  0  0
  5 11  1  0  0  0  0
  5 29  1  0  0  0  0
  5 35  1  6  0  0  0
  6 13  1  0  0  0  0
  6 39  1  0  0  0  0
  6 22  1  1  0  0  0
  7 15  1  0  0  0  0
  8  9  1  1  0  0  0
  8 17  1  0  0  0  0
 10 19  1  0  0  0  0
 11 12  1  1  0  0  0
 11 21  1  0  0  0  0
 12 44  1  0  0  0  0
 13 14  1  6  0  0  0
 13 23  1  0  0  0  0
 15 16  1  0  0  0  0
 17 18  1  6  0  0  0
 17 25  1  0  0  0  0
 19 20  1  6  0  0  0
 19 27  1  0  0  0  0
 21 22  1  1  0  0  0
 21 28  1  0  0  0  0
 23 24  1  6  0  0  0
 23 30  1  0  0  0  0
 25 26  1  1  0  0  0
 25 32  1  0  0  0  0
 27  2  1  6  0  0  0
 27 34  1  0  0  0  0
 28 29  1  0  0  0  0
 28 36  1  6  0  0  0
 30 31  1  1  0  0  0
 30 38  1  0  0  0  0
 32 33  1  0  0  0  0
 32 40  1  6  0  0  0
 34 35  1  1  0  0  0
 34 42  1  0  0  0  0
 36 37  1  0  0  0  0
 38 39  1  0  0  0  0
 38 45  1  6  0  0  0
 40 41  1  0  0  0  0
 42 43  1  1  0  0  0
 44 47  1  0  0  0  0
 45 46  1  0  0  0  0
 47 48  1  0  0  0  0
 48 49  1  0  0  0  0
 49  7  1  0  0  0  0
M  END
>  <CHROM.1>
-137.39719458,-24.23091286,-168.10332209,63.65517105,172.43230790,-164.11559920
88.82375540,-96.99520473,-176.44070377,-78.30490881,-168.63421053,173.07530104
158.04956163,114.67656771,-176.07065383,-53.04327974,43.58728144,7.02765557
-5.42291101,0.51370185,-1.35781692,-2.07557495

>  <Name>
2bee_lig

>  <RI>
0

>  <Rbt.Current_Directory>
/home/itssahil/PROJECTS/Mol_Feturizer/New_Systems/rnas/2bee

>  <Rbt.Executable>
rbdock ($Id: //depot/dev/client3/rdock/2013.1/src/exe/rbdock.cxx#4 $)

>  <Rbt.Library>
libRbt.so (2013.1, Build901 2013/11/27)

>  <Rbt.Parameter_File>
/export/apps/rDock/src/rDock_2013.1_src/data/scripts/dock_solv.prm

>  <Rbt.Receptor>
prm/pocket_docking_6.prm

>  <SCORE>
-25.9643

>  <SCORE.INTER>
-22.3522

>  <SCORE.INTER.CONST>
1

>  <SCORE.INTER.POLAR>
-1.78571

>  <SCORE.INTER.ROT>
16

>  <SCORE.INTER.SOLV>
25.0462

>  <SCORE.INTER.VDW>
-31.5645

>  <SCORE.INTER.norm>
-0.456168

>  <SCORE.INTRA>
-3.61208

>  <SCORE.INTRA.DIHEDRAL>
-9.8733

>  <SCORE.INTRA.DIHEDRAL.0>
36.0842

>  <SCORE.INTRA.POLAR>
0

>  <SCORE.INTRA.POLAR.0>
0

>  <SCORE.INTRA.REPUL>
0.0193301

>  <SCORE.INTRA.REPUL.0>
0

>  <SCORE.INTRA.SOLV>
2.1663

>  <SCORE.INTRA.SOLV.lig_0>
-126.444

>  <SCORE.INTRA.VDW>
0.14477

>  <SCORE.INTRA.VDW.0>
-7.40469

>  <SCORE.INTRA.norm>
-0.0737159

>  <SCORE.RESTR>
0

>  <SCORE.RESTR.CAVITY>
0

>  <SCORE.RESTR.norm>
0

>  <SCORE.SYSTEM>
0

>  <SCORE.SYSTEM.CONST>
0

>  <SCORE.SYSTEM.DIHEDRAL>
0

>  <SCORE.SYSTEM.SOLV>
0

>  <SCORE.SYSTEM.norm>
0

>  <SCORE.heavy>
49

>  <SCORE.norm>
-0.529884

>  <RMSD>
7.297

$$$$
2bee_lig
 OpenBabel11021811423D
libRbt.so/2013.1/901 2013/11/27
 49 52  0  0  0  0  0  0  0  0999 V2000
   45.6906    6.3164   -5.9042 C   0  0  2  0  0  0  0  0  0  0  0  0
   44.9480    5.3438   -6.6287 O   0  0  0  0  0  0  0  0  0  0  0  0
   40.6958    6.2568   -5.9512 C   0  0  2  0  0  0  0  0  0  0  0  0
   39.2394    6.0375   -5.7372 N   0  0  0  0  0  0  0  0  0  0  0  0
   43.6133    4.5922   -2.9553 C   0  0  1  0  0  0  0  0  0  0  0  0
   42.7019    0.2483   -3.5754 C   0  0  1  0  0  0  0  0  0  0  0  0
   42.2067    7.1898   -0.7156 C   0  0  0  0  0  0  0  0  0  0  0  0
   46.1472    7.4832   -6.8628 C   0  0  2  0  0  0  0  0  0  0  0  0
   44.9905    8.0468   -7.5507 N   0  0  0  0  0  0  0  0  0  0  0  0
   41.1436    5.5459   -7.3084 C   0  0  0  0  0  0  0  0  0  0  0  0
   42.6685    3.8574   -2.0609 C   0  0  2  0  0  0  0  0  0  0  0  0
   42.6451    4.3910   -0.6879 O   0  0  0  0  0  0  0  0  0  0  0  0
   42.4593    1.1965   -4.8689 C   0  0  2  0  0  0  0  0  0  0  0  0
   41.2107    1.9957   -4.6336 N   0  0  0  0  0  0  0  0  0  0  0  0
   42.1126    8.4750   -1.2988 C   0  0  0  0  0  0  0  0  0  0  0  0
   42.2338    9.6102   -0.5006 N   0  0  0  0  0  0  0  0  0  0  0  0
   47.2265    6.9266   -7.8911 C   0  0  1  0  0  0  0  0  0  0  0  0
   47.6348    7.9845   -8.7463 O   0  0  0  0  0  0  0  0  0  0  0  0
   42.7432    5.7529   -7.5729 C   0  0  2  0  0  0  0  0  0  0  0  0
   43.1507    5.1299   -8.7862 N   0  0  0  0  0  0  0  0  0  0  0  0
   43.1831    2.4716   -2.3668 C   0  0  2  0  0  0  0  0  0  0  0  0
   42.7832    1.1571   -2.4514 O   0  0  0  0  0  0  0  0  0  0  0  0
   42.3031    0.2798   -6.1343 C   0  0  1  0  0  0  0  0  0  0  0  0
   43.5660   -0.4538   -6.3035 O   0  0  0  0  0  0  0  0  0  0  0  0
   48.4251    6.3497   -7.1026 C   0  0  2  0  0  0  0  0  0  0  0  0
   49.4519    5.8038   -8.0265 O   0  0  0  0  0  0  0  0  0  0  0  0
   43.5669    5.1544   -6.3669 C   0  0  2  0  0  0  0  0  0  0  0  0
   44.7653    2.7081   -2.5353 C   0  0  2  0  0  0  0  0  0  0  0  0
   44.8029    3.8937   -3.1887 O   0  0  0  0  0  0  0  0  0  0  0  0
   41.0447   -0.7347   -5.9085 C   0  0  2  0  0  0  0  0  0  0  0  0
   39.7798    0.0149   -5.7370 O   0  0  0  0  0  0  0  0  0  0  0  0
   47.9586    5.1976   -6.1513 C   0  0  2  0  0  0  0  0  0  0  0  0
   46.9566    5.7975   -5.2908 O   0  0  0  0  0  0  0  0  0  0  0  0
   43.0884    5.8807   -5.0645 C   0  0  2  0  0  0  0  0  0  0  0  0
   43.8936    5.2948   -4.0704 O   0  0  0  0  0  0  0  0  0  0  0  0
   45.5731    1.6900   -3.4223 C   0  0  0  0  0  0  0  0  0  0  0  0
   46.9447    2.1706   -3.5868 O   0  0  0  0  0  0  0  0  0  0  0  0
   41.2849   -1.6235   -4.6079 C   0  0  1  0  0  0  0  0  0  0  0  0
   41.4764   -0.6675   -3.4490 O   0  0  0  0  0  0  0  0  0  0  0  0
   49.1548    4.7272   -5.4276 C   0  0  0  0  0  0  0  0  0  0  0  0
   49.9475    4.0192   -6.2434 O   0  0  0  0  0  0  0  0  0  0  0  0
   41.5391    5.6362   -4.8151 C   0  0  1  0  0  0  0  0  0  0  0  0
   41.1232    6.2950   -3.6578 O   0  0  0  0  0  0  0  0  0  0  0  0
   41.7365    3.9433    0.3803 C   0  0  0  0  0  0  0  0  0  0  0  0
   40.0162   -2.5334   -4.4821 C   0  0  0  0  0  0  0  0  0  0  0  0
   40.2885   -3.7869   -3.8393 N   0  0  0  0  0  0  0  0  0  0  0  0
   40.2906    4.1995   -0.0471 C   0  0  0  0  0  0  0  0  0  0  0  0
   40.2418    5.5750   -0.5796 N   0  0  0  0  0  0  0  0  0  0  0  0
   40.9901    6.6711    0.1820 C   0  0  0  0  0  0  0  0  0  0  0  0
  1  2  1  6  0  0  0
  1  8  1  0  0  0  0
  1 33  1  0  0  0  0
  3  4  1  1  0  0  0
  3 10  1  0  0  0  0
  3 42  1  0  0  0  0
  5 11  1  0  0  0  0
  5 29  1  0  0  0  0
  5 35  1  6  0  0  0
  6 13  1  0  0  0  0
  6 39  1  0  0  0  0
  6 22  1  1  0  0  0
  7 15  1  0  0  0  0
  8  9  1  6  0  0  0
  8 17  1  0  0  0  0
 10 19  1  0  0  0  0
 11 12  1  1  0  0  0
 11 21  1  0  0  0  0
 12 44  1  0  0  0  0
 13 14  1  1  0  0  0
 13 23  1  0  0  0  0
 15 16  1  0  0  0  0
 17 18  1  6  0  0  0
 17 25  1  0  0  0  0
 19 20  1  6  0  0  0
 19 27  1  0  0  0  0
 21 22  1  1  0  0  0
 21 28  1  0  0  0  0
 23 24  1  1  0  0  0
 23 30  1  0  0  0  0
 25 26  1  6  0  0  0
 25 32  1  0  0  0  0
 27  2  1  6  0  0  0
 27 34  1  0  0  0  0
 28 29  1  0  0  0  0
 28 36  1  6  0  0  0
 30 31  1  1  0  0  0
 30 38  1  0  0  0  0
 32 33  1  0  0  0  0
 32 40  1  1  0  0  0
 34 35  1  1  0  0  0
 34 42  1  0  0  0  0
 36 37  1  0  0  0  0
 38 39  1  0  0  0  0
 38 45  1  1  0  0  0
 40 41  1  0  0  0  0
 42 43  1  1  0  0  0
 44 47  1  0  0  0  0
 45 46  1  0  0  0  0
 47 48  1  0  0  0  0
 48 49  1  0  0  0  0
 49  7  1  0  0  0  0
M  END
>  <CHROM.1>
-113.07862520,10.02878852,-27.87173641,72.58273158,174.77691623,-60.96000445
114.51799801,107.23588852,172.88114117,-73.18460797,-120.33222847,151.16103145
-46.70206049,-42.99990631,113.04988816,108.09808434,43.54459067,4.01925506
-4.49587542,-0.52690734,-0.71024490,-2.81783090

>  <Name>
2bee_lig

>  <RI>
3.71943e+07

>  <Rbt.Current_Directory>
/home/itssahil/PROJECTS/Mol_Feturizer/New_Systems/rnas/2bee

>  <Rbt.Executable>
rbdock ($Id: //depot/dev/client3/rdock/2013.1/src/exe/rbdock.cxx#4 $)

>  <Rbt.Library>
libRbt.so (2013.1, Build901 2013/11/27)

>  <Rbt.Parameter_File>
/export/apps/rDock/src/rDock_2013.1_src/data/scripts/dock_solv.prm

>  <Rbt.Receptor>
prm/pocket_docking_2.prm

>  <SCORE>
20.6917

>  <SCORE.INTER>
5.8081

>  <SCORE.INTER.CONST>
1

>  <SCORE.INTER.POLAR>
0

>  <SCORE.INTER.ROT>
16

>  <SCORE.INTER.SOLV>
10.7725

>  <SCORE.INTER.VDW>
-13.9854

>  <SCORE.INTER.norm>
0.118533

>  <SCORE.INTRA>
11.3011

>  <SCORE.INTRA.DIHEDRAL>
8.24561

>  <SCORE.INTRA.DIHEDRAL.0>
36.0842

>  <SCORE.INTRA.POLAR>
0

>  <SCORE.INTRA.POLAR.0>
0

>  <SCORE.INTRA.REPUL>
0.281868

>  <SCORE.INTRA.REPUL.0>
0

>  <SCORE.INTRA.SOLV>
2.89346

>  <SCORE.INTRA.SOLV.lig_0>
-126.444

>  <SCORE.INTRA.VDW>
4.32225

>  <SCORE.INTRA.VDW.0>
-7.40469

>  <SCORE.INTRA.norm>
0.230635

>  <SCORE.RESTR>
3.58252

>  <SCORE.RESTR.CAVITY>
3.58252

>  <SCORE.RESTR.norm>
0.0731127

>  <SCORE.SYSTEM>
0

>  <SCORE.SYSTEM.CONST>
0

>  <SCORE.SYSTEM.DIHEDRAL>
0

>  <SCORE.SYSTEM.SOLV>
0

>  <SCORE.SYSTEM.norm>
0

>  <SCORE.heavy>
49

>  <SCORE.norm>
0.422281

>  <RMSD>
7.371

$$$$
2bee_lig
 OpenBabel11021811423D
libRbt.so/2013.1/901 2013/11/27
 49 52  0  0  0  0  0  0  0  0999 V2000
   48.9881    1.4109   -5.7377 C   0  0  2  0  0  0  0  0  0  0  0  0
   47.7964    1.0912   -5.0306 O   0  0  0  0  0  0  0  0  0  0  0  0
   45.3497   -0.6039   -8.2732 C   0  0  2  0  0  0  0  0  0  0  0  0
   44.2303   -1.3131   -8.9506 N   0  0  0  0  0  0  0  0  0  0  0  0
   44.6737    3.4180   -6.2343 C   0  0  1  0  0  0  0  0  0  0  0  0
   40.8871    3.1635   -3.8422 C   0  0  1  0  0  0  0  0  0  0  0  0
   44.7919    8.9071   -9.9088 C   0  0  0  0  0  0  0  0  0  0  0  0
   50.1014    1.9102   -4.7376 C   0  0  2  0  0  0  0  0  0  0  0  0
   50.3113    0.9192   -3.6877 N   0  0  0  0  0  0  0  0  0  0  0  0
   46.0178   -1.5762   -7.1980 C   0  0  0  0  0  0  0  0  0  0  0  0
   43.2669    3.7987   -6.5640 C   0  0  2  0  0  0  0  0  0  0  0  0
   43.1775    4.7553   -7.6808 O   0  0  0  0  0  0  0  0  0  0  0  0
   39.7406    3.9316   -2.9898 C   0  0  2  0  0  0  0  0  0  0  0  0
   40.4147    4.7124   -1.8994 N   0  0  0  0  0  0  0  0  0  0  0  0
   44.8844    9.5878   -8.6723 C   0  0  0  0  0  0  0  0  0  0  0  0
   44.7612    8.8796   -7.4790 N   0  0  0  0  0  0  0  0  0  0  0  0
   49.6735    3.3197   -4.1359 C   0  0  1  0  0  0  0  0  0  0  0  0
   50.6833    3.7631   -3.2410 O   0  0  0  0  0  0  0  0  0  0  0  0
   47.2459   -0.8280   -6.4211 C   0  0  2  0  0  0  0  0  0  0  0  0
   47.8543   -1.6905   -5.4660 N   0  0  0  0  0  0  0  0  0  0  0  0
   42.8558    4.1739   -5.1608 C   0  0  2  0  0  0  0  0  0  0  0  0
   41.7669    4.2095   -4.3194 O   0  0  0  0  0  0  0  0  0  0  0  0
   38.7677    2.8574   -2.3854 C   0  0  1  0  0  0  0  0  0  0  0  0
   38.1400    2.1507   -3.5115 O   0  0  0  0  0  0  0  0  0  0  0  0
   49.4720    4.3237   -5.2946 C   0  0  2  0  0  0  0  0  0  0  0  0
   49.0556    5.6520   -4.7767 O   0  0  0  0  0  0  0  0  0  0  0  0
   46.7108    0.4694   -5.6989 C   0  0  2  0  0  0  0  0  0  0  0  0
   44.1912    4.8448   -4.5656 C   0  0  2  0  0  0  0  0  0  0  0  0
   45.1582    4.0516   -5.0849 O   0  0  0  0  0  0  0  0  0  0  0  0
   39.6184    1.8385   -1.4358 C   0  0  2  0  0  0  0  0  0  0  0  0
   40.2475    2.5615   -0.3075 O   0  0  0  0  0  0  0  0  0  0  0  0
   48.3699    3.8146   -6.2826 C   0  0  2  0  0  0  0  0  0  0  0  0
   48.8364    2.5184   -6.7371 O   0  0  0  0  0  0  0  0  0  0  0  0
   46.0646    1.3841   -6.7936 C   0  0  2  0  0  0  0  0  0  0  0  0
   45.6484    2.5057   -6.0529 O   0  0  0  0  0  0  0  0  0  0  0  0
   44.3947    4.8245   -3.0055 C   0  0  0  0  0  0  0  0  0  0  0  0
   45.1636    6.0010   -2.6003 O   0  0  0  0  0  0  0  0  0  0  0  0
   40.7664    1.1300   -2.2840 C   0  0  1  0  0  0  0  0  0  0  0  0
   41.6248    2.2309   -2.8712 O   0  0  0  0  0  0  0  0  0  0  0  0
   48.2632    4.8161   -7.3602 C   0  0  0  0  0  0  0  0  0  0  0  0
   49.3922    4.8507   -8.0810 O   0  0  0  0  0  0  0  0  0  0  0  0
   44.8550    0.6445   -7.5092 C   0  0  1  0  0  0  0  0  0  0  0  0
   44.2937    1.4654   -8.4876 O   0  0  0  0  0  0  0  0  0  0  0  0
   41.9256    5.2268   -8.2951 C   0  0  0  0  0  0  0  0  0  0  0  0
   41.5217    0.2019   -1.2735 C   0  0  0  0  0  0  0  0  0  0  0  0
   40.7383   -0.9255   -0.8564 N   0  0  0  0  0  0  0  0  0  0  0  0
   42.2492    5.9763   -9.5883 C   0  0  0  0  0  0  0  0  0  0  0  0
   43.1428    7.0920   -9.2211 N   0  0  0  0  0  0  0  0  0  0  0  0
   43.4202    8.1705  -10.2705 C   0  0  0  0  0  0  0  0  0  0  0  0
  1  2  1  1  0  0  0
  1  8  1  0  0  0  0
  1 33  1  0  0  0  0
  3  4  1  1  0  0  0
  3 10  1  0  0  0  0
  3 42  1  0  0  0  0
  5 11  1  0  0  0  0
  5 29  1  0  0  0  0
  5 35  1  1  0  0  0
  6 13  1  0  0  0  0
  6 39  1  0  0  0  0
  6 22  1  1  0  0  0
  7 15  1  0  0  0  0
  8  9  1  1  0  0  0
  8 17  1  0  0  0  0
 10 19  1  0  0  0  0
 11 12  1  6  0  0  0
 11 21  1  0  0  0  0
 12 44  1  0  0  0  0
 13 14  1  1  0  0  0
 13 23  1  0  0  0  0
 15 16  1  0  0  0  0
 17 18  1  1  0  0  0
 17 25  1  0  0  0  0
 19 20  1  1  0  0  0
 19 27  1  0  0  0  0
 21 22  1  6  0  0  0
 21 28  1  0  0  0  0
 23 24  1  6  0  0  0
 23 30  1  0  0  0  0
 25 26  1  1  0  0  0
 25 32  1  0  0  0  0
 27  2  1  6  0  0  0
 27 34  1  0  0  0  0
 28 29  1  0  0  0  0
 28 36  1  1  0  0  0
 30 31  1  1  0  0  0
 30 38  1  0  0  0  0
 32 33  1  0  0  0  0
 32 40  1  6  0  0  0
 34 35  1  1  0  0  0
 34 42  1  0  0  0  0
 36 37  1  0  0  0  0
 38 39  1  0  0  0  0
 38 45  1  1  0  0  0
 40 41  1  0  0  0  0
 42 43  1  6  0  0  0
 44 47  1  0  0  0  0
 45 46  1  0  0  0  0
 47 48  1  0  0  0  0
 48 49  1  0  0  0  0
 49  7  1  0  0  0  0
M  END
>  <CHROM.1>
-172.40163574,46.03275053,-175.07834469,62.39069702,174.91358600,-168.57336822
59.64289321,53.49371569,-149.59719394,66.03891800,-153.55389091,70.03053136
-58.54953926,-168.64628952,-157.59900677,-61.00488756,44.73571423,3.22787403
-5.46355519,-0.32776127,-0.31446742,2.53055330

>  <Name>
2bee_lig

>  <RI>
0

>  <Rbt.Current_Directory>
/home/itssahil/PROJECTS/Mol_Feturizer/New_Systems/rnas/2bee

>  <Rbt.Executable>
rbdock ($Id: //depot/dev/client3/rdock/2013.1/src/exe/rbdock.cxx#4 $)

>  <Rbt.Library>
libRbt.so (2013.1, Build901 2013/11/27)

>  <Rbt.Parameter_File>
/export/apps/rDock/src/rDock_2013.1_src/data/scripts/dock_solv.prm

>  <Rbt.Receptor>
prm/pocket_docking_8.prm

>  <SCORE>
-19.3788

>  <SCORE.INTER>
-9.2572

>  <SCORE.INTER.CONST>
1

>  <SCORE.INTER.POLAR>
-2.55267

>  <SCORE.INTER.ROT>
16

>  <SCORE.INTER.SOLV>
19.8977

>  <SCORE.INTER.VDW>
-18.5618

>  <SCORE.INTER.norm>
-0.188923

>  <SCORE.INTRA>
-10.1216

>  <SCORE.INTRA.DIHEDRAL>
-21.623

>  <SCORE.INTRA.DIHEDRAL.0>
36.0842

>  <SCORE.INTRA.POLAR>
0

>  <SCORE.INTRA.POLAR.0>
0

>  <SCORE.INTRA.REPUL>
0

>  <SCORE.INTRA.REPUL.0>
0

>  <SCORE.INTRA.SOLV>
-0.472662

>  <SCORE.INTRA.SOLV.lig_0>
-126.444

>  <SCORE.INTRA.VDW>
0.926227

>  <SCORE.INTRA.VDW.0>
-7.40469

>  <SCORE.INTRA.norm>
-0.206563

>  <SCORE.RESTR>
0

>  <SCORE.RESTR.CAVITY>
0

>  <SCORE.RESTR.norm>
0

>  <SCORE.SYSTEM>
0

>  <SCORE.SYSTEM.CONST>
0

>  <SCORE.SYSTEM.DIHEDRAL>
0

>  <SCORE.SYSTEM.SOLV>
0

>  <SCORE.SYSTEM.norm>
0

>  <SCORE.heavy>
49

>  <SCORE.norm>
-0.395485

>  <RMSD>
7.401

$$$$
2bee_lig
 OpenBabel11021811423D
libRbt.so/2013.1/901 2013/11/27
 49 52  0  0  0  0  0  0  0  0999 V2000
   44.3157   11.1908  -11.6732 C   0  0  2  0  0  0  0  0  0  0  0  0
   44.9708   12.2230  -10.9470 O   0  0  0  0  0  0  0  0  0  0  0  0
   49.2280   11.3801  -11.6821 C   0  0  2  0  0  0  0  0  0  0  0  0
   50.7054   11.4057  -11.5048 N   0  0  0  0  0  0  0  0  0  0  0  0
   46.3199    9.0113   -8.9322 C   0  0  1  0  0  0  0  0  0  0  0  0
   43.5016    7.3180   -5.7377 C   0  0  1  0  0  0  0  0  0  0  0  0
   50.7739    4.8706   -5.4871 C   0  0  0  0  0  0  0  0  0  0  0  0
   44.8624   11.1291  -13.1518 C   0  0  2  0  0  0  0  0  0  0  0  0
   46.3142   10.9849  -13.1425 N   0  0  0  0  0  0  0  0  0  0  0  0
   48.6855   12.8755  -11.8143 C   0  0  0  0  0  0  0  0  0  0  0  0
   46.3333    8.1780   -7.6920 C   0  0  2  0  0  0  0  0  0  0  0  0
   47.5214    7.3123   -7.5947 O   0  0  0  0  0  0  0  0  0  0  0  0
   44.7822    6.7896   -4.8939 C   0  0  2  0  0  0  0  0  0  0  0  0
   45.0453    5.3655   -5.2884 N   0  0  0  0  0  0  0  0  0  0  0  0
   49.7486    4.5252   -4.5759 C   0  0  0  0  0  0  0  0  0  0  0  0
   48.4191    4.5305   -4.9920 N   0  0  0  0  0  0  0  0  0  0  0  0
   44.4087   12.4378  -13.9350 C   0  0  1  0  0  0  0  0  0  0  0  0
   44.9011   12.3711  -15.2654 O   0  0  0  0  0  0  0  0  0  0  0  0
   47.0613   12.8908  -11.9976 C   0  0  2  0  0  0  0  0  0  0  0  0
   46.5687   14.2202  -12.1255 N   0  0  0  0  0  0  0  0  0  0  0  0
   44.9447    7.6078   -7.8516 C   0  0  2  0  0  0  0  0  0  0  0  0
   43.8688    7.1463   -7.1275 O   0  0  0  0  0  0  0  0  0  0  0  0
   44.4442    6.8898   -3.3635 C   0  0  1  0  0  0  0  0  0  0  0  0
   44.2161    8.3095   -3.0565 O   0  0  0  0  0  0  0  0  0  0  0  0
   42.8652   12.5300  -13.9132 C   0  0  2  0  0  0  0  0  0  0  0  0
   42.3985   13.7490  -14.6220 O   0  0  0  0  0  0  0  0  0  0  0  0
   46.3766   12.1882  -10.7612 C   0  0  2  0  0  0  0  0  0  0  0  0
   44.8178    7.4191   -9.4440 C   0  0  2  0  0  0  0  0  0  0  0  0
   45.4410    8.5284   -9.9078 O   0  0  0  0  0  0  0  0  0  0  0  0
   43.1222    5.9868   -3.0470 C   0  0  2  0  0  0  0  0  0  0  0  0
   43.3629    4.5605   -3.3622 O   0  0  0  0  0  0  0  0  0  0  0  0
   42.3348   12.5846  -12.4416 C   0  0  2  0  0  0  0  0  0  0  0  0
   42.8343   11.3766  -11.8126 O   0  0  0  0  0  0  0  0  0  0  0  0
   46.9440   10.7311  -10.6750 C   0  0  2  0  0  0  0  0  0  0  0  0
   46.2577   10.1973   -9.5687 O   0  0  0  0  0  0  0  0  0  0  0  0
   43.3766    7.4264  -10.0753 C   0  0  0  0  0  0  0  0  0  0  0  0
   42.8696    8.7979  -10.1132 O   0  0  0  0  0  0  0  0  0  0  0  0
   41.8900    6.4955   -3.9200 C   0  0  1  0  0  0  0  0  0  0  0  0
   42.3146    6.4159   -5.3715 O   0  0  0  0  0  0  0  0  0  0  0  0
   40.8631   12.6468  -12.5174 C   0  0  0  0  0  0  0  0  0  0  0  0
   40.4240   12.0238  -13.6194 O   0  0  0  0  0  0  0  0  0  0  0  0
   48.5181   10.7467  -10.4649 C   0  0  1  0  0  0  0  0  0  0  0  0
   49.0125    9.4438  -10.3985 O   0  0  0  0  0  0  0  0  0  0  0  0
   47.7510    6.0952   -8.3903 C   0  0  0  0  0  0  0  0  0  0  0  0
   40.6967    5.5504   -3.5512 C   0  0  0  0  0  0  0  0  0  0  0  0
   39.8474    6.0942   -2.5306 N   0  0  0  0  0  0  0  0  0  0  0  0
   48.8068    5.2319   -7.6982 C   0  0  0  0  0  0  0  0  0  0  0  0
   50.0379    6.0425   -7.6253 N   0  0  0  0  0  0  0  0  0  0  0  0
   50.6720    6.2707   -6.2516 C   0  0  0  0  0  0  0  0  0  0  0  0
  1  2  1  1  0  0  0
  1  8  1  0  0  0  0
  1 33  1  0  0  0  0
  3  4  1  1  0  0  0
  3 10  1  0  0  0  0
  3 42  1  0  0  0  0
  5 11  1  0  0  0  0
  5 29  1  0  0  0  0
  5 35  1  1  0  0  0
  6 13  1  0  0  0  0
  6 39  1  0  0  0  0
  6 22  1  6  0  0  0
  7 15  1  0  0  0  0
  8  9  1  1  0  0  0
  8 17  1  0  0  0  0
 10 19  1  0  0  0  0
 11 12  1  6  0  0  0
 11 21  1  0  0  0  0
 12 44  1  0  0  0  0
 13 14  1  6  0  0  0
 13 23  1  0  0  0  0
 15 16  1  0  0  0  0
 17 18  1  6  0  0  0
 17 25  1  0  0  0  0
 19 20  1  1  0  0  0
 19 27  1  0  0  0  0
 21 22  1  1  0  0  0
 21 28  1  0  0  0  0
 23 24  1  6  0  0  0
 23 30  1  0  0  0  0
 25 26  1  6  0  0  0
 25 32  1  0  0  0  0
 27  2  1  6  0  0  0
 27 34  1  0  0  0  0
 28 29  1  0  0  0  0
 28 36  1  1  0  0  0
 30 31  1  6  0  0  0
 30 38  1  0  0  0  0
 32 33  1  0  0  0  0
 32 40  1  6  0  0  0
 34 35  1  1  0  0  0
 34 42  1  0  0  0  0
 36 37  1  0  0  0  0
 38 39  1  0  0  0  0
 38 45  1  6  0  0  0
 40 41  1  0  0  0  0
 42 43  1  6  0  0  0
 44 47  1  0  0  0  0
 45 46  1  0  0  0  0
 47 48  1  0  0  0  0
 48 49  1  0  0  0  0
 49  7  1  0  0  0  0
M  END
>  <CHROM.1>
-60.58613454,138.53341914,-55.70059446,54.38017223,-73.75448994,-160.69789917
17.66560023,87.40411928,75.20133056,29.48159211,-176.96501167,95.47699889
-60.45580118,124.00536899,48.01234723,-95.99862906,45.38834054,8.98210076
-8.91018891,1.61000460,0.12600437,-0.91058925

>  <Name>
2bee_lig

>  <RI>
0

>  <Rbt.Current_Directory>
/home/itssahil/PROJECTS/Mol_Feturizer/New_Systems/rnas/2bee

>  <Rbt.Executable>
rbdock ($Id: //depot/dev/client3/rdock/2013.1/src/exe/rbdock.cxx#4 $)

>  <Rbt.Library>
libRbt.so (2013.1, Build901 2013/11/27)

>  <Rbt.Parameter_File>
/export/apps/rDock/src/rDock_2013.1_src/data/scripts/dock_solv.prm

>  <Rbt.Receptor>
prm/blind_docking_60.prm

>  <SCORE>
32.6771

>  <SCORE.INTER>
-7.60477

>  <SCORE.INTER.CONST>
1

>  <SCORE.INTER.POLAR>
-0.621064

>  <SCORE.INTER.ROT>
16

>  <SCORE.INTER.SOLV>
24.0324

>  <SCORE.INTER.VDW>
-25.2771

>  <SCORE.INTER.norm>
-0.155199

>  <SCORE.INTRA>
15.4107

>  <SCORE.INTRA.DIHEDRAL>
-10.0106

>  <SCORE.INTRA.DIHEDRAL.0>
36.0842

>  <SCORE.INTRA.POLAR>
0

>  <SCORE.INTRA.POLAR.0>
0

>  <SCORE.INTRA.REPUL>
0.460714

>  <SCORE.INTRA.REPUL.0>
0

>  <SCORE.INTRA.SOLV>
10.9295

>  <SCORE.INTRA.SOLV.lig_0>
-126.444

>  <SCORE.INTRA.VDW>
12.6477

>  <SCORE.INTRA.VDW.0>
-7.40469

>  <SCORE.INTRA.norm>
0.314504

>  <SCORE.RESTR>
24.8712

>  <SCORE.RESTR.CAVITY>
24.8712

>  <SCORE.RESTR.norm>
0.507575

>  <SCORE.SYSTEM>
0

>  <SCORE.SYSTEM.CONST>
0

>  <SCORE.SYSTEM.DIHEDRAL>
0

>  <SCORE.SYSTEM.SOLV>
0

>  <SCORE.SYSTEM.norm>
0

>  <SCORE.heavy>
49

>  <SCORE.norm>
0.66688

>  <RMSD>
7.417

$$$$
2bee_lig
 OpenBabel11021811423D
libRbt.so/2013.1/901 2013/11/27
 49 52  0  0  0  0  0  0  0  0999 V2000
   43.8902    6.2714   -5.9887 C   0  0  2  0  0  0  0  0  0  0  0  0
   43.1853    7.2300   -5.2101 O   0  0  0  0  0  0  0  0  0  0  0  0
   42.6934    7.2015   -0.8362 C   0  0  2  0  0  0  0  0  0  0  0  0
   42.1259    6.8784    0.5011 N   0  0  0  0  0  0  0  0  0  0  0  0
   43.6480    4.0092   -4.0317 C   0  0  1  0  0  0  0  0  0  0  0  0
   44.5734   -0.3234   -5.9026 C   0  0  1  0  0  0  0  0  0  0  0  0
   38.2261    1.3171   -2.2153 C   0  0  0  0  0  0  0  0  0  0  0  0
   44.8524    6.9944   -7.0087 C   0  0  2  0  0  0  0  0  0  0  0  0
   45.7368    7.9114   -6.2978 N   0  0  0  0  0  0  0  0  0  0  0  0
   41.5537    7.8389   -1.7542 C   0  0  0  0  0  0  0  0  0  0  0  0
   43.1312    3.0359   -5.0407 C   0  0  2  0  0  0  0  0  0  0  0  0
   41.7094    2.7047   -4.8435 O   0  0  0  0  0  0  0  0  0  0  0  0
   45.6536   -0.7471   -7.0361 C   0  0  2  0  0  0  0  0  0  0  0  0
   45.5536    0.2358   -8.1661 N   0  0  0  0  0  0  0  0  0  0  0  0
   36.8170    1.1932   -2.2243 C   0  0  0  0  0  0  0  0  0  0  0  0
   36.1462    0.8122   -1.0643 N   0  0  0  0  0  0  0  0  0  0  0  0
   43.9827    7.7513   -8.1054 C   0  0  1  0  0  0  0  0  0  0  0  0
   44.8568    8.3949   -9.0212 O   0  0  0  0  0  0  0  0  0  0  0  0
   42.1353    8.1962   -3.2393 C   0  0  2  0  0  0  0  0  0  0  0  0
   41.1281    8.7737   -4.0630 N   0  0  0  0  0  0  0  0  0  0  0  0
   44.2201    2.0059   -4.8610 C   0  0  2  0  0  0  0  0  0  0  0  0
   44.9207    1.0343   -5.5394 O   0  0  0  0  0  0  0  0  0  0  0  0
   45.3126   -2.1986   -7.5292 C   0  0  1  0  0  0  0  0  0  0  0  0
   45.4475   -3.0976   -6.3737 O   0  0  0  0  0  0  0  0  0  0  0  0
   43.0735    6.7275   -8.8241 C   0  0  2  0  0  0  0  0  0  0  0  0
   42.2310    7.3963   -9.8482 O   0  0  0  0  0  0  0  0  0  0  0  0
   42.6946    6.8886   -3.9238 C   0  0  2  0  0  0  0  0  0  0  0  0
   44.5222    2.0784   -3.2828 C   0  0  2  0  0  0  0  0  0  0  0  0
   44.4326    3.4080   -3.0415 O   0  0  0  0  0  0  0  0  0  0  0  0
   43.7956   -2.2170   -8.1308 C   0  0  2  0  0  0  0  0  0  0  0  0
   43.6714   -1.3067   -9.2916 O   0  0  0  0  0  0  0  0  0  0  0  0
   42.1284    6.0129   -7.8014 C   0  0  2  0  0  0  0  0  0  0  0  0
   43.0142    5.3950   -6.8330 O   0  0  0  0  0  0  0  0  0  0  0  0
   43.8027    6.3035   -2.9845 C   0  0  2  0  0  0  0  0  0  0  0  0
   44.2421    5.1703   -3.6935 O   0  0  0  0  0  0  0  0  0  0  0  0
   45.9468    1.6347   -2.7832 C   0  0  0  0  0  0  0  0  0  0  0  0
   46.1551    0.2222   -3.1011 O   0  0  0  0  0  0  0  0  0  0  0  0
   42.7580   -1.7545   -7.0135 C   0  0  1  0  0  0  0  0  0  0  0  0
   43.1859   -0.3751   -6.5575 O   0  0  0  0  0  0  0  0  0  0  0  0
   41.3209    5.0445   -8.5668 C   0  0  0  0  0  0  0  0  0  0  0  0
   40.5284    5.6815   -9.4394 O   0  0  0  0  0  0  0  0  0  0  0  0
   43.2033    5.9357   -1.5605 C   0  0  1  0  0  0  0  0  0  0  0  0
   44.2012    5.4242   -0.7305 O   0  0  0  0  0  0  0  0  0  0  0  0
   41.1521    2.0315   -3.6589 C   0  0  0  0  0  0  0  0  0  0  0  0
   41.3533   -1.7909   -7.7053 C   0  0  0  0  0  0  0  0  0  0  0  0
   40.2809   -1.4595   -6.8115 N   0  0  0  0  0  0  0  0  0  0  0  0
   41.1120    3.0175   -2.4905 C   0  0  0  0  0  0  0  0  0  0  0  0
   40.4063    2.3395   -1.3858 N   0  0  0  0  0  0  0  0  0  0  0  0
   38.8828    2.4648   -1.3174 C   0  0  0  0  0  0  0  0  0  0  0  0
  1  2  1  6  0  0  0
  1  8  1  0  0  0  0
  1 33  1  0  0  0  0
  3  4  1  1  0  0  0
  3 10  1  0  0  0  0
  3 42  1  0  0  0  0
  5 11  1  0  0  0  0
  5 29  1  0  0  0  0
  5 35  1  6  0  0  0
  6 13  1  0  0  0  0
  6 39  1  0  0  0  0
  6 22  1  6  0  0  0
  7 15  1  0  0  0  0
  8  9  1  1  0  0  0
  8 17  1  0  0  0  0
 10 19  1  0  0  0  0
 11 12  1  1  0  0  0
 11 21  1  0  0  0  0
 12 44  1  0  0  0  0
 13 14  1  6  0  0  0
 13 23  1  0  0  0  0
 15 16  1  0  0  0  0
 17 18  1  6  0  0  0
 17 25  1  0  0  0  0
 19 20  1  6  0  0  0
 19 27  1  0  0  0  0
 21 22  1  1  0  0  0
 21 28  1  0  0  0  0
 23 24  1  1  0  0  0
 23 30  1  0  0  0  0
 25 26  1  6  0  0  0
 25 32  1  0  0  0  0
 27  2  1  6  0  0  0
 27 34  1  0  0  0  0
 28 29  1  0  0  0  0
 28 36  1  6  0  0  0
 30 31  1  6  0  0  0
 30 38  1  0  0  0  0
 32 33  1  0  0  0  0
 32 40  1  6  0  0  0
 34 35  1  6  0  0  0
 34 42  1  0  0  0  0
 36 37  1  0  0  0  0
 38 39  1  0  0  0  0
 38 45  1  6  0  0  0
 40 41  1  0  0  0  0
 42 43  1  1  0  0  0
 44 47  1  0  0  0  0
 45 46  1  0  0  0  0
 47 48  1  0  0  0  0
 48 49  1  0  0  0  0
 49  7  1  0  0  0  0
M  END
>  <CHROM.1>
-154.79345786,116.67491769,164.11013431,-65.96381541,-63.22704767,74.41841488
-79.05672047,172.62152244,-62.41371742,-64.39913855,-65.94074861,177.18746879
173.63147536,-88.44323589,86.72556930,175.88436680,42.85977364,3.41019178
-5.05967899,-1.75961496,-1.07530410,-3.03541209

>  <Name>
2bee_lig

>  <RI>
0

>  <Rbt.Current_Directory>
/home/itssahil/PROJECTS/Mol_Feturizer/New_Systems/rnas/2bee

>  <Rbt.Executable>
rbdock ($Id: //depot/dev/client3/rdock/2013.1/src/exe/rbdock.cxx#4 $)

>  <Rbt.Library>
libRbt.so (2013.1, Build901 2013/11/27)

>  <Rbt.Parameter_File>
/export/apps/rDock/src/rDock_2013.1_src/data/scripts/dock_solv.prm

>  <Rbt.Receptor>
prm/pocket_docking_5.prm

>  <SCORE>
-5.47431

>  <SCORE.INTER>
1.9255

>  <SCORE.INTER.CONST>
1

>  <SCORE.INTER.POLAR>
-0.732317

>  <SCORE.INTER.ROT>
16

>  <SCORE.INTER.SOLV>
17.31

>  <SCORE.INTER.VDW>
-16.3119

>  <SCORE.INTER.norm>
0.039296

>  <SCORE.INTRA>
-7.39982

>  <SCORE.INTRA.DIHEDRAL>
-18.4508

>  <SCORE.INTRA.DIHEDRAL.0>
36.0842

>  <SCORE.INTRA.POLAR>
0

>  <SCORE.INTRA.POLAR.0>
0

>  <SCORE.INTRA.REPUL>
0

>  <SCORE.INTRA.REPUL.0>
0

>  <SCORE.INTRA.SOLV>
-3.42925

>  <SCORE.INTRA.SOLV.lig_0>
-126.444

>  <SCORE.INTRA.VDW>
3.54022

>  <SCORE.INTRA.VDW.0>
-7.40469

>  <SCORE.INTRA.norm>
-0.151017

>  <SCORE.RESTR>
0

>  <SCORE.RESTR.CAVITY>
0

>  <SCORE.RESTR.norm>
0

>  <SCORE.SYSTEM>
0

>  <SCORE.SYSTEM.CONST>
0

>  <SCORE.SYSTEM.DIHEDRAL>
0

>  <SCORE.SYSTEM.SOLV>
0

>  <SCORE.SYSTEM.norm>
0

>  <SCORE.heavy>
49

>  <SCORE.norm>
-0.111721

>  <RMSD>
7.419

$$$$
2bee_lig
 OpenBabel11021811423D
libRbt.so/2013.1/901 2013/11/27
 49 52  0  0  0  0  0  0  0  0999 V2000
   48.5852    3.8761   -9.5056 C   0  0  2  0  0  0  0  0  0  0  0  0
   47.7116    2.7678   -9.3303 O   0  0  0  0  0  0  0  0  0  0  0  0
   43.7962    4.7629   -9.5833 C   0  0  2  0  0  0  0  0  0  0  0  0
   42.3219    4.9315   -9.6957 N   0  0  0  0  0  0  0  0  0  0  0  0
   45.7673    3.1223   -5.7750 C   0  0  1  0  0  0  0  0  0  0  0  0
   43.0778    0.3331   -3.2215 C   0  0  1  0  0  0  0  0  0  0  0  0
   43.0757    6.1030    1.6635 C   0  0  0  0  0  0  0  0  0  0  0  0
   50.0748    3.3803   -9.6612 C   0  0  2  0  0  0  0  0  0  0  0  0
   50.1672    2.4062  -10.7434 N   0  0  0  0  0  0  0  0  0  0  0  0
   44.3260    3.9049  -10.8207 C   0  0  0  0  0  0  0  0  0  0  0  0
   44.7180    3.0848   -4.7119 C   0  0  2  0  0  0  0  0  0  0  0  0
   44.7613    4.2570   -3.8206 O   0  0  0  0  0  0  0  0  0  0  0  0
   43.0224   -1.2585   -2.9134 C   0  0  2  0  0  0  0  0  0  0  0  0
   43.4319   -1.9891   -4.1591 N   0  0  0  0  0  0  0  0  0  0  0  0
   41.6935    6.3661    1.8093 C   0  0  0  0  0  0  0  0  0  0  0  0
   41.2411    7.1254    2.8861 N   0  0  0  0  0  0  0  0  0  0  0  0
   50.5725    2.7692   -8.2788 C   0  0  1  0  0  0  0  0  0  0  0  0
   51.9150    2.3302   -8.4271 O   0  0  0  0  0  0  0  0  0  0  0  0
   45.9430    3.6857  -10.7265 C   0  0  2  0  0  0  0  0  0  0  0  0
   46.4266    2.9289  -11.8310 N   0  0  0  0  0  0  0  0  0  0  0  0
   45.0273    1.6942   -4.2126 C   0  0  2  0  0  0  0  0  0  0  0  0
   44.4404    0.5895   -3.6380 O   0  0  0  0  0  0  0  0  0  0  0  0
   41.5534   -1.6344   -2.5051 C   0  0  1  0  0  0  0  0  0  0  0  0
   41.2363   -0.8933   -1.2755 O   0  0  0  0  0  0  0  0  0  0  0  0
   50.4547    3.8485   -7.1777 C   0  0  2  0  0  0  0  0  0  0  0  0
   50.8956    3.3137   -5.8641 O   0  0  0  0  0  0  0  0  0  0  0  0
   46.3055    2.9481   -9.3790 C   0  0  2  0  0  0  0  0  0  0  0  0
   46.6283    1.6154   -4.3464 C   0  0  2  0  0  0  0  0  0  0  0  0
   46.8441    2.2683   -5.5131 O   0  0  0  0  0  0  0  0  0  0  0  0
   40.5414   -1.2389   -3.7228 C   0  0  2  0  0  0  0  0  0  0  0  0
   40.8718   -1.9890   -4.9555 O   0  0  0  0  0  0  0  0  0  0  0  0
   48.9741    4.3363   -7.0370 C   0  0  2  0  0  0  0  0  0  0  0  0
   48.6110    4.8324   -8.3510 O   0  0  0  0  0  0  0  0  0  0  0  0
   45.7626    3.8265   -8.2017 C   0  0  2  0  0  0  0  0  0  0  0  0
   46.1564    3.0969   -7.0648 O   0  0  0  0  0  0  0  0  0  0  0  0
   47.2861    0.1952   -4.5077 C   0  0  0  0  0  0  0  0  0  0  0  0
   48.7398    0.3180   -4.4014 O   0  0  0  0  0  0  0  0  0  0  0  0
   40.6463    0.3198   -4.0372 C   0  0  1  0  0  0  0  0  0  0  0  0
   42.0958    0.6065   -4.3694 O   0  0  0  0  0  0  0  0  0  0  0  0
   48.9614    5.3739   -5.9888 C   0  0  0  0  0  0  0  0  0  0  0  0
   49.6888    6.4329   -6.3690 O   0  0  0  0  0  0  0  0  0  0  0  0
   44.1866    3.9960   -8.3001 C   0  0  1  0  0  0  0  0  0  0  0  0
   43.7163    4.7871   -7.2517 O   0  0  0  0  0  0  0  0  0  0  0  0
   43.8963    4.4623   -2.6473 C   0  0  0  0  0  0  0  0  0  0  0  0
   39.6568    0.5754   -5.2240 C   0  0  0  0  0  0  0  0  0  0  0  0
   39.5782    1.9581   -5.5988 N   0  0  0  0  0  0  0  0  0  0  0  0
   44.2514    5.7948   -1.9859 C   0  0  0  0  0  0  0  0  0  0  0  0
   43.3033    5.9818   -0.8704 N   0  0  0  0  0  0  0  0  0  0  0  0
   43.5534    5.2099    0.4269 C   0  0  0  0  0  0  0  0  0  0  0  0
  1  2  1  1  0  0  0
  1  8  1  0  0  0  0
  1 33  1  0  0  0  0
  3  4  1  6  0  0  0
  3 10  1  0  0  0  0
  3 42  1  0  0  0  0
  5 11  1  0  0  0  0
  5 29  1  0  0  0  0
  5 35  1  6  0  0  0
  6 13  1  0  0  0  0
  6 39  1  0  0  0  0
  6 22  1  6  0  0  0
  7 15  1  0  0  0  0
  8  9  1  6  0  0  0
  8 17  1  0  0  0  0
 10 19  1  0  0  0  0
 11 12  1  1  0  0  0
 11 21  1  0  0  0  0
 12 44  1  0  0  0  0
 13 14  1  6  0  0  0
 13 23  1  0  0  0  0
 15 16  1  0  0  0  0
 17 18  1  6  0  0  0
 17 25  1  0  0  0  0
 19 20  1  6  0  0  0
 19 27  1  0  0  0  0
 21 22  1  1  0  0  0
 21 28  1  0  0  0  0
 23 24  1  1  0  0  0
 23 30  1  0  0  0  0
 25 26  1  1  0  0  0
 25 32  1  0  0  0  0
 27  2  1  1  0  0  0
 27 34  1  0  0  0  0
 28 29  1  0  0  0  0
 28 36  1  6  0  0  0
 30 31  1  6  0  0  0
 30 38  1  0  0  0  0
 32 33  1  0  0  0  0
 32 40  1  1  0  0  0
 34 35  1  1  0  0  0
 34 42  1  0  0  0  0
 36 37  1  0  0  0  0
 38 39  1  0  0  0  0
 38 45  1  6  0  0  0
 40 41  1  0  0  0  0
 42 43  1  1  0  0  0
 44 47  1  0  0  0  0
 45 46  1  0  0  0  0
 47 48  1  0  0  0  0
 48 49  1  0  0  0  0
 49  7  1  0  0  0  0
M  END
>  <CHROM.1>
-170.07528038,51.79770999,168.71341235,179.11194025,-176.87939889,179.89124159
-1.01478035,53.36278208,-171.17511702,63.88360071,-162.66759343,177.23554469
176.73196504,78.32451637,146.35488084,67.31568719,45.26671966,2.80193622
-5.51760410,-0.58566211,0.61556257,1.02252852

>  <Name>
2bee_lig

>  <RI>
0

>  <Rbt.Current_Directory>
/home/itssahil/PROJECTS/Mol_Feturizer/New_Systems/rnas/2bee

>  <Rbt.Executable>
rbdock ($Id: //depot/dev/client3/rdock/2013.1/src/exe/rbdock.cxx#4 $)

>  <Rbt.Library>
libRbt.so (2013.1, Build901 2013/11/27)

>  <Rbt.Parameter_File>
/export/apps/rDock/src/rDock_2013.1_src/data/scripts/dock_solv.prm

>  <Rbt.Receptor>
prm/pocket_docking_6.prm

>  <SCORE>
-14.1133

>  <SCORE.INTER>
0.266212

>  <SCORE.INTER.CONST>
1

>  <SCORE.INTER.POLAR>
0

>  <SCORE.INTER.ROT>
16

>  <SCORE.INTER.SOLV>
11.8184

>  <SCORE.INTER.VDW>
-18.0287

>  <SCORE.INTER.norm>
0.00543291

>  <SCORE.INTRA>
-14.3795

>  <SCORE.INTRA.DIHEDRAL>
-27.7752

>  <SCORE.INTRA.DIHEDRAL.0>
36.0842

>  <SCORE.INTRA.POLAR>
0

>  <SCORE.INTRA.POLAR.0>
0

>  <SCORE.INTRA.REPUL>
0

>  <SCORE.INTRA.REPUL.0>
0

>  <SCORE.INTRA.SOLV>
-3.64803

>  <SCORE.INTRA.SOLV.lig_0>
-126.444

>  <SCORE.INTRA.VDW>
1.3321

>  <SCORE.INTRA.VDW.0>
-7.40469

>  <SCORE.INTRA.norm>
-0.29346

>  <SCORE.RESTR>
0

>  <SCORE.RESTR.CAVITY>
0

>  <SCORE.RESTR.norm>
0

>  <SCORE.SYSTEM>
0

>  <SCORE.SYSTEM.CONST>
0

>  <SCORE.SYSTEM.DIHEDRAL>
0

>  <SCORE.SYSTEM.SOLV>
0

>  <SCORE.SYSTEM.norm>
0

>  <SCORE.heavy>
49

>  <SCORE.norm>
-0.288027

>  <RMSD>
7.446

$$$$
2bee_lig
 OpenBabel11021811423D
libRbt.so/2013.1/901 2013/11/27
 49 52  0  0  0  0  0  0  0  0999 V2000
   44.0538    7.2238   -5.5748 C   0  0  2  0  0  0  0  0  0  0  0  0
   43.0873    6.5599   -4.7702 O   0  0  0  0  0  0  0  0  0  0  0  0
   44.2312    7.5175   -0.6292 C   0  0  2  0  0  0  0  0  0  0  0  0
   44.0934    7.8964    0.8034 N   0  0  0  0  0  0  0  0  0  0  0  0
   42.6130    3.5404   -2.0842 C   0  0  1  0  0  0  0  0  0  0  0  0
   42.0106   -0.6578   -3.7196 C   0  0  1  0  0  0  0  0  0  0  0  0
   40.4405    6.7703    2.0902 C   0  0  0  0  0  0  0  0  0  0  0  0
   43.8745    6.8224   -7.0899 C   0  0  2  0  0  0  0  0  0  0  0  0
   42.5038    7.0817   -7.5171 N   0  0  0  0  0  0  0  0  0  0  0  0
   43.5544    8.6397   -1.5404 C   0  0  0  0  0  0  0  0  0  0  0  0
   41.7238    2.3659   -1.8341 C   0  0  2  0  0  0  0  0  0  0  0  0
   41.0922    2.3968   -0.5036 O   0  0  0  0  0  0  0  0  0  0  0  0
   42.7526   -0.4147   -5.1414 C   0  0  2  0  0  0  0  0  0  0  0  0
   42.8509    1.0657   -5.3690 N   0  0  0  0  0  0  0  0  0  0  0  0
   39.2443    7.4534    2.4114 C   0  0  0  0  0  0  0  0  0  0  0  0
   38.9574    8.6741    1.8045 N   0  0  0  0  0  0  0  0  0  0  0  0
   44.2674    5.2920   -7.2782 C   0  0  1  0  0  0  0  0  0  0  0  0
   44.1075    4.9413   -8.6451 O   0  0  0  0  0  0  0  0  0  0  0  0
   43.6733    8.2528   -3.1239 C   0  0  2  0  0  0  0  0  0  0  0  0
   43.0802    9.2526   -3.9456 N   0  0  0  0  0  0  0  0  0  0  0  0
   42.7282    1.3046   -2.2132 C   0  0  2  0  0  0  0  0  0  0  0  0
   42.8242    0.0388   -2.7456 O   0  0  0  0  0  0  0  0  0  0  0  0
   41.8990   -1.0959   -6.2699 C   0  0  1  0  0  0  0  0  0  0  0  0
   41.8640   -2.5376   -5.9838 O   0  0  0  0  0  0  0  0  0  0  0  0
   45.7277    5.0843   -6.8140 C   0  0  2  0  0  0  0  0  0  0  0  0
   46.1312    3.6623   -6.9586 O   0  0  0  0  0  0  0  0  0  0  0  0
   42.9725    6.8638   -3.3895 C   0  0  2  0  0  0  0  0  0  0  0  0
   44.1148    1.9182   -1.6762 C   0  0  2  0  0  0  0  0  0  0  0  0
   43.9732    3.2318   -1.9733 O   0  0  0  0  0  0  0  0  0  0  0  0
   40.4013   -0.4475   -6.2734 C   0  0  2  0  0  0  0  0  0  0  0  0
   40.4495    1.0040   -6.5598 O   0  0  0  0  0  0  0  0  0  0  0  0
   45.8941    5.4914   -5.3118 C   0  0  2  0  0  0  0  0  0  0  0  0
   45.4754    6.8787   -5.2454 O   0  0  0  0  0  0  0  0  0  0  0  0
   43.6690    5.8029   -2.4721 C   0  0  2  0  0  0  0  0  0  0  0  0
   42.9911    4.6152   -2.8034 O   0  0  0  0  0  0  0  0  0  0  0  0
   45.4468    1.4501   -2.3708 C   0  0  0  0  0  0  0  0  0  0  0  0
   45.4897   -0.0116   -2.4044 O   0  0  0  0  0  0  0  0  0  0  0  0
   39.7101   -0.6589   -4.8533 C   0  0  1  0  0  0  0  0  0  0  0  0
   40.6172   -0.0217   -3.8215 O   0  0  0  0  0  0  0  0  0  0  0  0
   47.3128    5.2845   -4.9652 C   0  0  0  0  0  0  0  0  0  0  0  0
   47.6590    6.0578   -3.9272 O   0  0  0  0  0  0  0  0  0  0  0  0
   43.5102    6.1867   -0.9392 C   0  0  1  0  0  0  0  0  0  0  0  0
   44.1420    5.2395   -0.1329 O   0  0  0  0  0  0  0  0  0  0  0  0
   40.3352    3.5318    0.0494 C   0  0  0  0  0  0  0  0  0  0  0  0
   38.3012    0.0156   -4.9684 C   0  0  0  0  0  0  0  0  0  0  0  0
   37.4399   -0.6449   -5.9068 N   0  0  0  0  0  0  0  0  0  0  0  0
   39.7923    3.1524    1.4279 C   0  0  0  0  0  0  0  0  0  0  0  0
   39.4712    4.4152    2.1209 N   0  0  0  0  0  0  0  0  0  0  0  0
   40.6306    5.2765    2.6263 C   0  0  0  0  0  0  0  0  0  0  0  0
  1  2  1  1  0  0  0
  1  8  1  0  0  0  0
  1 33  1  0  0  0  0
  3  4  1  1  0  0  0
  3 10  1  0  0  0  0
  3 42  1  0  0  0  0
  5 11  1  0  0  0  0
  5 29  1  0  0  0  0
  5 35  1  6  0  0  0
  6 13  1  0  0  0  0
  6 39  1  0  0  0  0
  6 22  1  1  0  0  0
  7 15  1  0  0  0  0
  8  9  1  1  0  0  0
  8 17  1  0  0  0  0
 10 19  1  0  0  0  0
 11 12  1  1  0  0  0
 11 21  1  0  0  0  0
 12 44  1  0  0  0  0
 13 14  1  6  0  0  0
 13 23  1  0  0  0  0
 15 16  1  0  0  0  0
 17 18  1  6  0  0  0
 17 25  1  0  0  0  0
 19 20  1  6  0  0  0
 19 27  1  0  0  0  0
 21 22  1  1  0  0  0
 21 28  1  0  0  0  0
 23 24  1  1  0  0  0
 23 30  1  0  0  0  0
 25 26  1  1  0  0  0
 25 32  1  0  0  0  0
 27  2  1  6  0  0  0
 27 34  1  0  0  0  0
 28 29  1  0  0  0  0
 28 36  1  6  0  0  0
 30 31  1  1  0  0  0
 30 38  1  0  0  0  0
 32 33  1  0  0  0  0
 32 40  1  6  0  0  0
 34 35  1  1  0  0  0
 34 42  1  0  0  0  0
 36 37  1  0  0  0  0
 38 39  1  0  0  0  0
 38 45  1  6  0  0  0
 40 41  1  0  0  0  0
 42 43  1  1  0  0  0
 44 47  1  0  0  0  0
 45 46  1  0  0  0  0
 47 48  1  0  0  0  0
 48 49  1  0  0  0  0
 49  7  1  0  0  0  0
M  END
>  <CHROM.1>
-173.97515832,153.92258356,94.78387717,-170.62861147,52.18005549,177.66793037
31.57376738,18.18926093,-51.43246827,156.07059683,-144.23662357,65.66706718
160.65153254,-72.99746673,128.11212857,57.36515421,42.74012302,3.88284055
-3.20239972,-1.41810283,-0.90544835,-2.41810511

>  <Name>
2bee_lig

>  <RI>
2.18182e+07

>  <Rbt.Current_Directory>
/home/itssahil/PROJECTS/Mol_Feturizer/New_Systems/rnas/2bee

>  <Rbt.Executable>
rbdock ($Id: //depot/dev/client3/rdock/2013.1/src/exe/rbdock.cxx#4 $)

>  <Rbt.Library>
libRbt.so (2013.1, Build901 2013/11/27)

>  <Rbt.Parameter_File>
/export/apps/rDock/src/rDock_2013.1_src/data/scripts/dock_solv.prm

>  <Rbt.Receptor>
prm/pocket_docking_3.prm

>  <SCORE>
6.7402

>  <SCORE.INTER>
6.0073

>  <SCORE.INTER.CONST>
1

>  <SCORE.INTER.POLAR>
-0.267622

>  <SCORE.INTER.ROT>
16

>  <SCORE.INTER.SOLV>
19.2273

>  <SCORE.INTER.VDW>
-15.7788

>  <SCORE.INTER.norm>
0.122598

>  <SCORE.INTRA>
0.199388

>  <SCORE.INTRA.DIHEDRAL>
-8.63331

>  <SCORE.INTRA.DIHEDRAL.0>
36.0842

>  <SCORE.INTRA.POLAR>
0

>  <SCORE.INTRA.POLAR.0>
0

>  <SCORE.INTRA.REPUL>
0.0146878

>  <SCORE.INTRA.REPUL.0>
0

>  <SCORE.INTRA.SOLV>
0.0944677

>  <SCORE.INTRA.SOLV.lig_0>
-126.444

>  <SCORE.INTRA.VDW>
4.39537

>  <SCORE.INTRA.VDW.0>
-7.40469

>  <SCORE.INTRA.norm>
0.00406915

>  <SCORE.RESTR>
0.53351

>  <SCORE.RESTR.CAVITY>
0.53351

>  <SCORE.RESTR.norm>
0.010888

>  <SCORE.SYSTEM>
0

>  <SCORE.SYSTEM.CONST>
0

>  <SCORE.SYSTEM.DIHEDRAL>
0

>  <SCORE.SYSTEM.SOLV>
0

>  <SCORE.SYSTEM.norm>
0

>  <SCORE.heavy>
49

>  <SCORE.norm>
0.137555

>  <RMSD>
7.460

$$$$
2bee_lig
 OpenBabel11021811423D
libRbt.so/2013.1/901 2013/11/27
 49 52  0  0  0  0  0  0  0  0999 V2000
   42.4948    3.5825   -9.2806 C   0  0  2  0  0  0  0  0  0  0  0  0
   42.5599    2.4769   -8.3886 O   0  0  0  0  0  0  0  0  0  0  0  0
   38.3641    2.2320   -7.0810 C   0  0  2  0  0  0  0  0  0  0  0  0
   37.1479    1.7334   -6.3830 N   0  0  0  0  0  0  0  0  0  0  0  0
   41.8229    4.3675   -4.8838 C   0  0  1  0  0  0  0  0  0  0  0  0
   41.2959    3.0195   -0.5731 C   0  0  1  0  0  0  0  0  0  0  0  0
   42.2829   10.7267   -0.4468 C   0  0  0  0  0  0  0  0  0  0  0  0
   43.7994    3.6503  -10.1652 C   0  0  2  0  0  0  0  0  0  0  0  0
   44.0062    2.3785  -10.8495 N   0  0  0  0  0  0  0  0  0  0  0  0
   38.9846    1.0574   -7.9661 C   0  0  0  0  0  0  0  0  0  0  0  0
   41.2461    4.8988   -3.6120 C   0  0  2  0  0  0  0  0  0  0  0  0
   41.1058    6.3652   -3.6135 O   0  0  0  0  0  0  0  0  0  0  0  0
   42.1184    1.9297    0.3027 C   0  0  2  0  0  0  0  0  0  0  0  0
   42.8045    0.9907   -0.6463 N   0  0  0  0  0  0  0  0  0  0  0  0
   42.3169   10.0912    0.8165 C   0  0  0  0  0  0  0  0  0  0  0  0
   41.3542   10.3996    1.7750 N   0  0  0  0  0  0  0  0  0  0  0  0
   45.0402    4.0284   -9.2436 C   0  0  1  0  0  0  0  0  0  0  0  0
   46.2084    4.0917  -10.0489 O   0  0  0  0  0  0  0  0  0  0  0  0
   40.3327    1.5625   -8.7400 C   0  0  2  0  0  0  0  0  0  0  0  0
   40.8886    0.5242   -9.5396 N   0  0  0  0  0  0  0  0  0  0  0  0
   42.2010    4.1922   -2.6805 C   0  0  2  0  0  0  0  0  0  0  0  0
   42.2879    3.6507   -1.4179 O   0  0  0  0  0  0  0  0  0  0  0  0
   41.1009    1.1550    1.2140 C   0  0  1  0  0  0  0  0  0  0  0  0
   40.4863    2.1372    2.1191 O   0  0  0  0  0  0  0  0  0  0  0  0
   44.7622    5.3836   -8.5527 C   0  0  2  0  0  0  0  0  0  0  0  0
   45.8920    5.7676   -7.6684 O   0  0  0  0  0  0  0  0  0  0  0  0
   41.4024    2.0518   -7.6876 C   0  0  2  0  0  0  0  0  0  0  0  0
   43.5865    4.2268   -3.4971 C   0  0  2  0  0  0  0  0  0  0  0  0
   43.1690    4.0047   -4.7661 O   0  0  0  0  0  0  0  0  0  0  0  0
   39.9855    0.4262    0.2716 C   0  0  2  0  0  0  0  0  0  0  0  0
   40.6160   -0.5582   -0.6366 O   0  0  0  0  0  0  0  0  0  0  0  0
   43.4630    5.3053   -7.6834 C   0  0  2  0  0  0  0  0  0  0  0  0
   42.4117    4.9185   -8.6050 O   0  0  0  0  0  0  0  0  0  0  0  0
   40.7444    3.1972   -6.8465 C   0  0  2  0  0  0  0  0  0  0  0  0
   41.7791    3.5694   -5.9686 O   0  0  0  0  0  0  0  0  0  0  0  0
   44.6555    3.1156   -3.1837 C   0  0  0  0  0  0  0  0  0  0  0  0
   44.1029    1.8024   -3.5147 O   0  0  0  0  0  0  0  0  0  0  0  0
   39.2222    1.5109   -0.6116 C   0  0  1  0  0  0  0  0  0  0  0  0
   40.2744    2.2442   -1.4170 O   0  0  0  0  0  0  0  0  0  0  0  0
   43.2648    6.6394   -7.0861 C   0  0  0  0  0  0  0  0  0  0  0  0
   43.1290    7.5661   -8.0443 O   0  0  0  0  0  0  0  0  0  0  0  0
   39.4566    2.6707   -6.0805 C   0  0  1  0  0  0  0  0  0  0  0  0
   38.8747    3.7015   -5.3423 O   0  0  0  0  0  0  0  0  0  0  0  0
   42.2228    7.3238   -3.5912 C   0  0  0  0  0  0  0  0  0  0  0  0
   38.2022    0.7006   -1.4812 C   0  0  0  0  0  0  0  0  0  0  0  0
   38.8325   -0.0471   -2.5311 N   0  0  0  0  0  0  0  0  0  0  0  0
   41.6693    8.7395   -3.4221 C   0  0  0  0  0  0  0  0  0  0  0  0
   41.3747    8.9123   -1.9863 N   0  0  0  0  0  0  0  0  0  0  0  0
   41.1187   10.3287   -1.4671 C   0  0  0  0  0  0  0  0  0  0  0  0
  1  2  1  1  0  0  0
  1  8  1  0  0  0  0
  1 33  1  0  0  0  0
  3  4  1  1  0  0  0
  3 10  1  0  0  0  0
  3 42  1  0  0  0  0
  5 11  1  0  0  0  0
  5 29  1  0  0  0  0
  5 35  1  1  0  0  0
  6 13  1  0  0  0  0
  6 39  1  0  0  0  0
  6 22  1  6  0  0  0
  7 15  1  0  0  0  0
  8  9  1  1  0  0  0
  8 17  1  0  0  0  0
 10 19  1  0  0  0  0
 11 12  1  6  0  0  0
 11 21  1  0  0  0  0
 12 44  1  0  0  0  0
 13 14  1  6  0  0  0
 13 23  1  0  0  0  0
 15 16  1  0  0  0  0
 17 18  1  6  0  0  0
 17 25  1  0  0  0  0
 19 20  1  1  0  0  0
 19 27  1  0  0  0  0
 21 22  1  1  0  0  0
 21 28  1  0  0  0  0
 23 24  1  1  0  0  0
 23 30  1  0  0  0  0
 25 26  1  1  0  0  0
 25 32  1  0  0  0  0
 27  2  1  6  0  0  0
 27 34  1  0  0  0  0
 28 29  1  0  0  0  0
 28 36  1  1  0  0  0
 30 31  1  6  0  0  0
 30 38  1  0  0  0  0
 32 33  1  0  0  0  0
 32 40  1  6  0  0  0
 34 35  1  1  0  0  0
 34 42  1  0  0  0  0
 36 37  1  0  0  0  0
 38 39  1  0  0  0  0
 38 45  1  6  0  0  0
 40 41  1  0  0  0  0
 42 43  1  1  0  0  0
 44 47  1  0  0  0  0
 45 46  1  0  0  0  0
 47 48  1  0  0  0  0
 48 49  1  0  0  0  0
 49  7  1  0  0  0  0
M  END
>  <CHROM.1>
-167.27543859,40.10027169,148.91699403,-71.17216507,-68.74057402,-172.89438109
30.94530534,63.25519140,62.42330757,59.90210585,-170.05489629,-72.69442563
80.09695431,165.92970094,-114.92361142,-70.94279665,41.78952662,3.98672936
-4.50256276,-1.03534288,1.14410414,0.96226740

>  <Name>
2bee_lig

>  <RI>
0

>  <Rbt.Current_Directory>
/home/itssahil/PROJECTS/Mol_Feturizer/New_Systems/rnas/2bee

>  <Rbt.Executable>
rbdock ($Id: //depot/dev/client3/rdock/2013.1/src/exe/rbdock.cxx#4 $)

>  <Rbt.Library>
libRbt.so (2013.1, Build901 2013/11/27)

>  <Rbt.Parameter_File>
/export/apps/rDock/src/rDock_2013.1_src/data/scripts/dock_solv.prm

>  <Rbt.Receptor>
prm/pocket_docking_5.prm

>  <SCORE>
-5.02948

>  <SCORE.INTER>
3.89835

>  <SCORE.INTER.CONST>
1

>  <SCORE.INTER.POLAR>
0

>  <SCORE.INTER.ROT>
16

>  <SCORE.INTER.SOLV>
12.6125

>  <SCORE.INTER.VDW>
-15.8719

>  <SCORE.INTER.norm>
0.0795582

>  <SCORE.INTRA>
-8.92783

>  <SCORE.INTRA.DIHEDRAL>
-19.9957

>  <SCORE.INTRA.DIHEDRAL.0>
36.0842

>  <SCORE.INTRA.POLAR>
0

>  <SCORE.INTRA.POLAR.0>
0

>  <SCORE.INTRA.REPUL>
0

>  <SCORE.INTRA.REPUL.0>
0

>  <SCORE.INTRA.SOLV>
1.81629

>  <SCORE.INTRA.SOLV.lig_0>
-126.444

>  <SCORE.INTRA.VDW>
0.161878

>  <SCORE.INTRA.VDW.0>
-7.40469

>  <SCORE.INTRA.norm>
-0.182201

>  <SCORE.RESTR>
0

>  <SCORE.RESTR.CAVITY>
0

>  <SCORE.RESTR.norm>
0

>  <SCORE.SYSTEM>
0

>  <SCORE.SYSTEM.CONST>
0

>  <SCORE.SYSTEM.DIHEDRAL>
0

>  <SCORE.SYSTEM.SOLV>
0

>  <SCORE.SYSTEM.norm>
0

>  <SCORE.heavy>
49

>  <SCORE.norm>
-0.102642

>  <RMSD>
7.462

$$$$
2bee_lig
 OpenBabel11021811423D
libRbt.so/2013.1/901 2013/11/27
 49 52  0  0  0  0  0  0  0  0999 V2000
   45.9117    3.5370   -6.8899 C   0  0  2  0  0  0  0  0  0  0  0  0
   44.6870    3.4010   -6.1801 O   0  0  0  0  0  0  0  0  0  0  0  0
   44.4645    7.3090   -4.1671 C   0  0  2  0  0  0  0  0  0  0  0  0
   43.8974    8.4549   -3.4054 N   0  0  0  0  0  0  0  0  0  0  0  0
   44.1034    2.9582   -2.7322 C   0  0  1  0  0  0  0  0  0  0  0  0
   41.7745   -1.1916   -2.5284 C   0  0  1  0  0  0  0  0  0  0  0  0
   38.5823    4.2559   -1.4303 C   0  0  0  0  0  0  0  0  0  0  0  0
   46.2539    2.1995   -7.6535 C   0  0  2  0  0  0  0  0  0  0  0  0
   45.1386    1.8143   -8.5116 N   0  0  0  0  0  0  0  0  0  0  0  0
   43.5632    7.0325   -5.4551 C   0  0  0  0  0  0  0  0  0  0  0  0
   42.7746    2.2857   -2.6106 C   0  0  2  0  0  0  0  0  0  0  0  0
   41.9126    2.8985   -1.5850 O   0  0  0  0  0  0  0  0  0  0  0  0
   42.0463   -2.6269   -3.2333 C   0  0  2  0  0  0  0  0  0  0  0  0
   42.3802   -2.3822   -4.6761 N   0  0  0  0  0  0  0  0  0  0  0  0
   39.1358    4.4044   -2.7235 C   0  0  0  0  0  0  0  0  0  0  0  0
   39.1491    5.6568   -3.3334 N   0  0  0  0  0  0  0  0  0  0  0  0
   46.5981    1.0630   -6.5944 C   0  0  1  0  0  0  0  0  0  0  0  0
   46.9091   -0.1351   -7.2907 O   0  0  0  0  0  0  0  0  0  0  0  0
   44.1468    5.7696   -6.3131 C   0  0  2  0  0  0  0  0  0  0  0  0
   43.3545    5.5208   -7.4692 N   0  0  0  0  0  0  0  0  0  0  0  0
   43.3047    0.8796   -2.4672 C   0  0  2  0  0  0  0  0  0  0  0  0
   42.9905   -0.4337   -2.7348 O   0  0  0  0  0  0  0  0  0  0  0  0
   40.7463   -3.4983   -3.1029 C   0  0  1  0  0  0  0  0  0  0  0  0
   40.4979   -3.7041   -1.6685 O   0  0  0  0  0  0  0  0  0  0  0  0
   47.7870    1.5285   -5.7221 C   0  0  2  0  0  0  0  0  0  0  0  0
   48.1321    0.5006   -4.7070 O   0  0  0  0  0  0  0  0  0  0  0  0
   44.1828    4.4779   -5.4068 C   0  0  2  0  0  0  0  0  0  0  0  0
   44.6460    1.0907   -1.6047 C   0  0  2  0  0  0  0  0  0  0  0  0
   45.1404    2.2359   -2.1320 O   0  0  0  0  0  0  0  0  0  0  0  0
   39.5054   -2.7194   -3.8218 C   0  0  2  0  0  0  0  0  0  0  0  0
   39.7679   -2.5157   -5.2644 O   0  0  0  0  0  0  0  0  0  0  0  0
   47.4377    2.8586   -4.9748 C   0  0  2  0  0  0  0  0  0  0  0  0
   47.1038    3.8061   -6.0212 O   0  0  0  0  0  0  0  0  0  0  0  0
   45.0738    4.8028   -4.1606 C   0  0  2  0  0  0  0  0  0  0  0  0
   45.0558    3.5920   -3.4438 O   0  0  0  0  0  0  0  0  0  0  0  0
   45.7865    0.0150   -1.7391 C   0  0  0  0  0  0  0  0  0  0  0  0
   46.0586   -0.2304   -3.1551 O   0  0  0  0  0  0  0  0  0  0  0  0
   39.2865   -1.2946   -3.1427 C   0  0  1  0  0  0  0  0  0  0  0  0
   40.5948   -0.5415   -3.2650 O   0  0  0  0  0  0  0  0  0  0  0  0
   48.6292    3.2373   -4.1920 C   0  0  0  0  0  0  0  0  0  0  0  0
   49.6339    3.5855   -5.0072 O   0  0  0  0  0  0  0  0  0  0  0  0
   44.4663    6.0115   -3.3284 C   0  0  1  0  0  0  0  0  0  0  0  0
   45.2729    6.2970   -2.2265 O   0  0  0  0  0  0  0  0  0  0  0  0
   42.2424    3.0066   -0.1545 C   0  0  0  0  0  0  0  0  0  0  0  0
   38.0967   -0.6377   -3.9211 C   0  0  0  0  0  0  0  0  0  0  0  0
   36.8602   -1.3462   -3.7543 N   0  0  0  0  0  0  0  0  0  0  0  0
   41.0383    3.5729    0.5994 C   0  0  0  0  0  0  0  0  0  0  0  0
   40.6639    4.8289   -0.0792 N   0  0  0  0  0  0  0  0  0  0  0  0
   39.1759    5.1456   -0.2424 C   0  0  0  0  0  0  0  0  0  0  0  0
  1  2  1  1  0  0  0
  1  8  1  0  0  0  0
  1 33  1  0  0  0  0
  3  4  1  1  0  0  0
  3 10  1  0  0  0  0
  3 42  1  0  0  0  0
  5 11  1  0  0  0  0
  5 29  1  0  0  0  0
  5 35  1  6  0  0  0
  6 13  1  0  0  0  0
  6 39  1  0  0  0  0
  6 22  1  6  0  0  0
  7 15  1  0  0  0  0
  8  9  1  1  0  0  0
  8 17  1  0  0  0  0
 10 19  1  0  0  0  0
 11 12  1  1  0  0  0
 11 21  1  0  0  0  0
 12 44  1  0  0  0  0
 13 14  1  6  0  0  0
 13 23  1  0  0  0  0
 15 16  1  0  0  0  0
 17 18  1  6  0  0  0
 17 25  1  0  0  0  0
 19 20  1  6  0  0  0
 19 27  1  0  0  0  0
 21 22  1  1  0  0  0
 21 28  1  0  0  0  0
 23 24  1  1  0  0  0
 23 30  1  0  0  0  0
 25 26  1  1  0  0  0
 25 32  1  0  0  0  0
 27  2  1  6  0  0  0
 27 34  1  0  0  0  0
 28 29  1  0  0  0  0
 28 36  1  6  0  0  0
 30 31  1  6  0  0  0
 30 38  1  0  0  0  0
 32 33  1  0  0  0  0
 32 40  1  6  0  0  0
 34 35  1  1  0  0  0
 34 42  1  0  0  0  0
 36 37  1  0  0  0  0
 38 39  1  0  0  0  0
 38 45  1  6  0  0  0
 40 41  1  0  0  0  0
 42 43  1  1  0  0  0
 44 47  1  0  0  0  0
 45 46  1  0  0  0  0
 47 48  1  0  0  0  0
 48 49  1  0  0  0  0
 49  7  1  0  0  0  0
M  END
>  <CHROM.1>
179.42161391,61.54949474,173.38705735,-56.96820146,-59.88132069,-174.29191599
-46.11978253,51.87277245,49.43575342,67.78871644,-71.22580575,64.79012959
-53.61562231,140.74406078,-76.74107262,-59.99633515,43.41895604,2.15421866
-3.78048874,-0.55105445,-0.46742266,-2.98439180

>  <Name>
2bee_lig

>  <RI>
0

>  <Rbt.Current_Directory>
/home/itssahil/PROJECTS/Mol_Feturizer/New_Systems/rnas/2bee

>  <Rbt.Executable>
rbdock ($Id: //depot/dev/client3/rdock/2013.1/src/exe/rbdock.cxx#4 $)

>  <Rbt.Library>
libRbt.so (2013.1, Build901 2013/11/27)

>  <Rbt.Parameter_File>
/export/apps/rDock/src/rDock_2013.1_src/data/scripts/dock_solv.prm

>  <Rbt.Receptor>
prm/pocket_docking_6.prm

>  <SCORE>
-15.525

>  <SCORE.INTER>
-2.33171

>  <SCORE.INTER.CONST>
1

>  <SCORE.INTER.POLAR>
-1.31211

>  <SCORE.INTER.ROT>
16

>  <SCORE.INTER.SOLV>
13.0945

>  <SCORE.INTER.VDW>
-15.8123

>  <SCORE.INTER.norm>
-0.0475859

>  <SCORE.INTRA>
-13.1933

>  <SCORE.INTRA.DIHEDRAL>
-27.1253

>  <SCORE.INTRA.DIHEDRAL.0>
36.0842

>  <SCORE.INTRA.POLAR>
0

>  <SCORE.INTRA.POLAR.0>
0

>  <SCORE.INTRA.REPUL>
0

>  <SCORE.INTRA.REPUL.0>
0

>  <SCORE.INTRA.SOLV>
-0.35636

>  <SCORE.INTRA.SOLV.lig_0>
-126.444

>  <SCORE.INTRA.VDW>
0.547563

>  <SCORE.INTRA.VDW.0>
-7.40469

>  <SCORE.INTRA.norm>
-0.269251

>  <SCORE.RESTR>
0

>  <SCORE.RESTR.CAVITY>
0

>  <SCORE.RESTR.norm>
0

>  <SCORE.SYSTEM>
0

>  <SCORE.SYSTEM.CONST>
0

>  <SCORE.SYSTEM.DIHEDRAL>
0

>  <SCORE.SYSTEM.SOLV>
0

>  <SCORE.SYSTEM.norm>
0

>  <SCORE.heavy>
49

>  <SCORE.norm>
-0.316837

>  <RMSD>
7.486

$$$$
2bee_lig
 OpenBabel11021811423D
libRbt.so/2013.1/901 2013/11/27
 49 52  0  0  0  0  0  0  0  0999 V2000
   47.1006    1.9436   -4.4798 C   0  0  2  0  0  0  0  0  0  0  0  0
   47.5211    2.6069   -5.6653 O   0  0  0  0  0  0  0  0  0  0  0  0
   45.9190    6.0753   -7.8511 C   0  0  2  0  0  0  0  0  0  0  0  0
   44.9824    6.9035   -8.6584 N   0  0  0  0  0  0  0  0  0  0  0  0
   45.0172    4.9671   -3.4924 C   0  0  1  0  0  0  0  0  0  0  0  0
   40.4531    5.2277   -1.9922 C   0  0  1  0  0  0  0  0  0  0  0  0
   43.6318   11.7681   -0.3046 C   0  0  0  0  0  0  0  0  0  0  0  0
   48.3082    1.1627   -3.8311 C   0  0  2  0  0  0  0  0  0  0  0  0
   49.4286    2.0702   -3.6084 N   0  0  0  0  0  0  0  0  0  0  0  0
   46.2495    4.7285   -8.6415 C   0  0  0  0  0  0  0  0  0  0  0  0
   44.0658    6.0314   -3.0511 C   0  0  2  0  0  0  0  0  0  0  0  0
   44.5784    6.8281   -1.9230 O   0  0  0  0  0  0  0  0  0  0  0  0
   39.1720    5.8713   -2.7510 C   0  0  2  0  0  0  0  0  0  0  0  0
   39.5861    7.1955   -3.3239 N   0  0  0  0  0  0  0  0  0  0  0  0
   42.2800   11.4004   -0.1093 C   0  0  0  0  0  0  0  0  0  0  0  0
   41.9176   10.6571    1.0118 N   0  0  0  0  0  0  0  0  0  0  0  0
   48.7164   -0.0517   -4.7748 C   0  0  1  0  0  0  0  0  0  0  0  0
   49.8004   -0.7511   -4.1807 O   0  0  0  0  0  0  0  0  0  0  0  0
   47.2672    3.7833   -7.7799 C   0  0  2  0  0  0  0  0  0  0  0  0
   47.5752    2.5833   -8.4809 N   0  0  0  0  0  0  0  0  0  0  0  0
   42.8586    5.1362   -2.9089 C   0  0  2  0  0  0  0  0  0  0  0  0
   41.4853    5.1393   -3.0035 O   0  0  0  0  0  0  0  0  0  0  0  0
   38.0155    6.0546   -1.7047 C   0  0  1  0  0  0  0  0  0  0  0  0
   37.6597    4.7183   -1.2052 O   0  0  0  0  0  0  0  0  0  0  0  0
   47.4918   -0.9761   -4.9671 C   0  0  2  0  0  0  0  0  0  0  0  0
   47.8257   -2.1176   -5.8567 O   0  0  0  0  0  0  0  0  0  0  0  0
   46.6183    3.4309   -6.3850 C   0  0  2  0  0  0  0  0  0  0  0  0
   43.4943    3.7658   -2.3562 C   0  0  2  0  0  0  0  0  0  0  0  0
   44.6481    3.6884   -3.0609 O   0  0  0  0  0  0  0  0  0  0  0  0
   38.5320    7.0281   -0.5009 C   0  0  2  0  0  0  0  0  0  0  0  0
   38.8895    8.3691   -1.0160 O   0  0  0  0  0  0  0  0  0  0  0  0
   46.2991   -0.1889   -5.6055 C   0  0  2  0  0  0  0  0  0  0  0  0
   46.0368    0.9087   -4.6940 O   0  0  0  0  0  0  0  0  0  0  0  0
   46.3117    4.7818   -5.6545 C   0  0  2  0  0  0  0  0  0  0  0  0
   45.7657    4.3541   -4.4302 O   0  0  0  0  0  0  0  0  0  0  0  0
   42.7166    2.4267   -2.6349 C   0  0  0  0  0  0  0  0  0  0  0  0
   42.7358    2.1432   -4.0697 O   0  0  0  0  0  0  0  0  0  0  0  0
   39.8169    6.3976    0.1997 C   0  0  1  0  0  0  0  0  0  0  0  0
   40.8600    6.2062   -0.8815 O   0  0  0  0  0  0  0  0  0  0  0  0
   45.1757   -1.1367   -5.7288 C   0  0  0  0  0  0  0  0  0  0  0  0
   44.3132   -0.7215   -6.6664 O   0  0  0  0  0  0  0  0  0  0  0  0
   45.2964    5.6652   -6.4979 C   0  0  1  0  0  0  0  0  0  0  0  0
   45.0382    6.8688   -5.8416 O   0  0  0  0  0  0  0  0  0  0  0  0
   43.7755    7.7478   -1.1005 C   0  0  0  0  0  0  0  0  0  0  0  0
   40.2308    7.4189    1.3126 C   0  0  0  0  0  0  0  0  0  0  0  0
   41.3648    6.9843    2.0768 N   0  0  0  0  0  0  0  0  0  0  0  0
   43.3506    8.9453   -1.9516 C   0  0  0  0  0  0  0  0  0  0  0  0
   44.4445    9.9328   -1.8725 N   0  0  0  0  0  0  0  0  0  0  0  0
   44.7105   10.6095   -0.5262 C   0  0  0  0  0  0  0  0  0  0  0  0
  1  2  1  6  0  0  0
  1  8  1  0  0  0  0
  1 33  1  0  0  0  0
  3  4  1  6  0  0  0
  3 10  1  0  0  0  0
  3 42  1  0  0  0  0
  5 11  1  0  0  0  0
  5 29  1  0  0  0  0
  5 35  1  6  0  0  0
  6 13  1  0  0  0  0
  6 39  1  0  0  0  0
  6 22  1  6  0  0  0
  7 15  1  0  0  0  0
  8  9  1  6  0  0  0
  8 17  1  0  0  0  0
 10 19  1  0  0  0  0
 11 12  1  1  0  0  0
 11 21  1  0  0  0  0
 12 44  1  0  0  0  0
 13 14  1  1  0  0  0
 13 23  1  0  0  0  0
 15 16  1  0  0  0  0
 17 18  1  1  0  0  0
 17 25  1  0  0  0  0
 19 20  1  6  0  0  0
 19 27  1  0  0  0  0
 21 22  1  1  0  0  0
 21 28  1  0  0  0  0
 23 24  1  1  0  0  0
 23 30  1  0  0  0  0
 25 26  1  6  0  0  0
 25 32  1  0  0  0  0
 27  2  1  1  0  0  0
 27 34  1  0  0  0  0
 28 29  1  0  0  0  0
 28 36  1  6  0  0  0
 30 31  1  6  0  0  0
 30 38  1  0  0  0  0
 32 33  1  0  0  0  0
 32 40  1  1  0  0  0
 34 35  1  1  0  0  0
 34 42  1  0  0  0  0
 36 37  1  0  0  0  0
 38 39  1  0  0  0  0
 38 45  1  1  0  0  0
 40 41  1  0  0  0  0
 42 43  1  1  0  0  0
 44 47  1  0  0  0  0
 45 46  1  0  0  0  0
 47 48  1  0  0  0  0
 48 49  1  0  0  0  0
 49  7  1  0  0  0  0
M  END
>  <CHROM.1>
-176.78481362,22.80646997,153.78220084,63.79314109,-166.75873080,-67.98143193
-99.48426913,-168.69418118,67.22278125,-157.81845105,-161.49177457,178.36407230
-86.74089051,-67.16423574,-78.84734587,67.79849447,44.06354507,4.75527314
-3.49400698,-0.81858970,0.55760296,0.16708516

>  <Name>
2bee_lig

>  <RI>
0

>  <Rbt.Current_Directory>
/home/itssahil/PROJECTS/Mol_Feturizer/New_Systems/rnas/2bee

>  <Rbt.Executable>
rbdock ($Id: //depot/dev/client3/rdock/2013.1/src/exe/rbdock.cxx#4 $)

>  <Rbt.Library>
libRbt.so (2013.1, Build901 2013/11/27)

>  <Rbt.Parameter_File>
/export/apps/rDock/src/rDock_2013.1_src/data/scripts/dock_solv.prm

>  <Rbt.Receptor>
prm/pocket_docking_6.prm

>  <SCORE>
-18.0982

>  <SCORE.INTER>
-11.5361

>  <SCORE.INTER.CONST>
1

>  <SCORE.INTER.POLAR>
-2.85548

>  <SCORE.INTER.ROT>
16

>  <SCORE.INTER.SOLV>
17.1074

>  <SCORE.INTER.VDW>
-18.1416

>  <SCORE.INTER.norm>
-0.23543

>  <SCORE.INTRA>
-6.57978

>  <SCORE.INTRA.DIHEDRAL>
-17.271

>  <SCORE.INTRA.DIHEDRAL.0>
36.0842

>  <SCORE.INTRA.POLAR>
0

>  <SCORE.INTRA.POLAR.0>
0

>  <SCORE.INTRA.REPUL>
0.227356

>  <SCORE.INTRA.REPUL.0>
0

>  <SCORE.INTRA.SOLV>
0.279054

>  <SCORE.INTRA.SOLV.lig_0>
-126.444

>  <SCORE.INTRA.VDW>
0.779427

>  <SCORE.INTRA.VDW.0>
-7.40469

>  <SCORE.INTRA.norm>
-0.134281

>  <SCORE.RESTR>
0.0176239

>  <SCORE.RESTR.CAVITY>
0.0176239

>  <SCORE.RESTR.norm>
0.000359672

>  <SCORE.SYSTEM>
0

>  <SCORE.SYSTEM.CONST>
0

>  <SCORE.SYSTEM.DIHEDRAL>
0

>  <SCORE.SYSTEM.SOLV>
0

>  <SCORE.SYSTEM.norm>
0

>  <SCORE.heavy>
49

>  <SCORE.norm>
-0.369351

>  <RMSD>
7.515

$$$$
2bee_lig
 OpenBabel11021811423D
libRbt.so/2013.1/901 2013/11/27
 49 52  0  0  0  0  0  0  0  0999 V2000
   43.4556   11.8588  -11.6453 C   0  0  2  0  0  0  0  0  0  0  0  0
   44.8536   11.6028  -11.5969 O   0  0  0  0  0  0  0  0  0  0  0  0
   48.3403   13.1230   -9.3821 C   0  0  2  0  0  0  0  0  0  0  0  0
   49.1383   13.7186   -8.2761 N   0  0  0  0  0  0  0  0  0  0  0  0
   46.6126    8.8298   -9.2391 C   0  0  1  0  0  0  0  0  0  0  0  0
   44.4045    7.4625   -5.6062 C   0  0  1  0  0  0  0  0  0  0  0  0
   50.6522    5.1827   -5.1332 C   0  0  0  0  0  0  0  0  0  0  0  0
   42.7527   10.8735  -12.6572 C   0  0  2  0  0  0  0  0  0  0  0  0
   43.0664    9.4918  -12.3093 N   0  0  0  0  0  0  0  0  0  0  0  0
   47.1624   14.1231   -9.7822 C   0  0  0  0  0  0  0  0  0  0  0  0
   47.2422    8.0511   -8.1301 C   0  0  2  0  0  0  0  0  0  0  0  0
   48.4107    7.2688   -8.5690 O   0  0  0  0  0  0  0  0  0  0  0  0
   44.7892    6.8747   -4.1442 C   0  0  2  0  0  0  0  0  0  0  0  0
   44.7473    5.3760   -4.2183 N   0  0  0  0  0  0  0  0  0  0  0  0
   51.3384    5.4345   -6.3442 C   0  0  0  0  0  0  0  0  0  0  0  0
   51.0291    4.6957   -7.4840 N   0  0  0  0  0  0  0  0  0  0  0  0
   43.2150   11.2240  -14.1389 C   0  0  1  0  0  0  0  0  0  0  0  0
   42.5740   10.3355  -15.0426 O   0  0  0  0  0  0  0  0  0  0  0  0
   46.2528   13.4977  -10.9876 C   0  0  2  0  0  0  0  0  0  0  0  0
   45.2045   14.3867  -11.3579 N   0  0  0  0  0  0  0  0  0  0  0  0
   45.9766    7.3863   -7.6453 C   0  0  2  0  0  0  0  0  0  0  0  0
   45.3761    6.8866   -6.5119 O   0  0  0  0  0  0  0  0  0  0  0  0
   43.7428    7.4099   -3.1026 C   0  0  1  0  0  0  0  0  0  0  0  0
   43.8573    8.8755   -3.0791 O   0  0  0  0  0  0  0  0  0  0  0  0
   42.8512   12.6950  -14.4471 C   0  0  2  0  0  0  0  0  0  0  0  0
   43.2804   13.0693  -15.8189 O   0  0  0  0  0  0  0  0  0  0  0  0
   45.6404   12.1156  -10.5340 C   0  0  2  0  0  0  0  0  0  0  0  0
   45.1665    7.1241   -9.0101 C   0  0  2  0  0  0  0  0  0  0  0  0
   45.4302    8.2512   -9.7130 O   0  0  0  0  0  0  0  0  0  0  0  0
   42.2484    6.9311   -3.5508 C   0  0  2  0  0  0  0  0  0  0  0  0
   42.1461    5.4544   -3.5733 O   0  0  0  0  0  0  0  0  0  0  0  0
   43.5494   13.6618  -13.4334 C   0  0  2  0  0  0  0  0  0  0  0  0
   43.0945   13.2330  -12.1243 O   0  0  0  0  0  0  0  0  0  0  0  0
   46.8333   11.1761  -10.1507 C   0  0  2  0  0  0  0  0  0  0  0  0
   46.1824    9.9819   -9.7896 O   0  0  0  0  0  0  0  0  0  0  0  0
   43.5992    7.0122   -8.9279 C   0  0  0  0  0  0  0  0  0  0  0  0
   43.0665    6.6714  -10.2468 O   0  0  0  0  0  0  0  0  0  0  0  0
   41.9108    7.4825   -5.0072 C   0  0  1  0  0  0  0  0  0  0  0  0
   42.9898    6.9659   -5.9359 O   0  0  0  0  0  0  0  0  0  0  0  0
   43.1292   15.0309  -13.7864 C   0  0  0  0  0  0  0  0  0  0  0  0
   43.6696   15.3999  -14.9556 O   0  0  0  0  0  0  0  0  0  0  0  0
   47.6800   11.7926   -8.9568 C   0  0  1  0  0  0  0  0  0  0  0  0
   48.7441   10.9514   -8.6305 O   0  0  0  0  0  0  0  0  0  0  0  0
   48.4114    5.8201   -8.8307 C   0  0  0  0  0  0  0  0  0  0  0  0
   40.4759    6.9474   -5.3357 C   0  0  0  0  0  0  0  0  0  0  0  0
   40.4412    5.5274   -5.5381 N   0  0  0  0  0  0  0  0  0  0  0  0
   48.1312    5.0718   -7.5267 C   0  0  0  0  0  0  0  0  0  0  0  0
   48.5951    5.9421   -6.4287 N   0  0  0  0  0  0  0  0  0  0  0  0
   49.0568    5.2804   -5.1286 C   0  0  0  0  0  0  0  0  0  0  0  0
  1  2  1  6  0  0  0
  1  8  1  0  0  0  0
  1 33  1  0  0  0  0
  3  4  1  1  0  0  0
  3 10  1  0  0  0  0
  3 42  1  0  0  0  0
  5 11  1  0  0  0  0
  5 29  1  0  0  0  0
  5 35  1  1  0  0  0
  6 13  1  0  0  0  0
  6 39  1  0  0  0  0
  6 22  1  6  0  0  0
  7 15  1  0  0  0  0
  8  9  1  1  0  0  0
  8 17  1  0  0  0  0
 10 19  1  0  0  0  0
 11 12  1  6  0  0  0
 11 21  1  0  0  0  0
 12 44  1  0  0  0  0
 13 14  1  6  0  0  0
 13 23  1  0  0  0  0
 15 16  1  0  0  0  0
 17 18  1  6  0  0  0
 17 25  1  0  0  0  0
 19 20  1  1  0  0  0
 19 27  1  0  0  0  0
 21 22  1  6  0  0  0
 21 28  1  0  0  0  0
 23 24  1  6  0  0  0
 23 30  1  0  0  0  0
 25 26  1  6  0  0  0
 25 32  1  0  0  0  0
 27  2  1  6  0  0  0
 27 34  1  0  0  0  0
 28 29  1  0  0  0  0
 28 36  1  1  0  0  0
 30 31  1  6  0  0  0
 30 38  1  0  0  0  0
 32 33  1  0  0  0  0
 32 40  1  6  0  0  0
 34 35  1  1  0  0  0
 34 42  1  0  0  0  0
 36 37  1  0  0  0  0
 38 39  1  0  0  0  0
 38 45  1  6  0  0  0
 40 41  1  0  0  0  0
 42 43  1  6  0  0  0
 44 47  1  0  0  0  0
 45 46  1  0  0  0  0
 47 48  1  0  0  0  0
 48 49  1  0  0  0  0
 49  7  1  0  0  0  0
M  END
>  <CHROM.1>
-164.08023650,61.13156760,-145.78891067,-56.22877220,-102.00259889,-64.72783380
98.05108117,-93.78098288,-175.60792936,-69.28939618,-172.23222635,-69.36552798
-26.71574621,-151.91022897,98.42193549,-12.27183671,45.29814437,9.25182412
-8.88038276,1.73801394,0.00190110,-0.84246008

>  <Name>
2bee_lig

>  <RI>
0

>  <Rbt.Current_Directory>
/home/itssahil/PROJECTS/Mol_Feturizer/New_Systems/rnas/2bee

>  <Rbt.Executable>
rbdock ($Id: //depot/dev/client3/rdock/2013.1/src/exe/rbdock.cxx#4 $)

>  <Rbt.Library>
libRbt.so (2013.1, Build901 2013/11/27)

>  <Rbt.Parameter_File>
/export/apps/rDock/src/rDock_2013.1_src/data/scripts/dock_solv.prm

>  <Rbt.Receptor>
prm/blind_docking_60.prm

>  <SCORE>
35.0323

>  <SCORE.INTER>
4.00957

>  <SCORE.INTER.CONST>
1

>  <SCORE.INTER.POLAR>
-1.82159

>  <SCORE.INTER.ROT>
16

>  <SCORE.INTER.SOLV>
29.056

>  <SCORE.INTER.VDW>
-15.207

>  <SCORE.INTER.norm>
0.0818279

>  <SCORE.INTRA>
6.0503

>  <SCORE.INTRA.DIHEDRAL>
-5.58573

>  <SCORE.INTRA.DIHEDRAL.0>
36.0842

>  <SCORE.INTRA.POLAR>
0

>  <SCORE.INTRA.POLAR.0>
0

>  <SCORE.INTRA.REPUL>
0.243321

>  <SCORE.INTRA.REPUL.0>
0

>  <SCORE.INTRA.SOLV>
8.70661

>  <SCORE.INTRA.SOLV.lig_0>
-126.444

>  <SCORE.INTRA.VDW>
3.27326

>  <SCORE.INTRA.VDW.0>
-7.40469

>  <SCORE.INTRA.norm>
0.123475

>  <SCORE.RESTR>
24.9725

>  <SCORE.RESTR.CAVITY>
24.9725

>  <SCORE.RESTR.norm>
0.509642

>  <SCORE.SYSTEM>
0

>  <SCORE.SYSTEM.CONST>
0

>  <SCORE.SYSTEM.DIHEDRAL>
0

>  <SCORE.SYSTEM.SOLV>
0

>  <SCORE.SYSTEM.norm>
0

>  <SCORE.heavy>
49

>  <SCORE.norm>
0.714945

>  <RMSD>
7.523

$$$$
2bee_lig
 OpenBabel11021811423D
libRbt.so/2013.1/901 2013/11/27
 49 52  0  0  0  0  0  0  0  0999 V2000
   41.6244    3.4702   -6.7279 C   0  0  2  0  0  0  0  0  0  0  0  0
   40.3094    3.2287   -6.2435 O   0  0  0  0  0  0  0  0  0  0  0  0
   38.5055    2.8501   -2.2465 C   0  0  2  0  0  0  0  0  0  0  0  0
   38.2679    2.3482   -0.8657 N   0  0  0  0  0  0  0  0  0  0  0  0
   42.1525    5.4576   -3.4261 C   0  0  1  0  0  0  0  0  0  0  0  0
   42.2808    7.2106    0.9122 C   0  0  1  0  0  0  0  0  0  0  0  0
   45.0854    9.5957   -8.3112 C   0  0  0  0  0  0  0  0  0  0  0  0
   41.5713    4.0291   -8.2023 C   0  0  2  0  0  0  0  0  0  0  0  0
   40.7182    5.2114   -8.2584 N   0  0  0  0  0  0  0  0  0  0  0  0
   38.4059    1.6339   -3.2755 C   0  0  0  0  0  0  0  0  0  0  0  0
   42.2535    6.6931   -2.5918 C   0  0  2  0  0  0  0  0  0  0  0  0
   43.0493    7.7548   -3.2318 O   0  0  0  0  0  0  0  0  0  0  0  0
   40.6595    7.2391    0.8737 C   0  0  2  0  0  0  0  0  0  0  0  0
   40.2298    7.4081   -0.5546 N   0  0  0  0  0  0  0  0  0  0  0  0
   44.7148   10.1874   -9.5414 C   0  0  0  0  0  0  0  0  0  0  0  0
   44.8454    9.4660  -10.7260 N   0  0  0  0  0  0  0  0  0  0  0  0
   41.0526    2.8854   -9.1795 C   0  0  1  0  0  0  0  0  0  0  0  0
   41.0126    3.3960  -10.5042 O   0  0  0  0  0  0  0  0  0  0  0  0
   38.6747    2.1429   -4.8052 C   0  0  2  0  0  0  0  0  0  0  0  0
   38.5792    1.0665   -5.7318 N   0  0  0  0  0  0  0  0  0  0  0  0
   42.7111    6.0099   -1.3257 C   0  0  2  0  0  0  0  0  0  0  0  0
   42.6595    6.1142    0.0459 O   0  0  0  0  0  0  0  0  0  0  0  0
   40.1630    8.4437    1.7504 C   0  0  1  0  0  0  0  0  0  0  0  0
   40.6089    8.1960    3.1294 O   0  0  0  0  0  0  0  0  0  0  0  0
   41.9986    1.6664   -9.0776 C   0  0  2  0  0  0  0  0  0  0  0  0
   41.5409    0.5667   -9.9648 O   0  0  0  0  0  0  0  0  0  0  0  0
   40.1045    2.8038   -4.9059 C   0  0  2  0  0  0  0  0  0  0  0  0
   43.6582    4.8329   -1.8782 C   0  0  2  0  0  0  0  0  0  0  0  0
   42.9838    4.4247   -2.9794 O   0  0  0  0  0  0  0  0  0  0  0  0
   40.7866    9.8304    1.1573 C   0  0  2  0  0  0  0  0  0  0  0  0
   40.3330   10.0677   -0.2317 O   0  0  0  0  0  0  0  0  0  0  0  0
   42.0474    1.1250   -7.6099 C   0  0  2  0  0  0  0  0  0  0  0  0
   42.4896    2.2480   -6.8051 O   0  0  0  0  0  0  0  0  0  0  0  0
   40.1501    3.9843   -3.8778 C   0  0  2  0  0  0  0  0  0  0  0  0
   41.4419    4.5090   -4.0669 O   0  0  0  0  0  0  0  0  0  0  0  0
   43.8486    3.5558   -0.9791 C   0  0  0  0  0  0  0  0  0  0  0  0
   42.5810    2.8315   -0.8890 O   0  0  0  0  0  0  0  0  0  0  0  0
   42.3786    9.7611    1.1633 C   0  0  1  0  0  0  0  0  0  0  0  0
   42.7709    8.5497    0.3435 O   0  0  0  0  0  0  0  0  0  0  0  0
   42.9854   -0.0134   -7.6029 C   0  0  0  0  0  0  0  0  0  0  0  0
   44.2302    0.4037   -7.8707 O   0  0  0  0  0  0  0  0  0  0  0  0
   39.9182    3.4569   -2.3978 C   0  0  1  0  0  0  0  0  0  0  0  0
   39.9522    4.5181   -1.4927 O   0  0  0  0  0  0  0  0  0  0  0  0
   44.1837    7.5316   -4.1431 C   0  0  0  0  0  0  0  0  0  0  0  0
   42.8596   11.1238    0.5592 C   0  0  0  0  0  0  0  0  0  0  0  0
   42.5793   11.2440   -0.8428 N   0  0  0  0  0  0  0  0  0  0  0  0
   43.6660    7.4361   -5.5790 C   0  0  0  0  0  0  0  0  0  0  0  0
   44.7661    7.8780   -6.4580 N   0  0  0  0  0  0  0  0  0  0  0  0
   44.4421    8.1853   -7.9215 C   0  0  0  0  0  0  0  0  0  0  0  0
  1  2  1  6  0  0  0
  1  8  1  0  0  0  0
  1 33  1  0  0  0  0
  3  4  1  1  0  0  0
  3 10  1  0  0  0  0
  3 42  1  0  0  0  0
  5 11  1  0  0  0  0
  5 29  1  0  0  0  0
  5 35  1  1  0  0  0
  6 13  1  0  0  0  0
  6 39  1  0  0  0  0
  6 22  1  6  0  0  0
  7 15  1  0  0  0  0
  8  9  1  1  0  0  0
  8 17  1  0  0  0  0
 10 19  1  0  0  0  0
 11 12  1  6  0  0  0
 11 21  1  0  0  0  0
 12 44  1  0  0  0  0
 13 14  1  6  0  0  0
 13 23  1  0  0  0  0
 15 16  1  0  0  0  0
 17 18  1  6  0  0  0
 17 25  1  0  0  0  0
 19 20  1  6  0  0  0
 19 27  1  0  0  0  0
 21 22  1  1  0  0  0
 21 28  1  0  0  0  0
 23 24  1  1  0  0  0
 23 30  1  0  0  0  0
 25 26  1  6  0  0  0
 25 32  1  0  0  0  0
 27  2  1  6  0  0  0
 27 34  1  0  0  0  0
 28 29  1  0  0  0  0
 28 36  1  1  0  0  0
 30 31  1  6  0  0  0
 30 38  1  0  0  0  0
 32 33  1  0  0  0  0
 32 40  1  6  0  0  0
 34 35  1  1  0  0  0
 34 42  1  0  0  0  0
 36 37  1  0  0  0  0
 38 39  1  0  0  0  0
 38 45  1  6  0  0  0
 40 41  1  0  0  0  0
 42 43  1  1  0  0  0
 44 47  1  0  0  0  0
 45 46  1  0  0  0  0
 47 48  1  0  0  0  0
 48 49  1  0  0  0  0
 49  7  1  0  0  0  0
M  END
>  <CHROM.1>
-175.92204652,-25.99784526,77.38491891,-53.93335923,-31.27672465,89.26639517
-14.43053122,-160.30675481,67.04913307,65.76306269,-173.60333528,-69.77799603
152.60851552,-166.57183676,131.82358936,-169.04601139,41.83165308,5.38667726
-3.95202690,1.51282478,-1.07054160,-2.18700103

>  <Name>
2bee_lig

>  <RI>
0

>  <Rbt.Current_Directory>
/home/itssahil/PROJECTS/Mol_Feturizer/New_Systems/rnas/2bee

>  <Rbt.Executable>
rbdock ($Id: //depot/dev/client3/rdock/2013.1/src/exe/rbdock.cxx#4 $)

>  <Rbt.Library>
libRbt.so (2013.1, Build901 2013/11/27)

>  <Rbt.Parameter_File>
/export/apps/rDock/src/rDock_2013.1_src/data/scripts/dock_solv.prm

>  <Rbt.Receptor>
prm/pocket_docking_5.prm

>  <SCORE>
-11.3691

>  <SCORE.INTER>
-6.09154

>  <SCORE.INTER.CONST>
1

>  <SCORE.INTER.POLAR>
-1.72494

>  <SCORE.INTER.ROT>
16

>  <SCORE.INTER.SOLV>
15.9456

>  <SCORE.INTER.VDW>
-17.8931

>  <SCORE.INTER.norm>
-0.124317

>  <SCORE.INTRA>
-5.2821

>  <SCORE.INTRA.DIHEDRAL>
-13.8385

>  <SCORE.INTRA.DIHEDRAL.0>
36.0842

>  <SCORE.INTRA.POLAR>
0

>  <SCORE.INTRA.POLAR.0>
0

>  <SCORE.INTRA.REPUL>
0

>  <SCORE.INTRA.REPUL.0>
0

>  <SCORE.INTRA.SOLV>
2.23491

>  <SCORE.INTRA.SOLV.lig_0>
-126.444

>  <SCORE.INTRA.VDW>
0.519681

>  <SCORE.INTRA.VDW.0>
-7.40469

>  <SCORE.INTRA.norm>
-0.107798

>  <SCORE.RESTR>
0.00456027

>  <SCORE.RESTR.CAVITY>
0.00456027

>  <SCORE.RESTR.norm>
9.30667e-05

>  <SCORE.SYSTEM>
0

>  <SCORE.SYSTEM.CONST>
0

>  <SCORE.SYSTEM.DIHEDRAL>
0

>  <SCORE.SYSTEM.SOLV>
0

>  <SCORE.SYSTEM.norm>
0

>  <SCORE.heavy>
49

>  <SCORE.norm>
-0.232022

>  <RMSD>
7.523

$$$$
2bee_lig
 OpenBabel11021811423D
libRbt.so/2013.1/901 2013/11/27
 49 52  0  0  0  0  0  0  0  0999 V2000
   38.5610    1.3051   -4.2821 C   0  0  2  0  0  0  0  0  0  0  0  0
   39.8212    0.7764   -4.6754 O   0  0  0  0  0  0  0  0  0  0  0  0
   43.6576    2.2462   -6.2552 C   0  0  2  0  0  0  0  0  0  0  0  0
   44.6211    3.0765   -7.0279 N   0  0  0  0  0  0  0  0  0  0  0  0
   41.4114    3.5745   -2.3479 C   0  0  1  0  0  0  0  0  0  0  0  0
   41.6053    8.0896   -1.5628 C   0  0  1  0  0  0  0  0  0  0  0  0
   39.9515    1.3717    1.7037 C   0  0  0  0  0  0  0  0  0  0  0  0
   37.7494    0.2319   -3.4584 C   0  0  2  0  0  0  0  0  0  0  0  0
   38.5457   -0.2396   -2.3305 N   0  0  0  0  0  0  0  0  0  0  0  0
   42.5820    1.6179   -7.2534 C   0  0  0  0  0  0  0  0  0  0  0  0
   42.1913    4.5933   -1.5821 C   0  0  2  0  0  0  0  0  0  0  0  0
   42.9117    4.0197   -0.4322 O   0  0  0  0  0  0  0  0  0  0  0  0
   43.0635    7.7666   -0.9302 C   0  0  2  0  0  0  0  0  0  0  0  0
   42.8861    7.4939    0.5352 N   0  0  0  0  0  0  0  0  0  0  0  0
   40.3469    0.7634    2.9180 C   0  0  0  0  0  0  0  0  0  0  0  0
   39.6159    0.9954    4.0809 N   0  0  0  0  0  0  0  0  0  0  0  0
   37.3319   -0.9641   -4.4214 C   0  0  1  0  0  0  0  0  0  0  0  0
   36.5983   -1.9223   -3.6726 O   0  0  0  0  0  0  0  0  0  0  0  0
   41.4954    0.7076   -6.4395 C   0  0  2  0  0  0  0  0  0  0  0  0
   40.5368    0.1353   -7.3226 N   0  0  0  0  0  0  0  0  0  0  0  0
   41.0606    5.5771   -1.4018 C   0  0  2  0  0  0  0  0  0  0  0  0
   40.8002    6.9224   -1.2704 O   0  0  0  0  0  0  0  0  0  0  0  0
   43.9903    9.0140   -1.1560 C   0  0  1  0  0  0  0  0  0  0  0  0
   44.1250    9.2036   -2.6078 O   0  0  0  0  0  0  0  0  0  0  0  0
   36.4890   -0.4016   -5.5895 C   0  0  2  0  0  0  0  0  0  0  0  0
   36.0902   -1.4854   -6.5233 O   0  0  0  0  0  0  0  0  0  0  0  0
   40.7594    1.5916   -5.3588 C   0  0  2  0  0  0  0  0  0  0  0  0
   39.7835    4.6196   -1.2030 C   0  0  2  0  0  0  0  0  0  0  0  0
   40.0376    3.6267   -2.0882 O   0  0  0  0  0  0  0  0  0  0  0  0
   43.3177   10.3172   -0.4399 C   0  0  2  0  0  0  0  0  0  0  0  0
   43.1849   10.1138    1.0204 O   0  0  0  0  0  0  0  0  0  0  0  0
   37.3024    0.6658   -6.3950 C   0  0  2  0  0  0  0  0  0  0  0  0
   37.6641    1.6807   -5.4236 O   0  0  0  0  0  0  0  0  0  0  0  0
   41.8558    2.1847   -4.4108 C   0  0  2  0  0  0  0  0  0  0  0  0
   41.0968    2.9251   -3.4858 O   0  0  0  0  0  0  0  0  0  0  0  0
   38.3666    5.1923   -1.5776 C   0  0  0  0  0  0  0  0  0  0  0  0
   38.3522    5.5671   -2.9914 O   0  0  0  0  0  0  0  0  0  0  0  0
   41.8689   10.5877   -1.0455 C   0  0  1  0  0  0  0  0  0  0  0  0
   41.0592    9.3255   -0.8340 O   0  0  0  0  0  0  0  0  0  0  0  0
   36.4180    1.1612   -7.4665 C   0  0  0  0  0  0  0  0  0  0  0  0
   37.0723    2.0288   -8.2503 O   0  0  0  0  0  0  0  0  0  0  0  0
   42.8781    3.0898   -5.2220 C   0  0  1  0  0  0  0  0  0  0  0  0
   43.8543    3.6048   -4.3687 O   0  0  0  0  0  0  0  0  0  0  0  0
   43.8367    2.8763   -0.4959 C   0  0  0  0  0  0  0  0  0  0  0  0
   41.3189   11.8356   -0.2751 C   0  0  0  0  0  0  0  0  0  0  0  0
   39.9327   12.0917   -0.5422 N   0  0  0  0  0  0  0  0  0  0  0  0
   43.0339    1.5875   -0.6792 C   0  0  0  0  0  0  0  0  0  0  0  0
   42.2152    1.4198    0.5372 N   0  0  0  0  0  0  0  0  0  0  0  0
   40.7528    1.0009    0.3712 C   0  0  0  0  0  0  0  0  0  0  0  0
  1  2  1  6  0  0  0
  1  8  1  0  0  0  0
  1 33  1  0  0  0  0
  3  4  1  6  0  0  0
  3 10  1  0  0  0  0
  3 42  1  0  0  0  0
  5 11  1  0  0  0  0
  5 29  1  0  0  0  0
  5 35  1  6  0  0  0
  6 13  1  0  0  0  0
  6 39  1  0  0  0  0
  6 22  1  1  0  0  0
  7 15  1  0  0  0  0
  8  9  1  1  0  0  0
  8 17  1  0  0  0  0
 10 19  1  0  0  0  0
 11 12  1  1  0  0  0
 11 21  1  0  0  0  0
 12 44  1  0  0  0  0
 13 14  1  1  0  0  0
 13 23  1  0  0  0  0
 15 16  1  0  0  0  0
 17 18  1  1  0  0  0
 17 25  1  0  0  0  0
 19 20  1  6  0  0  0
 19 27  1  0  0  0  0
 21 22  1  1  0  0  0
 21 28  1  0  0  0  0
 23 24  1  6  0  0  0
 23 30  1  0  0  0  0
 25 26  1  6  0  0  0
 25 32  1  0  0  0  0
 27  2  1  1  0  0  0
 27 34  1  0  0  0  0
 28 29  1  0  0  0  0
 28 36  1  6  0  0  0
 30 31  1  1  0  0  0
 30 38  1  0  0  0  0
 32 33  1  0  0  0  0
 32 40  1  6  0  0  0
 34 35  1  1  0  0  0
 34 42  1  0  0  0  0
 36 37  1  0  0  0  0
 38 39  1  0  0  0  0
 38 45  1  1  0  0  0
 40 41  1  0  0  0  0
 42 43  1  1  0  0  0
 44 47  1  0  0  0  0
 45 46  1  0  0  0  0
 47 48  1  0  0  0  0
 48 49  1  0  0  0  0
 49  7  1  0  0  0  0
M  END
>  <CHROM.1>
-176.14081879,56.50005343,-46.16053732,-175.76475506,53.45070535,-74.04301533
16.73192544,-142.68205677,59.73418502,-176.50851463,172.89898305,-170.54253368
-64.37136332,136.20146159,-160.38138129,-61.47727534,40.66920371,3.75215033
-2.73751226,2.73620835,-1.16717345,-1.49302717

>  <Name>
2bee_lig

>  <RI>
0

>  <Rbt.Current_Directory>
/home/itssahil/PROJECTS/Mol_Feturizer/New_Systems/rnas/2bee

>  <Rbt.Executable>
rbdock ($Id: //depot/dev/client3/rdock/2013.1/src/exe/rbdock.cxx#4 $)

>  <Rbt.Library>
libRbt.so (2013.1, Build901 2013/11/27)

>  <Rbt.Parameter_File>
/export/apps/rDock/src/rDock_2013.1_src/data/scripts/dock_solv.prm

>  <Rbt.Receptor>
prm/pocket_docking_7.prm

>  <SCORE>
-16.5179

>  <SCORE.INTER>
-4.97292

>  <SCORE.INTER.CONST>
1

>  <SCORE.INTER.POLAR>
-0.979796

>  <SCORE.INTER.ROT>
16

>  <SCORE.INTER.SOLV>
11.2301

>  <SCORE.INTER.VDW>
-18.0593

>  <SCORE.INTER.norm>
-0.101488

>  <SCORE.INTRA>
-11.545

>  <SCORE.INTRA.DIHEDRAL>
-22.764

>  <SCORE.INTRA.DIHEDRAL.0>
36.0842

>  <SCORE.INTRA.POLAR>
0

>  <SCORE.INTRA.POLAR.0>
0

>  <SCORE.INTRA.REPUL>
0

>  <SCORE.INTRA.REPUL.0>
0

>  <SCORE.INTRA.SOLV>
0.209483

>  <SCORE.INTRA.SOLV.lig_0>
-126.444

>  <SCORE.INTRA.VDW>
-0.267743

>  <SCORE.INTRA.VDW.0>
-7.40469

>  <SCORE.INTRA.norm>
-0.235612

>  <SCORE.RESTR>
0

>  <SCORE.RESTR.CAVITY>
0

>  <SCORE.RESTR.norm>
0

>  <SCORE.SYSTEM>
0

>  <SCORE.SYSTEM.CONST>
0

>  <SCORE.SYSTEM.DIHEDRAL>
0

>  <SCORE.SYSTEM.SOLV>
0

>  <SCORE.SYSTEM.norm>
0

>  <SCORE.heavy>
49

>  <SCORE.norm>
-0.3371

>  <RMSD>
7.532

$$$$
2bee_lig
 OpenBabel11021811423D
libRbt.so/2013.1/901 2013/11/27
 49 52  0  0  0  0  0  0  0  0999 V2000
   43.7513   11.5461  -11.6210 C   0  0  2  0  0  0  0  0  0  0  0  0
   45.0192   12.1762  -11.7528 O   0  0  0  0  0  0  0  0  0  0  0  0
   48.3200   13.5451   -9.1827 C   0  0  2  0  0  0  0  0  0  0  0  0
   49.0269   14.0792   -7.9869 N   0  0  0  0  0  0  0  0  0  0  0  0
   46.5607    9.2444   -9.4759 C   0  0  1  0  0  0  0  0  0  0  0  0
   44.1635    6.8095   -6.3478 C   0  0  1  0  0  0  0  0  0  0  0  0
   47.2179    4.6465   -5.9454 C   0  0  0  0  0  0  0  0  0  0  0  0
   43.5204   10.5268  -12.8028 C   0  0  2  0  0  0  0  0  0  0  0  0
   44.6247    9.5754  -12.8655 N   0  0  0  0  0  0  0  0  0  0  0  0
   47.1914   14.5792   -9.6354 C   0  0  0  0  0  0  0  0  0  0  0  0
   47.2469    8.3552   -8.4905 C   0  0  2  0  0  0  0  0  0  0  0  0
   48.2813    7.5060   -9.1063 O   0  0  0  0  0  0  0  0  0  0  0  0
   43.6380    7.8860   -5.2541 C   0  0  2  0  0  0  0  0  0  0  0  0
   44.6123    7.9045   -4.1125 N   0  0  0  0  0  0  0  0  0  0  0  0
   46.9404    4.1819   -4.6386 C   0  0  0  0  0  0  0  0  0  0  0  0
   45.8909    4.7394   -3.9116 N   0  0  0  0  0  0  0  0  0  0  0  0
   43.3615   11.3307  -14.1668 C   0  0  1  0  0  0  0  0  0  0  0  0
   43.1495   10.4057  -15.2234 O   0  0  0  0  0  0  0  0  0  0  0  0
   46.3816   14.0214  -10.9410 C   0  0  2  0  0  0  0  0  0  0  0  0
   45.3785   14.9413  -11.3581 N   0  0  0  0  0  0  0  0  0  0  0  0
   45.9946    7.7697   -7.8842 C   0  0  2  0  0  0  0  0  0  0  0  0
   45.4919    7.2574   -6.7096 O   0  0  0  0  0  0  0  0  0  0  0  0
   42.2142    7.4407   -4.7635 C   0  0  1  0  0  0  0  0  0  0  0  0
   41.3208    7.4631   -5.9311 O   0  0  0  0  0  0  0  0  0  0  0  0
   42.1758   12.3150  -14.0379 C   0  0  2  0  0  0  0  0  0  0  0  0
   42.0016   13.0990  -15.2873 O   0  0  0  0  0  0  0  0  0  0  0  0
   45.7177   12.6296  -10.6046 C   0  0  2  0  0  0  0  0  0  0  0  0
   45.0076    7.6525   -9.1490 C   0  0  2  0  0  0  0  0  0  0  0  0
   45.2839    8.7923   -9.8262 O   0  0  0  0  0  0  0  0  0  0  0  0
   42.3149    5.9474   -4.1128 C   0  0  2  0  0  0  0  0  0  0  0  0
   43.2186    5.9368   -2.9403 O   0  0  0  0  0  0  0  0  0  0  0  0
   42.4137   13.3167  -12.8590 C   0  0  2  0  0  0  0  0  0  0  0  0
   42.5841   12.4854  -11.6825 O   0  0  0  0  0  0  0  0  0  0  0  0
   46.8633   11.6566  -10.1646 C   0  0  2  0  0  0  0  0  0  0  0  0
   46.1711   10.4572   -9.9149 O   0  0  0  0  0  0  0  0  0  0  0  0
   43.4576    7.6646   -8.8789 C   0  0  0  0  0  0  0  0  0  0  0  0
   42.7420    7.5438  -10.1489 O   0  0  0  0  0  0  0  0  0  0  0  0
   42.8756    4.9171   -5.1913 C   0  0  1  0  0  0  0  0  0  0  0  0
   44.2198    5.4441   -5.6484 O   0  0  0  0  0  0  0  0  0  0  0  0
   41.2305   14.1952  -12.7963 C   0  0  0  0  0  0  0  0  0  0  0  0
   40.2564   13.6185  -12.0795 O   0  0  0  0  0  0  0  0  0  0  0  0
   47.6114   12.2069   -8.8762 C   0  0  1  0  0  0  0  0  0  0  0  0
   48.6346   11.3366   -8.4994 O   0  0  0  0  0  0  0  0  0  0  0  0
   48.6338    6.1460   -8.6670 C   0  0  0  0  0  0  0  0  0  0  0  0
   42.9480    3.5370   -4.4543 C   0  0  0  0  0  0  0  0  0  0  0  0
   44.0757    2.7465   -4.8568 N   0  0  0  0  0  0  0  0  0  0  0  0
   49.8465    6.2144   -7.7378 C   0  0  0  0  0  0  0  0  0  0  0  0
   49.3476    5.9774   -6.3692 N   0  0  0  0  0  0  0  0  0  0  0  0
   47.8442    6.1072   -6.1162 C   0  0  0  0  0  0  0  0  0  0  0  0
  1  2  1  6  0  0  0
  1  8  1  0  0  0  0
  1 33  1  0  0  0  0
  3  4  1  1  0  0  0
  3 10  1  0  0  0  0
  3 42  1  0  0  0  0
  5 11  1  0  0  0  0
  5 29  1  0  0  0  0
  5 35  1  1  0  0  0
  6 13  1  0  0  0  0
  6 39  1  0  0  0  0
  6 22  1  1  0  0  0
  7 15  1  0  0  0  0
  8  9  1  6  0  0  0
  8 17  1  0  0  0  0
 10 19  1  0  0  0  0
 11 12  1  6  0  0  0
 11 21  1  0  0  0  0
 12 44  1  0  0  0  0
 13 14  1  1  0  0  0
 13 23  1  0  0  0  0
 15 16  1  0  0  0  0
 17 18  1  6  0  0  0
 17 25  1  0  0  0  0
 19 20  1  1  0  0  0
 19 27  1  0  0  0  0
 21 22  1  6  0  0  0
 21 28  1  0  0  0  0
 23 24  1  6  0  0  0
 23 30  1  0  0  0  0
 25 26  1  6  0  0  0
 25 32  1  0  0  0  0
 27  2  1  6  0  0  0
 27 34  1  0  0  0  0
 28 29  1  0  0  0  0
 28 36  1  1  0  0  0
 30 31  1  1  0  0  0
 30 38  1  0  0  0  0
 32 33  1  0  0  0  0
 32 40  1  1  0  0  0
 34 35  1  1  0  0  0
 34 42  1  0  0  0  0
 36 37  1  0  0  0  0
 38 39  1  0  0  0  0
 38 45  1  1  0  0  0
 40 41  1  0  0  0  0
 42 43  1  6  0  0  0
 44 47  1  0  0  0  0
 45 46  1  0  0  0  0
 47 48  1  0  0  0  0
 48 49  1  0  0  0  0
 49  7  1  0  0  0  0
M  END
>  <CHROM.1>
-151.25975384,53.26051875,-112.27173738,70.70944078,-147.10086264,-96.47342270
175.66716543,-139.84880506,-179.79077696,84.56846428,-178.05936056,-144.05501871
105.99536355,-16.15971992,105.64106240,101.30023845,45.00962652,9.17412840
-8.81651465,1.69332896,-0.22047682,-0.74837296

>  <Name>
2bee_lig

>  <RI>
0

>  <Rbt.Current_Directory>
/home/itssahil/PROJECTS/Mol_Feturizer/New_Systems/rnas/2bee

>  <Rbt.Executable>
rbdock ($Id: //depot/dev/client3/rdock/2013.1/src/exe/rbdock.cxx#4 $)

>  <Rbt.Library>
libRbt.so (2013.1, Build901 2013/11/27)

>  <Rbt.Parameter_File>
/export/apps/rDock/src/rDock_2013.1_src/data/scripts/dock_solv.prm

>  <Rbt.Receptor>
prm/blind_docking_60.prm

>  <SCORE>
59.505

>  <SCORE.INTER>
13.7352

>  <SCORE.INTER.CONST>
1

>  <SCORE.INTER.POLAR>
-0.539875

>  <SCORE.INTER.ROT>
16

>  <SCORE.INTER.SOLV>
31.2239

>  <SCORE.INTER.VDW>
-13.7183

>  <SCORE.INTER.norm>
0.280309

>  <SCORE.INTRA>
19.1761

>  <SCORE.INTRA.DIHEDRAL>
11.2345

>  <SCORE.INTRA.DIHEDRAL.0>
36.0842

>  <SCORE.INTRA.POLAR>
0

>  <SCORE.INTRA.POLAR.0>
0

>  <SCORE.INTRA.REPUL>
0

>  <SCORE.INTRA.REPUL.0>
0

>  <SCORE.INTRA.SOLV>
11.1711

>  <SCORE.INTRA.SOLV.lig_0>
-126.444

>  <SCORE.INTRA.VDW>
7.97323

>  <SCORE.INTRA.VDW.0>
-7.40469

>  <SCORE.INTRA.norm>
0.391348

>  <SCORE.RESTR>
26.5938

>  <SCORE.RESTR.CAVITY>
26.5938

>  <SCORE.RESTR.norm>
0.542731

>  <SCORE.SYSTEM>
0

>  <SCORE.SYSTEM.CONST>
0

>  <SCORE.SYSTEM.DIHEDRAL>
0

>  <SCORE.SYSTEM.SOLV>
0

>  <SCORE.SYSTEM.norm>
0

>  <SCORE.heavy>
49

>  <SCORE.norm>
1.21439

>  <RMSD>
7.536

$$$$
2bee_lig
 OpenBabel11021811423D
libRbt.so/2013.1/901 2013/11/27
 49 52  0  0  0  0  0  0  0  0999 V2000
   44.3832    3.1407   -6.7002 C   0  0  2  0  0  0  0  0  0  0  0  0
   43.4469    2.8874   -5.6603 O   0  0  0  0  0  0  0  0  0  0  0  0
   41.4658    6.8073   -5.3715 C   0  0  2  0  0  0  0  0  0  0  0  0
   40.4757    7.8430   -4.9691 N   0  0  0  0  0  0  0  0  0  0  0  0
   43.5629    4.1714   -2.2853 C   0  0  1  0  0  0  0  0  0  0  0  0
   41.6282    0.1676   -1.6070 C   0  0  1  0  0  0  0  0  0  0  0  0
   39.7221    7.5757    2.5300 C   0  0  0  0  0  0  0  0  0  0  0  0
   45.2321    1.8453   -7.0008 C   0  0  2  0  0  0  0  0  0  0  0  0
   44.3462    0.7237   -7.2935 N   0  0  0  0  0  0  0  0  0  0  0  0
   40.7031    5.5867   -6.0616 C   0  0  0  0  0  0  0  0  0  0  0  0
   42.5303    3.6850   -1.3210 C   0  0  2  0  0  0  0  0  0  0  0  0
   42.3858    4.5599   -0.1446 O   0  0  0  0  0  0  0  0  0  0  0  0
   41.9010    0.3082   -3.1998 C   0  0  2  0  0  0  0  0  0  0  0  0
   41.8359    1.7646   -3.5573 N   0  0  0  0  0  0  0  0  0  0  0  0
   39.3114    6.4259    3.2443 C   0  0  0  0  0  0  0  0  0  0  0  0
   39.4713    5.1630    2.6784 N   0  0  0  0  0  0  0  0  0  0  0  0
   46.1774    1.5365   -5.7586 C   0  0  1  0  0  0  0  0  0  0  0  0
   46.9406    0.3723   -6.0401 O   0  0  0  0  0  0  0  0  0  0  0  0
   41.7570    4.4195   -6.5069 C   0  0  2  0  0  0  0  0  0  0  0  0
   41.0870    3.3300   -7.1319 N   0  0  0  0  0  0  0  0  0  0  0  0
   43.0544    2.2742   -1.2033 C   0  0  2  0  0  0  0  0  0  0  0  0
   42.6483    0.9786   -0.9766 O   0  0  0  0  0  0  0  0  0  0  0  0
   40.7962   -0.5030   -3.9664 C   0  0  1  0  0  0  0  0  0  0  0  0
   40.9364   -1.9133   -3.5751 O   0  0  0  0  0  0  0  0  0  0  0  0
   47.0917    2.7573   -5.5036 C   0  0  2  0  0  0  0  0  0  0  0  0
   47.9822    2.5167   -4.3395 O   0  0  0  0  0  0  0  0  0  0  0  0
   42.5470    3.9011   -5.2427 C   0  0  2  0  0  0  0  0  0  0  0  0
   44.6481    2.4786   -1.2803 C   0  0  2  0  0  0  0  0  0  0  0  0
   44.7606    3.4515   -2.2156 O   0  0  0  0  0  0  0  0  0  0  0  0
   39.3271    0.0872   -3.5703 C   0  0  2  0  0  0  0  0  0  0  0  0
   39.1987    1.5077   -3.9665 O   0  0  0  0  0  0  0  0  0  0  0  0
   46.2383    4.0367   -5.2127 C   0  0  2  0  0  0  0  0  0  0  0  0
   45.3921    4.2025   -6.3793 O   0  0  0  0  0  0  0  0  0  0  0  0
   43.2716    5.1336   -4.6034 C   0  0  2  0  0  0  0  0  0  0  0  0
   43.9540    4.5602   -3.5146 O   0  0  0  0  0  0  0  0  0  0  0  0
   45.5226    1.2738   -1.7900 C   0  0  0  0  0  0  0  0  0  0  0  0
   46.9112    1.7091   -1.9368 O   0  0  0  0  0  0  0  0  0  0  0  0
   39.1002   -0.0202   -1.9967 C   0  0  1  0  0  0  0  0  0  0  0  0
   40.2302    0.7405   -1.3348 O   0  0  0  0  0  0  0  0  0  0  0  0
   47.1863    5.1478   -5.0069 C   0  0  0  0  0  0  0  0  0  0  0  0
   46.5273    6.2787   -4.7203 O   0  0  0  0  0  0  0  0  0  0  0  0
   42.2225    6.2368   -4.1513 C   0  0  1  0  0  0  0  0  0  0  0  0
   42.8801    7.3327   -3.5918 O   0  0  0  0  0  0  0  0  0  0  0  0
   43.4977    5.1954    0.5812 C   0  0  0  0  0  0  0  0  0  0  0  0
   37.6812    0.5892   -1.7354 C   0  0  0  0  0  0  0  0  0  0  0  0
   36.6194   -0.2209   -2.2596 N   0  0  0  0  0  0  0  0  0  0  0  0
   42.9500    5.9110    1.8169 C   0  0  0  0  0  0  0  0  0  0  0  0
   41.8289    6.7541    1.3582 N   0  0  0  0  0  0  0  0  0  0  0  0
   41.2872    7.8184    2.3148 C   0  0  0  0  0  0  0  0  0  0  0  0
  1  2  1  1  0  0  0
  1  8  1  0  0  0  0
  1 33  1  0  0  0  0
  3  4  1  1  0  0  0
  3 10  1  0  0  0  0
  3 42  1  0  0  0  0
  5 11  1  0  0  0  0
  5 29  1  0  0  0  0
  5 35  1  6  0  0  0
  6 13  1  0  0  0  0
  6 39  1  0  0  0  0
  6 22  1  1  0  0  0
  7 15  1  0  0  0  0
  8  9  1  1  0  0  0
  8 17  1  0  0  0  0
 10 19  1  0  0  0  0
 11 12  1  1  0  0  0
 11 21  1  0  0  0  0
 12 44  1  0  0  0  0
 13 14  1  6  0  0  0
 13 23  1  0  0  0  0
 15 16  1  0  0  0  0
 17 18  1  6  0  0  0
 17 25  1  0  0  0  0
 19 20  1  1  0  0  0
 19 27  1  0  0  0  0
 21 22  1  1  0  0  0
 21 28  1  0  0  0  0
 23 24  1  1  0  0  0
 23 30  1  0  0  0  0
 25 26  1  1  0  0  0
 25 32  1  0  0  0  0
 27  2  1  6  0  0  0
 27 34  1  0  0  0  0
 28 29  1  0  0  0  0
 28 36  1  6  0  0  0
 30 31  1  1  0  0  0
 30 38  1  0  0  0  0
 32 33  1  0  0  0  0
 32 40  1  6  0  0  0
 34 35  1  1  0  0  0
 34 42  1  0  0  0  0
 36 37  1  0  0  0  0
 38 39  1  0  0  0  0
 38 45  1  6  0  0  0
 40 41  1  0  0  0  0
 42 43  1  6  0  0  0
 44 47  1  0  0  0  0
 45 46  1  0  0  0  0
 47 48  1  0  0  0  0
 48 49  1  0  0  0  0
 49  7  1  0  0  0  0
M  END
>  <CHROM.1>
-178.33579923,26.55593218,49.85235492,-69.53847392,-40.91688343,-174.55448802
52.51221356,54.54429105,173.32046135,-178.56651232,-78.75903023,68.74177774
-50.45803784,-166.63471389,-123.63588989,68.74135698,42.78620861,3.31160677
-3.05360586,-0.72363193,0.63476199,0.66188531

>  <Name>
2bee_lig

>  <RI>
3.46266e+07

>  <Rbt.Current_Directory>
/home/itssahil/PROJECTS/Mol_Feturizer/New_Systems/rnas/2bee

>  <Rbt.Executable>
rbdock ($Id: //depot/dev/client3/rdock/2013.1/src/exe/rbdock.cxx#4 $)

>  <Rbt.Library>
libRbt.so (2013.1, Build901 2013/11/27)

>  <Rbt.Parameter_File>
/export/apps/rDock/src/rDock_2013.1_src/data/scripts/dock_solv.prm

>  <Rbt.Receptor>
prm/pocket_docking_4.prm

>  <SCORE>
-4.0327

>  <SCORE.INTER>
3.14804

>  <SCORE.INTER.CONST>
1

>  <SCORE.INTER.POLAR>
0

>  <SCORE.INTER.ROT>
16

>  <SCORE.INTER.SOLV>
13.2882

>  <SCORE.INTER.VDW>
-16.5974

>  <SCORE.INTER.norm>
0.0642456

>  <SCORE.INTRA>
-7.18074

>  <SCORE.INTRA.DIHEDRAL>
-20.3128

>  <SCORE.INTRA.DIHEDRAL.0>
36.0842

>  <SCORE.INTRA.POLAR>
0

>  <SCORE.INTRA.POLAR.0>
0

>  <SCORE.INTRA.REPUL>
0.0319029

>  <SCORE.INTRA.REPUL.0>
0

>  <SCORE.INTRA.SOLV>
6.64209

>  <SCORE.INTRA.SOLV.lig_0>
-126.444

>  <SCORE.INTRA.VDW>
-0.504876

>  <SCORE.INTRA.VDW.0>
-7.40469

>  <SCORE.INTRA.norm>
-0.146546

>  <SCORE.RESTR>
0

>  <SCORE.RESTR.CAVITY>
0

>  <SCORE.RESTR.norm>
0

>  <SCORE.SYSTEM>
0

>  <SCORE.SYSTEM.CONST>
0

>  <SCORE.SYSTEM.DIHEDRAL>
0

>  <SCORE.SYSTEM.SOLV>
0

>  <SCORE.SYSTEM.norm>
0

>  <SCORE.heavy>
49

>  <SCORE.norm>
-0.0823001

>  <RMSD>
7.546

$$$$
2bee_lig
 OpenBabel11021811423D
libRbt.so/2013.1/901 2013/11/27
 49 52  0  0  0  0  0  0  0  0999 V2000
   44.3525    7.4394   -3.7751 C   0  0  2  0  0  0  0  0  0  0  0  0
   43.1948    7.5008   -4.5986 O   0  0  0  0  0  0  0  0  0  0  0  0
   42.3095    6.5940   -8.8139 C   0  0  2  0  0  0  0  0  0  0  0  0
   42.3318    5.8847  -10.1220 N   0  0  0  0  0  0  0  0  0  0  0  0
   40.2830    4.7131   -5.1994 C   0  0  1  0  0  0  0  0  0  0  0  0
   40.3389    0.3710   -3.5401 C   0  0  1  0  0  0  0  0  0  0  0  0
   34.7649   -0.1605   -9.7213 C   0  0  0  0  0  0  0  0  0  0  0  0
   44.4297    6.0449   -3.0413 C   0  0  2  0  0  0  0  0  0  0  0  0
   44.3676    4.9622   -4.0173 N   0  0  0  0  0  0  0  0  0  0  0  0
   43.8037    6.9510   -8.3806 C   0  0  0  0  0  0  0  0  0  0  0  0
   39.8403    3.3069   -5.4427 C   0  0  2  0  0  0  0  0  0  0  0  0
   38.6116    3.2233   -6.2511 O   0  0  0  0  0  0  0  0  0  0  0  0
   38.9884   -0.1390   -4.2797 C   0  0  2  0  0  0  0  0  0  0  0  0
   37.8359    0.0674   -3.3403 N   0  0  0  0  0  0  0  0  0  0  0  0
   34.8072   -1.4786   -9.2099 C   0  0  0  0  0  0  0  0  0  0  0  0
   34.7114   -2.5637  -10.0784 N   0  0  0  0  0  0  0  0  0  0  0  0
   43.2496    5.9442   -1.9787 C   0  0  1  0  0  0  0  0  0  0  0  0
   43.3300    4.6883   -1.3203 O   0  0  0  0  0  0  0  0  0  0  0  0
   43.8230    7.7209   -6.9389 C   0  0  2  0  0  0  0  0  0  0  0  0
   45.1511    8.0517   -6.5479 N   0  0  0  0  0  0  0  0  0  0  0  0
   39.8750    2.8627   -4.0003 C   0  0  2  0  0  0  0  0  0  0  0  0
   40.0864    1.7572   -3.2077 O   0  0  0  0  0  0  0  0  0  0  0  0
   39.1572   -1.6611   -4.6275 C   0  0  1  0  0  0  0  0  0  0  0  0
   40.2898   -1.7756   -5.5579 O   0  0  0  0  0  0  0  0  0  0  0  0
   43.3739    7.1125   -0.9732 C   0  0  2  0  0  0  0  0  0  0  0  0
   42.2796    7.0652    0.0299 O   0  0  0  0  0  0  0  0  0  0  0  0
   43.1573    6.8087   -5.8362 C   0  0  2  0  0  0  0  0  0  0  0  0
   39.3824    4.1750   -3.2113 C   0  0  2  0  0  0  0  0  0  0  0  0
   39.9895    5.1649   -3.9082 O   0  0  0  0  0  0  0  0  0  0  0  0
   39.4226   -2.4983   -3.2520 C   0  0  2  0  0  0  0  0  0  0  0  0
   38.2772   -2.3735   -2.3225 O   0  0  0  0  0  0  0  0  0  0  0  0
   43.3019    8.4897   -1.7135 C   0  0  2  0  0  0  0  0  0  0  0  0
   44.3857    8.4602   -2.6773 O   0  0  0  0  0  0  0  0  0  0  0  0
   41.7000    6.4860   -6.3100 C   0  0  2  0  0  0  0  0  0  0  0  0
   41.1996    5.6991   -5.2564 O   0  0  0  0  0  0  0  0  0  0  0  0
   39.8341    4.3487   -1.7142 C   0  0  0  0  0  0  0  0  0  0  0  0
   39.2319    3.2938   -0.8993 O   0  0  0  0  0  0  0  0  0  0  0  0
   40.7278   -1.9500   -2.5207 C   0  0  1  0  0  0  0  0  0  0  0  0
   40.5054   -0.4733   -2.2689 O   0  0  0  0  0  0  0  0  0  0  0  0
   43.4519    9.5378   -0.6866 C   0  0  0  0  0  0  0  0  0  0  0  0
   43.3918   10.7538   -1.2461 O   0  0  0  0  0  0  0  0  0  0  0  0
   41.7126    5.7104   -7.6959 C   0  0  1  0  0  0  0  0  0  0  0  0
   40.4094    5.4366   -8.1116 O   0  0  0  0  0  0  0  0  0  0  0  0
   37.9540    1.9739   -6.6675 C   0  0  0  0  0  0  0  0  0  0  0  0
   40.8684   -2.8060   -1.2166 C   0  0  0  0  0  0  0  0  0  0  0  0
   41.0399   -4.2056   -1.4820 N   0  0  0  0  0  0  0  0  0  0  0  0
   36.7556    2.3068   -7.5574 C   0  0  0  0  0  0  0  0  0  0  0  0
   36.1285    1.0222   -7.9244 N   0  0  0  0  0  0  0  0  0  0  0  0
   34.8026    1.0579   -8.6873 C   0  0  0  0  0  0  0  0  0  0  0  0
  1  2  1  1  0  0  0
  1  8  1  0  0  0  0
  1 33  1  0  0  0  0
  3  4  1  6  0  0  0
  3 10  1  0  0  0  0
  3 42  1  0  0  0  0
  5 11  1  0  0  0  0
  5 29  1  0  0  0  0
  5 35  1  1  0  0  0
  6 13  1  0  0  0  0
  6 39  1  0  0  0  0
  6 22  1  1  0  0  0
  7 15  1  0  0  0  0
  8  9  1  6  0  0  0
  8 17  1  0  0  0  0
 10 19  1  0  0  0  0
 11 12  1  1  0  0  0
 11 21  1  0  0  0  0
 12 44  1  0  0  0  0
 13 14  1  1  0  0  0
 13 23  1  0  0  0  0
 15 16  1  0  0  0  0
 17 18  1  1  0  0  0
 17 25  1  0  0  0  0
 19 20  1  1  0  0  0
 19 27  1  0  0  0  0
 21 22  1  6  0  0  0
 21 28  1  0  0  0  0
 23 24  1  6  0  0  0
 23 30  1  0  0  0  0
 25 26  1  1  0  0  0
 25 32  1  0  0  0  0
 27  2  1  1  0  0  0
 27 34  1  0  0  0  0
 28 29  1  0  0  0  0
 28 36  1  1  0  0  0
 30 31  1  1  0  0  0
 30 38  1  0  0  0  0
 32 33  1  0  0  0  0
 32 40  1  1  0  0  0
 34 35  1  1  0  0  0
 34 42  1  0  0  0  0
 36 37  1  0  0  0  0
 38 39  1  0  0  0  0
 38 45  1  1  0  0  0
 40 41  1  0  0  0  0
 42 43  1  6  0  0  0
 44 47  1  0  0  0  0
 45 46  1  0  0  0  0
 47 48  1  0  0  0  0
 48 49  1  0  0  0  0
 49  7  1  0  0  0  0
M  END
>  <CHROM.1>
-75.70097820,74.18282942,-64.52095990,176.92325592,178.97803445,-176.82772750
-3.70859562,-84.82503889,-65.54631533,-179.61198043,-150.61698395,61.24111243
-179.17371617,173.14158079,144.75354580,62.61858214,40.67015031,3.49899990
-4.61261910,-0.35292584,0.95125057,2.25701356

>  <Name>
2bee_lig

>  <RI>
0

>  <Rbt.Current_Directory>
/home/itssahil/PROJECTS/Mol_Feturizer/New_Systems/rnas/2bee

>  <Rbt.Executable>
rbdock ($Id: //depot/dev/client3/rdock/2013.1/src/exe/rbdock.cxx#4 $)

>  <Rbt.Library>
libRbt.so (2013.1, Build901 2013/11/27)

>  <Rbt.Parameter_File>
/export/apps/rDock/src/rDock_2013.1_src/data/scripts/dock_solv.prm

>  <Rbt.Receptor>
prm/pocket_docking_7.prm

>  <SCORE>
-26.5751

>  <SCORE.INTER>
-15.8131

>  <SCORE.INTER.CONST>
1

>  <SCORE.INTER.POLAR>
-2.78207

>  <SCORE.INTER.ROT>
16

>  <SCORE.INTER.SOLV>
17.7714

>  <SCORE.INTER.VDW>
-21.4589

>  <SCORE.INTER.norm>
-0.322716

>  <SCORE.INTRA>
-10.762

>  <SCORE.INTRA.DIHEDRAL>
-23.1394

>  <SCORE.INTRA.DIHEDRAL.0>
36.0842

>  <SCORE.INTRA.POLAR>
0

>  <SCORE.INTRA.POLAR.0>
0

>  <SCORE.INTRA.REPUL>
0

>  <SCORE.INTRA.REPUL.0>
0

>  <SCORE.INTRA.SOLV>
0.157371

>  <SCORE.INTRA.SOLV.lig_0>
-126.444

>  <SCORE.INTRA.VDW>
0.729045

>  <SCORE.INTRA.VDW.0>
-7.40469

>  <SCORE.INTRA.norm>
-0.219632

>  <SCORE.RESTR>
0

>  <SCORE.RESTR.CAVITY>
0

>  <SCORE.RESTR.norm>
0

>  <SCORE.SYSTEM>
0

>  <SCORE.SYSTEM.CONST>
0

>  <SCORE.SYSTEM.DIHEDRAL>
0

>  <SCORE.SYSTEM.SOLV>
0

>  <SCORE.SYSTEM.norm>
0

>  <SCORE.heavy>
49

>  <SCORE.norm>
-0.542349

>  <RMSD>
7.585

$$$$
2bee_lig
 OpenBabel11021811423D
libRbt.so/2013.1/901 2013/11/27
 49 52  0  0  0  0  0  0  0  0999 V2000
   42.6907    6.5381   -0.1835 C   0  0  2  0  0  0  0  0  0  0  0  0
   41.7146    6.4402   -1.2130 O   0  0  0  0  0  0  0  0  0  0  0  0
   42.2403    7.2732   -5.5030 C   0  0  2  0  0  0  0  0  0  0  0  0
   42.7173    7.1221   -6.9046 N   0  0  0  0  0  0  0  0  0  0  0  0
   40.3177    3.8049   -3.2263 C   0  0  1  0  0  0  0  0  0  0  0  0
   44.2202    2.0622   -4.6192 C   0  0  1  0  0  0  0  0  0  0  0  0
   38.2038   -2.0650   -6.9238 C   0  0  0  0  0  0  0  0  0  0  0  0
   42.0718    6.1042    1.2013 C   0  0  2  0  0  0  0  0  0  0  0  0
   41.4905    4.7704    1.0933 N   0  0  0  0  0  0  0  0  0  0  0  0
   43.4974    7.3580   -4.5230 C   0  0  0  0  0  0  0  0  0  0  0  0
   40.6589    2.5882   -4.0237 C   0  0  2  0  0  0  0  0  0  0  0  0
   39.5768    1.5886   -4.0376 O   0  0  0  0  0  0  0  0  0  0  0  0
   45.0863    3.3020   -4.0332 C   0  0  2  0  0  0  0  0  0  0  0  0
   44.1455    4.4382   -3.7555 N   0  0  0  0  0  0  0  0  0  0  0  0
   39.2714   -1.5047   -7.6635 C   0  0  0  0  0  0  0  0  0  0  0  0
   40.3020   -2.3218   -8.1227 N   0  0  0  0  0  0  0  0  0  0  0  0
   40.9900    7.1799    1.6536 C   0  0  1  0  0  0  0  0  0  0  0  0
   40.4421    6.7836    2.9026 O   0  0  0  0  0  0  0  0  0  0  0  0
   43.0141    7.5114   -2.9691 C   0  0  2  0  0  0  0  0  0  0  0  0
   44.1286    7.5969   -2.0878 N   0  0  0  0  0  0  0  0  0  0  0  0
   41.9868    2.3135   -3.3605 C   0  0  2  0  0  0  0  0  0  0  0  0
   43.2319    1.7775   -3.6003 O   0  0  0  0  0  0  0  0  0  0  0  0
   46.1542    3.7139   -5.1085 C   0  0  1  0  0  0  0  0  0  0  0  0
   47.0408    2.5588   -5.3114 O   0  0  0  0  0  0  0  0  0  0  0  0
   41.6674    8.5664    1.7540 C   0  0  2  0  0  0  0  0  0  0  0  0
   40.6868    9.6056    2.1595 O   0  0  0  0  0  0  0  0  0  0  0  0
   42.1120    6.2808   -2.5653 C   0  0  2  0  0  0  0  0  0  0  0  0
   41.7141    2.7298   -1.8309 C   0  0  2  0  0  0  0  0  0  0  0  0
   40.9419    3.8330   -1.9746 O   0  0  0  0  0  0  0  0  0  0  0  0
   45.3902    4.1345   -6.4880 C   0  0  2  0  0  0  0  0  0  0  0  0
   44.4989    5.2964   -6.2708 O   0  0  0  0  0  0  0  0  0  0  0  0
   42.2823    8.9828    0.3762 C   0  0  2  0  0  0  0  0  0  0  0  0
   43.2160    7.9244    0.0413 O   0  0  0  0  0  0  0  0  0  0  0  0
   40.8998    6.2415   -3.5560 C   0  0  2  0  0  0  0  0  0  0  0  0
   40.1601    5.1366   -3.0955 O   0  0  0  0  0  0  0  0  0  0  0  0
   42.9459    3.1648   -0.9539 C   0  0  0  0  0  0  0  0  0  0  0  0
   43.9373    2.0895   -0.9409 O   0  0  0  0  0  0  0  0  0  0  0  0
   44.5110    2.9166   -7.0199 C   0  0  1  0  0  0  0  0  0  0  0  0
   43.5478    2.5498   -5.9103 O   0  0  0  0  0  0  0  0  0  0  0  0
   42.9231   10.2970    0.5714 C   0  0  0  0  0  0  0  0  0  0  0  0
   41.9967   11.2604    0.6661 O   0  0  0  0  0  0  0  0  0  0  0  0
   41.3966    6.0596   -5.0535 C   0  0  1  0  0  0  0  0  0  0  0  0
   40.3089    6.0348   -5.9268 O   0  0  0  0  0  0  0  0  0  0  0  0
   39.7404    0.1668   -4.3823 C   0  0  0  0  0  0  0  0  0  0  0  0
   43.8155    3.4392   -8.3223 C   0  0  0  0  0  0  0  0  0  0  0  0
   42.8662    4.4847   -8.0684 N   0  0  0  0  0  0  0  0  0  0  0  0
   38.3794   -0.5279   -4.3171 C   0  0  0  0  0  0  0  0  0  0  0  0
   37.6041   -0.0543   -5.4802 N   0  0  0  0  0  0  0  0  0  0  0  0
   37.0267   -1.0994   -6.4371 C   0  0  0  0  0  0  0  0  0  0  0  0
  1  2  1  6  0  0  0
  1  8  1  0  0  0  0
  1 33  1  0  0  0  0
  3  4  1  6  0  0  0
  3 10  1  0  0  0  0
  3 42  1  0  0  0  0
  5 11  1  0  0  0  0
  5 29  1  0  0  0  0
  5 35  1  6  0  0  0
  6 13  1  0  0  0  0
  6 39  1  0  0  0  0
  6 22  1  1  0  0  0
  7 15  1  0  0  0  0
  8  9  1  6  0  0  0
  8 17  1  0  0  0  0
 10 19  1  0  0  0  0
 11 12  1  1  0  0  0
 11 21  1  0  0  0  0
 12 44  1  0  0  0  0
 13 14  1  6  0  0  0
 13 23  1  0  0  0  0
 15 16  1  0  0  0  0
 17 18  1  1  0  0  0
 17 25  1  0  0  0  0
 19 20  1  1  0  0  0
 19 27  1  0  0  0  0
 21 22  1  1  0  0  0
 21 28  1  0  0  0  0
 23 24  1  6  0  0  0
 23 30  1  0  0  0  0
 25 26  1  6  0  0  0
 25 32  1  0  0  0  0
 27  2  1  1  0  0  0
 27 34  1  0  0  0  0
 28 29  1  0  0  0  0
 28 36  1  6  0  0  0
 30 31  1  1  0  0  0
 30 38  1  0  0  0  0
 32 33  1  0  0  0  0
 32 40  1  1  0  0  0
 34 35  1  1  0  0  0
 34 42  1  0  0  0  0
 36 37  1  0  0  0  0
 38 39  1  0  0  0  0
 38 45  1  6  0  0  0
 40 41  1  0  0  0  0
 42 43  1  6  0  0  0
 44 47  1  0  0  0  0
 45 46  1  0  0  0  0
 47 48  1  0  0  0  0
 48 49  1  0  0  0  0
 49  7  1  0  0  0  0
M  END
>  <CHROM.1>
-156.19622885,-40.98471281,86.00001290,-178.90437169,-161.10868476,-178.42381360
54.15606934,-59.06464073,-57.09850007,-74.17734336,-77.50688719,-66.40444373
72.03338001,124.92837413,-53.64393492,-62.58167754,42.02839869,4.42790708
-3.30584660,1.40149852,0.69078901,0.82329896

>  <Name>
2bee_lig

>  <RI>
2.18182e+07

>  <Rbt.Current_Directory>
/home/itssahil/PROJECTS/Mol_Feturizer/New_Systems/rnas/2bee

>  <Rbt.Executable>
rbdock ($Id: //depot/dev/client3/rdock/2013.1/src/exe/rbdock.cxx#4 $)

>  <Rbt.Library>
libRbt.so (2013.1, Build901 2013/11/27)

>  <Rbt.Parameter_File>
/export/apps/rDock/src/rDock_2013.1_src/data/scripts/dock_solv.prm

>  <Rbt.Receptor>
prm/pocket_docking_3.prm

>  <SCORE>
6.98729

>  <SCORE.INTER>
5.4923

>  <SCORE.INTER.CONST>
1

>  <SCORE.INTER.POLAR>
-0.86454

>  <SCORE.INTER.ROT>
16

>  <SCORE.INTER.SOLV>
8.39545

>  <SCORE.INTER.VDW>
-10.5218

>  <SCORE.INTER.norm>
0.112088

>  <SCORE.INTRA>
1.47781

>  <SCORE.INTRA.DIHEDRAL>
-18.0796

>  <SCORE.INTRA.DIHEDRAL.0>
36.0842

>  <SCORE.INTRA.POLAR>
0

>  <SCORE.INTRA.POLAR.0>
0

>  <SCORE.INTRA.REPUL>
0

>  <SCORE.INTRA.REPUL.0>
0

>  <SCORE.INTRA.SOLV>
16.3488

>  <SCORE.INTRA.SOLV.lig_0>
-126.444

>  <SCORE.INTRA.VDW>
2.34324

>  <SCORE.INTRA.VDW.0>
-7.40469

>  <SCORE.INTRA.norm>
0.0301593

>  <SCORE.RESTR>
0.0171884

>  <SCORE.RESTR.CAVITY>
0.0171884

>  <SCORE.RESTR.norm>
0.000350784

>  <SCORE.SYSTEM>
0

>  <SCORE.SYSTEM.CONST>
0

>  <SCORE.SYSTEM.DIHEDRAL>
0

>  <SCORE.SYSTEM.SOLV>
0

>  <SCORE.SYSTEM.norm>
0

>  <SCORE.heavy>
49

>  <SCORE.norm>
0.142598

>  <RMSD>
7.646

$$$$
2bee_lig
 OpenBabel11021811423D
libRbt.so/2013.1/901 2013/11/27
 49 52  0  0  0  0  0  0  0  0999 V2000
   44.5783   13.5113  -11.4857 C   0  0  2  0  0  0  0  0  0  0  0  0
   44.7679   12.8468  -10.2429 O   0  0  0  0  0  0  0  0  0  0  0  0
   49.1285   12.2478  -10.2156 C   0  0  2  0  0  0  0  0  0  0  0  0
   50.5026   12.0287   -9.6878 N   0  0  0  0  0  0  0  0  0  0  0  0
   45.8293    9.3540   -9.1414 C   0  0  1  0  0  0  0  0  0  0  0  0
   42.8883    6.7024   -6.4369 C   0  0  1  0  0  0  0  0  0  0  0  0
   50.1530    4.4803   -7.0276 C   0  0  0  0  0  0  0  0  0  0  0  0
   43.6466   12.6555  -12.4282 C   0  0  2  0  0  0  0  0  0  0  0  0
   42.3920   12.3511  -11.7486 N   0  0  0  0  0  0  0  0  0  0  0  0
   48.5077   13.5575   -9.5468 C   0  0  0  0  0  0  0  0  0  0  0  0
   45.5559    8.8938   -7.7463 C   0  0  2  0  0  0  0  0  0  0  0  0
   46.7464    8.3355   -7.0821 O   0  0  0  0  0  0  0  0  0  0  0  0
   42.6003    7.6904   -5.1832 C   0  0  2  0  0  0  0  0  0  0  0  0
   43.8065    8.5626   -4.9899 N   0  0  0  0  0  0  0  0  0  0  0  0
   51.5208    4.6200   -7.3596 C   0  0  0  0  0  0  0  0  0  0  0  0
   52.4536    4.8903   -6.3609 N   0  0  0  0  0  0  0  0  0  0  0  0
   44.4135   11.3310  -12.8634 C   0  0  1  0  0  0  0  0  0  0  0  0
   43.5693   10.5697  -13.7148 O   0  0  0  0  0  0  0  0  0  0  0  0
   46.9903   13.8254  -10.0920 C   0  0  2  0  0  0  0  0  0  0  0  0
   46.4313   14.9970   -9.5079 N   0  0  0  0  0  0  0  0  0  0  0  0
   44.3561    8.0397   -8.0779 C   0  0  2  0  0  0  0  0  0  0  0  0
   43.1692    7.5811   -7.5527 O   0  0  0  0  0  0  0  0  0  0  0  0
   42.3389    6.8115   -3.9082 C   0  0  1  0  0  0  0  0  0  0  0  0
   41.1396    6.0027   -4.1711 O   0  0  0  0  0  0  0  0  0  0  0  0
   45.7274   11.7202  -13.5800 C   0  0  2  0  0  0  0  0  0  0  0  0
   46.4841   10.5098  -13.9904 O   0  0  0  0  0  0  0  0  0  0  0  0
   46.0763   12.5813   -9.7637 C   0  0  2  0  0  0  0  0  0  0  0  0
   44.7450    7.4197   -9.5103 C   0  0  2  0  0  0  0  0  0  0  0  0
   45.3515    8.4692  -10.1142 O   0  0  0  0  0  0  0  0  0  0  0  0
   43.6454    5.8749   -3.6266 C   0  0  2  0  0  0  0  0  0  0  0  0
   44.8465    6.6999   -3.3659 O   0  0  0  0  0  0  0  0  0  0  0  0
   46.6401   12.5735  -12.6373 C   0  0  2  0  0  0  0  0  0  0  0  0
   45.8373   13.7251  -12.2715 O   0  0  0  0  0  0  0  0  0  0  0  0
   46.7292   11.3275  -10.4375 C   0  0  2  0  0  0  0  0  0  0  0  0
   45.8321   10.2957  -10.1050 O   0  0  0  0  0  0  0  0  0  0  0  0
   43.5751    6.9774  -10.4649 C   0  0  0  0  0  0  0  0  0  0  0  0
   42.7017    8.1213  -10.7256 O   0  0  0  0  0  0  0  0  0  0  0  0
   43.9353    4.9462   -4.8886 C   0  0  1  0  0  0  0  0  0  0  0  0
   44.1234    5.8642   -6.0784 O   0  0  0  0  0  0  0  0  0  0  0  0
   47.8507   12.9168  -13.4068 C   0  0  0  0  0  0  0  0  0  0  0  0
   47.5207   13.5420  -14.5450 O   0  0  0  0  0  0  0  0  0  0  0  0
   48.1890   11.0721   -9.8662 C   0  0  1  0  0  0  0  0  0  0  0  0
   48.7632    9.9586  -10.4800 O   0  0  0  0  0  0  0  0  0  0  0  0
   47.5731    7.2365   -7.6072 C   0  0  0  0  0  0  0  0  0  0  0  0
   45.2099    4.1166   -4.5144 C   0  0  0  0  0  0  0  0  0  0  0  0
   44.9553    3.1211   -3.5131 N   0  0  0  0  0  0  0  0  0  0  0  0
   46.9961    5.9011   -7.1350 C   0  0  0  0  0  0  0  0  0  0  0  0
   47.9367    5.3615   -6.1340 N   0  0  0  0  0  0  0  0  0  0  0  0
   49.4225    5.6937   -6.2865 C   0  0  0  0  0  0  0  0  0  0  0  0
  1  2  1  1  0  0  0
  1  8  1  0  0  0  0
  1 33  1  0  0  0  0
  3  4  1  1  0  0  0
  3 10  1  0  0  0  0
  3 42  1  0  0  0  0
  5 11  1  0  0  0  0
  5 29  1  0  0  0  0
  5 35  1  6  0  0  0
  6 13  1  0  0  0  0
  6 39  1  0  0  0  0
  6 22  1  6  0  0  0
  7 15  1  0  0  0  0
  8  9  1  1  0  0  0
  8 17  1  0  0  0  0
 10 19  1  0  0  0  0
 11 12  1  6  0  0  0
 11 21  1  0  0  0  0
 12 44  1  0  0  0  0
 13 14  1  1  0  0  0
 13 23  1  0  0  0  0
 15 16  1  0  0  0  0
 17 18  1  6  0  0  0
 17 25  1  0  0  0  0
 19 20  1  1  0  0  0
 19 27  1  0  0  0  0
 21 22  1  1  0  0  0
 21 28  1  0  0  0  0
 23 24  1  6  0  0  0
 23 30  1  0  0  0  0
 25 26  1  1  0  0  0
 25 32  1  0  0  0  0
 27  2  1  6  0  0  0
 27 34  1  0  0  0  0
 28 29  1  0  0  0  0
 28 36  1  6  0  0  0
 30 31  1  6  0  0  0
 30 38  1  0  0  0  0
 32 33  1  0  0  0  0
 32 40  1  6  0  0  0
 34 35  1  1  0  0  0
 34 42  1  0  0  0  0
 36 37  1  0  0  0  0
 38 39  1  0  0  0  0
 38 45  1  1  0  0  0
 40 41  1  0  0  0  0
 42 43  1  6  0  0  0
 44 47  1  0  0  0  0
 45 46  1  0  0  0  0
 47 48  1  0  0  0  0
 48 49  1  0  0  0  0
 49  7  1  0  0  0  0
M  END
>  <CHROM.1>
125.46893978,83.27248041,95.73780422,57.40716303,-55.12956649,-88.16336757
-64.72735241,39.33436696,57.88334586,55.88634351,-98.15213720,71.27122392
-108.97233937,-31.13044433,-96.94996117,175.46275212,45.86780203,9.13244608
-8.83381924,1.48167499,0.10789063,-0.76348645

>  <Name>
2bee_lig

>  <RI>
0

>  <Rbt.Current_Directory>
/home/itssahil/PROJECTS/Mol_Feturizer/New_Systems/rnas/2bee

>  <Rbt.Executable>
rbdock ($Id: //depot/dev/client3/rdock/2013.1/src/exe/rbdock.cxx#4 $)

>  <Rbt.Library>
libRbt.so (2013.1, Build901 2013/11/27)

>  <Rbt.Parameter_File>
/export/apps/rDock/src/rDock_2013.1_src/data/scripts/dock_solv.prm

>  <Rbt.Receptor>
prm/blind_docking_60.prm

>  <SCORE>
46.1814

>  <SCORE.INTER>
7.49929

>  <SCORE.INTER.CONST>
1

>  <SCORE.INTER.POLAR>
-1.90262

>  <SCORE.INTER.ROT>
16

>  <SCORE.INTER.SOLV>
36.7563

>  <SCORE.INTER.VDW>
-15.1772

>  <SCORE.INTER.norm>
0.153047

>  <SCORE.INTRA>
14.0419

>  <SCORE.INTRA.DIHEDRAL>
0.66058

>  <SCORE.INTRA.DIHEDRAL.0>
36.0842

>  <SCORE.INTRA.POLAR>
0

>  <SCORE.INTRA.POLAR.0>
0

>  <SCORE.INTRA.REPUL>
0

>  <SCORE.INTRA.REPUL.0>
0

>  <SCORE.INTRA.SOLV>
1.98251

>  <SCORE.INTRA.SOLV.lig_0>
-126.444

>  <SCORE.INTRA.VDW>
12.7204

>  <SCORE.INTRA.VDW.0>
-7.40469

>  <SCORE.INTRA.norm>
0.28657

>  <SCORE.RESTR>
24.6402

>  <SCORE.RESTR.CAVITY>
24.6402

>  <SCORE.RESTR.norm>
0.50286

>  <SCORE.SYSTEM>
0

>  <SCORE.SYSTEM.CONST>
0

>  <SCORE.SYSTEM.DIHEDRAL>
0

>  <SCORE.SYSTEM.SOLV>
0

>  <SCORE.SYSTEM.norm>
0

>  <SCORE.heavy>
49

>  <SCORE.norm>
0.942478

>  <RMSD>
7.647

$$$$
2bee_lig
 OpenBabel11021811423D
libRbt.so/2013.1/901 2013/11/27
 49 52  0  0  0  0  0  0  0  0999 V2000
   45.0792    3.2838   -5.5082 C   0  0  2  0  0  0  0  0  0  0  0  0
   44.0821    3.7743   -6.3955 O   0  0  0  0  0  0  0  0  0  0  0  0
   39.9344    5.1484   -5.8634 C   0  0  2  0  0  0  0  0  0  0  0  0
   38.4905    5.1175   -5.5044 N   0  0  0  0  0  0  0  0  0  0  0  0
   43.4984    5.4145   -2.8197 C   0  0  1  0  0  0  0  0  0  0  0  0
   41.6509    6.3432    1.4558 C   0  0  1  0  0  0  0  0  0  0  0  0
   42.2432   12.3143    1.6856 C   0  0  0  0  0  0  0  0  0  0  0  0
   46.5181    3.6178   -6.0623 C   0  0  2  0  0  0  0  0  0  0  0  0
   46.6364    5.0498   -6.3155 N   0  0  0  0  0  0  0  0  0  0  0  0
   40.2490    3.9684   -6.8913 C   0  0  0  0  0  0  0  0  0  0  0  0
   43.1767    6.4596   -1.8015 C   0  0  2  0  0  0  0  0  0  0  0  0
   44.2466    7.4607   -1.6483 O   0  0  0  0  0  0  0  0  0  0  0  0
   41.1634    5.4399    2.7118 C   0  0  2  0  0  0  0  0  0  0  0  0
   40.0238    4.5780    2.2519 N   0  0  0  0  0  0  0  0  0  0  0  0
   42.6570   11.7082    2.8948 C   0  0  0  0  0  0  0  0  0  0  0  0
   41.7372   11.0044    3.6689 N   0  0  0  0  0  0  0  0  0  0  0  0
   46.7848    2.7659   -7.3796 C   0  0  1  0  0  0  0  0  0  0  0  0
   48.0833    3.0695   -7.8682 O   0  0  0  0  0  0  0  0  0  0  0  0
   41.8313    3.9601   -7.3007 C   0  0  2  0  0  0  0  0  0  0  0  0
   42.1201    2.9164   -8.2245 N   0  0  0  0  0  0  0  0  0  0  0  0
   42.8116    5.5090   -0.6871 C   0  0  2  0  0  0  0  0  0  0  0  0
   42.0060    5.3928    0.4230 O   0  0  0  0  0  0  0  0  0  0  0  0
   40.7040    6.4007    3.8659 C   0  0  1  0  0  0  0  0  0  0  0  0
   41.8743    7.1948    4.2677 O   0  0  0  0  0  0  0  0  0  0  0  0
   46.6499    1.2622   -7.0448 C   0  0  2  0  0  0  0  0  0  0  0  0
   46.8766    0.4293   -8.2534 O   0  0  0  0  0  0  0  0  0  0  0  0
   42.7179    3.7835   -6.0069 C   0  0  2  0  0  0  0  0  0  0  0  0
   43.8451    4.2951   -0.9013 C   0  0  2  0  0  0  0  0  0  0  0  0
   43.8837    4.1955   -2.2514 O   0  0  0  0  0  0  0  0  0  0  0  0
   39.4922    7.3492    3.3224 C   0  0  2  0  0  0  0  0  0  0  0  0
   38.3211    6.5388    2.9186 O   0  0  0  0  0  0  0  0  0  0  0  0
   45.2210    0.9447   -6.4907 C   0  0  2  0  0  0  0  0  0  0  0  0
   45.0672    1.7955   -5.3259 O   0  0  0  0  0  0  0  0  0  0  0  0
   42.3694    4.9602   -5.0340 C   0  0  2  0  0  0  0  0  0  0  0  0
   43.2220    4.7201   -3.9408 O   0  0  0  0  0  0  0  0  0  0  0  0
   43.4348    2.8736   -0.3658 C   0  0  0  0  0  0  0  0  0  0  0  0
   44.4357    1.8908   -0.7799 O   0  0  0  0  0  0  0  0  0  0  0  0
   39.9808    8.1928    2.0619 C   0  0  1  0  0  0  0  0  0  0  0  0
   40.4526    7.1988    1.0213 O   0  0  0  0  0  0  0  0  0  0  0  0
   45.1918   -0.4966   -6.1784 C   0  0  0  0  0  0  0  0  0  0  0  0
   43.9548   -0.8754   -5.8296 O   0  0  0  0  0  0  0  0  0  0  0  0
   40.8344    4.9247   -4.6278 C   0  0  1  0  0  0  0  0  0  0  0  0
   40.5344    5.9821   -3.7686 O   0  0  0  0  0  0  0  0  0  0  0  0
   44.2607    8.5402   -0.6475 C   0  0  0  0  0  0  0  0  0  0  0  0
   38.7407    9.0407    1.6189 C   0  0  0  0  0  0  0  0  0  0  0  0
   38.7468    9.3509    0.2181 N   0  0  0  0  0  0  0  0  0  0  0  0
   43.0061    9.3989   -0.8140 C   0  0  0  0  0  0  0  0  0  0  0  0
   43.1617   10.5583    0.0857 N   0  0  0  0  0  0  0  0  0  0  0  0
   41.9147   11.3726    0.4365 C   0  0  0  0  0  0  0  0  0  0  0  0
  1  2  1  6  0  0  0
  1  8  1  0  0  0  0
  1 33  1  0  0  0  0
  3  4  1  1  0  0  0
  3 10  1  0  0  0  0
  3 42  1  0  0  0  0
  5 11  1  0  0  0  0
  5 29  1  0  0  0  0
  5 35  1  1  0  0  0
  6 13  1  0  0  0  0
  6 39  1  0  0  0  0
  6 22  1  6  0  0  0
  7 15  1  0  0  0  0
  8  9  1  6  0  0  0
  8 17  1  0  0  0  0
 10 19  1  0  0  0  0
 11 12  1  1  0  0  0
 11 21  1  0  0  0  0
 12 44  1  0  0  0  0
 13 14  1  6  0  0  0
 13 23  1  0  0  0  0
 15 16  1  0  0  0  0
 17 18  1  1  0  0  0
 17 25  1  0  0  0  0
 19 20  1  6  0  0  0
 19 27  1  0  0  0  0
 21 22  1  1  0  0  0
 21 28  1  0  0  0  0
 23 24  1  6  0  0  0
 23 30  1  0  0  0  0
 25 26  1  6  0  0  0
 25 32  1  0  0  0  0
 27  2  1  6  0  0  0
 27 34  1  0  0  0  0
 28 29  1  0  0  0  0
 28 36  1  1  0  0  0
 30 31  1  6  0  0  0
 30 38  1  0  0  0  0
 32 33  1  0  0  0  0
 32 40  1  1  0  0  0
 34 35  1  1  0  0  0
 34 42  1  0  0  0  0
 36 37  1  0  0  0  0
 38 39  1  0  0  0  0
 38 45  1  6  0  0  0
 40 41  1  0  0  0  0
 42 43  1  1  0  0  0
 44 47  1  0  0  0  0
 45 46  1  0  0  0  0
 47 48  1  0  0  0  0
 48 49  1  0  0  0  0
 49  7  1  0  0  0  0
M  END
>  <CHROM.1>
-169.84500960,19.12887626,-159.01875938,-71.95641268,-174.72386704,-57.42586060
-39.96737065,-163.31856526,174.10598943,-173.51571843,173.76822981,-152.04205136
-172.62991119,-162.78136177,165.58436783,-59.25535407,42.75477854,5.40074768
-2.31841585,-1.12438342,0.67036536,0.64657296

>  <Name>
2bee_lig

>  <RI>
0

>  <Rbt.Current_Directory>
/home/itssahil/PROJECTS/Mol_Feturizer/New_Systems/rnas/2bee

>  <Rbt.Executable>
rbdock ($Id: //depot/dev/client3/rdock/2013.1/src/exe/rbdock.cxx#4 $)

>  <Rbt.Library>
libRbt.so (2013.1, Build901 2013/11/27)

>  <Rbt.Parameter_File>
/export/apps/rDock/src/rDock_2013.1_src/data/scripts/dock_solv.prm

>  <Rbt.Receptor>
prm/pocket_docking_7.prm

>  <SCORE>
-10.9833

>  <SCORE.INTER>
-1.21568

>  <SCORE.INTER.CONST>
1

>  <SCORE.INTER.POLAR>
-0.930019

>  <SCORE.INTER.ROT>
16

>  <SCORE.INTER.SOLV>
13.7955

>  <SCORE.INTER.VDW>
-16.5756

>  <SCORE.INTER.norm>
-0.0248098

>  <SCORE.INTRA>
-9.76765

>  <SCORE.INTRA.DIHEDRAL>
-18.725

>  <SCORE.INTRA.DIHEDRAL.0>
36.0842

>  <SCORE.INTRA.POLAR>
0

>  <SCORE.INTRA.POLAR.0>
0

>  <SCORE.INTRA.REPUL>
0

>  <SCORE.INTRA.REPUL.0>
0

>  <SCORE.INTRA.SOLV>
-1.12745

>  <SCORE.INTRA.SOLV.lig_0>
-126.444

>  <SCORE.INTRA.VDW>
0.15859

>  <SCORE.INTRA.VDW.0>
-7.40469

>  <SCORE.INTRA.norm>
-0.19934

>  <SCORE.RESTR>
0

>  <SCORE.RESTR.CAVITY>
0

>  <SCORE.RESTR.norm>
0

>  <SCORE.SYSTEM>
0

>  <SCORE.SYSTEM.CONST>
0

>  <SCORE.SYSTEM.DIHEDRAL>
0

>  <SCORE.SYSTEM.SOLV>
0

>  <SCORE.SYSTEM.norm>
0

>  <SCORE.heavy>
49

>  <SCORE.norm>
-0.22415

>  <RMSD>
7.653

$$$$
2bee_lig
 OpenBabel11021811423D
libRbt.so/2013.1/901 2013/11/27
 49 52  0  0  0  0  0  0  0  0999 V2000
   43.6155    0.9961   -7.5918 C   0  0  2  0  0  0  0  0  0  0  0  0
   42.9412    2.2084   -7.9047 O   0  0  0  0  0  0  0  0  0  0  0  0
   44.1712    2.7669  -12.0939 C   0  0  2  0  0  0  0  0  0  0  0  0
   44.2418    3.3527  -13.4602 N   0  0  0  0  0  0  0  0  0  0  0  0
   44.3219    5.1115   -8.0174 C   0  0  1  0  0  0  0  0  0  0  0  0
   42.3839    6.7508   -3.9378 C   0  0  1  0  0  0  0  0  0  0  0  0
   44.1472   11.0691  -11.7485 C   0  0  0  0  0  0  0  0  0  0  0  0
   43.1891    0.4853   -6.1614 C   0  0  2  0  0  0  0  0  0  0  0  0
   41.7371    0.3646   -6.0859 N   0  0  0  0  0  0  0  0  0  0  0  0
   42.6580    2.3842  -11.7602 C   0  0  0  0  0  0  0  0  0  0  0  0
   43.1266    5.8246   -7.4738 C   0  0  2  0  0  0  0  0  0  0  0  0
   42.8471    7.0914   -8.1717 O   0  0  0  0  0  0  0  0  0  0  0  0
   43.5658    7.7555   -3.4638 C   0  0  2  0  0  0  0  0  0  0  0  0
   44.5938    6.9500   -2.7237 N   0  0  0  0  0  0  0  0  0  0  0  0
   42.9643   11.2352  -12.5062 C   0  0  0  0  0  0  0  0  0  0  0  0
   43.0174   11.1807  -13.8972 N   0  0  0  0  0  0  0  0  0  0  0  0
   43.7523    1.4834   -5.0575 C   0  0  1  0  0  0  0  0  0  0  0  0
   43.3677    1.0132   -3.7737 O   0  0  0  0  0  0  0  0  0  0  0  0
   42.5363    1.7485  -10.2593 C   0  0  2  0  0  0  0  0  0  0  0  0
   41.1911    1.3954   -9.9557 N   0  0  0  0  0  0  0  0  0  0  0  0
   43.5493    5.7912   -6.0250 C   0  0  2  0  0  0  0  0  0  0  0  0
   43.0438    5.7466   -4.7454 O   0  0  0  0  0  0  0  0  0  0  0  0
   42.9405    8.8524   -2.5301 C   0  0  1  0  0  0  0  0  0  0  0  0
   41.9608    9.6026   -3.3295 O   0  0  0  0  0  0  0  0  0  0  0  0
   45.2912    1.5635   -5.1866 C   0  0  2  0  0  0  0  0  0  0  0  0
   45.8578    2.4992   -4.1819 O   0  0  0  0  0  0  0  0  0  0  0  0
   43.0654    2.7861   -9.1942 C   0  0  2  0  0  0  0  0  0  0  0  0
   45.1441    5.9814   -6.1146 C   0  0  2  0  0  0  0  0  0  0  0  0
   45.4535    5.2397   -7.2047 O   0  0  0  0  0  0  0  0  0  0  0  0
   42.2397    8.1272   -1.2469 C   0  0  2  0  0  0  0  0  0  0  0  0
   43.2349    7.3733   -0.4515 O   0  0  0  0  0  0  0  0  0  0  0  0
   45.7016    2.0655   -6.6112 C   0  0  2  0  0  0  0  0  0  0  0  0
   45.1091    1.1160   -7.5340 O   0  0  0  0  0  0  0  0  0  0  0  0
   44.5470    3.1293   -9.5680 C   0  0  2  0  0  0  0  0  0  0  0  0
   44.9207    4.0304   -8.5540 O   0  0  0  0  0  0  0  0  0  0  0  0
   46.0215    5.4195   -4.9355 C   0  0  0  0  0  0  0  0  0  0  0  0
   47.4319    5.7006   -5.2026 O   0  0  0  0  0  0  0  0  0  0  0  0
   41.1139    7.1125   -1.7392 C   0  0  1  0  0  0  0  0  0  0  0  0
   41.7861    6.1249   -2.6699 O   0  0  0  0  0  0  0  0  0  0  0  0
   47.1759    2.0876   -6.6507 C   0  0  0  0  0  0  0  0  0  0  0  0
   47.6650    0.8420   -6.5826 O   0  0  0  0  0  0  0  0  0  0  0  0
   44.6317    3.7744  -11.0169 C   0  0  1  0  0  0  0  0  0  0  0  0
   45.9564    4.0673  -11.3418 O   0  0  0  0  0  0  0  0  0  0  0  0
   43.7694    8.2358   -8.2535 C   0  0  0  0  0  0  0  0  0  0  0  0
   40.5324    6.4674   -0.4358 C   0  0  0  0  0  0  0  0  0  0  0  0
   39.4301    5.5854   -0.6920 N   0  0  0  0  0  0  0  0  0  0  0  0
   44.6319    8.0998   -9.5091 C   0  0  0  0  0  0  0  0  0  0  0  0
   43.9237    8.8116  -10.5907 N   0  0  0  0  0  0  0  0  0  0  0  0
   44.7574    9.5989  -11.6038 C   0  0  0  0  0  0  0  0  0  0  0  0
  1  2  1  1  0  0  0
  1  8  1  0  0  0  0
  1 33  1  0  0  0  0
  3  4  1  6  0  0  0
  3 10  1  0  0  0  0
  3 42  1  0  0  0  0
  5 11  1  0  0  0  0
  5 29  1  0  0  0  0
  5 35  1  1  0  0  0
  6 13  1  0  0  0  0
  6 39  1  0  0  0  0
  6 22  1  6  0  0  0
  7 15  1  0  0  0  0
  8  9  1  6  0  0  0
  8 17  1  0  0  0  0
 10 19  1  0  0  0  0
 11 12  1  6  0  0  0
 11 21  1  0  0  0  0
 12 44  1  0  0  0  0
 13 14  1  1  0  0  0
 13 23  1  0  0  0  0
 15 16  1  0  0  0  0
 17 18  1  1  0  0  0
 17 25  1  0  0  0  0
 19 20  1  1  0  0  0
 19 27  1  0  0  0  0
 21 22  1  1  0  0  0
 21 28  1  0  0  0  0
 23 24  1  6  0  0  0
 23 30  1  0  0  0  0
 25 26  1  1  0  0  0
 25 32  1  0  0  0  0
 27  2  1  1  0  0  0
 27 34  1  0  0  0  0
 28 29  1  0  0  0  0
 28 36  1  1  0  0  0
 30 31  1  6  0  0  0
 30 38  1  0  0  0  0
 32 33  1  0  0  0  0
 32 40  1  1  0  0  0
 34 35  1  1  0  0  0
 34 42  1  0  0  0  0
 36 37  1  0  0  0  0
 38 39  1  0  0  0  0
 38 45  1  1  0  0  0
 40 41  1  0  0  0  0
 42 43  1  6  0  0  0
 44 47  1  0  0  0  0
 45 46  1  0  0  0  0
 47 48  1  0  0  0  0
 48 49  1  0  0  0  0
 49  7  1  0  0  0  0
M  END
>  <CHROM.1>
-173.73446615,43.62845232,-74.84451437,-75.00880992,-60.12764355,91.15143241
-73.31277397,59.69214284,-179.59960367,66.98241509,-46.60725731,175.91919900
91.26010924,142.42637032,-130.33919465,-76.42213761,43.80977010,5.03809365
-6.90183668,-0.70585660,-1.35199134,2.33794462

>  <Name>
2bee_lig

>  <RI>
0

>  <Rbt.Current_Directory>
/home/itssahil/PROJECTS/Mol_Feturizer/New_Systems/rnas/2bee

>  <Rbt.Executable>
rbdock ($Id: //depot/dev/client3/rdock/2013.1/src/exe/rbdock.cxx#4 $)

>  <Rbt.Library>
libRbt.so (2013.1, Build901 2013/11/27)

>  <Rbt.Parameter_File>
/export/apps/rDock/src/rDock_2013.1_src/data/scripts/dock_solv.prm

>  <Rbt.Receptor>
prm/pocket_docking_6.prm

>  <SCORE>
-11.3534

>  <SCORE.INTER>
-2.69877

>  <SCORE.INTER.CONST>
1

>  <SCORE.INTER.POLAR>
-0.959166

>  <SCORE.INTER.ROT>
16

>  <SCORE.INTER.SOLV>
19.1673

>  <SCORE.INTER.VDW>
-19.2577

>  <SCORE.INTER.norm>
-0.0550769

>  <SCORE.INTRA>
-8.65464

>  <SCORE.INTRA.DIHEDRAL>
-16.707

>  <SCORE.INTRA.DIHEDRAL.0>
36.0842

>  <SCORE.INTRA.POLAR>
0

>  <SCORE.INTRA.POLAR.0>
0

>  <SCORE.INTRA.REPUL>
0

>  <SCORE.INTRA.REPUL.0>
0

>  <SCORE.INTRA.SOLV>
-0.457926

>  <SCORE.INTRA.SOLV.lig_0>
-126.444

>  <SCORE.INTRA.VDW>
-0.0721952

>  <SCORE.INTRA.VDW.0>
-7.40469

>  <SCORE.INTRA.norm>
-0.176625

>  <SCORE.RESTR>
0

>  <SCORE.RESTR.CAVITY>
0

>  <SCORE.RESTR.norm>
0

>  <SCORE.SYSTEM>
0

>  <SCORE.SYSTEM.CONST>
0

>  <SCORE.SYSTEM.DIHEDRAL>
0

>  <SCORE.SYSTEM.SOLV>
0

>  <SCORE.SYSTEM.norm>
0

>  <SCORE.heavy>
49

>  <SCORE.norm>
-0.231702

>  <RMSD>
7.655

$$$$
2bee_lig
 OpenBabel11021811423D
libRbt.so/2013.1/901 2013/11/27
 49 52  0  0  0  0  0  0  0  0999 V2000
   49.1330    3.3353   -6.1610 C   0  0  2  0  0  0  0  0  0  0  0  0
   48.2767    4.0642   -5.2906 O   0  0  0  0  0  0  0  0  0  0  0  0
   45.1482    7.0936   -5.9300 C   0  0  2  0  0  0  0  0  0  0  0  0
   43.9535    7.7628   -6.5129 N   0  0  0  0  0  0  0  0  0  0  0  0
   44.8479    3.3513   -3.2476 C   0  0  1  0  0  0  0  0  0  0  0  0
   42.1643   -0.5563   -2.4499 C   0  0  1  0  0  0  0  0  0  0  0  0
   39.9120    5.6084    3.0575 C   0  0  0  0  0  0  0  0  0  0  0  0
   49.9685    2.2742   -5.3457 C   0  0  2  0  0  0  0  0  0  0  0  0
   49.0730    1.4154   -4.5781 N   0  0  0  0  0  0  0  0  0  0  0  0
   46.2035    6.7925   -7.0891 C   0  0  0  0  0  0  0  0  0  0  0  0
   43.4265    3.0902   -2.8684 C   0  0  2  0  0  0  0  0  0  0  0  0
   43.0357    3.7546   -1.6130 O   0  0  0  0  0  0  0  0  0  0  0  0
   41.5945   -1.6697   -3.4826 C   0  0  2  0  0  0  0  0  0  0  0  0
   40.5922   -1.0039   -4.3800 N   0  0  0  0  0  0  0  0  0  0  0  0
   41.0149    6.4900    3.1431 C   0  0  0  0  0  0  0  0  0  0  0  0
   40.9139    7.6572    3.8968 N   0  0  0  0  0  0  0  0  0  0  0  0
   51.0039    3.0315   -4.4041 C   0  0  1  0  0  0  0  0  0  0  0  0
   51.7542    2.0687   -3.6781 O   0  0  0  0  0  0  0  0  0  0  0  0
   47.5274    6.0440   -6.4901 C   0  0  2  0  0  0  0  0  0  0  0  0
   48.4789    5.7792   -7.5151 N   0  0  0  0  0  0  0  0  0  0  0  0
   43.4894    1.5865   -2.9863 C   0  0  2  0  0  0  0  0  0  0  0  0
   42.7192    0.4861   -3.2874 O   0  0  0  0  0  0  0  0  0  0  0  0
   40.9204   -2.8191   -2.6515 C   0  0  1  0  0  0  0  0  0  0  0  0
   41.9656   -3.4267   -1.8148 O   0  0  0  0  0  0  0  0  0  0  0  0
   51.9242    3.9178   -5.2751 C   0  0  2  0  0  0  0  0  0  0  0  0
   52.8987    4.6565   -4.4321 O   0  0  0  0  0  0  0  0  0  0  0  0
   47.1080    4.6912   -5.7936 C   0  0  2  0  0  0  0  0  0  0  0  0
   44.9717    1.2496   -2.4599 C   0  0  2  0  0  0  0  0  0  0  0  0
   45.6934    2.2679   -2.9854 O   0  0  0  0  0  0  0  0  0  0  0  0
   39.7165   -2.1902   -1.7467 C   0  0  2  0  0  0  0  0  0  0  0  0
   38.6720   -1.5794   -2.5995 O   0  0  0  0  0  0  0  0  0  0  0  0
   51.0837    4.9619   -6.0832 C   0  0  2  0  0  0  0  0  0  0  0  0
   50.1538    4.1741   -6.8701 O   0  0  0  0  0  0  0  0  0  0  0  0
   46.0734    5.0413   -4.6713 C   0  0  2  0  0  0  0  0  0  0  0  0
   45.7900    3.7830   -4.1088 O   0  0  0  0  0  0  0  0  0  0  0  0
   45.6497   -0.0777   -2.9642 C   0  0  0  0  0  0  0  0  0  0  0  0
   46.9399   -0.2483   -2.2967 O   0  0  0  0  0  0  0  0  0  0  0  0
   40.2926   -1.0682   -0.7729 C   0  0  1  0  0  0  0  0  0  0  0  0
   40.9673   -0.0304   -1.6454 O   0  0  0  0  0  0  0  0  0  0  0  0
   52.0349    5.7416   -6.8974 C   0  0  0  0  0  0  0  0  0  0  0  0
   52.5522    6.7472   -6.1788 O   0  0  0  0  0  0  0  0  0  0  0  0
   44.7846    5.7377   -5.2850 C   0  0  1  0  0  0  0  0  0  0  0  0
   43.8749    6.0525   -4.2753 O   0  0  0  0  0  0  0  0  0  0  0  0
   41.6864    3.7297   -1.0250 C   0  0  0  0  0  0  0  0  0  0  0  0
   39.0558   -0.5278    0.0217 C   0  0  0  0  0  0  0  0  0  0  0  0
   39.4086    0.4578    1.0029 N   0  0  0  0  0  0  0  0  0  0  0  0
   41.6892    4.5298    0.2784 C   0  0  0  0  0  0  0  0  0  0  0  0
   40.3090    4.4983    0.7999 N   0  0  0  0  0  0  0  0  0  0  0  0
   40.1065    4.2195    2.2907 C   0  0  0  0  0  0  0  0  0  0  0  0
  1  2  1  1  0  0  0
  1  8  1  0  0  0  0
  1 33  1  0  0  0  0
  3  4  1  6  0  0  0
  3 10  1  0  0  0  0
  3 42  1  0  0  0  0
  5 11  1  0  0  0  0
  5 29  1  0  0  0  0
  5 35  1  6  0  0  0
  6 13  1  0  0  0  0
  6 39  1  0  0  0  0
  6 22  1  6  0  0  0
  7 15  1  0  0  0  0
  8  9  1  1  0  0  0
  8 17  1  0  0  0  0
 10 19  1  0  0  0  0
 11 12  1  1  0  0  0
 11 21  1  0  0  0  0
 12 44  1  0  0  0  0
 13 14  1  6  0  0  0
 13 23  1  0  0  0  0
 15 16  1  0  0  0  0
 17 18  1  6  0  0  0
 17 25  1  0  0  0  0
 19 20  1  6  0  0  0
 19 27  1  0  0  0  0
 21 22  1  1  0  0  0
 21 28  1  0  0  0  0
 23 24  1  1  0  0  0
 23 30  1  0  0  0  0
 25 26  1  1  0  0  0
 25 32  1  0  0  0  0
 27  2  1  1  0  0  0
 27 34  1  0  0  0  0
 28 29  1  0  0  0  0
 28 36  1  6  0  0  0
 30 31  1  6  0  0  0
 30 38  1  0  0  0  0
 32 33  1  0  0  0  0
 32 40  1  6  0  0  0
 34 35  1  6  0  0  0
 34 42  1  0  0  0  0
 36 37  1  0  0  0  0
 38 39  1  0  0  0  0
 38 45  1  6  0  0  0
 40 41  1  0  0  0  0
 42 43  1  1  0  0  0
 44 47  1  0  0  0  0
 45 46  1  0  0  0  0
 47 48  1  0  0  0  0
 48 49  1  0  0  0  0
 49  7  1  0  0  0  0
M  END
>  <CHROM.1>
-156.39008903,63.31092164,-170.16478004,-174.72262035,177.03204439,179.75643698
-106.70814071,-79.38346631,-175.74970875,-84.52819903,-168.46779170,177.15566522
178.55371999,135.17457202,97.66869109,-67.93673619,44.93933786,2.90624653
-3.16971499,-0.19726992,-0.56606951,-2.90361859

>  <Name>
2bee_lig

>  <RI>
0

>  <Rbt.Current_Directory>
/home/itssahil/PROJECTS/Mol_Feturizer/New_Systems/rnas/2bee

>  <Rbt.Executable>
rbdock ($Id: //depot/dev/client3/rdock/2013.1/src/exe/rbdock.cxx#4 $)

>  <Rbt.Library>
libRbt.so (2013.1, Build901 2013/11/27)

>  <Rbt.Parameter_File>
/export/apps/rDock/src/rDock_2013.1_src/data/scripts/dock_solv.prm

>  <Rbt.Receptor>
prm/pocket_docking_6.prm

>  <SCORE>
-15.7526

>  <SCORE.INTER>
-7.7341

>  <SCORE.INTER.CONST>
1

>  <SCORE.INTER.POLAR>
-0.836791

>  <SCORE.INTER.ROT>
16

>  <SCORE.INTER.SOLV>
16.1372

>  <SCORE.INTER.VDW>
-22.0125

>  <SCORE.INTER.norm>
-0.157839

>  <SCORE.INTRA>
-8.0185

>  <SCORE.INTRA.DIHEDRAL>
-22.5676

>  <SCORE.INTRA.DIHEDRAL.0>
36.0842

>  <SCORE.INTRA.POLAR>
0

>  <SCORE.INTRA.POLAR.0>
0

>  <SCORE.INTRA.REPUL>
0.217632

>  <SCORE.INTRA.REPUL.0>
0

>  <SCORE.INTRA.SOLV>
-0.0762218

>  <SCORE.INTRA.SOLV.lig_0>
-126.444

>  <SCORE.INTRA.VDW>
2.21524

>  <SCORE.INTRA.VDW.0>
-7.40469

>  <SCORE.INTRA.norm>
-0.163643

>  <SCORE.RESTR>
0

>  <SCORE.RESTR.CAVITY>
0

>  <SCORE.RESTR.norm>
0

>  <SCORE.SYSTEM>
0

>  <SCORE.SYSTEM.CONST>
0

>  <SCORE.SYSTEM.DIHEDRAL>
0

>  <SCORE.SYSTEM.SOLV>
0

>  <SCORE.SYSTEM.norm>
0

>  <SCORE.heavy>
49

>  <SCORE.norm>
-0.321482

>  <RMSD>
7.679

$$$$
2bee_lig
 OpenBabel11021811423D
libRbt.so/2013.1/901 2013/11/27
 49 52  0  0  0  0  0  0  0  0999 V2000
   41.9253    7.2196   -3.2111 C   0  0  2  0  0  0  0  0  0  0  0  0
   41.9821    6.0279   -3.9849 O   0  0  0  0  0  0  0  0  0  0  0  0
   42.8312    6.6618   -8.2570 C   0  0  2  0  0  0  0  0  0  0  0  0
   43.5865    6.6926   -9.5390 N   0  0  0  0  0  0  0  0  0  0  0  0
   42.6717    2.9134   -5.6406 C   0  0  1  0  0  0  0  0  0  0  0  0
   47.0129    4.0112   -5.9865 C   0  0  1  0  0  0  0  0  0  0  0  0
   40.4333   -2.8975   -6.4051 C   0  0  0  0  0  0  0  0  0  0  0  0
   42.9849    7.1658   -2.0435 C   0  0  2  0  0  0  0  0  0  0  0  0
   44.3135    6.9022   -2.5856 N   0  0  0  0  0  0  0  0  0  0  0  0
   43.6144    7.5185   -7.1613 C   0  0  0  0  0  0  0  0  0  0  0  0
   43.6663    1.9443   -6.1922 C   0  0  2  0  0  0  0  0  0  0  0  0
   43.3225    0.5413   -5.9028 O   0  0  0  0  0  0  0  0  0  0  0  0
   46.6932    4.5316   -7.4891 C   0  0  2  0  0  0  0  0  0  0  0  0
   47.0618    3.4384   -8.4495 N   0  0  0  0  0  0  0  0  0  0  0  0
   40.1840   -2.4286   -7.7161 C   0  0  0  0  0  0  0  0  0  0  0  0
   40.6257   -1.1634   -8.0967 N   0  0  0  0  0  0  0  0  0  0  0  0
   42.5506    6.0546   -0.9905 C   0  0  1  0  0  0  0  0  0  0  0  0
   43.5072    6.0168    0.0586 O   0  0  0  0  0  0  0  0  0  0  0  0
   42.8219    7.4984   -5.7319 C   0  0  2  0  0  0  0  0  0  0  0  0
   43.5081    8.2676   -4.7502 N   0  0  0  0  0  0  0  0  0  0  0  0
   44.8919    2.6004   -5.6038 C   0  0  2  0  0  0  0  0  0  0  0  0
   46.2345    2.8002   -5.8331 O   0  0  0  0  0  0  0  0  0  0  0  0
   47.5467    5.8216   -7.7600 C   0  0  1  0  0  0  0  0  0  0  0  0
   47.1170    6.8430   -6.7937 O   0  0  0  0  0  0  0  0  0  0  0  0
   41.1413    6.3928   -0.4513 C   0  0  2  0  0  0  0  0  0  0  0  0
   40.6898    5.3694    0.5259 O   0  0  0  0  0  0  0  0  0  0  0  0
   42.6667    6.0111   -5.2270 C   0  0  2  0  0  0  0  0  0  0  0  0
   44.3651    3.1252   -4.1774 C   0  0  2  0  0  0  0  0  0  0  0  0
   43.1180    3.5571   -4.4814 O   0  0  0  0  0  0  0  0  0  0  0  0
   49.1295    5.4619   -7.5900 C   0  0  2  0  0  0  0  0  0  0  0  0
   49.5497    4.4312   -8.5660 O   0  0  0  0  0  0  0  0  0  0  0  0
   40.1008    6.4491   -1.6192 C   0  0  2  0  0  0  0  0  0  0  0  0
   40.6089    7.4548   -2.5328 O   0  0  0  0  0  0  0  0  0  0  0  0
   41.8979    5.2161   -6.3358 C   0  0  2  0  0  0  0  0  0  0  0  0
   41.7961    3.9282   -5.7782 O   0  0  0  0  0  0  0  0  0  0  0  0
   45.1073    4.3475   -3.5210 C   0  0  0  0  0  0  0  0  0  0  0  0
   45.2032    5.4367   -4.4926 O   0  0  0  0  0  0  0  0  0  0  0  0
   49.4108    4.9108   -6.1216 C   0  0  1  0  0  0  0  0  0  0  0  0
   48.5159    3.7052   -5.9235 O   0  0  0  0  0  0  0  0  0  0  0  0
   38.7996    6.7987   -1.0188 C   0  0  0  0  0  0  0  0  0  0  0  0
   38.8010    8.0739   -0.6076 O   0  0  0  0  0  0  0  0  0  0  0  0
   42.7053    5.2250   -7.7034 C   0  0  1  0  0  0  0  0  0  0  0  0
   42.0067    4.5216   -8.6850 O   0  0  0  0  0  0  0  0  0  0  0  0
   43.5916   -0.1529   -4.6329 C   0  0  0  0  0  0  0  0  0  0  0  0
   50.9418    4.5827   -6.0834 C   0  0  0  0  0  0  0  0  0  0  0  0
   51.3119    3.5340   -6.9901 N   0  0  0  0  0  0  0  0  0  0  0  0
   42.6887   -1.3830   -4.5293 C   0  0  0  0  0  0  0  0  0  0  0  0
   42.7764   -2.0852   -5.8244 N   0  0  0  0  0  0  0  0  0  0  0  0
   41.9220   -3.3386   -6.0255 C   0  0  0  0  0  0  0  0  0  0  0  0
  1  2  1  1  0  0  0
  1  8  1  0  0  0  0
  1 33  1  0  0  0  0
  3  4  1  6  0  0  0
  3 10  1  0  0  0  0
  3 42  1  0  0  0  0
  5 11  1  0  0  0  0
  5 29  1  0  0  0  0
  5 35  1  6  0  0  0
  6 13  1  0  0  0  0
  6 39  1  0  0  0  0
  6 22  1  6  0  0  0
  7 15  1  0  0  0  0
  8  9  1  6  0  0  0
  8 17  1  0  0  0  0
 10 19  1  0  0  0  0
 11 12  1  1  0  0  0
 11 21  1  0  0  0  0
 12 44  1  0  0  0  0
 13 14  1  6  0  0  0
 13 23  1  0  0  0  0
 15 16  1  0  0  0  0
 17 18  1  1  0  0  0
 17 25  1  0  0  0  0
 19 20  1  1  0  0  0
 19 27  1  0  0  0  0
 21 22  1  1  0  0  0
 21 28  1  0  0  0  0
 23 24  1  1  0  0  0
 23 30  1  0  0  0  0
 25 26  1  1  0  0  0
 25 32  1  0  0  0  0
 27  2  1  1  0  0  0
 27 34  1  0  0  0  0
 28 29  1  0  0  0  0
 28 36  1  6  0  0  0
 30 31  1  6  0  0  0
 30 38  1  0  0  0  0
 32 33  1  0  0  0  0
 32 40  1  1  0  0  0
 34 35  1  1  0  0  0
 34 42  1  0  0  0  0
 36 37  1  0  0  0  0
 38 39  1  0  0  0  0
 38 45  1  6  0  0  0
 40 41  1  0  0  0  0
 42 43  1  6  0  0  0
 44 47  1  0  0  0  0
 45 46  1  0  0  0  0
 47 48  1  0  0  0  0
 48 49  1  0  0  0  0
 49  7  1  0  0  0  0
M  END
>  <CHROM.1>
-100.53558601,-53.44695384,-76.85882793,-73.47877845,-81.17931544,160.41024526
120.76921167,-19.43459039,51.08520407,70.62880170,-77.11268351,-64.04414445
46.96912390,-177.67699655,80.91542360,75.66039931,43.86599354,4.21529563
-5.16598376,-2.46855270,-0.50133197,-2.70641832

>  <Name>
2bee_lig

>  <RI>
2.18182e+07

>  <Rbt.Current_Directory>
/home/itssahil/PROJECTS/Mol_Feturizer/New_Systems/rnas/2bee

>  <Rbt.Executable>
rbdock ($Id: //depot/dev/client3/rdock/2013.1/src/exe/rbdock.cxx#4 $)

>  <Rbt.Library>
libRbt.so (2013.1, Build901 2013/11/27)

>  <Rbt.Parameter_File>
/export/apps/rDock/src/rDock_2013.1_src/data/scripts/dock_solv.prm

>  <Rbt.Receptor>
prm/pocket_docking_3.prm

>  <SCORE>
10.4127

>  <SCORE.INTER>
2.88641

>  <SCORE.INTER.CONST>
1

>  <SCORE.INTER.POLAR>
-0.959166

>  <SCORE.INTER.ROT>
16

>  <SCORE.INTER.SOLV>
10.6333

>  <SCORE.INTER.VDW>
-12.6896

>  <SCORE.INTER.norm>
0.0589064

>  <SCORE.INTRA>
7.42205

>  <SCORE.INTRA.DIHEDRAL>
-11.6466

>  <SCORE.INTRA.DIHEDRAL.0>
36.0842

>  <SCORE.INTRA.POLAR>
0

>  <SCORE.INTRA.POLAR.0>
0

>  <SCORE.INTRA.REPUL>
0.00302317

>  <SCORE.INTRA.REPUL.0>
0

>  <SCORE.INTRA.SOLV>
11.1731

>  <SCORE.INTRA.SOLV.lig_0>
-126.444

>  <SCORE.INTRA.VDW>
7.64368

>  <SCORE.INTRA.VDW.0>
-7.40469

>  <SCORE.INTRA.norm>
0.15147

>  <SCORE.RESTR>
0.104188

>  <SCORE.RESTR.CAVITY>
0.104188

>  <SCORE.RESTR.norm>
0.00212628

>  <SCORE.SYSTEM>
0

>  <SCORE.SYSTEM.CONST>
0

>  <SCORE.SYSTEM.DIHEDRAL>
0

>  <SCORE.SYSTEM.SOLV>
0

>  <SCORE.SYSTEM.norm>
0

>  <SCORE.heavy>
49

>  <SCORE.norm>
0.212503

>  <RMSD>
7.687

$$$$
2bee_lig
 OpenBabel11021811423D
libRbt.so/2013.1/901 2013/11/27
 49 52  0  0  0  0  0  0  0  0999 V2000
   44.7564    4.6561   -4.5301 C   0  0  2  0  0  0  0  0  0  0  0  0
   44.9431    5.1956   -3.2277 O   0  0  0  0  0  0  0  0  0  0  0  0
   42.6462    4.6932    0.4933 C   0  0  2  0  0  0  0  0  0  0  0  0
   41.5247    4.8035    1.4653 N   0  0  0  0  0  0  0  0  0  0  0  0
   42.4578    1.9953   -3.2493 C   0  0  1  0  0  0  0  0  0  0  0  0
   39.2085    0.6140   -6.4526 C   0  0  1  0  0  0  0  0  0  0  0  0
   39.1945   -5.6492   -2.7404 C   0  0  0  0  0  0  0  0  0  0  0  0
   45.9573    5.0626   -5.4690 C   0  0  2  0  0  0  0  0  0  0  0  0
   47.2230    4.6624   -4.8635 N   0  0  0  0  0  0  0  0  0  0  0  0
   43.0921    6.1550    0.0325 C   0  0  0  0  0  0  0  0  0  0  0  0
   41.3128    1.0478   -3.0943 C   0  0  2  0  0  0  0  0  0  0  0  0
   41.7261   -0.2760   -2.5974 O   0  0  0  0  0  0  0  0  0  0  0  0
   37.6294    0.9304   -6.6456 C   0  0  2  0  0  0  0  0  0  0  0  0
   36.8918    0.3569   -5.4708 N   0  0  0  0  0  0  0  0  0  0  0  0
   38.6213   -6.4584   -3.7490 C   0  0  0  0  0  0  0  0  0  0  0  0
   37.8257   -5.8794   -4.7351 N   0  0  0  0  0  0  0  0  0  0  0  0
   45.9065    6.6300   -5.7386 C   0  0  1  0  0  0  0  0  0  0  0  0
   46.9879    6.9856   -6.5878 O   0  0  0  0  0  0  0  0  0  0  0  0
   44.3159    6.0762   -1.0480 C   0  0  2  0  0  0  0  0  0  0  0  0
   44.7268    7.3758   -1.4584 N   0  0  0  0  0  0  0  0  0  0  0  0
   40.7444    1.2352   -4.4802 C   0  0  2  0  0  0  0  0  0  0  0  0
   39.5606    1.2125   -5.1823 O   0  0  0  0  0  0  0  0  0  0  0  0
   37.1492    0.2634   -7.9838 C   0  0  1  0  0  0  0  0  0  0  0  0
   37.9042    0.8870   -9.0806 O   0  0  0  0  0  0  0  0  0  0  0  0
   44.5472    6.9880   -6.3831 C   0  0  2  0  0  0  0  0  0  0  0  0
   44.4513    8.4481   -6.6379 O   0  0  0  0  0  0  0  0  0  0  0  0
   43.8639    5.2404   -2.3083 C   0  0  2  0  0  0  0  0  0  0  0  0
   42.0625    1.4146   -5.3846 C   0  0  2  0  0  0  0  0  0  0  0  0
   42.8538    2.1638   -4.5805 O   0  0  0  0  0  0  0  0  0  0  0  0
   37.4185   -1.3445   -7.9073 C   0  0  2  0  0  0  0  0  0  0  0  0
   36.6555   -1.9606   -6.7984 O   0  0  0  0  0  0  0  0  0  0  0  0
   43.3641    6.5747   -5.4453 C   0  0  2  0  0  0  0  0  0  0  0  0
   43.5273    5.1489   -5.2336 O   0  0  0  0  0  0  0  0  0  0  0  0
   43.4352    3.8217   -1.8024 C   0  0  2  0  0  0  0  0  0  0  0  0
   43.0791    3.1633   -2.9939 O   0  0  0  0  0  0  0  0  0  0  0  0
   41.9276    2.2100   -6.7356 C   0  0  0  0  0  0  0  0  0  0  0  0
   43.2363    2.2928   -7.3835 O   0  0  0  0  0  0  0  0  0  0  0  0
   38.9687   -1.6292   -7.6725 C   0  0  1  0  0  0  0  0  0  0  0  0
   39.3610   -0.9126   -6.3973 O   0  0  0  0  0  0  0  0  0  0  0  0
   42.1159    6.9295   -6.1465 C   0  0  0  0  0  0  0  0  0  0  0  0
   41.0507    6.5685   -5.4184 O   0  0  0  0  0  0  0  0  0  0  0  0
   42.2246    3.9260   -0.7796 C   0  0  1  0  0  0  0  0  0  0  0  0
   41.8578    2.6574   -0.3296 O   0  0  0  0  0  0  0  0  0  0  0  0
   40.8404   -1.4435   -2.4576 C   0  0  0  0  0  0  0  0  0  0  0  0
   39.1014   -3.1879   -7.5956 C   0  0  0  0  0  0  0  0  0  0  0  0
   38.8231   -3.8353   -8.8454 N   0  0  0  0  0  0  0  0  0  0  0  0
   41.6777   -2.6715   -2.0971 C   0  0  0  0  0  0  0  0  0  0  0  0
   40.7343   -3.7929   -1.9218 N   0  0  0  0  0  0  0  0  0  0  0  0
   40.2741   -4.5510   -3.1687 C   0  0  0  0  0  0  0  0  0  0  0  0
  1  2  1  1  0  0  0
  1  8  1  0  0  0  0
  1 33  1  0  0  0  0
  3  4  1  1  0  0  0
  3 10  1  0  0  0  0
  3 42  1  0  0  0  0
  5 11  1  0  0  0  0
  5 29  1  0  0  0  0
  5 35  1  6  0  0  0
  6 13  1  0  0  0  0
  6 39  1  0  0  0  0
  6 22  1  1  0  0  0
  7 15  1  0  0  0  0
  8  9  1  1  0  0  0
  8 17  1  0  0  0  0
 10 19  1  0  0  0  0
 11 12  1  6  0  0  0
 11 21  1  0  0  0  0
 12 44  1  0  0  0  0
 13 14  1  1  0  0  0
 13 23  1  0  0  0  0
 15 16  1  0  0  0  0
 17 18  1  6  0  0  0
 17 25  1  0  0  0  0
 19 20  1  6  0  0  0
 19 27  1  0  0  0  0
 21 22  1  6  0  0  0
 21 28  1  0  0  0  0
 23 24  1  6  0  0  0
 23 30  1  0  0  0  0
 25 26  1  1  0  0  0
 25 32  1  0  0  0  0
 27  2  1  6  0  0  0
 27 34  1  0  0  0  0
 28 29  1  0  0  0  0
 28 36  1  6  0  0  0
 30 31  1  1  0  0  0
 30 38  1  0  0  0  0
 32 33  1  0  0  0  0
 32 40  1  6  0  0  0
 34 35  1  6  0  0  0
 34 42  1  0  0  0  0
 36 37  1  0  0  0  0
 38 39  1  0  0  0  0
 38 45  1  1  0  0  0
 40 41  1  0  0  0  0
 42 43  1  1  0  0  0
 44 47  1  0  0  0  0
 45 46  1  0  0  0  0
 47 48  1  0  0  0  0
 48 49  1  0  0  0  0
 49  7  1  0  0  0  0
M  END
>  <CHROM.1>
164.91379430,54.18875930,177.90336510,-64.64226749,-174.42056619,172.24124832
-134.52646430,-171.69630582,178.38770161,178.20950018,-169.29206153,67.42042643
177.94062712,83.54493133,-176.42999487,179.24321839,41.63011733,1.94488234
-4.49249566,0.25163096,-0.99428514,-1.08175729

>  <Name>
2bee_lig

>  <RI>
0

>  <Rbt.Current_Directory>
/home/itssahil/PROJECTS/Mol_Feturizer/New_Systems/rnas/2bee

>  <Rbt.Executable>
rbdock ($Id: //depot/dev/client3/rdock/2013.1/src/exe/rbdock.cxx#4 $)

>  <Rbt.Library>
libRbt.so (2013.1, Build901 2013/11/27)

>  <Rbt.Parameter_File>
/export/apps/rDock/src/rDock_2013.1_src/data/scripts/dock_solv.prm

>  <Rbt.Receptor>
prm/pocket_docking_5.prm

>  <SCORE>
-14.7865

>  <SCORE.INTER>
-1.26079

>  <SCORE.INTER.CONST>
1

>  <SCORE.INTER.POLAR>
-1.89688

>  <SCORE.INTER.ROT>
16

>  <SCORE.INTER.SOLV>
15.3912

>  <SCORE.INTER.VDW>
-13.9147

>  <SCORE.INTER.norm>
-0.0257305

>  <SCORE.INTRA>
-13.5257

>  <SCORE.INTRA.DIHEDRAL>
-28.7033

>  <SCORE.INTRA.DIHEDRAL.0>
36.0842

>  <SCORE.INTRA.POLAR>
0

>  <SCORE.INTRA.POLAR.0>
0

>  <SCORE.INTRA.REPUL>
0.300456

>  <SCORE.INTRA.REPUL.0>
0

>  <SCORE.INTRA.SOLV>
-3.78445

>  <SCORE.INTRA.SOLV.lig_0>
-126.444

>  <SCORE.INTRA.VDW>
1.21585

>  <SCORE.INTRA.VDW.0>
-7.40469

>  <SCORE.INTRA.norm>
-0.276036

>  <SCORE.RESTR>
0

>  <SCORE.RESTR.CAVITY>
0

>  <SCORE.RESTR.norm>
0

>  <SCORE.SYSTEM>
0

>  <SCORE.SYSTEM.CONST>
0

>  <SCORE.SYSTEM.DIHEDRAL>
0

>  <SCORE.SYSTEM.SOLV>
0

>  <SCORE.SYSTEM.norm>
0

>  <SCORE.heavy>
49

>  <SCORE.norm>
-0.301766

>  <RMSD>
7.688

$$$$
2bee_lig
 OpenBabel11021811423D
libRbt.so/2013.1/901 2013/11/27
 49 52  0  0  0  0  0  0  0  0999 V2000
   44.8725    1.5059   -6.7700 C   0  0  2  0  0  0  0  0  0  0  0  0
   43.7840    2.2877   -6.2946 O   0  0  0  0  0  0  0  0  0  0  0  0
   45.4192    6.3458   -6.7764 C   0  0  2  0  0  0  0  0  0  0  0  0
   45.4861    7.8325   -6.7663 N   0  0  0  0  0  0  0  0  0  0  0  0
   44.0103    3.9606   -3.1329 C   0  0  1  0  0  0  0  0  0  0  0  0
   40.5312    1.7737   -0.9259 C   0  0  1  0  0  0  0  0  0  0  0  0
   43.9888    9.7216    0.2332 C   0  0  0  0  0  0  0  0  0  0  0  0
   44.4321    0.0008   -6.9425 C   0  0  2  0  0  0  0  0  0  0  0  0
   43.2554   -0.0805   -7.8012 N   0  0  0  0  0  0  0  0  0  0  0  0
   44.1900    5.8780   -7.6808 C   0  0  0  0  0  0  0  0  0  0  0  0
   42.6368    4.0978   -2.5608 C   0  0  2  0  0  0  0  0  0  0  0  0
   42.3441    5.4630   -2.0909 O   0  0  0  0  0  0  0  0  0  0  0  0
   39.9535    3.1425   -0.2749 C   0  0  2  0  0  0  0  0  0  0  0  0
   40.6117    3.3383    1.0598 N   0  0  0  0  0  0  0  0  0  0  0  0
   43.9724   11.1179    0.0080 C   0  0  0  0  0  0  0  0  0  0  0  0
   42.9089   11.6978   -0.6800 N   0  0  0  0  0  0  0  0  0  0  0  0
   44.1566   -0.6337   -5.5095 C   0  0  1  0  0  0  0  0  0  0  0  0
   43.7655   -1.9890   -5.6745 O   0  0  0  0  0  0  0  0  0  0  0  0
   44.0742    4.2478   -7.7066 C   0  0  2  0  0  0  0  0  0  0  0  0
   42.9858    3.8203   -8.5184 N   0  0  0  0  0  0  0  0  0  0  0  0
   42.7292    2.9312   -1.6072 C   0  0  2  0  0  0  0  0  0  0  0  0
   41.9647    1.9643   -0.9943 O   0  0  0  0  0  0  0  0  0  0  0  0
   38.3983    2.9974   -0.1126 C   0  0  1  0  0  0  0  0  0  0  0  0
   37.8308    2.8255   -1.4580 O   0  0  0  0  0  0  0  0  0  0  0  0
   45.4387   -0.5213   -4.6522 C   0  0  2  0  0  0  0  0  0  0  0  0
   45.2200   -1.0894   -3.2974 O   0  0  0  0  0  0  0  0  0  0  0  0
   43.8870    3.7013   -6.2378 C   0  0  2  0  0  0  0  0  0  0  0  0
   44.2617    2.9883   -1.1218 C   0  0  2  0  0  0  0  0  0  0  0  0
   44.9050    3.3254   -2.2649 O   0  0  0  0  0  0  0  0  0  0  0  0
   38.0772    1.7143    0.8433 C   0  0  2  0  0  0  0  0  0  0  0  0
   38.6554    1.8976    2.1937 O   0  0  0  0  0  0  0  0  0  0  0  0
   45.8686    0.9753   -4.4933 C   0  0  2  0  0  0  0  0  0  0  0  0
   46.0534    1.4634   -5.8468 O   0  0  0  0  0  0  0  0  0  0  0  0
   45.1131    4.1895   -5.3948 C   0  0  2  0  0  0  0  0  0  0  0  0
   44.8580    3.6332   -4.1277 O   0  0  0  0  0  0  0  0  0  0  0  0
   44.9266    1.6539   -0.6187 C   0  0  0  0  0  0  0  0  0  0  0  0
   44.2126    1.1706    0.5628 O   0  0  0  0  0  0  0  0  0  0  0  0
   38.6927    0.3897    0.2064 C   0  0  1  0  0  0  0  0  0  0  0  0
   40.1781    0.6307    0.0362 O   0  0  0  0  0  0  0  0  0  0  0  0
   47.1041    0.9841   -3.6876 C   0  0  0  0  0  0  0  0  0  0  0  0
   47.4769    2.2420   -3.4156 O   0  0  0  0  0  0  0  0  0  0  0  0
   45.1823    5.7758   -5.3601 C   0  0  1  0  0  0  0  0  0  0  0  0
   46.2829    6.1981   -4.6140 O   0  0  0  0  0  0  0  0  0  0  0  0
   42.2971    6.6615   -2.9443 C   0  0  0  0  0  0  0  0  0  0  0  0
   38.3435   -0.7599    1.2113 C   0  0  0  0  0  0  0  0  0  0  0  0
   36.9311   -0.9676    1.3545 N   0  0  0  0  0  0  0  0  0  0  0  0
   41.7320    7.8324   -2.1388 C   0  0  0  0  0  0  0  0  0  0  0  0
   42.5655    7.9569   -0.9273 N   0  0  0  0  0  0  0  0  0  0  0  0
   43.8723    8.7465   -1.0279 C   0  0  0  0  0  0  0  0  0  0  0  0
  1  2  1  1  0  0  0
  1  8  1  0  0  0  0
  1 33  1  0  0  0  0
  3  4  1  1  0  0  0
  3 10  1  0  0  0  0
  3 42  1  0  0  0  0
  5 11  1  0  0  0  0
  5 29  1  0  0  0  0
  5 35  1  6  0  0  0
  6 13  1  0  0  0  0
  6 39  1  0  0  0  0
  6 22  1  1  0  0  0
  7 15  1  0  0  0  0
  8  9  1  6  0  0  0
  8 17  1  0  0  0  0
 10 19  1  0  0  0  0
 11 12  1  1  0  0  0
 11 21  1  0  0  0  0
 12 44  1  0  0  0  0
 13 14  1  1  0  0  0
 13 23  1  0  0  0  0
 15 16  1  0  0  0  0
 17 18  1  6  0  0  0
 17 25  1  0  0  0  0
 19 20  1  6  0  0  0
 19 27  1  0  0  0  0
 21 22  1  1  0  0  0
 21 28  1  0  0  0  0
 23 24  1  6  0  0  0
 23 30  1  0  0  0  0
 25 26  1  1  0  0  0
 25 32  1  0  0  0  0
 27  2  1  6  0  0  0
 27 34  1  0  0  0  0
 28 29  1  0  0  0  0
 28 36  1  6  0  0  0
 30 31  1  1  0  0  0
 30 38  1  0  0  0  0
 32 33  1  0  0  0  0
 32 40  1  1  0  0  0
 34 35  1  1  0  0  0
 34 42  1  0  0  0  0
 36 37  1  0  0  0  0
 38 39  1  0  0  0  0
 38 45  1  1  0  0  0
 40 41  1  0  0  0  0
 42 43  1  1  0  0  0
 44 47  1  0  0  0  0
 45 46  1  0  0  0  0
 47 48  1  0  0  0  0
 48 49  1  0  0  0  0
 49  7  1  0  0  0  0
M  END
>  <CHROM.1>
-171.30986599,68.04142341,-57.41041019,55.81268694,62.94975146,170.38434639
-8.92768097,63.00025089,-62.18222583,-174.99718391,-76.25659928,62.90776372
54.85712755,83.80625547,134.74126572,-115.28743661,43.08411970,3.34015570
-2.92431502,-0.02132286,-0.86837218,-2.87967213

>  <Name>
2bee_lig

>  <RI>
0

>  <Rbt.Current_Directory>
/home/itssahil/PROJECTS/Mol_Feturizer/New_Systems/rnas/2bee

>  <Rbt.Executable>
rbdock ($Id: //depot/dev/client3/rdock/2013.1/src/exe/rbdock.cxx#4 $)

>  <Rbt.Library>
libRbt.so (2013.1, Build901 2013/11/27)

>  <Rbt.Parameter_File>
/export/apps/rDock/src/rDock_2013.1_src/data/scripts/dock_solv.prm

>  <Rbt.Receptor>
prm/pocket_docking_8.prm

>  <SCORE>
-17.0363

>  <SCORE.INTER>
-5.92981

>  <SCORE.INTER.CONST>
1

>  <SCORE.INTER.POLAR>
-1.7994

>  <SCORE.INTER.ROT>
16

>  <SCORE.INTER.SOLV>
13.3264

>  <SCORE.INTER.VDW>
-16.664

>  <SCORE.INTER.norm>
-0.121017

>  <SCORE.INTRA>
-11.1064

>  <SCORE.INTRA.DIHEDRAL>
-22.5888

>  <SCORE.INTRA.DIHEDRAL.0>
36.0842

>  <SCORE.INTRA.POLAR>
0

>  <SCORE.INTRA.POLAR.0>
0

>  <SCORE.INTRA.REPUL>
0

>  <SCORE.INTRA.REPUL.0>
0

>  <SCORE.INTRA.SOLV>
0.298721

>  <SCORE.INTRA.SOLV.lig_0>
-126.444

>  <SCORE.INTRA.VDW>
0.0385932

>  <SCORE.INTRA.VDW.0>
-7.40469

>  <SCORE.INTRA.norm>
-0.226662

>  <SCORE.RESTR>
0

>  <SCORE.RESTR.CAVITY>
0

>  <SCORE.RESTR.norm>
0

>  <SCORE.SYSTEM>
0

>  <SCORE.SYSTEM.CONST>
0

>  <SCORE.SYSTEM.DIHEDRAL>
0

>  <SCORE.SYSTEM.SOLV>
0

>  <SCORE.SYSTEM.norm>
0

>  <SCORE.heavy>
49

>  <SCORE.norm>
-0.347679

>  <RMSD>
7.729

$$$$
2bee_lig
 OpenBabel11021811423D
libRbt.so/2013.1/901 2013/11/27
 49 52  0  0  0  0  0  0  0  0999 V2000
   42.0701    1.5276   -4.3418 C   0  0  2  0  0  0  0  0  0  0  0  0
   42.6604    0.7322   -5.3621 O   0  0  0  0  0  0  0  0  0  0  0  0
   46.1673    1.4177   -7.9322 C   0  0  2  0  0  0  0  0  0  0  0  0
   47.0220    2.0128   -8.9953 N   0  0  0  0  0  0  0  0  0  0  0  0
   44.1986    4.0484   -4.7931 C   0  0  1  0  0  0  0  0  0  0  0  0
   40.3244    5.4494   -3.0544 C   0  0  1  0  0  0  0  0  0  0  0  0
   43.5046    9.1057  -11.1338 C   0  0  0  0  0  0  0  0  0  0  0  0
   41.2602    0.6188   -3.3382 C   0  0  2  0  0  0  0  0  0  0  0  0
   42.1210   -0.4349   -2.8117 N   0  0  0  0  0  0  0  0  0  0  0  0
   44.8045    0.8966   -8.5795 C   0  0  0  0  0  0  0  0  0  0  0  0
   43.3503    5.2068   -5.2068 C   0  0  2  0  0  0  0  0  0  0  0  0
   44.0977    6.2233   -5.9673 O   0  0  0  0  0  0  0  0  0  0  0  0
   39.5835    6.4450   -2.0100 C   0  0  2  0  0  0  0  0  0  0  0  0
   40.3909    6.4788   -0.7451 N   0  0  0  0  0  0  0  0  0  0  0  0
   44.0873   10.3865  -11.2786 C   0  0  0  0  0  0  0  0  0  0  0  0
   45.3727   10.5093  -11.8014 N   0  0  0  0  0  0  0  0  0  0  0  0
   39.9878    0.0189   -4.0820 C   0  0  1  0  0  0  0  0  0  0  0  0
   39.2629   -0.7934   -3.1700 O   0  0  0  0  0  0  0  0  0  0  0  0
   43.8304    0.2465   -7.4393 C   0  0  2  0  0  0  0  0  0  0  0  0
   42.6156   -0.2296   -8.0085 N   0  0  0  0  0  0  0  0  0  0  0  0
   42.7768    5.4977   -3.8410 C   0  0  2  0  0  0  0  0  0  0  0  0
   41.6557    5.9948   -3.2156 O   0  0  0  0  0  0  0  0  0  0  0  0
   38.1402    5.8908   -1.7344 C   0  0  1  0  0  0  0  0  0  0  0  0
   37.4135    5.9040   -3.0125 O   0  0  0  0  0  0  0  0  0  0  0  0
   39.1165    1.1820   -4.6106 C   0  0  2  0  0  0  0  0  0  0  0  0
   37.9228    0.6648   -5.3272 O   0  0  0  0  0  0  0  0  0  0  0  0
   43.5103    1.3239   -6.3313 C   0  0  2  0  0  0  0  0  0  0  0  0
   44.0127    5.1821   -2.8610 C   0  0  2  0  0  0  0  0  0  0  0  0
   44.5574    4.0865   -3.4414 O   0  0  0  0  0  0  0  0  0  0  0  0
   38.2538    4.3817   -1.1235 C   0  0  2  0  0  0  0  0  0  0  0  0
   38.9892    4.3806    0.1613 O   0  0  0  0  0  0  0  0  0  0  0  0
   39.9325    2.0793   -5.6000 C   0  0  2  0  0  0  0  0  0  0  0  0
   41.0798    2.5375   -4.8396 O   0  0  0  0  0  0  0  0  0  0  0  0
   44.8761    1.8029   -5.7330 C   0  0  2  0  0  0  0  0  0  0  0  0
   44.4760    2.7304   -4.7535 O   0  0  0  0  0  0  0  0  0  0  0  0
   43.6912    4.7798   -1.3742 C   0  0  0  0  0  0  0  0  0  0  0  0
   43.0932    3.4451   -1.3504 O   0  0  0  0  0  0  0  0  0  0  0  0
   39.0242    3.4336   -2.1467 C   0  0  1  0  0  0  0  0  0  0  0  0
   40.3787    4.0629   -2.3974 O   0  0  0  0  0  0  0  0  0  0  0  0
   39.0358    3.1681   -6.0315 C   0  0  0  0  0  0  0  0  0  0  0  0
   38.0549    2.6874   -6.8074 O   0  0  0  0  0  0  0  0  0  0  0  0
   45.7884    2.4588   -6.8555 C   0  0  1  0  0  0  0  0  0  0  0  0
   47.0048    2.8732   -6.3124 O   0  0  0  0  0  0  0  0  0  0  0  0
   43.4937    7.2426   -6.8408 C   0  0  0  0  0  0  0  0  0  0  0  0
   39.0904    2.0321   -1.4507 C   0  0  0  0  0  0  0  0  0  0  0  0
   37.8405    1.3285   -1.4900 N   0  0  0  0  0  0  0  0  0  0  0  0
   44.6032    8.0541   -7.5112 C   0  0  0  0  0  0  0  0  0  0  0  0
   43.9879    8.7489   -8.6587 N   0  0  0  0  0  0  0  0  0  0  0  0
   44.1172    8.1105  -10.0433 C   0  0  0  0  0  0  0  0  0  0  0  0
  1  2  1  6  0  0  0
  1  8  1  0  0  0  0
  1 33  1  0  0  0  0
  3  4  1  6  0  0  0
  3 10  1  0  0  0  0
  3 42  1  0  0  0  0
  5 11  1  0  0  0  0
  5 29  1  0  0  0  0
  5 35  1  1  0  0  0
  6 13  1  0  0  0  0
  6 39  1  0  0  0  0
  6 22  1  1  0  0  0
  7 15  1  0  0  0  0
  8  9  1  6  0  0  0
  8 17  1  0  0  0  0
 10 19  1  0  0  0  0
 11 12  1  1  0  0  0
 11 21  1  0  0  0  0
 12 44  1  0  0  0  0
 13 14  1  1  0  0  0
 13 23  1  0  0  0  0
 15 16  1  0  0  0  0
 17 18  1  1  0  0  0
 17 25  1  0  0  0  0
 19 20  1  6  0  0  0
 19 27  1  0  0  0  0
 21 22  1  6  0  0  0
 21 28  1  0  0  0  0
 23 24  1  6  0  0  0
 23 30  1  0  0  0  0
 25 26  1  6  0  0  0
 25 32  1  0  0  0  0
 27  2  1  1  0  0  0
 27 34  1  0  0  0  0
 28 29  1  0  0  0  0
 28 36  1  1  0  0  0
 30 31  1  1  0  0  0
 30 38  1  0  0  0  0
 32 33  1  0  0  0  0
 32 40  1  1  0  0  0
 34 35  1  1  0  0  0
 34 42  1  0  0  0  0
 36 37  1  0  0  0  0
 38 39  1  0  0  0  0
 38 45  1  1  0  0  0
 40 41  1  0  0  0  0
 42 43  1  1  0  0  0
 44 47  1  0  0  0  0
 45 46  1  0  0  0  0
 47 48  1  0  0  0  0
 48 49  1  0  0  0  0
 49  7  1  0  0  0  0
M  END
>  <CHROM.1>
-175.90608985,68.87412431,170.91753140,68.47287004,160.47979802,-176.75456001
71.36138362,-171.65192095,70.28594259,-68.86720705,-86.65586610,75.90333222
162.77060788,-96.83975096,-174.51472580,60.86114762,42.07494052,3.79303606
-4.98862078,-2.56415864,0.81916298,-0.15760387

>  <Name>
2bee_lig

>  <RI>
0

>  <Rbt.Current_Directory>
/home/itssahil/PROJECTS/Mol_Feturizer/New_Systems/rnas/2bee

>  <Rbt.Executable>
rbdock ($Id: //depot/dev/client3/rdock/2013.1/src/exe/rbdock.cxx#4 $)

>  <Rbt.Library>
libRbt.so (2013.1, Build901 2013/11/27)

>  <Rbt.Parameter_File>
/export/apps/rDock/src/rDock_2013.1_src/data/scripts/dock_solv.prm

>  <Rbt.Receptor>
prm/pocket_docking_5.prm

>  <SCORE>
-13.0431

>  <SCORE.INTER>
-2.36583

>  <SCORE.INTER.CONST>
1

>  <SCORE.INTER.POLAR>
0

>  <SCORE.INTER.ROT>
16

>  <SCORE.INTER.SOLV>
12.9879

>  <SCORE.INTER.VDW>
-20.1732

>  <SCORE.INTER.norm>
-0.0482823

>  <SCORE.INTRA>
-10.6933

>  <SCORE.INTRA.DIHEDRAL>
-20.8758

>  <SCORE.INTRA.DIHEDRAL.0>
36.0842

>  <SCORE.INTRA.POLAR>
0

>  <SCORE.INTRA.POLAR.0>
0

>  <SCORE.INTRA.REPUL>
0

>  <SCORE.INTRA.REPUL.0>
0

>  <SCORE.INTRA.SOLV>
2.87165

>  <SCORE.INTRA.SOLV.lig_0>
-126.444

>  <SCORE.INTRA.VDW>
-1.69125

>  <SCORE.INTRA.VDW.0>
-7.40469

>  <SCORE.INTRA.norm>
-0.218231

>  <SCORE.RESTR>
0.0160869

>  <SCORE.RESTR.CAVITY>
0.0160869

>  <SCORE.RESTR.norm>
0.000328303

>  <SCORE.SYSTEM>
0

>  <SCORE.SYSTEM.CONST>
0

>  <SCORE.SYSTEM.DIHEDRAL>
0

>  <SCORE.SYSTEM.SOLV>
0

>  <SCORE.SYSTEM.norm>
0

>  <SCORE.heavy>
49

>  <SCORE.norm>
-0.266185

>  <RMSD>
7.732

$$$$
2bee_lig
 OpenBabel11021811423D
libRbt.so/2013.1/901 2013/11/27
 49 52  0  0  0  0  0  0  0  0999 V2000
   42.4464    1.5474   -6.5164 C   0  0  2  0  0  0  0  0  0  0  0  0
   42.6710    2.0717   -7.8190 O   0  0  0  0  0  0  0  0  0  0  0  0
   42.2734    6.0036   -9.7571 C   0  0  2  0  0  0  0  0  0  0  0  0
   42.3048    7.4811   -9.9329 N   0  0  0  0  0  0  0  0  0  0  0  0
   45.8905    3.7235   -8.1668 C   0  0  1  0  0  0  0  0  0  0  0  0
   44.7061    5.4783   -4.2209 C   0  0  1  0  0  0  0  0  0  0  0  0
   50.2288    2.2240   -4.0281 C   0  0  0  0  0  0  0  0  0  0  0  0
   42.8472    0.0225   -6.4628 C   0  0  2  0  0  0  0  0  0  0  0  0
   44.2235   -0.1489   -6.9156 N   0  0  0  0  0  0  0  0  0  0  0  0
   41.3410    5.6389   -8.5139 C   0  0  0  0  0  0  0  0  0  0  0  0
   46.6958    4.7963   -7.5086 C   0  0  2  0  0  0  0  0  0  0  0  0
   48.1280    4.7284   -7.8466 O   0  0  0  0  0  0  0  0  0  0  0  0
   43.9273    6.5372   -5.1713 C   0  0  2  0  0  0  0  0  0  0  0  0
   44.8155    7.7318   -5.3640 N   0  0  0  0  0  0  0  0  0  0  0  0
   49.4575    1.2401   -4.6897 C   0  0  0  0  0  0  0  0  0  0  0  0
   49.4576    1.1777   -6.0814 N   0  0  0  0  0  0  0  0  0  0  0  0
   41.8294   -0.8199   -7.3496 C   0  0  1  0  0  0  0  0  0  0  0  0
   42.1952   -2.1910   -7.2916 O   0  0  0  0  0  0  0  0  0  0  0  0
   41.2911    4.0221   -8.2791 C   0  0  2  0  0  0  0  0  0  0  0  0
   40.4544    3.6860   -7.1775 N   0  0  0  0  0  0  0  0  0  0  0  0
   46.1973    4.5502   -6.1051 C   0  0  2  0  0  0  0  0  0  0  0  0
   45.9447    5.1904   -4.9129 O   0  0  0  0  0  0  0  0  0  0  0  0
   42.5874    6.9483   -4.4629 C   0  0  1  0  0  0  0  0  0  0  0  0
   41.7724    5.7323   -4.3258 O   0  0  0  0  0  0  0  0  0  0  0  0
   40.3941   -0.6002   -6.8177 C   0  0  2  0  0  0  0  0  0  0  0  0
   39.4079   -1.3586   -7.6291 O   0  0  0  0  0  0  0  0  0  0  0  0
   42.7488    3.4730   -8.0246 C   0  0  2  0  0  0  0  0  0  0  0  0
   46.0327    2.9507   -6.0607 C   0  0  2  0  0  0  0  0  0  0  0  0
   45.5436    2.6854   -7.2954 O   0  0  0  0  0  0  0  0  0  0  0  0
   42.9305    7.6085   -3.0103 C   0  0  2  0  0  0  0  0  0  0  0  0
   43.7531    8.8300   -3.1609 O   0  0  0  0  0  0  0  0  0  0  0  0
   40.0105    0.9163   -6.8703 C   0  0  2  0  0  0  0  0  0  0  0  0
   41.0154    1.5905   -6.0703 O   0  0  0  0  0  0  0  0  0  0  0  0
   43.6200    3.8591   -9.2673 C   0  0  2  0  0  0  0  0  0  0  0  0
   44.8747    3.3077   -8.9484 O   0  0  0  0  0  0  0  0  0  0  0  0
   45.0024    2.3432   -5.0383 C   0  0  0  0  0  0  0  0  0  0  0  0
   45.4659    2.5946   -3.6740 O   0  0  0  0  0  0  0  0  0  0  0  0
   43.7342    6.5665   -2.1117 C   0  0  1  0  0  0  0  0  0  0  0  0
   44.9788    6.1842   -2.8852 O   0  0  0  0  0  0  0  0  0  0  0  0
   38.6447    1.0331   -6.3257 C   0  0  0  0  0  0  0  0  0  0  0  0
   38.6383    0.7586   -5.0142 O   0  0  0  0  0  0  0  0  0  0  0  0
   43.6774    5.4354   -9.4524 C   0  0  1  0  0  0  0  0  0  0  0  0
   44.4486    5.7663  -10.5669 O   0  0  0  0  0  0  0  0  0  0  0  0
   49.1556    5.6721   -7.3770 C   0  0  0  0  0  0  0  0  0  0  0  0
   44.0233    7.3109   -0.7643 C   0  0  0  0  0  0  0  0  0  0  0  0
   44.4324    6.4249    0.2875 N   0  0  0  0  0  0  0  0  0  0  0  0
   49.2758    5.5711   -5.8557 C   0  0  0  0  0  0  0  0  0  0  0  0
   49.7386    4.2023   -5.5556 N   0  0  0  0  0  0  0  0  0  0  0  0
   49.7411    3.7447   -4.0955 C   0  0  0  0  0  0  0  0  0  0  0  0
  1  2  1  6  0  0  0
  1  8  1  0  0  0  0
  1 33  1  0  0  0  0
  3  4  1  1  0  0  0
  3 10  1  0  0  0  0
  3 42  1  0  0  0  0
  5 11  1  0  0  0  0
  5 29  1  0  0  0  0
  5 35  1  1  0  0  0
  6 13  1  0  0  0  0
  6 39  1  0  0  0  0
  6 22  1  6  0  0  0
  7 15  1  0  0  0  0
  8  9  1  6  0  0  0
  8 17  1  0  0  0  0
 10 19  1  0  0  0  0
 11 12  1  1  0  0  0
 11 21  1  0  0  0  0
 12 44  1  0  0  0  0
 13 14  1  1  0  0  0
 13 23  1  0  0  0  0
 15 16  1  0  0  0  0
 17 18  1  1  0  0  0
 17 25  1  0  0  0  0
 19 20  1  1  0  0  0
 19 27  1  0  0  0  0
 21 22  1  1  0  0  0
 21 28  1  0  0  0  0
 23 24  1  1  0  0  0
 23 30  1  0  0  0  0
 25 26  1  6  0  0  0
 25 32  1  0  0  0  0
 27  2  1  6  0  0  0
 27 34  1  0  0  0  0
 28 29  1  0  0  0  0
 28 36  1  1  0  0  0
 30 31  1  6  0  0  0
 30 38  1  0  0  0  0
 32 33  1  0  0  0  0
 32 40  1  1  0  0  0
 34 35  1  1  0  0  0
 34 42  1  0  0  0  0
 36 37  1  0  0  0  0
 38 39  1  0  0  0  0
 38 45  1  1  0  0  0
 40 41  1  0  0  0  0
 42 43  1  6  0  0  0
 44 47  1  0  0  0  0
 45 46  1  0  0  0  0
 47 48  1  0  0  0  0
 48 49  1  0  0  0  0
 49  7  1  0  0  0  0
M  END
>  <CHROM.1>
-162.19498354,-27.37914375,-66.44920017,71.92677243,178.29259940,63.96437261
111.79682066,-87.90247500,-66.41175348,68.25514137,-80.73679176,164.90957905
63.31921420,-170.67463582,178.00676604,-61.73083395,44.17805754,3.73849398
-6.12368872,-2.46618772,-0.04013936,0.50606509

>  <Name>
2bee_lig

>  <RI>
3.46266e+07

>  <Rbt.Current_Directory>
/home/itssahil/PROJECTS/Mol_Feturizer/New_Systems/rnas/2bee

>  <Rbt.Executable>
rbdock ($Id: //depot/dev/client3/rdock/2013.1/src/exe/rbdock.cxx#4 $)

>  <Rbt.Library>
libRbt.so (2013.1, Build901 2013/11/27)

>  <Rbt.Parameter_File>
/export/apps/rDock/src/rDock_2013.1_src/data/scripts/dock_solv.prm

>  <Rbt.Receptor>
prm/pocket_docking_4.prm

>  <SCORE>
-13.6836

>  <SCORE.INTER>
-5.9969

>  <SCORE.INTER.CONST>
1

>  <SCORE.INTER.POLAR>
-2.11566

>  <SCORE.INTER.ROT>
16

>  <SCORE.INTER.SOLV>
21.5472

>  <SCORE.INTER.VDW>
-18.3948

>  <SCORE.INTER.norm>
-0.122386

>  <SCORE.INTRA>
-7.68673

>  <SCORE.INTRA.DIHEDRAL>
-20.4664

>  <SCORE.INTRA.DIHEDRAL.0>
36.0842

>  <SCORE.INTRA.POLAR>
0

>  <SCORE.INTRA.POLAR.0>
0

>  <SCORE.INTRA.REPUL>
0

>  <SCORE.INTRA.REPUL.0>
0

>  <SCORE.INTRA.SOLV>
6.64755

>  <SCORE.INTRA.SOLV.lig_0>
-126.444

>  <SCORE.INTRA.VDW>
-0.777288

>  <SCORE.INTRA.VDW.0>
-7.40469

>  <SCORE.INTRA.norm>
-0.156872

>  <SCORE.RESTR>
0

>  <SCORE.RESTR.CAVITY>
0

>  <SCORE.RESTR.norm>
0

>  <SCORE.SYSTEM>
0

>  <SCORE.SYSTEM.CONST>
0

>  <SCORE.SYSTEM.DIHEDRAL>
0

>  <SCORE.SYSTEM.SOLV>
0

>  <SCORE.SYSTEM.norm>
0

>  <SCORE.heavy>
49

>  <SCORE.norm>
-0.279258

>  <RMSD>
7.734

$$$$
2bee_lig
 OpenBabel11021811423D
libRbt.so/2013.1/901 2013/11/27
 49 52  0  0  0  0  0  0  0  0999 V2000
   43.3988    2.5066   -8.6886 C   0  0  2  0  0  0  0  0  0  0  0  0
   44.1182    2.7954   -7.4965 O   0  0  0  0  0  0  0  0  0  0  0  0
   40.8382    2.9656   -4.5661 C   0  0  2  0  0  0  0  0  0  0  0  0
   40.1439    2.9858   -3.2499 N   0  0  0  0  0  0  0  0  0  0  0  0
   44.3180    5.7820   -5.4936 C   0  0  1  0  0  0  0  0  0  0  0  0
   48.8378    5.0471   -4.8777 C   0  0  1  0  0  0  0  0  0  0  0  0
   42.8389    6.7959    1.4435 C   0  0  0  0  0  0  0  0  0  0  0  0
   44.3794    2.4642   -9.9237 C   0  0  2  0  0  0  0  0  0  0  0  0
   45.4625    1.5202   -9.6700 N   0  0  0  0  0  0  0  0  0  0  0  0
   41.7357    1.6497   -4.6703 C   0  0  0  0  0  0  0  0  0  0  0  0
   45.3944    5.7257   -4.4588 C   0  0  2  0  0  0  0  0  0  0  0  0
   45.0794    6.5198   -3.2587 O   0  0  0  0  0  0  0  0  0  0  0  0
   50.0601    4.8484   -5.9252 C   0  0  2  0  0  0  0  0  0  0  0  0
   49.5031    4.2493   -7.1837 N   0  0  0  0  0  0  0  0  0  0  0  0
   41.7512    7.0003    2.3244 C   0  0  0  0  0  0  0  0  0  0  0  0
   41.5835    6.1645    3.4262 N   0  0  0  0  0  0  0  0  0  0  0  0
   44.9330    3.9291  -10.2059 C   0  0  1  0  0  0  0  0  0  0  0  0
   45.8105    3.8818  -11.3215 O   0  0  0  0  0  0  0  0  0  0  0  0
   42.5269    1.5970   -6.0995 C   0  0  2  0  0  0  0  0  0  0  0  0
   43.3234    0.4220   -6.2057 N   0  0  0  0  0  0  0  0  0  0  0  0
   46.5360    6.0903   -5.3767 C   0  0  2  0  0  0  0  0  0  0  0  0
   47.8852    5.8930   -5.5655 O   0  0  0  0  0  0  0  0  0  0  0  0
   51.1208    3.8903   -5.2748 C   0  0  1  0  0  0  0  0  0  0  0  0
   51.6260    4.5527   -4.0633 O   0  0  0  0  0  0  0  0  0  0  0  0
   43.7407    4.8774  -10.4711 C   0  0  2  0  0  0  0  0  0  0  0  0
   44.2132    6.2625  -10.7246 O   0  0  0  0  0  0  0  0  0  0  0  0
   43.4423    2.8737   -6.2519 C   0  0  2  0  0  0  0  0  0  0  0  0
   45.8630    7.1554   -6.3768 C   0  0  2  0  0  0  0  0  0  0  0  0
   44.6330    6.6217   -6.5674 O   0  0  0  0  0  0  0  0  0  0  0  0
   50.4106    2.4626   -4.9272 C   0  0  2  0  0  0  0  0  0  0  0  0
   49.9040    1.8066   -6.1537 O   0  0  0  0  0  0  0  0  0  0  0  0
   42.7725    4.9064   -9.2417 C   0  0  2  0  0  0  0  0  0  0  0  0
   42.3621    3.5284   -9.0485 O   0  0  0  0  0  0  0  0  0  0  0  0
   42.5166    4.1319   -6.1393 C   0  0  2  0  0  0  0  0  0  0  0  0
   43.4204    5.1967   -6.3105 O   0  0  0  0  0  0  0  0  0  0  0  0
   46.4960    7.3266   -7.8071 C   0  0  0  0  0  0  0  0  0  0  0  0
   45.7648    8.3587   -8.5417 O   0  0  0  0  0  0  0  0  0  0  0  0
   49.1859    2.6883   -3.9330 C   0  0  1  0  0  0  0  0  0  0  0  0
   48.2405    3.6584   -4.6101 O   0  0  0  0  0  0  0  0  0  0  0  0
   41.6611    5.8110   -9.5912 C   0  0  0  0  0  0  0  0  0  0  0  0
   42.0819    7.0829   -9.6140 O   0  0  0  0  0  0  0  0  0  0  0  0
   41.7861    4.1745   -4.7297 C   0  0  1  0  0  0  0  0  0  0  0  0
   40.9583    5.2943   -4.6449 O   0  0  0  0  0  0  0  0  0  0  0  0
   43.8332    6.4231   -2.4811 C   0  0  0  0  0  0  0  0  0  0  0  0
   48.5758    1.2664   -3.6903 C   0  0  0  0  0  0  0  0  0  0  0  0
   47.8372    0.7748   -4.8178 N   0  0  0  0  0  0  0  0  0  0  0  0
   43.8258    5.1073   -1.7017 C   0  0  0  0  0  0  0  0  0  0  0  0
   44.1187    5.4444   -0.2951 N   0  0  0  0  0  0  0  0  0  0  0  0
   42.9729    5.3785    0.7170 C   0  0  0  0  0  0  0  0  0  0  0  0
  1  2  1  1  0  0  0
  1  8  1  0  0  0  0
  1 33  1  0  0  0  0
  3  4  1  1  0  0  0
  3 10  1  0  0  0  0
  3 42  1  0  0  0  0
  5 11  1  0  0  0  0
  5 29  1  0  0  0  0
  5 35  1  6  0  0  0
  6 13  1  0  0  0  0
  6 39  1  0  0  0  0
  6 22  1  6  0  0  0
  7 15  1  0  0  0  0
  8  9  1  1  0  0  0
  8 17  1  0  0  0  0
 10 19  1  0  0  0  0
 11 12  1  1  0  0  0
 11 21  1  0  0  0  0
 12 44  1  0  0  0  0
 13 14  1  6  0  0  0
 13 23  1  0  0  0  0
 15 16  1  0  0  0  0
 17 18  1  6  0  0  0
 17 25  1  0  0  0  0
 19 20  1  1  0  0  0
 19 27  1  0  0  0  0
 21 22  1  1  0  0  0
 21 28  1  0  0  0  0
 23 24  1  1  0  0  0
 23 30  1  0  0  0  0
 25 26  1  1  0  0  0
 25 32  1  0  0  0  0
 27  2  1  6  0  0  0
 27 34  1  0  0  0  0
 28 29  1  0  0  0  0
 28 36  1  6  0  0  0
 30 31  1  6  0  0  0
 30 38  1  0  0  0  0
 32 33  1  0  0  0  0
 32 40  1  6  0  0  0
 34 35  1  1  0  0  0
 34 42  1  0  0  0  0
 36 37  1  0  0  0  0
 38 39  1  0  0  0  0
 38 45  1  6  0  0  0
 40 41  1  0  0  0  0
 42 43  1  6  0  0  0
 44 47  1  0  0  0  0
 45 46  1  0  0  0  0
 47 48  1  0  0  0  0
 48 49  1  0  0  0  0
 49  7  1  0  0  0  0
M  END
>  <CHROM.1>
-179.50000824,42.30156491,158.44936524,58.40580564,51.75263822,72.06936270
5.56804023,49.01142852,-178.54854397,-70.99388062,-77.76481848,-73.80408211
104.44034269,106.64146931,-123.96091109,173.68726124,44.98338401,4.48232375
-5.63037930,1.25561539,0.13745905,-1.68493894

>  <Name>
2bee_lig

>  <RI>
0

>  <Rbt.Current_Directory>
/home/itssahil/PROJECTS/Mol_Feturizer/New_Systems/rnas/2bee

>  <Rbt.Executable>
rbdock ($Id: //depot/dev/client3/rdock/2013.1/src/exe/rbdock.cxx#4 $)

>  <Rbt.Library>
libRbt.so (2013.1, Build901 2013/11/27)

>  <Rbt.Parameter_File>
/export/apps/rDock/src/rDock_2013.1_src/data/scripts/dock_solv.prm

>  <Rbt.Receptor>
prm/pocket_docking_7.prm

>  <SCORE>
-16.0092

>  <SCORE.INTER>
-7.49392

>  <SCORE.INTER.CONST>
1

>  <SCORE.INTER.POLAR>
-0.9954

>  <SCORE.INTER.ROT>
16

>  <SCORE.INTER.SOLV>
15.851

>  <SCORE.INTER.VDW>
-21.2283

>  <SCORE.INTER.norm>
-0.152937

>  <SCORE.INTRA>
-8.51527

>  <SCORE.INTRA.DIHEDRAL>
-17.9519

>  <SCORE.INTRA.DIHEDRAL.0>
36.0842

>  <SCORE.INTRA.POLAR>
0

>  <SCORE.INTRA.POLAR.0>
0

>  <SCORE.INTRA.REPUL>
0

>  <SCORE.INTRA.REPUL.0>
0

>  <SCORE.INTRA.SOLV>
-0.920074

>  <SCORE.INTRA.SOLV.lig_0>
-126.444

>  <SCORE.INTRA.VDW>
0.92072

>  <SCORE.INTRA.VDW.0>
-7.40469

>  <SCORE.INTRA.norm>
-0.173781

>  <SCORE.RESTR>
0

>  <SCORE.RESTR.CAVITY>
0

>  <SCORE.RESTR.norm>
0

>  <SCORE.SYSTEM>
0

>  <SCORE.SYSTEM.CONST>
0

>  <SCORE.SYSTEM.DIHEDRAL>
0

>  <SCORE.SYSTEM.SOLV>
0

>  <SCORE.SYSTEM.norm>
0

>  <SCORE.heavy>
49

>  <SCORE.norm>
-0.326718

>  <RMSD>
7.735

$$$$
2bee_lig
 OpenBabel11021811423D
libRbt.so/2013.1/901 2013/11/27
 49 52  0  0  0  0  0  0  0  0999 V2000
   46.2188   10.1496  -10.0447 C   0  0  2  0  0  0  0  0  0  0  0  0
   45.2528    9.7962   -9.0628 O   0  0  0  0  0  0  0  0  0  0  0  0
   41.9524    6.9070   -9.4282 C   0  0  2  0  0  0  0  0  0  0  0  0
   41.2508    5.6030   -9.5769 N   0  0  0  0  0  0  0  0  0  0  0  0
   44.8471    7.5006   -6.0162 C   0  0  1  0  0  0  0  0  0  0  0  0
   46.0321    3.5973   -7.8346 C   0  0  1  0  0  0  0  0  0  0  0  0
   40.8687    7.5994   -0.4874 C   0  0  0  0  0  0  0  0  0  0  0  0
   47.2441   11.1931   -9.4541 C   0  0  2  0  0  0  0  0  0  0  0  0
   47.8418   10.6694   -8.2306 N   0  0  0  0  0  0  0  0  0  0  0  0
   42.9683    7.1023  -10.6438 C   0  0  0  0  0  0  0  0  0  0  0  0
   44.8246    6.1556   -5.3657 C   0  0  2  0  0  0  0  0  0  0  0  0
   44.8669    6.2283   -3.8949 O   0  0  0  0  0  0  0  0  0  0  0  0
   46.2747    4.5909   -9.0935 C   0  0  2  0  0  0  0  0  0  0  0  0
   45.4579    5.8308   -8.8732 N   0  0  0  0  0  0  0  0  0  0  0  0
   40.8366    7.8602    0.9025 C   0  0  0  0  0  0  0  0  0  0  0  0
   39.8883    8.7383    1.4225 N   0  0  0  0  0  0  0  0  0  0  0  0
   46.4982   12.5749   -9.1968 C   0  0  1  0  0  0  0  0  0  0  0  0
   47.4295   13.5088   -8.6700 O   0  0  0  0  0  0  0  0  0  0  0  0
   43.7701    8.5203  -10.5096 C   0  0  2  0  0  0  0  0  0  0  0  0
   44.6724    8.7079  -11.5944 N   0  0  0  0  0  0  0  0  0  0  0  0
   45.9569    5.5577   -6.1653 C   0  0  2  0  0  0  0  0  0  0  0  0
   46.4203    4.3634   -6.6691 O   0  0  0  0  0  0  0  0  0  0  0  0
   45.8229    3.8522  -10.4035 C   0  0  1  0  0  0  0  0  0  0  0  0
   46.6764    2.6645  -10.5542 O   0  0  0  0  0  0  0  0  0  0  0  0
   45.8929   13.0779  -10.5280 C   0  0  2  0  0  0  0  0  0  0  0  0
   45.1722   14.3613  -10.3293 O   0  0  0  0  0  0  0  0  0  0  0  0
   44.5646    8.5588   -9.1463 C   0  0  2  0  0  0  0  0  0  0  0  0
   46.9576    6.8032   -6.3524 C   0  0  2  0  0  0  0  0  0  0  0  0
   46.0950    7.8267   -6.5585 O   0  0  0  0  0  0  0  0  0  0  0  0
   44.2473    3.4471  -10.2734 C   0  0  2  0  0  0  0  0  0  0  0  0
   43.3985    4.6502  -10.1196 O   0  0  0  0  0  0  0  0  0  0  0  0
   44.8825   12.0320  -11.1066 C   0  0  2  0  0  0  0  0  0  0  0  0
   45.6486   10.8102  -11.2640 O   0  0  0  0  0  0  0  0  0  0  0  0
   43.5260    8.3600   -7.9912 C   0  0  2  0  0  0  0  0  0  0  0  0
   44.3286    8.4342   -6.8379 O   0  0  0  0  0  0  0  0  0  0  0  0
   47.9293    6.7894   -7.5899 C   0  0  0  0  0  0  0  0  0  0  0  0
   48.8952    5.7017   -7.4372 O   0  0  0  0  0  0  0  0  0  0  0  0
   44.0265    2.5084   -9.0048 C   0  0  1  0  0  0  0  0  0  0  0  0
   44.5325    3.2707   -7.7980 O   0  0  0  0  0  0  0  0  0  0  0  0
   44.3771   12.5812  -12.3789 C   0  0  0  0  0  0  0  0  0  0  0  0
   43.4637   11.7596  -12.9137 O   0  0  0  0  0  0  0  0  0  0  0  0
   42.7856    6.9616   -8.1284 C   0  0  1  0  0  0  0  0  0  0  0  0
   41.8574    6.8001   -7.0995 O   0  0  0  0  0  0  0  0  0  0  0  0
   44.0382    7.1188   -3.0659 C   0  0  0  0  0  0  0  0  0  0  0  0
   42.4903    2.2050   -8.9703 C   0  0  0  0  0  0  0  0  0  0  0  0
   41.7153    3.3000   -8.4614 N   0  0  0  0  0  0  0  0  0  0  0  0
   42.5638    6.7626   -3.2614 C   0  0  0  0  0  0  0  0  0  0  0  0
   41.7821    7.9414   -2.8402 N   0  0  0  0  0  0  0  0  0  0  0  0
   41.9089    8.4112   -1.3895 C   0  0  0  0  0  0  0  0  0  0  0  0
  1  2  1  1  0  0  0
  1  8  1  0  0  0  0
  1 33  1  0  0  0  0
  3  4  1  6  0  0  0
  3 10  1  0  0  0  0
  3 42  1  0  0  0  0
  5 11  1  0  0  0  0
  5 29  1  0  0  0  0
  5 35  1  6  0  0  0
  6 13  1  0  0  0  0
  6 39  1  0  0  0  0
  6 22  1  1  0  0  0
  7 15  1  0  0  0  0
  8  9  1  1  0  0  0
  8 17  1  0  0  0  0
 10 19  1  0  0  0  0
 11 12  1  1  0  0  0
 11 21  1  0  0  0  0
 12 44  1  0  0  0  0
 13 14  1  1  0  0  0
 13 23  1  0  0  0  0
 15 16  1  0  0  0  0
 17 18  1  6  0  0  0
 17 25  1  0  0  0  0
 19 20  1  6  0  0  0
 19 27  1  0  0  0  0
 21 22  1  1  0  0  0
 21 28  1  0  0  0  0
 23 24  1  1  0  0  0
 23 30  1  0  0  0  0
 25 26  1  1  0  0  0
 25 32  1  0  0  0  0
 27  2  1  1  0  0  0
 27 34  1  0  0  0  0
 28 29  1  0  0  0  0
 28 36  1  6  0  0  0
 30 31  1  1  0  0  0
 30 38  1  0  0  0  0
 32 33  1  0  0  0  0
 32 40  1  6  0  0  0
 34 35  1  1  0  0  0
 34 42  1  0  0  0  0
 36 37  1  0  0  0  0
 38 39  1  0  0  0  0
 38 45  1  1  0  0  0
 40 41  1  0  0  0  0
 42 43  1  1  0  0  0
 44 47  1  0  0  0  0
 45 46  1  0  0  0  0
 47 48  1  0  0  0  0
 48 49  1  0  0  0  0
 49  7  1  0  0  0  0
M  END
>  <CHROM.1>
-155.95621986,-28.00060452,59.19958997,97.26483830,46.79796941,62.46542929
78.77890194,-60.06455574,-66.44837901,-177.71923251,-100.72093243,-77.19246349
-159.55532528,-61.05074925,-86.33672165,178.77749430,44.52499674,7.56022294
-7.76422446,0.37509743,1.21867043,0.15571579

>  <Name>
2bee_lig

>  <RI>
0

>  <Rbt.Current_Directory>
/home/itssahil/PROJECTS/Mol_Feturizer/New_Systems/rnas/2bee

>  <Rbt.Executable>
rbdock ($Id: //depot/dev/client3/rdock/2013.1/src/exe/rbdock.cxx#4 $)

>  <Rbt.Library>
libRbt.so (2013.1, Build901 2013/11/27)

>  <Rbt.Parameter_File>
/export/apps/rDock/src/rDock_2013.1_src/data/scripts/dock_solv.prm

>  <Rbt.Receptor>
prm/blind_docking_100.prm

>  <SCORE>
39.1

>  <SCORE.INTER>
-2.44596

>  <SCORE.INTER.CONST>
1

>  <SCORE.INTER.POLAR>
-1.59006

>  <SCORE.INTER.ROT>
16

>  <SCORE.INTER.SOLV>
26.7066

>  <SCORE.INTER.VDW>
-19.4993

>  <SCORE.INTER.norm>
-0.0499175

>  <SCORE.INTRA>
9.47836

>  <SCORE.INTRA.DIHEDRAL>
-11.9445

>  <SCORE.INTRA.DIHEDRAL.0>
36.0842

>  <SCORE.INTRA.POLAR>
0

>  <SCORE.INTRA.POLAR.0>
0

>  <SCORE.INTRA.REPUL>
0.0974445

>  <SCORE.INTRA.REPUL.0>
0

>  <SCORE.INTRA.SOLV>
16.6827

>  <SCORE.INTRA.SOLV.lig_0>
-126.444

>  <SCORE.INTRA.VDW>
6.62205

>  <SCORE.INTRA.VDW.0>
-7.40469

>  <SCORE.INTRA.norm>
0.193436

>  <SCORE.RESTR>
32.0676

>  <SCORE.RESTR.CAVITY>
32.0676

>  <SCORE.RESTR.norm>
0.654441

>  <SCORE.SYSTEM>
0

>  <SCORE.SYSTEM.CONST>
0

>  <SCORE.SYSTEM.DIHEDRAL>
0

>  <SCORE.SYSTEM.SOLV>
0

>  <SCORE.SYSTEM.norm>
0

>  <SCORE.heavy>
49

>  <SCORE.norm>
0.797959

>  <RMSD>
7.766

$$$$
2bee_lig
 OpenBabel11021811423D
libRbt.so/2013.1/901 2013/11/27
 49 52  0  0  0  0  0  0  0  0999 V2000
   43.8863    5.8628   -1.4113 C   0  0  2  0  0  0  0  0  0  0  0  0
   43.0617    4.9621   -0.6825 O   0  0  0  0  0  0  0  0  0  0  0  0
   42.3265    0.6848   -1.4158 C   0  0  2  0  0  0  0  0  0  0  0  0
   41.7643   -0.5479   -2.0317 N   0  0  0  0  0  0  0  0  0  0  0  0
   44.2644    3.9351   -3.9611 C   0  0  1  0  0  0  0  0  0  0  0  0
   44.5411    7.6291   -6.9555 C   0  0  1  0  0  0  0  0  0  0  0  0
   39.6331    3.5487   -5.9393 C   0  0  0  0  0  0  0  0  0  0  0  0
   44.2064    7.1391   -0.5410 C   0  0  2  0  0  0  0  0  0  0  0  0
   44.7890    6.7404    0.7358 N   0  0  0  0  0  0  0  0  0  0  0  0
   41.1320    1.6154   -0.9108 C   0  0  0  0  0  0  0  0  0  0  0  0
   43.5868    4.7045   -5.0481 C   0  0  2  0  0  0  0  0  0  0  0  0
   42.9695    3.8373   -6.0665 O   0  0  0  0  0  0  0  0  0  0  0  0
   44.8931    6.7420   -8.2670 C   0  0  2  0  0  0  0  0  0  0  0  0
   46.3784    6.5275   -8.3001 N   0  0  0  0  0  0  0  0  0  0  0  0
   38.6429    4.5587   -5.9607 C   0  0  0  0  0  0  0  0  0  0  0  0
   38.9866    5.8604   -6.3184 N   0  0  0  0  0  0  0  0  0  0  0  0
   42.8738    7.9848   -0.3383 C   0  0  1  0  0  0  0  0  0  0  0  0
   43.1725    9.1334    0.4418 O   0  0  0  0  0  0  0  0  0  0  0  0
   41.7093    2.9889   -0.2385 C   0  0  2  0  0  0  0  0  0  0  0  0
   40.6513    3.8218    0.2234 N   0  0  0  0  0  0  0  0  0  0  0  0
   44.7520    5.6076   -5.3730 C   0  0  2  0  0  0  0  0  0  0  0  0
   45.0549    6.8680   -5.8363 O   0  0  0  0  0  0  0  0  0  0  0  0
   44.4158    7.5273   -9.5405 C   0  0  1  0  0  0  0  0  0  0  0  0
   42.9572    7.6821   -9.4394 O   0  0  0  0  0  0  0  0  0  0  0  0
   42.3104    8.3795   -1.7233 C   0  0  2  0  0  0  0  0  0  0  0  0
   41.0544    9.1592   -1.5801 O   0  0  0  0  0  0  0  0  0  0  0  0
   42.5814    3.7753   -1.2931 C   0  0  2  0  0  0  0  0  0  0  0  0
   46.0202    4.6378   -5.1762 C   0  0  2  0  0  0  0  0  0  0  0  0
   45.6578    3.9211   -4.0858 O   0  0  0  0  0  0  0  0  0  0  0  0
   45.1711    8.9731   -9.5923 C   0  0  2  0  0  0  0  0  0  0  0  0
   46.6385    8.8046   -9.6913 O   0  0  0  0  0  0  0  0  0  0  0  0
   42.0026    7.1057   -2.5790 C   0  0  2  0  0  0  0  0  0  0  0  0
   43.2633    6.3936   -2.6676 O   0  0  0  0  0  0  0  0  0  0  0  0
   43.7324    2.8200   -1.7570 C   0  0  2  0  0  0  0  0  0  0  0  0
   44.4510    3.6200   -2.6644 O   0  0  0  0  0  0  0  0  0  0  0  0
   47.4063    5.2970   -4.8299 C   0  0  0  0  0  0  0  0  0  0  0  0
   47.2447    6.1974   -3.6886 O   0  0  0  0  0  0  0  0  0  0  0  0
   44.8469    9.8075   -8.2741 C   0  0  1  0  0  0  0  0  0  0  0  0
   45.2881    8.9628   -7.0971 O   0  0  0  0  0  0  0  0  0  0  0  0
   41.4958    7.5757   -3.8821 C   0  0  0  0  0  0  0  0  0  0  0  0
   41.3992    6.5538   -4.7433 O   0  0  0  0  0  0  0  0  0  0  0  0
   43.1438    1.5098   -2.4347 C   0  0  1  0  0  0  0  0  0  0  0  0
   44.1778    0.6634   -2.8355 O   0  0  0  0  0  0  0  0  0  0  0  0
   43.6346    2.7052   -6.7321 C   0  0  0  0  0  0  0  0  0  0  0  0
   45.6346   11.1528   -8.4254 C   0  0  0  0  0  0  0  0  0  0  0  0
   45.3504   11.8319   -9.6569 N   0  0  0  0  0  0  0  0  0  0  0  0
   42.6609    2.0561   -7.7168 C   0  0  0  0  0  0  0  0  0  0  0  0
   41.3429    2.0249   -7.0535 N   0  0  0  0  0  0  0  0  0  0  0  0
   40.3800    3.1871   -7.3054 C   0  0  0  0  0  0  0  0  0  0  0  0
  1  2  1  1  0  0  0
  1  8  1  0  0  0  0
  1 33  1  0  0  0  0
  3  4  1  6  0  0  0
  3 10  1  0  0  0  0
  3 42  1  0  0  0  0
  5 11  1  0  0  0  0
  5 29  1  0  0  0  0
  5 35  1  1  0  0  0
  6 13  1  0  0  0  0
  6 39  1  0  0  0  0
  6 22  1  1  0  0  0
  7 15  1  0  0  0  0
  8  9  1  1  0  0  0
  8 17  1  0  0  0  0
 10 19  1  0  0  0  0
 11 12  1  6  0  0  0
 11 21  1  0  0  0  0
 12 44  1  0  0  0  0
 13 14  1  6  0  0  0
 13 23  1  0  0  0  0
 15 16  1  0  0  0  0
 17 18  1  1  0  0  0
 17 25  1  0  0  0  0
 19 20  1  6  0  0  0
 19 27  1  0  0  0  0
 21 22  1  6  0  0  0
 21 28  1  0  0  0  0
 23 24  1  1  0  0  0
 23 30  1  0  0  0  0
 25 26  1  1  0  0  0
 25 32  1  0  0  0  0
 27  2  1  1  0  0  0
 27 34  1  0  0  0  0
 28 29  1  0  0  0  0
 28 36  1  1  0  0  0
 30 31  1  1  0  0  0
 30 38  1  0  0  0  0
 32 33  1  0  0  0  0
 32 40  1  6  0  0  0
 34 35  1  6  0  0  0
 34 42  1  0  0  0  0
 36 37  1  0  0  0  0
 38 39  1  0  0  0  0
 38 45  1  6  0  0  0
 40 41  1  0  0  0  0
 42 43  1  1  0  0  0
 44 47  1  0  0  0  0
 45 46  1  0  0  0  0
 47 48  1  0  0  0  0
 48 49  1  0  0  0  0
 49  7  1  0  0  0  0
M  END
>  <CHROM.1>
176.41511513,77.72110421,-60.67963037,-61.79087580,-48.74086030,179.75923102
-46.25851037,179.70997797,51.50297871,170.70230928,-81.17686083,53.63120940
-40.68848382,93.27763777,-140.48790671,-176.91552681,43.43431403,5.58401660
-4.51038310,-2.56095146,-1.21748029,-1.87203044

>  <Name>
2bee_lig

>  <RI>
3.46266e+07

>  <Rbt.Current_Directory>
/home/itssahil/PROJECTS/Mol_Feturizer/New_Systems/rnas/2bee

>  <Rbt.Executable>
rbdock ($Id: //depot/dev/client3/rdock/2013.1/src/exe/rbdock.cxx#4 $)

>  <Rbt.Library>
libRbt.so (2013.1, Build901 2013/11/27)

>  <Rbt.Parameter_File>
/export/apps/rDock/src/rDock_2013.1_src/data/scripts/dock_solv.prm

>  <Rbt.Receptor>
prm/pocket_docking_4.prm

>  <SCORE>
-17.293

>  <SCORE.INTER>
-6.58582

>  <SCORE.INTER.CONST>
1

>  <SCORE.INTER.POLAR>
-0.938083

>  <SCORE.INTER.ROT>
16

>  <SCORE.INTER.SOLV>
28.222

>  <SCORE.INTER.VDW>
-24.9376

>  <SCORE.INTER.norm>
-0.134404

>  <SCORE.INTRA>
-10.7097

>  <SCORE.INTRA.DIHEDRAL>
-23.0226

>  <SCORE.INTRA.DIHEDRAL.0>
36.0842

>  <SCORE.INTRA.POLAR>
0

>  <SCORE.INTRA.POLAR.0>
0

>  <SCORE.INTRA.REPUL>
0

>  <SCORE.INTRA.REPUL.0>
0

>  <SCORE.INTRA.SOLV>
1.25141

>  <SCORE.INTRA.SOLV.lig_0>
-126.444

>  <SCORE.INTRA.VDW>
0.175927

>  <SCORE.INTRA.VDW.0>
-7.40469

>  <SCORE.INTRA.norm>
-0.218564

>  <SCORE.RESTR>
0.0024903

>  <SCORE.RESTR.CAVITY>
0.0024903

>  <SCORE.RESTR.norm>
5.08225e-05

>  <SCORE.SYSTEM>
0

>  <SCORE.SYSTEM.CONST>
0

>  <SCORE.SYSTEM.DIHEDRAL>
0

>  <SCORE.SYSTEM.SOLV>
0

>  <SCORE.SYSTEM.norm>
0

>  <SCORE.heavy>
49

>  <SCORE.norm>
-0.352918

>  <RMSD>
7.783

$$$$
2bee_lig
 OpenBabel11021811423D
libRbt.so/2013.1/901 2013/11/27
 49 52  0  0  0  0  0  0  0  0999 V2000
   44.2401    0.6048   -5.3838 C   0  0  2  0  0  0  0  0  0  0  0  0
   43.2081   -0.2479   -4.9041 O   0  0  0  0  0  0  0  0  0  0  0  0
   39.2452    0.8369   -3.3253 C   0  0  2  0  0  0  0  0  0  0  0  0
   38.2066    1.3114   -2.3708 N   0  0  0  0  0  0  0  0  0  0  0  0
   42.8068    3.4598   -4.2774 C   0  0  1  0  0  0  0  0  0  0  0  0
   42.4931    5.6683   -0.0143 C   0  0  1  0  0  0  0  0  0  0  0  0
   43.8091    7.9649   -9.2283 C   0  0  0  0  0  0  0  0  0  0  0  0
   45.0688   -0.1200   -6.5138 C   0  0  2  0  0  0  0  0  0  0  0  0
   44.1754   -0.5822   -7.5706 N   0  0  0  0  0  0  0  0  0  0  0  0
   40.0507   -0.3756   -2.6703 C   0  0  0  0  0  0  0  0  0  0  0  0
   42.6271    4.8227   -3.6917 C   0  0  2  0  0  0  0  0  0  0  0  0
   43.6157    5.7958   -4.1877 O   0  0  0  0  0  0  0  0  0  0  0  0
   41.6654    5.2680    1.3221 C   0  0  2  0  0  0  0  0  0  0  0  0
   40.2007    5.3341    1.0008 N   0  0  0  0  0  0  0  0  0  0  0  0
   42.8309    6.9457   -9.3010 C   0  0  0  0  0  0  0  0  0  0  0  0
   43.1773    5.6838   -9.7786 N   0  0  0  0  0  0  0  0  0  0  0  0
   45.8905   -1.3228   -5.8735 C   0  0  1  0  0  0  0  0  0  0  0  0
   46.6364   -1.9660   -6.8967 O   0  0  0  0  0  0  0  0  0  0  0  0
   41.2121   -0.9176   -3.6845 C   0  0  2  0  0  0  0  0  0  0  0  0
   41.9304   -2.0054   -3.1127 N   0  0  0  0  0  0  0  0  0  0  0  0
   42.5956    4.3872   -2.2467 C   0  0  2  0  0  0  0  0  0  0  0  0
   42.0640    4.7211   -1.0216 O   0  0  0  0  0  0  0  0  0  0  0  0
   42.0327    6.2883    2.4579 C   0  0  1  0  0  0  0  0  0  0  0  0
   43.4725    6.1511    2.7224 O   0  0  0  0  0  0  0  0  0  0  0  0
   46.8187   -0.7686   -4.7679 C   0  0  2  0  0  0  0  0  0  0  0  0
   47.5949   -1.8633   -4.1315 O   0  0  0  0  0  0  0  0  0  0  0  0
   42.2112    0.2547   -4.0292 C   0  0  2  0  0  0  0  0  0  0  0  0
   43.6569    3.1788   -2.2155 C   0  0  2  0  0  0  0  0  0  0  0  0
   43.4087    2.5580   -3.3933 O   0  0  0  0  0  0  0  0  0  0  0  0
   41.6535    7.7972    1.9652 C   0  0  2  0  0  0  0  0  0  0  0  0
   40.2026    7.9225    1.6997 O   0  0  0  0  0  0  0  0  0  0  0  0
   45.9859   -0.0470   -3.6563 C   0  0  2  0  0  0  0  0  0  0  0  0
   45.2515    0.9954   -4.3481 O   0  0  0  0  0  0  0  0  0  0  0  0
   41.3728    1.4155   -4.6634 C   0  0  2  0  0  0  0  0  0  0  0  0
   42.3528    2.3839   -4.9495 O   0  0  0  0  0  0  0  0  0  0  0  0
   43.4953    2.0837   -1.0972 C   0  0  0  0  0  0  0  0  0  0  0  0
   43.6173    2.7110    0.2185 O   0  0  0  0  0  0  0  0  0  0  0  0
   42.4437    8.1509    0.6274 C   0  0  1  0  0  0  0  0  0  0  0  0
   42.0757    7.0958   -0.3947 O   0  0  0  0  0  0  0  0  0  0  0  0
   46.9483    0.4666   -2.6636 C   0  0  0  0  0  0  0  0  0  0  0  0
   46.3209    1.2158   -1.7469 O   0  0  0  0  0  0  0  0  0  0  0  0
   40.2743    1.9438   -3.6454 C   0  0  1  0  0  0  0  0  0  0  0  0
   39.5288    2.9710   -4.2245 O   0  0  0  0  0  0  0  0  0  0  0  0
   43.5713    6.4535   -5.5039 C   0  0  0  0  0  0  0  0  0  0  0  0
   41.9884    9.5992    0.2423 C   0  0  0  0  0  0  0  0  0  0  0  0
   42.5952   10.0728   -0.9685 N   0  0  0  0  0  0  0  0  0  0  0  0
   44.9321    7.0869   -5.7975 C   0  0  0  0  0  0  0  0  0  0  0  0
   44.7127    8.0971   -6.8507 N   0  0  0  0  0  0  0  0  0  0  0  0
   45.0819    7.7317   -8.2900 C   0  0  0  0  0  0  0  0  0  0  0  0
  1  2  1  1  0  0  0
  1  8  1  0  0  0  0
  1 33  1  0  0  0  0
  3  4  1  1  0  0  0
  3 10  1  0  0  0  0
  3 42  1  0  0  0  0
  5 11  1  0  0  0  0
  5 29  1  0  0  0  0
  5 35  1  1  0  0  0
  6 13  1  0  0  0  0
  6 39  1  0  0  0  0
  6 22  1  6  0  0  0
  7 15  1  0  0  0  0
  8  9  1  6  0  0  0
  8 17  1  0  0  0  0
 10 19  1  0  0  0  0
 11 12  1  1  0  0  0
 11 21  1  0  0  0  0
 12 44  1  0  0  0  0
 13 14  1  6  0  0  0
 13 23  1  0  0  0  0
 15 16  1  0  0  0  0
 17 18  1  6  0  0  0
 17 25  1  0  0  0  0
 19 20  1  1  0  0  0
 19 27  1  0  0  0  0
 21 22  1  1  0  0  0
 21 28  1  0  0  0  0
 23 24  1  6  0  0  0
 23 30  1  0  0  0  0
 25 26  1  1  0  0  0
 25 32  1  0  0  0  0
 27  2  1  6  0  0  0
 27 34  1  0  0  0  0
 28 29  1  0  0  0  0
 28 36  1  1  0  0  0
 30 31  1  6  0  0  0
 30 38  1  0  0  0  0
 32 33  1  0  0  0  0
 32 40  1  1  0  0  0
 34 35  1  1  0  0  0
 34 42  1  0  0  0  0
 36 37  1  0  0  0  0
 38 39  1  0  0  0  0
 38 45  1  6  0  0  0
 40 41  1  0  0  0  0
 42 43  1  6  0  0  0
 44 47  1  0  0  0  0
 45 46  1  0  0  0  0
 47 48  1  0  0  0  0
 48 49  1  0  0  0  0
 49  7  1  0  0  0  0
M  END
>  <CHROM.1>
-170.59105093,-66.06535060,-164.93168480,-61.32600678,77.42887397,-164.94871652
-83.36242879,179.63385823,-60.87333942,173.76989069,-94.79816289,-179.00972668
-160.73681903,-100.95276641,125.46434561,-83.01005933,43.11266636,3.41179823
-3.27429558,0.55859430,-1.23180720,2.80756214

>  <Name>
2bee_lig

>  <RI>
0

>  <Rbt.Current_Directory>
/home/itssahil/PROJECTS/Mol_Feturizer/New_Systems/rnas/2bee

>  <Rbt.Executable>
rbdock ($Id: //depot/dev/client3/rdock/2013.1/src/exe/rbdock.cxx#4 $)

>  <Rbt.Library>
libRbt.so (2013.1, Build901 2013/11/27)

>  <Rbt.Parameter_File>
/export/apps/rDock/src/rDock_2013.1_src/data/scripts/dock_solv.prm

>  <Rbt.Receptor>
prm/pocket_docking_8.prm

>  <SCORE>
-12.9316

>  <SCORE.INTER>
-5.15775

>  <SCORE.INTER.CONST>
1

>  <SCORE.INTER.POLAR>
-0.938083

>  <SCORE.INTER.ROT>
16

>  <SCORE.INTER.SOLV>
13.2789

>  <SCORE.INTER.VDW>
-19.0045

>  <SCORE.INTER.norm>
-0.10526

>  <SCORE.INTRA>
-7.7738

>  <SCORE.INTRA.DIHEDRAL>
-16.999

>  <SCORE.INTRA.DIHEDRAL.0>
36.0842

>  <SCORE.INTRA.POLAR>
0

>  <SCORE.INTRA.POLAR.0>
0

>  <SCORE.INTRA.REPUL>
0.0484497

>  <SCORE.INTRA.REPUL.0>
0

>  <SCORE.INTRA.SOLV>
-2.55596

>  <SCORE.INTRA.SOLV.lig_0>
-126.444

>  <SCORE.INTRA.VDW>
1.76144

>  <SCORE.INTRA.VDW.0>
-7.40469

>  <SCORE.INTRA.norm>
-0.158649

>  <SCORE.RESTR>
0

>  <SCORE.RESTR.CAVITY>
0

>  <SCORE.RESTR.norm>
0

>  <SCORE.SYSTEM>
0

>  <SCORE.SYSTEM.CONST>
0

>  <SCORE.SYSTEM.DIHEDRAL>
0

>  <SCORE.SYSTEM.SOLV>
0

>  <SCORE.SYSTEM.norm>
0

>  <SCORE.heavy>
49

>  <SCORE.norm>
-0.263909

>  <RMSD>
7.785

$$$$
2bee_lig
 OpenBabel11021811423D
libRbt.so/2013.1/901 2013/11/27
 49 52  0  0  0  0  0  0  0  0999 V2000
   44.6362    5.6357   -3.8525 C   0  0  2  0  0  0  0  0  0  0  0  0
   44.7302    6.7017   -2.9161 O   0  0  0  0  0  0  0  0  0  0  0  0
   42.3884    7.3960    0.7456 C   0  0  2  0  0  0  0  0  0  0  0  0
   41.2472    7.7846    1.6182 N   0  0  0  0  0  0  0  0  0  0  0  0
   42.2082    3.6677   -1.9059 C   0  0  1  0  0  0  0  0  0  0  0  0
   43.0093    0.0273   -4.4425 C   0  0  1  0  0  0  0  0  0  0  0  0
   37.3979   -0.8881    1.0832 C   0  0  0  0  0  0  0  0  0  0  0  0
   45.7642    5.7672   -4.9476 C   0  0  2  0  0  0  0  0  0  0  0  0
   47.0736    5.8499   -4.3093 N   0  0  0  0  0  0  0  0  0  0  0  0
   42.7915    8.6328   -0.1796 C   0  0  0  0  0  0  0  0  0  0  0  0
   41.3546    2.5845   -2.4809 C   0  0  2  0  0  0  0  0  0  0  0  0
   40.0523    2.4591   -1.8038 O   0  0  0  0  0  0  0  0  0  0  0  0
   41.7756   -0.9431   -4.8515 C   0  0  2  0  0  0  0  0  0  0  0  0
   41.8043   -2.1405   -3.9467 N   0  0  0  0  0  0  0  0  0  0  0  0
   38.3516   -1.5527    1.8891 C   0  0  0  0  0  0  0  0  0  0  0  0
   38.7802   -2.8327    1.5449 N   0  0  0  0  0  0  0  0  0  0  0  0
   45.4720    7.0429   -5.8527 C   0  0  1  0  0  0  0  0  0  0  0  0
   46.4894    7.1503   -6.8378 O   0  0  0  0  0  0  0  0  0  0  0  0
   44.0357    8.2410   -1.1645 C   0  0  2  0  0  0  0  0  0  0  0  0
   44.4086    9.3409   -1.9876 N   0  0  0  0  0  0  0  0  0  0  0  0
   42.3939    1.4917   -2.4146 C   0  0  2  0  0  0  0  0  0  0  0  0
   42.7986    0.3362   -3.0439 O   0  0  0  0  0  0  0  0  0  0  0  0
   41.9583   -1.3737   -6.3506 C   0  0  1  0  0  0  0  0  0  0  0  0
   41.9036   -0.1526   -7.1677 O   0  0  0  0  0  0  0  0  0  0  0  0
   44.0769    6.8924   -6.5026 C   0  0  2  0  0  0  0  0  0  0  0  0
   43.7568    8.0723   -7.3460 O   0  0  0  0  0  0  0  0  0  0  0  0
   43.6345    7.0126   -2.0707 C   0  0  2  0  0  0  0  0  0  0  0  0
   43.1792    1.8290   -1.0519 C   0  0  2  0  0  0  0  0  0  0  0  0
   43.2339    3.1817   -1.0880 O   0  0  0  0  0  0  0  0  0  0  0  0
   43.3877   -2.1437   -6.5160 C   0  0  2  0  0  0  0  0  0  0  0  0
   43.4320   -3.3694   -5.6871 O   0  0  0  0  0  0  0  0  0  0  0  0
   42.9676    6.7569   -5.4067 C   0  0  2  0  0  0  0  0  0  0  0  0
   43.3491    5.5988   -4.6209 O   0  0  0  0  0  0  0  0  0  0  0  0
   43.2462    5.8323   -1.1175 C   0  0  2  0  0  0  0  0  0  0  0  0
   42.9335    4.7976   -2.0184 O   0  0  0  0  0  0  0  0  0  0  0  0
   44.6655    1.3312   -0.9143 C   0  0  0  0  0  0  0  0  0  0  0  0
   45.1856    1.7108    0.3990 O   0  0  0  0  0  0  0  0  0  0  0  0
   44.5800   -1.1870   -6.0661 C   0  0  1  0  0  0  0  0  0  0  0  0
   44.3019   -0.7783   -4.6346 O   0  0  0  0  0  0  0  0  0  0  0  0
   41.6831    6.5952   -6.1134 C   0  0  0  0  0  0  0  0  0  0  0  0
   40.6653    6.5982   -5.2419 O   0  0  0  0  0  0  0  0  0  0  0  0
   42.0154    6.2290   -0.1955 C   0  0  1  0  0  0  0  0  0  0  0  0
   41.6848    5.1734    0.6546 O   0  0  0  0  0  0  0  0  0  0  0  0
   39.8610    2.0487   -0.4031 C   0  0  0  0  0  0  0  0  0  0  0  0
   45.8862   -2.0322   -6.2465 C   0  0  0  0  0  0  0  0  0  0  0  0
   47.0775   -1.2921   -5.9439 N   0  0  0  0  0  0  0  0  0  0  0  0
   38.3822    2.1808   -0.0362 C   0  0  0  0  0  0  0  0  0  0  0  0
   38.2077    1.5194    1.2715 N   0  0  0  0  0  0  0  0  0  0  0  0
   36.9921    0.6102    1.4644 C   0  0  0  0  0  0  0  0  0  0  0  0
  1  2  1  1  0  0  0
  1  8  1  0  0  0  0
  1 33  1  0  0  0  0
  3  4  1  6  0  0  0
  3 10  1  0  0  0  0
  3 42  1  0  0  0  0
  5 11  1  0  0  0  0
  5 29  1  0  0  0  0
  5 35  1  6  0  0  0
  6 13  1  0  0  0  0
  6 39  1  0  0  0  0
  6 22  1  1  0  0  0
  7 15  1  0  0  0  0
  8  9  1  1  0  0  0
  8 17  1  0  0  0  0
 10 19  1  0  0  0  0
 11 12  1  1  0  0  0
 11 21  1  0  0  0  0
 12 44  1  0  0  0  0
 13 14  1  1  0  0  0
 13 23  1  0  0  0  0
 15 16  1  0  0  0  0
 17 18  1  6  0  0  0
 17 25  1  0  0  0  0
 19 20  1  6  0  0  0
 19 27  1  0  0  0  0
 21 22  1  1  0  0  0
 21 28  1  0  0  0  0
 23 24  1  6  0  0  0
 23 30  1  0  0  0  0
 25 26  1  1  0  0  0
 25 32  1  0  0  0  0
 27  2  1  1  0  0  0
 27 34  1  0  0  0  0
 28 29  1  0  0  0  0
 28 36  1  6  0  0  0
 30 31  1  1  0  0  0
 30 38  1  0  0  0  0
 32 33  1  0  0  0  0
 32 40  1  6  0  0  0
 34 35  1  6  0  0  0
 34 42  1  0  0  0  0
 36 37  1  0  0  0  0
 38 39  1  0  0  0  0
 38 45  1  1  0  0  0
 40 41  1  0  0  0  0
 42 43  1  1  0  0  0
 44 47  1  0  0  0  0
 45 46  1  0  0  0  0
 47 48  1  0  0  0  0
 48 49  1  0  0  0  0
 49  7  1  0  0  0  0
M  END
>  <CHROM.1>
162.63526930,152.32387044,-107.81109105,-176.62941994,-65.31716291,174.16780077
47.15465926,-179.37699185,-178.75556305,-174.21100303,-159.21246107,177.13788953
169.33845500,-136.36954444,91.74191028,65.92409576,42.68147554,3.12460925
-2.85193086,-1.00430590,-0.92757952,-2.82941272

>  <Name>
2bee_lig

>  <RI>
0

>  <Rbt.Current_Directory>
/home/itssahil/PROJECTS/Mol_Feturizer/New_Systems/rnas/2bee

>  <Rbt.Executable>
rbdock ($Id: //depot/dev/client3/rdock/2013.1/src/exe/rbdock.cxx#4 $)

>  <Rbt.Library>
libRbt.so (2013.1, Build901 2013/11/27)

>  <Rbt.Parameter_File>
/export/apps/rDock/src/rDock_2013.1_src/data/scripts/dock_solv.prm

>  <Rbt.Receptor>
prm/pocket_docking_7.prm

>  <SCORE>
-13.242

>  <SCORE.INTER>
-5.51322

>  <SCORE.INTER.CONST>
1

>  <SCORE.INTER.POLAR>
-1.93213

>  <SCORE.INTER.ROT>
16

>  <SCORE.INTER.SOLV>
20.6776

>  <SCORE.INTER.VDW>
-18.3943

>  <SCORE.INTER.norm>
-0.112515

>  <SCORE.INTRA>
-7.72875

>  <SCORE.INTRA.DIHEDRAL>
-15.6396

>  <SCORE.INTRA.DIHEDRAL.0>
36.0842

>  <SCORE.INTRA.POLAR>
0

>  <SCORE.INTRA.POLAR.0>
0

>  <SCORE.INTRA.REPUL>
0

>  <SCORE.INTRA.REPUL.0>
0

>  <SCORE.INTRA.SOLV>
-5.58006

>  <SCORE.INTRA.SOLV.lig_0>
-126.444

>  <SCORE.INTRA.VDW>
2.88109

>  <SCORE.INTRA.VDW.0>
-7.40469

>  <SCORE.INTRA.norm>
-0.15773

>  <SCORE.RESTR>
0

>  <SCORE.RESTR.CAVITY>
0

>  <SCORE.RESTR.norm>
0

>  <SCORE.SYSTEM>
0

>  <SCORE.SYSTEM.CONST>
0

>  <SCORE.SYSTEM.DIHEDRAL>
0

>  <SCORE.SYSTEM.SOLV>
0

>  <SCORE.SYSTEM.norm>
0

>  <SCORE.heavy>
49

>  <SCORE.norm>
-0.270244

>  <RMSD>
7.791

$$$$
2bee_lig
 OpenBabel11021811423D
libRbt.so/2013.1/901 2013/11/27
 49 52  0  0  0  0  0  0  0  0999 V2000
   41.4681    1.5974   -3.2446 C   0  0  2  0  0  0  0  0  0  0  0  0
   42.4166    0.6796   -3.7737 O   0  0  0  0  0  0  0  0  0  0  0  0
   45.9682    1.2338   -6.3140 C   0  0  2  0  0  0  0  0  0  0  0  0
   46.7883    1.5593   -7.5124 N   0  0  0  0  0  0  0  0  0  0  0  0
   43.8786    4.2972   -3.3691 C   0  0  1  0  0  0  0  0  0  0  0  0
   41.4153    7.1033   -0.6226 C   0  0  1  0  0  0  0  0  0  0  0  0
   45.4276    9.4245   -8.4939 C   0  0  0  0  0  0  0  0  0  0  0  0
   40.7613    0.9838   -1.9746 C   0  0  2  0  0  0  0  0  0  0  0  0
   41.7616    0.5718   -0.9957 N   0  0  0  0  0  0  0  0  0  0  0  0
   44.8892    0.1219   -6.6980 C   0  0  0  0  0  0  0  0  0  0  0  0
   43.6489    5.7233   -2.9869 C   0  0  2  0  0  0  0  0  0  0  0  0
   44.8252    6.5781   -3.2240 O   0  0  0  0  0  0  0  0  0  0  0  0
   42.4166    8.3778   -0.6879 C   0  0  2  0  0  0  0  0  0  0  0  0
   43.3513    8.2970    0.4838 N   0  0  0  0  0  0  0  0  0  0  0  0
   44.9875   10.3435   -9.4750 C   0  0  0  0  0  0  0  0  0  0  0  0
   44.5210    9.8784  -10.7025 N   0  0  0  0  0  0  0  0  0  0  0  0
   39.8425   -0.2358   -2.4223 C   0  0  1  0  0  0  0  0  0  0  0  0
   39.2072   -0.7784   -1.2738 O   0  0  0  0  0  0  0  0  0  0  0  0
   43.9576   -0.2542   -5.4087 C   0  0  2  0  0  0  0  0  0  0  0  0
   42.9976   -1.2520   -5.7389 N   0  0  0  0  0  0  0  0  0  0  0  0
   43.1332    5.4485   -1.5950 C   0  0  2  0  0  0  0  0  0  0  0  0
   42.2807    5.9428   -0.6338 O   0  0  0  0  0  0  0  0  0  0  0  0
   41.5556    9.6896   -0.6236 C   0  0  1  0  0  0  0  0  0  0  0  0
   40.6829    9.7001   -1.8068 O   0  0  0  0  0  0  0  0  0  0  0  0
   38.8039    0.2655   -3.4524 C   0  0  2  0  0  0  0  0  0  0  0  0
   37.9333   -0.8476   -3.9096 O   0  0  0  0  0  0  0  0  0  0  0  0
   43.2195    1.0394   -4.8863 C   0  0  2  0  0  0  0  0  0  0  0  0
   44.0204    4.1906   -1.1282 C   0  0  2  0  0  0  0  0  0  0  0  0
   44.0945    3.4622   -2.2675 O   0  0  0  0  0  0  0  0  0  0  0  0
   40.6912    9.6953    0.7606 C   0  0  2  0  0  0  0  0  0  0  0  0
   41.5801    9.6820    1.9443 O   0  0  0  0  0  0  0  0  0  0  0  0
   39.5169    0.8771   -4.7044 C   0  0  2  0  0  0  0  0  0  0  0  0
   40.3513    1.9433   -4.1835 O   0  0  0  0  0  0  0  0  0  0  0  0
   44.3190    2.0955   -4.5280 C   0  0  2  0  0  0  0  0  0  0  0  0
   43.5607    3.1835   -4.0576 O   0  0  0  0  0  0  0  0  0  0  0  0
   43.4237    3.2335   -0.0310 C   0  0  0  0  0  0  0  0  0  0  0  0
   44.2789    2.0544    0.1025 O   0  0  0  0  0  0  0  0  0  0  0  0
   39.7489    8.4117    0.8228 C   0  0  1  0  0  0  0  0  0  0  0  0
   40.6473    7.1984    0.7033 O   0  0  0  0  0  0  0  0  0  0  0  0
   38.4567    1.3472   -5.6157 C   0  0  0  0  0  0  0  0  0  0  0  0
   38.9751    1.6791   -6.8058 O   0  0  0  0  0  0  0  0  0  0  0  0
   45.1874    2.4660   -5.8051 C   0  0  1  0  0  0  0  0  0  0  0  0
   46.1683    3.4003   -5.4716 O   0  0  0  0  0  0  0  0  0  0  0  0
   45.4440    6.8234   -4.5370 C   0  0  0  0  0  0  0  0  0  0  0  0
   38.9920    8.5134    2.1902 C   0  0  0  0  0  0  0  0  0  0  0  0
   39.8369    8.2460    3.3185 N   0  0  0  0  0  0  0  0  0  0  0  0
   44.3648    7.2566   -5.5303 C   0  0  0  0  0  0  0  0  0  0  0  0
   45.0527    7.5595   -6.8004 N   0  0  0  0  0  0  0  0  0  0  0  0
   44.3452    8.4711   -7.8052 C   0  0  0  0  0  0  0  0  0  0  0  0
  1  2  1  6  0  0  0
  1  8  1  0  0  0  0
  1 33  1  0  0  0  0
  3  4  1  6  0  0  0
  3 10  1  0  0  0  0
  3 42  1  0  0  0  0
  5 11  1  0  0  0  0
  5 29  1  0  0  0  0
  5 35  1  1  0  0  0
  6 13  1  0  0  0  0
  6 39  1  0  0  0  0
  6 22  1  1  0  0  0
  7 15  1  0  0  0  0
  8  9  1  1  0  0  0
  8 17  1  0  0  0  0
 10 19  1  0  0  0  0
 11 12  1  1  0  0  0
 11 21  1  0  0  0  0
 12 44  1  0  0  0  0
 13 14  1  1  0  0  0
 13 23  1  0  0  0  0
 15 16  1  0  0  0  0
 17 18  1  1  0  0  0
 17 25  1  0  0  0  0
 19 20  1  6  0  0  0
 19 27  1  0  0  0  0
 21 22  1  1  0  0  0
 21 28  1  0  0  0  0
 23 24  1  6  0  0  0
 23 30  1  0  0  0  0
 25 26  1  6  0  0  0
 25 32  1  0  0  0  0
 27  2  1  1  0  0  0
 27 34  1  0  0  0  0
 28 29  1  0  0  0  0
 28 36  1  1  0  0  0
 30 31  1  1  0  0  0
 30 38  1  0  0  0  0
 32 33  1  0  0  0  0
 32 40  1  6  0  0  0
 34 35  1  6  0  0  0
 34 42  1  0  0  0  0
 36 37  1  0  0  0  0
 38 39  1  0  0  0  0
 38 45  1  1  0  0  0
 40 41  1  0  0  0  0
 42 43  1  1  0  0  0
 44 47  1  0  0  0  0
 45 46  1  0  0  0  0
 47 48  1  0  0  0  0
 48 49  1  0  0  0  0
 49  7  1  0  0  0  0
M  END
>  <CHROM.1>
-177.18697467,152.29273468,-65.36217298,-68.18164548,61.58707978,51.11239160
0.69178287,-169.28072908,171.33865991,-169.64612998,165.48251775,-72.16754287
176.90802388,-158.50887142,141.81911023,179.25924553,42.53718765,4.42718366
-3.26366224,1.45650991,-1.00408744,-2.73476260

>  <Name>
2bee_lig

>  <RI>
3.46266e+07

>  <Rbt.Current_Directory>
/home/itssahil/PROJECTS/Mol_Feturizer/New_Systems/rnas/2bee

>  <Rbt.Executable>
rbdock ($Id: //depot/dev/client3/rdock/2013.1/src/exe/rbdock.cxx#4 $)

>  <Rbt.Library>
libRbt.so (2013.1, Build901 2013/11/27)

>  <Rbt.Parameter_File>
/export/apps/rDock/src/rDock_2013.1_src/data/scripts/dock_solv.prm

>  <Rbt.Receptor>
prm/pocket_docking_4.prm

>  <SCORE>
-11.1212

>  <SCORE.INTER>
-0.332337

>  <SCORE.INTER.CONST>
1

>  <SCORE.INTER.POLAR>
-0.823359

>  <SCORE.INTER.ROT>
16

>  <SCORE.INTER.SOLV>
14.3105

>  <SCORE.INTER.VDW>
-16.5139

>  <SCORE.INTER.norm>
-0.00678239

>  <SCORE.INTRA>
-10.8046

>  <SCORE.INTRA.DIHEDRAL>
-25.1804

>  <SCORE.INTRA.DIHEDRAL.0>
36.0842

>  <SCORE.INTRA.POLAR>
0

>  <SCORE.INTRA.POLAR.0>
0

>  <SCORE.INTRA.REPUL>
0

>  <SCORE.INTRA.REPUL.0>
0

>  <SCORE.INTRA.SOLV>
-0.486468

>  <SCORE.INTRA.SOLV.lig_0>
-126.444

>  <SCORE.INTRA.VDW>
2.02882

>  <SCORE.INTRA.VDW.0>
-7.40469

>  <SCORE.INTRA.norm>
-0.220502

>  <SCORE.RESTR>
0.0157643

>  <SCORE.RESTR.CAVITY>
0.0157643

>  <SCORE.RESTR.norm>
0.00032172

>  <SCORE.SYSTEM>
0

>  <SCORE.SYSTEM.CONST>
0

>  <SCORE.SYSTEM.DIHEDRAL>
0

>  <SCORE.SYSTEM.SOLV>
0

>  <SCORE.SYSTEM.norm>
0

>  <SCORE.heavy>
49

>  <SCORE.norm>
-0.226963

>  <RMSD>
7.795

$$$$
2bee_lig
 OpenBabel11021811423D
libRbt.so/2013.1/901 2013/11/27
 49 52  0  0  0  0  0  0  0  0999 V2000
   43.9583    7.7222   -3.1185 C   0  0  2  0  0  0  0  0  0  0  0  0
   42.6484    7.6525   -3.6676 O   0  0  0  0  0  0  0  0  0  0  0  0
   41.0385    5.7942   -7.3185 C   0  0  2  0  0  0  0  0  0  0  0  0
   40.7623    4.7580   -8.3504 N   0  0  0  0  0  0  0  0  0  0  0  0
   39.9581    4.9838   -3.0132 C   0  0  1  0  0  0  0  0  0  0  0  0
   38.9871    0.8584   -4.8625 C   0  0  1  0  0  0  0  0  0  0  0  0
   34.9779   -0.5185   -2.4709 C   0  0  0  0  0  0  0  0  0  0  0  0
   44.1952    6.5298   -2.1131 C   0  0  2  0  0  0  0  0  0  0  0  0
   43.9218    5.2576   -2.7729 N   0  0  0  0  0  0  0  0  0  0  0  0
   42.6165    5.9653   -7.1502 C   0  0  0  0  0  0  0  0  0  0  0  0
   39.0543    3.7991   -2.9036 C   0  0  2  0  0  0  0  0  0  0  0  0
   38.4993    3.6234   -1.5503 O   0  0  0  0  0  0  0  0  0  0  0  0
   39.7413   -0.3921   -5.5685 C   0  0  2  0  0  0  0  0  0  0  0  0
   40.7496    0.1569   -6.5354 N   0  0  0  0  0  0  0  0  0  0  0  0
   34.0973   -0.3332   -3.5622 C   0  0  0  0  0  0  0  0  0  0  0  0
   34.3523   -0.9681   -4.7757 N   0  0  0  0  0  0  0  0  0  0  0  0
   43.2764    6.7337   -0.8300 C   0  0  1  0  0  0  0  0  0  0  0  0
   43.4998    5.6587    0.0708 O   0  0  0  0  0  0  0  0  0  0  0  0
   42.9618    7.0878   -6.0134 C   0  0  2  0  0  0  0  0  0  0  0  0
   44.3675    7.2541   -5.8623 N   0  0  0  0  0  0  0  0  0  0  0  0
   40.0080    2.7973   -3.5083 C   0  0  2  0  0  0  0  0  0  0  0  0
   40.0412    1.6336   -4.2429 O   0  0  0  0  0  0  0  0  0  0  0  0
   38.6683   -1.2609   -6.3167 C   0  0  1  0  0  0  0  0  0  0  0  0
   37.7325   -1.7708   -5.3038 O   0  0  0  0  0  0  0  0  0  0  0  0
   43.6169    8.0928   -0.1755 C   0  0  2  0  0  0  0  0  0  0  0  0
   42.7688    8.3307    1.0203 O   0  0  0  0  0  0  0  0  0  0  0  0
   42.3266    6.6636   -4.6322 C   0  0  2  0  0  0  0  0  0  0  0  0
   41.4380    3.2924   -2.9628 C   0  0  2  0  0  0  0  0  0  0  0  0
   41.3139    4.6391   -3.0348 O   0  0  0  0  0  0  0  0  0  0  0  0
   37.9080   -0.3351   -7.4251 C   0  0  2  0  0  0  0  0  0  0  0  0
   38.8602    0.1744   -8.4376 O   0  0  0  0  0  0  0  0  0  0  0  0
   43.3837    9.2666   -1.1842 C   0  0  2  0  0  0  0  0  0  0  0  0
   44.2303    8.9635   -2.3225 O   0  0  0  0  0  0  0  0  0  0  0  0
   40.7842    6.5066   -4.8527 C   0  0  2  0  0  0  0  0  0  0  0  0
   40.3230    6.1550   -3.5706 O   0  0  0  0  0  0  0  0  0  0  0  0
   42.7163    2.9218   -3.8019 C   0  0  0  0  0  0  0  0  0  0  0  0
   42.5524    3.4005   -5.1743 O   0  0  0  0  0  0  0  0  0  0  0  0
   37.2133    0.9103   -6.7141 C   0  0  1  0  0  0  0  0  0  0  0  0
   38.3021    1.6618   -5.9770 O   0  0  0  0  0  0  0  0  0  0  0  0
   43.7541   10.5124   -0.4867 C   0  0  0  0  0  0  0  0  0  0  0  0
   43.4738   11.5776   -1.2497 O   0  0  0  0  0  0  0  0  0  0  0  0
   40.4771    5.3881   -5.9376 C   0  0  1  0  0  0  0  0  0  0  0  0
   39.1011    5.2638   -6.1315 O   0  0  0  0  0  0  0  0  0  0  0  0
   37.9109    2.3783   -1.0303 C   0  0  0  0  0  0  0  0  0  0  0  0
   36.5405    1.7294   -7.8672 C   0  0  0  0  0  0  0  0  0  0  0  0
   35.4966    1.0044   -8.5328 N   0  0  0  0  0  0  0  0  0  0  0  0
   36.5123    2.1958   -1.6217 C   0  0  0  0  0  0  0  0  0  0  0  0
   36.6657    1.3557   -2.8252 N   0  0  0  0  0  0  0  0  0  0  0  0
   36.5227   -0.1599   -2.6709 C   0  0  0  0  0  0  0  0  0  0  0  0
  1  2  1  1  0  0  0
  1  8  1  0  0  0  0
  1 33  1  0  0  0  0
  3  4  1  6  0  0  0
  3 10  1  0  0  0  0
  3 42  1  0  0  0  0
  5 11  1  0  0  0  0
  5 29  1  0  0  0  0
  5 35  1  6  0  0  0
  6 13  1  0  0  0  0
  6 39  1  0  0  0  0
  6 22  1  6  0  0  0
  7 15  1  0  0  0  0
  8  9  1  6  0  0  0
  8 17  1  0  0  0  0
 10 19  1  0  0  0  0
 11 12  1  1  0  0  0
 11 21  1  0  0  0  0
 12 44  1  0  0  0  0
 13 14  1  6  0  0  0
 13 23  1  0  0  0  0
 15 16  1  0  0  0  0
 17 18  1  1  0  0  0
 17 25  1  0  0  0  0
 19 20  1  1  0  0  0
 19 27  1  0  0  0  0
 21 22  1  1  0  0  0
 21 28  1  0  0  0  0
 23 24  1  1  0  0  0
 23 30  1  0  0  0  0
 25 26  1  1  0  0  0
 25 32  1  0  0  0  0
 27  2  1  1  0  0  0
 27 34  1  0  0  0  0
 28 29  1  0  0  0  0
 28 36  1  6  0  0  0
 30 31  1  6  0  0  0
 30 38  1  0  0  0  0
 32 33  1  0  0  0  0
 32 40  1  1  0  0  0
 34 35  1  1  0  0  0
 34 42  1  0  0  0  0
 36 37  1  0  0  0  0
 38 39  1  0  0  0  0
 38 45  1  6  0  0  0
 40 41  1  0  0  0  0
 42 43  1  6  0  0  0
 44 47  1  0  0  0  0
 45 46  1  0  0  0  0
 47 48  1  0  0  0  0
 48 49  1  0  0  0  0
 49  7  1  0  0  0  0
M  END
>  <CHROM.1>
-73.10065659,-65.87387362,179.89628163,56.50367661,-161.48608902,-76.02056227
4.37546211,-75.42012918,55.41515234,-174.76113264,-101.79291706,64.00074080
93.60542428,91.94609986,74.10815174,68.55967101,40.29889688,3.99720387,-4.04374872
-0.53017631,-0.81324126,-1.85565807

>  <Name>
2bee_lig

>  <RI>
0

>  <Rbt.Current_Directory>
/home/itssahil/PROJECTS/Mol_Feturizer/New_Systems/rnas/2bee

>  <Rbt.Executable>
rbdock ($Id: //depot/dev/client3/rdock/2013.1/src/exe/rbdock.cxx#4 $)

>  <Rbt.Library>
libRbt.so (2013.1, Build901 2013/11/27)

>  <Rbt.Parameter_File>
/export/apps/rDock/src/rDock_2013.1_src/data/scripts/dock_solv.prm

>  <Rbt.Receptor>
prm/pocket_docking_6.prm

>  <SCORE>
-15.7563

>  <SCORE.INTER>
-11.4962

>  <SCORE.INTER.CONST>
1

>  <SCORE.INTER.POLAR>
-1.86406

>  <SCORE.INTER.ROT>
16

>  <SCORE.INTER.SOLV>
15.3947

>  <SCORE.INTER.VDW>
-20.8488

>  <SCORE.INTER.norm>
-0.234617

>  <SCORE.INTRA>
-4.26011

>  <SCORE.INTRA.DIHEDRAL>
-17.1583

>  <SCORE.INTRA.DIHEDRAL.0>
36.0842

>  <SCORE.INTRA.POLAR>
0

>  <SCORE.INTRA.POLAR.0>
0

>  <SCORE.INTRA.REPUL>
0

>  <SCORE.INTRA.REPUL.0>
0

>  <SCORE.INTRA.SOLV>
9.91569

>  <SCORE.INTRA.SOLV.lig_0>
-126.444

>  <SCORE.INTRA.VDW>
-0.638785

>  <SCORE.INTRA.VDW.0>
-7.40469

>  <SCORE.INTRA.norm>
-0.0869411

>  <SCORE.RESTR>
0

>  <SCORE.RESTR.CAVITY>
0

>  <SCORE.RESTR.norm>
0

>  <SCORE.SYSTEM>
0

>  <SCORE.SYSTEM.CONST>
0

>  <SCORE.SYSTEM.DIHEDRAL>
0

>  <SCORE.SYSTEM.SOLV>
0

>  <SCORE.SYSTEM.norm>
0

>  <SCORE.heavy>
49

>  <SCORE.norm>
-0.321558

>  <RMSD>
7.821

$$$$
2bee_lig
 OpenBabel11021811423D
libRbt.so/2013.1/901 2013/11/27
 49 52  0  0  0  0  0  0  0  0999 V2000
   45.3334   13.7445  -11.9491 C   0  0  2  0  0  0  0  0  0  0  0  0
   45.1405   13.7865  -10.5409 O   0  0  0  0  0  0  0  0  0  0  0  0
   49.2918   13.3833   -9.1342 C   0  0  2  0  0  0  0  0  0  0  0  0
   50.4454   13.3086   -8.1970 N   0  0  0  0  0  0  0  0  0  0  0  0
   46.1425   10.1352   -9.0720 C   0  0  1  0  0  0  0  0  0  0  0  0
   43.4233    6.9940   -6.6815 C   0  0  1  0  0  0  0  0  0  0  0  0
   46.6895    3.8997   -9.0751 C   0  0  0  0  0  0  0  0  0  0  0  0
   44.1062   14.4030  -12.6902 C   0  0  2  0  0  0  0  0  0  0  0  0
   43.8841   15.7541  -12.1864 N   0  0  0  0  0  0  0  0  0  0  0  0
   48.5095   14.7551   -8.9013 C   0  0  0  0  0  0  0  0  0  0  0  0
   46.0761    9.2678   -7.8571 C   0  0  2  0  0  0  0  0  0  0  0  0
   47.2779    8.4342   -7.6803 O   0  0  0  0  0  0  0  0  0  0  0  0
   42.7601    7.5733   -5.3193 C   0  0  2  0  0  0  0  0  0  0  0  0
   43.6852    8.6122   -4.7554 N   0  0  0  0  0  0  0  0  0  0  0  0
   47.9851    3.4591   -9.4332 C   0  0  0  0  0  0  0  0  0  0  0  0
   48.9321    4.3779   -9.8801 N   0  0  0  0  0  0  0  0  0  0  0  0
   42.8205   13.4861  -12.4947 C   0  0  1  0  0  0  0  0  0  0  0  0
   41.7227   14.0840  -13.1688 O   0  0  0  0  0  0  0  0  0  0  0  0
   47.2245   14.8694   -9.9050 C   0  0  2  0  0  0  0  0  0  0  0  0
   46.5253   16.0940   -9.7111 N   0  0  0  0  0  0  0  0  0  0  0  0
   44.7246    8.6627   -8.1502 C   0  0  2  0  0  0  0  0  0  0  0  0
   43.6057    8.1501   -7.5335 O   0  0  0  0  0  0  0  0  0  0  0  0
   42.5782    6.3836   -4.3105 C   0  0  1  0  0  0  0  0  0  0  0  0
   41.6522    5.4226   -4.9276 O   0  0  0  0  0  0  0  0  0  0  0  0
   43.1175   12.0742  -13.0511 C   0  0  2  0  0  0  0  0  0  0  0  0
   41.9456   11.1790  -12.8741 O   0  0  0  0  0  0  0  0  0  0  0  0
   46.2455   13.6556   -9.6612 C   0  0  2  0  0  0  0  0  0  0  0  0
   44.7398    8.5156   -9.7520 C   0  0  2  0  0  0  0  0  0  0  0  0
   45.3654    9.6551  -10.1317 O   0  0  0  0  0  0  0  0  0  0  0  0
   44.0335    5.7082   -4.0112 C   0  0  2  0  0  0  0  0  0  0  0  0
   44.9576    6.6854   -3.3927 O   0  0  0  0  0  0  0  0  0  0  0  0
   44.3400   11.4341  -12.3124 C   0  0  2  0  0  0  0  0  0  0  0  0
   45.4365   12.3613  -12.5185 O   0  0  0  0  0  0  0  0  0  0  0  0
   47.0605   12.3395   -9.8985 C   0  0  2  0  0  0  0  0  0  0  0  0
   46.0980   11.3365   -9.6806 O   0  0  0  0  0  0  0  0  0  0  0  0
   43.3580    8.4994  -10.5045 C   0  0  0  0  0  0  0  0  0  0  0  0
   42.4767    7.5125   -9.8811 O   0  0  0  0  0  0  0  0  0  0  0  0
   44.6848    5.1874   -5.3690 C   0  0  1  0  0  0  0  0  0  0  0  0
   44.7769    6.3785   -6.2999 O   0  0  0  0  0  0  0  0  0  0  0  0
   44.5637   10.1090  -12.9204 C   0  0  0  0  0  0  0  0  0  0  0  0
   44.7393   10.2244  -14.2437 O   0  0  0  0  0  0  0  0  0  0  0  0
   48.2827   12.2393   -8.8893 C   0  0  1  0  0  0  0  0  0  0  0  0
   49.0057   11.0679   -9.1162 O   0  0  0  0  0  0  0  0  0  0  0  0
   47.8450    7.5372   -8.7004 C   0  0  0  0  0  0  0  0  0  0  0  0
   46.0726    4.5849   -4.9640 C   0  0  0  0  0  0  0  0  0  0  0  0
   46.9996    5.5774   -4.5009 N   0  0  0  0  0  0  0  0  0  0  0  0
   48.7661    6.5214   -8.0230 C   0  0  0  0  0  0  0  0  0  0  0  0
   47.8985    5.4637   -7.4691 N   0  0  0  0  0  0  0  0  0  0  0  0
   46.5559    5.1989   -8.1537 C   0  0  0  0  0  0  0  0  0  0  0  0
  1  2  1  1  0  0  0
  1  8  1  0  0  0  0
  1 33  1  0  0  0  0
  3  4  1  1  0  0  0
  3 10  1  0  0  0  0
  3 42  1  0  0  0  0
  5 11  1  0  0  0  0
  5 29  1  0  0  0  0
  5 35  1  1  0  0  0
  6 13  1  0  0  0  0
  6 39  1  0  0  0  0
  6 22  1  6  0  0  0
  7 15  1  0  0  0  0
  8  9  1  1  0  0  0
  8 17  1  0  0  0  0
 10 19  1  0  0  0  0
 11 12  1  6  0  0  0
 11 21  1  0  0  0  0
 12 44  1  0  0  0  0
 13 14  1  1  0  0  0
 13 23  1  0  0  0  0
 15 16  1  0  0  0  0
 17 18  1  6  0  0  0
 17 25  1  0  0  0  0
 19 20  1  1  0  0  0
 19 27  1  0  0  0  0
 21 22  1  1  0  0  0
 21 28  1  0  0  0  0
 23 24  1  6  0  0  0
 23 30  1  0  0  0  0
 25 26  1  1  0  0  0
 25 32  1  0  0  0  0
 27  2  1  6  0  0  0
 27 34  1  0  0  0  0
 28 29  1  0  0  0  0
 28 36  1  6  0  0  0
 30 31  1  6  0  0  0
 30 38  1  0  0  0  0
 32 33  1  0  0  0  0
 32 40  1  6  0  0  0
 34 35  1  1  0  0  0
 34 42  1  0  0  0  0
 36 37  1  0  0  0  0
 38 39  1  0  0  0  0
 38 45  1  1  0  0  0
 40 41  1  0  0  0  0
 42 43  1  6  0  0  0
 44 47  1  0  0  0  0
 45 46  1  0  0  0  0
 47 48  1  0  0  0  0
 48 49  1  0  0  0  0
 49  7  1  0  0  0  0
M  END
>  <CHROM.1>
-160.00298221,84.44984494,123.88111539,-45.82843886,-53.16913435,-161.13274226
-63.39234571,62.77687629,-51.00871199,56.03175133,-140.25941286,-67.37624709
80.77663481,27.67570498,101.31073036,-17.97188243,45.48240077,9.57338256
-8.99517040,1.58893867,-0.33787882,-0.59811849

>  <Name>
2bee_lig

>  <RI>
0

>  <Rbt.Current_Directory>
/home/itssahil/PROJECTS/Mol_Feturizer/New_Systems/rnas/2bee

>  <Rbt.Executable>
rbdock ($Id: //depot/dev/client3/rdock/2013.1/src/exe/rbdock.cxx#4 $)

>  <Rbt.Library>
libRbt.so (2013.1, Build901 2013/11/27)

>  <Rbt.Parameter_File>
/export/apps/rDock/src/rDock_2013.1_src/data/scripts/dock_solv.prm

>  <Rbt.Receptor>
prm/blind_docking_60.prm

>  <SCORE>
53.329

>  <SCORE.INTER>
15.9405

>  <SCORE.INTER.CONST>
1

>  <SCORE.INTER.POLAR>
-0.701786

>  <SCORE.INTER.ROT>
16

>  <SCORE.INTER.SOLV>
35.2269

>  <SCORE.INTER.VDW>
-13.0427

>  <SCORE.INTER.norm>
0.325316

>  <SCORE.INTRA>
8.0093

>  <SCORE.INTRA.DIHEDRAL>
-3.51192

>  <SCORE.INTRA.DIHEDRAL.0>
36.0842

>  <SCORE.INTRA.POLAR>
0

>  <SCORE.INTRA.POLAR.0>
0

>  <SCORE.INTRA.REPUL>
0

>  <SCORE.INTRA.REPUL.0>
0

>  <SCORE.INTRA.SOLV>
8.96548

>  <SCORE.INTRA.SOLV.lig_0>
-126.444

>  <SCORE.INTRA.VDW>
5.28252

>  <SCORE.INTRA.VDW.0>
-7.40469

>  <SCORE.INTRA.norm>
0.163455

>  <SCORE.RESTR>
29.3792

>  <SCORE.RESTR.CAVITY>
29.3792

>  <SCORE.RESTR.norm>
0.599576

>  <SCORE.SYSTEM>
0

>  <SCORE.SYSTEM.CONST>
0

>  <SCORE.SYSTEM.DIHEDRAL>
0

>  <SCORE.SYSTEM.SOLV>
0

>  <SCORE.SYSTEM.norm>
0

>  <SCORE.heavy>
49

>  <SCORE.norm>
1.08835

>  <RMSD>
7.826

$$$$
2bee_lig
 OpenBabel11021811423D
libRbt.so/2013.1/901 2013/11/27
 49 52  0  0  0  0  0  0  0  0999 V2000
   43.7997   11.0074  -11.7779 C   0  0  2  0  0  0  0  0  0  0  0  0
   44.4786   12.1784  -11.3419 O   0  0  0  0  0  0  0  0  0  0  0  0
   48.4514   11.9735   -9.4579 C   0  0  2  0  0  0  0  0  0  0  0  0
   49.4895   11.9498   -8.3919 N   0  0  0  0  0  0  0  0  0  0  0  0
   45.4692    8.5886   -9.7367 C   0  0  1  0  0  0  0  0  0  0  0  0
   42.9716    6.4603   -6.3761 C   0  0  1  0  0  0  0  0  0  0  0  0
   50.5882    5.3075   -5.6623 C   0  0  0  0  0  0  0  0  0  0  0  0
   44.1753   10.6818  -13.2752 C   0  0  2  0  0  0  0  0  0  0  0  0
   45.6241   10.5859  -13.4178 N   0  0  0  0  0  0  0  0  0  0  0  0
   47.5787   13.3026   -9.3166 C   0  0  0  0  0  0  0  0  0  0  0  0
   45.5073    7.7619   -8.4927 C   0  0  2  0  0  0  0  0  0  0  0  0
   46.6310    6.8095   -8.4703 O   0  0  0  0  0  0  0  0  0  0  0  0
   43.1020    7.8021   -5.4742 C   0  0  2  0  0  0  0  0  0  0  0  0
   44.3817    8.4922   -5.8472 N   0  0  0  0  0  0  0  0  0  0  0  0
   51.6201    5.6608   -6.5629 C   0  0  0  0  0  0  0  0  0  0  0  0
   52.1296    6.9573   -6.5610 N   0  0  0  0  0  0  0  0  0  0  0  0
   43.5659   11.8031  -14.2257 C   0  0  1  0  0  0  0  0  0  0  0  0
   43.9049   11.4992  -15.5709 O   0  0  0  0  0  0  0  0  0  0  0  0
   46.4161   13.3597  -10.4641 C   0  0  2  0  0  0  0  0  0  0  0  0
   45.6379   14.5463  -10.3520 N   0  0  0  0  0  0  0  0  0  0  0  0
   44.0721    7.2975   -8.5494 C   0  0  2  0  0  0  0  0  0  0  0  0
   43.0182    6.9216   -7.7476 O   0  0  0  0  0  0  0  0  0  0  0  0
   43.1158    7.3838   -3.9606 C   0  0  1  0  0  0  0  0  0  0  0  0
   41.8295    6.7322   -3.6736 O   0  0  0  0  0  0  0  0  0  0  0  0
   42.0325   11.8511  -14.0318 C   0  0  2  0  0  0  0  0  0  0  0  0
   41.4236   12.8981  -14.8915 O   0  0  0  0  0  0  0  0  0  0  0  0
   45.4781   12.0965  -10.3387 C   0  0  2  0  0  0  0  0  0  0  0  0
   43.8197    7.1121  -10.1272 C   0  0  2  0  0  0  0  0  0  0  0  0
   44.4901    8.1693  -10.6439 O   0  0  0  0  0  0  0  0  0  0  0  0
   44.3721    6.3764   -3.6951 C   0  0  2  0  0  0  0  0  0  0  0  0
   45.6609    7.0423   -3.9898 O   0  0  0  0  0  0  0  0  0  0  0  0
   41.6728   12.1689  -12.5420 C   0  0  2  0  0  0  0  0  0  0  0  0
   42.3044   11.1185  -11.7661 O   0  0  0  0  0  0  0  0  0  0  0  0
   46.3808   10.8248  -10.4805 C   0  0  2  0  0  0  0  0  0  0  0  0
   45.4514    9.7732  -10.3786 O   0  0  0  0  0  0  0  0  0  0  0  0
   42.3422    7.2255  -10.6563 C   0  0  0  0  0  0  0  0  0  0  0  0
   41.4955    6.2707   -9.9416 O   0  0  0  0  0  0  0  0  0  0  0  0
   44.2460    5.0878   -4.6240 C   0  0  1  0  0  0  0  0  0  0  0  0
   44.1872    5.5792   -6.0553 O   0  0  0  0  0  0  0  0  0  0  0  0
   40.2008   12.1711  -12.4465 C   0  0  0  0  0  0  0  0  0  0  0  0
   39.8086   12.6745  -11.2684 O   0  0  0  0  0  0  0  0  0  0  0  0
   47.4798   10.7786   -9.3348 C   0  0  1  0  0  0  0  0  0  0  0  0
   48.2828    9.6466   -9.4769 O   0  0  0  0  0  0  0  0  0  0  0  0
   48.0531    7.1733   -8.5803 C   0  0  0  0  0  0  0  0  0  0  0  0
   45.5044    4.2133   -4.3004 C   0  0  0  0  0  0  0  0  0  0  0  0
   46.7377    4.8552   -4.6549 N   0  0  0  0  0  0  0  0  0  0  0  0
   48.9055    5.9058   -8.5034 C   0  0  0  0  0  0  0  0  0  0  0  0
   48.5765    5.2491   -7.2234 N   0  0  0  0  0  0  0  0  0  0  0  0
   49.1168    5.8700   -5.9334 C   0  0  0  0  0  0  0  0  0  0  0  0
  1  2  1  6  0  0  0
  1  8  1  0  0  0  0
  1 33  1  0  0  0  0
  3  4  1  1  0  0  0
  3 10  1  0  0  0  0
  3 42  1  0  0  0  0
  5 11  1  0  0  0  0
  5 29  1  0  0  0  0
  5 35  1  1  0  0  0
  6 13  1  0  0  0  0
  6 39  1  0  0  0  0
  6 22  1  6  0  0  0
  7 15  1  0  0  0  0
  8  9  1  1  0  0  0
  8 17  1  0  0  0  0
 10 19  1  0  0  0  0
 11 12  1  6  0  0  0
 11 21  1  0  0  0  0
 12 44  1  0  0  0  0
 13 14  1  6  0  0  0
 13 23  1  0  0  0  0
 15 16  1  0  0  0  0
 17 18  1  6  0  0  0
 17 25  1  0  0  0  0
 19 20  1  1  0  0  0
 19 27  1  0  0  0  0
 21 22  1  1  0  0  0
 21 28  1  0  0  0  0
 23 24  1  6  0  0  0
 23 30  1  0  0  0  0
 25 26  1  6  0  0  0
 25 32  1  0  0  0  0
 27  2  1  6  0  0  0
 27 34  1  0  0  0  0
 28 29  1  0  0  0  0
 28 36  1  1  0  0  0
 30 31  1  6  0  0  0
 30 38  1  0  0  0  0
 32 33  1  0  0  0  0
 32 40  1  6  0  0  0
 34 35  1  1  0  0  0
 34 42  1  0  0  0  0
 36 37  1  0  0  0  0
 38 39  1  0  0  0  0
 38 45  1  6  0  0  0
 40 41  1  0  0  0  0
 42 43  1  6  0  0  0
 44 47  1  0  0  0  0
 45 46  1  0  0  0  0
 47 48  1  0  0  0  0
 48 49  1  0  0  0  0
 49  7  1  0  0  0  0
M  END
>  <CHROM.1>
-112.98404749,64.70869894,79.11217337,72.62575145,58.00969463,179.53030143
-19.97477642,157.92051670,-55.73862715,-168.62046175,-137.85903072,-63.92182089
-57.53602417,-73.97101600,-86.21975272,66.43604284,45.17741027,8.91337038
-9.00944817,1.95314384,-0.07409667,-0.84284717

>  <Name>
2bee_lig

>  <RI>
0

>  <Rbt.Current_Directory>
/home/itssahil/PROJECTS/Mol_Feturizer/New_Systems/rnas/2bee

>  <Rbt.Executable>
rbdock ($Id: //depot/dev/client3/rdock/2013.1/src/exe/rbdock.cxx#4 $)

>  <Rbt.Library>
libRbt.so (2013.1, Build901 2013/11/27)

>  <Rbt.Parameter_File>
/export/apps/rDock/src/rDock_2013.1_src/data/scripts/dock_solv.prm

>  <Rbt.Receptor>
prm/blind_docking_60.prm

>  <SCORE>
26.0922

>  <SCORE.INTER>
9.03713

>  <SCORE.INTER.CONST>
1

>  <SCORE.INTER.POLAR>
-0.503268

>  <SCORE.INTER.ROT>
16

>  <SCORE.INTER.SOLV>
45.3353

>  <SCORE.INTER.VDW>
-21.6761

>  <SCORE.INTER.norm>
0.184431

>  <SCORE.INTRA>
2.56516

>  <SCORE.INTRA.DIHEDRAL>
-13.2572

>  <SCORE.INTRA.DIHEDRAL.0>
36.0842

>  <SCORE.INTRA.POLAR>
0

>  <SCORE.INTRA.POLAR.0>
0

>  <SCORE.INTRA.REPUL>
0.0686867

>  <SCORE.INTRA.REPUL.0>
0

>  <SCORE.INTRA.SOLV>
7.11223

>  <SCORE.INTRA.SOLV.lig_0>
-126.444

>  <SCORE.INTRA.VDW>
5.29419

>  <SCORE.INTRA.VDW.0>
-7.40469

>  <SCORE.INTRA.norm>
0.0523501

>  <SCORE.RESTR>
14.4899

>  <SCORE.RESTR.CAVITY>
14.4899

>  <SCORE.RESTR.norm>
0.295712

>  <SCORE.SYSTEM>
0

>  <SCORE.SYSTEM.CONST>
0

>  <SCORE.SYSTEM.DIHEDRAL>
0

>  <SCORE.SYSTEM.SOLV>
0

>  <SCORE.SYSTEM.norm>
0

>  <SCORE.heavy>
49

>  <SCORE.norm>
0.532493

>  <RMSD>
7.836

$$$$
2bee_lig
 OpenBabel11021811423D
libRbt.so/2013.1/901 2013/11/27
 49 52  0  0  0  0  0  0  0  0999 V2000
   43.4934    4.8545   -1.2429 C   0  0  2  0  0  0  0  0  0  0  0  0
   42.5662    5.0690   -2.2996 O   0  0  0  0  0  0  0  0  0  0  0  0
   42.7805    6.9263   -6.2843 C   0  0  2  0  0  0  0  0  0  0  0  0
   43.3093    7.2878   -7.6277 N   0  0  0  0  0  0  0  0  0  0  0  0
   42.4375    2.5751   -4.9978 C   0  0  1  0  0  0  0  0  0  0  0  0
   46.8263    3.1259   -5.6918 C   0  0  1  0  0  0  0  0  0  0  0  0
   41.0645   -3.0533   -3.2640 C   0  0  0  0  0  0  0  0  0  0  0  0
   42.7950    4.1012   -0.0455 C   0  0  2  0  0  0  0  0  0  0  0  0
   42.1798    2.8670   -0.5219 N   0  0  0  0  0  0  0  0  0  0  0  0
   43.8521    7.3236   -5.1699 C   0  0  0  0  0  0  0  0  0  0  0  0
   43.1688    1.8219   -6.0611 C   0  0  2  0  0  0  0  0  0  0  0  0
   42.5712    0.5061   -6.3472 O   0  0  0  0  0  0  0  0  0  0  0  0
   46.1855    4.3230   -6.5792 C   0  0  2  0  0  0  0  0  0  0  0  0
   45.9769    3.8092   -7.9740 N   0  0  0  0  0  0  0  0  0  0  0  0
   39.7859   -2.7381   -2.7477 C   0  0  0  0  0  0  0  0  0  0  0  0
   39.2788   -1.4483   -2.8888 N   0  0  0  0  0  0  0  0  0  0  0  0
   41.7253    5.0662    0.6301 C   0  0  1  0  0  0  0  0  0  0  0  0
   41.1056    4.3816    1.7092 O   0  0  0  0  0  0  0  0  0  0  0  0
   43.3129    6.9296   -3.6781 C   0  0  2  0  0  0  0  0  0  0  0  0
   44.2582    7.2884   -2.6761 N   0  0  0  0  0  0  0  0  0  0  0  0
   44.5440    1.9556   -5.4531 C   0  0  2  0  0  0  0  0  0  0  0  0
   45.8772    2.0368   -5.7863 O   0  0  0  0  0  0  0  0  0  0  0  0
   47.1857    5.5337   -6.5759 C   0  0  1  0  0  0  0  0  0  0  0  0
   47.3233    5.9854   -5.1835 O   0  0  0  0  0  0  0  0  0  0  0  0
   42.4385    6.3492    1.1167 C   0  0  2  0  0  0  0  0  0  0  0  0
   41.4710    7.2869    1.7417 O   0  0  0  0  0  0  0  0  0  0  0  0
   43.0256    5.3793   -3.6051 C   0  0  2  0  0  0  0  0  0  0  0  0
   44.2473    1.8555   -3.8753 C   0  0  2  0  0  0  0  0  0  0  0  0
   43.0940    2.5564   -3.7625 O   0  0  0  0  0  0  0  0  0  0  0  0
   48.6159    5.0483   -7.1942 C   0  0  2  0  0  0  0  0  0  0  0  0
   48.4643    4.5937   -8.5949 O   0  0  0  0  0  0  0  0  0  0  0  0
   43.1321    7.0840   -0.0786 C   0  0  2  0  0  0  0  0  0  0  0  0
   44.0487    6.1112   -0.6424 O   0  0  0  0  0  0  0  0  0  0  0  0
   41.9750    5.0432   -4.7168 C   0  0  2  0  0  0  0  0  0  0  0  0
   41.7779    3.6603   -4.5476 O   0  0  0  0  0  0  0  0  0  0  0  0
   45.2708    2.5288   -2.8879 C   0  0  0  0  0  0  0  0  0  0  0  0
   44.9663    2.1180   -1.5176 O   0  0  0  0  0  0  0  0  0  0  0  0
   49.2036    3.8431   -6.3333 C   0  0  1  0  0  0  0  0  0  0  0  0
   48.1622    2.7436   -6.3444 O   0  0  0  0  0  0  0  0  0  0  0  0
   43.8019    8.2740    0.4790 C   0  0  0  0  0  0  0  0  0  0  0  0
   44.0831    9.1519   -0.4933 O   0  0  0  0  0  0  0  0  0  0  0  0
   42.5373    5.4059   -6.1571 C   0  0  1  0  0  0  0  0  0  0  0  0
   41.5897    5.1104   -7.1374 O   0  0  0  0  0  0  0  0  0  0  0  0
   41.2041    0.2864   -6.8467 C   0  0  0  0  0  0  0  0  0  0  0  0
   50.5525    3.4518   -7.0265 C   0  0  0  0  0  0  0  0  0  0  0  0
   51.2739    2.4370   -6.3135 N   0  0  0  0  0  0  0  0  0  0  0  0
   40.8528   -1.1966   -6.7195 C   0  0  0  0  0  0  0  0  0  0  0  0
   40.8425   -1.5091   -5.2772 N   0  0  0  0  0  0  0  0  0  0  0  0
   41.3093   -2.8979   -4.8359 C   0  0  0  0  0  0  0  0  0  0  0  0
  1  2  1  6  0  0  0
  1  8  1  0  0  0  0
  1 33  1  0  0  0  0
  3  4  1  6  0  0  0
  3 10  1  0  0  0  0
  3 42  1  0  0  0  0
  5 11  1  0  0  0  0
  5 29  1  0  0  0  0
  5 35  1  6  0  0  0
  6 13  1  0  0  0  0
  6 39  1  0  0  0  0
  6 22  1  6  0  0  0
  7 15  1  0  0  0  0
  8  9  1  6  0  0  0
  8 17  1  0  0  0  0
 10 19  1  0  0  0  0
 11 12  1  1  0  0  0
 11 21  1  0  0  0  0
 12 44  1  0  0  0  0
 13 14  1  6  0  0  0
 13 23  1  0  0  0  0
 15 16  1  0  0  0  0
 17 18  1  1  0  0  0
 17 25  1  0  0  0  0
 19 20  1  1  0  0  0
 19 27  1  0  0  0  0
 21 22  1  6  0  0  0
 21 28  1  0  0  0  0
 23 24  1  1  0  0  0
 23 30  1  0  0  0  0
 25 26  1  6  0  0  0
 25 32  1  0  0  0  0
 27  2  1  1  0  0  0
 27 34  1  0  0  0  0
 28 29  1  0  0  0  0
 28 36  1  1  0  0  0
 30 31  1  6  0  0  0
 30 38  1  0  0  0  0
 32 33  1  0  0  0  0
 32 40  1  1  0  0  0
 34 35  1  6  0  0  0
 34 42  1  0  0  0  0
 36 37  1  0  0  0  0
 38 39  1  0  0  0  0
 38 45  1  6  0  0  0
 40 41  1  0  0  0  0
 42 43  1  6  0  0  0
 44 47  1  0  0  0  0
 45 46  1  0  0  0  0
 47 48  1  0  0  0  0
 48 49  1  0  0  0  0
 49  7  1  0  0  0  0
M  END
>  <CHROM.1>
-162.32652917,-40.10846710,-58.30967650,-60.88766545,61.22640574,-167.40391579
111.21056216,-83.24947592,-169.46814810,-162.11741905,-84.50211456,175.50512203
64.53851281,-145.76929791,-174.08300804,50.64446117,43.90804366,3.70146250
-4.02631503,-2.49135604,-0.70159124,-2.50952142

>  <Name>
2bee_lig

>  <RI>
2.18182e+07

>  <Rbt.Current_Directory>
/home/itssahil/PROJECTS/Mol_Feturizer/New_Systems/rnas/2bee

>  <Rbt.Executable>
rbdock ($Id: //depot/dev/client3/rdock/2013.1/src/exe/rbdock.cxx#4 $)

>  <Rbt.Library>
libRbt.so (2013.1, Build901 2013/11/27)

>  <Rbt.Parameter_File>
/export/apps/rDock/src/rDock_2013.1_src/data/scripts/dock_solv.prm

>  <Rbt.Receptor>
prm/pocket_docking_3.prm

>  <SCORE>
-3.86437

>  <SCORE.INTER>
2.89607

>  <SCORE.INTER.CONST>
1

>  <SCORE.INTER.POLAR>
-0.899828

>  <SCORE.INTER.ROT>
16

>  <SCORE.INTER.SOLV>
10.1176

>  <SCORE.INTER.VDW>
-12.7091

>  <SCORE.INTER.norm>
0.0591034

>  <SCORE.INTRA>
-6.77425

>  <SCORE.INTRA.DIHEDRAL>
-21.0738

>  <SCORE.INTRA.DIHEDRAL.0>
36.0842

>  <SCORE.INTRA.POLAR>
0

>  <SCORE.INTRA.POLAR.0>
0

>  <SCORE.INTRA.REPUL>
0

>  <SCORE.INTRA.REPUL.0>
0

>  <SCORE.INTRA.SOLV>
6.70597

>  <SCORE.INTRA.SOLV.lig_0>
-126.444

>  <SCORE.INTRA.VDW>
0.409658

>  <SCORE.INTRA.VDW.0>
-7.40469

>  <SCORE.INTRA.norm>
-0.13825

>  <SCORE.RESTR>
0.0138161

>  <SCORE.RESTR.CAVITY>
0.0138161

>  <SCORE.RESTR.norm>
0.000281962

>  <SCORE.SYSTEM>
0

>  <SCORE.SYSTEM.CONST>
0

>  <SCORE.SYSTEM.DIHEDRAL>
0

>  <SCORE.SYSTEM.SOLV>
0

>  <SCORE.SYSTEM.norm>
0

>  <SCORE.heavy>
49

>  <SCORE.norm>
-0.0788646

>  <RMSD>
7.865

$$$$
2bee_lig
 OpenBabel11021811423D
libRbt.so/2013.1/901 2013/11/27
 49 52  0  0  0  0  0  0  0  0999 V2000
   41.8229    4.0640   -0.5961 C   0  0  2  0  0  0  0  0  0  0  0  0
   41.6606    3.8885   -1.9978 O   0  0  0  0  0  0  0  0  0  0  0  0
   44.9545    1.0987   -2.8588 C   0  0  2  0  0  0  0  0  0  0  0  0
   45.8097    0.1404   -3.6106 N   0  0  0  0  0  0  0  0  0  0  0  0
   43.6729    5.1697   -4.5745 C   0  0  1  0  0  0  0  0  0  0  0  0
   44.3585    8.8327   -7.5817 C   0  0  1  0  0  0  0  0  0  0  0  0
   41.0594    0.6045   -5.0995 C   0  0  0  0  0  0  0  0  0  0  0  0
   40.6343    4.9198   -0.0097 C   0  0  2  0  0  0  0  0  0  0  0  0
   39.3570    4.3093   -0.3625 N   0  0  0  0  0  0  0  0  0  0  0  0
   43.4512    0.5624   -2.8386 C   0  0  0  0  0  0  0  0  0  0  0  0
   43.0114    6.0790   -5.5585 C   0  0  2  0  0  0  0  0  0  0  0  0
   42.1916    5.3569   -6.5468 O   0  0  0  0  0  0  0  0  0  0  0  0
   44.6686    7.8378   -8.8246 C   0  0  2  0  0  0  0  0  0  0  0  0
   46.1077    7.4194   -8.7394 N   0  0  0  0  0  0  0  0  0  0  0  0
   40.2289   -0.4885   -5.4406 C   0  0  0  0  0  0  0  0  0  0  0  0
   40.7894   -1.6456   -5.9770 N   0  0  0  0  0  0  0  0  0  0  0  0
   40.7414    6.4109   -0.5547 C   0  0  1  0  0  0  0  0  0  0  0  0
   39.6707    7.1744   -0.0182 O   0  0  0  0  0  0  0  0  0  0  0  0
   42.4758    1.5963   -2.0317 C   0  0  2  0  0  0  0  0  0  0  0  0
   41.1340    1.1221   -2.0004 N   0  0  0  0  0  0  0  0  0  0  0  0
   44.2549    6.8360   -5.9576 C   0  0  2  0  0  0  0  0  0  0  0  0
   44.6842    8.0683   -6.3962 O   0  0  0  0  0  0  0  0  0  0  0  0
   44.3926    8.6130  -10.1622 C   0  0  1  0  0  0  0  0  0  0  0  0
   42.9669    8.9720  -10.1752 O   0  0  0  0  0  0  0  0  0  0  0  0
   42.1106    7.0015   -0.1450 C   0  0  2  0  0  0  0  0  0  0  0  0
   42.2588    8.3910   -0.6485 O   0  0  0  0  0  0  0  0  0  0  0  0
   42.5198    3.0179   -2.7160 C   0  0  2  0  0  0  0  0  0  0  0  0
   45.3911    5.6978   -5.9243 C   0  0  2  0  0  0  0  0  0  0  0  0
   45.0342    4.9781   -4.8341 O   0  0  0  0  0  0  0  0  0  0  0  0
   45.3460    9.9363  -10.2205 C   0  0  2  0  0  0  0  0  0  0  0  0
   46.7783    9.5626  -10.2043 O   0  0  0  0  0  0  0  0  0  0  0  0
   43.2810    6.1409   -0.7275 C   0  0  2  0  0  0  0  0  0  0  0  0
   43.0667    4.8047   -0.2051 O   0  0  0  0  0  0  0  0  0  0  0  0
   44.0115    3.4949   -2.7131 C   0  0  2  0  0  0  0  0  0  0  0  0
   43.9313    4.7638   -3.3160 O   0  0  0  0  0  0  0  0  0  0  0  0
   46.8799    6.1483   -5.6874 C   0  0  0  0  0  0  0  0  0  0  0  0
   47.3153    6.9922   -6.7999 O   0  0  0  0  0  0  0  0  0  0  0  0
   45.0555   10.8758   -8.9666 C   0  0  1  0  0  0  0  0  0  0  0  0
   45.2938   10.0416   -7.7253 O   0  0  0  0  0  0  0  0  0  0  0  0
   44.5389    6.7604   -0.2694 C   0  0  0  0  0  0  0  0  0  0  0  0
   44.6745    6.6200    1.0562 O   0  0  0  0  0  0  0  0  0  0  0  0
   44.9302    2.4898   -3.5305 C   0  0  1  0  0  0  0  0  0  0  0  0
   46.2570    2.9205   -3.5132 O   0  0  0  0  0  0  0  0  0  0  0  0
   42.7172    4.4787   -7.6048 C   0  0  0  0  0  0  0  0  0  0  0  0
   46.0333   12.0900   -9.1174 C   0  0  0  0  0  0  0  0  0  0  0  0
   47.4093   11.7258   -8.9366 N   0  0  0  0  0  0  0  0  0  0  0  0
   41.7702    3.2926   -7.7927 C   0  0  0  0  0  0  0  0  0  0  0  0
   41.5602    2.7003   -6.4573 N   0  0  0  0  0  0  0  0  0  0  0  0
   41.9795    1.2450   -6.2388 C   0  0  0  0  0  0  0  0  0  0  0  0
  1  2  1  6  0  0  0
  1  8  1  0  0  0  0
  1 33  1  0  0  0  0
  3  4  1  6  0  0  0
  3 10  1  0  0  0  0
  3 42  1  0  0  0  0
  5 11  1  0  0  0  0
  5 29  1  0  0  0  0
  5 35  1  1  0  0  0
  6 13  1  0  0  0  0
  6 39  1  0  0  0  0
  6 22  1  1  0  0  0
  7 15  1  0  0  0  0
  8  9  1  6  0  0  0
  8 17  1  0  0  0  0
 10 19  1  0  0  0  0
 11 12  1  6  0  0  0
 11 21  1  0  0  0  0
 12 44  1  0  0  0  0
 13 14  1  6  0  0  0
 13 23  1  0  0  0  0
 15 16  1  0  0  0  0
 17 18  1  1  0  0  0
 17 25  1  0  0  0  0
 19 20  1  6  0  0  0
 19 27  1  0  0  0  0
 21 22  1  6  0  0  0
 21 28  1  0  0  0  0
 23 24  1  1  0  0  0
 23 30  1  0  0  0  0
 25 26  1  6  0  0  0
 25 32  1  0  0  0  0
 27  2  1  1  0  0  0
 27 34  1  0  0  0  0
 28 29  1  0  0  0  0
 28 36  1  1  0  0  0
 30 31  1  1  0  0  0
 30 38  1  0  0  0  0
 32 33  1  0  0  0  0
 32 40  1  1  0  0  0
 34 35  1  6  0  0  0
 34 42  1  0  0  0  0
 36 37  1  0  0  0  0
 38 39  1  0  0  0  0
 38 45  1  1  0  0  0
 40 41  1  0  0  0  0
 42 43  1  1  0  0  0
 44 47  1  0  0  0  0
 45 46  1  0  0  0  0
 47 48  1  0  0  0  0
 48 49  1  0  0  0  0
 49  7  1  0  0  0  0
M  END
>  <CHROM.1>
-172.37403472,137.62913142,-54.62580452,57.44815558,-68.79229679,143.10222708
-60.18289124,54.68995420,-63.66479562,67.93748022,-70.10079050,-68.18991266
-51.98367185,-119.39578247,-151.71585225,117.56376130,43.57298117,5.40749320
-4.71255255,-3.09225822,-1.22363067,-2.32457662

>  <Name>
2bee_lig

>  <RI>
3.71943e+07

>  <Rbt.Current_Directory>
/home/itssahil/PROJECTS/Mol_Feturizer/New_Systems/rnas/2bee

>  <Rbt.Executable>
rbdock ($Id: //depot/dev/client3/rdock/2013.1/src/exe/rbdock.cxx#4 $)

>  <Rbt.Library>
libRbt.so (2013.1, Build901 2013/11/27)

>  <Rbt.Parameter_File>
/export/apps/rDock/src/rDock_2013.1_src/data/scripts/dock_solv.prm

>  <Rbt.Receptor>
prm/pocket_docking_2.prm

>  <SCORE>
-1.78632

>  <SCORE.INTER>
-5.99643

>  <SCORE.INTER.CONST>
1

>  <SCORE.INTER.POLAR>
-1.59321

>  <SCORE.INTER.ROT>
16

>  <SCORE.INTER.SOLV>
15.5239

>  <SCORE.INTER.VDW>
-18.1282

>  <SCORE.INTER.norm>
-0.122376

>  <SCORE.INTRA>
-0.948504

>  <SCORE.INTRA.DIHEDRAL>
-11.5381

>  <SCORE.INTRA.DIHEDRAL.0>
36.0842

>  <SCORE.INTRA.POLAR>
0

>  <SCORE.INTRA.POLAR.0>
0

>  <SCORE.INTRA.REPUL>
0.0433507

>  <SCORE.INTRA.REPUL.0>
0

>  <SCORE.INTRA.SOLV>
5.27884

>  <SCORE.INTRA.SOLV.lig_0>
-126.444

>  <SCORE.INTRA.VDW>
1.96439

>  <SCORE.INTRA.VDW.0>
-7.40469

>  <SCORE.INTRA.norm>
-0.0193572

>  <SCORE.RESTR>
5.15861

>  <SCORE.RESTR.CAVITY>
5.15861

>  <SCORE.RESTR.norm>
0.105278

>  <SCORE.SYSTEM>
0

>  <SCORE.SYSTEM.CONST>
0

>  <SCORE.SYSTEM.DIHEDRAL>
0

>  <SCORE.SYSTEM.SOLV>
0

>  <SCORE.SYSTEM.norm>
0

>  <SCORE.heavy>
49

>  <SCORE.norm>
-0.0364556

>  <RMSD>
7.867

$$$$
2bee_lig
 OpenBabel11021811423D
libRbt.so/2013.1/901 2013/11/27
 49 52  0  0  0  0  0  0  0  0999 V2000
   44.7827    4.7396   -8.7274 C   0  0  2  0  0  0  0  0  0  0  0  0
   43.7829    4.2896   -7.8219 O   0  0  0  0  0  0  0  0  0  0  0  0
   40.2455    1.8292   -8.7204 C   0  0  2  0  0  0  0  0  0  0  0  0
   39.4334    0.6444   -9.1099 N   0  0  0  0  0  0  0  0  0  0  0  0
   42.4031    2.3262   -4.6119 C   0  0  1  0  0  0  0  0  0  0  0  0
   41.5008   -1.8066   -2.9016 C   0  0  1  0  0  0  0  0  0  0  0  0
   43.7869    5.9031   -1.1078 C   0  0  0  0  0  0  0  0  0  0  0  0
   46.0575    5.2289   -7.9373 C   0  0  2  0  0  0  0  0  0  0  0  0
   46.5295    4.1738   -7.0470 N   0  0  0  0  0  0  0  0  0  0  0  0
   41.2952    2.1543   -9.8781 C   0  0  0  0  0  0  0  0  0  0  0  0
   41.5367    1.6892   -3.5745 C   0  0  2  0  0  0  0  0  0  0  0  0
   41.0728    2.6410   -2.5502 O   0  0  0  0  0  0  0  0  0  0  0  0
   40.2163   -1.2568   -2.0777 C   0  0  2  0  0  0  0  0  0  0  0  0
   40.6572   -0.9518   -0.6756 N   0  0  0  0  0  0  0  0  0  0  0  0
   43.9793    6.3059    0.2344 C   0  0  0  0  0  0  0  0  0  0  0  0
   43.6312    7.5958    0.6289 N   0  0  0  0  0  0  0  0  0  0  0  0
   45.7014    6.5564   -7.1355 C   0  0  1  0  0  0  0  0  0  0  0  0
   46.8555    6.9917   -6.4315 O   0  0  0  0  0  0  0  0  0  0  0  0
   42.2174    3.4442   -9.4815 C   0  0  2  0  0  0  0  0  0  0  0  0
   43.1511    3.7478  -10.5122 N   0  0  0  0  0  0  0  0  0  0  0  0
   42.4741    0.5544   -3.2392 C   0  0  2  0  0  0  0  0  0  0  0  0
   42.4888   -0.7526   -2.8071 O   0  0  0  0  0  0  0  0  0  0  0  0
   39.1091   -2.3705   -2.0831 C   0  0  1  0  0  0  0  0  0  0  0  0
   38.7231   -2.5987   -3.4833 O   0  0  0  0  0  0  0  0  0  0  0  0
   45.2141    7.6335   -8.1323 C   0  0  2  0  0  0  0  0  0  0  0  0
   44.8554    8.8875   -7.4219 O   0  0  0  0  0  0  0  0  0  0  0  0
   42.9889    3.1567   -8.1350 C   0  0  2  0  0  0  0  0  0  0  0  0
   43.9234    1.2417   -3.3605 C   0  0  2  0  0  0  0  0  0  0  0  0
   43.7627    2.0451   -4.4388 O   0  0  0  0  0  0  0  0  0  0  0  0
   39.7083   -3.7245   -1.3968 C   0  0  2  0  0  0  0  0  0  0  0  0
   40.0957   -3.4820    0.0112 O   0  0  0  0  0  0  0  0  0  0  0  0
   43.9533    7.1342   -8.9139 C   0  0  2  0  0  0  0  0  0  0  0  0
   44.3728    5.9103   -9.5700 O   0  0  0  0  0  0  0  0  0  0  0  0
   41.9173    2.8414   -7.0374 C   0  0  2  0  0  0  0  0  0  0  0  0
   42.7037    2.6271   -5.8904 O   0  0  0  0  0  0  0  0  0  0  0  0
   45.1546    0.3156   -3.6801 C   0  0  0  0  0  0  0  0  0  0  0  0
   45.3232   -0.6581   -2.6018 O   0  0  0  0  0  0  0  0  0  0  0  0
   40.9949   -4.2198   -2.1959 C   0  0  1  0  0  0  0  0  0  0  0  0
   41.9872   -3.0757   -2.1878 O   0  0  0  0  0  0  0  0  0  0  0  0
   43.5758    8.2084   -9.8515 C   0  0  0  0  0  0  0  0  0  0  0  0
   42.5844    7.8013  -10.6557 O   0  0  0  0  0  0  0  0  0  0  0  0
   41.0581    1.5657   -7.4331 C   0  0  1  0  0  0  0  0  0  0  0  0
   40.1019    1.3004   -6.4526 O   0  0  0  0  0  0  0  0  0  0  0  0
   40.2681    3.8451   -2.8142 C   0  0  0  0  0  0  0  0  0  0  0  0
   41.4900   -5.4997   -1.4410 C   0  0  0  0  0  0  0  0  0  0  0  0
   40.5772   -6.6013   -1.5495 N   0  0  0  0  0  0  0  0  0  0  0  0
   40.0949    4.6311   -1.5138 C   0  0  0  0  0  0  0  0  0  0  0  0
   41.4501    4.8964   -0.9933 N   0  0  0  0  0  0  0  0  0  0  0  0
   42.3063    5.9433   -1.7089 C   0  0  0  0  0  0  0  0  0  0  0  0
  1  2  1  1  0  0  0
  1  8  1  0  0  0  0
  1 33  1  0  0  0  0
  3  4  1  6  0  0  0
  3 10  1  0  0  0  0
  3 42  1  0  0  0  0
  5 11  1  0  0  0  0
  5 29  1  0  0  0  0
  5 35  1  6  0  0  0
  6 13  1  0  0  0  0
  6 39  1  0  0  0  0
  6 22  1  1  0  0  0
  7 15  1  0  0  0  0
  8  9  1  1  0  0  0
  8 17  1  0  0  0  0
 10 19  1  0  0  0  0
 11 12  1  1  0  0  0
 11 21  1  0  0  0  0
 12 44  1  0  0  0  0
 13 14  1  1  0  0  0
 13 23  1  0  0  0  0
 15 16  1  0  0  0  0
 17 18  1  6  0  0  0
 17 25  1  0  0  0  0
 19 20  1  6  0  0  0
 19 27  1  0  0  0  0
 21 22  1  1  0  0  0
 21 28  1  0  0  0  0
 23 24  1  6  0  0  0
 23 30  1  0  0  0  0
 25 26  1  1  0  0  0
 25 32  1  0  0  0  0
 27  2  1  1  0  0  0
 27 34  1  0  0  0  0
 28 29  1  0  0  0  0
 28 36  1  6  0  0  0
 30 31  1  1  0  0  0
 30 38  1  0  0  0  0
 32 33  1  0  0  0  0
 32 40  1  6  0  0  0
 34 35  1  1  0  0  0
 34 42  1  0  0  0  0
 36 37  1  0  0  0  0
 38 39  1  0  0  0  0
 38 45  1  1  0  0  0
 40 41  1  0  0  0  0
 42 43  1  1  0  0  0
 44 47  1  0  0  0  0
 45 46  1  0  0  0  0
 47 48  1  0  0  0  0
 48 49  1  0  0  0  0
 49  7  1  0  0  0  0
M  END
>  <CHROM.1>
-141.70669700,30.07884245,-61.59698230,-59.64530767,59.61450784,-175.13170306
25.19238389,-59.34713010,-61.93013603,173.67612819,179.48445761,67.37322822
55.40371132,73.10319733,-171.81907356,-66.81394741,42.50456521,2.33186318
-4.89674053,0.63397189,-1.19945992,-1.51490582

>  <Name>
2bee_lig

>  <RI>
0

>  <Rbt.Current_Directory>
/home/itssahil/PROJECTS/Mol_Feturizer/New_Systems/rnas/2bee

>  <Rbt.Executable>
rbdock ($Id: //depot/dev/client3/rdock/2013.1/src/exe/rbdock.cxx#4 $)

>  <Rbt.Library>
libRbt.so (2013.1, Build901 2013/11/27)

>  <Rbt.Parameter_File>
/export/apps/rDock/src/rDock_2013.1_src/data/scripts/dock_solv.prm

>  <Rbt.Receptor>
prm/pocket_docking_6.prm

>  <SCORE>
-14.1328

>  <SCORE.INTER>
-6.16845

>  <SCORE.INTER.CONST>
1

>  <SCORE.INTER.POLAR>
-0.930168

>  <SCORE.INTER.ROT>
16

>  <SCORE.INTER.SOLV>
12.1235

>  <SCORE.INTER.VDW>
-19.3196

>  <SCORE.INTER.norm>
-0.125887

>  <SCORE.INTRA>
-7.96562

>  <SCORE.INTRA.DIHEDRAL>
-22.7515

>  <SCORE.INTRA.DIHEDRAL.0>
36.0842

>  <SCORE.INTRA.POLAR>
0

>  <SCORE.INTRA.POLAR.0>
0

>  <SCORE.INTRA.REPUL>
0.00315631

>  <SCORE.INTRA.REPUL.0>
0

>  <SCORE.INTRA.SOLV>
0.297627

>  <SCORE.INTRA.SOLV.lig_0>
-126.444

>  <SCORE.INTRA.VDW>
3.24554

>  <SCORE.INTRA.VDW.0>
-7.40469

>  <SCORE.INTRA.norm>
-0.162564

>  <SCORE.RESTR>
0.00131277

>  <SCORE.RESTR.CAVITY>
0.00131277

>  <SCORE.RESTR.norm>
2.67913e-05

>  <SCORE.SYSTEM>
0

>  <SCORE.SYSTEM.CONST>
0

>  <SCORE.SYSTEM.DIHEDRAL>
0

>  <SCORE.SYSTEM.SOLV>
0

>  <SCORE.SYSTEM.norm>
0

>  <SCORE.heavy>
49

>  <SCORE.norm>
-0.288424

>  <RMSD>
7.870

$$$$
2bee_lig
 OpenBabel11021811423D
libRbt.so/2013.1/901 2013/11/27
 49 52  0  0  0  0  0  0  0  0999 V2000
   49.3620    2.3587   -6.0161 C   0  0  2  0  0  0  0  0  0  0  0  0
   48.3871    3.3893   -5.9187 O   0  0  0  0  0  0  0  0  0  0  0  0
   44.5095    4.4520   -7.7102 C   0  0  2  0  0  0  0  0  0  0  0  0
   43.2215    4.2981   -8.4397 N   0  0  0  0  0  0  0  0  0  0  0  0
   45.3689    2.9138   -3.3641 C   0  0  1  0  0  0  0  0  0  0  0  0
   41.8359    0.3202   -1.9121 C   0  0  1  0  0  0  0  0  0  0  0  0
   43.9585   10.0057   -1.5843 C   0  0  0  0  0  0  0  0  0  0  0  0
   50.5198    2.5991   -4.9717 C   0  0  2  0  0  0  0  0  0  0  0  0
   49.9631    2.7308   -3.6296 N   0  0  0  0  0  0  0  0  0  0  0  0
   45.7094    3.9778   -8.6500 C   0  0  0  0  0  0  0  0  0  0  0  0
   44.1108    2.9476   -2.5587 C   0  0  2  0  0  0  0  0  0  0  0  0
   44.1029    4.0220   -1.5507 O   0  0  0  0  0  0  0  0  0  0  0  0
   41.2748    1.5337   -0.9937 C   0  0  2  0  0  0  0  0  0  0  0  0
   41.8546    1.3835    0.3827 N   0  0  0  0  0  0  0  0  0  0  0  0
   44.3749   10.7223   -0.4381 C   0  0  0  0  0  0  0  0  0  0  0  0
   43.4657   10.9868    0.5837 N   0  0  0  0  0  0  0  0  0  0  0  0
   51.3470    3.8917   -5.3924 C   0  0  1  0  0  0  0  0  0  0  0  0
   52.3891    4.0973   -4.4497 O   0  0  0  0  0  0  0  0  0  0  0  0
   47.1433    4.1192   -7.8784 C   0  0  2  0  0  0  0  0  0  0  0  0
   48.2211    3.7070   -8.7120 N   0  0  0  0  0  0  0  0  0  0  0  0
   44.1168    1.4897   -2.1671 C   0  0  2  0  0  0  0  0  0  0  0  0
   43.2774    0.4428   -1.8597 O   0  0  0  0  0  0  0  0  0  0  0  0
   39.7078    1.4405   -0.9508 C   0  0  1  0  0  0  0  0  0  0  0  0
   39.2201    1.6114   -2.3272 O   0  0  0  0  0  0  0  0  0  0  0  0
   51.9127    3.6880   -6.8171 C   0  0  2  0  0  0  0  0  0  0  0  0
   52.6809    4.8809   -7.2562 O   0  0  0  0  0  0  0  0  0  0  0  0
   47.1299    3.2505   -6.5607 C   0  0  2  0  0  0  0  0  0  0  0  0
   45.6827    1.1809   -1.9670 C   0  0  2  0  0  0  0  0  0  0  0  0
   46.2389    1.8879   -2.9793 O   0  0  0  0  0  0  0  0  0  0  0  0
   39.2742   -0.0075   -0.3352 C   0  0  2  0  0  0  0  0  0  0  0  0
   39.7727   -0.1690    1.0493 O   0  0  0  0  0  0  0  0  0  0  0  0
   50.7555    3.4446   -7.8425 C   0  0  2  0  0  0  0  0  0  0  0  0
   50.0477    2.2793   -7.3472 O   0  0  0  0  0  0  0  0  0  0  0  0
   45.9368    3.7522   -5.6791 C   0  0  2  0  0  0  0  0  0  0  0  0
   46.0326    2.9365   -4.5365 O   0  0  0  0  0  0  0  0  0  0  0  0
   46.1705   -0.3042   -2.1462 C   0  0  0  0  0  0  0  0  0  0  0  0
   45.7816   -0.7870   -3.4710 O   0  0  0  0  0  0  0  0  0  0  0  0
   39.8740   -1.1833   -1.2279 C   0  0  1  0  0  0  0  0  0  0  0  0
   41.3759   -0.9912   -1.2599 O   0  0  0  0  0  0  0  0  0  0  0  0
   51.3854    3.2383   -9.1602 C   0  0  0  0  0  0  0  0  0  0  0  0
   52.1898    2.1672   -9.1323 O   0  0  0  0  0  0  0  0  0  0  0  0
   44.5544    3.5733   -6.4402 C   0  0  1  0  0  0  0  0  0  0  0  0
   43.5009    4.0316   -5.6488 O   0  0  0  0  0  0  0  0  0  0  0  0
   44.2912    5.4537   -1.8362 C   0  0  0  0  0  0  0  0  0  0  0  0
   39.4148   -2.5110   -0.5354 C   0  0  0  0  0  0  0  0  0  0  0  0
   37.9915   -2.6907   -0.5587 N   0  0  0  0  0  0  0  0  0  0  0  0
   44.2799    6.2359   -0.5220 C   0  0  0  0  0  0  0  0  0  0  0  0
   44.5727    7.6420   -0.8613 N   0  0  0  0  0  0  0  0  0  0  0  0
   43.4304    8.5090   -1.3950 C   0  0  0  0  0  0  0  0  0  0  0  0
  1  2  1  6  0  0  0
  1  8  1  0  0  0  0
  1 33  1  0  0  0  0
  3  4  1  6  0  0  0
  3 10  1  0  0  0  0
  3 42  1  0  0  0  0
  5 11  1  0  0  0  0
  5 29  1  0  0  0  0
  5 35  1  6  0  0  0
  6 13  1  0  0  0  0
  6 39  1  0  0  0  0
  6 22  1  1  0  0  0
  7 15  1  0  0  0  0
  8  9  1  1  0  0  0
  8 17  1  0  0  0  0
 10 19  1  0  0  0  0
 11 12  1  1  0  0  0
 11 21  1  0  0  0  0
 12 44  1  0  0  0  0
 13 14  1  1  0  0  0
 13 23  1  0  0  0  0
 15 16  1  0  0  0  0
 17 18  1  1  0  0  0
 17 25  1  0  0  0  0
 19 20  1  6  0  0  0
 19 27  1  0  0  0  0
 21 22  1  1  0  0  0
 21 28  1  0  0  0  0
 23 24  1  6  0  0  0
 23 30  1  0  0  0  0
 25 26  1  6  0  0  0
 25 32  1  0  0  0  0
 27  2  1  1  0  0  0
 27 34  1  0  0  0  0
 28 29  1  0  0  0  0
 28 36  1  6  0  0  0
 30 31  1  1  0  0  0
 30 38  1  0  0  0  0
 32 33  1  0  0  0  0
 32 40  1  6  0  0  0
 34 35  1  1  0  0  0
 34 42  1  0  0  0  0
 36 37  1  0  0  0  0
 38 39  1  0  0  0  0
 38 45  1  1  0  0  0
 40 41  1  0  0  0  0
 42 43  1  1  0  0  0
 44 47  1  0  0  0  0
 45 46  1  0  0  0  0
 47 48  1  0  0  0  0
 48 49  1  0  0  0  0
 49  7  1  0  0  0  0
M  END
>  <CHROM.1>
-167.33885401,46.45609594,-55.94766944,-61.67234553,56.57205956,-177.44498106
6.66528171,-102.41516366,56.15577048,60.96497331,174.74179431,64.91750276
175.84814081,80.42612524,175.78591051,-63.58262904,45.36619330,3.02077626
-3.77290496,-0.08149820,-0.61738739,-2.87985219

>  <Name>
2bee_lig

>  <RI>
0

>  <Rbt.Current_Directory>
/home/itssahil/PROJECTS/Mol_Feturizer/New_Systems/rnas/2bee

>  <Rbt.Executable>
rbdock ($Id: //depot/dev/client3/rdock/2013.1/src/exe/rbdock.cxx#4 $)

>  <Rbt.Library>
libRbt.so (2013.1, Build901 2013/11/27)

>  <Rbt.Parameter_File>
/export/apps/rDock/src/rDock_2013.1_src/data/scripts/dock_solv.prm

>  <Rbt.Receptor>
prm/pocket_docking_6.prm

>  <SCORE>
-17.354

>  <SCORE.INTER>
-8.76661

>  <SCORE.INTER.CONST>
1

>  <SCORE.INTER.POLAR>
-1.38068

>  <SCORE.INTER.ROT>
16

>  <SCORE.INTER.SOLV>
15.449

>  <SCORE.INTER.VDW>
-20.6585

>  <SCORE.INTER.norm>
-0.17891

>  <SCORE.INTRA>
-8.70975

>  <SCORE.INTRA.DIHEDRAL>
-24.1208

>  <SCORE.INTRA.DIHEDRAL.0>
36.0842

>  <SCORE.INTRA.POLAR>
0

>  <SCORE.INTRA.POLAR.0>
0

>  <SCORE.INTRA.REPUL>
0.00247172

>  <SCORE.INTRA.REPUL.0>
0

>  <SCORE.INTRA.SOLV>
1.79981

>  <SCORE.INTRA.SOLV.lig_0>
-126.444

>  <SCORE.INTRA.VDW>
2.4384

>  <SCORE.INTRA.VDW.0>
-7.40469

>  <SCORE.INTRA.norm>
-0.17775

>  <SCORE.RESTR>
0.122311

>  <SCORE.RESTR.CAVITY>
0.122311

>  <SCORE.RESTR.norm>
0.00249613

>  <SCORE.SYSTEM>
0

>  <SCORE.SYSTEM.CONST>
0

>  <SCORE.SYSTEM.DIHEDRAL>
0

>  <SCORE.SYSTEM.SOLV>
0

>  <SCORE.SYSTEM.norm>
0

>  <SCORE.heavy>
49

>  <SCORE.norm>
-0.354164

>  <RMSD>
7.883

$$$$
2bee_lig
 OpenBabel11021811423D
libRbt.so/2013.1/901 2013/11/27
 49 52  0  0  0  0  0  0  0  0999 V2000
   42.8376    7.4024   -0.2133 C   0  0  2  0  0  0  0  0  0  0  0  0
   41.9282    7.3702   -1.3060 O   0  0  0  0  0  0  0  0  0  0  0  0
   42.4626    7.1709   -5.6705 C   0  0  2  0  0  0  0  0  0  0  0  0
   42.9673    6.7148   -6.9942 N   0  0  0  0  0  0  0  0  0  0  0  0
   40.6917    4.2341   -2.6612 C   0  0  1  0  0  0  0  0  0  0  0  0
   44.1804    0.9668   -2.5640 C   0  0  1  0  0  0  0  0  0  0  0  0
   41.0272   -2.2108   -1.6347 C   0  0  0  0  0  0  0  0  0  0  0  0
   42.0610    7.2430    1.1508 C   0  0  2  0  0  0  0  0  0  0  0  0
   41.2463    6.0330    1.1239 N   0  0  0  0  0  0  0  0  0  0  0  0
   43.6984    7.5680   -4.7416 C   0  0  0  0  0  0  0  0  0  0  0  0
   41.1404    2.9016   -3.1668 C   0  0  2  0  0  0  0  0  0  0  0  0
   40.0958    1.8677   -3.0664 O   0  0  0  0  0  0  0  0  0  0  0  0
   45.7788    1.0595   -2.3042 C   0  0  2  0  0  0  0  0  0  0  0  0
   46.3512    2.0564   -3.2695 N   0  0  0  0  0  0  0  0  0  0  0  0
   41.4446   -2.8256   -2.8383 C   0  0  0  0  0  0  0  0  0  0  0  0
   40.8419   -4.0090   -3.2588 N   0  0  0  0  0  0  0  0  0  0  0  0
   41.1753    8.5401    1.4059 C   0  0  1  0  0  0  0  0  0  0  0  0
   40.4840    8.3896    2.6374 O   0  0  0  0  0  0  0  0  0  0  0  0
   43.1851    8.0627   -3.2708 C   0  0  2  0  0  0  0  0  0  0  0  0
   44.2801    8.4278   -2.4378 N   0  0  0  0  0  0  0  0  0  0  0  0
   42.4122    2.8285   -2.3568 C   0  0  2  0  0  0  0  0  0  0  0  0
   43.6898    2.3167   -2.3822 O   0  0  0  0  0  0  0  0  0  0  0  0
   46.4031   -0.3625   -2.5371 C   0  0  1  0  0  0  0  0  0  0  0  0
   45.8051   -1.2716   -1.5484 O   0  0  0  0  0  0  0  0  0  0  0  0
   42.0945    9.7834    1.4280 C   0  0  2  0  0  0  0  0  0  0  0  0
   41.3041   11.0213    1.6487 O   0  0  0  0  0  0  0  0  0  0  0  0
   42.3533    6.9131   -2.5797 C   0  0  2  0  0  0  0  0  0  0  0  0
   41.9916    3.5258   -0.9696 C   0  0  2  0  0  0  0  0  0  0  0  0
   41.2011    4.5399   -1.3945 O   0  0  0  0  0  0  0  0  0  0  0  0
   46.0856   -0.8430   -4.0642 C   0  0  2  0  0  0  0  0  0  0  0  0
   46.6902    0.0809   -5.0502 O   0  0  0  0  0  0  0  0  0  0  0  0
   42.8635    9.9272    0.0724 C   0  0  2  0  0  0  0  0  0  0  0  0
   43.5999    8.6867   -0.0803 O   0  0  0  0  0  0  0  0  0  0  0  0
   41.1596    6.5602   -3.5300 C   0  0  2  0  0  0  0  0  0  0  0  0
   40.4815    5.5562   -2.8146 O   0  0  0  0  0  0  0  0  0  0  0  0
   43.1263    4.1852   -0.1016 C   0  0  0  0  0  0  0  0  0  0  0  0
   44.1178    3.1704    0.2542 O   0  0  0  0  0  0  0  0  0  0  0  0
   44.5116   -0.8830   -4.3093 C   0  0  1  0  0  0  0  0  0  0  0  0
   43.9835    0.5055   -4.0149 O   0  0  0  0  0  0  0  0  0  0  0  0
   43.7272   11.1168    0.1925 C   0  0  0  0  0  0  0  0  0  0  0  0
   43.8033   11.7608   -0.9800 O   0  0  0  0  0  0  0  0  0  0  0  0
   41.6873    6.0524   -4.9393 C   0  0  1  0  0  0  0  0  0  0  0  0
   40.6154    5.7497   -5.7794 O   0  0  0  0  0  0  0  0  0  0  0  0
   39.3614    1.5209   -1.8387 C   0  0  0  0  0  0  0  0  0  0  0  0
   44.3308   -1.3323   -5.7987 C   0  0  0  0  0  0  0  0  0  0  0  0
   42.9565   -1.3672   -6.2095 N   0  0  0  0  0  0  0  0  0  0  0  0
   38.3547    0.4123   -2.1492 C   0  0  0  0  0  0  0  0  0  0  0  0
   39.1372   -0.7718   -2.5535 N   0  0  0  0  0  0  0  0  0  0  0  0
   39.4887   -1.8056   -1.4815 C   0  0  0  0  0  0  0  0  0  0  0  0
  1  2  1  6  0  0  0
  1  8  1  0  0  0  0
  1 33  1  0  0  0  0
  3  4  1  6  0  0  0
  3 10  1  0  0  0  0
  3 42  1  0  0  0  0
  5 11  1  0  0  0  0
  5 29  1  0  0  0  0
  5 35  1  6  0  0  0
  6 13  1  0  0  0  0
  6 39  1  0  0  0  0
  6 22  1  6  0  0  0
  7 15  1  0  0  0  0
  8  9  1  6  0  0  0
  8 17  1  0  0  0  0
 10 19  1  0  0  0  0
 11 12  1  1  0  0  0
 11 21  1  0  0  0  0
 12 44  1  0  0  0  0
 13 14  1  6  0  0  0
 13 23  1  0  0  0  0
 15 16  1  0  0  0  0
 17 18  1  1  0  0  0
 17 25  1  0  0  0  0
 19 20  1  1  0  0  0
 19 27  1  0  0  0  0
 21 22  1  1  0  0  0
 21 28  1  0  0  0  0
 23 24  1  1  0  0  0
 23 30  1  0  0  0  0
 25 26  1  6  0  0  0
 25 32  1  0  0  0  0
 27  2  1  1  0  0  0
 27 34  1  0  0  0  0
 28 29  1  0  0  0  0
 28 36  1  6  0  0  0
 30 31  1  6  0  0  0
 30 38  1  0  0  0  0
 32 33  1  0  0  0  0
 32 40  1  1  0  0  0
 34 35  1  1  0  0  0
 34 42  1  0  0  0  0
 36 37  1  0  0  0  0
 38 39  1  0  0  0  0
 38 45  1  6  0  0  0
 40 41  1  0  0  0  0
 42 43  1  6  0  0  0
 44 47  1  0  0  0  0
 45 46  1  0  0  0  0
 47 48  1  0  0  0  0
 48 49  1  0  0  0  0
 49  7  1  0  0  0  0
M  END
>  <CHROM.1>
-152.20973228,-34.09138218,-173.39306990,-57.53915952,-53.62569351,179.42061880
-55.34304549,-77.50669213,-59.40934724,-144.33269081,-80.56338262,-177.51073044
63.80442028,94.09793315,-134.71676090,-62.08108548,42.55169262,3.98801114
-2.20431028,1.64801490,0.71819957,0.23615354

>  <Name>
2bee_lig

>  <RI>
0

>  <Rbt.Current_Directory>
/home/itssahil/PROJECTS/Mol_Feturizer/New_Systems/rnas/2bee

>  <Rbt.Executable>
rbdock ($Id: //depot/dev/client3/rdock/2013.1/src/exe/rbdock.cxx#4 $)

>  <Rbt.Library>
libRbt.so (2013.1, Build901 2013/11/27)

>  <Rbt.Parameter_File>
/export/apps/rDock/src/rDock_2013.1_src/data/scripts/dock_solv.prm

>  <Rbt.Receptor>
prm/pocket_docking_5.prm

>  <SCORE>
-14.1902

>  <SCORE.INTER>
-8.77626

>  <SCORE.INTER.CONST>
1

>  <SCORE.INTER.POLAR>
-1.4972

>  <SCORE.INTER.ROT>
16

>  <SCORE.INTER.SOLV>
14.258

>  <SCORE.INTER.VDW>
-19.8795

>  <SCORE.INTER.norm>
-0.179107

>  <SCORE.INTRA>
-5.46368

>  <SCORE.INTRA.DIHEDRAL>
-15.9682

>  <SCORE.INTRA.DIHEDRAL.0>
36.0842

>  <SCORE.INTRA.POLAR>
0

>  <SCORE.INTRA.POLAR.0>
0

>  <SCORE.INTRA.REPUL>
0

>  <SCORE.INTRA.REPUL.0>
0

>  <SCORE.INTRA.SOLV>
4.17325

>  <SCORE.INTRA.SOLV.lig_0>
-126.444

>  <SCORE.INTRA.VDW>
0.433769

>  <SCORE.INTRA.VDW.0>
-7.40469

>  <SCORE.INTRA.norm>
-0.111504

>  <SCORE.RESTR>
0.0497183

>  <SCORE.RESTR.CAVITY>
0.0497183

>  <SCORE.RESTR.norm>
0.00101466

>  <SCORE.SYSTEM>
0

>  <SCORE.SYSTEM.CONST>
0

>  <SCORE.SYSTEM.DIHEDRAL>
0

>  <SCORE.SYSTEM.SOLV>
0

>  <SCORE.SYSTEM.norm>
0

>  <SCORE.heavy>
49

>  <SCORE.norm>
-0.289596

>  <RMSD>
7.885

$$$$
2bee_lig
 OpenBabel11021811423D
libRbt.so/2013.1/901 2013/11/27
 49 52  0  0  0  0  0  0  0  0999 V2000
   41.7476    1.5704   -9.4510 C   0  0  2  0  0  0  0  0  0  0  0  0
   40.4010    1.1807   -9.2123 O   0  0  0  0  0  0  0  0  0  0  0  0
   37.9070    1.4847   -5.5983 C   0  0  2  0  0  0  0  0  0  0  0  0
   37.4000    1.2082   -4.2266 N   0  0  0  0  0  0  0  0  0  0  0  0
   41.8608    3.7553   -6.4748 C   0  0  1  0  0  0  0  0  0  0  0  0
   41.1137    7.0248   -3.1307 C   0  0  1  0  0  0  0  0  0  0  0  0
   43.3958    8.1637  -10.3543 C   0  0  0  0  0  0  0  0  0  0  0  0
   42.0189    1.6829  -11.0011 C   0  0  2  0  0  0  0  0  0  0  0  0
   41.0487    2.5835  -11.6145 N   0  0  0  0  0  0  0  0  0  0  0  0
   37.9090    0.1309   -6.4440 C   0  0  0  0  0  0  0  0  0  0  0  0
   41.9782    5.1933   -6.0861 C   0  0  2  0  0  0  0  0  0  0  0  0
   43.2311    5.8134   -6.5510 O   0  0  0  0  0  0  0  0  0  0  0  0
   42.6495    7.3702   -2.7396 C   0  0  2  0  0  0  0  0  0  0  0  0
   43.0779    6.4263   -1.6539 N   0  0  0  0  0  0  0  0  0  0  0  0
   42.4822    7.0908  -10.2314 C   0  0  0  0  0  0  0  0  0  0  0  0
   42.9342    5.8372   -9.8252 N   0  0  0  0  0  0  0  0  0  0  0  0
   41.9637    0.2316  -11.6511 C   0  0  1  0  0  0  0  0  0  0  0  0
   42.2135    0.3423  -13.0447 O   0  0  0  0  0  0  0  0  0  0  0  0
   38.4731    0.3905   -7.9559 C   0  0  2  0  0  0  0  0  0  0  0  0
   38.4703   -0.8097   -8.7212 N   0  0  0  0  0  0  0  0  0  0  0  0
   41.6832    5.0004   -4.6182 C   0  0  2  0  0  0  0  0  0  0  0  0
   41.1296    5.6327   -3.5280 O   0  0  0  0  0  0  0  0  0  0  0  0
   42.7124    8.8578   -2.2405 C   0  0  1  0  0  0  0  0  0  0  0  0
   42.2949    9.7144   -3.3602 O   0  0  0  0  0  0  0  0  0  0  0  0
   43.0151   -0.6703  -10.9636 C   0  0  2  0  0  0  0  0  0  0  0  0
   42.9865   -2.0425  -11.5312 O   0  0  0  0  0  0  0  0  0  0  0  0
   39.9387    0.9724   -7.8876 C   0  0  2  0  0  0  0  0  0  0  0  0
   42.3871    3.5905   -4.2956 C   0  0  2  0  0  0  0  0  0  0  0  0
   42.1129    2.8782   -5.4143 O   0  0  0  0  0  0  0  0  0  0  0  0
   41.7272    9.0320   -0.9511 C   0  0  2  0  0  0  0  0  0  0  0  0
   42.1556    8.1633    0.1684 O   0  0  0  0  0  0  0  0  0  0  0  0
   42.7389   -0.7691   -9.4261 C   0  0  2  0  0  0  0  0  0  0  0  0
   42.7718    0.5991   -8.9453 O   0  0  0  0  0  0  0  0  0  0  0  0
   39.8815    2.2929   -7.0476 C   0  0  2  0  0  0  0  0  0  0  0  0
   41.2180    2.7322   -7.0711 O   0  0  0  0  0  0  0  0  0  0  0  0
   41.8314    2.7475   -3.0888 C   0  0  0  0  0  0  0  0  0  0  0  0
   42.6748    1.5691   -2.8899 O   0  0  0  0  0  0  0  0  0  0  0  0
   40.2333    8.6442   -1.3475 C   0  0  1  0  0  0  0  0  0  0  0  0
   40.2688    7.2210   -1.8641 O   0  0  0  0  0  0  0  0  0  0  0  0
   43.7967   -1.6229   -8.8537 C   0  0  0  0  0  0  0  0  0  0  0  0
   43.5647   -1.8476   -7.5533 O   0  0  0  0  0  0  0  0  0  0  0  0
   39.3610    2.0062   -5.5747 C   0  0  1  0  0  0  0  0  0  0  0  0
   39.3062    3.1905   -4.8394 O   0  0  0  0  0  0  0  0  0  0  0  0
   43.6324    7.2068   -6.2973 C   0  0  0  0  0  0  0  0  0  0  0  0
   39.3916    8.8277   -0.0394 C   0  0  0  0  0  0  0  0  0  0  0  0
   38.0419    8.3594   -0.1724 N   0  0  0  0  0  0  0  0  0  0  0  0
   45.0089    7.4558   -6.9156 C   0  0  0  0  0  0  0  0  0  0  0  0
   44.8282    7.4304   -8.3801 N   0  0  0  0  0  0  0  0  0  0  0  0
   44.1826    8.6457   -9.0492 C   0  0  0  0  0  0  0  0  0  0  0  0
  1  2  1  6  0  0  0
  1  8  1  0  0  0  0
  1 33  1  0  0  0  0
  3  4  1  1  0  0  0
  3 10  1  0  0  0  0
  3 42  1  0  0  0  0
  5 11  1  0  0  0  0
  5 29  1  0  0  0  0
  5 35  1  1  0  0  0
  6 13  1  0  0  0  0
  6 39  1  0  0  0  0
  6 22  1  1  0  0  0
  7 15  1  0  0  0  0
  8  9  1  6  0  0  0
  8 17  1  0  0  0  0
 10 19  1  0  0  0  0
 11 12  1  1  0  0  0
 11 21  1  0  0  0  0
 12 44  1  0  0  0  0
 13 14  1  1  0  0  0
 13 23  1  0  0  0  0
 15 16  1  0  0  0  0
 17 18  1  6  0  0  0
 17 25  1  0  0  0  0
 19 20  1  6  0  0  0
 19 27  1  0  0  0  0
 21 22  1  1  0  0  0
 21 28  1  0  0  0  0
 23 24  1  6  0  0  0
 23 30  1  0  0  0  0
 25 26  1  6  0  0  0
 25 32  1  0  0  0  0
 27  2  1  6  0  0  0
 27 34  1  0  0  0  0
 28 29  1  0  0  0  0
 28 36  1  1  0  0  0
 30 31  1  1  0  0  0
 30 38  1  0  0  0  0
 32 33  1  0  0  0  0
 32 40  1  1  0  0  0
 34 35  1  1  0  0  0
 34 42  1  0  0  0  0
 36 37  1  0  0  0  0
 38 39  1  0  0  0  0
 38 45  1  1  0  0  0
 40 41  1  0  0  0  0
 42 43  1  1  0  0  0
 44 47  1  0  0  0  0
 45 46  1  0  0  0  0
 47 48  1  0  0  0  0
 48 49  1  0  0  0  0
 49  7  1  0  0  0  0
M  END
>  <CHROM.1>
177.91500825,-47.26063151,-68.49550335,-61.53298158,-178.85022281,178.72372520
-34.50526439,-173.45878968,-175.03166408,-174.83476596,-175.19651243,-172.67491442
69.55999593,75.62403780,-150.03179882,51.06955482,41.59629721,3.91041420
-6.31963893,-1.52381633,0.98230446,0.74916559

>  <Name>
2bee_lig

>  <RI>
0

>  <Rbt.Current_Directory>
/home/itssahil/PROJECTS/Mol_Feturizer/New_Systems/rnas/2bee

>  <Rbt.Executable>
rbdock ($Id: //depot/dev/client3/rdock/2013.1/src/exe/rbdock.cxx#4 $)

>  <Rbt.Library>
libRbt.so (2013.1, Build901 2013/11/27)

>  <Rbt.Parameter_File>
/export/apps/rDock/src/rDock_2013.1_src/data/scripts/dock_solv.prm

>  <Rbt.Receptor>
prm/pocket_docking_8.prm

>  <SCORE>
-11.6571

>  <SCORE.INTER>
0.531858

>  <SCORE.INTER.CONST>
1

>  <SCORE.INTER.POLAR>
-0.327409

>  <SCORE.INTER.ROT>
16

>  <SCORE.INTER.SOLV>
14.2994

>  <SCORE.INTER.VDW>
-17.5872

>  <SCORE.INTER.norm>
0.0108543

>  <SCORE.INTRA>
-12.189

>  <SCORE.INTRA.DIHEDRAL>
-27.8818

>  <SCORE.INTRA.DIHEDRAL.0>
36.0842

>  <SCORE.INTRA.POLAR>
0

>  <SCORE.INTRA.POLAR.0>
0

>  <SCORE.INTRA.REPUL>
0.00527786

>  <SCORE.INTRA.REPUL.0>
0

>  <SCORE.INTRA.SOLV>
1.84814

>  <SCORE.INTRA.SOLV.lig_0>
-126.444

>  <SCORE.INTRA.VDW>
0.801444

>  <SCORE.INTRA.VDW.0>
-7.40469

>  <SCORE.INTRA.norm>
-0.248755

>  <SCORE.RESTR>
0

>  <SCORE.RESTR.CAVITY>
0

>  <SCORE.RESTR.norm>
0

>  <SCORE.SYSTEM>
0

>  <SCORE.SYSTEM.CONST>
0

>  <SCORE.SYSTEM.DIHEDRAL>
0

>  <SCORE.SYSTEM.SOLV>
0

>  <SCORE.SYSTEM.norm>
0

>  <SCORE.heavy>
49

>  <SCORE.norm>
-0.2379

>  <RMSD>
7.886

$$$$
2bee_lig
 OpenBabel11021811423D
libRbt.so/2013.1/901 2013/11/27
 49 52  0  0  0  0  0  0  0  0999 V2000
   46.4987    3.7867   -5.1350 C   0  0  2  0  0  0  0  0  0  0  0  0
   45.5809    2.8014   -5.5920 O   0  0  0  0  0  0  0  0  0  0  0  0
   42.5064    0.2964   -3.6824 C   0  0  2  0  0  0  0  0  0  0  0  0
   41.3812   -0.0917   -2.7890 N   0  0  0  0  0  0  0  0  0  0  0  0
   42.4839    4.0743   -6.3518 C   0  0  1  0  0  0  0  0  0  0  0  0
   44.2867    7.4387   -8.6898 C   0  0  1  0  0  0  0  0  0  0  0  0
   43.2054    6.3662   -1.3265 C   0  0  0  0  0  0  0  0  0  0  0  0
   47.1116    4.5736   -6.3574 C   0  0  2  0  0  0  0  0  0  0  0  0
   46.0430    5.1296   -7.1805 N   0  0  0  0  0  0  0  0  0  0  0  0
   43.6995    0.8888   -2.8030 C   0  0  0  0  0  0  0  0  0  0  0  0
   42.6381    5.5157   -5.9895 C   0  0  2  0  0  0  0  0  0  0  0  0
   41.7128    5.9426   -4.9255 O   0  0  0  0  0  0  0  0  0  0  0  0
   45.1481    7.8251   -7.3709 C   0  0  2  0  0  0  0  0  0  0  0  0
   44.4433    8.9473   -6.6658 N   0  0  0  0  0  0  0  0  0  0  0  0
   44.0939    6.5164   -0.2361 C   0  0  0  0  0  0  0  0  0  0  0  0
   44.0204    7.6516    0.5681 N   0  0  0  0  0  0  0  0  0  0  0  0
   48.0484    3.5971   -7.1946 C   0  0  1  0  0  0  0  0  0  0  0  0
   48.5989    4.3150   -8.2894 O   0  0  0  0  0  0  0  0  0  0  0  0
   44.9521    1.3401   -3.7510 C   0  0  2  0  0  0  0  0  0  0  0  0
   46.0254    1.8617   -2.9747 N   0  0  0  0  0  0  0  0  0  0  0  0
   42.5393    6.0588   -7.3945 C   0  0  2  0  0  0  0  0  0  0  0  0
   42.9714    7.0932   -8.1934 O   0  0  0  0  0  0  0  0  0  0  0  0
   46.5835    8.2692   -7.8277 C   0  0  1  0  0  0  0  0  0  0  0  0
   47.2088    7.1163   -8.4922 O   0  0  0  0  0  0  0  0  0  0  0  0
   49.1594    3.0470   -6.2703 C   0  0  2  0  0  0  0  0  0  0  0  0
   50.0497    2.1164   -7.0100 O   0  0  0  0  0  0  0  0  0  0  0  0
   44.4724    2.4269   -4.7901 C   0  0  2  0  0  0  0  0  0  0  0  0
   41.4575    5.0842   -8.0780 C   0  0  2  0  0  0  0  0  0  0  0  0
   41.7931    3.8817   -7.5531 O   0  0  0  0  0  0  0  0  0  0  0  0
   46.4533    9.5459   -8.8360 C   0  0  2  0  0  0  0  0  0  0  0  0
   45.8203   10.6990   -8.1571 O   0  0  0  0  0  0  0  0  0  0  0  0
   48.5390    2.2740   -5.0589 C   0  0  2  0  0  0  0  0  0  0  0  0
   47.6801    3.2356   -4.3941 O   0  0  0  0  0  0  0  0  0  0  0  0
   43.3035    1.7984   -5.6216 C   0  0  2  0  0  0  0  0  0  0  0  0
   42.9735    2.8303   -6.5196 O   0  0  0  0  0  0  0  0  0  0  0  0
   41.5040    4.9113   -9.6413 C   0  0  0  0  0  0  0  0  0  0  0  0
   42.8627    4.5567  -10.0508 O   0  0  0  0  0  0  0  0  0  0  0  0
   45.5662    9.1560  -10.1010 C   0  0  1  0  0  0  0  0  0  0  0  0
   44.2244    8.6926   -9.5734 O   0  0  0  0  0  0  0  0  0  0  0  0
   49.6632    1.8092   -4.2247 C   0  0  0  0  0  0  0  0  0  0  0  0
   50.3973    2.8490   -3.8063 O   0  0  0  0  0  0  0  0  0  0  0  0
   42.0883    1.3993   -4.6802 C   0  0  1  0  0  0  0  0  0  0  0  0
   41.0577    0.8329   -5.4308 O   0  0  0  0  0  0  0  0  0  0  0  0
   41.6538    7.2941   -4.3451 C   0  0  0  0  0  0  0  0  0  0  0  0
   45.4944   10.4518  -10.9779 C   0  0  0  0  0  0  0  0  0  0  0  0
   44.2116   11.0922  -10.9255 N   0  0  0  0  0  0  0  0  0  0  0  0
   40.5941    7.3239   -3.2428 C   0  0  0  0  0  0  0  0  0  0  0  0
   40.8792    6.1856   -2.3478 N   0  0  0  0  0  0  0  0  0  0  0  0
   41.6347    6.4620   -1.0462 C   0  0  0  0  0  0  0  0  0  0  0  0
  1  2  1  6  0  0  0
  1  8  1  0  0  0  0
  1 33  1  0  0  0  0
  3  4  1  1  0  0  0
  3 10  1  0  0  0  0
  3 42  1  0  0  0  0
  5 11  1  0  0  0  0
  5 29  1  0  0  0  0
  5 35  1  6  0  0  0
  6 13  1  0  0  0  0
  6 39  1  0  0  0  0
  6 22  1  1  0  0  0
  7 15  1  0  0  0  0
  8  9  1  6  0  0  0
  8 17  1  0  0  0  0
 10 19  1  0  0  0  0
 11 12  1  1  0  0  0
 11 21  1  0  0  0  0
 12 44  1  0  0  0  0
 13 14  1  6  0  0  0
 13 23  1  0  0  0  0
 15 16  1  0  0  0  0
 17 18  1  6  0  0  0
 17 25  1  0  0  0  0
 19 20  1  1  0  0  0
 19 27  1  0  0  0  0
 21 22  1  1  0  0  0
 21 28  1  0  0  0  0
 23 24  1  6  0  0  0
 23 30  1  0  0  0  0
 25 26  1  6  0  0  0
 25 32  1  0  0  0  0
 27  2  1  6  0  0  0
 27 34  1  0  0  0  0
 28 29  1  0  0  0  0
 28 36  1  6  0  0  0
 30 31  1  1  0  0  0
 30 38  1  0  0  0  0
 32 33  1  0  0  0  0
 32 40  1  1  0  0  0
 34 35  1  6  0  0  0
 34 42  1  0  0  0  0
 36 37  1  0  0  0  0
 38 39  1  0  0  0  0
 38 45  1  6  0  0  0
 40 41  1  0  0  0  0
 42 43  1  6  0  0  0
 44 47  1  0  0  0  0
 45 46  1  0  0  0  0
 47 48  1  0  0  0  0
 48 49  1  0  0  0  0
 49  7  1  0  0  0  0
M  END
>  <CHROM.1>
-149.57867198,77.39443380,-65.54182141,-54.85174062,178.68116381,-178.31485546
67.08840267,-83.63648102,51.85062946,59.07834219,-63.73816199,-106.71950203
50.76076005,99.44274618,-88.37030064,-176.58349889,44.61331162,5.04785380
-5.97275673,-1.64291206,0.39351774,-0.69539915

>  <Name>
2bee_lig

>  <RI>
2.18182e+07

>  <Rbt.Current_Directory>
/home/itssahil/PROJECTS/Mol_Feturizer/New_Systems/rnas/2bee

>  <Rbt.Executable>
rbdock ($Id: //depot/dev/client3/rdock/2013.1/src/exe/rbdock.cxx#4 $)

>  <Rbt.Library>
libRbt.so (2013.1, Build901 2013/11/27)

>  <Rbt.Parameter_File>
/export/apps/rDock/src/rDock_2013.1_src/data/scripts/dock_solv.prm

>  <Rbt.Receptor>
prm/pocket_docking_3.prm

>  <SCORE>
-6.034

>  <SCORE.INTER>
-2.51399

>  <SCORE.INTER.CONST>
1

>  <SCORE.INTER.POLAR>
-0.66679

>  <SCORE.INTER.ROT>
16

>  <SCORE.INTER.SOLV>
20.5102

>  <SCORE.INTER.VDW>
-20.5568

>  <SCORE.INTER.norm>
-0.0513058

>  <SCORE.INTRA>
-3.62694

>  <SCORE.INTRA.DIHEDRAL>
-16.0763

>  <SCORE.INTRA.DIHEDRAL.0>
36.0842

>  <SCORE.INTRA.POLAR>
0

>  <SCORE.INTRA.POLAR.0>
0

>  <SCORE.INTRA.REPUL>
0

>  <SCORE.INTRA.REPUL.0>
0

>  <SCORE.INTRA.SOLV>
7.45847

>  <SCORE.INTRA.SOLV.lig_0>
-126.444

>  <SCORE.INTRA.VDW>
0.681987

>  <SCORE.INTRA.VDW.0>
-7.40469

>  <SCORE.INTRA.norm>
-0.0740191

>  <SCORE.RESTR>
0.106918

>  <SCORE.RESTR.CAVITY>
0.106918

>  <SCORE.RESTR.norm>
0.00218199

>  <SCORE.SYSTEM>
0

>  <SCORE.SYSTEM.CONST>
0

>  <SCORE.SYSTEM.DIHEDRAL>
0

>  <SCORE.SYSTEM.SOLV>
0

>  <SCORE.SYSTEM.norm>
0

>  <SCORE.heavy>
49

>  <SCORE.norm>
-0.123143

>  <RMSD>
7.900

$$$$
2bee_lig
 OpenBabel11021811423D
libRbt.so/2013.1/901 2013/11/27
 49 52  0  0  0  0  0  0  0  0999 V2000
   41.9398    7.6290   -1.1286 C   0  0  2  0  0  0  0  0  0  0  0  0
   41.9091    7.0524   -2.4281 O   0  0  0  0  0  0  0  0  0  0  0  0
   44.7064    5.0424   -5.1684 C   0  0  2  0  0  0  0  0  0  0  0  0
   45.8809    4.2541   -5.6310 N   0  0  0  0  0  0  0  0  0  0  0  0
   41.2195    3.0728   -2.9409 C   0  0  1  0  0  0  0  0  0  0  0  0
   37.1515    0.5327   -3.3436 C   0  0  1  0  0  0  0  0  0  0  0  0
   43.8861   -2.6698   -6.4636 C   0  0  0  0  0  0  0  0  0  0  0  0
   41.3649    6.6150   -0.0654 C   0  0  2  0  0  0  0  0  0  0  0  0
   42.0842    5.3480   -0.1429 N   0  0  0  0  0  0  0  0  0  0  0  0
   45.2107    6.2778   -4.2924 C   0  0  0  0  0  0  0  0  0  0  0  0
   40.5323    1.9125   -2.2974 C   0  0  2  0  0  0  0  0  0  0  0  0
   41.3650    0.6976   -2.2654 O   0  0  0  0  0  0  0  0  0  0  0  0
   35.6451    0.8598   -2.8387 C   0  0  2  0  0  0  0  0  0  0  0  0
   35.7076    1.2095   -1.3803 N   0  0  0  0  0  0  0  0  0  0  0  0
   43.4408   -3.3057   -7.6460 C   0  0  0  0  0  0  0  0  0  0  0  0
   44.3342   -3.5339   -8.6903 N   0  0  0  0  0  0  0  0  0  0  0  0
   39.8056    6.4196   -0.3150 C   0  0  1  0  0  0  0  0  0  0  0  0
   39.2963    5.5095    0.6490 O   0  0  0  0  0  0  0  0  0  0  0  0
   43.9467    7.1627   -3.7531 C   0  0  2  0  0  0  0  0  0  0  0  0
   44.3869    8.2726   -2.9780 N   0  0  0  0  0  0  0  0  0  0  0  0
   39.2653    1.9869   -3.1147 C   0  0  2  0  0  0  0  0  0  0  0  0
   37.9146    1.7281   -3.0530 O   0  0  0  0  0  0  0  0  0  0  0  0
   34.7567   -0.4147   -3.0680 C   0  0  1  0  0  0  0  0  0  0  0  0
   34.7344   -0.6798   -4.5140 O   0  0  0  0  0  0  0  0  0  0  0  0
   39.1019    7.7930   -0.2151 C   0  0  2  0  0  0  0  0  0  0  0  0
   37.6428    7.6581   -0.4577 O   0  0  0  0  0  0  0  0  0  0  0  0
   42.9901    6.2558   -2.8851 C   0  0  2  0  0  0  0  0  0  0  0  0
   39.8017    2.4335   -4.5639 C   0  0  2  0  0  0  0  0  0  0  0  0
   40.7699    3.3239   -4.2417 O   0  0  0  0  0  0  0  0  0  0  0  0
   35.3929   -1.6671   -2.2373 C   0  0  2  0  0  0  0  0  0  0  0  0
   35.4124   -1.3877   -0.7837 O   0  0  0  0  0  0  0  0  0  0  0  0
   39.6847    8.7915   -1.2702 C   0  0  2  0  0  0  0  0  0  0  0  0
   41.1041    8.8651   -0.9802 O   0  0  0  0  0  0  0  0  0  0  0  0
   42.5284    5.0617   -3.7870 C   0  0  2  0  0  0  0  0  0  0  0  0
   41.6738    4.3413   -2.9322 O   0  0  0  0  0  0  0  0  0  0  0  0
   38.8058    3.1909   -5.5180 C   0  0  0  0  0  0  0  0  0  0  0  0
   37.7931    2.2549   -6.0055 O   0  0  0  0  0  0  0  0  0  0  0  0
   36.8871   -1.9406   -2.7186 C   0  0  1  0  0  0  0  0  0  0  0  0
   37.6596   -0.6543   -2.5131 O   0  0  0  0  0  0  0  0  0  0  0  0
   38.9763   10.0722   -1.0868 C   0  0  0  0  0  0  0  0  0  0  0  0
   39.3802   10.9658   -1.9998 O   0  0  0  0  0  0  0  0  0  0  0  0
   43.7728    4.2011   -4.2697 C   0  0  1  0  0  0  0  0  0  0  0  0
   43.3498    3.1463   -5.0789 O   0  0  0  0  0  0  0  0  0  0  0  0
   42.0381    0.1001   -3.4303 C   0  0  0  0  0  0  0  0  0  0  0  0
   37.3961   -3.1374   -1.8458 C   0  0  0  0  0  0  0  0  0  0  0  0
   38.7483   -3.5124   -2.1450 N   0  0  0  0  0  0  0  0  0  0  0  0
   42.7027   -1.2119   -3.0108 C   0  0  0  0  0  0  0  0  0  0  0  0
   43.5212   -1.6587   -4.1546 N   0  0  0  0  0  0  0  0  0  0  0  0
   42.8146   -2.3536   -5.3205 C   0  0  0  0  0  0  0  0  0  0  0  0
  1  2  1  6  0  0  0
  1  8  1  0  0  0  0
  1 33  1  0  0  0  0
  3  4  1  1  0  0  0
  3 10  1  0  0  0  0
  3 42  1  0  0  0  0
  5 11  1  0  0  0  0
  5 29  1  0  0  0  0
  5 35  1  1  0  0  0
  6 13  1  0  0  0  0
  6 39  1  0  0  0  0
  6 22  1  1  0  0  0
  7 15  1  0  0  0  0
  8  9  1  6  0  0  0
  8 17  1  0  0  0  0
 10 19  1  0  0  0  0
 11 12  1  6  0  0  0
 11 21  1  0  0  0  0
 12 44  1  0  0  0  0
 13 14  1  1  0  0  0
 13 23  1  0  0  0  0
 15 16  1  0  0  0  0
 17 18  1  1  0  0  0
 17 25  1  0  0  0  0
 19 20  1  1  0  0  0
 19 27  1  0  0  0  0
 21 22  1  6  0  0  0
 21 28  1  0  0  0  0
 23 24  1  6  0  0  0
 23 30  1  0  0  0  0
 25 26  1  6  0  0  0
 25 32  1  0  0  0  0
 27  2  1  6  0  0  0
 27 34  1  0  0  0  0
 28 29  1  0  0  0  0
 28 36  1  6  0  0  0
 30 31  1  1  0  0  0
 30 38  1  0  0  0  0
 32 33  1  0  0  0  0
 32 40  1  1  0  0  0
 34 35  1  1  0  0  0
 34 42  1  0  0  0  0
 36 37  1  0  0  0  0
 38 39  1  0  0  0  0
 38 45  1  1  0  0  0
 40 41  1  0  0  0  0
 42 43  1  6  0  0  0
 44 47  1  0  0  0  0
 45 46  1  0  0  0  0
 47 48  1  0  0  0  0
 48 49  1  0  0  0  0
 49  7  1  0  0  0  0
M  END
>  <CHROM.1>
-87.04028458,168.30105980,171.44604903,176.70703816,-52.29813616,-175.22154782
-88.28751523,-96.77062669,-71.52365508,-177.20780738,-160.29856005,-179.50371292
-171.80598535,-79.34593517,176.94348778,-179.48185238,40.38252503,2.90700397
-3.06171895,1.31982309,0.40655858,0.32345204

>  <Name>
2bee_lig

>  <RI>
0

>  <Rbt.Current_Directory>
/home/itssahil/PROJECTS/Mol_Feturizer/New_Systems/rnas/2bee

>  <Rbt.Executable>
rbdock ($Id: //depot/dev/client3/rdock/2013.1/src/exe/rbdock.cxx#4 $)

>  <Rbt.Library>
libRbt.so (2013.1, Build901 2013/11/27)

>  <Rbt.Parameter_File>
/export/apps/rDock/src/rDock_2013.1_src/data/scripts/dock_solv.prm

>  <Rbt.Receptor>
prm/pocket_docking_6.prm

>  <SCORE>
-6.88233

>  <SCORE.INTER>
0.374493

>  <SCORE.INTER.CONST>
1

>  <SCORE.INTER.POLAR>
-1.20956

>  <SCORE.INTER.ROT>
16

>  <SCORE.INTER.SOLV>
15.6352

>  <SCORE.INTER.VDW>
-15.1968

>  <SCORE.INTER.norm>
0.00764272

>  <SCORE.INTRA>
-7.25682

>  <SCORE.INTRA.DIHEDRAL>
-19.1677

>  <SCORE.INTRA.DIHEDRAL.0>
36.0842

>  <SCORE.INTRA.POLAR>
0

>  <SCORE.INTRA.POLAR.0>
0

>  <SCORE.INTRA.REPUL>
0

>  <SCORE.INTRA.REPUL.0>
0

>  <SCORE.INTRA.SOLV>
-1.83484

>  <SCORE.INTRA.SOLV.lig_0>
-126.444

>  <SCORE.INTRA.VDW>
3.24444

>  <SCORE.INTRA.VDW.0>
-7.40469

>  <SCORE.INTRA.norm>
-0.148098

>  <SCORE.RESTR>
0

>  <SCORE.RESTR.CAVITY>
0

>  <SCORE.RESTR.norm>
0

>  <SCORE.SYSTEM>
0

>  <SCORE.SYSTEM.CONST>
0

>  <SCORE.SYSTEM.DIHEDRAL>
0

>  <SCORE.SYSTEM.SOLV>
0

>  <SCORE.SYSTEM.norm>
0

>  <SCORE.heavy>
49

>  <SCORE.norm>
-0.140456

>  <RMSD>
7.943

$$$$
2bee_lig
 OpenBabel11021811423D
libRbt.so/2013.1/901 2013/11/27
 49 52  0  0  0  0  0  0  0  0999 V2000
   41.5020    3.9475   -7.0492 C   0  0  2  0  0  0  0  0  0  0  0  0
   42.7379    4.6493   -7.0963 O   0  0  0  0  0  0  0  0  0  0  0  0
   44.1255    8.1162   -9.4264 C   0  0  2  0  0  0  0  0  0  0  0  0
   44.1391    9.4784  -10.0254 N   0  0  0  0  0  0  0  0  0  0  0  0
   44.6906    5.9496   -4.9224 C   0  0  1  0  0  0  0  0  0  0  0  0
   47.2738    1.9751   -4.4990 C   0  0  1  0  0  0  0  0  0  0  0  0
   41.5410    7.2210    1.6065 C   0  0  0  0  0  0  0  0  0  0  0  0
   41.5604    2.8073   -5.9604 C   0  0  2  0  0  0  0  0  0  0  0  0
   41.9459    3.3678   -4.6697 N   0  0  0  0  0  0  0  0  0  0  0  0
   42.7840    7.3641   -9.8538 C   0  0  0  0  0  0  0  0  0  0  0  0
   44.8704    4.6558   -4.1969 C   0  0  2  0  0  0  0  0  0  0  0  0
   44.6984    4.7858   -2.7396 O   0  0  0  0  0  0  0  0  0  0  0  0
   48.1765    1.1274   -5.5465 C   0  0  2  0  0  0  0  0  0  0  0  0
   47.3881    0.9601   -6.8128 N   0  0  0  0  0  0  0  0  0  0  0  0
   40.4473    6.6469    0.9173 C   0  0  0  0  0  0  0  0  0  0  0  0
   40.2211    6.9709   -0.4186 N   0  0  0  0  0  0  0  0  0  0  0  0
   42.5758    1.6782   -6.4357 C   0  0  1  0  0  0  0  0  0  0  0  0
   42.6181    0.6546   -5.4521 O   0  0  0  0  0  0  0  0  0  0  0  0
   42.7248    5.8658   -9.2034 C   0  0  2  0  0  0  0  0  0  0  0  0
   41.5357    5.1833   -9.5863 N   0  0  0  0  0  0  0  0  0  0  0  0
   46.2015    4.2963   -4.8116 C   0  0  2  0  0  0  0  0  0  0  0  0
   46.9739    3.2176   -5.1788 O   0  0  0  0  0  0  0  0  0  0  0  0
   48.5023   -0.2686   -4.9051 C   0  0  1  0  0  0  0  0  0  0  0  0
   49.2842   -0.0193   -3.6852 O   0  0  0  0  0  0  0  0  0  0  0  0
   42.1107    1.1230   -7.8020 C   0  0  2  0  0  0  0  0  0  0  0  0
   43.0419    0.0742   -8.2909 O   0  0  0  0  0  0  0  0  0  0  0  0
   42.7974    5.9622   -7.6297 C   0  0  2  0  0  0  0  0  0  0  0  0
   46.9271    5.7251   -4.9511 C   0  0  2  0  0  0  0  0  0  0  0  0
   45.9005    6.5249   -5.3257 O   0  0  0  0  0  0  0  0  0  0  0  0
   47.1053   -1.0451   -4.5750 C   0  0  2  0  0  0  0  0  0  0  0  0
   46.3258   -1.2881   -5.8098 O   0  0  0  0  0  0  0  0  0  0  0  0
   42.0512    2.2640   -8.8717 C   0  0  2  0  0  0  0  0  0  0  0  0
   41.1377    3.2497   -8.3255 O   0  0  0  0  0  0  0  0  0  0  0  0
   44.1252    6.7084   -7.2653 C   0  0  2  0  0  0  0  0  0  0  0  0
   44.0987    6.7170   -5.8585 O   0  0  0  0  0  0  0  0  0  0  0  0
   48.0361    5.8846   -6.0559 C   0  0  0  0  0  0  0  0  0  0  0  0
   49.1854    5.0463   -5.7154 O   0  0  0  0  0  0  0  0  0  0  0  0
   46.2163   -0.1733   -3.5805 C   0  0  1  0  0  0  0  0  0  0  0  0
   45.9926    1.1674   -4.2483 O   0  0  0  0  0  0  0  0  0  0  0  0
   41.5786    1.6514  -10.1274 C   0  0  0  0  0  0  0  0  0  0  0  0
   41.5999    2.5479  -11.1230 O   0  0  0  0  0  0  0  0  0  0  0  0
   44.1415    8.1716   -7.8825 C   0  0  1  0  0  0  0  0  0  0  0  0
   45.3322    8.8226   -7.5587 O   0  0  0  0  0  0  0  0  0  0  0  0
   43.6834    5.6209   -2.0769 C   0  0  0  0  0  0  0  0  0  0  0  0
   44.9058   -1.0009   -3.3551 C   0  0  0  0  0  0  0  0  0  0  0  0
   43.9012   -0.2725   -2.6349 N   0  0  0  0  0  0  0  0  0  0  0  0
   44.3529    6.4585   -0.9864 C   0  0  0  0  0  0  0  0  0  0  0  0
   43.2723    7.1536   -0.2603 N   0  0  0  0  0  0  0  0  0  0  0  0
   43.0189    6.7687    1.1988 C   0  0  0  0  0  0  0  0  0  0  0  0
  1  2  1  6  0  0  0
  1  8  1  0  0  0  0
  1 33  1  0  0  0  0
  3  4  1  6  0  0  0
  3 10  1  0  0  0  0
  3 42  1  0  0  0  0
  5 11  1  0  0  0  0
  5 29  1  0  0  0  0
  5 35  1  6  0  0  0
  6 13  1  0  0  0  0
  6 39  1  0  0  0  0
  6 22  1  6  0  0  0
  7 15  1  0  0  0  0
  8  9  1  1  0  0  0
  8 17  1  0  0  0  0
 10 19  1  0  0  0  0
 11 12  1  1  0  0  0
 11 21  1  0  0  0  0
 12 44  1  0  0  0  0
 13 14  1  6  0  0  0
 13 23  1  0  0  0  0
 15 16  1  0  0  0  0
 17 18  1  1  0  0  0
 17 25  1  0  0  0  0
 19 20  1  1  0  0  0
 19 27  1  0  0  0  0
 21 22  1  1  0  0  0
 21 28  1  0  0  0  0
 23 24  1  1  0  0  0
 23 30  1  0  0  0  0
 25 26  1  6  0  0  0
 25 32  1  0  0  0  0
 27  2  1  1  0  0  0
 27 34  1  0  0  0  0
 28 29  1  0  0  0  0
 28 36  1  6  0  0  0
 30 31  1  6  0  0  0
 30 38  1  0  0  0  0
 32 33  1  0  0  0  0
 32 40  1  6  0  0  0
 34 35  1  1  0  0  0
 34 42  1  0  0  0  0
 36 37  1  0  0  0  0
 38 39  1  0  0  0  0
 38 45  1  6  0  0  0
 40 41  1  0  0  0  0
 42 43  1  6  0  0  0
 44 47  1  0  0  0  0
 45 46  1  0  0  0  0
 47 48  1  0  0  0  0
 48 49  1  0  0  0  0
 49  7  1  0  0  0  0
M  END
>  <CHROM.1>
-158.22979718,-68.53534688,176.77887116,-69.60369653,39.58707450,-131.62126627
-44.29452662,-76.05695428,-66.62157363,-175.20947359,99.10522842,-171.40571826
-173.69722331,113.28074170,-159.77033214,62.09894439,44.28923423,3.95184917
-5.49623300,2.61571702,-1.10341765,1.22465126

>  <Name>
2bee_lig

>  <RI>
0

>  <Rbt.Current_Directory>
/home/itssahil/PROJECTS/Mol_Feturizer/New_Systems/rnas/2bee

>  <Rbt.Executable>
rbdock ($Id: //depot/dev/client3/rdock/2013.1/src/exe/rbdock.cxx#4 $)

>  <Rbt.Library>
libRbt.so (2013.1, Build901 2013/11/27)

>  <Rbt.Parameter_File>
/export/apps/rDock/src/rDock_2013.1_src/data/scripts/dock_solv.prm

>  <Rbt.Receptor>
prm/pocket_docking_6.prm

>  <SCORE>
-12.476

>  <SCORE.INTER>
-12.103

>  <SCORE.INTER.CONST>
1

>  <SCORE.INTER.POLAR>
-1.56782

>  <SCORE.INTER.ROT>
16

>  <SCORE.INTER.SOLV>
14.0591

>  <SCORE.INTER.VDW>
-21.7956

>  <SCORE.INTER.norm>
-0.246999

>  <SCORE.INTRA>
-0.372984

>  <SCORE.INTRA.DIHEDRAL>
-10.7728

>  <SCORE.INTRA.DIHEDRAL.0>
36.0842

>  <SCORE.INTRA.POLAR>
0

>  <SCORE.INTRA.POLAR.0>
0

>  <SCORE.INTRA.REPUL>
0.00119537

>  <SCORE.INTRA.REPUL.0>
0

>  <SCORE.INTRA.SOLV>
5.51059

>  <SCORE.INTRA.SOLV.lig_0>
-126.444

>  <SCORE.INTRA.VDW>
2.25213

>  <SCORE.INTRA.VDW.0>
-7.40469

>  <SCORE.INTRA.norm>
-0.00761192

>  <SCORE.RESTR>
0

>  <SCORE.RESTR.CAVITY>
0

>  <SCORE.RESTR.norm>
0

>  <SCORE.SYSTEM>
0

>  <SCORE.SYSTEM.CONST>
0

>  <SCORE.SYSTEM.DIHEDRAL>
0

>  <SCORE.SYSTEM.SOLV>
0

>  <SCORE.SYSTEM.norm>
0

>  <SCORE.heavy>
49

>  <SCORE.norm>
-0.254611

>  <RMSD>
7.944

$$$$
2bee_lig
 OpenBabel11021811423D
libRbt.so/2013.1/901 2013/11/27
 49 52  0  0  0  0  0  0  0  0999 V2000
   43.0564   11.4556  -12.5387 C   0  0  2  0  0  0  0  0  0  0  0  0
   44.3744   10.9598  -12.7365 O   0  0  0  0  0  0  0  0  0  0  0  0
   48.5305   11.9413  -11.6696 C   0  0  2  0  0  0  0  0  0  0  0  0
   49.6783   12.6445  -11.0348 N   0  0  0  0  0  0  0  0  0  0  0  0
   45.6076    9.0579   -9.4385 C   0  0  1  0  0  0  0  0  0  0  0  0
   43.1686    6.9099   -5.8897 C   0  0  1  0  0  0  0  0  0  0  0  0
   50.6759    4.3612   -7.4579 C   0  0  0  0  0  0  0  0  0  0  0  0
   42.3349   11.6627  -13.9263 C   0  0  2  0  0  0  0  0  0  0  0  0
   42.3672   10.4240  -14.6965 N   0  0  0  0  0  0  0  0  0  0  0  0
   47.6593   12.9918  -12.4975 C   0  0  0  0  0  0  0  0  0  0  0  0
   45.7865    8.6223   -8.0205 C   0  0  2  0  0  0  0  0  0  0  0  0
   46.9532    7.7425   -7.8328 O   0  0  0  0  0  0  0  0  0  0  0  0
   42.8365    7.6644   -4.4927 C   0  0  2  0  0  0  0  0  0  0  0  0
   44.0024    8.5455   -4.1499 N   0  0  0  0  0  0  0  0  0  0  0  0
   51.4099    5.5361   -7.1720 C   0  0  0  0  0  0  0  0  0  0  0  0
   52.2245    5.5884   -6.0432 N   0  0  0  0  0  0  0  0  0  0  0  0
   43.0349   12.8580  -14.7095 C   0  0  1  0  0  0  0  0  0  0  0  0
   42.3761   13.0399  -15.9544 O   0  0  0  0  0  0  0  0  0  0  0  0
   46.3785   12.2591  -13.2006 C   0  0  2  0  0  0  0  0  0  0  0  0
   45.6000   13.1866  -13.9490 N   0  0  0  0  0  0  0  0  0  0  0  0
   44.3756    8.1274   -7.8121 C   0  0  2  0  0  0  0  0  0  0  0  0
   43.4097    7.9717   -6.8438 O   0  0  0  0  0  0  0  0  0  0  0  0
   42.6148    6.5771   -3.3815 C   0  0  1  0  0  0  0  0  0  0  0  0
   41.4530    5.7703   -3.7825 O   0  0  0  0  0  0  0  0  0  0  0  0
   42.9634   14.1386  -13.8456 C   0  0  2  0  0  0  0  0  0  0  0  0
   43.6209   15.2783  -14.5346 O   0  0  0  0  0  0  0  0  0  0  0  0
   45.4778   11.5803  -12.0965 C   0  0  2  0  0  0  0  0  0  0  0  0
   44.0055    7.4931   -9.2433 C   0  0  2  0  0  0  0  0  0  0  0  0
   44.5797    8.3740  -10.0967 O   0  0  0  0  0  0  0  0  0  0  0  0
   43.9620    5.6657   -3.2480 C   0  0  2  0  0  0  0  0  0  0  0  0
   45.1250    6.4889   -2.8465 O   0  0  0  0  0  0  0  0  0  0  0  0
   43.6770   13.9188  -12.4701 C   0  0  2  0  0  0  0  0  0  0  0  0
   42.9933   12.7927  -11.8628 O   0  0  0  0  0  0  0  0  0  0  0  0
   46.3781   10.5654  -11.3142 C   0  0  2  0  0  0  0  0  0  0  0  0
   45.4804   10.0090  -10.3844 O   0  0  0  0  0  0  0  0  0  0  0  0
   42.4863    7.4159   -9.6454 C   0  0  0  0  0  0  0  0  0  0  0  0
   42.3725    6.9548  -11.0288 O   0  0  0  0  0  0  0  0  0  0  0  0
   44.2933    4.9710   -4.6433 C   0  0  1  0  0  0  0  0  0  0  0  0
   44.4400    6.0795   -5.6646 O   0  0  0  0  0  0  0  0  0  0  0  0
   43.5391   15.1748  -11.7090 C   0  0  0  0  0  0  0  0  0  0  0  0
   42.2484   15.4291  -11.4546 O   0  0  0  0  0  0  0  0  0  0  0  0
   47.5953   11.3084  -10.6152 C   0  0  1  0  0  0  0  0  0  0  0  0
   48.3943   10.3933   -9.9293 O   0  0  0  0  0  0  0  0  0  0  0  0
   47.1160    6.7724   -6.7377 C   0  0  0  0  0  0  0  0  0  0  0  0
   45.6039    4.1484   -4.4011 C   0  0  0  0  0  0  0  0  0  0  0  0
   46.7782    4.9709   -4.3449 N   0  0  0  0  0  0  0  0  0  0  0  0
   48.4929    6.1155   -6.8463 C   0  0  0  0  0  0  0  0  0  0  0  0
   48.6497    5.6861   -8.2496 N   0  0  0  0  0  0  0  0  0  0  0  0
   49.4970    4.4441   -8.5342 C   0  0  0  0  0  0  0  0  0  0  0  0
  1  2  1  6  0  0  0
  1  8  1  0  0  0  0
  1 33  1  0  0  0  0
  3  4  1  1  0  0  0
  3 10  1  0  0  0  0
  3 42  1  0  0  0  0
  5 11  1  0  0  0  0
  5 29  1  0  0  0  0
  5 35  1  1  0  0  0
  6 13  1  0  0  0  0
  6 39  1  0  0  0  0
  6 22  1  6  0  0  0
  7 15  1  0  0  0  0
  8  9  1  6  0  0  0
  8 17  1  0  0  0  0
 10 19  1  0  0  0  0
 11 12  1  6  0  0  0
 11 21  1  0  0  0  0
 12 44  1  0  0  0  0
 13 14  1  1  0  0  0
 13 23  1  0  0  0  0
 15 16  1  0  0  0  0
 17 18  1  6  0  0  0
 17 25  1  0  0  0  0
 19 20  1  1  0  0  0
 19 27  1  0  0  0  0
 21 22  1  1  0  0  0
 21 28  1  0  0  0  0
 23 24  1  6  0  0  0
 23 30  1  0  0  0  0
 25 26  1  6  0  0  0
 25 32  1  0  0  0  0
 27  2  1  6  0  0  0
 27 34  1  0  0  0  0
 28 29  1  0  0  0  0
 28 36  1  6  0  0  0
 30 31  1  6  0  0  0
 30 38  1  0  0  0  0
 32 33  1  0  0  0  0
 32 40  1  1  0  0  0
 34 35  1  1  0  0  0
 34 42  1  0  0  0  0
 36 37  1  0  0  0  0
 38 39  1  0  0  0  0
 38 45  1  1  0  0  0
 40 41  1  0  0  0  0
 42 43  1  6  0  0  0
 44 47  1  0  0  0  0
 45 46  1  0  0  0  0
 47 48  1  0  0  0  0
 48 49  1  0  0  0  0
 49  7  1  0  0  0  0
M  END
>  <CHROM.1>
129.95536928,100.57327611,136.49512675,165.37756224,-155.83920463,-176.65846613
-85.35752310,-112.72989124,173.61176336,63.43660643,178.27383717,-75.74841091
-48.51226960,-149.09055140,-32.87363748,-45.87518044,45.27395470,9.23234682
-9.29050500,1.76603999,0.19470642,-0.86966910

>  <Name>
2bee_lig

>  <RI>
0

>  <Rbt.Current_Directory>
/home/itssahil/PROJECTS/Mol_Feturizer/New_Systems/rnas/2bee

>  <Rbt.Executable>
rbdock ($Id: //depot/dev/client3/rdock/2013.1/src/exe/rbdock.cxx#4 $)

>  <Rbt.Library>
libRbt.so (2013.1, Build901 2013/11/27)

>  <Rbt.Parameter_File>
/export/apps/rDock/src/rDock_2013.1_src/data/scripts/dock_solv.prm

>  <Rbt.Receptor>
prm/blind_docking_60.prm

>  <SCORE>
28.6628

>  <SCORE.INTER>
-6.14698

>  <SCORE.INTER.CONST>
1

>  <SCORE.INTER.POLAR>
-1.9016

>  <SCORE.INTER.ROT>
16

>  <SCORE.INTER.SOLV>
29.5175

>  <SCORE.INTER.VDW>
-21.8651

>  <SCORE.INTER.norm>
-0.125449

>  <SCORE.INTRA>
9.94411

>  <SCORE.INTRA.DIHEDRAL>
-0.743413

>  <SCORE.INTRA.DIHEDRAL.0>
36.0842

>  <SCORE.INTRA.POLAR>
0

>  <SCORE.INTRA.POLAR.0>
0

>  <SCORE.INTRA.REPUL>
0.0359889

>  <SCORE.INTRA.REPUL.0>
0

>  <SCORE.INTRA.SOLV>
7.10467

>  <SCORE.INTRA.SOLV.lig_0>
-126.444

>  <SCORE.INTRA.VDW>
6.58354

>  <SCORE.INTRA.VDW.0>
-7.40469

>  <SCORE.INTRA.norm>
0.202941

>  <SCORE.RESTR>
24.8657

>  <SCORE.RESTR.CAVITY>
24.8657

>  <SCORE.RESTR.norm>
0.507462

>  <SCORE.SYSTEM>
0

>  <SCORE.SYSTEM.CONST>
0

>  <SCORE.SYSTEM.DIHEDRAL>
0

>  <SCORE.SYSTEM.SOLV>
0

>  <SCORE.SYSTEM.norm>
0

>  <SCORE.heavy>
49

>  <SCORE.norm>
0.584955

>  <RMSD>
7.951

$$$$
2bee_lig
 OpenBabel11021811423D
libRbt.so/2013.1/901 2013/11/27
 49 52  0  0  0  0  0  0  0  0999 V2000
   43.6029   12.7411  -12.3871 C   0  0  2  0  0  0  0  0  0  0  0  0
   44.3263   11.6335  -11.8655 O   0  0  0  0  0  0  0  0  0  0  0  0
   48.3650   12.0491  -10.1653 C   0  0  2  0  0  0  0  0  0  0  0  0
   49.4380   12.3241   -9.1714 N   0  0  0  0  0  0  0  0  0  0  0  0
   45.5857    8.5186   -9.5718 C   0  0  1  0  0  0  0  0  0  0  0  0
   43.5983    6.4861   -5.7301 C   0  0  1  0  0  0  0  0  0  0  0  0
   50.2233    6.1683   -6.0482 C   0  0  0  0  0  0  0  0  0  0  0  0
   42.2676   12.2511  -13.0696 C   0  0  2  0  0  0  0  0  0  0  0  0
   41.4879   11.4548  -12.1281 N   0  0  0  0  0  0  0  0  0  0  0  0
   47.4316   13.3363  -10.3054 C   0  0  0  0  0  0  0  0  0  0  0  0
   45.8409    7.9244   -8.2248 C   0  0  2  0  0  0  0  0  0  0  0  0
   46.9583    6.9643   -8.2230 O   0  0  0  0  0  0  0  0  0  0  0  0
   44.2958    7.4467   -4.6248 C   0  0  2  0  0  0  0  0  0  0  0  0
   45.6289    7.8820   -5.1600 N   0  0  0  0  0  0  0  0  0  0  0  0
   51.5058    6.5603   -6.4980 C   0  0  0  0  0  0  0  0  0  0  0  0
   52.5446    5.6326   -6.5283 N   0  0  0  0  0  0  0  0  0  0  0  0
   42.6210   11.4255  -14.3832 C   0  0  1  0  0  0  0  0  0  0  0  0
   41.4134   10.9928  -14.9928 O   0  0  0  0  0  0  0  0  0  0  0  0
   46.2300   13.0692  -11.3807 C   0  0  2  0  0  0  0  0  0  0  0  0
   45.3970   14.2151  -11.5193 N   0  0  0  0  0  0  0  0  0  0  0  0
   44.4201    7.4917   -7.9547 C   0  0  2  0  0  0  0  0  0  0  0  0
   43.5208    7.2888   -6.9324 O   0  0  0  0  0  0  0  0  0  0  0  0
   44.4697    6.6293   -3.2953 C   0  0  1  0  0  0  0  0  0  0  0  0
   43.1257    6.2555   -2.8309 O   0  0  0  0  0  0  0  0  0  0  0  0
   43.4404   12.3233  -15.3391 C   0  0  2  0  0  0  0  0  0  0  0  0
   43.8056   11.5846  -16.5747 O   0  0  0  0  0  0  0  0  0  0  0  0
   45.3616   11.8354  -10.9171 C   0  0  2  0  0  0  0  0  0  0  0  0
   43.9038    7.0362   -9.4085 C   0  0  2  0  0  0  0  0  0  0  0  0
   44.4692    7.9690  -10.2111 O   0  0  0  0  0  0  0  0  0  0  0  0
   45.3902    5.3146   -3.5917 C   0  0  2  0  0  0  0  0  0  0  0  0
   46.7394    5.7032   -4.0608 O   0  0  0  0  0  0  0  0  0  0  0  0
   44.7591   12.8076  -14.6489 C   0  0  2  0  0  0  0  0  0  0  0  0
   44.3277   13.5068  -13.4533 O   0  0  0  0  0  0  0  0  0  0  0  0
   46.3222   10.6049  -10.7924 C   0  0  2  0  0  0  0  0  0  0  0  0
   45.4510    9.5711  -10.4023 O   0  0  0  0  0  0  0  0  0  0  0  0
   42.3571    7.0894   -9.6922 C   0  0  0  0  0  0  0  0  0  0  0  0
   42.1249    7.0207  -11.1347 O   0  0  0  0  0  0  0  0  0  0  0  0
   44.7076    4.4099   -4.7119 C   0  0  1  0  0  0  0  0  0  0  0  0
   44.5294    5.2830   -5.9365 O   0  0  0  0  0  0  0  0  0  0  0  0
   45.4595   13.6706  -15.6186 C   0  0  0  0  0  0  0  0  0  0  0  0
   44.8356   14.8510  -15.7313 O   0  0  0  0  0  0  0  0  0  0  0  0
   47.4597   10.8796   -9.7187 C   0  0  1  0  0  0  0  0  0  0  0  0
   48.3136    9.7804   -9.6231 O   0  0  0  0  0  0  0  0  0  0  0  0
   46.8679    5.5590   -7.7942 C   0  0  0  0  0  0  0  0  0  0  0  0
   45.6812    3.2018   -4.9255 C   0  0  0  0  0  0  0  0  0  0  0  0
   47.0239    3.6112   -5.2223 N   0  0  0  0  0  0  0  0  0  0  0  0
   47.8658    4.7219   -8.5957 C   0  0  0  0  0  0  0  0  0  0  0  0
   49.2129    5.1054   -8.1305 N   0  0  0  0  0  0  0  0  0  0  0  0
   49.5723    4.8457   -6.6660 C   0  0  0  0  0  0  0  0  0  0  0  0
  1  2  1  6  0  0  0
  1  8  1  0  0  0  0
  1 33  1  0  0  0  0
  3  4  1  1  0  0  0
  3 10  1  0  0  0  0
  3 42  1  0  0  0  0
  5 11  1  0  0  0  0
  5 29  1  0  0  0  0
  5 35  1  1  0  0  0
  6 13  1  0  0  0  0
  6 39  1  0  0  0  0
  6 22  1  6  0  0  0
  7 15  1  0  0  0  0
  8  9  1  1  0  0  0
  8 17  1  0  0  0  0
 10 19  1  0  0  0  0
 11 12  1  6  0  0  0
 11 21  1  0  0  0  0
 12 44  1  0  0  0  0
 13 14  1  6  0  0  0
 13 23  1  0  0  0  0
 15 16  1  0  0  0  0
 17 18  1  6  0  0  0
 17 25  1  0  0  0  0
 19 20  1  1  0  0  0
 19 27  1  0  0  0  0
 21 22  1  1  0  0  0
 21 28  1  0  0  0  0
 23 24  1  6  0  0  0
 23 30  1  0  0  0  0
 25 26  1  6  0  0  0
 25 32  1  0  0  0  0
 27  2  1  6  0  0  0
 27 34  1  0  0  0  0
 28 29  1  0  0  0  0
 28 36  1  1  0  0  0
 30 31  1  6  0  0  0
 30 38  1  0  0  0  0
 32 33  1  0  0  0  0
 32 40  1  6  0  0  0
 34 35  1  1  0  0  0
 34 42  1  0  0  0  0
 36 37  1  0  0  0  0
 38 39  1  0  0  0  0
 38 45  1  6  0  0  0
 40 41  1  0  0  0  0
 42 43  1  6  0  0  0
 44 47  1  0  0  0  0
 45 46  1  0  0  0  0
 47 48  1  0  0  0  0
 48 49  1  0  0  0  0
 49  7  1  0  0  0  0
M  END
>  <CHROM.1>
-163.46375744,60.85495430,87.22010849,-49.73343522,-122.74949644,148.92525991
-54.40893443,-43.18724229,163.74015500,73.22684017,-143.67327759,-53.98904596
70.12169211,62.37880477,-131.75087653,-69.36356863,45.57617936,8.87162968
-9.33280771,1.79493674,-0.13826511,-0.83299535

>  <Name>
2bee_lig

>  <RI>
0

>  <Rbt.Current_Directory>
/home/itssahil/PROJECTS/Mol_Feturizer/New_Systems/rnas/2bee

>  <Rbt.Executable>
rbdock ($Id: //depot/dev/client3/rdock/2013.1/src/exe/rbdock.cxx#4 $)

>  <Rbt.Library>
libRbt.so (2013.1, Build901 2013/11/27)

>  <Rbt.Parameter_File>
/export/apps/rDock/src/rDock_2013.1_src/data/scripts/dock_solv.prm

>  <Rbt.Receptor>
prm/blind_docking_60.prm

>  <SCORE>
45.3196

>  <SCORE.INTER>
15.4265

>  <SCORE.INTER.CONST>
1

>  <SCORE.INTER.POLAR>
-0.0898776

>  <SCORE.INTER.ROT>
16

>  <SCORE.INTER.SOLV>
34.3164

>  <SCORE.INTER.VDW>
-15.1216

>  <SCORE.INTER.norm>
0.314826

>  <SCORE.INTRA>
9.22628

>  <SCORE.INTRA.DIHEDRAL>
-5.27673

>  <SCORE.INTRA.DIHEDRAL.0>
36.0842

>  <SCORE.INTRA.POLAR>
0

>  <SCORE.INTRA.POLAR.0>
0

>  <SCORE.INTRA.REPUL>
0.0546978

>  <SCORE.INTRA.REPUL.0>
0

>  <SCORE.INTRA.SOLV>
8.0262

>  <SCORE.INTRA.SOLV.lig_0>
-126.444

>  <SCORE.INTRA.VDW>
7.57806

>  <SCORE.INTRA.VDW.0>
-7.40469

>  <SCORE.INTRA.norm>
0.188291

>  <SCORE.RESTR>
20.6668

>  <SCORE.RESTR.CAVITY>
20.6668

>  <SCORE.RESTR.norm>
0.421772

>  <SCORE.SYSTEM>
0

>  <SCORE.SYSTEM.CONST>
0

>  <SCORE.SYSTEM.DIHEDRAL>
0

>  <SCORE.SYSTEM.SOLV>
0

>  <SCORE.SYSTEM.norm>
0

>  <SCORE.heavy>
49

>  <SCORE.norm>
0.924889

>  <RMSD>
7.951

$$$$
2bee_lig
 OpenBabel11021811423D
libRbt.so/2013.1/901 2013/11/27
 49 52  0  0  0  0  0  0  0  0999 V2000
   43.8049   11.4959  -11.9649 C   0  0  2  0  0  0  0  0  0  0  0  0
   44.7142   12.5883  -11.9187 O   0  0  0  0  0  0  0  0  0  0  0  0
   48.1570   13.5172   -9.3383 C   0  0  2  0  0  0  0  0  0  0  0  0
   48.9318   13.8365   -8.1084 N   0  0  0  0  0  0  0  0  0  0  0  0
   46.0716    9.5291   -9.6568 C   0  0  1  0  0  0  0  0  0  0  0  0
   43.5740    7.8303   -6.0782 C   0  0  1  0  0  0  0  0  0  0  0  0
   51.3723    5.5118   -6.6648 C   0  0  0  0  0  0  0  0  0  0  0  0
   43.9111   10.7530  -13.3526 C   0  0  2  0  0  0  0  0  0  0  0  0
   45.2922   10.3546  -13.6022 N   0  0  0  0  0  0  0  0  0  0  0  0
   47.0000   14.6000   -9.5303 C   0  0  0  0  0  0  0  0  0  0  0  0
   46.1152    8.9292   -8.2890 C   0  0  2  0  0  0  0  0  0  0  0  0
   47.3210    8.1151   -8.0571 O   0  0  0  0  0  0  0  0  0  0  0  0
   44.9804    7.1675   -5.6159 C   0  0  2  0  0  0  0  0  0  0  0  0
   45.1477    5.8691   -6.3502 N   0  0  0  0  0  0  0  0  0  0  0  0
   51.1421    4.3293   -7.4061 C   0  0  0  0  0  0  0  0  0  0  0  0
   52.0717    3.9138   -8.3568 N   0  0  0  0  0  0  0  0  0  0  0  0
   43.3591   11.7050  -14.5020 C   0  0  1  0  0  0  0  0  0  0  0  0
   43.4542   11.0264  -15.7460 O   0  0  0  0  0  0  0  0  0  0  0  0
   46.1159   14.2757  -10.8663 C   0  0  2  0  0  0  0  0  0  0  0  0
   45.0867   15.2415  -11.0512 N   0  0  0  0  0  0  0  0  0  0  0  0
   44.7363    8.3158   -8.3251 C   0  0  2  0  0  0  0  0  0  0  0  0
   43.6778    7.9714   -7.5152 O   0  0  0  0  0  0  0  0  0  0  0  0
   44.9302    6.9273   -4.0648 C   0  0  1  0  0  0  0  0  0  0  0  0
   44.7811    8.2410   -3.4218 O   0  0  0  0  0  0  0  0  0  0  0  0
   41.8949   12.0862  -14.1826 C   0  0  2  0  0  0  0  0  0  0  0  0
   41.3444   12.9893  -15.2254 O   0  0  0  0  0  0  0  0  0  0  0  0
   45.4781   12.8367  -10.7496 C   0  0  2  0  0  0  0  0  0  0  0  0
   44.5955    7.8456   -9.8569 C   0  0  2  0  0  0  0  0  0  0  0  0
   45.1915    8.8658  -10.5187 O   0  0  0  0  0  0  0  0  0  0  0  0
   43.6767    5.9420   -3.7160 C   0  0  2  0  0  0  0  0  0  0  0  0
   43.8366    4.6239   -4.3706 O   0  0  0  0  0  0  0  0  0  0  0  0
   41.8019   12.8168  -12.8016 C   0  0  2  0  0  0  0  0  0  0  0  0
   42.3624   11.8859  -11.8406 O   0  0  0  0  0  0  0  0  0  0  0  0
   46.6511   11.8166  -10.5600 C   0  0  2  0  0  0  0  0  0  0  0  0
   45.9791   10.5822  -10.4921 O   0  0  0  0  0  0  0  0  0  0  0  0
   43.1474    7.7160  -10.4586 C   0  0  0  0  0  0  0  0  0  0  0  0
   42.3827    6.7426   -9.6795 O   0  0  0  0  0  0  0  0  0  0  0  0
   42.3122    6.5932   -4.2194 C   0  0  1  0  0  0  0  0  0  0  0  0
   42.4624    6.8390   -5.7062 O   0  0  0  0  0  0  0  0  0  0  0  0
   40.3768   13.1190  -12.5705 C   0  0  0  0  0  0  0  0  0  0  0  0
   39.7445   12.0460  -12.0765 O   0  0  0  0  0  0  0  0  0  0  0  0
   47.4725   12.1357   -9.2387 C   0  0  1  0  0  0  0  0  0  0  0  0
   48.5193   11.2263   -9.0856 O   0  0  0  0  0  0  0  0  0  0  0  0
   47.3844    6.6475   -8.1527 C   0  0  0  0  0  0  0  0  0  0  0  0
   41.1943    5.5592   -3.8529 C   0  0  0  0  0  0  0  0  0  0  0  0
   40.0098    5.7107   -4.6483 N   0  0  0  0  0  0  0  0  0  0  0  0
   48.8103    6.1835   -7.8518 C   0  0  0  0  0  0  0  0  0  0  0  0
   48.8682    5.8979   -6.4051 N   0  0  0  0  0  0  0  0  0  0  0  0
   50.2162    6.0383   -5.6947 C   0  0  0  0  0  0  0  0  0  0  0  0
  1  2  1  6  0  0  0
  1  8  1  0  0  0  0
  1 33  1  0  0  0  0
  3  4  1  1  0  0  0
  3 10  1  0  0  0  0
  3 42  1  0  0  0  0
  5 11  1  0  0  0  0
  5 29  1  0  0  0  0
  5 35  1  1  0  0  0
  6 13  1  0  0  0  0
  6 39  1  0  0  0  0
  6 22  1  6  0  0  0
  7 15  1  0  0  0  0
  8  9  1  6  0  0  0
  8 17  1  0  0  0  0
 10 19  1  0  0  0  0
 11 12  1  6  0  0  0
 11 21  1  0  0  0  0
 12 44  1  0  0  0  0
 13 14  1  6  0  0  0
 13 23  1  0  0  0  0
 15 16  1  0  0  0  0
 17 18  1  6  0  0  0
 17 25  1  0  0  0  0
 19 20  1  1  0  0  0
 19 27  1  0  0  0  0
 21 22  1  1  0  0  0
 21 28  1  0  0  0  0
 23 24  1  1  0  0  0
 23 30  1  0  0  0  0
 25 26  1  6  0  0  0
 25 32  1  0  0  0  0
 27  2  1  6  0  0  0
 27 34  1  0  0  0  0
 28 29  1  0  0  0  0
 28 36  1  6  0  0  0
 30 31  1  6  0  0  0
 30 38  1  0  0  0  0
 32 33  1  0  0  0  0
 32 40  1  1  0  0  0
 34 35  1  1  0  0  0
 34 42  1  0  0  0  0
 36 37  1  0  0  0  0
 38 39  1  0  0  0  0
 38 45  1  6  0  0  0
 40 41  1  0  0  0  0
 42 43  1  6  0  0  0
 44 47  1  0  0  0  0
 45 46  1  0  0  0  0
 47 48  1  0  0  0  0
 48 49  1  0  0  0  0
 49  7  1  0  0  0  0
M  END
>  <CHROM.1>
-137.40686628,49.87075918,-37.93344104,173.72353242,-98.98485870,179.57384790
-15.15163342,-166.67295833,-59.50507528,82.15500487,-132.95235540,-157.68550947
92.27884178,-152.49482875,-38.08204355,-42.00215929,45.09740432,9.30924397
-9.07346574,1.86422808,-0.01449773,-0.81649052

>  <Name>
2bee_lig

>  <RI>
0

>  <Rbt.Current_Directory>
/home/itssahil/PROJECTS/Mol_Feturizer/New_Systems/rnas/2bee

>  <Rbt.Executable>
rbdock ($Id: //depot/dev/client3/rdock/2013.1/src/exe/rbdock.cxx#4 $)

>  <Rbt.Library>
libRbt.so (2013.1, Build901 2013/11/27)

>  <Rbt.Parameter_File>
/export/apps/rDock/src/rDock_2013.1_src/data/scripts/dock_solv.prm

>  <Rbt.Receptor>
prm/blind_docking_60.prm

>  <SCORE>
16.8893

>  <SCORE.INTER>
-11.3776

>  <SCORE.INTER.CONST>
1

>  <SCORE.INTER.POLAR>
-0.576954

>  <SCORE.INTER.ROT>
16

>  <SCORE.INTER.SOLV>
32.2033

>  <SCORE.INTER.VDW>
-30.663

>  <SCORE.INTER.norm>
-0.232196

>  <SCORE.INTRA>
3.56505

>  <SCORE.INTRA.DIHEDRAL>
-2.98628

>  <SCORE.INTRA.DIHEDRAL.0>
36.0842

>  <SCORE.INTRA.POLAR>
0

>  <SCORE.INTRA.POLAR.0>
0

>  <SCORE.INTRA.REPUL>
0.00304526

>  <SCORE.INTRA.REPUL.0>
0

>  <SCORE.INTRA.SOLV>
2.27367

>  <SCORE.INTRA.SOLV.lig_0>
-126.444

>  <SCORE.INTRA.VDW>
3.90613

>  <SCORE.INTRA.VDW.0>
-7.40469

>  <SCORE.INTRA.norm>
0.0727562

>  <SCORE.RESTR>
24.7019

>  <SCORE.RESTR.CAVITY>
24.7019

>  <SCORE.RESTR.norm>
0.504119

>  <SCORE.SYSTEM>
0

>  <SCORE.SYSTEM.CONST>
0

>  <SCORE.SYSTEM.DIHEDRAL>
0

>  <SCORE.SYSTEM.SOLV>
0

>  <SCORE.SYSTEM.norm>
0

>  <SCORE.heavy>
49

>  <SCORE.norm>
0.344679

>  <RMSD>
7.981

$$$$
2bee_lig
 OpenBabel11021811423D
libRbt.so/2013.1/901 2013/11/27
 49 52  0  0  0  0  0  0  0  0999 V2000
   43.0563   11.0839  -13.1200 C   0  0  2  0  0  0  0  0  0  0  0  0
   44.3101   11.7524  -13.0649 O   0  0  0  0  0  0  0  0  0  0  0  0
   47.6184   11.1029  -10.2351 C   0  0  2  0  0  0  0  0  0  0  0  0
   48.4186   11.1844   -8.9830 N   0  0  0  0  0  0  0  0  0  0  0  0
   43.7589    8.5390  -10.7190 C   0  0  1  0  0  0  0  0  0  0  0  0
   46.6323    6.2011   -8.0915 C   0  0  1  0  0  0  0  0  0  0  0  0
   42.7407    6.8057   -5.1420 C   0  0  0  0  0  0  0  0  0  0  0  0
   42.5262   11.0350  -14.6051 C   0  0  2  0  0  0  0  0  0  0  0  0
   43.5307   10.4327  -15.4750 N   0  0  0  0  0  0  0  0  0  0  0  0
   47.3083   12.5776  -10.7614 C   0  0  0  0  0  0  0  0  0  0  0  0
   43.7659    7.0457  -10.7718 C   0  0  2  0  0  0  0  0  0  0  0  0
   42.4184    6.4702  -10.9242 O   0  0  0  0  0  0  0  0  0  0  0  0
   47.6900    5.0303   -8.4677 C   0  0  2  0  0  0  0  0  0  0  0  0
   47.0179    3.7063   -8.2479 N   0  0  0  0  0  0  0  0  0  0  0  0
   41.5063    6.7512   -4.4534 C   0  0  0  0  0  0  0  0  0  0  0  0
   41.1810    7.7438   -3.5317 N   0  0  0  0  0  0  0  0  0  0  0  0
   42.1488   12.5069  -15.0772 C   0  0  1  0  0  0  0  0  0  0  0  0
   41.6685   12.4523  -16.4127 O   0  0  0  0  0  0  0  0  0  0  0  0
   46.4177   12.5309  -12.1311 C   0  0  2  0  0  0  0  0  0  0  0  0
   46.1436   13.8418  -12.6135 N   0  0  0  0  0  0  0  0  0  0  0  0
   44.5851    6.8322   -9.5220 C   0  0  2  0  0  0  0  0  0  0  0  0
   45.4897    5.9670   -8.9492 O   0  0  0  0  0  0  0  0  0  0  0  0
   48.9462    5.1781   -7.5369 C   0  0  1  0  0  0  0  0  0  0  0  0
   49.5525    6.4867   -7.8225 O   0  0  0  0  0  0  0  0  0  0  0  0
   41.0802   13.0859  -14.1211 C   0  0  2  0  0  0  0  0  0  0  0  0
   40.7097   14.4684  -14.5176 O   0  0  0  0  0  0  0  0  0  0  0  0
   45.0611   11.7706  -11.8617 C   0  0  2  0  0  0  0  0  0  0  0  0
   44.0768    8.0141   -8.5564 C   0  0  2  0  0  0  0  0  0  0  0  0
   43.9325    9.0428   -9.4253 O   0  0  0  0  0  0  0  0  0  0  0  0
   48.4746    5.0618   -5.9788 C   0  0  2  0  0  0  0  0  0  0  0  0
   47.8636    3.7417   -5.7039 O   0  0  0  0  0  0  0  0  0  0  0  0
   41.6155   13.1237  -12.6508 C   0  0  2  0  0  0  0  0  0  0  0  0
   41.9646   11.7509  -12.3379 O   0  0  0  0  0  0  0  0  0  0  0  0
   45.4206   10.3362  -11.3461 C   0  0  2  0  0  0  0  0  0  0  0  0
   44.1557    9.7475  -11.1633 O   0  0  0  0  0  0  0  0  0  0  0  0
   45.0543    8.5202   -7.4322 C   0  0  0  0  0  0  0  0  0  0  0  0
   44.2861    8.8469   -6.2311 O   0  0  0  0  0  0  0  0  0  0  0  0
   47.4030    6.1930   -5.6454 C   0  0  1  0  0  0  0  0  0  0  0  0
   46.2542    6.0126   -6.6156 O   0  0  0  0  0  0  0  0  0  0  0  0
   40.5291   13.6637  -11.8118 C   0  0  0  0  0  0  0  0  0  0  0  0
   41.0090   14.0710  -10.6290 O   0  0  0  0  0  0  0  0  0  0  0  0
   46.2574   10.4110   -9.9984 C   0  0  1  0  0  0  0  0  0  0  0  0
   46.5790    9.1282   -9.5540 O   0  0  0  0  0  0  0  0  0  0  0  0
   41.4354    6.3142   -9.8396 C   0  0  0  0  0  0  0  0  0  0  0  0
   47.0123    5.9709   -4.1450 C   0  0  0  0  0  0  0  0  0  0  0  0
   45.9148    5.0613   -3.9815 N   0  0  0  0  0  0  0  0  0  0  0  0
   42.0249    5.4179   -8.7496 C   0  0  0  0  0  0  0  0  0  0  0  0
   41.9777    6.1898   -7.4926 N   0  0  0  0  0  0  0  0  0  0  0  0
   42.9638    5.8220   -6.3819 C   0  0  0  0  0  0  0  0  0  0  0  0
  1  2  1  6  0  0  0
  1  8  1  0  0  0  0
  1 33  1  0  0  0  0
  3  4  1  1  0  0  0
  3 10  1  0  0  0  0
  3 42  1  0  0  0  0
  5 11  1  0  0  0  0
  5 29  1  0  0  0  0
  5 35  1  6  0  0  0
  6 13  1  0  0  0  0
  6 39  1  0  0  0  0
  6 22  1  6  0  0  0
  7 15  1  0  0  0  0
  8  9  1  6  0  0  0
  8 17  1  0  0  0  0
 10 19  1  0  0  0  0
 11 12  1  1  0  0  0
 11 21  1  0  0  0  0
 12 44  1  0  0  0  0
 13 14  1  1  0  0  0
 13 23  1  0  0  0  0
 15 16  1  0  0  0  0
 17 18  1  6  0  0  0
 17 25  1  0  0  0  0
 19 20  1  1  0  0  0
 19 27  1  0  0  0  0
 21 22  1  1  0  0  0
 21 28  1  0  0  0  0
 23 24  1  1  0  0  0
 23 30  1  0  0  0  0
 25 26  1  6  0  0  0
 25 32  1  0  0  0  0
 27  2  1  6  0  0  0
 27 34  1  0  0  0  0
 28 29  1  0  0  0  0
 28 36  1  1  0  0  0
 30 31  1  6  0  0  0
 30 38  1  0  0  0  0
 32 33  1  0  0  0  0
 32 40  1  1  0  0  0
 34 35  1  1  0  0  0
 34 42  1  0  0  0  0
 36 37  1  0  0  0  0
 38 39  1  0  0  0  0
 38 45  1  1  0  0  0
 40 41  1  0  0  0  0
 42 43  1  6  0  0  0
 44 47  1  0  0  0  0
 45 46  1  0  0  0  0
 47 48  1  0  0  0  0
 48 49  1  0  0  0  0
 49  7  1  0  0  0  0
M  END
>  <CHROM.1>
-172.01316844,-55.51917238,-148.03722055,-168.50126125,-78.67879661,-59.87546853
144.14700874,177.72754114,-143.21228496,-163.04136456,-178.67338366,-88.95897648
123.46211748,-155.89205942,178.96744403,64.77598076,44.49589950,8.88490865
-9.64844837,1.89985573,0.05873429,-0.82936703

>  <Name>
2bee_lig

>  <RI>
0

>  <Rbt.Current_Directory>
/home/itssahil/PROJECTS/Mol_Feturizer/New_Systems/rnas/2bee

>  <Rbt.Executable>
rbdock ($Id: //depot/dev/client3/rdock/2013.1/src/exe/rbdock.cxx#4 $)

>  <Rbt.Library>
libRbt.so (2013.1, Build901 2013/11/27)

>  <Rbt.Parameter_File>
/export/apps/rDock/src/rDock_2013.1_src/data/scripts/dock_solv.prm

>  <Rbt.Receptor>
prm/blind_docking_60.prm

>  <SCORE>
36.5755

>  <SCORE.INTER>
14.0443

>  <SCORE.INTER.CONST>
1

>  <SCORE.INTER.POLAR>
-0.212374

>  <SCORE.INTER.ROT>
16

>  <SCORE.INTER.SOLV>
33.0886

>  <SCORE.INTER.VDW>
-15.2254

>  <SCORE.INTER.norm>
0.286618

>  <SCORE.INTRA>
-1.348

>  <SCORE.INTRA.DIHEDRAL>
-12.4336

>  <SCORE.INTRA.DIHEDRAL.0>
36.0842

>  <SCORE.INTRA.POLAR>
0

>  <SCORE.INTRA.POLAR.0>
0

>  <SCORE.INTRA.REPUL>
0

>  <SCORE.INTRA.REPUL.0>
0

>  <SCORE.INTRA.SOLV>
1.79583

>  <SCORE.INTRA.SOLV.lig_0>
-126.444

>  <SCORE.INTRA.VDW>
3.97088

>  <SCORE.INTRA.VDW.0>
-7.40469

>  <SCORE.INTRA.norm>
-0.0275102

>  <SCORE.RESTR>
23.8793

>  <SCORE.RESTR.CAVITY>
23.8793

>  <SCORE.RESTR.norm>
0.487332

>  <SCORE.SYSTEM>
0

>  <SCORE.SYSTEM.CONST>
0

>  <SCORE.SYSTEM.DIHEDRAL>
0

>  <SCORE.SYSTEM.SOLV>
0

>  <SCORE.SYSTEM.norm>
0

>  <SCORE.heavy>
49

>  <SCORE.norm>
0.74644

>  <RMSD>
7.985

$$$$
2bee_lig
 OpenBabel11021811423D
libRbt.so/2013.1/901 2013/11/27
 49 52  0  0  0  0  0  0  0  0999 V2000
   39.4694    0.4025   -2.6087 C   0  0  2  0  0  0  0  0  0  0  0  0
   40.4175   -0.5923   -2.9743 O   0  0  0  0  0  0  0  0  0  0  0  0
   44.8185   -0.5237   -2.9970 C   0  0  2  0  0  0  0  0  0  0  0  0
   46.2055   -0.1741   -3.4078 N   0  0  0  0  0  0  0  0  0  0  0  0
   41.5278    2.6247   -2.2709 C   0  0  1  0  0  0  0  0  0  0  0  0
   40.0886    6.7761   -0.4715 C   0  0  1  0  0  0  0  0  0  0  0  0
   44.0516    7.8709   -7.6072 C   0  0  0  0  0  0  0  0  0  0  0  0
   38.0883   -0.2657   -2.2408 C   0  0  2  0  0  0  0  0  0  0  0  0
   38.2814   -1.2754   -1.2056 N   0  0  0  0  0  0  0  0  0  0  0  0
   44.0323   -1.1259   -4.2489 C   0  0  0  0  0  0  0  0  0  0  0  0
   40.5899    3.6117   -2.8864 C   0  0  2  0  0  0  0  0  0  0  0  0
   40.9964    4.0225   -4.2415 O   0  0  0  0  0  0  0  0  0  0  0  0
   38.6735    7.3184    0.1068 C   0  0  2  0  0  0  0  0  0  0  0  0
   37.7077    7.4143   -1.0382 N   0  0  0  0  0  0  0  0  0  0  0  0
   43.4909    7.5331   -8.8611 C   0  0  0  0  0  0  0  0  0  0  0  0
   43.4680    6.2035   -9.2760 N   0  0  0  0  0  0  0  0  0  0  0  0
   37.4398   -0.8889   -3.5535 C   0  0  1  0  0  0  0  0  0  0  0  0
   36.1957   -1.4836   -3.2135 O   0  0  0  0  0  0  0  0  0  0  0  0
   42.4971   -1.5110   -3.8410 C   0  0  2  0  0  0  0  0  0  0  0  0
   41.7901   -2.0575   -4.9490 N   0  0  0  0  0  0  0  0  0  0  0  0
   40.5782    4.5831   -1.7309 C   0  0  2  0  0  0  0  0  0  0  0  0
   39.7798    5.5062   -1.0942 O   0  0  0  0  0  0  0  0  0  0  0  0
   38.9098    8.7290    0.7553 C   0  0  1  0  0  0  0  0  0  0  0  0
   39.8497    8.5471    1.8712 O   0  0  0  0  0  0  0  0  0  0  0  0
   37.2571    0.2287   -4.6064 C   0  0  2  0  0  0  0  0  0  0  0  0
   36.6672   -0.3143   -5.8566 O   0  0  0  0  0  0  0  0  0  0  0  0
   41.7455   -0.2272   -3.3135 C   0  0  2  0  0  0  0  0  0  0  0  0
   42.0924    4.5145   -1.1924 C   0  0  2  0  0  0  0  0  0  0  0  0
   42.3726    3.1949   -1.3125 O   0  0  0  0  0  0  0  0  0  0  0  0
   39.5076    9.7441   -0.3742 C   0  0  2  0  0  0  0  0  0  0  0  0
   38.5542    9.9173   -1.4934 O   0  0  0  0  0  0  0  0  0  0  0  0
   38.6326    0.8875   -4.9585 C   0  0  2  0  0  0  0  0  0  0  0  0
   39.1505    1.3831   -3.6973 O   0  0  0  0  0  0  0  0  0  0  0  0
   42.5567    0.3239   -2.0925 C   0  0  2  0  0  0  0  0  0  0  0  0
   41.7951    1.4374   -1.6927 O   0  0  0  0  0  0  0  0  0  0  0  0
   42.3574    4.8862    0.3134 C   0  0  0  0  0  0  0  0  0  0  0  0
   41.4055    4.1733    1.1648 O   0  0  0  0  0  0  0  0  0  0  0  0
   40.8734    9.1685   -0.9594 C   0  0  1  0  0  0  0  0  0  0  0  0
   40.5704    7.7929   -1.5158 O   0  0  0  0  0  0  0  0  0  0  0  0
   38.3601    1.9502   -5.9445 C   0  0  0  0  0  0  0  0  0  0  0  0
   39.4975    2.5633   -6.2988 O   0  0  0  0  0  0  0  0  0  0  0  0
   44.0329    0.7197   -2.5243 C   0  0  1  0  0  0  0  0  0  0  0  0
   44.7478    1.2007   -1.4270 O   0  0  0  0  0  0  0  0  0  0  0  0
   42.2665    4.6846   -4.5815 C   0  0  0  0  0  0  0  0  0  0  0  0
   41.3372   10.2054   -2.0378 C   0  0  0  0  0  0  0  0  0  0  0  0
   41.8400   11.4211   -1.4650 N   0  0  0  0  0  0  0  0  0  0  0  0
   42.3344    4.8990   -6.0942 C   0  0  0  0  0  0  0  0  0  0  0  0
   43.5372    5.7136   -6.3547 N   0  0  0  0  0  0  0  0  0  0  0  0
   43.4057    7.2367   -6.2898 C   0  0  0  0  0  0  0  0  0  0  0  0
  1  2  1  6  0  0  0
  1  8  1  0  0  0  0
  1 33  1  0  0  0  0
  3  4  1  6  0  0  0
  3 10  1  0  0  0  0
  3 42  1  0  0  0  0
  5 11  1  0  0  0  0
  5 29  1  0  0  0  0
  5 35  1  1  0  0  0
  6 13  1  0  0  0  0
  6 39  1  0  0  0  0
  6 22  1  6  0  0  0
  7 15  1  0  0  0  0
  8  9  1  1  0  0  0
  8 17  1  0  0  0  0
 10 19  1  0  0  0  0
 11 12  1  6  0  0  0
 11 21  1  0  0  0  0
 12 44  1  0  0  0  0
 13 14  1  6  0  0  0
 13 23  1  0  0  0  0
 15 16  1  0  0  0  0
 17 18  1  1  0  0  0
 17 25  1  0  0  0  0
 19 20  1  6  0  0  0
 19 27  1  0  0  0  0
 21 22  1  6  0  0  0
 21 28  1  0  0  0  0
 23 24  1  1  0  0  0
 23 30  1  0  0  0  0
 25 26  1  6  0  0  0
 25 32  1  0  0  0  0
 27  2  1  1  0  0  0
 27 34  1  0  0  0  0
 28 29  1  0  0  0  0
 28 36  1  1  0  0  0
 30 31  1  6  0  0  0
 30 38  1  0  0  0  0
 32 33  1  0  0  0  0
 32 40  1  6  0  0  0
 34 35  1  6  0  0  0
 34 42  1  0  0  0  0
 36 37  1  0  0  0  0
 38 39  1  0  0  0  0
 38 45  1  6  0  0  0
 40 41  1  0  0  0  0
 42 43  1  1  0  0  0
 44 47  1  0  0  0  0
 45 46  1  0  0  0  0
 47 48  1  0  0  0  0
 48 49  1  0  0  0  0
 49  7  1  0  0  0  0
M  END
>  <CHROM.1>
-178.38634087,114.56110612,-178.91477596,-60.37654265,-60.22817287,177.89412992
-143.31933326,-173.05019933,48.43010653,-179.90722739,-67.11623566,73.19492724
172.92390881,-87.13239003,-130.39689310,61.57743231,40.91612397,3.66036574
-2.98462643,1.59044139,-0.85214286,-2.90324575

>  <Name>
2bee_lig

>  <RI>
3.46266e+07

>  <Rbt.Current_Directory>
/home/itssahil/PROJECTS/Mol_Feturizer/New_Systems/rnas/2bee

>  <Rbt.Executable>
rbdock ($Id: //depot/dev/client3/rdock/2013.1/src/exe/rbdock.cxx#4 $)

>  <Rbt.Library>
libRbt.so (2013.1, Build901 2013/11/27)

>  <Rbt.Parameter_File>
/export/apps/rDock/src/rDock_2013.1_src/data/scripts/dock_solv.prm

>  <Rbt.Receptor>
prm/pocket_docking_4.prm

>  <SCORE>
-9.15014

>  <SCORE.INTER>
0.786179

>  <SCORE.INTER.CONST>
1

>  <SCORE.INTER.POLAR>
-0.431457

>  <SCORE.INTER.ROT>
16

>  <SCORE.INTER.SOLV>
14.2983

>  <SCORE.INTER.VDW>
-17.0705

>  <SCORE.INTER.norm>
0.0160445

>  <SCORE.INTRA>
-9.94832

>  <SCORE.INTRA.DIHEDRAL>
-22.8761

>  <SCORE.INTRA.DIHEDRAL.0>
36.0842

>  <SCORE.INTRA.POLAR>
0

>  <SCORE.INTRA.POLAR.0>
0

>  <SCORE.INTRA.REPUL>
0

>  <SCORE.INTRA.REPUL.0>
0

>  <SCORE.INTRA.SOLV>
-0.506243

>  <SCORE.INTRA.SOLV.lig_0>
-126.444

>  <SCORE.INTRA.VDW>
1.74287

>  <SCORE.INTRA.VDW.0>
-7.40469

>  <SCORE.INTRA.norm>
-0.203027

>  <SCORE.RESTR>
0.0120006

>  <SCORE.RESTR.CAVITY>
0.0120006

>  <SCORE.RESTR.norm>
0.000244909

>  <SCORE.SYSTEM>
0

>  <SCORE.SYSTEM.CONST>
0

>  <SCORE.SYSTEM.DIHEDRAL>
0

>  <SCORE.SYSTEM.SOLV>
0

>  <SCORE.SYSTEM.norm>
0

>  <SCORE.heavy>
49

>  <SCORE.norm>
-0.186738

>  <RMSD>
7.999

$$$$
2bee_lig
 OpenBabel11021811423D
libRbt.so/2013.1/901 2013/11/27
 49 52  0  0  0  0  0  0  0  0999 V2000
   41.2044    5.9874   -2.1543 C   0  0  2  0  0  0  0  0  0  0  0  0
   42.4188    5.2510   -2.2266 O   0  0  0  0  0  0  0  0  0  0  0  0
   43.1313    0.9207   -2.5660 C   0  0  2  0  0  0  0  0  0  0  0  0
   43.0807   -0.4620   -3.1140 N   0  0  0  0  0  0  0  0  0  0  0  0
   44.1049    4.8055   -4.9952 C   0  0  1  0  0  0  0  0  0  0  0  0
   44.3729    8.8084   -7.6446 C   0  0  1  0  0  0  0  0  0  0  0  0
   40.8893   -0.5449   -7.0259 C   0  0  0  0  0  0  0  0  0  0  0  0
   41.4698    7.5129   -2.4565 C   0  0  2  0  0  0  0  0  0  0  0  0
   42.1473    7.6577   -3.7404 N   0  0  0  0  0  0  0  0  0  0  0  0
   41.6440    1.4617   -2.3580 C   0  0  0  0  0  0  0  0  0  0  0  0
   43.2713    5.7182   -5.8345 C   0  0  2  0  0  0  0  0  0  0  0  0
   42.5284    5.0088   -6.8906 O   0  0  0  0  0  0  0  0  0  0  0  0
   44.8366    7.8375   -8.8584 C   0  0  2  0  0  0  0  0  0  0  0  0
   46.2668    7.4473   -8.6231 N   0  0  0  0  0  0  0  0  0  0  0  0
   40.3120   -1.7776   -6.6411 C   0  0  0  0  0  0  0  0  0  0  0  0
   39.0721   -1.7954   -6.0063 N   0  0  0  0  0  0  0  0  0  0  0  0
   42.3220    8.1433   -1.2698 C   0  0  1  0  0  0  0  0  0  0  0  0
   42.5518    9.5169   -1.5483 O   0  0  0  0  0  0  0  0  0  0  0  0
   41.6569    2.9862   -1.7685 C   0  0  2  0  0  0  0  0  0  0  0  0
   40.3344    3.4744   -1.5709 N   0  0  0  0  0  0  0  0  0  0  0  0
   44.3672    6.7044   -6.1586 C   0  0  2  0  0  0  0  0  0  0  0  0
   44.5854    8.0342   -6.4400 O   0  0  0  0  0  0  0  0  0  0  0  0
   44.6896    8.6256  -10.2087 C   0  0  1  0  0  0  0  0  0  0  0  0
   43.2661    8.9558  -10.3714 O   0  0  0  0  0  0  0  0  0  0  0  0
   41.5503    7.9625    0.0580 C   0  0  2  0  0  0  0  0  0  0  0  0
   42.3197    8.5248    1.1972 O   0  0  0  0  0  0  0  0  0  0  0  0
   42.4304    3.9376   -2.7622 C   0  0  2  0  0  0  0  0  0  0  0  0
   45.6632    5.7624   -6.3025 C   0  0  2  0  0  0  0  0  0  0  0  0
   45.4670    4.8630   -5.3092 O   0  0  0  0  0  0  0  0  0  0  0  0
   45.6148    9.9687  -10.1481 C   0  0  2  0  0  0  0  0  0  0  0  0
   47.0447    9.6239   -9.9817 O   0  0  0  0  0  0  0  0  0  0  0  0
   41.2881    6.4461    0.3436 C   0  0  2  0  0  0  0  0  0  0  0  0
   40.5468    5.9653   -0.8069 O   0  0  0  0  0  0  0  0  0  0  0  0
   43.8769    3.3623   -2.9337 C   0  0  2  0  0  0  0  0  0  0  0  0
   44.4760    4.2880   -3.8078 O   0  0  0  0  0  0  0  0  0  0  0  0
   47.0754    6.4056   -6.0424 C   0  0  0  0  0  0  0  0  0  0  0  0
   48.1009    5.6203   -6.7287 O   0  0  0  0  0  0  0  0  0  0  0  0
   45.1705   10.8844   -8.9221 C   0  0  1  0  0  0  0  0  0  0  0  0
   45.2917   10.0379   -7.6721 O   0  0  0  0  0  0  0  0  0  0  0  0
   40.5318    6.3716    1.6078 C   0  0  0  0  0  0  0  0  0  0  0  0
   41.3122    6.7150    2.6414 O   0  0  0  0  0  0  0  0  0  0  0  0
   43.8355    1.8939   -3.5375 C   0  0  1  0  0  0  0  0  0  0  0  0
   45.1286    1.3892   -3.6772 O   0  0  0  0  0  0  0  0  0  0  0  0
   41.3640    4.1361   -6.6680 C   0  0  0  0  0  0  0  0  0  0  0  0
   46.1323   12.1202   -8.9520 C   0  0  0  0  0  0  0  0  0  0  0  0
   46.0450   12.8674  -10.1737 N   0  0  0  0  0  0  0  0  0  0  0  0
   41.7562    3.0047   -5.7166 C   0  0  0  0  0  0  0  0  0  0  0  0
   41.8211    1.7720   -6.5255 N   0  0  0  0  0  0  0  0  0  0  0  0
   41.3705    0.4600   -5.8799 C   0  0  0  0  0  0  0  0  0  0  0  0
  1  2  1  1  0  0  0
  1  8  1  0  0  0  0
  1 33  1  0  0  0  0
  3  4  1  6  0  0  0
  3 10  1  0  0  0  0
  3 42  1  0  0  0  0
  5 11  1  0  0  0  0
  5 29  1  0  0  0  0
  5 35  1  1  0  0  0
  6 13  1  0  0  0  0
  6 39  1  0  0  0  0
  6 22  1  1  0  0  0
  7 15  1  0  0  0  0
  8  9  1  6  0  0  0
  8 17  1  0  0  0  0
 10 19  1  0  0  0  0
 11 12  1  6  0  0  0
 11 21  1  0  0  0  0
 12 44  1  0  0  0  0
 13 14  1  1  0  0  0
 13 23  1  0  0  0  0
 15 16  1  0  0  0  0
 17 18  1  6  0  0  0
 17 25  1  0  0  0  0
 19 20  1  6  0  0  0
 19 27  1  0  0  0  0
 21 22  1  6  0  0  0
 21 28  1  0  0  0  0
 23 24  1  1  0  0  0
 23 30  1  0  0  0  0
 25 26  1  1  0  0  0
 25 32  1  0  0  0  0
 27  2  1  1  0  0  0
 27 34  1  0  0  0  0
 28 29  1  0  0  0  0
 28 36  1  1  0  0  0
 30 31  1  1  0  0  0
 30 38  1  0  0  0  0
 32 33  1  0  0  0  0
 32 40  1  1  0  0  0
 34 35  1  6  0  0  0
 34 42  1  0  0  0  0
 36 37  1  0  0  0  0
 38 39  1  0  0  0  0
 38 45  1  1  0  0  0
 40 41  1  0  0  0  0
 42 43  1  1  0  0  0
 44 47  1  0  0  0  0
 45 46  1  0  0  0  0
 47 48  1  0  0  0  0
 48 49  1  0  0  0  0
 49  7  1  0  0  0  0
M  END
>  <CHROM.1>
-142.98500745,74.78427888,-40.06550960,67.82258088,72.18216555,-58.00120010
-77.06139318,-68.61233737,-156.76137738,-69.97449316,-50.95461184,60.03433020
-108.20609268,-144.26911462,154.32845836,-174.17585840,43.28249712,5.63196430
-4.82822015,2.95382916,-1.15625662,-2.53088580

>  <Name>
2bee_lig

>  <RI>
3.71943e+07

>  <Rbt.Current_Directory>
/home/itssahil/PROJECTS/Mol_Feturizer/New_Systems/rnas/2bee

>  <Rbt.Executable>
rbdock ($Id: //depot/dev/client3/rdock/2013.1/src/exe/rbdock.cxx#4 $)

>  <Rbt.Library>
libRbt.so (2013.1, Build901 2013/11/27)

>  <Rbt.Parameter_File>
/export/apps/rDock/src/rDock_2013.1_src/data/scripts/dock_solv.prm

>  <Rbt.Receptor>
prm/pocket_docking_2.prm

>  <SCORE>
0.876557

>  <SCORE.INTER>
-3.36637

>  <SCORE.INTER.CONST>
1

>  <SCORE.INTER.POLAR>
-1.59081

>  <SCORE.INTER.ROT>
16

>  <SCORE.INTER.SOLV>
12.9791

>  <SCORE.INTER.VDW>
-15.5346

>  <SCORE.INTER.norm>
-0.0687014

>  <SCORE.INTRA>
-0.881049

>  <SCORE.INTRA.DIHEDRAL>
-13.0827

>  <SCORE.INTRA.DIHEDRAL.0>
36.0842

>  <SCORE.INTRA.POLAR>
0

>  <SCORE.INTRA.POLAR.0>
0

>  <SCORE.INTRA.REPUL>
0

>  <SCORE.INTRA.REPUL.0>
0

>  <SCORE.INTRA.SOLV>
7.02881

>  <SCORE.INTRA.SOLV.lig_0>
-126.444

>  <SCORE.INTRA.VDW>
2.14588

>  <SCORE.INTRA.VDW.0>
-7.40469

>  <SCORE.INTRA.norm>
-0.0179806

>  <SCORE.RESTR>
5.12397

>  <SCORE.RESTR.CAVITY>
5.12397

>  <SCORE.RESTR.norm>
0.104571

>  <SCORE.SYSTEM>
0

>  <SCORE.SYSTEM.CONST>
0

>  <SCORE.SYSTEM.DIHEDRAL>
0

>  <SCORE.SYSTEM.SOLV>
0

>  <SCORE.SYSTEM.norm>
0

>  <SCORE.heavy>
49

>  <SCORE.norm>
0.0178889

>  <RMSD>
8.001

$$$$
2bee_lig
 OpenBabel11021811423D
libRbt.so/2013.1/901 2013/11/27
 49 52  0  0  0  0  0  0  0  0999 V2000
   44.5589   13.2338  -12.3690 C   0  0  2  0  0  0  0  0  0  0  0  0
   44.5672   12.4459  -11.1853 O   0  0  0  0  0  0  0  0  0  0  0  0
   48.7859   12.6579   -9.9473 C   0  0  2  0  0  0  0  0  0  0  0  0
   49.9793   12.6691   -9.0582 N   0  0  0  0  0  0  0  0  0  0  0  0
   46.1295    9.0249   -9.9868 C   0  0  1  0  0  0  0  0  0  0  0  0
   44.0283    6.9660   -6.2709 C   0  0  1  0  0  0  0  0  0  0  0  0
   52.0931    5.1774   -6.5454 C   0  0  0  0  0  0  0  0  0  0  0  0
   43.3228   14.2141  -12.3662 C   0  0  2  0  0  0  0  0  0  0  0  0
   43.3244   15.0173  -11.1482 N   0  0  0  0  0  0  0  0  0  0  0  0
   47.7687   13.7963   -9.4812 C   0  0  0  0  0  0  0  0  0  0  0  0
   46.3113    8.3424   -8.6701 C   0  0  2  0  0  0  0  0  0  0  0  0
   47.4549    7.4138   -8.6577 O   0  0  0  0  0  0  0  0  0  0  0  0
   42.9150    5.7865   -6.2521 C   0  0  2  0  0  0  0  0  0  0  0  0
   41.5789    6.4013   -6.5519 N   0  0  0  0  0  0  0  0  0  0  0  0
   51.6015    4.1359   -7.3667 C   0  0  0  0  0  0  0  0  0  0  0  0
   52.0656    2.8344   -7.1900 N   0  0  0  0  0  0  0  0  0  0  0  0
   41.9818   13.3695  -12.5092 C   0  0  1  0  0  0  0  0  0  0  0  0
   40.8756   14.2601  -12.5104 O   0  0  0  0  0  0  0  0  0  0  0  0
   46.4355   13.8076  -10.4268 C   0  0  2  0  0  0  0  0  0  0  0  0
   45.5259   14.8260  -10.0246 N   0  0  0  0  0  0  0  0  0  0  0  0
   44.8895    7.8551   -8.5299 C   0  0  2  0  0  0  0  0  0  0  0  0
   43.9300    7.5564   -7.5891 O   0  0  0  0  0  0  0  0  0  0  0  0
   42.9164    5.1250   -4.8278 C   0  0  1  0  0  0  0  0  0  0  0  0
   44.2473    4.5362   -4.6186 O   0  0  0  0  0  0  0  0  0  0  0  0
   42.0399   12.5470  -13.8174 C   0  0  2  0  0  0  0  0  0  0  0  0
   40.8108   11.7297  -13.9829 O   0  0  0  0  0  0  0  0  0  0  0  0
   45.7208   12.4020  -10.3610 C   0  0  2  0  0  0  0  0  0  0  0  0
   44.4865    7.4917  -10.0442 C   0  0  2  0  0  0  0  0  0  0  0  0
   45.0759    8.4939  -10.7388 O   0  0  0  0  0  0  0  0  0  0  0  0
   42.5806    6.2640   -3.7083 C   0  0  2  0  0  0  0  0  0  0  0  0
   41.2399    6.8510   -3.9305 O   0  0  0  0  0  0  0  0  0  0  0  0
   43.2731   11.5831  -13.8108 C   0  0  2  0  0  0  0  0  0  0  0  0
   44.4275   12.4442  -13.6369 O   0  0  0  0  0  0  0  0  0  0  0  0
   46.7591   11.3246  -10.8231 C   0  0  2  0  0  0  0  0  0  0  0  0
   46.0188   10.1303  -10.7493 O   0  0  0  0  0  0  0  0  0  0  0  0
   42.9614    7.5254  -10.4301 C   0  0  0  0  0  0  0  0  0  0  0  0
   42.5686    8.8999  -10.7397 O   0  0  0  0  0  0  0  0  0  0  0  0
   43.6610    7.4333   -3.7760 C   0  0  1  0  0  0  0  0  0  0  0  0
   43.6322    7.9797   -5.1882 O   0  0  0  0  0  0  0  0  0  0  0  0
   43.2616   10.8619  -15.0975 C   0  0  0  0  0  0  0  0  0  0  0  0
   43.5610   11.6944  -16.1038 O   0  0  0  0  0  0  0  0  0  0  0  0
   48.0284   11.3137   -9.8685 C   0  0  1  0  0  0  0  0  0  0  0  0
   48.9494   10.3566  -10.2952 O   0  0  0  0  0  0  0  0  0  0  0  0
   47.7388    6.4326   -7.5976 C   0  0  0  0  0  0  0  0  0  0  0  0
   43.2282    8.4676   -2.6824 C   0  0  0  0  0  0  0  0  0  0  0  0
   43.8712    9.7415   -2.8317 N   0  0  0  0  0  0  0  0  0  0  0  0
   49.1849    5.9524   -7.7289 C   0  0  0  0  0  0  0  0  0  0  0  0
   49.9252    6.5137   -6.5822 N   0  0  0  0  0  0  0  0  0  0  0  0
   51.4467    6.6318   -6.6930 C   0  0  0  0  0  0  0  0  0  0  0  0
  1  2  1  1  0  0  0
  1  8  1  0  0  0  0
  1 33  1  0  0  0  0
  3  4  1  1  0  0  0
  3 10  1  0  0  0  0
  3 42  1  0  0  0  0
  5 11  1  0  0  0  0
  5 29  1  0  0  0  0
  5 35  1  1  0  0  0
  6 13  1  0  0  0  0
  6 39  1  0  0  0  0
  6 22  1  6  0  0  0
  7 15  1  0  0  0  0
  8  9  1  1  0  0  0
  8 17  1  0  0  0  0
 10 19  1  0  0  0  0
 11 12  1  6  0  0  0
 11 21  1  0  0  0  0
 12 44  1  0  0  0  0
 13 14  1  1  0  0  0
 13 23  1  0  0  0  0
 15 16  1  0  0  0  0
 17 18  1  6  0  0  0
 17 25  1  0  0  0  0
 19 20  1  1  0  0  0
 19 27  1  0  0  0  0
 21 22  1  1  0  0  0
 21 28  1  0  0  0  0
 23 24  1  1  0  0  0
 23 30  1  0  0  0  0
 25 26  1  1  0  0  0
 25 32  1  0  0  0  0
 27  2  1  6  0  0  0
 27 34  1  0  0  0  0
 28 29  1  0  0  0  0
 28 36  1  1  0  0  0
 30 31  1  6  0  0  0
 30 38  1  0  0  0  0
 32 33  1  0  0  0  0
 32 40  1  6  0  0  0
 34 35  1  1  0  0  0
 34 42  1  0  0  0  0
 36 37  1  0  0  0  0
 38 39  1  0  0  0  0
 38 45  1  1  0  0  0
 40 41  1  0  0  0  0
 42 43  1  6  0  0  0
 44 47  1  0  0  0  0
 45 46  1  0  0  0  0
 47 48  1  0  0  0  0
 48 49  1  0  0  0  0
 49  7  1  0  0  0  0
M  END
>  <CHROM.1>
-126.37085701,47.04645585,-130.71617872,-174.84128308,-168.59759158,-163.83296704
-35.84056146,33.10707971,83.00280331,69.66004788,-115.06227009,-164.61599114
109.89929647,-158.63044031,-74.34903144,51.73802825,45.31028736,9.43008844
-9.11583465,-1.88330234,-0.15117848,2.30007716

>  <Name>
2bee_lig

>  <RI>
0

>  <Rbt.Current_Directory>
/home/itssahil/PROJECTS/Mol_Feturizer/New_Systems/rnas/2bee

>  <Rbt.Executable>
rbdock ($Id: //depot/dev/client3/rdock/2013.1/src/exe/rbdock.cxx#4 $)

>  <Rbt.Library>
libRbt.so (2013.1, Build901 2013/11/27)

>  <Rbt.Parameter_File>
/export/apps/rDock/src/rDock_2013.1_src/data/scripts/dock_solv.prm

>  <Rbt.Receptor>
prm/blind_docking_60.prm

>  <SCORE>
36.7704

>  <SCORE.INTER>
-0.809961

>  <SCORE.INTER.CONST>
1

>  <SCORE.INTER.POLAR>
-1.07725

>  <SCORE.INTER.ROT>
16

>  <SCORE.INTER.SOLV>
37.4983

>  <SCORE.INTER.VDW>
-23.7152

>  <SCORE.INTER.norm>
-0.0165298

>  <SCORE.INTRA>
8.20663

>  <SCORE.INTRA.DIHEDRAL>
3.84403

>  <SCORE.INTRA.DIHEDRAL.0>
36.0842

>  <SCORE.INTRA.POLAR>
0

>  <SCORE.INTRA.POLAR.0>
0

>  <SCORE.INTRA.REPUL>
0.178218

>  <SCORE.INTRA.REPUL.0>
0

>  <SCORE.INTRA.SOLV>
0.545029

>  <SCORE.INTRA.SOLV.lig_0>
-126.444

>  <SCORE.INTRA.VDW>
5.121

>  <SCORE.INTRA.VDW.0>
-7.40469

>  <SCORE.INTRA.norm>
0.167482

>  <SCORE.RESTR>
29.3737

>  <SCORE.RESTR.CAVITY>
29.3737

>  <SCORE.RESTR.norm>
0.599464

>  <SCORE.SYSTEM>
0

>  <SCORE.SYSTEM.CONST>
0

>  <SCORE.SYSTEM.DIHEDRAL>
0

>  <SCORE.SYSTEM.SOLV>
0

>  <SCORE.SYSTEM.norm>
0

>  <SCORE.heavy>
49

>  <SCORE.norm>
0.750417

>  <RMSD>
8.008

$$$$
2bee_lig
 OpenBabel11021811423D
libRbt.so/2013.1/901 2013/11/27
 49 52  0  0  0  0  0  0  0  0999 V2000
   43.1923   10.9714  -12.8142 C   0  0  2  0  0  0  0  0  0  0  0  0
   44.4197   11.6733  -12.6633 O   0  0  0  0  0  0  0  0  0  0  0  0
   46.8899   13.4759   -9.4974 C   0  0  2  0  0  0  0  0  0  0  0  0
   47.2579   14.0644   -8.1809 N   0  0  0  0  0  0  0  0  0  0  0  0
   45.9087    9.0182   -9.9633 C   0  0  1  0  0  0  0  0  0  0  0  0
   45.0298    7.2082   -5.7195 C   0  0  1  0  0  0  0  0  0  0  0  0
   50.1490    4.9294   -5.6488 C   0  0  0  0  0  0  0  0  0  0  0  0
   42.7521   10.9566  -14.3291 C   0  0  2  0  0  0  0  0  0  0  0  0
   43.8240   10.4125  -15.1559 N   0  0  0  0  0  0  0  0  0  0  0  0
   45.6883   14.3125  -10.1331 C   0  0  0  0  0  0  0  0  0  0  0  0
   46.4818    8.3817   -8.7389 C   0  0  2  0  0  0  0  0  0  0  0  0
   47.6485    7.5296   -9.0271 O   0  0  0  0  0  0  0  0  0  0  0  0
   45.6224    5.6993   -5.7769 C   0  0  2  0  0  0  0  0  0  0  0  0
   44.5185    4.7811   -6.2145 N   0  0  0  0  0  0  0  0  0  0  0  0
   51.3645    5.5417   -6.0342 C   0  0  0  0  0  0  0  0  0  0  0  0
   51.4220    6.2947   -7.2048 N   0  0  0  0  0  0  0  0  0  0  0  0
   42.3585   12.4321  -14.7765 C   0  0  1  0  0  0  0  0  0  0  0  0
   41.9595   12.4080  -16.1393 O   0  0  0  0  0  0  0  0  0  0  0  0
   45.2450   13.6880  -11.5771 C   0  0  2  0  0  0  0  0  0  0  0  0
   44.1794   14.4331  -12.1565 N   0  0  0  0  0  0  0  0  0  0  0  0
   45.1860    7.8070   -8.2199 C   0  0  2  0  0  0  0  0  0  0  0  0
   44.5352    7.4703   -7.0546 O   0  0  0  0  0  0  0  0  0  0  0  0
   46.1336    5.3116   -4.3436 C   0  0  1  0  0  0  0  0  0  0  0  0
   47.2172    6.2431   -3.9973 O   0  0  0  0  0  0  0  0  0  0  0  0
   41.2184   12.9482  -13.8682 C   0  0  2  0  0  0  0  0  0  0  0  0
   40.8298   14.3320  -14.2426 O   0  0  0  0  0  0  0  0  0  0  0  0
   44.8032   12.1835  -11.3966 C   0  0  2  0  0  0  0  0  0  0  0  0
   44.4197    7.3810   -9.5686 C   0  0  2  0  0  0  0  0  0  0  0  0
   44.7320    8.4016  -10.4021 O   0  0  0  0  0  0  0  0  0  0  0  0
   44.8937    5.4131   -3.2873 C   0  0  2  0  0  0  0  0  0  0  0  0
   43.8083    4.4731   -3.6475 O   0  0  0  0  0  0  0  0  0  0  0  0
   41.6649   12.9526  -12.3681 C   0  0  2  0  0  0  0  0  0  0  0  0
   42.0366   11.5807  -12.0782 O   0  0  0  0  0  0  0  0  0  0  0  0
   46.0122   11.4108  -10.7690 C   0  0  2  0  0  0  0  0  0  0  0  0
   45.5227   10.0949  -10.6755 O   0  0  0  0  0  0  0  0  0  0  0  0
   42.8485    7.3063   -9.5321 C   0  0  0  0  0  0  0  0  0  0  0  0
   42.3455    6.9962  -10.8702 O   0  0  0  0  0  0  0  0  0  0  0  0
   44.2994    6.8916   -3.2814 C   0  0  1  0  0  0  0  0  0  0  0  0
   43.8798    7.2045   -4.7026 O   0  0  0  0  0  0  0  0  0  0  0  0
   40.5150   13.4332  -11.5790 C   0  0  0  0  0  0  0  0  0  0  0  0
   39.8811   14.4193  -12.2278 O   0  0  0  0  0  0  0  0  0  0  0  0
   46.4003   12.0177   -9.3536 C   0  0  1  0  0  0  0  0  0  0  0  0
   47.4833   11.3271   -8.8090 O   0  0  0  0  0  0  0  0  0  0  0  0
   48.4496    6.8190   -8.0170 C   0  0  0  0  0  0  0  0  0  0  0  0
   43.1145    6.8629   -2.2575 C   0  0  0  0  0  0  0  0  0  0  0  0
   41.9183    7.4677   -2.7692 N   0  0  0  0  0  0  0  0  0  0  0  0
   47.8995    5.4028   -7.8419 C   0  0  0  0  0  0  0  0  0  0  0  0
   49.0549    4.4868   -7.9058 N   0  0  0  0  0  0  0  0  0  0  0  0
   49.5190    3.8185   -6.6099 C   0  0  0  0  0  0  0  0  0  0  0  0
  1  2  1  6  0  0  0
  1  8  1  0  0  0  0
  1 33  1  0  0  0  0
  3  4  1  1  0  0  0
  3 10  1  0  0  0  0
  3 42  1  0  0  0  0
  5 11  1  0  0  0  0
  5 29  1  0  0  0  0
  5 35  1  1  0  0  0
  6 13  1  0  0  0  0
  6 39  1  0  0  0  0
  6 22  1  6  0  0  0
  7 15  1  0  0  0  0
  8  9  1  6  0  0  0
  8 17  1  0  0  0  0
 10 19  1  0  0  0  0
 11 12  1  6  0  0  0
 11 21  1  0  0  0  0
 12 44  1  0  0  0  0
 13 14  1  1  0  0  0
 13 23  1  0  0  0  0
 15 16  1  0  0  0  0
 17 18  1  6  0  0  0
 17 25  1  0  0  0  0
 19 20  1  1  0  0  0
 19 27  1  0  0  0  0
 21 22  1  1  0  0  0
 21 28  1  0  0  0  0
 23 24  1  1  0  0  0
 23 30  1  0  0  0  0
 25 26  1  6  0  0  0
 25 32  1  0  0  0  0
 27  2  1  6  0  0  0
 27 34  1  0  0  0  0
 28 29  1  0  0  0  0
 28 36  1  1  0  0  0
 30 31  1  6  0  0  0
 30 38  1  0  0  0  0
 32 33  1  0  0  0  0
 32 40  1  1  0  0  0
 34 35  1  1  0  0  0
 34 42  1  0  0  0  0
 36 37  1  0  0  0  0
 38 39  1  0  0  0  0
 38 45  1  1  0  0  0
 40 41  1  0  0  0  0
 42 43  1  6  0  0  0
 44 47  1  0  0  0  0
 45 46  1  0  0  0  0
 47 48  1  0  0  0  0
 48 49  1  0  0  0  0
 49  7  1  0  0  0  0
M  END
>  <CHROM.1>
160.09963482,34.03123457,-78.17439039,62.64360182,177.48671949,92.85295143
-19.86521421,-131.28028112,176.06034036,-38.76494063,-161.85713510,-132.23733449
131.66008466,107.67735887,-68.74292950,-67.83010411,45.00127299,9.19616431
-9.06639506,-1.94904017,-0.19710831,2.23582234

>  <Name>
2bee_lig

>  <RI>
0

>  <Rbt.Current_Directory>
/home/itssahil/PROJECTS/Mol_Feturizer/New_Systems/rnas/2bee

>  <Rbt.Executable>
rbdock ($Id: //depot/dev/client3/rdock/2013.1/src/exe/rbdock.cxx#4 $)

>  <Rbt.Library>
libRbt.so (2013.1, Build901 2013/11/27)

>  <Rbt.Parameter_File>
/export/apps/rDock/src/rDock_2013.1_src/data/scripts/dock_solv.prm

>  <Rbt.Receptor>
prm/blind_docking_60.prm

>  <SCORE>
42.2013

>  <SCORE.INTER>
11.923

>  <SCORE.INTER.CONST>
1

>  <SCORE.INTER.POLAR>
0

>  <SCORE.INTER.ROT>
16

>  <SCORE.INTER.SOLV>
34.1147

>  <SCORE.INTER.VDW>
-17.6896

>  <SCORE.INTER.norm>
0.243326

>  <SCORE.INTRA>
6.30684

>  <SCORE.INTRA.DIHEDRAL>
-1.47625

>  <SCORE.INTRA.DIHEDRAL.0>
36.0842

>  <SCORE.INTRA.POLAR>
0

>  <SCORE.INTRA.POLAR.0>
0

>  <SCORE.INTRA.REPUL>
0

>  <SCORE.INTRA.REPUL.0>
0

>  <SCORE.INTRA.SOLV>
4.41587

>  <SCORE.INTRA.SOLV.lig_0>
-126.444

>  <SCORE.INTRA.VDW>
4.83703

>  <SCORE.INTRA.VDW.0>
-7.40469

>  <SCORE.INTRA.norm>
0.128711

>  <SCORE.RESTR>
23.9715

>  <SCORE.RESTR.CAVITY>
23.9715

>  <SCORE.RESTR.norm>
0.489215

>  <SCORE.SYSTEM>
0

>  <SCORE.SYSTEM.CONST>
0

>  <SCORE.SYSTEM.DIHEDRAL>
0

>  <SCORE.SYSTEM.SOLV>
0

>  <SCORE.SYSTEM.norm>
0

>  <SCORE.heavy>
49

>  <SCORE.norm>
0.861252

>  <RMSD>
8.010

$$$$
2bee_lig
 OpenBabel11021811423D
libRbt.so/2013.1/901 2013/11/27
 49 52  0  0  0  0  0  0  0  0999 V2000
   39.9981    0.2148   -3.4135 C   0  0  2  0  0  0  0  0  0  0  0  0
   40.8342   -0.7958   -3.9627 O   0  0  0  0  0  0  0  0  0  0  0  0
   44.9107   -0.4999   -5.5964 C   0  0  2  0  0  0  0  0  0  0  0  0
   46.0135   -0.1827   -6.5440 N   0  0  0  0  0  0  0  0  0  0  0  0
   42.6543    2.7336   -3.1808 C   0  0  1  0  0  0  0  0  0  0  0  0
   42.3120    5.3827    0.8210 C   0  0  1  0  0  0  0  0  0  0  0  0
   43.7396    7.5894   -7.5304 C   0  0  0  0  0  0  0  0  0  0  0  0
   38.8166   -0.4361   -2.5954 C   0  0  2  0  0  0  0  0  0  0  0  0
   39.3487   -1.3449   -1.5857 N   0  0  0  0  0  0  0  0  0  0  0  0
   43.8316   -1.4195   -6.3297 C   0  0  0  0  0  0  0  0  0  0  0  0
   42.3630    4.1313   -2.7403 C   0  0  2  0  0  0  0  0  0  0  0  0
   43.2222    5.1315   -3.3974 O   0  0  0  0  0  0  0  0  0  0  0  0
   41.2357    5.3472    2.0340 C   0  0  2  0  0  0  0  0  0  0  0  0
   39.8619    5.4727    1.4423 N   0  0  0  0  0  0  0  0  0  0  0  0
   44.9536    8.0405   -8.0993 C   0  0  0  0  0  0  0  0  0  0  0  0
   45.5259    9.2321   -7.6596 N   0  0  0  0  0  0  0  0  0  0  0  0
   37.8333   -1.1848   -3.5977 C   0  0  1  0  0  0  0  0  0  0  0  0
   36.7711   -1.7632   -2.8532 O   0  0  0  0  0  0  0  0  0  0  0  0
   42.5947   -1.7797   -5.3237 C   0  0  2  0  0  0  0  0  0  0  0  0
   41.6311   -2.6075   -5.9661 N   0  0  0  0  0  0  0  0  0  0  0  0
   42.4437    3.8654   -1.2565 C   0  0  2  0  0  0  0  0  0  0  0  0
   41.9382    4.2861   -0.0472 O   0  0  0  0  0  0  0  0  0  0  0  0
   41.5372    6.5475    3.0007 C   0  0  1  0  0  0  0  0  0  0  0  0
   42.8869    6.3429    3.5466 O   0  0  0  0  0  0  0  0  0  0  0  0
   37.3014   -0.1700   -4.6362 C   0  0  2  0  0  0  0  0  0  0  0  0
   36.3893   -0.8323   -5.6033 O   0  0  0  0  0  0  0  0  0  0  0  0
   41.9046   -0.4501   -4.8268 C   0  0  2  0  0  0  0  0  0  0  0  0
   43.6238    2.7772   -1.1532 C   0  0  2  0  0  0  0  0  0  0  0  0
   43.3863    2.0029   -2.2386 O   0  0  0  0  0  0  0  0  0  0  0  0
   41.4322    7.9462    2.1664 C   0  0  2  0  0  0  0  0  0  0  0  0
   40.0702    8.1399    1.6197 O   0  0  0  0  0  0  0  0  0  0  0  0
   38.4826    0.4730   -5.4368 C   0  0  2  0  0  0  0  0  0  0  0  0
   39.3312    1.0881   -4.4339 O   0  0  0  0  0  0  0  0  0  0  0  0
   43.0031    0.4141   -4.1205 C   0  0  2  0  0  0  0  0  0  0  0  0
   42.2826    1.5480   -3.7022 O   0  0  0  0  0  0  0  0  0  0  0  0
   43.6279    1.8088    0.0869 C   0  0  0  0  0  0  0  0  0  0  0  0
   44.7778    0.9093   -0.0026 O   0  0  0  0  0  0  0  0  0  0  0  0
   42.4663    7.9393    0.9540 C   0  0  1  0  0  0  0  0  0  0  0  0
   42.1413    6.7291    0.1035 O   0  0  0  0  0  0  0  0  0  0  0  0
   37.8872    1.4379   -6.3803 C   0  0  0  0  0  0  0  0  0  0  0  0
   38.8406    2.0152   -7.1239 O   0  0  0  0  0  0  0  0  0  0  0  0
   44.1755    0.7760   -5.1289 C   0  0  1  0  0  0  0  0  0  0  0  0
   45.1515    1.5380   -4.4862 O   0  0  0  0  0  0  0  0  0  0  0  0
   44.6909    5.0680   -3.4743 C   0  0  0  0  0  0  0  0  0  0  0  0
   42.2618    9.3083    0.2211 C   0  0  0  0  0  0  0  0  0  0  0  0
   43.1999    9.5180   -0.8441 N   0  0  0  0  0  0  0  0  0  0  0  0
   45.2145    6.3269   -4.1672 C   0  0  0  0  0  0  0  0  0  0  0  0
   44.6860    6.3050   -5.5450 N   0  0  0  0  0  0  0  0  0  0  0  0
   43.6736    7.3795   -5.9472 C   0  0  0  0  0  0  0  0  0  0  0  0
  1  2  1  6  0  0  0
  1  8  1  0  0  0  0
  1 33  1  0  0  0  0
  3  4  1  6  0  0  0
  3 10  1  0  0  0  0
  3 42  1  0  0  0  0
  5 11  1  0  0  0  0
  5 29  1  0  0  0  0
  5 35  1  1  0  0  0
  6 13  1  0  0  0  0
  6 39  1  0  0  0  0
  6 22  1  6  0  0  0
  7 15  1  0  0  0  0
  8  9  1  1  0  0  0
  8 17  1  0  0  0  0
 10 19  1  0  0  0  0
 11 12  1  6  0  0  0
 11 21  1  0  0  0  0
 12 44  1  0  0  0  0
 13 14  1  6  0  0  0
 13 23  1  0  0  0  0
 15 16  1  0  0  0  0
 17 18  1  1  0  0  0
 17 25  1  0  0  0  0
 19 20  1  6  0  0  0
 19 27  1  0  0  0  0
 21 22  1  1  0  0  0
 21 28  1  0  0  0  0
 23 24  1  6  0  0  0
 23 30  1  0  0  0  0
 25 26  1  6  0  0  0
 25 32  1  0  0  0  0
 27  2  1  1  0  0  0
 27 34  1  0  0  0  0
 28 29  1  0  0  0  0
 28 36  1  1  0  0  0
 30 31  1  6  0  0  0
 30 38  1  0  0  0  0
 32 33  1  0  0  0  0
 32 40  1  6  0  0  0
 34 35  1  6  0  0  0
 34 42  1  0  0  0  0
 36 37  1  0  0  0  0
 38 39  1  0  0  0  0
 38 45  1  6  0  0  0
 40 41  1  0  0  0  0
 42 43  1  1  0  0  0
 44 47  1  0  0  0  0
 45 46  1  0  0  0  0
 47 48  1  0  0  0  0
 48 49  1  0  0  0  0
 49  7  1  0  0  0  0
M  END
>  <CHROM.1>
175.04390091,170.95022508,176.57702933,-56.54533577,-50.90109175,-176.90586643
-83.19442750,-177.21321573,-179.64641576,-178.85447324,-170.82493740,175.19386501
-63.53307388,113.34328751,154.81594611,-61.81127104,41.96951622,3.10945364
-2.95026788,1.97761751,-0.88082941,-2.29349610

>  <Name>
2bee_lig

>  <RI>
0

>  <Rbt.Current_Directory>
/home/itssahil/PROJECTS/Mol_Feturizer/New_Systems/rnas/2bee

>  <Rbt.Executable>
rbdock ($Id: //depot/dev/client3/rdock/2013.1/src/exe/rbdock.cxx#4 $)

>  <Rbt.Library>
libRbt.so (2013.1, Build901 2013/11/27)

>  <Rbt.Parameter_File>
/export/apps/rDock/src/rDock_2013.1_src/data/scripts/dock_solv.prm

>  <Rbt.Receptor>
prm/pocket_docking_5.prm

>  <SCORE>
-15.1552

>  <SCORE.INTER>
-3.555

>  <SCORE.INTER.CONST>
1

>  <SCORE.INTER.POLAR>
-0.938083

>  <SCORE.INTER.ROT>
16

>  <SCORE.INTER.SOLV>
13.2963

>  <SCORE.INTER.VDW>
-17.9418

>  <SCORE.INTER.norm>
-0.072551

>  <SCORE.INTRA>
-11.6002

>  <SCORE.INTRA.DIHEDRAL>
-27.6741

>  <SCORE.INTRA.DIHEDRAL.0>
36.0842

>  <SCORE.INTRA.POLAR>
0

>  <SCORE.INTRA.POLAR.0>
0

>  <SCORE.INTRA.REPUL>
0

>  <SCORE.INTRA.REPUL.0>
0

>  <SCORE.INTRA.SOLV>
-3.63556

>  <SCORE.INTRA.SOLV.lig_0>
-126.444

>  <SCORE.INTRA.VDW>
4.05462

>  <SCORE.INTRA.VDW.0>
-7.40469

>  <SCORE.INTRA.norm>
-0.236739

>  <SCORE.RESTR>
0

>  <SCORE.RESTR.CAVITY>
0

>  <SCORE.RESTR.norm>
0

>  <SCORE.SYSTEM>
0

>  <SCORE.SYSTEM.CONST>
0

>  <SCORE.SYSTEM.DIHEDRAL>
0

>  <SCORE.SYSTEM.SOLV>
0

>  <SCORE.SYSTEM.norm>
0

>  <SCORE.heavy>
49

>  <SCORE.norm>
-0.30929

>  <RMSD>
8.017

$$$$
2bee_lig
 OpenBabel11021811423D
libRbt.so/2013.1/901 2013/11/27
 49 52  0  0  0  0  0  0  0  0999 V2000
   44.0239   11.3186  -12.0242 C   0  0  2  0  0  0  0  0  0  0  0  0
   44.8230   12.4892  -11.9095 O   0  0  0  0  0  0  0  0  0  0  0  0
   48.1450   13.5896   -9.2396 C   0  0  2  0  0  0  0  0  0  0  0  0
   48.8762   13.9165   -7.9853 N   0  0  0  0  0  0  0  0  0  0  0  0
   46.4052    9.4611   -9.7610 C   0  0  1  0  0  0  0  0  0  0  0  0
   44.0789    7.0937   -6.2807 C   0  0  1  0  0  0  0  0  0  0  0  0
   50.9351    5.4115   -5.7625 C   0  0  0  0  0  0  0  0  0  0  0  0
   44.1331   10.7211  -13.4803 C   0  0  2  0  0  0  0  0  0  0  0  0
   45.5324   10.4905  -13.8225 N   0  0  0  0  0  0  0  0  0  0  0  0
   46.9003   14.5762   -9.3984 C   0  0  0  0  0  0  0  0  0  0  0  0
   46.7656    8.8283   -8.4563 C   0  0  2  0  0  0  0  0  0  0  0  0
   47.8236    7.8112   -8.5841 O   0  0  0  0  0  0  0  0  0  0  0  0
   43.1867    7.6257   -5.0350 C   0  0  2  0  0  0  0  0  0  0  0  0
   44.0587    8.4916   -4.1730 N   0  0  0  0  0  0  0  0  0  0  0  0
   49.8870    4.8731   -4.9798 C   0  0  0  0  0  0  0  0  0  0  0  0
   50.1837    4.0976   -3.8613 N   0  0  0  0  0  0  0  0  0  0  0  0
   43.4341   11.7134  -14.5093 C   0  0  1  0  0  0  0  0  0  0  0  0
   43.5331   11.1653  -15.8157 O   0  0  0  0  0  0  0  0  0  0  0  0
   46.0618   14.2400  -10.7605 C   0  0  2  0  0  0  0  0  0  0  0  0
   44.9545   15.1210  -10.9158 N   0  0  0  0  0  0  0  0  0  0  0  0
   45.3590    8.4655   -8.0455 C   0  0  2  0  0  0  0  0  0  0  0  0
   44.5605    8.2903   -6.9380 O   0  0  0  0  0  0  0  0  0  0  0  0
   42.6671    6.3819   -4.2292 C   0  0  1  0  0  0  0  0  0  0  0  0
   41.8139    5.5980   -5.1342 O   0  0  0  0  0  0  0  0  0  0  0  0
   41.9573   11.9120  -14.0959 C   0  0  2  0  0  0  0  0  0  0  0  0
   41.2698   12.8463  -15.0236 O   0  0  0  0  0  0  0  0  0  0  0  0
   45.5502   12.7475  -10.7193 C   0  0  2  0  0  0  0  0  0  0  0  0
   44.6714    8.0659   -9.4437 C   0  0  2  0  0  0  0  0  0  0  0  0
   45.2005    8.9831  -10.2880 O   0  0  0  0  0  0  0  0  0  0  0  0
   43.9446    5.5124   -3.7044 C   0  0  2  0  0  0  0  0  0  0  0  0
   44.7972    6.3125   -2.7965 O   0  0  0  0  0  0  0  0  0  0  0  0
   41.8621   12.4993  -12.6481 C   0  0  2  0  0  0  0  0  0  0  0  0
   42.5581   11.5460  -11.8048 O   0  0  0  0  0  0  0  0  0  0  0  0
   46.8054   11.8246  -10.5598 C   0  0  2  0  0  0  0  0  0  0  0  0
   46.2425   10.5350  -10.5583 O   0  0  0  0  0  0  0  0  0  0  0  0
   43.1088    8.2056   -9.5639 C   0  0  0  0  0  0  0  0  0  0  0  0
   42.6581    7.5727  -10.8032 O   0  0  0  0  0  0  0  0  0  0  0  0
   44.8301    5.0392   -4.9418 C   0  0  1  0  0  0  0  0  0  0  0  0
   45.2452    6.2882   -5.6909 O   0  0  0  0  0  0  0  0  0  0  0  0
   40.4275   12.6318  -12.3318 C   0  0  0  0  0  0  0  0  0  0  0  0
   40.2570   13.3832  -11.2356 O   0  0  0  0  0  0  0  0  0  0  0  0
   47.5821   12.1510   -9.2135 C   0  0  1  0  0  0  0  0  0  0  0  0
   48.7023   11.3291   -9.0870 O   0  0  0  0  0  0  0  0  0  0  0  0
   48.0086    6.6623   -7.6825 C   0  0  0  0  0  0  0  0  0  0  0  0
   46.0255    4.2404   -4.3205 C   0  0  0  0  0  0  0  0  0  0  0  0
   47.1487    4.1352   -5.2070 N   0  0  0  0  0  0  0  0  0  0  0  0
   48.4287    5.4409   -8.5013 C   0  0  0  0  0  0  0  0  0  0  0  0
   49.7339    5.0016   -7.9707 N   0  0  0  0  0  0  0  0  0  0  0  0
   50.5782    6.0172   -7.1980 C   0  0  0  0  0  0  0  0  0  0  0  0
  1  2  1  6  0  0  0
  1  8  1  0  0  0  0
  1 33  1  0  0  0  0
  3  4  1  1  0  0  0
  3 10  1  0  0  0  0
  3 42  1  0  0  0  0
  5 11  1  0  0  0  0
  5 29  1  0  0  0  0
  5 35  1  1  0  0  0
  6 13  1  0  0  0  0
  6 39  1  0  0  0  0
  6 22  1  1  0  0  0
  7 15  1  0  0  0  0
  8  9  1  6  0  0  0
  8 17  1  0  0  0  0
 10 19  1  0  0  0  0
 11 12  1  6  0  0  0
 11 21  1  0  0  0  0
 12 44  1  0  0  0  0
 13 14  1  1  0  0  0
 13 23  1  0  0  0  0
 15 16  1  0  0  0  0
 17 18  1  6  0  0  0
 17 25  1  0  0  0  0
 19 20  1  1  0  0  0
 19 27  1  0  0  0  0
 21 22  1  1  0  0  0
 21 28  1  0  0  0  0
 23 24  1  6  0  0  0
 23 30  1  0  0  0  0
 25 26  1  6  0  0  0
 25 32  1  0  0  0  0
 27  2  1  6  0  0  0
 27 34  1  0  0  0  0
 28 29  1  0  0  0  0
 28 36  1  1  0  0  0
 30 31  1  1  0  0  0
 30 38  1  0  0  0  0
 32 33  1  0  0  0  0
 32 40  1  1  0  0  0
 34 35  1  1  0  0  0
 34 42  1  0  0  0  0
 36 37  1  0  0  0  0
 38 39  1  0  0  0  0
 38 45  1  1  0  0  0
 40 41  1  0  0  0  0
 42 43  1  6  0  0  0
 44 47  1  0  0  0  0
 45 46  1  0  0  0  0
 47 48  1  0  0  0  0
 48 49  1  0  0  0  0
 49  7  1  0  0  0  0
M  END
>  <CHROM.1>
-141.39763629,24.88902575,179.97501831,166.83396342,-153.05953880,141.64635465
-103.61949433,-167.34430097,-169.77610937,-166.92364301,-131.98506558,-159.72156904
121.22594281,-21.60578939,125.12591645,-49.81660988,45.39297601,9.23179268
-8.92787716,1.89315507,-0.10157658,-0.78622894

>  <Name>
2bee_lig

>  <RI>
0

>  <Rbt.Current_Directory>
/home/itssahil/PROJECTS/Mol_Feturizer/New_Systems/rnas/2bee

>  <Rbt.Executable>
rbdock ($Id: //depot/dev/client3/rdock/2013.1/src/exe/rbdock.cxx#4 $)

>  <Rbt.Library>
libRbt.so (2013.1, Build901 2013/11/27)

>  <Rbt.Parameter_File>
/export/apps/rDock/src/rDock_2013.1_src/data/scripts/dock_solv.prm

>  <Rbt.Receptor>
prm/blind_docking_60.prm

>  <SCORE>
17.3433

>  <SCORE.INTER>
-10.9924

>  <SCORE.INTER.CONST>
1

>  <SCORE.INTER.POLAR>
-2.0507

>  <SCORE.INTER.ROT>
16

>  <SCORE.INTER.SOLV>
38.813

>  <SCORE.INTER.VDW>
-27.6969

>  <SCORE.INTER.norm>
-0.224334

>  <SCORE.INTRA>
8.03443

>  <SCORE.INTRA.DIHEDRAL>
2.79564

>  <SCORE.INTRA.DIHEDRAL.0>
36.0842

>  <SCORE.INTRA.POLAR>
0

>  <SCORE.INTRA.POLAR.0>
0

>  <SCORE.INTRA.REPUL>
0

>  <SCORE.INTRA.REPUL.0>
0

>  <SCORE.INTRA.SOLV>
2.49304

>  <SCORE.INTRA.SOLV.lig_0>
-126.444

>  <SCORE.INTRA.VDW>
5.39009

>  <SCORE.INTRA.VDW.0>
-7.40469

>  <SCORE.INTRA.norm>
0.163968

>  <SCORE.RESTR>
20.3013

>  <SCORE.RESTR.CAVITY>
20.3013

>  <SCORE.RESTR.norm>
0.414311

>  <SCORE.SYSTEM>
0

>  <SCORE.SYSTEM.CONST>
0

>  <SCORE.SYSTEM.DIHEDRAL>
0

>  <SCORE.SYSTEM.SOLV>
0

>  <SCORE.SYSTEM.norm>
0

>  <SCORE.heavy>
49

>  <SCORE.norm>
0.353945

>  <RMSD>
8.028

$$$$
2bee_lig
 OpenBabel11021811423D
libRbt.so/2013.1/901 2013/11/27
 49 52  0  0  0  0  0  0  0  0999 V2000
   40.1742   -1.7078   -6.3406 C   0  0  2  0  0  0  0  0  0  0  0  0
   41.3419   -1.7207   -5.5291 O   0  0  0  0  0  0  0  0  0  0  0  0
   39.5612   -1.9330   -1.5093 C   0  0  2  0  0  0  0  0  0  0  0  0
   39.4575   -2.1410   -0.0394 N   0  0  0  0  0  0  0  0  0  0  0  0
   41.5181    1.7641   -3.7111 C   0  0  1  0  0  0  0  0  0  0  0  0
   43.1855    5.1958   -0.8017 C   0  0  1  0  0  0  0  0  0  0  0  0
   41.2041    5.4184   -8.6612 C   0  0  0  0  0  0  0  0  0  0  0  0
   40.5620   -1.4971   -7.8553 C   0  0  2  0  0  0  0  0  0  0  0  0
   41.5309   -2.5066   -8.2685 N   0  0  0  0  0  0  0  0  0  0  0  0
   40.1278   -3.2597   -2.1924 C   0  0  0  0  0  0  0  0  0  0  0  0
   40.9456    3.0423   -3.1904 C   0  0  2  0  0  0  0  0  0  0  0  0
   40.5119    3.9558   -4.2617 O   0  0  0  0  0  0  0  0  0  0  0  0
   42.7937    5.6164    0.7150 C   0  0  2  0  0  0  0  0  0  0  0  0
   41.3130    5.8579    0.7643 N   0  0  0  0  0  0  0  0  0  0  0  0
   42.3655    5.3640   -9.4668 C   0  0  0  0  0  0  0  0  0  0  0  0
   43.3037    6.3919   -9.4028 N   0  0  0  0  0  0  0  0  0  0  0  0
   41.1305   -0.0241   -8.0523 C   0  0  1  0  0  0  0  0  0  0  0  0
   41.4722    0.1577   -9.4188 O   0  0  0  0  0  0  0  0  0  0  0  0
   40.2692   -3.0666   -3.8092 C   0  0  2  0  0  0  0  0  0  0  0  0
   40.7655   -4.2482   -4.4289 N   0  0  0  0  0  0  0  0  0  0  0  0
   42.0926    3.3834   -2.2702 C   0  0  2  0  0  0  0  0  0  0  0  0
   42.3843    4.0243   -1.0873 O   0  0  0  0  0  0  0  0  0  0  0  0
   43.5832    6.9216    1.0881 C   0  0  1  0  0  0  0  0  0  0  0  0
   45.0165    6.5988    1.0316 O   0  0  0  0  0  0  0  0  0  0  0  0
   40.0584    0.9956   -7.6028 C   0  0  2  0  0  0  0  0  0  0  0  0
   40.5552    2.3869   -7.7559 O   0  0  0  0  0  0  0  0  0  0  0  0
   41.2355   -1.8583   -4.1213 C   0  0  2  0  0  0  0  0  0  0  0  0
   43.3753    2.8703   -3.0941 C   0  0  2  0  0  0  0  0  0  0  0  0
   42.9147    1.7201   -3.6409 O   0  0  0  0  0  0  0  0  0  0  0  0
   43.1916    8.1040    0.0336 C   0  0  2  0  0  0  0  0  0  0  0  0
   41.7465    8.4184    0.0978 O   0  0  0  0  0  0  0  0  0  0  0  0
   39.6780    0.7728   -6.1010 C   0  0  2  0  0  0  0  0  0  0  0  0
   39.2143   -0.5997   -6.0260 O   0  0  0  0  0  0  0  0  0  0  0  0
   40.6378   -0.5874   -3.4283 C   0  0  2  0  0  0  0  0  0  0  0  0
   41.5532    0.4193   -3.7869 O   0  0  0  0  0  0  0  0  0  0  0  0
   44.6678    2.4864   -2.2832 C   0  0  0  0  0  0  0  0  0  0  0  0
   45.6862    1.9801   -3.2030 O   0  0  0  0  0  0  0  0  0  0  0  0
   43.5438    7.6505   -1.4528 C   0  0  1  0  0  0  0  0  0  0  0  0
   42.7867    6.3649   -1.7132 O   0  0  0  0  0  0  0  0  0  0  0  0
   38.6401    1.7667   -5.7686 C   0  0  0  0  0  0  0  0  0  0  0  0
   38.3111    1.6849   -4.4723 O   0  0  0  0  0  0  0  0  0  0  0  0
   40.5419   -0.7907   -1.8561 C   0  0  1  0  0  0  0  0  0  0  0  0
   40.0003    0.3439   -1.2514 O   0  0  0  0  0  0  0  0  0  0  0  0
   39.5529    5.0604   -4.0974 C   0  0  0  0  0  0  0  0  0  0  0  0
   43.1094    8.8441   -2.3691 C   0  0  0  0  0  0  0  0  0  0  0  0
   44.1013    9.8777   -2.4490 N   0  0  0  0  0  0  0  0  0  0  0  0
   39.8872    6.1712   -5.0940 C   0  0  0  0  0  0  0  0  0  0  0  0
   39.9996    5.5332   -6.4200 N   0  0  0  0  0  0  0  0  0  0  0  0
   41.3815    5.4642   -7.0734 C   0  0  0  0  0  0  0  0  0  0  0  0
  1  2  1  1  0  0  0
  1  8  1  0  0  0  0
  1 33  1  0  0  0  0
  3  4  1  1  0  0  0
  3 10  1  0  0  0  0
  3 42  1  0  0  0  0
  5 11  1  0  0  0  0
  5 29  1  0  0  0  0
  5 35  1  1  0  0  0
  6 13  1  0  0  0  0
  6 39  1  0  0  0  0
  6 22  1  6  0  0  0
  7 15  1  0  0  0  0
  8  9  1  1  0  0  0
  8 17  1  0  0  0  0
 10 19  1  0  0  0  0
 11 12  1  6  0  0  0
 11 21  1  0  0  0  0
 12 44  1  0  0  0  0
 13 14  1  6  0  0  0
 13 23  1  0  0  0  0
 15 16  1  0  0  0  0
 17 18  1  6  0  0  0
 17 25  1  0  0  0  0
 19 20  1  6  0  0  0
 19 27  1  0  0  0  0
 21 22  1  6  0  0  0
 21 28  1  0  0  0  0
 23 24  1  6  0  0  0
 23 30  1  0  0  0  0
 25 26  1  1  0  0  0
 25 32  1  0  0  0  0
 27  2  1  6  0  0  0
 27 34  1  0  0  0  0
 28 29  1  0  0  0  0
 28 36  1  1  0  0  0
 30 31  1  6  0  0  0
 30 38  1  0  0  0  0
 32 33  1  0  0  0  0
 32 40  1  6  0  0  0
 34 35  1  1  0  0  0
 34 42  1  0  0  0  0
 36 37  1  0  0  0  0
 38 39  1  0  0  0  0
 38 45  1  6  0  0  0
 40 41  1  0  0  0  0
 42 43  1  1  0  0  0
 44 47  1  0  0  0  0
 45 46  1  0  0  0  0
 47 48  1  0  0  0  0
 48 49  1  0  0  0  0
 49  7  1  0  0  0  0
M  END
>  <CHROM.1>
178.15763926,15.97771453,165.76517883,-60.22908384,159.66691021,150.23975405
-115.77933717,48.44148531,176.97506849,-176.74419087,167.12383660,83.22958096
50.96172847,-111.31834191,-153.02705693,179.44835304,41.49722105,2.60440243
-3.91594454,3.13586027,1.30426944,2.06080157

>  <Name>
2bee_lig

>  <RI>
0

>  <Rbt.Current_Directory>
/home/itssahil/PROJECTS/Mol_Feturizer/New_Systems/rnas/2bee

>  <Rbt.Executable>
rbdock ($Id: //depot/dev/client3/rdock/2013.1/src/exe/rbdock.cxx#4 $)

>  <Rbt.Library>
libRbt.so (2013.1, Build901 2013/11/27)

>  <Rbt.Parameter_File>
/export/apps/rDock/src/rDock_2013.1_src/data/scripts/dock_solv.prm

>  <Rbt.Receptor>
prm/pocket_docking_6.prm

>  <SCORE>
-13.5768

>  <SCORE.INTER>
-3.4487

>  <SCORE.INTER.CONST>
1

>  <SCORE.INTER.POLAR>
-0.979796

>  <SCORE.INTER.ROT>
16

>  <SCORE.INTER.SOLV>
16.4716

>  <SCORE.INTER.VDW>
-18.7903

>  <SCORE.INTER.norm>
-0.0703817

>  <SCORE.INTRA>
-10.1281

>  <SCORE.INTRA.DIHEDRAL>
-16.284

>  <SCORE.INTRA.DIHEDRAL.0>
36.0842

>  <SCORE.INTRA.POLAR>
0

>  <SCORE.INTRA.POLAR.0>
0

>  <SCORE.INTRA.REPUL>
0

>  <SCORE.INTRA.REPUL.0>
0

>  <SCORE.INTRA.SOLV>
-1.1178

>  <SCORE.INTRA.SOLV.lig_0>
-126.444

>  <SCORE.INTRA.VDW>
-1.4272

>  <SCORE.INTRA.VDW.0>
-7.40469

>  <SCORE.INTRA.norm>
-0.206696

>  <SCORE.RESTR>
0

>  <SCORE.RESTR.CAVITY>
0

>  <SCORE.RESTR.norm>
0

>  <SCORE.SYSTEM>
0

>  <SCORE.SYSTEM.CONST>
0

>  <SCORE.SYSTEM.DIHEDRAL>
0

>  <SCORE.SYSTEM.SOLV>
0

>  <SCORE.SYSTEM.norm>
0

>  <SCORE.heavy>
49

>  <SCORE.norm>
-0.277078

>  <RMSD>
8.029

$$$$
2bee_lig
 OpenBabel11021811423D
libRbt.so/2013.1/901 2013/11/27
 49 52  0  0  0  0  0  0  0  0999 V2000
   48.5451   11.9840   -9.2240 C   0  0  2  0  0  0  0  0  0  0  0  0
   47.3584   12.3723   -9.9046 O   0  0  0  0  0  0  0  0  0  0  0  0
   43.7706   10.2540  -11.3240 C   0  0  2  0  0  0  0  0  0  0  0  0
   42.9338    9.2611  -12.0511 N   0  0  0  0  0  0  0  0  0  0  0  0
   46.3952    9.0513   -7.7591 C   0  0  1  0  0  0  0  0  0  0  0  0
   44.7737    4.8440   -8.5066 C   0  0  1  0  0  0  0  0  0  0  0  0
   41.3983    4.9852   -2.9967 C   0  0  0  0  0  0  0  0  0  0  0  0
   49.6307   13.1246   -9.3212 C   0  0  2  0  0  0  0  0  0  0  0  0
   49.0792   14.3830   -8.8305 N   0  0  0  0  0  0  0  0  0  0  0  0
   44.6897   11.0366  -12.3684 C   0  0  0  0  0  0  0  0  0  0  0  0
   45.6147    7.9826   -7.0655 C   0  0  2  0  0  0  0  0  0  0  0  0
   45.6365    8.1158   -5.5985 O   0  0  0  0  0  0  0  0  0  0  0  0
   44.5185    5.1219  -10.0842 C   0  0  2  0  0  0  0  0  0  0  0  0
   44.4665    6.6073  -10.2936 N   0  0  0  0  0  0  0  0  0  0  0  0
   40.4615    6.0430   -2.9307 C   0  0  0  0  0  0  0  0  0  0  0  0
   40.2073    6.6703   -1.7131 N   0  0  0  0  0  0  0  0  0  0  0  0
   50.1274   13.2504  -10.8277 C   0  0  1  0  0  0  0  0  0  0  0  0
   51.1071   14.2757  -10.9045 O   0  0  0  0  0  0  0  0  0  0  0  0
   45.6357   12.1296  -11.6056 C   0  0  2  0  0  0  0  0  0  0  0  0
   46.4530   12.8394  -12.5300 N   0  0  0  0  0  0  0  0  0  0  0  0
   46.2611    6.8129   -7.7675 C   0  0  2  0  0  0  0  0  0  0  0  0
   46.0109    5.5296   -8.1982 O   0  0  0  0  0  0  0  0  0  0  0  0
   43.1568    4.4543  -10.4921 C   0  0  1  0  0  0  0  0  0  0  0  0
   43.2946    3.0070  -10.2729 O   0  0  0  0  0  0  0  0  0  0  0  0
   50.7032   11.8902  -11.2852 C   0  0  2  0  0  0  0  0  0  0  0  0
   51.1655   11.9592  -12.6950 O   0  0  0  0  0  0  0  0  0  0  0  0
   46.5472   11.3999  -10.5436 C   0  0  2  0  0  0  0  0  0  0  0  0
   47.7871    7.2945   -7.9310 C   0  0  2  0  0  0  0  0  0  0  0  0
   47.6360    8.6070   -8.2288 O   0  0  0  0  0  0  0  0  0  0  0  0
   41.9571    5.0878   -9.5851 C   0  0  2  0  0  0  0  0  0  0  0  0
   41.8296    6.5450   -9.8123 O   0  0  0  0  0  0  0  0  0  0  0  0
   49.6191   10.7663  -11.1786 C   0  0  2  0  0  0  0  0  0  0  0  0
   49.2101   10.7636   -9.7868 O   0  0  0  0  0  0  0  0  0  0  0  0
   45.5999   10.6478   -9.5489 C   0  0  2  0  0  0  0  0  0  0  0  0
   46.5044   10.0608   -8.6449 O   0  0  0  0  0  0  0  0  0  0  0  0
   48.6359    6.6720   -9.1005 C   0  0  0  0  0  0  0  0  0  0  0  0
   48.7475    5.2268   -8.9041 O   0  0  0  0  0  0  0  0  0  0  0  0
   42.2520    4.8421   -8.0386 C   0  0  1  0  0  0  0  0  0  0  0  0
   43.5985    5.4682   -7.7410 O   0  0  0  0  0  0  0  0  0  0  0  0
   50.2597    9.5093  -11.6092 C   0  0  0  0  0  0  0  0  0  0  0  0
   49.9768    8.5210  -10.7498 O   0  0  0  0  0  0  0  0  0  0  0  0
   44.7164    9.5706  -10.3115 C   0  0  1  0  0  0  0  0  0  0  0  0
   43.8711    8.9138   -9.4168 O   0  0  0  0  0  0  0  0  0  0  0  0
   45.1464    7.1043   -4.6479 C   0  0  0  0  0  0  0  0  0  0  0  0
   41.0568    5.5048   -7.2736 C   0  0  0  0  0  0  0  0  0  0  0  0
   39.8953    5.6825   -8.0971 N   0  0  0  0  0  0  0  0  0  0  0  0
   43.7249    6.6945   -5.0357 C   0  0  0  0  0  0  0  0  0  0  0  0
   43.4771    5.3789   -4.4146 N   0  0  0  0  0  0  0  0  0  0  0  0
   42.9553    5.3461   -2.9765 C   0  0  0  0  0  0  0  0  0  0  0  0
  1  2  1  6  0  0  0
  1  8  1  0  0  0  0
  1 33  1  0  0  0  0
  3  4  1  6  0  0  0
  3 10  1  0  0  0  0
  3 42  1  0  0  0  0
  5 11  1  0  0  0  0
  5 29  1  0  0  0  0
  5 35  1  6  0  0  0
  6 13  1  0  0  0  0
  6 39  1  0  0  0  0
  6 22  1  1  0  0  0
  7 15  1  0  0  0  0
  8  9  1  6  0  0  0
  8 17  1  0  0  0  0
 10 19  1  0  0  0  0
 11 12  1  1  0  0  0
 11 21  1  0  0  0  0
 12 44  1  0  0  0  0
 13 14  1  1  0  0  0
 13 23  1  0  0  0  0
 15 16  1  0  0  0  0
 17 18  1  1  0  0  0
 17 25  1  0  0  0  0
 19 20  1  6  0  0  0
 19 27  1  0  0  0  0
 21 22  1  1  0  0  0
 21 28  1  0  0  0  0
 23 24  1  1  0  0  0
 23 30  1  0  0  0  0
 25 26  1  6  0  0  0
 25 32  1  0  0  0  0
 27  2  1  1  0  0  0
 27 34  1  0  0  0  0
 28 29  1  0  0  0  0
 28 36  1  6  0  0  0
 30 31  1  1  0  0  0
 30 38  1  0  0  0  0
 32 33  1  0  0  0  0
 32 40  1  1  0  0  0
 34 35  1  1  0  0  0
 34 42  1  0  0  0  0
 36 37  1  0  0  0  0
 38 39  1  0  0  0  0
 38 45  1  1  0  0  0
 40 41  1  0  0  0  0
 42 43  1  1  0  0  0
 44 47  1  0  0  0  0
 45 46  1  0  0  0  0
 47 48  1  0  0  0  0
 48 49  1  0  0  0  0
 49  7  1  0  0  0  0
M  END
>  <CHROM.1>
147.96236726,-1.32997087,90.02256449,-76.96262192,-169.69171914,-51.49336695
22.41953690,-160.23677763,-61.86067957,133.56640440,-161.62686530,20.65500040
159.21869099,86.49737732,104.30709791,-96.83466580,45.71452800,8.42932788
-8.77816483,-0.48923920,0.75076047,1.59948814

>  <Name>
2bee_lig

>  <RI>
0

>  <Rbt.Current_Directory>
/home/itssahil/PROJECTS/Mol_Feturizer/New_Systems/rnas/2bee

>  <Rbt.Executable>
rbdock ($Id: //depot/dev/client3/rdock/2013.1/src/exe/rbdock.cxx#4 $)

>  <Rbt.Library>
libRbt.so (2013.1, Build901 2013/11/27)

>  <Rbt.Parameter_File>
/export/apps/rDock/src/rDock_2013.1_src/data/scripts/dock_solv.prm

>  <Rbt.Receptor>
prm/blind_docking_100.prm

>  <SCORE>
61.0404

>  <SCORE.INTER>
21.9611

>  <SCORE.INTER.CONST>
1

>  <SCORE.INTER.POLAR>
-0.314059

>  <SCORE.INTER.ROT>
16

>  <SCORE.INTER.SOLV>
32.091

>  <SCORE.INTER.VDW>
-9.27604

>  <SCORE.INTER.norm>
0.448186

>  <SCORE.INTRA>
9.08743

>  <SCORE.INTRA.DIHEDRAL>
1.55265

>  <SCORE.INTRA.DIHEDRAL.0>
36.0842

>  <SCORE.INTRA.POLAR>
0

>  <SCORE.INTRA.POLAR.0>
0

>  <SCORE.INTRA.REPUL>
0.982249

>  <SCORE.INTRA.REPUL.0>
0

>  <SCORE.INTRA.SOLV>
5.70433

>  <SCORE.INTRA.SOLV.lig_0>
-126.444

>  <SCORE.INTRA.VDW>
0.547702

>  <SCORE.INTRA.VDW.0>
-7.40469

>  <SCORE.INTRA.norm>
0.185458

>  <SCORE.RESTR>
29.9918

>  <SCORE.RESTR.CAVITY>
29.9918

>  <SCORE.RESTR.norm>
0.612078

>  <SCORE.SYSTEM>
0

>  <SCORE.SYSTEM.CONST>
0

>  <SCORE.SYSTEM.DIHEDRAL>
0

>  <SCORE.SYSTEM.SOLV>
0

>  <SCORE.SYSTEM.norm>
0

>  <SCORE.heavy>
49

>  <SCORE.norm>
1.24572

>  <RMSD>
8.038

$$$$
2bee_lig
 OpenBabel11021811423D
libRbt.so/2013.1/901 2013/11/27
 49 52  0  0  0  0  0  0  0  0999 V2000
   44.1276   12.8216  -13.4480 C   0  0  2  0  0  0  0  0  0  0  0  0
   44.6151   11.8563  -12.5246 O   0  0  0  0  0  0  0  0  0  0  0  0
   48.8727   11.7758  -11.4110 C   0  0  2  0  0  0  0  0  0  0  0  0
   50.1274   12.0880  -10.6741 N   0  0  0  0  0  0  0  0  0  0  0  0
   45.5479    9.4015   -9.4080 C   0  0  1  0  0  0  0  0  0  0  0  0
   42.7612    6.7748   -6.5024 C   0  0  1  0  0  0  0  0  0  0  0  0
   50.0652    3.9270   -7.2114 C   0  0  0  0  0  0  0  0  0  0  0  0
   42.5877   13.0737  -13.2153 C   0  0  2  0  0  0  0  0  0  0  0  0
   42.3461   13.4436  -11.8249 N   0  0  0  0  0  0  0  0  0  0  0  0
   48.2227   13.1317  -11.9465 C   0  0  0  0  0  0  0  0  0  0  0  0
   45.2857    9.1184   -7.9645 C   0  0  2  0  0  0  0  0  0  0  0  0
   46.5011    8.7384   -7.2237 O   0  0  0  0  0  0  0  0  0  0  0  0
   42.5576    7.7265   -5.2048 C   0  0  2  0  0  0  0  0  0  0  0  0
   43.7841    8.5787   -5.0543 N   0  0  0  0  0  0  0  0  0  0  0  0
   51.1540    4.7063   -7.6674 C   0  0  0  0  0  0  0  0  0  0  0  0
   52.3027    4.0810   -8.1470 N   0  0  0  0  0  0  0  0  0  0  0  0
   41.7738   11.7690  -13.6244 C   0  0  1  0  0  0  0  0  0  0  0  0
   40.3892   12.0070  -13.4161 O   0  0  0  0  0  0  0  0  0  0  0  0
   46.8324   12.8318  -12.7519 C   0  0  2  0  0  0  0  0  0  0  0  0
   46.2496   14.0347  -13.2414 N   0  0  0  0  0  0  0  0  0  0  0  0
   44.1508    8.1472   -8.1820 C   0  0  2  0  0  0  0  0  0  0  0  0
   42.9896    7.6845   -7.6052 O   0  0  0  0  0  0  0  0  0  0  0  0
   42.3576    6.8115   -3.9443 C   0  0  1  0  0  0  0  0  0  0  0  0
   41.1349    6.0247   -4.1627 O   0  0  0  0  0  0  0  0  0  0  0  0
   42.0678   11.4336  -15.1051 C   0  0  2  0  0  0  0  0  0  0  0  0
   41.3379   10.2101  -15.5248 O   0  0  0  0  0  0  0  0  0  0  0  0
   45.8105   12.0965  -11.7999 C   0  0  2  0  0  0  0  0  0  0  0  0
   44.6010    7.3655   -9.5139 C   0  0  2  0  0  0  0  0  0  0  0  0
   45.1445    8.3619  -10.2528 O   0  0  0  0  0  0  0  0  0  0  0  0
   43.6657    5.8519   -3.7663 C   0  0  2  0  0  0  0  0  0  0  0  0
   44.8903    6.6549   -3.5497 O   0  0  0  0  0  0  0  0  0  0  0  0
   43.5985   11.1916  -15.3243 C   0  0  2  0  0  0  0  0  0  0  0  0
   44.2432   12.4153  -14.8867 O   0  0  0  0  0  0  0  0  0  0  0  0
   46.4961   10.7797  -11.3017 C   0  0  2  0  0  0  0  0  0  0  0  0
   45.5018   10.2010  -10.4915 O   0  0  0  0  0  0  0  0  0  0  0  0
   43.4772    6.7184  -10.4050 C   0  0  0  0  0  0  0  0  0  0  0  0
   44.0693    5.6957  -11.2670 O   0  0  0  0  0  0  0  0  0  0  0  0
   43.8714    4.9597   -5.0705 C   0  0  1  0  0  0  0  0  0  0  0  0
   44.0037    5.9120   -6.2406 O   0  0  0  0  0  0  0  0  0  0  0  0
   43.7869   10.9040  -16.7586 C   0  0  0  0  0  0  0  0  0  0  0  0
   43.3958    9.6540  -17.0410 O   0  0  0  0  0  0  0  0  0  0  0  0
   47.8260   11.1023  -10.4957 C   0  0  1  0  0  0  0  0  0  0  0  0
   48.4319    9.9218  -10.0649 O   0  0  0  0  0  0  0  0  0  0  0  0
   47.4817    7.7321   -7.6627 C   0  0  0  0  0  0  0  0  0  0  0  0
   45.1544    4.1046   -4.7951 C   0  0  0  0  0  0  0  0  0  0  0  0
   46.3031    4.9049   -4.4810 N   0  0  0  0  0  0  0  0  0  0  0  0
   46.9725    6.3376   -7.2951 C   0  0  0  0  0  0  0  0  0  0  0  0
   48.0293    5.3831   -7.6824 N   0  0  0  0  0  0  0  0  0  0  0  0
   48.8083    4.6779   -6.5701 C   0  0  0  0  0  0  0  0  0  0  0  0
  1  2  1  1  0  0  0
  1  8  1  0  0  0  0
  1 33  1  0  0  0  0
  3  4  1  1  0  0  0
  3 10  1  0  0  0  0
  3 42  1  0  0  0  0
  5 11  1  0  0  0  0
  5 29  1  0  0  0  0
  5 35  1  6  0  0  0
  6 13  1  0  0  0  0
  6 39  1  0  0  0  0
  6 22  1  6  0  0  0
  7 15  1  0  0  0  0
  8  9  1  1  0  0  0
  8 17  1  0  0  0  0
 10 19  1  0  0  0  0
 11 12  1  6  0  0  0
 11 21  1  0  0  0  0
 12 44  1  0  0  0  0
 13 14  1  1  0  0  0
 13 23  1  0  0  0  0
 15 16  1  0  0  0  0
 17 18  1  6  0  0  0
 17 25  1  0  0  0  0
 19 20  1  1  0  0  0
 19 27  1  0  0  0  0
 21 22  1  1  0  0  0
 21 28  1  0  0  0  0
 23 24  1  6  0  0  0
 23 30  1  0  0  0  0
 25 26  1  1  0  0  0
 25 32  1  0  0  0  0
 27  2  1  6  0  0  0
 27 34  1  0  0  0  0
 28 29  1  0  0  0  0
 28 36  1  6  0  0  0
 30 31  1  6  0  0  0
 30 38  1  0  0  0  0
 32 33  1  0  0  0  0
 32 40  1  6  0  0  0
 34 35  1  1  0  0  0
 34 42  1  0  0  0  0
 36 37  1  0  0  0  0
 38 39  1  0  0  0  0
 38 45  1  1  0  0  0
 40 41  1  0  0  0  0
 42 43  1  6  0  0  0
 44 47  1  0  0  0  0
 45 46  1  0  0  0  0
 47 48  1  0  0  0  0
 48 49  1  0  0  0  0
 49  7  1  0  0  0  0
M  END
>  <CHROM.1>
-132.30415891,116.91031552,95.64580252,175.60960739,-48.38417747,-81.90454742
-75.99424693,-37.88373844,-160.47753248,-76.21769518,-150.42046243,-56.29658323
-176.57803542,110.04773868,-169.13581754,72.42944395,45.19238341,8.85931887
-9.68653660,1.74913973,0.08512876,-0.94471210

>  <Name>
2bee_lig

>  <RI>
0

>  <Rbt.Current_Directory>
/home/itssahil/PROJECTS/Mol_Feturizer/New_Systems/rnas/2bee

>  <Rbt.Executable>
rbdock ($Id: //depot/dev/client3/rdock/2013.1/src/exe/rbdock.cxx#4 $)

>  <Rbt.Library>
libRbt.so (2013.1, Build901 2013/11/27)

>  <Rbt.Parameter_File>
/export/apps/rDock/src/rDock_2013.1_src/data/scripts/dock_solv.prm

>  <Rbt.Receptor>
prm/blind_docking_60.prm

>  <SCORE>
31.1698

>  <SCORE.INTER>
-0.00811877

>  <SCORE.INTER.CONST>
1

>  <SCORE.INTER.POLAR>
-1.92407

>  <SCORE.INTER.ROT>
16

>  <SCORE.INTER.SOLV>
28.1547

>  <SCORE.INTER.VDW>
-17.2434

>  <SCORE.INTER.norm>
-0.000165689

>  <SCORE.INTRA>
7.00923

>  <SCORE.INTRA.DIHEDRAL>
-1.68407

>  <SCORE.INTRA.DIHEDRAL.0>
36.0842

>  <SCORE.INTRA.POLAR>
0

>  <SCORE.INTRA.POLAR.0>
0

>  <SCORE.INTRA.REPUL>
0.00130122

>  <SCORE.INTRA.REPUL.0>
0

>  <SCORE.INTRA.SOLV>
4.57546

>  <SCORE.INTRA.SOLV.lig_0>
-126.444

>  <SCORE.INTRA.VDW>
5.55703

>  <SCORE.INTRA.VDW.0>
-7.40469

>  <SCORE.INTRA.norm>
0.143046

>  <SCORE.RESTR>
24.1687

>  <SCORE.RESTR.CAVITY>
24.1687

>  <SCORE.RESTR.norm>
0.493239

>  <SCORE.SYSTEM>
0

>  <SCORE.SYSTEM.CONST>
0

>  <SCORE.SYSTEM.DIHEDRAL>
0

>  <SCORE.SYSTEM.SOLV>
0

>  <SCORE.SYSTEM.norm>
0

>  <SCORE.heavy>
49

>  <SCORE.norm>
0.636118

>  <RMSD>
8.041

$$$$
2bee_lig
 OpenBabel11021811423D
libRbt.so/2013.1/901 2013/11/27
 49 52  0  0  0  0  0  0  0  0999 V2000
   43.4601    5.5608   -0.5041 C   0  0  2  0  0  0  0  0  0  0  0  0
   42.6192    4.5014   -0.9432 O   0  0  0  0  0  0  0  0  0  0  0  0
   45.5721    1.6958   -2.6115 C   0  0  2  0  0  0  0  0  0  0  0  0
   46.1219    0.5055   -3.3156 N   0  0  0  0  0  0  0  0  0  0  0  0
   42.3407    4.3911   -4.4572 C   0  0  1  0  0  0  0  0  0  0  0  0
   39.1931    1.0064   -4.5317 C   0  0  1  0  0  0  0  0  0  0  0  0
   44.0655    5.7779  -10.0482 C   0  0  0  0  0  0  0  0  0  0  0  0
   42.7227    6.4294    0.5871 C   0  0  2  0  0  0  0  0  0  0  0  0
   42.2643    5.5770    1.6788 N   0  0  0  0  0  0  0  0  0  0  0  0
   44.6014    1.2149   -1.4391 C   0  0  0  0  0  0  0  0  0  0  0  0
   41.5829    3.4743   -5.3616 C   0  0  2  0  0  0  0  0  0  0  0  0
   41.4443    4.0024   -6.7298 O   0  0  0  0  0  0  0  0  0  0  0  0
   37.8032    0.5685   -3.8194 C   0  0  2  0  0  0  0  0  0  0  0  0
   37.9628    0.7452   -2.3374 N   0  0  0  0  0  0  0  0  0  0  0  0
   43.8487    4.3808  -10.0048 C   0  0  0  0  0  0  0  0  0  0  0  0
   44.9304    3.5073  -10.0923 N   0  0  0  0  0  0  0  0  0  0  0  0
   41.5149    7.2118   -0.0920 C   0  0  1  0  0  0  0  0  0  0  0  0
   40.8605    7.9941    0.8963 O   0  0  0  0  0  0  0  0  0  0  0  0
   43.9653    2.4962   -0.6484 C   0  0  2  0  0  0  0  0  0  0  0  0
   43.1049    2.0774    0.4054 N   0  0  0  0  0  0  0  0  0  0  0  0
   40.3892    3.2865   -4.4568 C   0  0  2  0  0  0  0  0  0  0  0  0
   39.4134    2.3763   -4.1186 O   0  0  0  0  0  0  0  0  0  0  0  0
   37.5158   -0.9343   -4.1730 C   0  0  1  0  0  0  0  0  0  0  0  0
   37.3582   -1.0194   -5.6323 O   0  0  0  0  0  0  0  0  0  0  0  0
   42.0652    8.0979   -1.2336 C   0  0  2  0  0  0  0  0  0  0  0  0
   40.9659    8.8361   -1.9064 O   0  0  0  0  0  0  0  0  0  0  0  0
   43.1624    3.4042   -1.6594 C   0  0  2  0  0  0  0  0  0  0  0  0
   40.2259    4.7352   -3.7770 C   0  0  2  0  0  0  0  0  0  0  0  0
   41.5154    5.0962   -3.5745 O   0  0  0  0  0  0  0  0  0  0  0  0
   38.7572   -1.8546   -3.6481 C   0  0  2  0  0  0  0  0  0  0  0  0
   38.9076   -1.7589   -2.1785 O   0  0  0  0  0  0  0  0  0  0  0  0
   42.7993    7.2259   -2.3062 C   0  0  2  0  0  0  0  0  0  0  0  0
   43.8456    6.5314   -1.5801 O   0  0  0  0  0  0  0  0  0  0  0  0
   44.1561    3.8444   -2.7869 C   0  0  2  0  0  0  0  0  0  0  0  0
   43.3520    4.6569   -3.6075 O   0  0  0  0  0  0  0  0  0  0  0  0
   39.5197    4.8161   -2.3733 C   0  0  0  0  0  0  0  0  0  0  0  0
   40.0868    3.8020   -1.4848 O   0  0  0  0  0  0  0  0  0  0  0  0
   40.1176   -1.3771   -4.3267 C   0  0  1  0  0  0  0  0  0  0  0  0
   40.2928    0.0871   -3.9819 O   0  0  0  0  0  0  0  0  0  0  0  0
   43.3081    8.1506   -3.3367 C   0  0  0  0  0  0  0  0  0  0  0  0
   44.3157    8.8868   -2.8489 O   0  0  0  0  0  0  0  0  0  0  0  0
   44.7334    2.5823   -3.5590 C   0  0  1  0  0  0  0  0  0  0  0  0
   45.6233    2.9866   -4.5544 O   0  0  0  0  0  0  0  0  0  0  0  0
   40.6241    5.1638   -7.1112 C   0  0  0  0  0  0  0  0  0  0  0  0
   41.2297   -2.3093   -3.7373 C   0  0  0  0  0  0  0  0  0  0  0  0
   41.0922   -3.6757   -4.1528 N   0  0  0  0  0  0  0  0  0  0  0  0
   40.9319    5.5447   -8.5601 C   0  0  0  0  0  0  0  0  0  0  0  0
   42.1241    6.4140   -8.5272 N   0  0  0  0  0  0  0  0  0  0  0  0
   42.8106    6.7486   -9.8532 C   0  0  0  0  0  0  0  0  0  0  0  0
  1  2  1  6  0  0  0
  1  8  1  0  0  0  0
  1 33  1  0  0  0  0
  3  4  1  6  0  0  0
  3 10  1  0  0  0  0
  3 42  1  0  0  0  0
  5 11  1  0  0  0  0
  5 29  1  0  0  0  0
  5 35  1  1  0  0  0
  6 13  1  0  0  0  0
  6 39  1  0  0  0  0
  6 22  1  1  0  0  0
  7 15  1  0  0  0  0
  8  9  1  1  0  0  0
  8 17  1  0  0  0  0
 10 19  1  0  0  0  0
 11 12  1  6  0  0  0
 11 21  1  0  0  0  0
 12 44  1  0  0  0  0
 13 14  1  1  0  0  0
 13 23  1  0  0  0  0
 15 16  1  0  0  0  0
 17 18  1  1  0  0  0
 17 25  1  0  0  0  0
 19 20  1  1  0  0  0
 19 27  1  0  0  0  0
 21 22  1  6  0  0  0
 21 28  1  0  0  0  0
 23 24  1  6  0  0  0
 23 30  1  0  0  0  0
 25 26  1  6  0  0  0
 25 32  1  0  0  0  0
 27  2  1  1  0  0  0
 27 34  1  0  0  0  0
 28 29  1  0  0  0  0
 28 36  1  1  0  0  0
 30 31  1  1  0  0  0
 30 38  1  0  0  0  0
 32 33  1  0  0  0  0
 32 40  1  6  0  0  0
 34 35  1  6  0  0  0
 34 42  1  0  0  0  0
 36 37  1  0  0  0  0
 38 39  1  0  0  0  0
 38 45  1  1  0  0  0
 40 41  1  0  0  0  0
 42 43  1  6  0  0  0
 44 47  1  0  0  0  0
 45 46  1  0  0  0  0
 47 48  1  0  0  0  0
 48 49  1  0  0  0  0
 49  7  1  0  0  0  0
M  END
>  <CHROM.1>
-164.21383900,-23.20540564,-176.36131966,-176.23065164,-69.04058869,170.09958141
4.80774512,73.67348299,47.49817906,70.12478967,-71.38353271,66.90093175,-84.53082577
169.33983556,-98.29814819,55.92956646,41.85074026,3.56921123,-3.63925596
0.37183854,1.15676089,1.37383242

>  <Name>
2bee_lig

>  <RI>
3.46266e+07

>  <Rbt.Current_Directory>
/home/itssahil/PROJECTS/Mol_Feturizer/New_Systems/rnas/2bee

>  <Rbt.Executable>
rbdock ($Id: //depot/dev/client3/rdock/2013.1/src/exe/rbdock.cxx#4 $)

>  <Rbt.Library>
libRbt.so (2013.1, Build901 2013/11/27)

>  <Rbt.Parameter_File>
/export/apps/rDock/src/rDock_2013.1_src/data/scripts/dock_solv.prm

>  <Rbt.Receptor>
prm/pocket_docking_4.prm

>  <SCORE>
-16.0175

>  <SCORE.INTER>
-4.90876

>  <SCORE.INTER.CONST>
1

>  <SCORE.INTER.POLAR>
-0.984853

>  <SCORE.INTER.ROT>
16

>  <SCORE.INTER.SOLV>
13.8315

>  <SCORE.INTER.VDW>
-18.8668

>  <SCORE.INTER.norm>
-0.100179

>  <SCORE.INTRA>
-11.1087

>  <SCORE.INTRA.DIHEDRAL>
-20.9296

>  <SCORE.INTRA.DIHEDRAL.0>
36.0842

>  <SCORE.INTRA.POLAR>
0

>  <SCORE.INTRA.POLAR.0>
0

>  <SCORE.INTRA.REPUL>
0

>  <SCORE.INTRA.REPUL.0>
0

>  <SCORE.INTRA.SOLV>
0.0224021

>  <SCORE.INTRA.SOLV.lig_0>
-126.444

>  <SCORE.INTRA.VDW>
-0.65514

>  <SCORE.INTRA.VDW.0>
-7.40469

>  <SCORE.INTRA.norm>
-0.226709

>  <SCORE.RESTR>
0

>  <SCORE.RESTR.CAVITY>
0

>  <SCORE.RESTR.norm>
0

>  <SCORE.SYSTEM>
0

>  <SCORE.SYSTEM.CONST>
0

>  <SCORE.SYSTEM.DIHEDRAL>
0

>  <SCORE.SYSTEM.SOLV>
0

>  <SCORE.SYSTEM.norm>
0

>  <SCORE.heavy>
49

>  <SCORE.norm>
-0.326888

>  <RMSD>
8.050

$$$$
2bee_lig
 OpenBabel11021811423D
libRbt.so/2013.1/901 2013/11/27
 49 52  0  0  0  0  0  0  0  0999 V2000
   43.5806    6.6009   -2.7927 C   0  0  2  0  0  0  0  0  0  0  0  0
   44.9351    6.4011   -3.1768 O   0  0  0  0  0  0  0  0  0  0  0  0
   44.4937    4.1711   -6.9460 C   0  0  2  0  0  0  0  0  0  0  0  0
   44.8604    3.3474   -8.1300 N   0  0  0  0  0  0  0  0  0  0  0  0
   44.0051    2.5969   -2.5420 C   0  0  1  0  0  0  0  0  0  0  0  0
   43.6394   -1.1229   -4.9815 C   0  0  1  0  0  0  0  0  0  0  0  0
   38.8787   -2.8282   -2.2948 C   0  0  0  0  0  0  0  0  0  0  0  0
   43.4025    8.0224   -2.1318 C   0  0  2  0  0  0  0  0  0  0  0  0
   43.8972    9.0581   -3.0324 N   0  0  0  0  0  0  0  0  0  0  0  0
   45.4133    5.4751   -6.9038 C   0  0  0  0  0  0  0  0  0  0  0  0
   42.9191    1.5797   -2.4054 C   0  0  2  0  0  0  0  0  0  0  0  0
   42.2956    1.5811   -1.0707 O   0  0  0  0  0  0  0  0  0  0  0  0
   42.4185   -0.2903   -5.6501 C   0  0  2  0  0  0  0  0  0  0  0  0
   41.1459   -0.6995   -4.9673 N   0  0  0  0  0  0  0  0  0  0  0  0
   37.9068   -3.2724   -3.2214 C   0  0  0  0  0  0  0  0  0  0  0  0
   38.0678   -4.4988   -3.8623 N   0  0  0  0  0  0  0  0  0  0  0  0
   44.1612    8.0506   -0.7334 C   0  0  1  0  0  0  0  0  0  0  0  0
   43.9914    9.3316   -0.1442 O   0  0  0  0  0  0  0  0  0  0  0  0
   45.0496    6.4015   -5.6072 C   0  0  2  0  0  0  0  0  0  0  0  0
   45.8586    7.5720   -5.5658 N   0  0  0  0  0  0  0  0  0  0  0  0
   43.7201    0.4029   -2.9078 C   0  0  2  0  0  0  0  0  0  0  0  0
   43.5917   -0.7959   -3.5721 O   0  0  0  0  0  0  0  0  0  0  0  0
   42.3634   -0.6333   -7.1816 C   0  0  1  0  0  0  0  0  0  0  0  0
   43.6328   -0.1902   -7.7765 O   0  0  0  0  0  0  0  0  0  0  0  0
   43.5896    6.9366    0.1741 C   0  0  2  0  0  0  0  0  0  0  0  0
   44.2825    6.9175    1.4877 O   0  0  0  0  0  0  0  0  0  0  0  0
   45.2523    5.5696   -4.2813 C   0  0  2  0  0  0  0  0  0  0  0  0
   45.1909    0.6992   -2.3276 C   0  0  2  0  0  0  0  0  0  0  0  0
   45.2877    2.0411   -2.4825 O   0  0  0  0  0  0  0  0  0  0  0  0
   42.1437   -2.2403   -7.3627 C   0  0  2  0  0  0  0  0  0  0  0  0
   40.8644   -2.6749   -6.7580 O   0  0  0  0  0  0  0  0  0  0  0  0
   43.7668    5.5326   -0.4947 C   0  0  2  0  0  0  0  0  0  0  0  0
   43.0782    5.6285   -1.7679 O   0  0  0  0  0  0  0  0  0  0  0  0
   44.3339    4.3045   -4.3752 C   0  0  2  0  0  0  0  0  0  0  0  0
   44.5730    3.6574   -3.1488 O   0  0  0  0  0  0  0  0  0  0  0  0
   46.4219    0.0779   -3.0855 C   0  0  0  0  0  0  0  0  0  0  0  0
   47.6605    0.5234   -2.4478 O   0  0  0  0  0  0  0  0  0  0  0  0
   43.3308   -3.0377   -6.6597 C   0  0  1  0  0  0  0  0  0  0  0  0
   43.3475   -2.6133   -5.2060 O   0  0  0  0  0  0  0  0  0  0  0  0
   43.1760    4.5414    0.4241 C   0  0  0  0  0  0  0  0  0  0  0  0
   43.6803    3.3231    0.1859 O   0  0  0  0  0  0  0  0  0  0  0  0
   44.7302    3.4071   -5.6241 C   0  0  1  0  0  0  0  0  0  0  0  0
   43.9000    2.2886   -5.7020 O   0  0  0  0  0  0  0  0  0  0  0  0
   41.0136    0.9413   -0.7332 C   0  0  0  0  0  0  0  0  0  0  0  0
   43.0044   -4.5538   -6.8784 C   0  0  0  0  0  0  0  0  0  0  0  0
   44.1273   -5.4100   -6.6242 N   0  0  0  0  0  0  0  0  0  0  0  0
   41.0834   -0.5453   -1.0857 C   0  0  0  0  0  0  0  0  0  0  0  0
   39.8196   -1.1517   -0.6241 N   0  0  0  0  0  0  0  0  0  0  0  0
   38.7081   -1.3748   -1.6518 C   0  0  0  0  0  0  0  0  0  0  0  0
  1  2  1  1  0  0  0
  1  8  1  0  0  0  0
  1 33  1  0  0  0  0
  3  4  1  6  0  0  0
  3 10  1  0  0  0  0
  3 42  1  0  0  0  0
  5 11  1  0  0  0  0
  5 29  1  0  0  0  0
  5 35  1  6  0  0  0
  6 13  1  0  0  0  0
  6 39  1  0  0  0  0
  6 22  1  1  0  0  0
  7 15  1  0  0  0  0
  8  9  1  6  0  0  0
  8 17  1  0  0  0  0
 10 19  1  0  0  0  0
 11 12  1  1  0  0  0
 11 21  1  0  0  0  0
 12 44  1  0  0  0  0
 13 14  1  1  0  0  0
 13 23  1  0  0  0  0
 15 16  1  0  0  0  0
 17 18  1  1  0  0  0
 17 25  1  0  0  0  0
 19 20  1  1  0  0  0
 19 27  1  0  0  0  0
 21 22  1  1  0  0  0
 21 28  1  0  0  0  0
 23 24  1  6  0  0  0
 23 30  1  0  0  0  0
 25 26  1  1  0  0  0
 25 32  1  0  0  0  0
 27  2  1  1  0  0  0
 27 34  1  0  0  0  0
 28 29  1  0  0  0  0
 28 36  1  6  0  0  0
 30 31  1  1  0  0  0
 30 38  1  0  0  0  0
 32 33  1  0  0  0  0
 32 40  1  1  0  0  0
 34 35  1  1  0  0  0
 34 42  1  0  0  0  0
 36 37  1  0  0  0  0
 38 39  1  0  0  0  0
 38 45  1  1  0  0  0
 40 41  1  0  0  0  0
 42 43  1  6  0  0  0
 44 47  1  0  0  0  0
 45 46  1  0  0  0  0
 47 48  1  0  0  0  0
 48 49  1  0  0  0  0
 49  7  1  0  0  0  0
M  END
>  <CHROM.1>
-150.48093369,-12.79523034,-60.94878097,176.07375380,164.46367509,57.11234543
89.18292557,80.89491718,176.88218878,-158.22701129,172.14856791,164.60786421
175.39751561,98.67630237,90.20102132,176.50516956,43.28956992,2.01490090
-3.53009514,-1.08487870,-0.95981109,-2.43098807

>  <Name>
2bee_lig

>  <RI>
0

>  <Rbt.Current_Directory>
/home/itssahil/PROJECTS/Mol_Feturizer/New_Systems/rnas/2bee

>  <Rbt.Executable>
rbdock ($Id: //depot/dev/client3/rdock/2013.1/src/exe/rbdock.cxx#4 $)

>  <Rbt.Library>
libRbt.so (2013.1, Build901 2013/11/27)

>  <Rbt.Parameter_File>
/export/apps/rDock/src/rDock_2013.1_src/data/scripts/dock_solv.prm

>  <Rbt.Receptor>
prm/pocket_docking_8.prm

>  <SCORE>
-13.3982

>  <SCORE.INTER>
-5.58289

>  <SCORE.INTER.CONST>
1

>  <SCORE.INTER.POLAR>
-2.14981

>  <SCORE.INTER.ROT>
16

>  <SCORE.INTER.SOLV>
22.4102

>  <SCORE.INTER.VDW>
-18.2926

>  <SCORE.INTER.norm>
-0.113936

>  <SCORE.INTRA>
-7.81968

>  <SCORE.INTRA.DIHEDRAL>
-15.5125

>  <SCORE.INTRA.DIHEDRAL.0>
36.0842

>  <SCORE.INTRA.POLAR>
0

>  <SCORE.INTRA.POLAR.0>
0

>  <SCORE.INTRA.REPUL>
0.00729507

>  <SCORE.INTRA.REPUL.0>
0

>  <SCORE.INTRA.SOLV>
0.739448

>  <SCORE.INTRA.SOLV.lig_0>
-126.444

>  <SCORE.INTRA.VDW>
-0.469635

>  <SCORE.INTRA.VDW.0>
-7.40469

>  <SCORE.INTRA.norm>
-0.159585

>  <SCORE.RESTR>
0.0043752

>  <SCORE.RESTR.CAVITY>
0.0043752

>  <SCORE.RESTR.norm>
8.92897e-05

>  <SCORE.SYSTEM>
0

>  <SCORE.SYSTEM.CONST>
0

>  <SCORE.SYSTEM.DIHEDRAL>
0

>  <SCORE.SYSTEM.SOLV>
0

>  <SCORE.SYSTEM.norm>
0

>  <SCORE.heavy>
49

>  <SCORE.norm>
-0.273432

>  <RMSD>
8.050

$$$$
2bee_lig
 OpenBabel11021811423D
libRbt.so/2013.1/901 2013/11/27
 49 52  0  0  0  0  0  0  0  0999 V2000
   43.8479   12.7427  -12.6075 C   0  0  2  0  0  0  0  0  0  0  0  0
   44.7469   11.7880  -12.0574 O   0  0  0  0  0  0  0  0  0  0  0  0
   48.3074   12.5961   -9.5990 C   0  0  2  0  0  0  0  0  0  0  0  0
   49.1299   13.0062   -8.4284 N   0  0  0  0  0  0  0  0  0  0  0  0
   45.7473    8.8321   -9.4351 C   0  0  1  0  0  0  0  0  0  0  0  0
   43.5892    6.7429   -5.7112 C   0  0  1  0  0  0  0  0  0  0  0  0
   51.8699    5.0630   -7.2564 C   0  0  0  0  0  0  0  0  0  0  0  0
   42.6010   12.0170  -13.2458 C   0  0  2  0  0  0  0  0  0  0  0  0
   41.9715   11.1447  -12.2602 N   0  0  0  0  0  0  0  0  0  0  0  0
   47.3492   13.8013  -10.0201 C   0  0  0  0  0  0  0  0  0  0  0  0
   45.9534    8.2082   -8.0931 C   0  0  2  0  0  0  0  0  0  0  0  0
   47.0454    7.2195   -8.0810 O   0  0  0  0  0  0  0  0  0  0  0  0
   44.4525    7.5368   -4.5907 C   0  0  2  0  0  0  0  0  0  0  0  0
   45.8152    7.8089   -5.1582 N   0  0  0  0  0  0  0  0  0  0  0  0
   52.0711    6.0651   -6.2786 C   0  0  0  0  0  0  0  0  0  0  0  0
   51.2529    7.1924   -6.2612 N   0  0  0  0  0  0  0  0  0  0  0  0
   43.0670   11.2060  -14.5331 C   0  0  1  0  0  0  0  0  0  0  0  0
   41.9377   10.5603  -15.1032 O   0  0  0  0  0  0  0  0  0  0  0  0
   46.4177   13.3848  -11.2969 C   0  0  2  0  0  0  0  0  0  0  0  0
   45.5657   14.4567  -11.6859 N   0  0  0  0  0  0  0  0  0  0  0  0
   44.5157    7.8080   -7.8659 C   0  0  2  0  0  0  0  0  0  0  0  0
   43.5861    7.6109   -6.8698 O   0  0  0  0  0  0  0  0  0  0  0  0
   44.5531    6.6340   -3.3097 C   0  0  1  0  0  0  0  0  0  0  0  0
   43.1860    6.4280   -2.8095 O   0  0  0  0  0  0  0  0  0  0  0  0
   43.7192   12.1840  -15.5378 C   0  0  2  0  0  0  0  0  0  0  0  0
   44.1838   11.4639  -16.7508 O   0  0  0  0  0  0  0  0  0  0  0  0
   45.5464   12.1199  -10.9338 C   0  0  2  0  0  0  0  0  0  0  0  0
   44.0245    7.3913   -9.3398 C   0  0  2  0  0  0  0  0  0  0  0  0
   44.6335    8.3228  -10.1115 O   0  0  0  0  0  0  0  0  0  0  0  0
   45.2674    5.2209   -3.7054 C   0  0  2  0  0  0  0  0  0  0  0  0
   46.6416    5.4411   -4.2098 O   0  0  0  0  0  0  0  0  0  0  0  0
   44.9507   12.9018  -14.8912 C   0  0  2  0  0  0  0  0  0  0  0  0
   44.4267   13.5707  -13.7155 O   0  0  0  0  0  0  0  0  0  0  0  0
   46.5310   10.9722  -10.5262 C   0  0  2  0  0  0  0  0  0  0  0  0
   45.6604    9.9019  -10.2496 O   0  0  0  0  0  0  0  0  0  0  0  0
   42.4872    7.4897   -9.6605 C   0  0  0  0  0  0  0  0  0  0  0  0
   42.2263    6.9024  -10.9744 O   0  0  0  0  0  0  0  0  0  0  0  0
   44.4263    4.4811   -4.8387 C   0  0  1  0  0  0  0  0  0  0  0  0
   44.3328    5.4340   -6.0121 O   0  0  0  0  0  0  0  0  0  0  0  0
   45.4909   13.8259  -15.9061 C   0  0  0  0  0  0  0  0  0  0  0  0
   44.9355   15.0385  -15.7783 O   0  0  0  0  0  0  0  0  0  0  0  0
   47.3998   11.3915   -9.2645 C   0  0  1  0  0  0  0  0  0  0  0  0
   48.2784   10.3652   -8.9167 O   0  0  0  0  0  0  0  0  0  0  0  0
   47.1808    6.1176   -7.1144 C   0  0  0  0  0  0  0  0  0  0  0  0
   45.2110    3.1616   -5.1488 C   0  0  0  0  0  0  0  0  0  0  0  0
   46.5328    3.4021   -5.6525 N   0  0  0  0  0  0  0  0  0  0  0  0
   47.9741    4.9783   -7.7560 C   0  0  0  0  0  0  0  0  0  0  0  0
   49.3917    5.3886   -7.7455 N   0  0  0  0  0  0  0  0  0  0  0  0
   50.4402    4.3527   -7.3343 C   0  0  0  0  0  0  0  0  0  0  0  0
  1  2  1  6  0  0  0
  1  8  1  0  0  0  0
  1 33  1  0  0  0  0
  3  4  1  1  0  0  0
  3 10  1  0  0  0  0
  3 42  1  0  0  0  0
  5 11  1  0  0  0  0
  5 29  1  0  0  0  0
  5 35  1  1  0  0  0
  6 13  1  0  0  0  0
  6 39  1  0  0  0  0
  6 22  1  6  0  0  0
  7 15  1  0  0  0  0
  8  9  1  1  0  0  0
  8 17  1  0  0  0  0
 10 19  1  0  0  0  0
 11 12  1  6  0  0  0
 11 21  1  0  0  0  0
 12 44  1  0  0  0  0
 13 14  1  6  0  0  0
 13 23  1  0  0  0  0
 15 16  1  0  0  0  0
 17 18  1  6  0  0  0
 17 25  1  0  0  0  0
 19 20  1  1  0  0  0
 19 27  1  0  0  0  0
 21 22  1  1  0  0  0
 21 28  1  0  0  0  0
 23 24  1  6  0  0  0
 23 30  1  0  0  0  0
 25 26  1  6  0  0  0
 25 32  1  0  0  0  0
 27  2  1  6  0  0  0
 27 34  1  0  0  0  0
 28 29  1  0  0  0  0
 28 36  1  1  0  0  0
 30 31  1  6  0  0  0
 30 38  1  0  0  0  0
 32 33  1  0  0  0  0
 32 40  1  6  0  0  0
 34 35  1  1  0  0  0
 34 42  1  0  0  0  0
 36 37  1  0  0  0  0
 38 39  1  0  0  0  0
 38 45  1  6  0  0  0
 40 41  1  0  0  0  0
 42 43  1  6  0  0  0
 44 47  1  0  0  0  0
 45 46  1  0  0  0  0
 47 48  1  0  0  0  0
 48 49  1  0  0  0  0
 49  7  1  0  0  0  0
M  END
>  <CHROM.1>
-149.63452224,55.41702105,81.84372435,-58.16182343,-156.51908319,153.56345861
-57.46465771,-57.63113968,-172.43859327,91.69046749,-152.08053859,-61.84482760
76.55564202,136.36108231,-174.32907545,65.03688063,45.70311223,9.00570038
-9.30733657,1.77328220,-0.19411118,-0.82283360

>  <Name>
2bee_lig

>  <RI>
0

>  <Rbt.Current_Directory>
/home/itssahil/PROJECTS/Mol_Feturizer/New_Systems/rnas/2bee

>  <Rbt.Executable>
rbdock ($Id: //depot/dev/client3/rdock/2013.1/src/exe/rbdock.cxx#4 $)

>  <Rbt.Library>
libRbt.so (2013.1, Build901 2013/11/27)

>  <Rbt.Parameter_File>
/export/apps/rDock/src/rDock_2013.1_src/data/scripts/dock_solv.prm

>  <Rbt.Receptor>
prm/blind_docking_60.prm

>  <SCORE>
34.1916

>  <SCORE.INTER>
8.61478

>  <SCORE.INTER.CONST>
1

>  <SCORE.INTER.POLAR>
-0.066573

>  <SCORE.INTER.ROT>
16

>  <SCORE.INTER.SOLV>
36.696

>  <SCORE.INTER.VDW>
-20.5336

>  <SCORE.INTER.norm>
0.175812

>  <SCORE.INTRA>
2.55299

>  <SCORE.INTRA.DIHEDRAL>
-10.7616

>  <SCORE.INTRA.DIHEDRAL.0>
36.0842

>  <SCORE.INTRA.POLAR>
0

>  <SCORE.INTRA.POLAR.0>
0

>  <SCORE.INTRA.REPUL>
0.0422232

>  <SCORE.INTRA.REPUL.0>
0

>  <SCORE.INTRA.SOLV>
8.95266

>  <SCORE.INTRA.SOLV.lig_0>
-126.444

>  <SCORE.INTRA.VDW>
3.24635

>  <SCORE.INTRA.VDW.0>
-7.40469

>  <SCORE.INTRA.norm>
0.0521018

>  <SCORE.RESTR>
23.0238

>  <SCORE.RESTR.CAVITY>
23.0238

>  <SCORE.RESTR.norm>
0.469874

>  <SCORE.SYSTEM>
0

>  <SCORE.SYSTEM.CONST>
0

>  <SCORE.SYSTEM.DIHEDRAL>
0

>  <SCORE.SYSTEM.SOLV>
0

>  <SCORE.SYSTEM.norm>
0

>  <SCORE.heavy>
49

>  <SCORE.norm>
0.697788

>  <RMSD>
8.055

$$$$
2bee_lig
 OpenBabel11021811423D
libRbt.so/2013.1/901 2013/11/27
 49 52  0  0  0  0  0  0  0  0999 V2000
   42.8643    4.0307   -5.4269 C   0  0  2  0  0  0  0  0  0  0  0  0
   43.5836    4.0560   -4.2005 O   0  0  0  0  0  0  0  0  0  0  0  0
   42.6417    4.8621    0.0229 C   0  0  2  0  0  0  0  0  0  0  0  0
   42.0933    5.5519    1.2222 N   0  0  0  0  0  0  0  0  0  0  0  0
   40.0680    2.4931   -3.0593 C   0  0  1  0  0  0  0  0  0  0  0  0
   38.0563    1.1484   -6.8279 C   0  0  1  0  0  0  0  0  0  0  0  0
   38.2209    1.4485    1.7140 C   0  0  0  0  0  0  0  0  0  0  0  0
   43.6641    3.2144   -6.5145 C   0  0  2  0  0  0  0  0  0  0  0  0
   43.9757    1.8813   -6.0101 N   0  0  0  0  0  0  0  0  0  0  0  0
   43.5837    5.8688   -0.7814 C   0  0  0  0  0  0  0  0  0  0  0  0
   38.6339    2.1685   -3.3254 C   0  0  2  0  0  0  0  0  0  0  0  0
   37.8785    1.8572   -2.0996 O   0  0  0  0  0  0  0  0  0  0  0  0
   36.8727    0.2268   -7.4451 C   0  0  2  0  0  0  0  0  0  0  0  0
   37.3604   -1.1922   -7.4870 N   0  0  0  0  0  0  0  0  0  0  0  0
   37.7711    0.8494    2.9138 C   0  0  0  0  0  0  0  0  0  0  0  0
   37.6587    1.6147    4.0724 N   0  0  0  0  0  0  0  0  0  0  0  0
   44.9819    4.0145   -6.9084 C   0  0  1  0  0  0  0  0  0  0  0  0
   45.6925    3.2747   -7.8907 O   0  0  0  0  0  0  0  0  0  0  0  0
   44.1964    5.1512   -2.1161 C   0  0  2  0  0  0  0  0  0  0  0  0
   45.0455    6.0386   -2.8357 N   0  0  0  0  0  0  0  0  0  0  0  0
   38.8867    1.1281   -4.3896 C   0  0  2  0  0  0  0  0  0  0  0  0
   38.3375    0.5798   -5.5266 O   0  0  0  0  0  0  0  0  0  0  0  0
   36.5424    0.7447   -8.8903 C   0  0  1  0  0  0  0  0  0  0  0  0
   36.0601    2.1276   -8.7613 O   0  0  0  0  0  0  0  0  0  0  0  0
   44.5851    5.4120   -7.4384 C   0  0  2  0  0  0  0  0  0  0  0  0
   45.7896    6.2002   -7.8041 O   0  0  0  0  0  0  0  0  0  0  0  0
   43.0205    4.6675   -3.0512 C   0  0  2  0  0  0  0  0  0  0  0  0
   40.2230    0.4010   -3.8669 C   0  0  2  0  0  0  0  0  0  0  0  0
   40.9362    1.4437   -3.3790 O   0  0  0  0  0  0  0  0  0  0  0  0
   37.8883    0.6612   -9.8096 C   0  0  2  0  0  0  0  0  0  0  0  0
   38.3658   -0.7349   -9.9301 O   0  0  0  0  0  0  0  0  0  0  0  0
   43.7875    6.2094   -6.3532 C   0  0  2  0  0  0  0  0  0  0  0  0
   42.6390    5.3805   -6.0400 O   0  0  0  0  0  0  0  0  0  0  0  0
   42.1279    3.6888   -2.2157 C   0  0  2  0  0  0  0  0  0  0  0  0
   41.1392    3.3063   -3.1410 O   0  0  0  0  0  0  0  0  0  0  0  0
   41.1436   -0.3038   -4.9306 C   0  0  0  0  0  0  0  0  0  0  0  0
   42.2934   -0.9054   -4.2557 O   0  0  0  0  0  0  0  0  0  0  0  0
   39.0499    1.5375   -9.1601 C   0  0  1  0  0  0  0  0  0  0  0  0
   39.2699    1.0094   -7.7578 O   0  0  0  0  0  0  0  0  0  0  0  0
   43.4326    7.5106   -6.9504 C   0  0  0  0  0  0  0  0  0  0  0  0
   44.3816    8.4199   -6.6902 O   0  0  0  0  0  0  0  0  0  0  0  0
   41.5204    4.4207   -0.9439 C   0  0  1  0  0  0  0  0  0  0  0  0
   40.7349    3.5368   -0.2035 O   0  0  0  0  0  0  0  0  0  0  0  0
   36.4953    1.3550   -2.0606 C   0  0  0  0  0  0  0  0  0  0  0  0
   40.2847    1.3652  -10.1081 C   0  0  0  0  0  0  0  0  0  0  0  0
   41.4221    2.1336   -9.6904 N   0  0  0  0  0  0  0  0  0  0  0  0
   36.0775    1.1401   -0.6052 C   0  0  0  0  0  0  0  0  0  0  0  0
   36.9733    0.1050   -0.0538 N   0  0  0  0  0  0  0  0  0  0  0  0
   38.3668    0.5304    0.4137 C   0  0  0  0  0  0  0  0  0  0  0  0
  1  2  1  1  0  0  0
  1  8  1  0  0  0  0
  1 33  1  0  0  0  0
  3  4  1  1  0  0  0
  3 10  1  0  0  0  0
  3 42  1  0  0  0  0
  5 11  1  0  0  0  0
  5 29  1  0  0  0  0
  5 35  1  6  0  0  0
  6 13  1  0  0  0  0
  6 39  1  0  0  0  0
  6 22  1  1  0  0  0
  7 15  1  0  0  0  0
  8  9  1  1  0  0  0
  8 17  1  0  0  0  0
 10 19  1  0  0  0  0
 11 12  1  1  0  0  0
 11 21  1  0  0  0  0
 12 44  1  0  0  0  0
 13 14  1  6  0  0  0
 13 23  1  0  0  0  0
 15 16  1  0  0  0  0
 17 18  1  6  0  0  0
 17 25  1  0  0  0  0
 19 20  1  6  0  0  0
 19 27  1  0  0  0  0
 21 22  1  1  0  0  0
 21 28  1  0  0  0  0
 23 24  1  1  0  0  0
 23 30  1  0  0  0  0
 25 26  1  1  0  0  0
 25 32  1  0  0  0  0
 27  2  1  6  0  0  0
 27 34  1  0  0  0  0
 28 29  1  0  0  0  0
 28 36  1  6  0  0  0
 30 31  1  1  0  0  0
 30 38  1  0  0  0  0
 32 33  1  0  0  0  0
 32 40  1  6  0  0  0
 34 35  1  6  0  0  0
 34 42  1  0  0  0  0
 36 37  1  0  0  0  0
 38 39  1  0  0  0  0
 38 45  1  6  0  0  0
 40 41  1  0  0  0  0
 42 43  1  1  0  0  0
 44 47  1  0  0  0  0
 45 46  1  0  0  0  0
 47 48  1  0  0  0  0
 48 49  1  0  0  0  0
 49  7  1  0  0  0  0
M  END
>  <CHROM.1>
-176.25450667,136.24695946,-155.78166857,178.69589235,-172.67911356,179.30230616
65.02876990,-153.63120320,-179.70549001,-91.13165270,-179.44935304,178.02788233
-62.58429714,80.93231610,68.33047510,68.64603200,40.75831592,2.68445450,-4.44513291
-0.97927880,0.64814675,1.44474090

>  <Name>
2bee_lig

>  <RI>
0

>  <Rbt.Current_Directory>
/home/itssahil/PROJECTS/Mol_Feturizer/New_Systems/rnas/2bee

>  <Rbt.Executable>
rbdock ($Id: //depot/dev/client3/rdock/2013.1/src/exe/rbdock.cxx#4 $)

>  <Rbt.Library>
libRbt.so (2013.1, Build901 2013/11/27)

>  <Rbt.Parameter_File>
/export/apps/rDock/src/rDock_2013.1_src/data/scripts/dock_solv.prm

>  <Rbt.Receptor>
prm/pocket_docking_8.prm

>  <SCORE>
-11.7952

>  <SCORE.INTER>
-3.46741

>  <SCORE.INTER.CONST>
1

>  <SCORE.INTER.POLAR>
-1.89399

>  <SCORE.INTER.ROT>
16

>  <SCORE.INTER.SOLV>
10.8791

>  <SCORE.INTER.VDW>
-13.8913

>  <SCORE.INTER.norm>
-0.0707636

>  <SCORE.INTRA>
-8.32781

>  <SCORE.INTRA.DIHEDRAL>
-16.5135

>  <SCORE.INTRA.DIHEDRAL.0>
36.0842

>  <SCORE.INTRA.POLAR>
0

>  <SCORE.INTRA.POLAR.0>
0

>  <SCORE.INTRA.REPUL>
0

>  <SCORE.INTRA.REPUL.0>
0

>  <SCORE.INTRA.SOLV>
-2.56256

>  <SCORE.INTRA.SOLV.lig_0>
-126.444

>  <SCORE.INTRA.VDW>
1.21021

>  <SCORE.INTRA.VDW.0>
-7.40469

>  <SCORE.INTRA.norm>
-0.169955

>  <SCORE.RESTR>
0

>  <SCORE.RESTR.CAVITY>
0

>  <SCORE.RESTR.norm>
0

>  <SCORE.SYSTEM>
0

>  <SCORE.SYSTEM.CONST>
0

>  <SCORE.SYSTEM.DIHEDRAL>
0

>  <SCORE.SYSTEM.SOLV>
0

>  <SCORE.SYSTEM.norm>
0

>  <SCORE.heavy>
49

>  <SCORE.norm>
-0.240719

>  <RMSD>
8.055

$$$$
2bee_lig
 OpenBabel11021811423D
libRbt.so/2013.1/901 2013/11/27
 49 52  0  0  0  0  0  0  0  0999 V2000
   47.3009   11.4886  -11.5846 C   0  0  2  0  0  0  0  0  0  0  0  0
   46.2071   10.5999  -11.3951 O   0  0  0  0  0  0  0  0  0  0  0  0
   42.9183   12.1621  -13.8685 C   0  0  2  0  0  0  0  0  0  0  0  0
   41.7958   12.1810  -14.8455 N   0  0  0  0  0  0  0  0  0  0  0  0
   44.2826    9.3813   -9.9930 C   0  0  1  0  0  0  0  0  0  0  0  0
   43.1994    7.2166   -6.1523 C   0  0  1  0  0  0  0  0  0  0  0  0
   49.6149    4.2726   -6.5891 C   0  0  0  0  0  0  0  0  0  0  0  0
   48.4164   11.2234  -10.5009 C   0  0  2  0  0  0  0  0  0  0  0  0
   48.8131    9.8196  -10.5248 N   0  0  0  0  0  0  0  0  0  0  0  0
   44.2222   11.5689  -14.5727 C   0  0  0  0  0  0  0  0  0  0  0  0
   44.9973    8.7247   -8.8569 C   0  0  2  0  0  0  0  0  0  0  0  0
   46.3866    8.3613   -9.1857 O   0  0  0  0  0  0  0  0  0  0  0  0
   44.6815    7.2136   -5.4933 C   0  0  2  0  0  0  0  0  0  0  0  0
   45.3057    5.8739   -5.7551 N   0  0  0  0  0  0  0  0  0  0  0  0
   49.5350    4.9479   -5.3488 C   0  0  0  0  0  0  0  0  0  0  0  0
   50.1697    4.4179   -4.2276 N   0  0  0  0  0  0  0  0  0  0  0  0
   47.8714   11.6540   -9.0693 C   0  0  1  0  0  0  0  0  0  0  0  0
   48.8834   11.4162   -8.1017 O   0  0  0  0  0  0  0  0  0  0  0  0
   45.4767   11.5191  -13.5262 C   0  0  2  0  0  0  0  0  0  0  0  0
   46.6473   10.9997  -14.1478 N   0  0  0  0  0  0  0  0  0  0  0  0
   43.9472    7.6779   -8.5738 C   0  0  2  0  0  0  0  0  0  0  0  0
   43.4096    6.9246   -7.5546 O   0  0  0  0  0  0  0  0  0  0  0  0
   44.5395    7.4695   -3.9504 C   0  0  1  0  0  0  0  0  0  0  0  0
   43.9378    8.8001   -3.7798 O   0  0  0  0  0  0  0  0  0  0  0  0
   47.4739   13.1479   -9.1084 C   0  0  2  0  0  0  0  0  0  0  0  0
   46.9438   13.5883   -7.7927 O   0  0  0  0  0  0  0  0  0  0  0  0
   45.0985   10.6280  -12.2795 C   0  0  2  0  0  0  0  0  0  0  0  0
   43.4020    7.3136  -10.0426 C   0  0  2  0  0  0  0  0  0  0  0  0
   43.3861    8.5269  -10.6440 O   0  0  0  0  0  0  0  0  0  0  0  0
   43.6068    6.3002   -3.2975 C   0  0  2  0  0  0  0  0  0  0  0  0
   44.2212    4.9655   -3.4775 O   0  0  0  0  0  0  0  0  0  0  0  0
   46.3715   13.3991  -10.1908 C   0  0  2  0  0  0  0  0  0  0  0  0
   46.9520   12.9395  -11.4382 O   0  0  0  0  0  0  0  0  0  0  0  0
   43.8161   11.2490  -11.6296 C   0  0  2  0  0  0  0  0  0  0  0  0
   43.5856   10.4016  -10.5302 O   0  0  0  0  0  0  0  0  0  0  0  0
   41.9417    6.7410  -10.1665 C   0  0  0  0  0  0  0  0  0  0  0  0
   41.7934    5.5910   -9.2748 O   0  0  0  0  0  0  0  0  0  0  0  0
   42.1723    6.2932   -3.9913 C   0  0  1  0  0  0  0  0  0  0  0  0
   42.4006    6.0941   -5.4752 O   0  0  0  0  0  0  0  0  0  0  0  0
   46.0739   14.8437  -10.1737 C   0  0  0  0  0  0  0  0  0  0  0  0
   44.7638   15.0499   -9.9833 O   0  0  0  0  0  0  0  0  0  0  0  0
   42.6054   11.2553  -12.6575 C   0  0  1  0  0  0  0  0  0  0  0  0
   41.4721   11.8184  -12.0702 O   0  0  0  0  0  0  0  0  0  0  0  0
   47.3617    7.7958   -8.2389 C   0  0  0  0  0  0  0  0  0  0  0  0
   41.3807    5.1288   -3.3052 C   0  0  0  0  0  0  0  0  0  0  0  0
   41.5783    3.8623   -3.9499 N   0  0  0  0  0  0  0  0  0  0  0  0
   48.5049    7.1462   -9.0200 C   0  0  0  0  0  0  0  0  0  0  0  0
   49.2637    6.3235   -8.0580 N   0  0  0  0  0  0  0  0  0  0  0  0
   48.8182    4.8765   -7.8363 C   0  0  0  0  0  0  0  0  0  0  0  0
  1  2  1  1  0  0  0
  1  8  1  0  0  0  0
  1 33  1  0  0  0  0
  3  4  1  6  0  0  0
  3 10  1  0  0  0  0
  3 42  1  0  0  0  0
  5 11  1  0  0  0  0
  5 29  1  0  0  0  0
  5 35  1  1  0  0  0
  6 13  1  0  0  0  0
  6 39  1  0  0  0  0
  6 22  1  6  0  0  0
  7 15  1  0  0  0  0
  8  9  1  1  0  0  0
  8 17  1  0  0  0  0
 10 19  1  0  0  0  0
 11 12  1  6  0  0  0
 11 21  1  0  0  0  0
 12 44  1  0  0  0  0
 13 14  1  1  0  0  0
 13 23  1  0  0  0  0
 15 16  1  0  0  0  0
 17 18  1  1  0  0  0
 17 25  1  0  0  0  0
 19 20  1  6  0  0  0
 19 27  1  0  0  0  0
 21 22  1  6  0  0  0
 21 28  1  0  0  0  0
 23 24  1  6  0  0  0
 23 30  1  0  0  0  0
 25 26  1  1  0  0  0
 25 32  1  0  0  0  0
 27  2  1  1  0  0  0
 27 34  1  0  0  0  0
 28 29  1  0  0  0  0
 28 36  1  1  0  0  0
 30 31  1  6  0  0  0
 30 38  1  0  0  0  0
 32 33  1  0  0  0  0
 32 40  1  6  0  0  0
 34 35  1  1  0  0  0
 34 42  1  0  0  0  0
 36 37  1  0  0  0  0
 38 39  1  0  0  0  0
 38 45  1  1  0  0  0
 40 41  1  0  0  0  0
 42 43  1  1  0  0  0
 44 47  1  0  0  0  0
 45 46  1  0  0  0  0
 47 48  1  0  0  0  0
 48 49  1  0  0  0  0
 49  7  1  0  0  0  0
M  END
>  <CHROM.1>
-178.17235462,121.15551403,-71.60725352,177.23712193,175.17358275,161.93268709
33.78089513,11.34309747,-53.11150426,-124.93711133,6.37196482,-88.14612772
-166.47242351,88.23973018,-170.38832187,56.20509530,45.24080310,9.00918296
-8.80271742,-1.54751518,0.12688861,2.31942363

>  <Name>
2bee_lig

>  <RI>
0

>  <Rbt.Current_Directory>
/home/itssahil/PROJECTS/Mol_Feturizer/New_Systems/rnas/2bee

>  <Rbt.Executable>
rbdock ($Id: //depot/dev/client3/rdock/2013.1/src/exe/rbdock.cxx#4 $)

>  <Rbt.Library>
libRbt.so (2013.1, Build901 2013/11/27)

>  <Rbt.Parameter_File>
/export/apps/rDock/src/rDock_2013.1_src/data/scripts/dock_solv.prm

>  <Rbt.Receptor>
prm/blind_docking_60.prm

>  <SCORE>
45.2809

>  <SCORE.INTER>
16.2956

>  <SCORE.INTER.CONST>
1

>  <SCORE.INTER.POLAR>
-0.0257661

>  <SCORE.INTER.ROT>
16

>  <SCORE.INTER.SOLV>
36.6967

>  <SCORE.INTER.VDW>
-15.5493

>  <SCORE.INTER.norm>
0.332562

>  <SCORE.INTRA>
8.67737

>  <SCORE.INTRA.DIHEDRAL>
-0.841543

>  <SCORE.INTRA.DIHEDRAL.0>
36.0842

>  <SCORE.INTRA.POLAR>
0

>  <SCORE.INTRA.POLAR.0>
0

>  <SCORE.INTRA.REPUL>
0.614157

>  <SCORE.INTRA.REPUL.0>
0

>  <SCORE.INTRA.SOLV>
2.89189

>  <SCORE.INTRA.SOLV.lig_0>
-126.444

>  <SCORE.INTRA.VDW>
4.58141

>  <SCORE.INTRA.VDW.0>
-7.40469

>  <SCORE.INTRA.norm>
0.177089

>  <SCORE.RESTR>
20.308

>  <SCORE.RESTR.CAVITY>
20.308

>  <SCORE.RESTR.norm>
0.414448

>  <SCORE.SYSTEM>
0

>  <SCORE.SYSTEM.CONST>
0

>  <SCORE.SYSTEM.DIHEDRAL>
0

>  <SCORE.SYSTEM.SOLV>
0

>  <SCORE.SYSTEM.norm>
0

>  <SCORE.heavy>
49

>  <SCORE.norm>
0.9241

>  <RMSD>
8.056

$$$$
2bee_lig
 OpenBabel11021811423D
libRbt.so/2013.1/901 2013/11/27
 49 52  0  0  0  0  0  0  0  0999 V2000
   49.3015    3.4757   -6.4184 C   0  0  2  0  0  0  0  0  0  0  0  0
   48.3229    4.0036   -5.5320 O   0  0  0  0  0  0  0  0  0  0  0  0
   44.9156    6.6843   -6.2927 C   0  0  2  0  0  0  0  0  0  0  0  0
   43.6437    7.1919   -6.8753 N   0  0  0  0  0  0  0  0  0  0  0  0
   45.2114    3.2667   -3.1224 C   0  0  1  0  0  0  0  0  0  0  0  0
   42.2195   -0.0764   -3.3490 C   0  0  1  0  0  0  0  0  0  0  0  0
   41.3707    7.1300    2.1677 C   0  0  0  0  0  0  0  0  0  0  0  0
   50.1427    2.3513   -5.6992 C   0  0  2  0  0  0  0  0  0  0  0  0
   49.2526    1.3287   -5.1601 N   0  0  0  0  0  0  0  0  0  0  0  0
   45.9452    6.3635   -7.4695 C   0  0  0  0  0  0  0  0  0  0  0  0
   43.9209    3.0201   -2.4108 C   0  0  2  0  0  0  0  0  0  0  0  0
   43.7949    3.7958   -1.1647 O   0  0  0  0  0  0  0  0  0  0  0  0
   41.8480   -1.5797   -2.8662 C   0  0  2  0  0  0  0  0  0  0  0  0
   43.1052   -2.3996   -2.8850 N   0  0  0  0  0  0  0  0  0  0  0  0
   40.7839    7.6195    3.3580 C   0  0  0  0  0  0  0  0  0  0  0  0
   41.4127    7.4031    4.5821 N   0  0  0  0  0  0  0  0  0  0  0  0
   51.0356    3.0111   -4.5593 C   0  0  1  0  0  0  0  0  0  0  0  0
   51.7922    1.9926   -3.9210 O   0  0  0  0  0  0  0  0  0  0  0  0
   47.3533    5.7896   -6.8700 C   0  0  2  0  0  0  0  0  0  0  0  0
   48.2818    5.5089   -7.9118 N   0  0  0  0  0  0  0  0  0  0  0  0
   44.0124    1.5133   -2.4038 C   0  0  2  0  0  0  0  0  0  0  0  0
   43.2362    0.3766   -2.4233 O   0  0  0  0  0  0  0  0  0  0  0  0
   40.7832   -2.1709   -3.8576 C   0  0  1  0  0  0  0  0  0  0  0  0
   39.5839   -1.3250   -3.7689 O   0  0  0  0  0  0  0  0  0  0  0  0
   51.9569    4.0788   -5.1936 C   0  0  2  0  0  0  0  0  0  0  0  0
   52.7989    4.7322   -4.1592 O   0  0  0  0  0  0  0  0  0  0  0  0
   47.0838    4.4792   -6.0325 C   0  0  2  0  0  0  0  0  0  0  0  0
   45.5862    1.2528   -2.1967 C   0  0  2  0  0  0  0  0  0  0  0  0
   46.1341    2.2275   -2.9608 O   0  0  0  0  0  0  0  0  0  0  0  0
   41.4031   -2.1778   -5.3673 C   0  0  2  0  0  0  0  0  0  0  0  0
   42.6110   -3.0302   -5.4436 O   0  0  0  0  0  0  0  0  0  0  0  0
   51.1114    5.1850   -5.9087 C   0  0  2  0  0  0  0  0  0  0  0  0
   50.3126    4.4770   -6.8912 O   0  0  0  0  0  0  0  0  0  0  0  0
   46.0691    4.8469   -4.8978 C   0  0  2  0  0  0  0  0  0  0  0  0
   45.9211    3.6289   -4.2090 O   0  0  0  0  0  0  0  0  0  0  0  0
   46.1841   -0.1056   -2.7191 C   0  0  0  0  0  0  0  0  0  0  0  0
   45.9376   -0.2244   -4.1560 O   0  0  0  0  0  0  0  0  0  0  0  0
   41.8019   -0.6976   -5.8020 C   0  0  1  0  0  0  0  0  0  0  0  0
   42.7862   -0.1848   -4.7716 O   0  0  0  0  0  0  0  0  0  0  0  0
   52.0666    6.1404   -6.5005 C   0  0  0  0  0  0  0  0  0  0  0  0
   52.8888    5.5137   -7.3529 O   0  0  0  0  0  0  0  0  0  0  0  0
   44.6999    5.3706   -5.5089 C   0  0  1  0  0  0  0  0  0  0  0  0
   43.8080    5.7030   -4.4889 O   0  0  0  0  0  0  0  0  0  0  0  0
   43.8776    5.2622   -1.0668 C   0  0  0  0  0  0  0  0  0  0  0  0
   42.3985   -0.8308   -7.2440 C   0  0  0  0  0  0  0  0  0  0  0  0
   42.8744    0.4165   -7.7698 N   0  0  0  0  0  0  0  0  0  0  0  0
   43.5518    5.6915    0.3645 C   0  0  0  0  0  0  0  0  0  0  0  0
   42.1664    5.2595    0.6331 N   0  0  0  0  0  0  0  0  0  0  0  0
   41.5734    5.5520    2.0130 C   0  0  0  0  0  0  0  0  0  0  0  0
  1  2  1  1  0  0  0
  1  8  1  0  0  0  0
  1 33  1  0  0  0  0
  3  4  1  6  0  0  0
  3 10  1  0  0  0  0
  3 42  1  0  0  0  0
  5 11  1  0  0  0  0
  5 29  1  0  0  0  0
  5 35  1  6  0  0  0
  6 13  1  0  0  0  0
  6 39  1  0  0  0  0
  6 22  1  1  0  0  0
  7 15  1  0  0  0  0
  8  9  1  1  0  0  0
  8 17  1  0  0  0  0
 10 19  1  0  0  0  0
 11 12  1  1  0  0  0
 11 21  1  0  0  0  0
 12 44  1  0  0  0  0
 13 14  1  6  0  0  0
 13 23  1  0  0  0  0
 15 16  1  0  0  0  0
 17 18  1  6  0  0  0
 17 25  1  0  0  0  0
 19 20  1  6  0  0  0
 19 27  1  0  0  0  0
 21 22  1  1  0  0  0
 21 28  1  0  0  0  0
 23 24  1  6  0  0  0
 23 30  1  0  0  0  0
 25 26  1  1  0  0  0
 25 32  1  0  0  0  0
 27  2  1  1  0  0  0
 27 34  1  0  0  0  0
 28 29  1  0  0  0  0
 28 36  1  6  0  0  0
 30 31  1  1  0  0  0
 30 38  1  0  0  0  0
 32 33  1  0  0  0  0
 32 40  1  6  0  0  0
 34 35  1  6  0  0  0
 34 42  1  0  0  0  0
 36 37  1  0  0  0  0
 38 39  1  0  0  0  0
 38 45  1  6  0  0  0
 40 41  1  0  0  0  0
 42 43  1  1  0  0  0
 44 47  1  0  0  0  0
 45 46  1  0  0  0  0
 47 48  1  0  0  0  0
 48 49  1  0  0  0  0
 49  7  1  0  0  0  0
M  END
>  <CHROM.1>
-148.51354019,66.54278553,173.25093166,61.60480926,57.37763581,174.08186374
55.88215711,-68.49440441,58.60467254,58.13121224,178.66946426,-177.15824191
-61.78935224,179.50060552,68.48752156,177.68845405,45.51562727,2.98102462
-3.92555730,0.05596313,-0.53890102,-2.51701763

>  <Name>
2bee_lig

>  <RI>
3.46266e+07

>  <Rbt.Current_Directory>
/home/itssahil/PROJECTS/Mol_Feturizer/New_Systems/rnas/2bee

>  <Rbt.Executable>
rbdock ($Id: //depot/dev/client3/rdock/2013.1/src/exe/rbdock.cxx#4 $)

>  <Rbt.Library>
libRbt.so (2013.1, Build901 2013/11/27)

>  <Rbt.Parameter_File>
/export/apps/rDock/src/rDock_2013.1_src/data/scripts/dock_solv.prm

>  <Rbt.Receptor>
prm/pocket_docking_4.prm

>  <SCORE>
-14.7899

>  <SCORE.INTER>
-5.7994

>  <SCORE.INTER.CONST>
1

>  <SCORE.INTER.POLAR>
-0.742068

>  <SCORE.INTER.ROT>
16

>  <SCORE.INTER.SOLV>
15.8453

>  <SCORE.INTER.VDW>
-20.9412

>  <SCORE.INTER.norm>
-0.118355

>  <SCORE.INTRA>
-8.99052

>  <SCORE.INTRA.DIHEDRAL>
-25.1924

>  <SCORE.INTRA.DIHEDRAL.0>
36.0842

>  <SCORE.INTRA.POLAR>
0

>  <SCORE.INTRA.POLAR.0>
0

>  <SCORE.INTRA.REPUL>
0.0842193

>  <SCORE.INTRA.REPUL.0>
0

>  <SCORE.INTRA.SOLV>
1.17737

>  <SCORE.INTRA.SOLV.lig_0>
-126.444

>  <SCORE.INTRA.VDW>
2.5959

>  <SCORE.INTRA.VDW.0>
-7.40469

>  <SCORE.INTRA.norm>
-0.18348

>  <SCORE.RESTR>
0

>  <SCORE.RESTR.CAVITY>
0

>  <SCORE.RESTR.norm>
0

>  <SCORE.SYSTEM>
0

>  <SCORE.SYSTEM.CONST>
0

>  <SCORE.SYSTEM.DIHEDRAL>
0

>  <SCORE.SYSTEM.SOLV>
0

>  <SCORE.SYSTEM.norm>
0

>  <SCORE.heavy>
49

>  <SCORE.norm>
-0.301835

>  <RMSD>
8.062

$$$$
2bee_lig
 OpenBabel11021811423D
libRbt.so/2013.1/901 2013/11/27
 49 52  0  0  0  0  0  0  0  0999 V2000
   46.1032    1.8182   -4.1170 C   0  0  2  0  0  0  0  0  0  0  0  0
   46.7254    2.8808   -4.8284 O   0  0  0  0  0  0  0  0  0  0  0  0
   45.5202    6.9370   -6.0404 C   0  0  2  0  0  0  0  0  0  0  0  0
   44.7189    8.0264   -6.6616 N   0  0  0  0  0  0  0  0  0  0  0  0
   44.1568    4.6667   -2.2553 C   0  0  1  0  0  0  0  0  0  0  0  0
   40.5775    2.1462   -1.3766 C   0  0  1  0  0  0  0  0  0  0  0  0
   37.8906    8.6366    0.6866 C   0  0  0  0  0  0  0  0  0  0  0  0
   47.1818    0.9858   -3.3216 C   0  0  2  0  0  0  0  0  0  0  0  0
   47.9591    1.8694   -2.4593 N   0  0  0  0  0  0  0  0  0  0  0  0
   45.9051    5.8619   -7.1557 C   0  0  0  0  0  0  0  0  0  0  0  0
   42.9064    5.1838   -1.6215 C   0  0  2  0  0  0  0  0  0  0  0  0
   43.1362    6.3760   -0.7872 O   0  0  0  0  0  0  0  0  0  0  0  0
   39.2124    1.9640   -0.5196 C   0  0  2  0  0  0  0  0  0  0  0  0
   39.5896    1.5914    0.8847 N   0  0  0  0  0  0  0  0  0  0  0  0
   38.2775    9.9132    1.1574 C   0  0  0  0  0  0  0  0  0  0  0  0
   38.7623   10.8652    0.2634 N   0  0  0  0  0  0  0  0  0  0  0  0
   48.1106    0.2077   -4.3530 C   0  0  1  0  0  0  0  0  0  0  0  0
   49.0748   -0.5419   -3.6281 O   0  0  0  0  0  0  0  0  0  0  0  0
   46.7763    4.6395   -6.5090 C   0  0  2  0  0  0  0  0  0  0  0  0
   47.1323    3.6796   -7.4981 N   0  0  0  0  0  0  0  0  0  0  0  0
   42.4584    3.8709   -1.0262 C   0  0  2  0  0  0  0  0  0  0  0  0
   41.3301    3.1647   -0.6751 O   0  0  0  0  0  0  0  0  0  0  0  0
   38.3557    0.8288   -1.1855 C   0  0  1  0  0  0  0  0  0  0  0  0
   38.0165    1.2751   -2.5448 O   0  0  0  0  0  0  0  0  0  0  0  0
   47.2307   -0.7121   -5.2311 C   0  0  2  0  0  0  0  0  0  0  0  0
   48.0585   -1.4475   -6.2210 O   0  0  0  0  0  0  0  0  0  0  0  0
   45.9464    3.9383   -5.3641 C   0  0  2  0  0  0  0  0  0  0  0  0
   43.8470    3.1826   -0.5956 C   0  0  2  0  0  0  0  0  0  0  0  0
   44.6592    3.5235   -1.6243 O   0  0  0  0  0  0  0  0  0  0  0  0
   39.2224   -0.5539   -1.2059 C   0  0  2  0  0  0  0  0  0  0  0  0
   39.5599   -0.9918    0.1673 O   0  0  0  0  0  0  0  0  0  0  0  0
   46.1614    0.1242   -6.0101 C   0  0  2  0  0  0  0  0  0  0  0  0
   45.4023    0.8181   -4.9870 O   0  0  0  0  0  0  0  0  0  0  0  0
   45.5929    5.0332   -4.3017 C   0  0  2  0  0  0  0  0  0  0  0  0
   44.8842    4.3033   -3.3297 O   0  0  0  0  0  0  0  0  0  0  0  0
   43.8934    1.6128   -0.4987 C   0  0  0  0  0  0  0  0  0  0  0  0
   43.0374    1.1682    0.6009 O   0  0  0  0  0  0  0  0  0  0  0  0
   40.5785   -0.3380   -2.0143 C   0  0  1  0  0  0  0  0  0  0  0  0
   41.3165    0.8010   -1.3423 O   0  0  0  0  0  0  0  0  0  0  0  0
   45.3585   -0.8310   -6.7966 C   0  0  0  0  0  0  0  0  0  0  0  0
   44.6906   -1.6615   -5.9846 O   0  0  0  0  0  0  0  0  0  0  0  0
   44.7199    6.1912   -4.9494 C   0  0  1  0  0  0  0  0  0  0  0  0
   44.4189    7.1642   -3.9961 O   0  0  0  0  0  0  0  0  0  0  0  0
   42.0810    7.2478   -0.2453 C   0  0  0  0  0  0  0  0  0  0  0  0
   41.3285   -1.7114   -1.9490 C   0  0  0  0  0  0  0  0  0  0  0  0
   40.6945   -2.7327   -2.7323 N   0  0  0  0  0  0  0  0  0  0  0  0
   41.1326    6.4149    0.6183 C   0  0  0  0  0  0  0  0  0  0  0  0
   40.0384    7.3129    1.0359 N   0  0  0  0  0  0  0  0  0  0  0  0
   38.9961    7.7157   -0.0095 C   0  0  0  0  0  0  0  0  0  0  0  0
  1  2  1  6  0  0  0
  1  8  1  0  0  0  0
  1 33  1  0  0  0  0
  3  4  1  6  0  0  0
  3 10  1  0  0  0  0
  3 42  1  0  0  0  0
  5 11  1  0  0  0  0
  5 29  1  0  0  0  0
  5 35  1  6  0  0  0
  6 13  1  0  0  0  0
  6 39  1  0  0  0  0
  6 22  1  1  0  0  0
  7 15  1  0  0  0  0
  8  9  1  6  0  0  0
  8 17  1  0  0  0  0
 10 19  1  0  0  0  0
 11 12  1  1  0  0  0
 11 21  1  0  0  0  0
 12 44  1  0  0  0  0
 13 14  1  1  0  0  0
 13 23  1  0  0  0  0
 15 16  1  0  0  0  0
 17 18  1  1  0  0  0
 17 25  1  0  0  0  0
 19 20  1  6  0  0  0
 19 27  1  0  0  0  0
 21 22  1  1  0  0  0
 21 28  1  0  0  0  0
 23 24  1  6  0  0  0
 23 30  1  0  0  0  0
 25 26  1  6  0  0  0
 25 32  1  0  0  0  0
 27  2  1  1  0  0  0
 27 34  1  0  0  0  0
 28 29  1  0  0  0  0
 28 36  1  6  0  0  0
 30 31  1  1  0  0  0
 30 38  1  0  0  0  0
 32 33  1  0  0  0  0
 32 40  1  1  0  0  0
 34 35  1  1  0  0  0
 34 42  1  0  0  0  0
 36 37  1  0  0  0  0
 38 39  1  0  0  0  0
 38 45  1  1  0  0  0
 40 41  1  0  0  0  0
 42 43  1  1  0  0  0
 44 47  1  0  0  0  0
 45 46  1  0  0  0  0
 47 48  1  0  0  0  0
 48 49  1  0  0  0  0
 49  7  1  0  0  0  0
M  END
>  <CHROM.1>
-165.59295862,78.50755778,-169.07141070,61.52937854,168.01840219,58.12239946
96.38281893,-159.16538092,-66.68633453,63.91680227,-169.76500401,70.24951306
-175.25155961,73.28441190,177.82661084,66.56580162,43.32651257,3.07595842
-2.69326655,-0.54801889,0.63789655,0.02026656

>  <Name>
2bee_lig

>  <RI>
0

>  <Rbt.Current_Directory>
/home/itssahil/PROJECTS/Mol_Feturizer/New_Systems/rnas/2bee

>  <Rbt.Executable>
rbdock ($Id: //depot/dev/client3/rdock/2013.1/src/exe/rbdock.cxx#4 $)

>  <Rbt.Library>
libRbt.so (2013.1, Build901 2013/11/27)

>  <Rbt.Parameter_File>
/export/apps/rDock/src/rDock_2013.1_src/data/scripts/dock_solv.prm

>  <Rbt.Receptor>
prm/pocket_docking_6.prm

>  <SCORE>
-13.063

>  <SCORE.INTER>
-1.88822

>  <SCORE.INTER.CONST>
1

>  <SCORE.INTER.POLAR>
-0.963083

>  <SCORE.INTER.ROT>
16

>  <SCORE.INTER.SOLV>
16.2877

>  <SCORE.INTER.VDW>
-17.7444

>  <SCORE.INTER.norm>
-0.0385351

>  <SCORE.INTRA>
-11.1748

>  <SCORE.INTRA.DIHEDRAL>
-24.7362

>  <SCORE.INTRA.DIHEDRAL.0>
36.0842

>  <SCORE.INTRA.POLAR>
0

>  <SCORE.INTRA.POLAR.0>
0

>  <SCORE.INTRA.REPUL>
0

>  <SCORE.INTRA.REPUL.0>
0

>  <SCORE.INTRA.SOLV>
-0.776562

>  <SCORE.INTRA.SOLV.lig_0>
-126.444

>  <SCORE.INTRA.VDW>
1.58163

>  <SCORE.INTRA.VDW.0>
-7.40469

>  <SCORE.INTRA.norm>
-0.228056

>  <SCORE.RESTR>
0

>  <SCORE.RESTR.CAVITY>
0

>  <SCORE.RESTR.norm>
0

>  <SCORE.SYSTEM>
0

>  <SCORE.SYSTEM.CONST>
0

>  <SCORE.SYSTEM.DIHEDRAL>
0

>  <SCORE.SYSTEM.SOLV>
0

>  <SCORE.SYSTEM.norm>
0

>  <SCORE.heavy>
49

>  <SCORE.norm>
-0.266591

>  <RMSD>
8.062

$$$$
2bee_lig
 OpenBabel11021811423D
libRbt.so/2013.1/901 2013/11/27
 49 52  0  0  0  0  0  0  0  0999 V2000
   38.1703    0.3633   -3.9703 C   0  0  2  0  0  0  0  0  0  0  0  0
   39.4541    0.1422   -3.4002 O   0  0  0  0  0  0  0  0  0  0  0  0
   39.1818    2.6332    0.2185 C   0  0  2  0  0  0  0  0  0  0  0  0
   39.5684    3.2622    1.5107 N   0  0  0  0  0  0  0  0  0  0  0  0
   41.1422    3.8189   -3.7713 C   0  0  1  0  0  0  0  0  0  0  0  0
   42.7512    7.9505   -2.0675 C   0  0  1  0  0  0  0  0  0  0  0  0
   44.3293    4.8998  -10.4600 C   0  0  0  0  0  0  0  0  0  0  0  0
   37.9432   -0.5998   -5.1991 C   0  0  2  0  0  0  0  0  0  0  0  0
   38.1550   -1.9854   -4.7943 N   0  0  0  0  0  0  0  0  0  0  0  0
   39.2638    1.0452    0.3581 C   0  0  0  0  0  0  0  0  0  0  0  0
   41.1516    5.3062   -3.9135 C   0  0  2  0  0  0  0  0  0  0  0  0
   41.2580    5.7486   -5.3146 O   0  0  0  0  0  0  0  0  0  0  0  0
   43.7835    8.3834   -0.8936 C   0  0  2  0  0  0  0  0  0  0  0  0
   43.2629    7.8450    0.4072 N   0  0  0  0  0  0  0  0  0  0  0  0
   44.6429    3.7870  -11.2750 C   0  0  0  0  0  0  0  0  0  0  0  0
   43.6237    3.0886  -11.9185 N   0  0  0  0  0  0  0  0  0  0  0  0
   38.9192   -0.1797   -6.3835 C   0  0  1  0  0  0  0  0  0  0  0  0
   38.7044   -1.0487   -7.4862 O   0  0  0  0  0  0  0  0  0  0  0  0
   38.8585    0.3162   -1.0475 C   0  0  2  0  0  0  0  0  0  0  0  0
   38.9199   -1.1012   -0.9305 N   0  0  0  0  0  0  0  0  0  0  0  0
   42.2494    5.5689   -2.9111 C   0  0  2  0  0  0  0  0  0  0  0  0
   42.6934    6.5053   -2.0049 O   0  0  0  0  0  0  0  0  0  0  0  0
   43.8627    9.9513   -0.8553 C   0  0  1  0  0  0  0  0  0  0  0  0
   44.3928   10.3958   -2.1526 O   0  0  0  0  0  0  0  0  0  0  0  0
   38.6425    1.2922   -6.7684 C   0  0  2  0  0  0  0  0  0  0  0  0
   39.5452    1.7310   -7.8631 O   0  0  0  0  0  0  0  0  0  0  0  0
   39.8271    0.7956   -2.1978 C   0  0  2  0  0  0  0  0  0  0  0  0
   43.2377    4.3187   -3.1292 C   0  0  2  0  0  0  0  0  0  0  0  0
   42.3643    3.3027   -3.3269 O   0  0  0  0  0  0  0  0  0  0  0  0
   42.3727   10.5559   -0.5761 C   0  0  2  0  0  0  0  0  0  0  0  0
   41.8487   10.0997    0.7311 O   0  0  0  0  0  0  0  0  0  0  0  0
   38.8652    2.2366   -5.5402 C   0  0  2  0  0  0  0  0  0  0  0  0
   37.9646    1.7452   -4.5146 O   0  0  0  0  0  0  0  0  0  0  0  0
   39.7114    2.3547   -2.2903 C   0  0  2  0  0  0  0  0  0  0  0  0
   40.5859    2.6672   -3.3474 O   0  0  0  0  0  0  0  0  0  0  0  0
   44.1544    3.8843   -1.9264 C   0  0  0  0  0  0  0  0  0  0  0  0
   43.3163    3.4841   -0.7964 O   0  0  0  0  0  0  0  0  0  0  0  0
   41.3667   10.0807   -1.7167 C   0  0  1  0  0  0  0  0  0  0  0  0
   41.3882    8.5664   -1.7216 O   0  0  0  0  0  0  0  0  0  0  0  0
   38.5574    3.6070   -5.9906 C   0  0  0  0  0  0  0  0  0  0  0  0
   39.5746    4.1042   -6.7071 O   0  0  0  0  0  0  0  0  0  0  0  0
   40.1416    3.0377   -0.9226 C   0  0  1  0  0  0  0  0  0  0  0  0
   40.0259    4.4250   -1.0146 O   0  0  0  0  0  0  0  0  0  0  0  0
   42.4254    5.5339   -6.1852 C   0  0  0  0  0  0  0  0  0  0  0  0
   39.9788   10.6983   -1.3352 C   0  0  0  0  0  0  0  0  0  0  0  0
   39.4262   10.1347   -0.1371 N   0  0  0  0  0  0  0  0  0  0  0  0
   42.1561    6.1608   -7.5539 C   0  0  0  0  0  0  0  0  0  0  0  0
   43.3818    5.9759   -8.3550 N   0  0  0  0  0  0  0  0  0  0  0  0
   43.5810    4.6389   -9.0719 C   0  0  0  0  0  0  0  0  0  0  0  0
  1  2  1  6  0  0  0
  1  8  1  0  0  0  0
  1 33  1  0  0  0  0
  3  4  1  1  0  0  0
  3 10  1  0  0  0  0
  3 42  1  0  0  0  0
  5 11  1  0  0  0  0
  5 29  1  0  0  0  0
  5 35  1  1  0  0  0
  6 13  1  0  0  0  0
  6 39  1  0  0  0  0
  6 22  1  1  0  0  0
  7 15  1  0  0  0  0
  8  9  1  1  0  0  0
  8 17  1  0  0  0  0
 10 19  1  0  0  0  0
 11 12  1  6  0  0  0
 11 21  1  0  0  0  0
 12 44  1  0  0  0  0
 13 14  1  1  0  0  0
 13 23  1  0  0  0  0
 15 16  1  0  0  0  0
 17 18  1  6  0  0  0
 17 25  1  0  0  0  0
 19 20  1  1  0  0  0
 19 27  1  0  0  0  0
 21 22  1  6  0  0  0
 21 28  1  0  0  0  0
 23 24  1  6  0  0  0
 23 30  1  0  0  0  0
 25 26  1  6  0  0  0
 25 32  1  0  0  0  0
 27  2  1  6  0  0  0
 27 34  1  0  0  0  0
 28 29  1  0  0  0  0
 28 36  1  1  0  0  0
 30 31  1  1  0  0  0
 30 38  1  0  0  0  0
 32 33  1  0  0  0  0
 32 40  1  6  0  0  0
 34 35  1  6  0  0  0
 34 42  1  0  0  0  0
 36 37  1  0  0  0  0
 38 39  1  0  0  0  0
 38 45  1  1  0  0  0
 40 41  1  0  0  0  0
 42 43  1  6  0  0  0
 44 47  1  0  0  0  0
 45 46  1  0  0  0  0
 47 48  1  0  0  0  0
 48 49  1  0  0  0  0
 49  7  1  0  0  0  0
M  END
>  <CHROM.1>
-173.42819603,-26.41876735,-162.86889913,70.03915138,-65.81391748,-179.00245963
-40.25060775,62.75563127,61.31240084,-77.79675178,-165.17003278,-67.34810840
177.13299964,83.35020733,145.39765956,178.56514861,41.04211390,4.32660445
-3.69970485,2.12925950,-1.04473069,-2.07935839

>  <Name>
2bee_lig

>  <RI>
0

>  <Rbt.Current_Directory>
/home/itssahil/PROJECTS/Mol_Feturizer/New_Systems/rnas/2bee

>  <Rbt.Executable>
rbdock ($Id: //depot/dev/client3/rdock/2013.1/src/exe/rbdock.cxx#4 $)

>  <Rbt.Library>
libRbt.so (2013.1, Build901 2013/11/27)

>  <Rbt.Parameter_File>
/export/apps/rDock/src/rDock_2013.1_src/data/scripts/dock_solv.prm

>  <Rbt.Receptor>
prm/pocket_docking_5.prm

>  <SCORE>
-14.2378

>  <SCORE.INTER>
-3.97934

>  <SCORE.INTER.CONST>
1

>  <SCORE.INTER.POLAR>
-0.982061

>  <SCORE.INTER.ROT>
16

>  <SCORE.INTER.SOLV>
10.3755

>  <SCORE.INTER.VDW>
-17.1045

>  <SCORE.INTER.norm>
-0.0812111

>  <SCORE.INTRA>
-10.2584

>  <SCORE.INTRA.DIHEDRAL>
-21.8893

>  <SCORE.INTRA.DIHEDRAL.0>
36.0842

>  <SCORE.INTRA.POLAR>
0

>  <SCORE.INTRA.POLAR.0>
0

>  <SCORE.INTRA.REPUL>
0

>  <SCORE.INTRA.REPUL.0>
0

>  <SCORE.INTRA.SOLV>
0.754312

>  <SCORE.INTRA.SOLV.lig_0>
-126.444

>  <SCORE.INTRA.VDW>
0.309098

>  <SCORE.INTRA.VDW.0>
-7.40469

>  <SCORE.INTRA.norm>
-0.209355

>  <SCORE.RESTR>
0

>  <SCORE.RESTR.CAVITY>
0

>  <SCORE.RESTR.norm>
0

>  <SCORE.SYSTEM>
0

>  <SCORE.SYSTEM.CONST>
0

>  <SCORE.SYSTEM.DIHEDRAL>
0

>  <SCORE.SYSTEM.SOLV>
0

>  <SCORE.SYSTEM.norm>
0

>  <SCORE.heavy>
49

>  <SCORE.norm>
-0.290566

>  <RMSD>
8.070

$$$$
2bee_lig
 OpenBabel11021811423D
libRbt.so/2013.1/901 2013/11/27
 49 52  0  0  0  0  0  0  0  0999 V2000
   44.5971    6.2764   -4.8106 C   0  0  2  0  0  0  0  0  0  0  0  0
   43.2938    6.1421   -4.2577 O   0  0  0  0  0  0  0  0  0  0  0  0
   44.1131    6.6310    0.0393 C   0  0  2  0  0  0  0  0  0  0  0  0
   43.8773    6.9233    1.4794 N   0  0  0  0  0  0  0  0  0  0  0  0
   42.2300    2.9789   -1.9181 C   0  0  1  0  0  0  0  0  0  0  0  0
   41.1415   -1.4795   -3.0933 C   0  0  1  0  0  0  0  0  0  0  0  0
   39.6018    5.7569    2.4948 C   0  0  0  0  0  0  0  0  0  0  0  0
   44.5351    6.1978   -6.3851 C   0  0  2  0  0  0  0  0  0  0  0  0
   43.5944    7.1878   -6.8985 N   0  0  0  0  0  0  0  0  0  0  0  0
   43.6938    7.9000   -0.8333 C   0  0  0  0  0  0  0  0  0  0  0  0
   41.2238    1.8771   -1.8391 C   0  0  2  0  0  0  0  0  0  0  0  0
   40.5663    1.7931   -0.5235 O   0  0  0  0  0  0  0  0  0  0  0  0
   41.8102   -2.6119   -4.0427 C   0  0  2  0  0  0  0  0  0  0  0  0
   42.1024   -1.9889   -5.3767 N   0  0  0  0  0  0  0  0  0  0  0  0
   39.9571    6.8382    3.3347 C   0  0  0  0  0  0  0  0  0  0  0  0
   40.9122    6.6576    4.3326 N   0  0  0  0  0  0  0  0  0  0  0  0
   44.1296    4.7225   -6.8221 C   0  0  1  0  0  0  0  0  0  0  0  0
   44.0810    4.6602   -8.2401 O   0  0  0  0  0  0  0  0  0  0  0  0
   43.9258    7.6132   -2.4256 C   0  0  2  0  0  0  0  0  0  0  0  0
   43.5630    8.7430   -3.2119 N   0  0  0  0  0  0  0  0  0  0  0  0
   42.1277    0.7804   -2.3480 C   0  0  2  0  0  0  0  0  0  0  0  0
   42.1115   -0.4059   -3.0461 O   0  0  0  0  0  0  0  0  0  0  0  0
   40.7921   -3.7981   -4.1935 C   0  0  1  0  0  0  0  0  0  0  0  0
   40.5719   -4.3604   -2.8530 O   0  0  0  0  0  0  0  0  0  0  0  0
   45.1647    3.7245   -6.2529 C   0  0  2  0  0  0  0  0  0  0  0  0
   44.8145    2.3300   -6.6253 O   0  0  0  0  0  0  0  0  0  0  0  0
   43.0760    6.3608   -2.8732 C   0  0  2  0  0  0  0  0  0  0  0  0
   43.5546    1.1737   -1.7180 C   0  0  2  0  0  0  0  0  0  0  0  0
   43.5501    2.5228   -1.8356 O   0  0  0  0  0  0  0  0  0  0  0  0
   39.4055   -3.2341   -4.8436 C   0  0  2  0  0  0  0  0  0  0  0  0
   39.6401   -2.6684   -6.1913 O   0  0  0  0  0  0  0  0  0  0  0  0
   45.2212    3.8161   -4.6914 C   0  0  2  0  0  0  0  0  0  0  0  0
   45.5560    5.1980   -4.4037 O   0  0  0  0  0  0  0  0  0  0  0  0
   43.5224    5.1490   -1.9873 C   0  0  2  0  0  0  0  0  0  0  0  0
   42.7293    4.0967   -2.4808 O   0  0  0  0  0  0  0  0  0  0  0  0
   44.8504    0.6710   -2.4554 C   0  0  0  0  0  0  0  0  0  0  0  0
   44.9174   -0.7882   -2.3801 O   0  0  0  0  0  0  0  0  0  0  0  0
   38.7913   -2.0924   -3.9171 C   0  0  1  0  0  0  0  0  0  0  0  0
   39.8492   -1.0173   -3.7812 O   0  0  0  0  0  0  0  0  0  0  0  0
   46.2442    2.8536   -4.2413 C   0  0  0  0  0  0  0  0  0  0  0  0
   47.4425    3.1718   -4.7492 O   0  0  0  0  0  0  0  0  0  0  0  0
   43.2560    5.4420   -0.4493 C   0  0  1  0  0  0  0  0  0  0  0  0
   43.6656    4.3597    0.3298 O   0  0  0  0  0  0  0  0  0  0  0  0
   39.8051    2.8794    0.1148 C   0  0  0  0  0  0  0  0  0  0  0  0
   37.4884   -1.6176   -4.6452 C   0  0  0  0  0  0  0  0  0  0  0  0
   36.8318   -0.5362   -3.9683 N   0  0  0  0  0  0  0  0  0  0  0  0
   39.4738    2.4848    1.5548 C   0  0  0  0  0  0  0  0  0  0  0  0
   38.5216    3.4911    2.0633 N   0  0  0  0  0  0  0  0  0  0  0  0
   38.9944    4.4399    3.1667 C   0  0  0  0  0  0  0  0  0  0  0  0
  1  2  1  1  0  0  0
  1  8  1  0  0  0  0
  1 33  1  0  0  0  0
  3  4  1  1  0  0  0
  3 10  1  0  0  0  0
  3 42  1  0  0  0  0
  5 11  1  0  0  0  0
  5 29  1  0  0  0  0
  5 35  1  6  0  0  0
  6 13  1  0  0  0  0
  6 39  1  0  0  0  0
  6 22  1  6  0  0  0
  7 15  1  0  0  0  0
  8  9  1  1  0  0  0
  8 17  1  0  0  0  0
 10 19  1  0  0  0  0
 11 12  1  1  0  0  0
 11 21  1  0  0  0  0
 12 44  1  0  0  0  0
 13 14  1  6  0  0  0
 13 23  1  0  0  0  0
 15 16  1  0  0  0  0
 17 18  1  6  0  0  0
 17 25  1  0  0  0  0
 19 20  1  6  0  0  0
 19 27  1  0  0  0  0
 21 22  1  1  0  0  0
 21 28  1  0  0  0  0
 23 24  1  1  0  0  0
 23 30  1  0  0  0  0
 25 26  1  1  0  0  0
 25 32  1  0  0  0  0
 27  2  1  6  0  0  0
 27 34  1  0  0  0  0
 28 29  1  0  0  0  0
 28 36  1  6  0  0  0
 30 31  1  6  0  0  0
 30 38  1  0  0  0  0
 32 33  1  0  0  0  0
 32 40  1  6  0  0  0
 34 35  1  6  0  0  0
 34 42  1  0  0  0  0
 36 37  1  0  0  0  0
 38 39  1  0  0  0  0
 38 45  1  6  0  0  0
 40 41  1  0  0  0  0
 42 43  1  1  0  0  0
 44 47  1  0  0  0  0
 45 46  1  0  0  0  0
 47 48  1  0  0  0  0
 48 49  1  0  0  0  0
 49  7  1  0  0  0  0
M  END
>  <CHROM.1>
-171.48044413,154.58362419,-176.22498209,59.72040727,58.12955877,-171.01626181
-35.02997008,40.94744467,-65.99520032,61.05399987,-150.87205403,-177.38459397
-170.35140194,-111.98334090,91.26190058,172.72476339,42.36204210,2.76575011
-2.64590756,-1.09441435,-0.87078840,-2.43330621

>  <Name>
2bee_lig

>  <RI>
3.46266e+07

>  <Rbt.Current_Directory>
/home/itssahil/PROJECTS/Mol_Feturizer/New_Systems/rnas/2bee

>  <Rbt.Executable>
rbdock ($Id: //depot/dev/client3/rdock/2013.1/src/exe/rbdock.cxx#4 $)

>  <Rbt.Library>
libRbt.so (2013.1, Build901 2013/11/27)

>  <Rbt.Parameter_File>
/export/apps/rDock/src/rDock_2013.1_src/data/scripts/dock_solv.prm

>  <Rbt.Receptor>
prm/pocket_docking_4.prm

>  <SCORE>
-8.67017

>  <SCORE.INTER>
-0.0273842

>  <SCORE.INTER.CONST>
1

>  <SCORE.INTER.POLAR>
-0.72232

>  <SCORE.INTER.ROT>
16

>  <SCORE.INTER.SOLV>
16.9941

>  <SCORE.INTER.VDW>
-17.5419

>  <SCORE.INTER.norm>
-0.000558861

>  <SCORE.INTRA>
-8.65202

>  <SCORE.INTRA.DIHEDRAL>
-20.4711

>  <SCORE.INTRA.DIHEDRAL.0>
36.0842

>  <SCORE.INTRA.POLAR>
0

>  <SCORE.INTRA.POLAR.0>
0

>  <SCORE.INTRA.REPUL>
0

>  <SCORE.INTRA.REPUL.0>
0

>  <SCORE.INTRA.SOLV>
-1.97496

>  <SCORE.INTRA.SOLV.lig_0>
-126.444

>  <SCORE.INTRA.VDW>
2.57104

>  <SCORE.INTRA.VDW.0>
-7.40469

>  <SCORE.INTRA.norm>
-0.176572

>  <SCORE.RESTR>
0.00923207

>  <SCORE.RESTR.CAVITY>
0.00923207

>  <SCORE.RESTR.norm>
0.00018841

>  <SCORE.SYSTEM>
0

>  <SCORE.SYSTEM.CONST>
0

>  <SCORE.SYSTEM.DIHEDRAL>
0

>  <SCORE.SYSTEM.SOLV>
0

>  <SCORE.SYSTEM.norm>
0

>  <SCORE.heavy>
49

>  <SCORE.norm>
-0.176942

>  <RMSD>
8.111

$$$$
2bee_lig
 OpenBabel11021811423D
libRbt.so/2013.1/901 2013/11/27
 49 52  0  0  0  0  0  0  0  0999 V2000
   43.7327   11.4011  -12.1901 C   0  0  2  0  0  0  0  0  0  0  0  0
   44.7756   12.3674  -12.1599 O   0  0  0  0  0  0  0  0  0  0  0  0
   48.0996   13.4731   -9.4948 C   0  0  2  0  0  0  0  0  0  0  0  0
   48.8446   13.7534   -8.2373 N   0  0  0  0  0  0  0  0  0  0  0  0
   46.3635    9.3700  -10.1322 C   0  0  1  0  0  0  0  0  0  0  0  0
   44.1059    7.8823   -6.2521 C   0  0  1  0  0  0  0  0  0  0  0  0
   51.1919    4.8381   -5.2551 C   0  0  0  0  0  0  0  0  0  0  0  0
   43.5899   10.7942  -13.6393 C   0  0  2  0  0  0  0  0  0  0  0  0
   44.8722   10.2614  -14.0869 N   0  0  0  0  0  0  0  0  0  0  0  0
   46.7956   14.3918   -9.5527 C   0  0  0  0  0  0  0  0  0  0  0  0
   46.4865    8.7911   -8.7602 C   0  0  2  0  0  0  0  0  0  0  0  0
   47.5528    7.7797   -8.6571 O   0  0  0  0  0  0  0  0  0  0  0  0
   44.7903    6.4118   -6.2733 C   0  0  2  0  0  0  0  0  0  0  0  0
   43.9517    5.5196   -7.1416 N   0  0  0  0  0  0  0  0  0  0  0  0
   52.2051    5.0430   -6.2206 C   0  0  0  0  0  0  0  0  0  0  0  0
   52.6778    6.3298   -6.4685 N   0  0  0  0  0  0  0  0  0  0  0  0
   43.0444   11.9158  -14.6274 C   0  0  1  0  0  0  0  0  0  0  0  0
   42.9147   11.3592  -15.9276 O   0  0  0  0  0  0  0  0  0  0  0  0
   45.9411   14.1034  -10.9159 C   0  0  2  0  0  0  0  0  0  0  0  0
   44.7805   14.9249  -10.9811 N   0  0  0  0  0  0  0  0  0  0  0  0
   45.0301    8.4311   -8.5930 C   0  0  2  0  0  0  0  0  0  0  0  0
   44.0470    8.2910   -7.6397 O   0  0  0  0  0  0  0  0  0  0  0  0
   44.8423    5.8670   -4.8014 C   0  0  1  0  0  0  0  0  0  0  0  0
   45.6899    6.7829   -4.0241 O   0  0  0  0  0  0  0  0  0  0  0  0
   41.6855   12.4344  -14.1022 C   0  0  2  0  0  0  0  0  0  0  0  0
   41.1467   13.4968  -14.9893 O   0  0  0  0  0  0  0  0  0  0  0  0
   45.5188   12.5836  -10.9712 C   0  0  2  0  0  0  0  0  0  0  0  0
   44.6042    7.9718  -10.0746 C   0  0  2  0  0  0  0  0  0  0  0  0
   45.2734    8.8610  -10.8464 O   0  0  0  0  0  0  0  0  0  0  0  0
   43.3258    5.7976   -4.2023 C   0  0  2  0  0  0  0  0  0  0  0  0
   42.4815    4.8748   -4.9942 O   0  0  0  0  0  0  0  0  0  0  0  0
   41.8390   13.0283  -12.6623 C   0  0  2  0  0  0  0  0  0  0  0  0
   42.3752   11.9455  -11.8596 O   0  0  0  0  0  0  0  0  0  0  0  0
   46.8296   11.7290  -10.9082 C   0  0  2  0  0  0  0  0  0  0  0  0
   46.3433   10.4110  -10.9874 O   0  0  0  0  0  0  0  0  0  0  0  0
   43.0879    8.0922  -10.4771 C   0  0  0  0  0  0  0  0  0  0  0  0
   42.8654    9.3678  -11.1573 O   0  0  0  0  0  0  0  0  0  0  0  0
   42.6584    7.2443   -4.2333 C   0  0  1  0  0  0  0  0  0  0  0  0
   42.6943    7.7163   -5.6719 O   0  0  0  0  0  0  0  0  0  0  0  0
   40.4989   13.4732  -12.2359 C   0  0  0  0  0  0  0  0  0  0  0  0
   39.9367   12.5613  -11.4310 O   0  0  0  0  0  0  0  0  0  0  0  0
   47.6226   12.0050   -9.5601 C   0  0  1  0  0  0  0  0  0  0  0  0
   48.7919   11.2451   -9.5197 O   0  0  0  0  0  0  0  0  0  0  0  0
   47.7154    6.8296   -7.5446 C   0  0  0  0  0  0  0  0  0  0  0  0
   41.2134    7.0515   -3.6605 C   0  0  0  0  0  0  0  0  0  0  0  0
   40.1997    7.0906   -4.6752 N   0  0  0  0  0  0  0  0  0  0  0  0
   48.9082    5.9164   -7.8314 C   0  0  0  0  0  0  0  0  0  0  0  0
   49.0714    5.0464   -6.6505 N   0  0  0  0  0  0  0  0  0  0  0  0
   49.8047    5.6122   -5.4325 C   0  0  0  0  0  0  0  0  0  0  0  0
  1  2  1  6  0  0  0
  1  8  1  0  0  0  0
  1 33  1  0  0  0  0
  3  4  1  1  0  0  0
  3 10  1  0  0  0  0
  3 42  1  0  0  0  0
  5 11  1  0  0  0  0
  5 29  1  0  0  0  0
  5 35  1  1  0  0  0
  6 13  1  0  0  0  0
  6 39  1  0  0  0  0
  6 22  1  6  0  0  0
  7 15  1  0  0  0  0
  8  9  1  6  0  0  0
  8 17  1  0  0  0  0
 10 19  1  0  0  0  0
 11 12  1  6  0  0  0
 11 21  1  0  0  0  0
 12 44  1  0  0  0  0
 13 14  1  6  0  0  0
 13 23  1  0  0  0  0
 15 16  1  0  0  0  0
 17 18  1  6  0  0  0
 17 25  1  0  0  0  0
 19 20  1  1  0  0  0
 19 27  1  0  0  0  0
 21 22  1  1  0  0  0
 21 28  1  0  0  0  0
 23 24  1  1  0  0  0
 23 30  1  0  0  0  0
 25 26  1  6  0  0  0
 25 32  1  0  0  0  0
 27  2  1  6  0  0  0
 27 34  1  0  0  0  0
 28 29  1  0  0  0  0
 28 36  1  1  0  0  0
 30 31  1  6  0  0  0
 30 38  1  0  0  0  0
 32 33  1  0  0  0  0
 32 40  1  1  0  0  0
 34 35  1  1  0  0  0
 34 42  1  0  0  0  0
 36 37  1  0  0  0  0
 38 39  1  0  0  0  0
 38 45  1  6  0  0  0
 40 41  1  0  0  0  0
 42 43  1  6  0  0  0
 44 47  1  0  0  0  0
 45 46  1  0  0  0  0
 47 48  1  0  0  0  0
 48 49  1  0  0  0  0
 49  7  1  0  0  0  0
M  END
>  <CHROM.1>
-149.94180665,20.67460808,-57.23239661,57.50355894,-165.42731929,178.07432612
-31.78934110,-147.62942016,94.39729819,99.72870770,-115.76274626,-105.03223673
176.59769628,-80.98794364,-112.33266025,68.77522477,45.12725648,9.43494483
-9.17841965,-1.94985857,0.00824689,2.30704288

>  <Name>
2bee_lig

>  <RI>
0

>  <Rbt.Current_Directory>
/home/itssahil/PROJECTS/Mol_Feturizer/New_Systems/rnas/2bee

>  <Rbt.Executable>
rbdock ($Id: //depot/dev/client3/rdock/2013.1/src/exe/rbdock.cxx#4 $)

>  <Rbt.Library>
libRbt.so (2013.1, Build901 2013/11/27)

>  <Rbt.Parameter_File>
/export/apps/rDock/src/rDock_2013.1_src/data/scripts/dock_solv.prm

>  <Rbt.Receptor>
prm/blind_docking_60.prm

>  <SCORE>
28.302

>  <SCORE.INTER>
-2.04294

>  <SCORE.INTER.CONST>
1

>  <SCORE.INTER.POLAR>
-0.367239

>  <SCORE.INTER.ROT>
16

>  <SCORE.INTER.SOLV>
36.462

>  <SCORE.INTER.VDW>
-26.5585

>  <SCORE.INTER.norm>
-0.0416926

>  <SCORE.INTRA>
6.48205

>  <SCORE.INTRA.DIHEDRAL>
1.82037

>  <SCORE.INTRA.DIHEDRAL.0>
36.0842

>  <SCORE.INTRA.POLAR>
0

>  <SCORE.INTRA.POLAR.0>
0

>  <SCORE.INTRA.REPUL>
0

>  <SCORE.INTRA.REPUL.0>
0

>  <SCORE.INTRA.SOLV>
3.4514

>  <SCORE.INTRA.SOLV.lig_0>
-126.444

>  <SCORE.INTRA.VDW>
3.84616

>  <SCORE.INTRA.VDW.0>
-7.40469

>  <SCORE.INTRA.norm>
0.132287

>  <SCORE.RESTR>
23.8629

>  <SCORE.RESTR.CAVITY>
23.8629

>  <SCORE.RESTR.norm>
0.486998

>  <SCORE.SYSTEM>
0

>  <SCORE.SYSTEM.CONST>
0

>  <SCORE.SYSTEM.DIHEDRAL>
0

>  <SCORE.SYSTEM.SOLV>
0

>  <SCORE.SYSTEM.norm>
0

>  <SCORE.heavy>
49

>  <SCORE.norm>
0.577592

>  <RMSD>
8.126

$$$$
2bee_lig
 OpenBabel11021811423D
libRbt.so/2013.1/901 2013/11/27
 49 52  0  0  0  0  0  0  0  0999 V2000
   44.0653   11.4549  -11.9000 C   0  0  2  0  0  0  0  0  0  0  0  0
   44.9908   12.5329  -11.9588 O   0  0  0  0  0  0  0  0  0  0  0  0
   48.3444   13.5392   -9.2914 C   0  0  2  0  0  0  0  0  0  0  0  0
   49.0704   14.0215   -8.0851 N   0  0  0  0  0  0  0  0  0  0  0  0
   45.9406    9.6265   -9.2768 C   0  0  1  0  0  0  0  0  0  0  0  0
   43.3767    6.5619   -6.6753 C   0  0  1  0  0  0  0  0  0  0  0  0
   50.2624    5.8667   -6.0770 C   0  0  0  0  0  0  0  0  0  0  0  0
   44.0627   10.6600  -13.2627 C   0  0  2  0  0  0  0  0  0  0  0  0
   45.4171   10.2297  -13.5932 N   0  0  0  0  0  0  0  0  0  0  0  0
   47.3931   14.6999   -9.8352 C   0  0  0  0  0  0  0  0  0  0  0  0
   45.8486    8.8670   -7.9934 C   0  0  2  0  0  0  0  0  0  0  0  0
   47.1193    8.2262   -7.6129 O   0  0  0  0  0  0  0  0  0  0  0  0
   42.8128    7.4960   -5.4751 C   0  0  2  0  0  0  0  0  0  0  0  0
   43.7887    8.6155   -5.2576 N   0  0  0  0  0  0  0  0  0  0  0  0
   51.2988    6.2118   -6.9756 C   0  0  0  0  0  0  0  0  0  0  0  0
   52.1185    7.3048   -6.7034 N   0  0  0  0  0  0  0  0  0  0  0  0
   43.4444   11.5783  -14.4057 C   0  0  1  0  0  0  0  0  0  0  0  0
   43.4419   10.8531  -15.6268 O   0  0  0  0  0  0  0  0  0  0  0  0
   46.5664   14.2037  -11.1550 C   0  0  2  0  0  0  0  0  0  0  0  0
   45.7215   15.2354  -11.6530 N   0  0  0  0  0  0  0  0  0  0  0  0
   44.6277    8.0576   -8.3584 C   0  0  2  0  0  0  0  0  0  0  0  0
   43.5211    7.4507   -7.8089 O   0  0  0  0  0  0  0  0  0  0  0  0
   42.6786    6.6155   -4.1817 C   0  0  1  0  0  0  0  0  0  0  0  0
   41.6996    5.5574   -4.4707 O   0  0  0  0  0  0  0  0  0  0  0  0
   42.0119   11.9953  -13.9991 C   0  0  2  0  0  0  0  0  0  0  0  0
   41.4019   12.8686  -15.0341 O   0  0  0  0  0  0  0  0  0  0  0  0
   45.6990   12.9345  -10.7973 C   0  0  2  0  0  0  0  0  0  0  0  0
   44.8432    7.7756   -9.9273 C   0  0  2  0  0  0  0  0  0  0  0  0
   45.3567    8.9534  -10.3554 O   0  0  0  0  0  0  0  0  0  0  0  0
   44.1397    5.9948   -3.8026 C   0  0  2  0  0  0  0  0  0  0  0  0
   45.1171    7.0690   -3.5163 O   0  0  0  0  0  0  0  0  0  0  0  0
   42.0270   12.7775  -12.6435 C   0  0  2  0  0  0  0  0  0  0  0  0
   42.6408   11.8731  -11.6897 O   0  0  0  0  0  0  0  0  0  0  0  0
   46.6764   11.8313  -10.2677 C   0  0  2  0  0  0  0  0  0  0  0  0
   45.8118   10.7527  -10.0053 O   0  0  0  0  0  0  0  0  0  0  0  0
   43.5693    7.5032  -10.8097 C   0  0  0  0  0  0  0  0  0  0  0  0
   42.6777    8.6610  -10.7466 O   0  0  0  0  0  0  0  0  0  0  0  0
   44.6929    5.1187   -5.0132 C   0  0  1  0  0  0  0  0  0  0  0  0
   44.7426    6.0237   -6.2266 O   0  0  0  0  0  0  0  0  0  0  0  0
   40.6261   13.1116  -12.3247 C   0  0  0  0  0  0  0  0  0  0  0  0
   39.9133   11.9957  -12.1201 O   0  0  0  0  0  0  0  0  0  0  0  0
   47.4416   12.3280   -8.9677 C   0  0  1  0  0  0  0  0  0  0  0  0
   48.3151   11.3407   -8.5109 O   0  0  0  0  0  0  0  0  0  0  0  0
   47.8339    7.2187   -8.4137 C   0  0  0  0  0  0  0  0  0  0  0  0
   46.0947    4.5980   -4.5473 C   0  0  0  0  0  0  0  0  0  0  0  0
   47.0728    5.6425   -4.4427 N   0  0  0  0  0  0  0  0  0  0  0  0
   47.4306    5.8208   -7.9423 C   0  0  0  0  0  0  0  0  0  0  0  0
   48.6690    5.0209   -7.8750 N   0  0  0  0  0  0  0  0  0  0  0  0
   49.2493    4.7033   -6.4952 C   0  0  0  0  0  0  0  0  0  0  0  0
  1  2  1  6  0  0  0
  1  8  1  0  0  0  0
  1 33  1  0  0  0  0
  3  4  1  1  0  0  0
  3 10  1  0  0  0  0
  3 42  1  0  0  0  0
  5 11  1  0  0  0  0
  5 29  1  0  0  0  0
  5 35  1  1  0  0  0
  6 13  1  0  0  0  0
  6 39  1  0  0  0  0
  6 22  1  6  0  0  0
  7 15  1  0  0  0  0
  8  9  1  6  0  0  0
  8 17  1  0  0  0  0
 10 19  1  0  0  0  0
 11 12  1  6  0  0  0
 11 21  1  0  0  0  0
 12 44  1  0  0  0  0
 13 14  1  1  0  0  0
 13 23  1  0  0  0  0
 15 16  1  0  0  0  0
 17 18  1  6  0  0  0
 17 25  1  0  0  0  0
 19 20  1  1  0  0  0
 19 27  1  0  0  0  0
 21 22  1  1  0  0  0
 21 28  1  0  0  0  0
 23 24  1  6  0  0  0
 23 30  1  0  0  0  0
 25 26  1  6  0  0  0
 25 32  1  0  0  0  0
 27  2  1  6  0  0  0
 27 34  1  0  0  0  0
 28 29  1  0  0  0  0
 28 36  1  6  0  0  0
 30 31  1  6  0  0  0
 30 38  1  0  0  0  0
 32 33  1  0  0  0  0
 32 40  1  1  0  0  0
 34 35  1  1  0  0  0
 34 42  1  0  0  0  0
 36 37  1  0  0  0  0
 38 39  1  0  0  0  0
 38 45  1  1  0  0  0
 40 41  1  0  0  0  0
 42 43  1  6  0  0  0
 44 47  1  0  0  0  0
 45 46  1  0  0  0  0
 47 48  1  0  0  0  0
 48 49  1  0  0  0  0
 49  7  1  0  0  0  0
M  END
>  <CHROM.1>
-146.56877489,87.41215216,101.82828974,173.77562181,-60.22416491,-94.44199349
-48.55131688,-176.24626640,59.85706387,64.14171361,-162.90630420,-68.64110985
-136.74651966,105.92779363,-89.71192254,-53.02120855,45.30623668,9.36695048
-9.08102436,1.87987851,-0.21173484,-0.76851172

>  <Name>
2bee_lig

>  <RI>
0

>  <Rbt.Current_Directory>
/home/itssahil/PROJECTS/Mol_Feturizer/New_Systems/rnas/2bee

>  <Rbt.Executable>
rbdock ($Id: //depot/dev/client3/rdock/2013.1/src/exe/rbdock.cxx#4 $)

>  <Rbt.Library>
libRbt.so (2013.1, Build901 2013/11/27)

>  <Rbt.Parameter_File>
/export/apps/rDock/src/rDock_2013.1_src/data/scripts/dock_solv.prm

>  <Rbt.Receptor>
prm/blind_docking_60.prm

>  <SCORE>
18.891

>  <SCORE.INTER>
0.500048

>  <SCORE.INTER.CONST>
1

>  <SCORE.INTER.POLAR>
-0.627136

>  <SCORE.INTER.ROT>
16

>  <SCORE.INTER.SOLV>
42.0022

>  <SCORE.INTER.VDW>
-25.8436

>  <SCORE.INTER.norm>
0.0102051

>  <SCORE.INTRA>
-0.514927

>  <SCORE.INTRA.DIHEDRAL>
-5.53662

>  <SCORE.INTRA.DIHEDRAL.0>
36.0842

>  <SCORE.INTRA.POLAR>
0

>  <SCORE.INTRA.POLAR.0>
0

>  <SCORE.INTRA.REPUL>
0.0333281

>  <SCORE.INTRA.REPUL.0>
0

>  <SCORE.INTRA.SOLV>
4.98342

>  <SCORE.INTRA.SOLV.lig_0>
-126.444

>  <SCORE.INTRA.VDW>
-0.404964

>  <SCORE.INTRA.VDW.0>
-7.40469

>  <SCORE.INTRA.norm>
-0.0105087

>  <SCORE.RESTR>
18.9059

>  <SCORE.RESTR.CAVITY>
18.9059

>  <SCORE.RESTR.norm>
0.385835

>  <SCORE.SYSTEM>
0

>  <SCORE.SYSTEM.CONST>
0

>  <SCORE.SYSTEM.DIHEDRAL>
0

>  <SCORE.SYSTEM.SOLV>
0

>  <SCORE.SYSTEM.norm>
0

>  <SCORE.heavy>
49

>  <SCORE.norm>
0.385531

>  <RMSD>
8.129

$$$$
2bee_lig
 OpenBabel11021811423D
libRbt.so/2013.1/901 2013/11/27
 49 52  0  0  0  0  0  0  0  0999 V2000
   44.8430   13.9695  -11.6342 C   0  0  2  0  0  0  0  0  0  0  0  0
   44.8241   13.3333  -10.3626 O   0  0  0  0  0  0  0  0  0  0  0  0
   49.1261   12.8020   -9.5977 C   0  0  2  0  0  0  0  0  0  0  0  0
   50.3930   12.5907   -8.8461 N   0  0  0  0  0  0  0  0  0  0  0  0
   45.9882    9.5679   -9.5567 C   0  0  1  0  0  0  0  0  0  0  0  0
   43.6046    6.6122   -6.6828 C   0  0  1  0  0  0  0  0  0  0  0  0
   51.4777    5.4032   -5.8316 C   0  0  0  0  0  0  0  0  0  0  0  0
   43.4211   13.8820  -12.3119 C   0  0  2  0  0  0  0  0  0  0  0  0
   42.4063   14.4284  -11.4174 N   0  0  0  0  0  0  0  0  0  0  0  0
   48.3736   14.0837   -9.0156 C   0  0  0  0  0  0  0  0  0  0  0  0
   46.0655    8.6483   -8.3816 C   0  0  2  0  0  0  0  0  0  0  0  0
   47.2500    7.7730   -8.4143 O   0  0  0  0  0  0  0  0  0  0  0  0
   42.8705    7.3587   -5.4440 C   0  0  2  0  0  0  0  0  0  0  0  0
   43.6475    8.6020   -5.1221 N   0  0  0  0  0  0  0  0  0  0  0  0
   51.6999    6.6890   -6.3778 C   0  0  0  0  0  0  0  0  0  0  0  0
   52.5470    6.8411   -7.4732 N   0  0  0  0  0  0  0  0  0  0  0  0
   43.1127   12.3681  -12.6927 C   0  0  1  0  0  0  0  0  0  0  0  0
   41.8335   12.2998  -13.3060 O   0  0  0  0  0  0  0  0  0  0  0  0
   46.9675   14.3423   -9.8079 C   0  0  2  0  0  0  0  0  0  0  0  0
   46.2931   15.4891   -9.3017 N   0  0  0  0  0  0  0  0  0  0  0  0
   44.6654    8.0966   -8.5012 C   0  0  2  0  0  0  0  0  0  0  0  0
   43.6288    7.5890   -7.7510 O   0  0  0  0  0  0  0  0  0  0  0  0
   42.8515    6.3806   -4.2156 C   0  0  1  0  0  0  0  0  0  0  0  0
   42.0630    5.2023   -4.6049 O   0  0  0  0  0  0  0  0  0  0  0  0
   44.2176   11.8509  -13.6429 C   0  0  2  0  0  0  0  0  0  0  0  0
   43.9761   10.4326  -14.0118 O   0  0  0  0  0  0  0  0  0  0  0  0
   46.0356   13.0758   -9.6712 C   0  0  2  0  0  0  0  0  0  0  0  0
   44.4465    8.0223  -10.0930 C   0  0  2  0  0  0  0  0  0  0  0  0
   45.0512    9.1594  -10.5120 O   0  0  0  0  0  0  0  0  0  0  0  0
   44.3847    5.9765   -3.8292 C   0  0  2  0  0  0  0  0  0  0  0  0
   45.1692    7.1706   -3.4415 O   0  0  0  0  0  0  0  0  0  0  0  0
   45.6235   11.9484  -12.9618 C   0  0  2  0  0  0  0  0  0  0  0  0
   45.7850   13.3494  -12.6224 O   0  0  0  0  0  0  0  0  0  0  0  0
   46.8196   11.8506  -10.2514 C   0  0  2  0  0  0  0  0  0  0  0  0
   45.8995   10.7964  -10.1028 O   0  0  0  0  0  0  0  0  0  0  0  0
   42.9717    8.0805  -10.6384 C   0  0  0  0  0  0  0  0  0  0  0  0
   42.7115    9.4077  -11.1953 O   0  0  0  0  0  0  0  0  0  0  0  0
   45.0992    5.2861   -5.0750 C   0  0  1  0  0  0  0  0  0  0  0  0
   45.0291    6.2692   -6.2248 O   0  0  0  0  0  0  0  0  0  0  0  0
   46.6108   11.4597  -13.9426 C   0  0  0  0  0  0  0  0  0  0  0  0
   46.6825   10.1222  -13.9086 O   0  0  0  0  0  0  0  0  0  0  0  0
   48.1642   11.6030   -9.4431 C   0  0  1  0  0  0  0  0  0  0  0  0
   48.8575   10.5153   -9.9745 O   0  0  0  0  0  0  0  0  0  0  0  0
   47.4684    6.6090   -7.5401 C   0  0  0  0  0  0  0  0  0  0  0  0
   46.5559    4.9649   -4.5975 C   0  0  0  0  0  0  0  0  0  0  0  0
   47.2289    4.0253   -5.4477 N   0  0  0  0  0  0  0  0  0  0  0  0
   48.9071    6.1169   -7.7052 C   0  0  0  0  0  0  0  0  0  0  0  0
   49.1103    5.0527   -6.7031 N   0  0  0  0  0  0  0  0  0  0  0  0
   50.4945    4.4081   -6.6049 C   0  0  0  0  0  0  0  0  0  0  0  0
  1  2  1  1  0  0  0
  1  8  1  0  0  0  0
  1 33  1  0  0  0  0
  3  4  1  1  0  0  0
  3 10  1  0  0  0  0
  3 42  1  0  0  0  0
  5 11  1  0  0  0  0
  5 29  1  0  0  0  0
  5 35  1  1  0  0  0
  6 13  1  0  0  0  0
  6 39  1  0  0  0  0
  6 22  1  6  0  0  0
  7 15  1  0  0  0  0
  8  9  1  1  0  0  0
  8 17  1  0  0  0  0
 10 19  1  0  0  0  0
 11 12  1  6  0  0  0
 11 21  1  0  0  0  0
 12 44  1  0  0  0  0
 13 14  1  1  0  0  0
 13 23  1  0  0  0  0
 15 16  1  0  0  0  0
 17 18  1  6  0  0  0
 17 25  1  0  0  0  0
 19 20  1  1  0  0  0
 19 27  1  0  0  0  0
 21 22  1  6  0  0  0
 21 28  1  0  0  0  0
 23 24  1  6  0  0  0
 23 30  1  0  0  0  0
 25 26  1  1  0  0  0
 25 32  1  0  0  0  0
 27  2  1  6  0  0  0
 27 34  1  0  0  0  0
 28 29  1  0  0  0  0
 28 36  1  1  0  0  0
 30 31  1  6  0  0  0
 30 38  1  0  0  0  0
 32 33  1  0  0  0  0
 32 40  1  6  0  0  0
 34 35  1  1  0  0  0
 34 42  1  0  0  0  0
 36 37  1  0  0  0  0
 38 39  1  0  0  0  0
 38 45  1  1  0  0  0
 40 41  1  0  0  0  0
 42 43  1  6  0  0  0
 44 47  1  0  0  0  0
 45 46  1  0  0  0  0
 47 48  1  0  0  0  0
 48 49  1  0  0  0  0
 49  7  1  0  0  0  0
M  END
>  <CHROM.1>
168.75638310,74.25666827,125.01227406,-76.69645252,-168.20057585,-169.95454331
-45.68189051,42.40358261,104.12831665,-83.27602251,-128.76061563,164.02422481
173.88435486,-177.73363319,76.88150679,-59.64736323,45.96419144,9.40967043
-8.94093549,1.75925928,-0.04130815,-0.73072465

>  <Name>
2bee_lig

>  <RI>
0

>  <Rbt.Current_Directory>
/home/itssahil/PROJECTS/Mol_Feturizer/New_Systems/rnas/2bee

>  <Rbt.Executable>
rbdock ($Id: //depot/dev/client3/rdock/2013.1/src/exe/rbdock.cxx#4 $)

>  <Rbt.Library>
libRbt.so (2013.1, Build901 2013/11/27)

>  <Rbt.Parameter_File>
/export/apps/rDock/src/rDock_2013.1_src/data/scripts/dock_solv.prm

>  <Rbt.Receptor>
prm/blind_docking_60.prm

>  <SCORE>
38.8619

>  <SCORE.INTER>
15.9491

>  <SCORE.INTER.CONST>
1

>  <SCORE.INTER.POLAR>
-0.67566

>  <SCORE.INTER.ROT>
16

>  <SCORE.INTER.SOLV>
44.1713

>  <SCORE.INTER.VDW>
-16.1055

>  <SCORE.INTER.norm>
0.325492

>  <SCORE.INTRA>
2.44645

>  <SCORE.INTRA.DIHEDRAL>
-4.63327

>  <SCORE.INTRA.DIHEDRAL.0>
36.0842

>  <SCORE.INTRA.POLAR>
0

>  <SCORE.INTRA.POLAR.0>
0

>  <SCORE.INTRA.REPUL>
0.0538894

>  <SCORE.INTRA.REPUL.0>
0

>  <SCORE.INTRA.SOLV>
4.53538

>  <SCORE.INTRA.SOLV.lig_0>
-126.444

>  <SCORE.INTRA.VDW>
2.22595

>  <SCORE.INTRA.VDW.0>
-7.40469

>  <SCORE.INTRA.norm>
0.0499277

>  <SCORE.RESTR>
20.4664

>  <SCORE.RESTR.CAVITY>
20.4664

>  <SCORE.RESTR.norm>
0.417681

>  <SCORE.SYSTEM>
0

>  <SCORE.SYSTEM.CONST>
0

>  <SCORE.SYSTEM.DIHEDRAL>
0

>  <SCORE.SYSTEM.SOLV>
0

>  <SCORE.SYSTEM.norm>
0

>  <SCORE.heavy>
49

>  <SCORE.norm>
0.7931

>  <RMSD>
8.131

$$$$
2bee_lig
 OpenBabel11021811423D
libRbt.so/2013.1/901 2013/11/27
 49 52  0  0  0  0  0  0  0  0999 V2000
   44.0824   10.8571  -13.2565 C   0  0  2  0  0  0  0  0  0  0  0  0
   43.8583   11.6022  -12.0663 O   0  0  0  0  0  0  0  0  0  0  0  0
   47.5486   11.3173   -9.6841 C   0  0  2  0  0  0  0  0  0  0  0  0
   48.4349   11.2115   -8.4932 N   0  0  0  0  0  0  0  0  0  0  0  0
   44.3755    8.1851  -10.3737 C   0  0  1  0  0  0  0  0  0  0  0  0
   46.7317    6.0042   -7.1000 C   0  0  1  0  0  0  0  0  0  0  0  0
   42.1003    7.1659   -5.6589 C   0  0  0  0  0  0  0  0  0  0  0  0
   45.1717   11.5667  -14.1503 C   0  0  2  0  0  0  0  0  0  0  0  0
   46.3897   11.7831  -13.3767 N   0  0  0  0  0  0  0  0  0  0  0  0
   46.6071   12.5971   -9.5305 C   0  0  0  0  0  0  0  0  0  0  0  0
   44.5003    6.8451   -9.7245 C   0  0  2  0  0  0  0  0  0  0  0  0
   43.2962    6.0126   -9.8895 O   0  0  0  0  0  0  0  0  0  0  0  0
   46.6049    5.5338   -5.5529 C   0  0  2  0  0  0  0  0  0  0  0  0
   46.7679    6.7455   -4.6821 N   0  0  0  0  0  0  0  0  0  0  0  0
   43.3212    6.7546   -5.0749 C   0  0  0  0  0  0  0  0  0  0  0  0
   44.1965    7.7049   -4.5539 N   0  0  0  0  0  0  0  0  0  0  0  0
   44.5824   12.9346  -14.7102 C   0  0  1  0  0  0  0  0  0  0  0  0
   45.5678   13.5635  -15.5168 O   0  0  0  0  0  0  0  0  0  0  0  0
   45.6070   12.7409  -10.8152 C   0  0  2  0  0  0  0  0  0  0  0  0
   44.7692   13.8851  -10.6918 N   0  0  0  0  0  0  0  0  0  0  0  0
   44.9395    7.3489   -8.3709 C   0  0  2  0  0  0  0  0  0  0  0  0
   45.6993    7.0037   -7.2761 O   0  0  0  0  0  0  0  0  0  0  0  0
   47.7334    4.4817   -5.2596 C   0  0  1  0  0  0  0  0  0  0  0  0
   47.4948    3.3262   -6.1368 O   0  0  0  0  0  0  0  0  0  0  0  0
   43.3002   12.6377  -15.5220 C   0  0  2  0  0  0  0  0  0  0  0  0
   42.7074   13.8925  -16.0513 O   0  0  0  0  0  0  0  0  0  0  0  0
   44.7173   11.4441  -10.9486 C   0  0  2  0  0  0  0  0  0  0  0  0
   44.0953    8.7081   -8.2055 C   0  0  2  0  0  0  0  0  0  0  0  0
   44.1357    9.2170   -9.4599 O   0  0  0  0  0  0  0  0  0  0  0  0
   49.1883    5.1633   -5.5463 C   0  0  2  0  0  0  0  0  0  0  0  0
   49.4160    6.3266   -4.6595 O   0  0  0  0  0  0  0  0  0  0  0  0
   42.2300   11.9288  -14.6266 C   0  0  2  0  0  0  0  0  0  0  0  0
   42.8782   10.7256  -14.1402 O   0  0  0  0  0  0  0  0  0  0  0  0
   45.6861   10.2222  -11.0927 C   0  0  2  0  0  0  0  0  0  0  0  0
   44.7987    9.1384  -11.2266 O   0  0  0  0  0  0  0  0  0  0  0  0
   44.6722    9.8241   -7.2582 C   0  0  0  0  0  0  0  0  0  0  0  0
   46.1303    9.8508   -7.3702 O   0  0  0  0  0  0  0  0  0  0  0  0
   49.2726    5.6578   -7.0588 C   0  0  1  0  0  0  0  0  0  0  0  0
   48.1258    6.6236   -7.2721 O   0  0  0  0  0  0  0  0  0  0  0  0
   41.0593   11.6647  -15.4840 C   0  0  0  0  0  0  0  0  0  0  0  0
   40.3418   12.7833  -15.6547 O   0  0  0  0  0  0  0  0  0  0  0  0
   46.6230   10.0875   -9.8174 C   0  0  1  0  0  0  0  0  0  0  0  0
   47.4868    9.0015   -9.9614 O   0  0  0  0  0  0  0  0  0  0  0  0
   41.9150    6.4632   -9.6526 C   0  0  0  0  0  0  0  0  0  0  0  0
   50.6901    6.3066   -7.2091 C   0  0  0  0  0  0  0  0  0  0  0  0
   51.7560    5.4049   -6.8782 N   0  0  0  0  0  0  0  0  0  0  0  0
   41.1859    5.4264   -8.7967 C   0  0  0  0  0  0  0  0  0  0  0  0
   41.8619    5.4065   -7.4850 N   0  0  0  0  0  0  0  0  0  0  0  0
   41.1479    6.0508   -6.2949 C   0  0  0  0  0  0  0  0  0  0  0  0
  1  2  1  1  0  0  0
  1  8  1  0  0  0  0
  1 33  1  0  0  0  0
  3  4  1  1  0  0  0
  3 10  1  0  0  0  0
  3 42  1  0  0  0  0
  5 11  1  0  0  0  0
  5 29  1  0  0  0  0
  5 35  1  1  0  0  0
  6 13  1  0  0  0  0
  6 39  1  0  0  0  0
  6 22  1  1  0  0  0
  7 15  1  0  0  0  0
  8  9  1  1  0  0  0
  8 17  1  0  0  0  0
 10 19  1  0  0  0  0
 11 12  1  1  0  0  0
 11 21  1  0  0  0  0
 12 44  1  0  0  0  0
 13 14  1  1  0  0  0
 13 23  1  0  0  0  0
 15 16  1  0  0  0  0
 17 18  1  6  0  0  0
 17 25  1  0  0  0  0
 19 20  1  1  0  0  0
 19 27  1  0  0  0  0
 21 22  1  1  0  0  0
 21 28  1  0  0  0  0
 23 24  1  6  0  0  0
 23 30  1  0  0  0  0
 25 26  1  1  0  0  0
 25 32  1  0  0  0  0
 27  2  1  6  0  0  0
 27 34  1  0  0  0  0
 28 29  1  0  0  0  0
 28 36  1  1  0  0  0
 30 31  1  1  0  0  0
 30 38  1  0  0  0  0
 32 33  1  0  0  0  0
 32 40  1  6  0  0  0
 34 35  1  1  0  0  0
 34 42  1  0  0  0  0
 36 37  1  0  0  0  0
 38 39  1  0  0  0  0
 38 45  1  1  0  0  0
 40 41  1  0  0  0  0
 42 43  1  6  0  0  0
 44 47  1  0  0  0  0
 45 46  1  0  0  0  0
 47 48  1  0  0  0  0
 48 49  1  0  0  0  0
 49  7  1  0  0  0  0
M  END
>  <CHROM.1>
-83.09272349,-88.91645333,-148.40363921,177.73810186,-47.61433066,-132.37018113
17.29585828,107.96292369,36.29902236,-77.97415415,-102.11700328,57.33245706
64.72620715,106.25239798,-123.79354367,-64.44600393,45.20567612,8.92677401
-9.60573857,-1.90771473,0.21241939,2.31662760

>  <Name>
2bee_lig

>  <RI>
0

>  <Rbt.Current_Directory>
/home/itssahil/PROJECTS/Mol_Feturizer/New_Systems/rnas/2bee

>  <Rbt.Executable>
rbdock ($Id: //depot/dev/client3/rdock/2013.1/src/exe/rbdock.cxx#4 $)

>  <Rbt.Library>
libRbt.so (2013.1, Build901 2013/11/27)

>  <Rbt.Parameter_File>
/export/apps/rDock/src/rDock_2013.1_src/data/scripts/dock_solv.prm

>  <Rbt.Receptor>
prm/blind_docking_60.prm

>  <SCORE>
58.2017

>  <SCORE.INTER>
25.8426

>  <SCORE.INTER.CONST>
1

>  <SCORE.INTER.POLAR>
-0.162828

>  <SCORE.INTER.ROT>
16

>  <SCORE.INTER.SOLV>
35.6158

>  <SCORE.INTER.VDW>
-8.36745

>  <SCORE.INTER.norm>
0.5274

>  <SCORE.INTRA>
12.8732

>  <SCORE.INTRA.DIHEDRAL>
1.51029

>  <SCORE.INTRA.DIHEDRAL.0>
36.0842

>  <SCORE.INTRA.POLAR>
0

>  <SCORE.INTRA.POLAR.0>
0

>  <SCORE.INTRA.REPUL>
0.06072

>  <SCORE.INTRA.REPUL.0>
0

>  <SCORE.INTRA.SOLV>
12.6093

>  <SCORE.INTRA.SOLV.lig_0>
-126.444

>  <SCORE.INTRA.VDW>
5.5098

>  <SCORE.INTRA.VDW.0>
-7.40469

>  <SCORE.INTRA.norm>
0.262718

>  <SCORE.RESTR>
19.4859

>  <SCORE.RESTR.CAVITY>
19.4859

>  <SCORE.RESTR.norm>
0.397671

>  <SCORE.SYSTEM>
0

>  <SCORE.SYSTEM.CONST>
0

>  <SCORE.SYSTEM.DIHEDRAL>
0

>  <SCORE.SYSTEM.SOLV>
0

>  <SCORE.SYSTEM.norm>
0

>  <SCORE.heavy>
49

>  <SCORE.norm>
1.18779

>  <RMSD>
8.141

$$$$
2bee_lig
 OpenBabel11021811423D
libRbt.so/2013.1/901 2013/11/27
 49 52  0  0  0  0  0  0  0  0999 V2000
   45.1064    1.6395   -3.0031 C   0  0  2  0  0  0  0  0  0  0  0  0
   45.3317    1.7393   -4.4036 O   0  0  0  0  0  0  0  0  0  0  0  0
   49.0762    4.0522   -4.4678 C   0  0  2  0  0  0  0  0  0  0  0  0
   50.3156    4.6847   -4.9957 N   0  0  0  0  0  0  0  0  0  0  0  0
   44.7718    5.6101   -5.3247 C   0  0  1  0  0  0  0  0  0  0  0  0
   44.9627    8.2085   -9.0442 C   0  0  1  0  0  0  0  0  0  0  0  0
   39.6199    9.6149   -1.0162 C   0  0  0  0  0  0  0  0  0  0  0  0
   43.7332    0.9165   -2.7192 C   0  0  2  0  0  0  0  0  0  0  0  0
   43.6998   -0.3764   -3.3944 N   0  0  0  0  0  0  0  0  0  0  0  0
   49.1110    2.4857   -4.7725 C   0  0  0  0  0  0  0  0  0  0  0  0
   44.8417    7.0658   -5.6544 C   0  0  2  0  0  0  0  0  0  0  0  0
   44.3949    7.9277   -4.5463 O   0  0  0  0  0  0  0  0  0  0  0  0
   45.9326    9.0279   -8.0349 C   0  0  2  0  0  0  0  0  0  0  0  0
   45.0874    9.9959   -7.2591 N   0  0  0  0  0  0  0  0  0  0  0  0
   38.7975    8.4714   -1.1457 C   0  0  0  0  0  0  0  0  0  0  0  0
   37.9113    8.1342   -0.1250 N   0  0  0  0  0  0  0  0  0  0  0  0
   42.5378    1.8549   -3.1910 C   0  0  1  0  0  0  0  0  0  0  0  0
   41.3064    1.1981   -2.9273 O   0  0  0  0  0  0  0  0  0  0  0  0
   47.7577    1.7553   -4.2187 C   0  0  2  0  0  0  0  0  0  0  0  0
   47.7835    0.3559   -4.4778 N   0  0  0  0  0  0  0  0  0  0  0  0
   44.0810    6.9853   -6.9558 C   0  0  2  0  0  0  0  0  0  0  0  0
   43.9746    7.5816   -8.1919 O   0  0  0  0  0  0  0  0  0  0  0  0
   47.0089    9.7888   -8.8886 C   0  0  1  0  0  0  0  0  0  0  0  0
   47.7999    8.7752   -9.6018 O   0  0  0  0  0  0  0  0  0  0  0  0
   42.6260    3.2027   -2.4380 C   0  0  2  0  0  0  0  0  0  0  0  0
   41.5346    4.1169   -2.8611 O   0  0  0  0  0  0  0  0  0  0  0  0
   46.4865    2.3972   -4.8993 C   0  0  2  0  0  0  0  0  0  0  0  0
   42.9750    5.8572   -6.6528 C   0  0  2  0  0  0  0  0  0  0  0  0
   43.6790    4.9661   -5.9151 O   0  0  0  0  0  0  0  0  0  0  0  0
   46.2541   10.7997   -9.9239 C   0  0  2  0  0  0  0  0  0  0  0  0
   45.4592   11.8135   -9.1948 O   0  0  0  0  0  0  0  0  0  0  0  0
   43.9944    3.9071   -2.7227 C   0  0  2  0  0  0  0  0  0  0  0  0
   45.0060    2.9585   -2.2970 O   0  0  0  0  0  0  0  0  0  0  0  0
   46.5021    3.9290   -4.5736 C   0  0  2  0  0  0  0  0  0  0  0  0
   45.3294    4.3899   -5.1999 O   0  0  0  0  0  0  0  0  0  0  0  0
   42.3872    5.0542   -7.8715 C   0  0  0  0  0  0  0  0  0  0  0  0
   41.7135    5.9785   -8.7831 O   0  0  0  0  0  0  0  0  0  0  0  0
   45.2739    9.9781  -10.8744 C   0  0  1  0  0  0  0  0  0  0  0  0
   44.3060    9.2369   -9.9758 O   0  0  0  0  0  0  0  0  0  0  0  0
   43.9996    5.1638   -1.9505 C   0  0  0  0  0  0  0  0  0  0  0  0
   43.9331    4.9068   -0.6371 O   0  0  0  0  0  0  0  0  0  0  0  0
   47.8113    4.6184   -5.1507 C   0  0  1  0  0  0  0  0  0  0  0  0
   47.8179    5.9800   -4.8468 O   0  0  0  0  0  0  0  0  0  0  0  0
   43.0621    7.8845   -3.9229 C   0  0  0  0  0  0  0  0  0  0  0  0
   44.5967   11.0444  -11.8003 C   0  0  0  0  0  0  0  0  0  0  0  0
   43.5762   10.4876  -12.6412 N   0  0  0  0  0  0  0  0  0  0  0  0
   43.0576    8.7749   -2.6795 C   0  0  0  0  0  0  0  0  0  0  0  0
   41.7257    8.6334   -2.0598 N   0  0  0  0  0  0  0  0  0  0  0  0
   40.7844    9.8394   -2.0878 C   0  0  0  0  0  0  0  0  0  0  0  0
  1  2  1  6  0  0  0
  1  8  1  0  0  0  0
  1 33  1  0  0  0  0
  3  4  1  6  0  0  0
  3 10  1  0  0  0  0
  3 42  1  0  0  0  0
  5 11  1  0  0  0  0
  5 29  1  0  0  0  0
  5 35  1  6  0  0  0
  6 13  1  0  0  0  0
  6 39  1  0  0  0  0
  6 22  1  1  0  0  0
  7 15  1  0  0  0  0
  8  9  1  6  0  0  0
  8 17  1  0  0  0  0
 10 19  1  0  0  0  0
 11 12  1  1  0  0  0
 11 21  1  0  0  0  0
 12 44  1  0  0  0  0
 13 14  1  6  0  0  0
 13 23  1  0  0  0  0
 15 16  1  0  0  0  0
 17 18  1  1  0  0  0
 17 25  1  0  0  0  0
 19 20  1  6  0  0  0
 19 27  1  0  0  0  0
 21 22  1  1  0  0  0
 21 28  1  0  0  0  0
 23 24  1  6  0  0  0
 23 30  1  0  0  0  0
 25 26  1  6  0  0  0
 25 32  1  0  0  0  0
 27  2  1  1  0  0  0
 27 34  1  0  0  0  0
 28 29  1  0  0  0  0
 28 36  1  6  0  0  0
 30 31  1  1  0  0  0
 30 38  1  0  0  0  0
 32 33  1  0  0  0  0
 32 40  1  1  0  0  0
 34 35  1  6  0  0  0
 34 42  1  0  0  0  0
 36 37  1  0  0  0  0
 38 39  1  0  0  0  0
 38 45  1  6  0  0  0
 40 41  1  0  0  0  0
 42 43  1  1  0  0  0
 44 47  1  0  0  0  0
 45 46  1  0  0  0  0
 47 48  1  0  0  0  0
 48 49  1  0  0  0  0
 49  7  1  0  0  0  0
M  END
>  <CHROM.1>
177.78818021,48.95908249,-39.29067518,170.24377883,-58.89206751,171.39510359
33.24173717,53.60805308,-61.33265156,62.78926683,-178.35772420,-174.27314960
-176.96877110,-111.52349210,-163.41123033,-58.66574807,44.43893509,5.99922595
-5.31560065,-1.70026972,0.65435397,-0.69352884

>  <Name>
2bee_lig

>  <RI>
2.18182e+07

>  <Rbt.Current_Directory>
/home/itssahil/PROJECTS/Mol_Feturizer/New_Systems/rnas/2bee

>  <Rbt.Executable>
rbdock ($Id: //depot/dev/client3/rdock/2013.1/src/exe/rbdock.cxx#4 $)

>  <Rbt.Library>
libRbt.so (2013.1, Build901 2013/11/27)

>  <Rbt.Parameter_File>
/export/apps/rDock/src/rDock_2013.1_src/data/scripts/dock_solv.prm

>  <Rbt.Receptor>
prm/pocket_docking_3.prm

>  <SCORE>
-18.5259

>  <SCORE.INTER>
-6.2633

>  <SCORE.INTER.CONST>
1

>  <SCORE.INTER.POLAR>
-0.439197

>  <SCORE.INTER.ROT>
16

>  <SCORE.INTER.SOLV>
27.7069

>  <SCORE.INTER.VDW>
-26.2138

>  <SCORE.INTER.norm>
-0.127822

>  <SCORE.INTRA>
-13.0761

>  <SCORE.INTRA.DIHEDRAL>
-26.1979

>  <SCORE.INTRA.DIHEDRAL.0>
36.0842

>  <SCORE.INTRA.POLAR>
0

>  <SCORE.INTRA.POLAR.0>
0

>  <SCORE.INTRA.REPUL>
0

>  <SCORE.INTRA.REPUL.0>
0

>  <SCORE.INTRA.SOLV>
-1.46689

>  <SCORE.INTRA.SOLV.lig_0>
-126.444

>  <SCORE.INTRA.VDW>
0.756264

>  <SCORE.INTRA.VDW.0>
-7.40469

>  <SCORE.INTRA.norm>
-0.26686

>  <SCORE.RESTR>
0.813517

>  <SCORE.RESTR.CAVITY>
0.813517

>  <SCORE.RESTR.norm>
0.0166024

>  <SCORE.SYSTEM>
0

>  <SCORE.SYSTEM.CONST>
0

>  <SCORE.SYSTEM.DIHEDRAL>
0

>  <SCORE.SYSTEM.SOLV>
0

>  <SCORE.SYSTEM.norm>
0

>  <SCORE.heavy>
49

>  <SCORE.norm>
-0.37808

>  <RMSD>
8.155

$$$$
2bee_lig
 OpenBabel11021811423D
libRbt.so/2013.1/901 2013/11/27
 49 52  0  0  0  0  0  0  0  0999 V2000
   42.3547    2.6722   -9.9607 C   0  0  2  0  0  0  0  0  0  0  0  0
   42.5784    1.9876   -8.7346 O   0  0  0  0  0  0  0  0  0  0  0  0
   38.5718    2.2207   -6.9271 C   0  0  2  0  0  0  0  0  0  0  0  0
   37.4520    1.9652   -5.9808 N   0  0  0  0  0  0  0  0  0  0  0  0
   42.7093    3.4980   -5.4637 C   0  0  1  0  0  0  0  0  0  0  0  0
   41.5527   -0.2233   -3.2874 C   0  0  1  0  0  0  0  0  0  0  0  0
   44.1674    9.1624   -1.2096 C   0  0  0  0  0  0  0  0  0  0  0  0
   43.6916    2.7546  -10.7942 C   0  0  2  0  0  0  0  0  0  0  0  0
   44.2471    1.4186  -10.9817 N   0  0  0  0  0  0  0  0  0  0  0  0
   39.0905    0.8323   -7.5197 C   0  0  0  0  0  0  0  0  0  0  0  0
   42.7088    3.3341   -3.9785 C   0  0  2  0  0  0  0  0  0  0  0  0
   43.6288    4.2619   -3.2980 O   0  0  0  0  0  0  0  0  0  0  0  0
   40.2680    0.6280   -2.7816 C   0  0  2  0  0  0  0  0  0  0  0  0
   40.5696    1.1567   -1.4095 N   0  0  0  0  0  0  0  0  0  0  0  0
   44.0032   10.3993   -0.5433 C   0  0  0  0  0  0  0  0  0  0  0  0
   42.9751   11.2602   -0.9209 N   0  0  0  0  0  0  0  0  0  0  0  0
   44.7172    3.7163  -10.0490 C   0  0  1  0  0  0  0  0  0  0  0  0
   45.9151    3.7879  -10.8086 O   0  0  0  0  0  0  0  0  0  0  0  0
   40.3322    1.0698   -8.5557 C   0  0  2  0  0  0  0  0  0  0  0  0
   40.7961   -0.1624   -9.0967 N   0  0  0  0  0  0  0  0  0  0  0  0
   42.9339    1.8414   -3.9692 C   0  0  2  0  0  0  0  0  0  0  0  0
   42.6625    0.7052   -3.2408 O   0  0  0  0  0  0  0  0  0  0  0  0
   39.0214   -0.3265   -2.7486 C   0  0  1  0  0  0  0  0  0  0  0  0
   38.7845   -0.7866   -4.1248 O   0  0  0  0  0  0  0  0  0  0  0  0
   44.0732    5.1127   -9.8859 C   0  0  2  0  0  0  0  0  0  0  0  0
   44.9935    6.0398   -9.1792 O   0  0  0  0  0  0  0  0  0  0  0  0
   41.5166    1.8019   -7.8126 C   0  0  2  0  0  0  0  0  0  0  0  0
   43.9238    1.6225   -5.2180 C   0  0  2  0  0  0  0  0  0  0  0  0
   43.4263    2.4956   -6.1258 O   0  0  0  0  0  0  0  0  0  0  0  0
   39.3291   -1.5742   -1.7426 C   0  0  2  0  0  0  0  0  0  0  0  0
   39.5684   -1.0988   -0.3613 O   0  0  0  0  0  0  0  0  0  0  0  0
   42.7453    5.0171   -9.0629 C   0  0  2  0  0  0  0  0  0  0  0  0
   41.9054    4.0940   -9.8025 O   0  0  0  0  0  0  0  0  0  0  0  0
   40.9556    3.1513   -7.2495 C   0  0  2  0  0  0  0  0  0  0  0  0
   42.0854    3.7238   -6.6364 O   0  0  0  0  0  0  0  0  0  0  0  0
   43.9279    0.2132   -5.9179 C   0  0  0  0  0  0  0  0  0  0  0  0
   44.9940    0.1707   -6.9185 O   0  0  0  0  0  0  0  0  0  0  0  0
   40.6205   -2.3678   -2.2340 C   0  0  1  0  0  0  0  0  0  0  0  0
   41.7583   -1.3698   -2.2874 O   0  0  0  0  0  0  0  0  0  0  0  0
   42.1928    6.3821   -8.9788 C   0  0  0  0  0  0  0  0  0  0  0  0
   41.8564    6.8272  -10.1970 O   0  0  0  0  0  0  0  0  0  0  0  0
   39.7731    2.8894   -6.2222 C   0  0  1  0  0  0  0  0  0  0  0  0
   39.2761    4.0983   -5.7346 O   0  0  0  0  0  0  0  0  0  0  0  0
   43.7342    4.4341   -1.8399 C   0  0  0  0  0  0  0  0  0  0  0  0
   40.8281   -3.5174   -1.1907 C   0  0  0  0  0  0  0  0  0  0  0  0
   41.6910   -4.5587   -1.6700 N   0  0  0  0  0  0  0  0  0  0  0  0
   42.7986    5.5594   -1.3958 C   0  0  0  0  0  0  0  0  0  0  0  0
   43.4014    6.8229   -1.8630 N   0  0  0  0  0  0  0  0  0  0  0  0
   42.9502    8.1265   -1.2008 C   0  0  0  0  0  0  0  0  0  0  0  0
  1  2  1  1  0  0  0
  1  8  1  0  0  0  0
  1 33  1  0  0  0  0
  3  4  1  1  0  0  0
  3 10  1  0  0  0  0
  3 42  1  0  0  0  0
  5 11  1  0  0  0  0
  5 29  1  0  0  0  0
  5 35  1  6  0  0  0
  6 13  1  0  0  0  0
  6 39  1  0  0  0  0
  6 22  1  1  0  0  0
  7 15  1  0  0  0  0
  8  9  1  1  0  0  0
  8 17  1  0  0  0  0
 10 19  1  0  0  0  0
 11 12  1  1  0  0  0
 11 21  1  0  0  0  0
 12 44  1  0  0  0  0
 13 14  1  1  0  0  0
 13 23  1  0  0  0  0
 15 16  1  0  0  0  0
 17 18  1  6  0  0  0
 17 25  1  0  0  0  0
 19 20  1  1  0  0  0
 19 27  1  0  0  0  0
 21 22  1  1  0  0  0
 21 28  1  0  0  0  0
 23 24  1  6  0  0  0
 23 30  1  0  0  0  0
 25 26  1  1  0  0  0
 25 32  1  0  0  0  0
 27  2  1  6  0  0  0
 27 34  1  0  0  0  0
 28 29  1  0  0  0  0
 28 36  1  6  0  0  0
 30 31  1  1  0  0  0
 30 38  1  0  0  0  0
 32 33  1  0  0  0  0
 32 40  1  6  0  0  0
 34 35  1  1  0  0  0
 34 42  1  0  0  0  0
 36 37  1  0  0  0  0
 38 39  1  0  0  0  0
 38 45  1  1  0  0  0
 40 41  1  0  0  0  0
 42 43  1  6  0  0  0
 44 47  1  0  0  0  0
 45 46  1  0  0  0  0
 47 48  1  0  0  0  0
 48 49  1  0  0  0  0
 49  7  1  0  0  0  0
M  END
>  <CHROM.1>
179.48447361,-51.10875842,-66.76876314,-58.61511216,172.99459696,-91.90146019
89.44473484,55.73505401,-173.53958853,64.40212261,-78.08070237,162.79020901
-72.00642836,-160.72698952,148.94267564,-174.77418482,42.06595841,2.69208793
-5.46219595,0.32853978,-1.23158319,-1.95236867

>  <Name>
2bee_lig

>  <RI>
0

>  <Rbt.Current_Directory>
/home/itssahil/PROJECTS/Mol_Feturizer/New_Systems/rnas/2bee

>  <Rbt.Executable>
rbdock ($Id: //depot/dev/client3/rdock/2013.1/src/exe/rbdock.cxx#4 $)

>  <Rbt.Library>
libRbt.so (2013.1, Build901 2013/11/27)

>  <Rbt.Parameter_File>
/export/apps/rDock/src/rDock_2013.1_src/data/scripts/dock_solv.prm

>  <Rbt.Receptor>
prm/pocket_docking_7.prm

>  <SCORE>
-12.1397

>  <SCORE.INTER>
-1.30473

>  <SCORE.INTER.CONST>
1

>  <SCORE.INTER.POLAR>
-0.87178

>  <SCORE.INTER.ROT>
16

>  <SCORE.INTER.SOLV>
16.004

>  <SCORE.INTER.VDW>
-17.5652

>  <SCORE.INTER.norm>
-0.0266272

>  <SCORE.INTRA>
-10.835

>  <SCORE.INTRA.DIHEDRAL>
-22.1652

>  <SCORE.INTRA.DIHEDRAL.0>
36.0842

>  <SCORE.INTRA.POLAR>
0

>  <SCORE.INTRA.POLAR.0>
0

>  <SCORE.INTRA.REPUL>
0

>  <SCORE.INTRA.REPUL.0>
0

>  <SCORE.INTRA.SOLV>
-1.46115

>  <SCORE.INTRA.SOLV.lig_0>
-126.444

>  <SCORE.INTRA.VDW>
0.978194

>  <SCORE.INTRA.VDW.0>
-7.40469

>  <SCORE.INTRA.norm>
-0.221122

>  <SCORE.RESTR>
0

>  <SCORE.RESTR.CAVITY>
0

>  <SCORE.RESTR.norm>
0

>  <SCORE.SYSTEM>
0

>  <SCORE.SYSTEM.CONST>
0

>  <SCORE.SYSTEM.DIHEDRAL>
0

>  <SCORE.SYSTEM.SOLV>
0

>  <SCORE.SYSTEM.norm>
0

>  <SCORE.heavy>
49

>  <SCORE.norm>
-0.247749

>  <RMSD>
8.156

$$$$
2bee_lig
 OpenBabel11021811423D
libRbt.so/2013.1/901 2013/11/27
 49 52  0  0  0  0  0  0  0  0999 V2000
   43.4581    7.0492    0.2955 C   0  0  2  0  0  0  0  0  0  0  0  0
   42.9886    6.6329   -0.9806 O   0  0  0  0  0  0  0  0  0  0  0  0
   44.5528    5.1847   -4.8316 C   0  0  2  0  0  0  0  0  0  0  0  0
   45.5299    4.7238   -5.8551 N   0  0  0  0  0  0  0  0  0  0  0  0
   42.9159    2.7103   -1.1443 C   0  0  1  0  0  0  0  0  0  0  0  0
   43.0988   -0.1847   -4.5434 C   0  0  1  0  0  0  0  0  0  0  0  0
   39.1128   -3.1589    1.0500 C   0  0  0  0  0  0  0  0  0  0  0  0
   42.2447    7.2841    1.2760 C   0  0  2  0  0  0  0  0  0  0  0  0
   41.4133    6.0869    1.3385 N   0  0  0  0  0  0  0  0  0  0  0  0
   44.9901    6.6222   -4.2927 C   0  0  0  0  0  0  0  0  0  0  0  0
   41.8943    1.6415   -1.3603 C   0  0  2  0  0  0  0  0  0  0  0  0
   41.2358    1.2159   -0.1131 O   0  0  0  0  0  0  0  0  0  0  0  0
   42.2028    1.0237   -5.1500 C   0  0  2  0  0  0  0  0  0  0  0  0
   40.7583    0.7098   -4.8888 N   0  0  0  0  0  0  0  0  0  0  0  0
   38.4348   -3.3148   -0.1816 C   0  0  0  0  0  0  0  0  0  0  0  0
   38.7112   -4.4136   -0.9920 N   0  0  0  0  0  0  0  0  0  0  0  0
   41.4130    8.5503    0.7890 C   0  0  1  0  0  0  0  0  0  0  0  0
   40.3262    8.7566    1.6797 O   0  0  0  0  0  0  0  0  0  0  0  0
   43.9470    7.1584   -3.1543 C   0  0  2  0  0  0  0  0  0  0  0  0
   44.3236    8.4444   -2.6738 N   0  0  0  0  0  0  0  0  0  0  0  0
   42.7828    0.7097   -2.1485 C   0  0  2  0  0  0  0  0  0  0  0  0
   42.7500   -0.2450   -3.1397 O   0  0  0  0  0  0  0  0  0  0  0  0
   42.4808    1.1223   -6.6924 C   0  0  1  0  0  0  0  0  0  0  0  0
   43.9051    1.4453   -6.8618 O   0  0  0  0  0  0  0  0  0  0  0  0
   42.3460    9.7828    0.7490 C   0  0  2  0  0  0  0  0  0  0  0  0
   41.6115   10.9868    0.2833 O   0  0  0  0  0  0  0  0  0  0  0  0
   43.8956    6.1373   -1.9519 C   0  0  2  0  0  0  0  0  0  0  0  0
   44.2151    0.9000   -1.4415 C   0  0  2  0  0  0  0  0  0  0  0  0
   44.2295    2.2311   -1.1924 O   0  0  0  0  0  0  0  0  0  0  0  0
   42.0993   -0.2994   -7.3971 C   0  0  2  0  0  0  0  0  0  0  0  0
   40.6641   -0.6150   -7.2179 O   0  0  0  0  0  0  0  0  0  0  0  0
   43.5484    9.5353   -0.2220 C   0  0  2  0  0  0  0  0  0  0  0  0
   44.2085    8.3474    0.2854 O   0  0  0  0  0  0  0  0  0  0  0  0
   43.4667    4.7478   -2.5333 C   0  0  2  0  0  0  0  0  0  0  0  0
   43.4307    3.9314   -1.3879 O   0  0  0  0  0  0  0  0  0  0  0  0
   45.5037    0.5966   -2.2919 C   0  0  0  0  0  0  0  0  0  0  0  0
   45.4973   -0.8081   -2.6996 O   0  0  0  0  0  0  0  0  0  0  0  0
   42.9590   -1.4770   -6.7543 C   0  0  1  0  0  0  0  0  0  0  0  0
   42.6742   -1.4704   -5.2669 O   0  0  0  0  0  0  0  0  0  0  0  0
   44.3917   10.7447   -0.1785 C   0  0  0  0  0  0  0  0  0  0  0  0
   43.8810   11.7005   -0.9665 O   0  0  0  0  0  0  0  0  0  0  0  0
   44.5139    4.2365   -3.6124 C   0  0  1  0  0  0  0  0  0  0  0  0
   44.1165    3.0031   -4.1290 O   0  0  0  0  0  0  0  0  0  0  0  0
   40.1508    0.2252   -0.0226 C   0  0  0  0  0  0  0  0  0  0  0  0
   42.4964   -2.7817   -7.4871 C   0  0  0  0  0  0  0  0  0  0  0  0
   43.0204   -3.9754   -6.8880 N   0  0  0  0  0  0  0  0  0  0  0  0
   39.6818    0.1220    1.4295 C   0  0  0  0  0  0  0  0  0  0  0  0
   38.4717   -0.7228    1.4265 N   0  0  0  0  0  0  0  0  0  0  0  0
   38.5471   -2.0947    2.1000 C   0  0  0  0  0  0  0  0  0  0  0  0
  1  2  1  6  0  0  0
  1  8  1  0  0  0  0
  1 33  1  0  0  0  0
  3  4  1  6  0  0  0
  3 10  1  0  0  0  0
  3 42  1  0  0  0  0
  5 11  1  0  0  0  0
  5 29  1  0  0  0  0
  5 35  1  6  0  0  0
  6 13  1  0  0  0  0
  6 39  1  0  0  0  0
  6 22  1  1  0  0  0
  7 15  1  0  0  0  0
  8  9  1  6  0  0  0
  8 17  1  0  0  0  0
 10 19  1  0  0  0  0
 11 12  1  1  0  0  0
 11 21  1  0  0  0  0
 12 44  1  0  0  0  0
 13 14  1  6  0  0  0
 13 23  1  0  0  0  0
 15 16  1  0  0  0  0
 17 18  1  1  0  0  0
 17 25  1  0  0  0  0
 19 20  1  1  0  0  0
 19 27  1  0  0  0  0
 21 22  1  1  0  0  0
 21 28  1  0  0  0  0
 23 24  1  1  0  0  0
 23 30  1  0  0  0  0
 25 26  1  6  0  0  0
 25 32  1  0  0  0  0
 27  2  1  1  0  0  0
 27 34  1  0  0  0  0
 28 29  1  0  0  0  0
 28 36  1  6  0  0  0
 30 31  1  1  0  0  0
 30 38  1  0  0  0  0
 32 33  1  0  0  0  0
 32 40  1  1  0  0  0
 34 35  1  1  0  0  0
 34 42  1  0  0  0  0
 36 37  1  0  0  0  0
 38 39  1  0  0  0  0
 38 45  1  6  0  0  0
 40 41  1  0  0  0  0
 42 43  1  6  0  0  0
 44 47  1  0  0  0  0
 45 46  1  0  0  0  0
 47 48  1  0  0  0  0
 48 49  1  0  0  0  0
 49  7  1  0  0  0  0
M  END
>  <CHROM.1>
-168.89046535,-32.65183451,-55.69104887,-166.15841225,177.21067874,-176.61517411
102.36612296,-113.27868395,-61.63203520,-80.84898328,166.01735450,-170.87746636
171.66540594,112.81197058,-85.78715398,-56.19673664,42.55563306,3.04528642
-2.23404738,1.29993513,1.00630063,0.53960447

>  <Name>
2bee_lig

>  <RI>
0

>  <Rbt.Current_Directory>
/home/itssahil/PROJECTS/Mol_Feturizer/New_Systems/rnas/2bee

>  <Rbt.Executable>
rbdock ($Id: //depot/dev/client3/rdock/2013.1/src/exe/rbdock.cxx#4 $)

>  <Rbt.Library>
libRbt.so (2013.1, Build901 2013/11/27)

>  <Rbt.Parameter_File>
/export/apps/rDock/src/rDock_2013.1_src/data/scripts/dock_solv.prm

>  <Rbt.Receptor>
prm/pocket_docking_7.prm

>  <SCORE>
-16.8354

>  <SCORE.INTER>
-9.33671

>  <SCORE.INTER.CONST>
1

>  <SCORE.INTER.POLAR>
-1.83428

>  <SCORE.INTER.ROT>
16

>  <SCORE.INTER.SOLV>
10.2037

>  <SCORE.INTER.VDW>
-17.7781

>  <SCORE.INTER.norm>
-0.190545

>  <SCORE.INTRA>
-7.55145

>  <SCORE.INTRA.DIHEDRAL>
-16.4958

>  <SCORE.INTRA.DIHEDRAL.0>
36.0842

>  <SCORE.INTRA.POLAR>
0

>  <SCORE.INTRA.POLAR.0>
0

>  <SCORE.INTRA.REPUL>
0

>  <SCORE.INTRA.REPUL.0>
0

>  <SCORE.INTRA.SOLV>
1.44083

>  <SCORE.INTRA.SOLV.lig_0>
-126.444

>  <SCORE.INTRA.VDW>
-0.0239458

>  <SCORE.INTRA.VDW.0>
-7.40469

>  <SCORE.INTRA.norm>
-0.154111

>  <SCORE.RESTR>
0.0527215

>  <SCORE.RESTR.CAVITY>
0.0527215

>  <SCORE.RESTR.norm>
0.00107595

>  <SCORE.SYSTEM>
0

>  <SCORE.SYSTEM.CONST>
0

>  <SCORE.SYSTEM.DIHEDRAL>
0

>  <SCORE.SYSTEM.SOLV>
0

>  <SCORE.SYSTEM.norm>
0

>  <SCORE.heavy>
49

>  <SCORE.norm>
-0.34358

>  <RMSD>
8.167

$$$$
2bee_lig
 OpenBabel11021811423D
libRbt.so/2013.1/901 2013/11/27
 49 52  0  0  0  0  0  0  0  0999 V2000
   40.7336    2.3282   -6.1912 C   0  0  2  0  0  0  0  0  0  0  0  0
   41.4656    2.3175   -4.9720 O   0  0  0  0  0  0  0  0  0  0  0  0
   38.1943    2.4456   -2.0298 C   0  0  2  0  0  0  0  0  0  0  0  0
   37.4868    2.3319   -0.7255 N   0  0  0  0  0  0  0  0  0  0  0  0
   42.2203    4.6632   -2.6091 C   0  0  1  0  0  0  0  0  0  0  0  0
   45.9139    6.1175   -4.6521 C   0  0  1  0  0  0  0  0  0  0  0  0
   40.9292    5.9603    2.7280 C   0  0  0  0  0  0  0  0  0  0  0  0
   41.7097    2.5268   -7.4146 C   0  0  2  0  0  0  0  0  0  0  0  0
   42.7570    1.5114   -7.3888 N   0  0  0  0  0  0  0  0  0  0  0  0
   38.8878    1.0508   -2.3785 C   0  0  0  0  0  0  0  0  0  0  0  0
   43.6283    4.3010   -2.2640 C   0  0  2  0  0  0  0  0  0  0  0  0
   43.7784    3.8407   -0.8727 O   0  0  0  0  0  0  0  0  0  0  0  0
   45.3662    4.7503   -5.3316 C   0  0  2  0  0  0  0  0  0  0  0  0
   45.8737    3.5918   -4.5231 N   0  0  0  0  0  0  0  0  0  0  0  0
   39.5425    6.2016    2.8690 C   0  0  0  0  0  0  0  0  0  0  0  0
   38.7718    5.3697    3.6781 N   0  0  0  0  0  0  0  0  0  0  0  0
   42.3174    3.9967   -7.3688 C   0  0  1  0  0  0  0  0  0  0  0  0
   43.1905    4.1677   -8.4759 O   0  0  0  0  0  0  0  0  0  0  0  0
   39.6883    1.1388   -3.8008 C   0  0  2  0  0  0  0  0  0  0  0  0
   40.3029   -0.1036   -4.1250 N   0  0  0  0  0  0  0  0  0  0  0  0
   44.2608    5.5824   -2.7504 C   0  0  2  0  0  0  0  0  0  0  0  0
   45.4230    6.0849   -3.2905 O   0  0  0  0  0  0  0  0  0  0  0  0
   45.9036    4.6783   -6.8054 C   0  0  1  0  0  0  0  0  0  0  0  0
   45.3522    5.8324   -7.5304 O   0  0  0  0  0  0  0  0  0  0  0  0
   41.1611    5.0229   -7.4039 C   0  0  2  0  0  0  0  0  0  0  0  0
   41.6850    6.4115   -7.3471 O   0  0  0  0  0  0  0  0  0  0  0  0
   40.7862    2.2704   -3.7278 C   0  0  2  0  0  0  0  0  0  0  0  0
   43.1599    6.6910   -2.3673 C   0  0  2  0  0  0  0  0  0  0  0  0
   42.0030    6.0447   -2.6469 O   0  0  0  0  0  0  0  0  0  0  0  0
   47.5352    4.7071   -6.7822 C   0  0  2  0  0  0  0  0  0  0  0  0
   48.0786    3.5423   -6.0478 O   0  0  0  0  0  0  0  0  0  0  0  0
   40.1970    4.8119   -6.1891 C   0  0  2  0  0  0  0  0  0  0  0  0
   39.7354    3.4415   -6.3037 O   0  0  0  0  0  0  0  0  0  0  0  0
   40.0562    3.6118   -3.3811 C   0  0  2  0  0  0  0  0  0  0  0  0
   41.1114    4.5426   -3.3649 O   0  0  0  0  0  0  0  0  0  0  0  0
   43.1334    8.0240   -3.2028 C   0  0  0  0  0  0  0  0  0  0  0  0
   44.3449    8.7953   -2.9258 O   0  0  0  0  0  0  0  0  0  0  0  0
   48.0492    6.0369   -6.0704 C   0  0  1  0  0  0  0  0  0  0  0  0
   47.4475    6.0546   -4.6808 O   0  0  0  0  0  0  0  0  0  0  0  0
   39.1198    5.8115   -6.3169 C   0  0  0  0  0  0  0  0  0  0  0  0
   38.0877    5.4917   -5.5245 O   0  0  0  0  0  0  0  0  0  0  0  0
   39.3145    3.5085   -1.9805 C   0  0  1  0  0  0  0  0  0  0  0  0
   38.6612    4.7057   -1.6870 O   0  0  0  0  0  0  0  0  0  0  0  0
   43.1732    4.4862    0.3038 C   0  0  0  0  0  0  0  0  0  0  0  0
   49.6125    5.9443   -6.0882 C   0  0  0  0  0  0  0  0  0  0  0  0
   50.1208    4.9027   -5.2423 N   0  0  0  0  0  0  0  0  0  0  0  0
   43.7486    5.8948    0.4582 C   0  0  0  0  0  0  0  0  0  0  0  0
   43.2241    6.4315    1.7290 N   0  0  0  0  0  0  0  0  0  0  0  0
   41.7732    6.9161    1.7642 C   0  0  0  0  0  0  0  0  0  0  0  0
  1  2  1  1  0  0  0
  1  8  1  0  0  0  0
  1 33  1  0  0  0  0
  3  4  1  1  0  0  0
  3 10  1  0  0  0  0
  3 42  1  0  0  0  0
  5 11  1  0  0  0  0
  5 29  1  0  0  0  0
  5 35  1  6  0  0  0
  6 13  1  0  0  0  0
  6 39  1  0  0  0  0
  6 22  1  1  0  0  0
  7 15  1  0  0  0  0
  8  9  1  1  0  0  0
  8 17  1  0  0  0  0
 10 19  1  0  0  0  0
 11 12  1  1  0  0  0
 11 21  1  0  0  0  0
 12 44  1  0  0  0  0
 13 14  1  1  0  0  0
 13 23  1  0  0  0  0
 15 16  1  0  0  0  0
 17 18  1  6  0  0  0
 17 25  1  0  0  0  0
 19 20  1  1  0  0  0
 19 27  1  0  0  0  0
 21 22  1  1  0  0  0
 21 28  1  0  0  0  0
 23 24  1  6  0  0  0
 23 30  1  0  0  0  0
 25 26  1  1  0  0  0
 25 32  1  0  0  0  0
 27  2  1  6  0  0  0
 27 34  1  0  0  0  0
 28 29  1  0  0  0  0
 28 36  1  6  0  0  0
 30 31  1  1  0  0  0
 30 38  1  0  0  0  0
 32 33  1  0  0  0  0
 32 40  1  6  0  0  0
 34 35  1  1  0  0  0
 34 42  1  0  0  0  0
 36 37  1  0  0  0  0
 38 39  1  0  0  0  0
 38 45  1  1  0  0  0
 40 41  1  0  0  0  0
 42 43  1  6  0  0  0
 44 47  1  0  0  0  0
 45 46  1  0  0  0  0
 47 48  1  0  0  0  0
 48 49  1  0  0  0  0
 49  7  1  0  0  0  0
M  END
>  <CHROM.1>
174.39542274,80.88669782,-33.66119150,178.59503258,-44.85568158,-63.52779951
82.49333276,47.55729826,-67.85004672,164.53109043,-62.17602601,-67.99241962
-173.78663838,-76.38216708,113.76390802,-177.79077373,42.64269274,4.61927393
-3.71134677,2.50861038,0.34909410,1.26041855

>  <Name>
2bee_lig

>  <RI>
0

>  <Rbt.Current_Directory>
/home/itssahil/PROJECTS/Mol_Feturizer/New_Systems/rnas/2bee

>  <Rbt.Executable>
rbdock ($Id: //depot/dev/client3/rdock/2013.1/src/exe/rbdock.cxx#4 $)

>  <Rbt.Library>
libRbt.so (2013.1, Build901 2013/11/27)

>  <Rbt.Parameter_File>
/export/apps/rDock/src/rDock_2013.1_src/data/scripts/dock_solv.prm

>  <Rbt.Receptor>
prm/pocket_docking_5.prm

>  <SCORE>
-19.783

>  <SCORE.INTER>
-10.6276

>  <SCORE.INTER.CONST>
1

>  <SCORE.INTER.POLAR>
-1.6965

>  <SCORE.INTER.ROT>
16

>  <SCORE.INTER.SOLV>
18.1599

>  <SCORE.INTER.VDW>
-21.7501

>  <SCORE.INTER.norm>
-0.216891

>  <SCORE.INTRA>
-9.20253

>  <SCORE.INTRA.DIHEDRAL>
-21.6481

>  <SCORE.INTRA.DIHEDRAL.0>
36.0842

>  <SCORE.INTRA.POLAR>
0

>  <SCORE.INTRA.POLAR.0>
0

>  <SCORE.INTRA.REPUL>
0

>  <SCORE.INTRA.REPUL.0>
0

>  <SCORE.INTRA.SOLV>
0.469581

>  <SCORE.INTRA.SOLV.lig_0>
-126.444

>  <SCORE.INTRA.VDW>
1.38674

>  <SCORE.INTRA.VDW.0>
-7.40469

>  <SCORE.INTRA.norm>
-0.187807

>  <SCORE.RESTR>
0.0471698

>  <SCORE.RESTR.CAVITY>
0.0471698

>  <SCORE.RESTR.norm>
0.000962648

>  <SCORE.SYSTEM>
0

>  <SCORE.SYSTEM.CONST>
0

>  <SCORE.SYSTEM.DIHEDRAL>
0

>  <SCORE.SYSTEM.SOLV>
0

>  <SCORE.SYSTEM.norm>
0

>  <SCORE.heavy>
49

>  <SCORE.norm>
-0.403735

>  <RMSD>
8.171

$$$$
2bee_lig
 OpenBabel11021811423D
libRbt.so/2013.1/901 2013/11/27
 49 52  0  0  0  0  0  0  0  0999 V2000
   44.4351   10.6844  -10.8268 C   0  0  2  0  0  0  0  0  0  0  0  0
   45.8187   10.3752  -10.9378 O   0  0  0  0  0  0  0  0  0  0  0  0
   49.7544   12.2861  -10.4555 C   0  0  2  0  0  0  0  0  0  0  0  0
   50.7701   13.3545  -10.2508 N   0  0  0  0  0  0  0  0  0  0  0  0
   46.1558    9.8493   -7.8878 C   0  0  1  0  0  0  0  0  0  0  0  0
   44.7590    5.3543   -8.8725 C   0  0  1  0  0  0  0  0  0  0  0  0
   47.5460    5.7901   -5.4011 C   0  0  0  0  0  0  0  0  0  0  0  0
   43.6097    9.9042  -11.9218 C   0  0  2  0  0  0  0  0  0  0  0  0
   43.8823    8.4739  -11.8285 N   0  0  0  0  0  0  0  0  0  0  0  0
   48.8488   12.6524  -11.7179 C   0  0  0  0  0  0  0  0  0  0  0  0
   44.9660    8.9489   -7.8102 C   0  0  2  0  0  0  0  0  0  0  0  0
   44.3758    8.8920   -6.4616 O   0  0  0  0  0  0  0  0  0  0  0  0
   45.2834    4.3345  -10.0196 C   0  0  2  0  0  0  0  0  0  0  0  0
   44.8535    4.8721  -11.3535 N   0  0  0  0  0  0  0  0  0  0  0  0
   48.2899    4.8808   -4.6134 C   0  0  0  0  0  0  0  0  0  0  0  0
   49.5375    4.4421   -5.0514 N   0  0  0  0  0  0  0  0  0  0  0  0
   43.9729   10.4772  -13.3611 C   0  0  1  0  0  0  0  0  0  0  0  0
   43.2221    9.7724  -14.3392 O   0  0  0  0  0  0  0  0  0  0  0  0
   47.7097   11.5073  -11.9683 C   0  0  2  0  0  0  0  0  0  0  0  0
   46.9024   11.8206  -13.0981 N   0  0  0  0  0  0  0  0  0  0  0  0
   45.6189    7.7444   -8.4441 C   0  0  2  0  0  0  0  0  0  0  0  0
   45.3425    6.6353   -9.2112 O   0  0  0  0  0  0  0  0  0  0  0  0
   44.6477    2.9227   -9.7574 C   0  0  1  0  0  0  0  0  0  0  0  0
   45.1272    2.4622   -8.4460 O   0  0  0  0  0  0  0  0  0  0  0  0
   43.6577   11.9907  -13.3967 C   0  0  2  0  0  0  0  0  0  0  0  0
   43.9975   12.5703  -14.7213 O   0  0  0  0  0  0  0  0  0  0  0  0
   46.7984   11.3698  -10.6871 C   0  0  2  0  0  0  0  0  0  0  0  0
   47.1259    7.8215   -7.8869 C   0  0  2  0  0  0  0  0  0  0  0  0
   47.3690    9.1533   -7.9209 O   0  0  0  0  0  0  0  0  0  0  0  0
   43.0212    3.0535   -9.7902 C   0  0  2  0  0  0  0  0  0  0  0  0
   42.5506    3.5201  -11.1139 O   0  0  0  0  0  0  0  0  0  0  0  0
   44.4777   12.7526  -12.3026 C   0  0  2  0  0  0  0  0  0  0  0  0
   44.1048   12.1305  -11.0463 O   0  0  0  0  0  0  0  0  0  0  0  0
   47.7327   11.0146   -9.4816 C   0  0  2  0  0  0  0  0  0  0  0  0
   46.8257   10.8940   -8.4126 O   0  0  0  0  0  0  0  0  0  0  0  0
   48.2627    7.1438   -8.7379 C   0  0  0  0  0  0  0  0  0  0  0  0
   49.0653    6.2777   -7.8746 O   0  0  0  0  0  0  0  0  0  0  0  0
   42.5334    4.0936   -8.6859 C   0  0  1  0  0  0  0  0  0  0  0  0
   43.2284    5.4069   -8.9787 O   0  0  0  0  0  0  0  0  0  0  0  0
   44.0980   14.1749  -12.3940 C   0  0  0  0  0  0  0  0  0  0  0  0
   43.0284   14.4245  -11.6265 O   0  0  0  0  0  0  0  0  0  0  0  0
   48.8081   12.1584   -9.2410 C   0  0  1  0  0  0  0  0  0  0  0  0
   49.6395   11.8266   -8.1709 O   0  0  0  0  0  0  0  0  0  0  0  0
   43.2840    7.9939   -6.0512 C   0  0  0  0  0  0  0  0  0  0  0  0
   40.9744    4.1515   -8.8245 C   0  0  0  0  0  0  0  0  0  0  0  0
   40.5423    4.8894   -9.9766 N   0  0  0  0  0  0  0  0  0  0  0  0
   43.7829    6.5485   -6.0774 C   0  0  0  0  0  0  0  0  0  0  0  0
   45.2554    6.6082   -6.1567 N   0  0  0  0  0  0  0  0  0  0  0  0
   46.0630    6.1629   -4.9357 C   0  0  0  0  0  0  0  0  0  0  0  0
  1  2  1  6  0  0  0
  1  8  1  0  0  0  0
  1 33  1  0  0  0  0
  3  4  1  1  0  0  0
  3 10  1  0  0  0  0
  3 42  1  0  0  0  0
  5 11  1  0  0  0  0
  5 29  1  0  0  0  0
  5 35  1  6  0  0  0
  6 13  1  0  0  0  0
  6 39  1  0  0  0  0
  6 22  1  6  0  0  0
  7 15  1  0  0  0  0
  8  9  1  6  0  0  0
  8 17  1  0  0  0  0
 10 19  1  0  0  0  0
 11 12  1  1  0  0  0
 11 21  1  0  0  0  0
 12 44  1  0  0  0  0
 13 14  1  6  0  0  0
 13 23  1  0  0  0  0
 15 16  1  0  0  0  0
 17 18  1  6  0  0  0
 17 25  1  0  0  0  0
 19 20  1  6  0  0  0
 19 27  1  0  0  0  0
 21 22  1  1  0  0  0
 21 28  1  0  0  0  0
 23 24  1  1  0  0  0
 23 30  1  0  0  0  0
 25 26  1  6  0  0  0
 25 32  1  0  0  0  0
 27  2  1  6  0  0  0
 27 34  1  0  0  0  0
 28 29  1  0  0  0  0
 28 36  1  6  0  0  0
 30 31  1  6  0  0  0
 30 38  1  0  0  0  0
 32 33  1  0  0  0  0
 32 40  1  1  0  0  0
 34 35  1  1  0  0  0
 34 42  1  0  0  0  0
 36 37  1  0  0  0  0
 38 39  1  0  0  0  0
 38 45  1  6  0  0  0
 40 41  1  0  0  0  0
 42 43  1  1  0  0  0
 44 47  1  0  0  0  0
 45 46  1  0  0  0  0
 47 48  1  0  0  0  0
 48 49  1  0  0  0  0
 49  7  1  0  0  0  0
M  END
>  <CHROM.1>
144.08276504,-90.21297790,-156.58701891,174.28296201,-173.66350537,67.13700427
-78.59338397,-123.03809270,-129.89764538,88.14679612,92.34302615,-74.78387720
14.61823066,110.63821257,159.02176176,-155.07953779,45.53319001,8.50687136
-9.56095320,1.39850959,-0.62247242,-0.57606159

>  <Name>
2bee_lig

>  <RI>
0

>  <Rbt.Current_Directory>
/home/itssahil/PROJECTS/Mol_Feturizer/New_Systems/rnas/2bee

>  <Rbt.Executable>
rbdock ($Id: //depot/dev/client3/rdock/2013.1/src/exe/rbdock.cxx#4 $)

>  <Rbt.Library>
libRbt.so (2013.1, Build901 2013/11/27)

>  <Rbt.Parameter_File>
/export/apps/rDock/src/rDock_2013.1_src/data/scripts/dock_solv.prm

>  <Rbt.Receptor>
prm/blind_docking_100.prm

>  <SCORE>
85.489

>  <SCORE.INTER>
40.6933

>  <SCORE.INTER.CONST>
1

>  <SCORE.INTER.POLAR>
-1.82979

>  <SCORE.INTER.ROT>
16

>  <SCORE.INTER.SOLV>
38.1433

>  <SCORE.INTER.VDW>
6.24706

>  <SCORE.INTER.norm>
0.830475

>  <SCORE.INTRA>
12.5167

>  <SCORE.INTRA.DIHEDRAL>
6.89423

>  <SCORE.INTRA.DIHEDRAL.0>
36.0842

>  <SCORE.INTRA.POLAR>
0

>  <SCORE.INTRA.POLAR.0>
0

>  <SCORE.INTRA.REPUL>
0.269904

>  <SCORE.INTRA.REPUL.0>
0

>  <SCORE.INTRA.SOLV>
8.4353

>  <SCORE.INTRA.SOLV.lig_0>
-126.444

>  <SCORE.INTRA.VDW>
3.50243

>  <SCORE.INTRA.VDW.0>
-7.40469

>  <SCORE.INTRA.norm>
0.255443

>  <SCORE.RESTR>
32.279

>  <SCORE.RESTR.CAVITY>
32.279

>  <SCORE.RESTR.norm>
0.658755

>  <SCORE.SYSTEM>
0

>  <SCORE.SYSTEM.CONST>
0

>  <SCORE.SYSTEM.DIHEDRAL>
0

>  <SCORE.SYSTEM.SOLV>
0

>  <SCORE.SYSTEM.norm>
0

>  <SCORE.heavy>
49

>  <SCORE.norm>
1.74467

>  <RMSD>
8.191

$$$$
2bee_lig
 OpenBabel11021811423D
libRbt.so/2013.1/901 2013/11/27
 49 52  0  0  0  0  0  0  0  0999 V2000
   41.1737    6.3439   -1.0868 C   0  0  2  0  0  0  0  0  0  0  0  0
   42.1487    5.3295   -1.2929 O   0  0  0  0  0  0  0  0  0  0  0  0
   42.4570    1.2178   -2.8334 C   0  0  2  0  0  0  0  0  0  0  0  0
   42.0477   -0.0794   -3.4371 N   0  0  0  0  0  0  0  0  0  0  0  0
   42.9234    5.1688   -5.2398 C   0  0  1  0  0  0  0  0  0  0  0  0
   44.3723    8.9086   -7.7699 C   0  0  1  0  0  0  0  0  0  0  0  0
   47.1170    1.7425   -6.0177 C   0  0  0  0  0  0  0  0  0  0  0  0
   40.6299    6.8706   -2.4709 C   0  0  2  0  0  0  0  0  0  0  0  0
   40.1311    5.7558   -3.2691 N   0  0  0  0  0  0  0  0  0  0  0  0
   41.5501    1.5150   -1.5540 C   0  0  0  0  0  0  0  0  0  0  0  0
   42.8225    5.9183   -6.5285 C   0  0  2  0  0  0  0  0  0  0  0  0
   42.7576    5.0329   -7.7042 O   0  0  0  0  0  0  0  0  0  0  0  0
   44.8954    7.9551   -8.9733 C   0  0  2  0  0  0  0  0  0  0  0  0
   46.2910    7.5114   -8.6437 N   0  0  0  0  0  0  0  0  0  0  0  0
   48.4883    1.9357   -6.3062 C   0  0  0  0  0  0  0  0  0  0  0  0
   48.8719    2.4495   -7.5429 N   0  0  0  0  0  0  0  0  0  0  0  0
   41.7882    7.6590   -3.2250 C   0  0  1  0  0  0  0  0  0  0  0  0
   41.2883    8.1331   -4.4670 O   0  0  0  0  0  0  0  0  0  0  0  0
   41.9607    2.9410   -0.8687 C   0  0  2  0  0  0  0  0  0  0  0  0
   41.1632    3.2109    0.2791 N   0  0  0  0  0  0  0  0  0  0  0  0
   43.9970    6.8356   -6.2876 C   0  0  2  0  0  0  0  0  0  0  0  0
   44.4693    8.0961   -6.5755 O   0  0  0  0  0  0  0  0  0  0  0  0
   44.8752    8.7830  -10.3075 C   0  0  1  0  0  0  0  0  0  0  0  0
   43.4790    9.1647  -10.5660 O   0  0  0  0  0  0  0  0  0  0  0  0
   42.2687    8.8268   -2.3324 C   0  0  2  0  0  0  0  0  0  0  0  0
   43.3635    9.5817   -2.9937 O   0  0  0  0  0  0  0  0  0  0  0  0
   41.7912    4.1076   -1.9183 C   0  0  2  0  0  0  0  0  0  0  0  0
   45.0366    5.8865   -5.5092 C   0  0  2  0  0  0  0  0  0  0  0  0
   44.2150    5.1743   -4.7019 O   0  0  0  0  0  0  0  0  0  0  0  0
   45.8347   10.0924  -10.1396 C   0  0  2  0  0  0  0  0  0  0  0  0
   47.2366    9.6959   -9.8774 O   0  0  0  0  0  0  0  0  0  0  0  0
   42.8000    8.2923   -0.9606 C   0  0  2  0  0  0  0  0  0  0  0  0
   41.6884    7.5625   -0.3807 O   0  0  0  0  0  0  0  0  0  0  0  0
   42.6957    3.7663   -3.1504 C   0  0  2  0  0  0  0  0  0  0  0  0
   42.4883    4.8682   -4.0005 O   0  0  0  0  0  0  0  0  0  0  0  0
   46.0966    6.5692   -4.5679 C   0  0  0  0  0  0  0  0  0  0  0  0
   47.1487    5.6067   -4.2421 O   0  0  0  0  0  0  0  0  0  0  0  0
   45.3283   10.9898   -8.9241 C   0  0  1  0  0  0  0  0  0  0  0  0
   45.3286   10.1071   -7.6935 O   0  0  0  0  0  0  0  0  0  0  0  0
   43.2113    9.4686   -0.1714 C   0  0  0  0  0  0  0  0  0  0  0  0
   44.3083    9.1910    0.5462 O   0  0  0  0  0  0  0  0  0  0  0  0
   42.2542    2.3932   -3.8153 C   0  0  1  0  0  0  0  0  0  0  0  0
   43.0722    2.0959   -4.9056 O   0  0  0  0  0  0  0  0  0  0  0  0
   43.6420    3.8818   -7.9485 C   0  0  0  0  0  0  0  0  0  0  0  0
   46.3278   12.1932   -8.8469 C   0  0  0  0  0  0  0  0  0  0  0  0
   46.4237   12.9207  -10.0798 N   0  0  0  0  0  0  0  0  0  0  0  0
   45.0805    4.3759   -8.1084 C   0  0  0  0  0  0  0  0  0  0  0  0
   45.9602    3.2628   -7.7021 N   0  0  0  0  0  0  0  0  0  0  0  0
   46.1189    2.9764   -6.2074 C   0  0  0  0  0  0  0  0  0  0  0  0
  1  2  1  6  0  0  0
  1  8  1  0  0  0  0
  1 33  1  0  0  0  0
  3  4  1  6  0  0  0
  3 10  1  0  0  0  0
  3 42  1  0  0  0  0
  5 11  1  0  0  0  0
  5 29  1  0  0  0  0
  5 35  1  1  0  0  0
  6 13  1  0  0  0  0
  6 39  1  0  0  0  0
  6 22  1  1  0  0  0
  7 15  1  0  0  0  0
  8  9  1  6  0  0  0
  8 17  1  0  0  0  0
 10 19  1  0  0  0  0
 11 12  1  6  0  0  0
 11 21  1  0  0  0  0
 12 44  1  0  0  0  0
 13 14  1  1  0  0  0
 13 23  1  0  0  0  0
 15 16  1  0  0  0  0
 17 18  1  6  0  0  0
 17 25  1  0  0  0  0
 19 20  1  1  0  0  0
 19 27  1  0  0  0  0
 21 22  1  6  0  0  0
 21 28  1  0  0  0  0
 23 24  1  1  0  0  0
 23 30  1  0  0  0  0
 25 26  1  6  0  0  0
 25 32  1  0  0  0  0
 27  2  1  1  0  0  0
 27 34  1  0  0  0  0
 28 29  1  0  0  0  0
 28 36  1  1  0  0  0
 30 31  1  1  0  0  0
 30 38  1  0  0  0  0
 32 33  1  0  0  0  0
 32 40  1  1  0  0  0
 34 35  1  6  0  0  0
 34 42  1  0  0  0  0
 36 37  1  0  0  0  0
 38 39  1  0  0  0  0
 38 45  1  1  0  0  0
 40 41  1  0  0  0  0
 42 43  1  6  0  0  0
 44 47  1  0  0  0  0
 45 46  1  0  0  0  0
 47 48  1  0  0  0  0
 48 49  1  0  0  0  0
 49  7  1  0  0  0  0
M  END
>  <CHROM.1>
-63.43856950,159.45611052,-51.93944835,-53.34432038,-46.92647556,-63.68091610
-36.89279778,-114.89424680,-165.11603475,-143.04196924,-176.68484370,56.05411668
153.24007604,-76.22045218,-179.69552757,70.40184102,43.92233237,6.19866289
-5.12789024,2.41455778,-1.04401741,2.96956509

>  <Name>
2bee_lig

>  <RI>
2.18182e+07

>  <Rbt.Current_Directory>
/home/itssahil/PROJECTS/Mol_Feturizer/New_Systems/rnas/2bee

>  <Rbt.Executable>
rbdock ($Id: //depot/dev/client3/rdock/2013.1/src/exe/rbdock.cxx#4 $)

>  <Rbt.Library>
libRbt.so (2013.1, Build901 2013/11/27)

>  <Rbt.Parameter_File>
/export/apps/rDock/src/rDock_2013.1_src/data/scripts/dock_solv.prm

>  <Rbt.Receptor>
prm/pocket_docking_3.prm

>  <SCORE>
-14.3227

>  <SCORE.INTER>
-11.5516

>  <SCORE.INTER.CONST>
1

>  <SCORE.INTER.POLAR>
-2.49803

>  <SCORE.INTER.ROT>
16

>  <SCORE.INTER.SOLV>
15.641

>  <SCORE.INTER.VDW>
-18.8546

>  <SCORE.INTER.norm>
-0.235747

>  <SCORE.INTRA>
-2.77537

>  <SCORE.INTRA.DIHEDRAL>
-13.764

>  <SCORE.INTRA.DIHEDRAL.0>
36.0842

>  <SCORE.INTRA.POLAR>
0

>  <SCORE.INTRA.POLAR.0>
0

>  <SCORE.INTRA.REPUL>
0

>  <SCORE.INTRA.REPUL.0>
0

>  <SCORE.INTRA.SOLV>
6.47137

>  <SCORE.INTRA.SOLV.lig_0>
-126.444

>  <SCORE.INTRA.VDW>
0.870969

>  <SCORE.INTRA.VDW.0>
-7.40469

>  <SCORE.INTRA.norm>
-0.0566402

>  <SCORE.RESTR>
0.00432849

>  <SCORE.RESTR.CAVITY>
0.00432849

>  <SCORE.RESTR.norm>
8.83366e-05

>  <SCORE.SYSTEM>
0

>  <SCORE.SYSTEM.CONST>
0

>  <SCORE.SYSTEM.DIHEDRAL>
0

>  <SCORE.SYSTEM.SOLV>
0

>  <SCORE.SYSTEM.norm>
0

>  <SCORE.heavy>
49

>  <SCORE.norm>
-0.292299

>  <RMSD>
8.192

$$$$
2bee_lig
 OpenBabel11021811423D
libRbt.so/2013.1/901 2013/11/27
 49 52  0  0  0  0  0  0  0  0999 V2000
   45.4444   -0.9601   -4.5135 C   0  0  2  0  0  0  0  0  0  0  0  0
   44.6407   -0.0445   -5.2469 O   0  0  0  0  0  0  0  0  0  0  0  0
   45.6485   -1.2004   -9.3728 C   0  0  2  0  0  0  0  0  0  0  0  0
   45.6038   -1.2416  -10.8598 N   0  0  0  0  0  0  0  0  0  0  0  0
   45.7753    2.6975   -6.8436 C   0  0  1  0  0  0  0  0  0  0  0  0
   44.0951    5.8280   -3.8069 C   0  0  1  0  0  0  0  0  0  0  0  0
   44.1055    9.4348  -10.3355 C   0  0  0  0  0  0  0  0  0  0  0  0
   45.1152   -0.8664   -2.9734 C   0  0  2  0  0  0  0  0  0  0  0  0
   43.6860   -1.0620   -2.7548 N   0  0  0  0  0  0  0  0  0  0  0  0
   44.2004   -1.5355   -8.7908 C   0  0  0  0  0  0  0  0  0  0  0  0
   44.6597    3.6414   -6.5322 C   0  0  2  0  0  0  0  0  0  0  0  0
   44.0213    4.1942   -7.7394 O   0  0  0  0  0  0  0  0  0  0  0  0
   43.4176    6.8204   -4.8965 C   0  0  2  0  0  0  0  0  0  0  0  0
   44.4284    7.8667   -5.2664 N   0  0  0  0  0  0  0  0  0  0  0  0
   44.3950    9.7006  -11.6943 C   0  0  0  0  0  0  0  0  0  0  0  0
   45.0427   10.8822  -12.0479 N   0  0  0  0  0  0  0  0  0  0  0  0
   45.6060    0.5407   -2.4157 C   0  0  1  0  0  0  0  0  0  0  0  0
   45.3099    0.6140   -1.0286 O   0  0  0  0  0  0  0  0  0  0  0  0
   44.2048   -1.4872   -7.1571 C   0  0  2  0  0  0  0  0  0  0  0  0
   42.9193   -1.7937   -6.6281 N   0  0  0  0  0  0  0  0  0  0  0  0
   45.4328    4.5122   -5.5717 C   0  0  2  0  0  0  0  0  0  0  0  0
   45.2782    5.3053   -4.4571 O   0  0  0  0  0  0  0  0  0  0  0  0
   42.1479    7.4781   -4.2473 C   0  0  1  0  0  0  0  0  0  0  0  0
   41.2062    6.3946   -3.9299 O   0  0  0  0  0  0  0  0  0  0  0  0
   47.1242    0.6843   -2.6725 C   0  0  2  0  0  0  0  0  0  0  0  0
   47.6220    1.9940   -2.1799 O   0  0  0  0  0  0  0  0  0  0  0  0
   44.6530   -0.0559   -6.6653 C   0  0  2  0  0  0  0  0  0  0  0  0
   46.9047    4.5384   -6.2201 C   0  0  2  0  0  0  0  0  0  0  0  0
   47.0410    3.2636   -6.6563 O   0  0  0  0  0  0  0  0  0  0  0  0
   42.5947    8.2973   -2.9084 C   0  0  2  0  0  0  0  0  0  0  0  0
   43.5443    9.3834   -3.2400 O   0  0  0  0  0  0  0  0  0  0  0  0
   47.4385    0.5837   -4.2025 C   0  0  2  0  0  0  0  0  0  0  0  0
   46.9189   -0.7069   -4.6133 O   0  0  0  0  0  0  0  0  0  0  0  0
   46.0725    0.2238   -7.2646 C   0  0  2  0  0  0  0  0  0  0  0  0
   46.3798    1.4969   -6.7501 O   0  0  0  0  0  0  0  0  0  0  0  0
   48.1262    4.8111   -5.2665 C   0  0  0  0  0  0  0  0  0  0  0  0
   49.3616    4.8194   -6.0495 O   0  0  0  0  0  0  0  0  0  0  0  0
   43.2976    7.3113   -1.8726 C   0  0  1  0  0  0  0  0  0  0  0  0
   44.4744    6.6833   -2.5898 O   0  0  0  0  0  0  0  0  0  0  0  0
   48.9010    0.7065   -4.3496 C   0  0  0  0  0  0  0  0  0  0  0  0
   49.5263   -0.1999   -3.5862 O   0  0  0  0  0  0  0  0  0  0  0  0
   46.0323    0.2027   -8.8522 C   0  0  1  0  0  0  0  0  0  0  0  0
   47.3034    0.4443   -9.3739 O   0  0  0  0  0  0  0  0  0  0  0  0
   44.6325    5.1802   -8.6456 C   0  0  0  0  0  0  0  0  0  0  0  0
   43.6978    8.2042   -0.6496 C   0  0  0  0  0  0  0  0  0  0  0  0
   44.5141    9.3250   -1.0187 N   0  0  0  0  0  0  0  0  0  0  0  0
   43.6049    5.6053   -9.6956 C   0  0  0  0  0  0  0  0  0  0  0  0
   44.0724    6.8894  -10.2528 N   0  0  0  0  0  0  0  0  0  0  0  0
   43.2353    8.1414   -9.9824 C   0  0  0  0  0  0  0  0  0  0  0  0
  1  2  1  6  0  0  0
  1  8  1  0  0  0  0
  1 33  1  0  0  0  0
  3  4  1  6  0  0  0
  3 10  1  0  0  0  0
  3 42  1  0  0  0  0
  5 11  1  0  0  0  0
  5 29  1  0  0  0  0
  5 35  1  1  0  0  0
  6 13  1  0  0  0  0
  6 39  1  0  0  0  0
  6 22  1  6  0  0  0
  7 15  1  0  0  0  0
  8  9  1  6  0  0  0
  8 17  1  0  0  0  0
 10 19  1  0  0  0  0
 11 12  1  6  0  0  0
 11 21  1  0  0  0  0
 12 44  1  0  0  0  0
 13 14  1  1  0  0  0
 13 23  1  0  0  0  0
 15 16  1  0  0  0  0
 17 18  1  1  0  0  0
 17 25  1  0  0  0  0
 19 20  1  6  0  0  0
 19 27  1  0  0  0  0
 21 22  1  6  0  0  0
 21 28  1  0  0  0  0
 23 24  1  1  0  0  0
 23 30  1  0  0  0  0
 25 26  1  6  0  0  0
 25 32  1  0  0  0  0
 27  2  1  1  0  0  0
 27 34  1  0  0  0  0
 28 29  1  0  0  0  0
 28 36  1  1  0  0  0
 30 31  1  6  0  0  0
 30 38  1  0  0  0  0
 32 33  1  0  0  0  0
 32 40  1  1  0  0  0
 34 35  1  6  0  0  0
 34 42  1  0  0  0  0
 36 37  1  0  0  0  0
 38 39  1  0  0  0  0
 38 45  1  1  0  0  0
 40 41  1  0  0  0  0
 42 43  1  6  0  0  0
 44 47  1  0  0  0  0
 45 46  1  0  0  0  0
 47 48  1  0  0  0  0
 48 49  1  0  0  0  0
 49  7  1  0  0  0  0
M  END
>  <CHROM.1>
-172.87069560,69.76161551,-63.94049932,174.03659210,-71.43615825,-174.34942749
-12.08165476,58.90215937,-178.91905153,54.41350475,-58.65092059,-55.39372615
160.42067365,-113.57184412,165.31474563,70.13353377,45.20553494,3.55154011
-5.78641717,0.07355709,-1.32890036,1.55792784

>  <Name>
2bee_lig

>  <RI>
0

>  <Rbt.Current_Directory>
/home/itssahil/PROJECTS/Mol_Feturizer/New_Systems/rnas/2bee

>  <Rbt.Executable>
rbdock ($Id: //depot/dev/client3/rdock/2013.1/src/exe/rbdock.cxx#4 $)

>  <Rbt.Library>
libRbt.so (2013.1, Build901 2013/11/27)

>  <Rbt.Parameter_File>
/export/apps/rDock/src/rDock_2013.1_src/data/scripts/dock_solv.prm

>  <Rbt.Receptor>
prm/pocket_docking_7.prm

>  <SCORE>
-27.9894

>  <SCORE.INTER>
-16.3073

>  <SCORE.INTER.CONST>
1

>  <SCORE.INTER.POLAR>
-2.60298

>  <SCORE.INTER.ROT>
16

>  <SCORE.INTER.SOLV>
23.0923

>  <SCORE.INTER.VDW>
-24.159

>  <SCORE.INTER.norm>
-0.332802

>  <SCORE.INTRA>
-11.6859

>  <SCORE.INTRA.DIHEDRAL>
-27.2451

>  <SCORE.INTRA.DIHEDRAL.0>
36.0842

>  <SCORE.INTRA.POLAR>
0

>  <SCORE.INTRA.POLAR.0>
0

>  <SCORE.INTRA.REPUL>
0

>  <SCORE.INTRA.REPUL.0>
0

>  <SCORE.INTRA.SOLV>
-1.02462

>  <SCORE.INTRA.SOLV.lig_0>
-126.444

>  <SCORE.INTRA.VDW>
2.44898

>  <SCORE.INTRA.VDW.0>
-7.40469

>  <SCORE.INTRA.norm>
-0.238487

>  <SCORE.RESTR>
0.0037975

>  <SCORE.RESTR.CAVITY>
0.0037975

>  <SCORE.RESTR.norm>
7.75001e-05

>  <SCORE.SYSTEM>
0

>  <SCORE.SYSTEM.CONST>
0

>  <SCORE.SYSTEM.DIHEDRAL>
0

>  <SCORE.SYSTEM.SOLV>
0

>  <SCORE.SYSTEM.norm>
0

>  <SCORE.heavy>
49

>  <SCORE.norm>
-0.571212

>  <RMSD>
8.199

$$$$
2bee_lig
 OpenBabel11021811423D
libRbt.so/2013.1/901 2013/11/27
 49 52  0  0  0  0  0  0  0  0999 V2000
   44.0920   11.4086  -12.0389 C   0  0  2  0  0  0  0  0  0  0  0  0
   44.9398   12.5502  -12.0312 O   0  0  0  0  0  0  0  0  0  0  0  0
   48.3019   13.5574   -9.3749 C   0  0  2  0  0  0  0  0  0  0  0  0
   49.0318   13.9893   -8.1520 N   0  0  0  0  0  0  0  0  0  0  0  0
   46.0513    9.6040   -9.4440 C   0  0  1  0  0  0  0  0  0  0  0  0
   43.5365    6.7122   -6.5654 C   0  0  1  0  0  0  0  0  0  0  0  0
   51.0143    6.5712   -6.6425 C   0  0  0  0  0  0  0  0  0  0  0  0
   44.1268   10.7096  -13.4528 C   0  0  2  0  0  0  0  0  0  0  0  0
   45.5033   10.3985  -13.8230 N   0  0  0  0  0  0  0  0  0  0  0  0
   47.2648   14.6937   -9.8005 C   0  0  0  0  0  0  0  0  0  0  0  0
   46.0295    8.9507   -8.1004 C   0  0  2  0  0  0  0  0  0  0  0  0
   47.2875    8.2542   -7.7800 O   0  0  0  0  0  0  0  0  0  0  0  0
   42.8371    7.4721   -5.3147 C   0  0  2  0  0  0  0  0  0  0  0  0
   43.6938    8.6480   -4.9452 N   0  0  0  0  0  0  0  0  0  0  0  0
   52.0689    5.6790   -6.9469 C   0  0  0  0  0  0  0  0  0  0  0  0
   52.4543    4.7164   -6.0165 N   0  0  0  0  0  0  0  0  0  0  0  0
   43.4317   11.6577  -14.5251 C   0  0  1  0  0  0  0  0  0  0  0  0
   43.4637   11.0186  -15.7930 O   0  0  0  0  0  0  0  0  0  0  0  0
   46.4318   14.2504  -11.1352 C   0  0  2  0  0  0  0  0  0  0  0  0
   45.5103   15.2617  -11.5281 N   0  0  0  0  0  0  0  0  0  0  0  0
   44.7328    8.2022   -8.2929 C   0  0  2  0  0  0  0  0  0  0  0  0
   43.6452    7.7156   -7.6034 O   0  0  0  0  0  0  0  0  0  0  0  0
   42.7310    6.4624   -4.1166 C   0  0  1  0  0  0  0  0  0  0  0  0
   41.8684    5.3541   -4.5518 O   0  0  0  0  0  0  0  0  0  0  0  0
   41.9792   11.9450  -14.0793 C   0  0  2  0  0  0  0  0  0  0  0  0
   41.2969   12.8417  -15.0469 O   0  0  0  0  0  0  0  0  0  0  0  0
   45.6557   12.9041  -10.8590 C   0  0  2  0  0  0  0  0  0  0  0  0
   44.7869    7.7895   -9.8467 C   0  0  2  0  0  0  0  0  0  0  0  0
   45.3312    8.8939  -10.4108 O   0  0  0  0  0  0  0  0  0  0  0  0
   44.2262    5.9408   -3.7220 C   0  0  2  0  0  0  0  0  0  0  0  0
   45.0858    7.0652   -3.2882 O   0  0  0  0  0  0  0  0  0  0  0  0
   41.9576   12.6327  -12.6734 C   0  0  2  0  0  0  0  0  0  0  0  0
   42.6448   11.7109  -11.7888 O   0  0  0  0  0  0  0  0  0  0  0  0
   46.7147   11.8278  -10.4435 C   0  0  2  0  0  0  0  0  0  0  0  0
   45.9268   10.6787  -10.2471 O   0  0  0  0  0  0  0  0  0  0  0  0
   43.4236    7.5402  -10.5917 C   0  0  0  0  0  0  0  0  0  0  0  0
   42.6688    6.5024   -9.8897 O   0  0  0  0  0  0  0  0  0  0  0  0
   44.9100    5.2385   -4.9783 C   0  0  1  0  0  0  0  0  0  0  0  0
   44.9264    6.2571   -6.0989 O   0  0  0  0  0  0  0  0  0  0  0  0
   40.5412   12.8457  -12.3211 C   0  0  0  0  0  0  0  0  0  0  0  0
   40.4409   13.4584  -11.1337 O   0  0  0  0  0  0  0  0  0  0  0  0
   47.4858   12.2691   -9.1270 C   0  0  1  0  0  0  0  0  0  0  0  0
   48.4318   11.3072   -8.7722 O   0  0  0  0  0  0  0  0  0  0  0  0
   47.9132    7.2102   -8.6079 C   0  0  0  0  0  0  0  0  0  0  0  0
   46.3333    4.8022   -4.4912 C   0  0  0  0  0  0  0  0  0  0  0  0
   47.1454    4.2664   -5.5456 N   0  0  0  0  0  0  0  0  0  0  0  0
   47.6579    5.8424   -7.9731 C   0  0  0  0  0  0  0  0  0  0  0  0
   48.9661    5.3347   -7.5161 N   0  0  0  0  0  0  0  0  0  0  0  0
   49.5864    5.9601   -6.2649 C   0  0  0  0  0  0  0  0  0  0  0  0
  1  2  1  6  0  0  0
  1  8  1  0  0  0  0
  1 33  1  0  0  0  0
  3  4  1  1  0  0  0
  3 10  1  0  0  0  0
  3 42  1  0  0  0  0
  5 11  1  0  0  0  0
  5 29  1  0  0  0  0
  5 35  1  1  0  0  0
  6 13  1  0  0  0  0
  6 39  1  0  0  0  0
  6 22  1  6  0  0  0
  7 15  1  0  0  0  0
  8  9  1  6  0  0  0
  8 17  1  0  0  0  0
 10 19  1  0  0  0  0
 11 12  1  6  0  0  0
 11 21  1  0  0  0  0
 12 44  1  0  0  0  0
 13 14  1  1  0  0  0
 13 23  1  0  0  0  0
 15 16  1  0  0  0  0
 17 18  1  6  0  0  0
 17 25  1  0  0  0  0
 19 20  1  1  0  0  0
 19 27  1  0  0  0  0
 21 22  1  1  0  0  0
 21 28  1  0  0  0  0
 23 24  1  6  0  0  0
 23 30  1  0  0  0  0
 25 26  1  6  0  0  0
 25 32  1  0  0  0  0
 27  2  1  6  0  0  0
 27 34  1  0  0  0  0
 28 29  1  0  0  0  0
 28 36  1  6  0  0  0
 30 31  1  6  0  0  0
 30 38  1  0  0  0  0
 32 33  1  0  0  0  0
 32 40  1  1  0  0  0
 34 35  1  1  0  0  0
 34 42  1  0  0  0  0
 36 37  1  0  0  0  0
 38 39  1  0  0  0  0
 38 45  1  1  0  0  0
 40 41  1  0  0  0  0
 42 43  1  6  0  0  0
 44 47  1  0  0  0  0
 45 46  1  0  0  0  0
 47 48  1  0  0  0  0
 48 49  1  0  0  0  0
 49  7  1  0  0  0  0
M  END
>  <CHROM.1>
-145.21277308,70.83165546,122.52997059,-57.30462001,-55.49854917,-103.53357899
-63.11868799,-176.67117325,-56.91709711,-178.78687131,-150.25823229,-174.11509319
-112.88691320,74.20900263,-121.35180909,-69.87411340,45.39772041,9.31538371
-9.06808873,1.90241914,-0.12824318,-0.76718533

>  <Name>
2bee_lig

>  <RI>
0

>  <Rbt.Current_Directory>
/home/itssahil/PROJECTS/Mol_Feturizer/New_Systems/rnas/2bee

>  <Rbt.Executable>
rbdock ($Id: //depot/dev/client3/rdock/2013.1/src/exe/rbdock.cxx#4 $)

>  <Rbt.Library>
libRbt.so (2013.1, Build901 2013/11/27)

>  <Rbt.Parameter_File>
/export/apps/rDock/src/rDock_2013.1_src/data/scripts/dock_solv.prm

>  <Rbt.Receptor>
prm/blind_docking_60.prm

>  <SCORE>
15.5223

>  <SCORE.INTER>
-5.9556

>  <SCORE.INTER.CONST>
1

>  <SCORE.INTER.POLAR>
-0.683908

>  <SCORE.INTER.ROT>
16

>  <SCORE.INTER.SOLV>
31.346

>  <SCORE.INTER.VDW>
-26.406

>  <SCORE.INTER.norm>
-0.121543

>  <SCORE.INTRA>
1.58753

>  <SCORE.INTRA.DIHEDRAL>
-1.33361

>  <SCORE.INTRA.DIHEDRAL.0>
36.0842

>  <SCORE.INTRA.POLAR>
0

>  <SCORE.INTRA.POLAR.0>
0

>  <SCORE.INTRA.REPUL>
0

>  <SCORE.INTRA.REPUL.0>
0

>  <SCORE.INTRA.SOLV>
2.94428

>  <SCORE.INTRA.SOLV.lig_0>
-126.444

>  <SCORE.INTRA.VDW>
0.782199

>  <SCORE.INTRA.VDW.0>
-7.40469

>  <SCORE.INTRA.norm>
0.0323986

>  <SCORE.RESTR>
19.8903

>  <SCORE.RESTR.CAVITY>
19.8903

>  <SCORE.RESTR.norm>
0.405925

>  <SCORE.SYSTEM>
0

>  <SCORE.SYSTEM.CONST>
0

>  <SCORE.SYSTEM.DIHEDRAL>
0

>  <SCORE.SYSTEM.SOLV>
0

>  <SCORE.SYSTEM.norm>
0

>  <SCORE.heavy>
49

>  <SCORE.norm>
0.316781

>  <RMSD>
8.200

$$$$
2bee_lig
 OpenBabel11021811423D
libRbt.so/2013.1/901 2013/11/27
 49 52  0  0  0  0  0  0  0  0999 V2000
   45.4759   -1.5416   -5.9905 C   0  0  2  0  0  0  0  0  0  0  0  0
   45.6138   -0.4526   -6.8945 O   0  0  0  0  0  0  0  0  0  0  0  0
   47.8365    2.5030   -4.5073 C   0  0  2  0  0  0  0  0  0  0  0  0
   48.7671    3.6184   -4.1837 N   0  0  0  0  0  0  0  0  0  0  0  0
   43.7635    3.1324   -6.6131 C   0  0  1  0  0  0  0  0  0  0  0  0
   44.7940    6.8835   -8.8056 C   0  0  1  0  0  0  0  0  0  0  0  0
   41.3470    4.7782   -0.5114 C   0  0  0  0  0  0  0  0  0  0  0  0
   44.4144   -2.5742   -6.5344 C   0  0  2  0  0  0  0  0  0  0  0  0
   44.7738   -2.9969   -7.8838 N   0  0  0  0  0  0  0  0  0  0  0  0
   48.6319    1.3606   -5.2883 C   0  0  0  0  0  0  0  0  0  0  0  0
   43.3373    4.5218   -6.2660 C   0  0  2  0  0  0  0  0  0  0  0  0
   42.1182    4.5590   -5.4397 O   0  0  0  0  0  0  0  0  0  0  0  0
   45.6122    7.1664   -7.4339 C   0  0  2  0  0  0  0  0  0  0  0  0
   44.7421    7.9951   -6.5343 N   0  0  0  0  0  0  0  0  0  0  0  0
   41.7662    5.4178    0.6785 C   0  0  0  0  0  0  0  0  0  0  0  0
   41.0748    6.5322    1.1485 N   0  0  0  0  0  0  0  0  0  0  0  0
   42.9681   -1.9119   -6.4936 C   0  0  1  0  0  0  0  0  0  0  0  0
   42.0192   -2.8499   -6.9803 O   0  0  0  0  0  0  0  0  0  0  0  0
   47.6392    0.1208   -5.6743 C   0  0  2  0  0  0  0  0  0  0  0  0
   48.3417   -0.9078   -6.3635 N   0  0  0  0  0  0  0  0  0  0  0  0
   43.3610    5.0668   -7.6735 C   0  0  2  0  0  0  0  0  0  0  0  0
   43.5748    6.2237   -8.3883 O   0  0  0  0  0  0  0  0  0  0  0  0
   46.9333    7.9355   -7.7933 C   0  0  1  0  0  0  0  0  0  0  0  0
   47.7318    7.0555   -8.6591 O   0  0  0  0  0  0  0  0  0  0  0  0
   42.6456   -1.4917   -5.0408 C   0  0  2  0  0  0  0  0  0  0  0  0
   41.3071   -0.8532   -4.9601 O   0  0  0  0  0  0  0  0  0  0  0  0
   46.4520    0.6454   -6.5723 C   0  0  2  0  0  0  0  0  0  0  0  0
   42.8471    3.8182   -8.5478 C   0  0  2  0  0  0  0  0  0  0  0  0
   43.4518    2.7760   -7.9296 O   0  0  0  0  0  0  0  0  0  0  0  0
   46.5516    9.3327   -8.5454 C   0  0  2  0  0  0  0  0  0  0  0  0
   45.7460   10.2090   -7.6654 O   0  0  0  0  0  0  0  0  0  0  0  0
   43.7085   -0.4723   -4.5107 C   0  0  2  0  0  0  0  0  0  0  0  0
   44.9825   -1.1561   -4.6281 O   0  0  0  0  0  0  0  0  0  0  0  0
   45.7093    1.7623   -5.7639 C   0  0  2  0  0  0  0  0  0  0  0  0
   44.6709    2.1366   -6.6365 O   0  0  0  0  0  0  0  0  0  0  0  0
   43.2811    3.7470  -10.0585 C   0  0  0  0  0  0  0  0  0  0  0  0
   42.5743    2.6480  -10.7159 O   0  0  0  0  0  0  0  0  0  0  0  0
   45.7103    9.0320   -9.8649 C   0  0  1  0  0  0  0  0  0  0  0  0
   44.4867    8.2477   -9.4391 O   0  0  0  0  0  0  0  0  0  0  0  0
   43.3370   -0.1482   -3.1205 C   0  0  0  0  0  0  0  0  0  0  0  0
   42.2033    0.5654   -3.0929 O   0  0  0  0  0  0  0  0  0  0  0  0
   46.6883    2.9677   -5.4308 C   0  0  1  0  0  0  0  0  0  0  0  0
   46.0180    3.9515   -4.7034 O   0  0  0  0  0  0  0  0  0  0  0  0
   41.3876    5.7796   -5.0610 C   0  0  0  0  0  0  0  0  0  0  0  0
   45.3866   10.4337  -10.4840 C   0  0  0  0  0  0  0  0  0  0  0  0
   44.7264   10.3449  -11.7548 N   0  0  0  0  0  0  0  0  0  0  0  0
   40.1831    5.3994   -4.1986 C   0  0  0  0  0  0  0  0  0  0  0  0
   40.7173    4.7624   -2.9792 N   0  0  0  0  0  0  0  0  0  0  0  0
   41.1606    5.6665   -1.8271 C   0  0  0  0  0  0  0  0  0  0  0  0
  1  2  1  6  0  0  0
  1  8  1  0  0  0  0
  1 33  1  0  0  0  0
  3  4  1  6  0  0  0
  3 10  1  0  0  0  0
  3 42  1  0  0  0  0
  5 11  1  0  0  0  0
  5 29  1  0  0  0  0
  5 35  1  6  0  0  0
  6 13  1  0  0  0  0
  6 39  1  0  0  0  0
  6 22  1  1  0  0  0
  7 15  1  0  0  0  0
  8  9  1  6  0  0  0
  8 17  1  0  0  0  0
 10 19  1  0  0  0  0
 11 12  1  6  0  0  0
 11 21  1  0  0  0  0
 12 44  1  0  0  0  0
 13 14  1  1  0  0  0
 13 23  1  0  0  0  0
 15 16  1  0  0  0  0
 17 18  1  1  0  0  0
 17 25  1  0  0  0  0
 19 20  1  6  0  0  0
 19 27  1  0  0  0  0
 21 22  1  1  0  0  0
 21 28  1  0  0  0  0
 23 24  1  6  0  0  0
 23 30  1  0  0  0  0
 25 26  1  6  0  0  0
 25 32  1  0  0  0  0
 27  2  1  1  0  0  0
 27 34  1  0  0  0  0
 28 29  1  0  0  0  0
 28 36  1  6  0  0  0
 30 31  1  1  0  0  0
 30 38  1  0  0  0  0
 32 33  1  0  0  0  0
 32 40  1  1  0  0  0
 34 35  1  6  0  0  0
 34 42  1  0  0  0  0
 36 37  1  0  0  0  0
 38 39  1  0  0  0  0
 38 45  1  1  0  0  0
 40 41  1  0  0  0  0
 42 43  1  1  0  0  0
 44 47  1  0  0  0  0
 45 46  1  0  0  0  0
 47 48  1  0  0  0  0
 48 49  1  0  0  0  0
 49  7  1  0  0  0  0
M  END
>  <CHROM.1>
175.91013164,32.32331344,-57.60192288,52.72683063,-173.39269388,-179.81996681
80.25608256,30.75086451,-172.56058479,-68.91023244,-171.80191635,174.82633978
62.30975229,84.12088616,165.93892483,179.54482010,44.30576964,3.50177934
-6.18788945,-1.75353988,0.99238544,-0.19631660

>  <Name>
2bee_lig

>  <RI>
0

>  <Rbt.Current_Directory>
/home/itssahil/PROJECTS/Mol_Feturizer/New_Systems/rnas/2bee

>  <Rbt.Executable>
rbdock ($Id: //depot/dev/client3/rdock/2013.1/src/exe/rbdock.cxx#4 $)

>  <Rbt.Library>
libRbt.so (2013.1, Build901 2013/11/27)

>  <Rbt.Parameter_File>
/export/apps/rDock/src/rDock_2013.1_src/data/scripts/dock_solv.prm

>  <Rbt.Receptor>
prm/pocket_docking_6.prm

>  <SCORE>
-12.9359

>  <SCORE.INTER>
-3.35489

>  <SCORE.INTER.CONST>
1

>  <SCORE.INTER.POLAR>
-1.48768

>  <SCORE.INTER.ROT>
16

>  <SCORE.INTER.SOLV>
14.7467

>  <SCORE.INTER.VDW>
-16.4599

>  <SCORE.INTER.norm>
-0.0684672

>  <SCORE.INTRA>
-9.58103

>  <SCORE.INTRA.DIHEDRAL>
-22.8736

>  <SCORE.INTRA.DIHEDRAL.0>
36.0842

>  <SCORE.INTRA.POLAR>
0

>  <SCORE.INTRA.POLAR.0>
0

>  <SCORE.INTRA.REPUL>
0

>  <SCORE.INTRA.REPUL.0>
0

>  <SCORE.INTRA.SOLV>
-2.40477

>  <SCORE.INTRA.SOLV.lig_0>
-126.444

>  <SCORE.INTRA.VDW>
3.05814

>  <SCORE.INTRA.VDW.0>
-7.40469

>  <SCORE.INTRA.norm>
-0.195531

>  <SCORE.RESTR>
0

>  <SCORE.RESTR.CAVITY>
0

>  <SCORE.RESTR.norm>
0

>  <SCORE.SYSTEM>
0

>  <SCORE.SYSTEM.CONST>
0

>  <SCORE.SYSTEM.DIHEDRAL>
0

>  <SCORE.SYSTEM.SOLV>
0

>  <SCORE.SYSTEM.norm>
0

>  <SCORE.heavy>
49

>  <SCORE.norm>
-0.263998

>  <RMSD>
8.208

$$$$
2bee_lig
 OpenBabel11021811423D
libRbt.so/2013.1/901 2013/11/27
 49 52  0  0  0  0  0  0  0  0999 V2000
   43.2289   -0.7138   -5.4926 C   0  0  2  0  0  0  0  0  0  0  0  0
   42.4399   -0.1344   -6.5241 O   0  0  0  0  0  0  0  0  0  0  0  0
   42.1591    3.9006   -8.2602 C   0  0  2  0  0  0  0  0  0  0  0  0
   41.9464    5.3712   -8.3431 N   0  0  0  0  0  0  0  0  0  0  0  0
   45.2952    2.2890   -5.4562 C   0  0  1  0  0  0  0  0  0  0  0  0
   43.8715    4.5314   -1.7025 C   0  0  1  0  0  0  0  0  0  0  0  0
   50.7937    2.0613   -5.9186 C   0  0  0  0  0  0  0  0  0  0  0  0
   43.4993   -2.2374   -5.7999 C   0  0  2  0  0  0  0  0  0  0  0  0
   44.0970   -2.3823   -7.1229 N   0  0  0  0  0  0  0  0  0  0  0  0
   40.8547    3.2113   -7.6509 C   0  0  0  0  0  0  0  0  0  0  0  0
   45.5679    3.5082   -4.6366 C   0  0  2  0  0  0  0  0  0  0  0  0
   46.9373    4.0228   -4.8108 O   0  0  0  0  0  0  0  0  0  0  0  0
   42.8546    4.0874   -0.5194 C   0  0  2  0  0  0  0  0  0  0  0  0
   41.9150    3.0568   -1.0744 N   0  0  0  0  0  0  0  0  0  0  0  0
   50.2433    1.4915   -4.7467 C   0  0  0  0  0  0  0  0  0  0  0  0
   50.9533    0.5169   -4.0491 N   0  0  0  0  0  0  0  0  0  0  0  0
   42.1350   -3.0477   -5.6814 C   0  0  1  0  0  0  0  0  0  0  0  0
   42.3890   -4.4180   -5.9548 O   0  0  0  0  0  0  0  0  0  0  0  0
   41.0540    1.5934   -7.5310 C   0  0  2  0  0  0  0  0  0  0  0  0
   39.8921    0.9682   -6.9968 N   0  0  0  0  0  0  0  0  0  0  0  0
   45.0926    2.9419   -3.3205 C   0  0  2  0  0  0  0  0  0  0  0  0
   44.5176    3.3064   -2.1240 O   0  0  0  0  0  0  0  0  0  0  0  0
   42.0664    5.3580   -0.0392 C   0  0  1  0  0  0  0  0  0  0  0  0
   43.0508    6.3069    0.5011 O   0  0  0  0  0  0  0  0  0  0  0  0
   41.5567   -2.8582   -4.2598 C   0  0  2  0  0  0  0  0  0  0  0  0
   40.2714   -3.5874   -4.1106 O   0  0  0  0  0  0  0  0  0  0  0  0
   42.2975    1.2741   -6.6129 C   0  0  2  0  0  0  0  0  0  0  0  0
   45.5557    1.4039   -3.4063 C   0  0  2  0  0  0  0  0  0  0  0  0
   45.3077    1.1090   -4.7046 O   0  0  0  0  0  0  0  0  0  0  0  0
   41.2518    5.9920   -1.3033 C   0  0  2  0  0  0  0  0  0  0  0  0
   40.2658    5.0271   -1.8402 O   0  0  0  0  0  0  0  0  0  0  0  0
   41.2985   -1.3429   -3.9648 C   0  0  2  0  0  0  0  0  0  0  0  0
   42.5858   -0.6972   -4.1382 O   0  0  0  0  0  0  0  0  0  0  0  0
   43.5449    1.9736   -7.2510 C   0  0  2  0  0  0  0  0  0  0  0  0
   44.5850    1.6080   -6.3767 O   0  0  0  0  0  0  0  0  0  0  0  0
   44.7618    0.3457   -2.5543 C   0  0  0  0  0  0  0  0  0  0  0  0
   45.3746   -0.9718   -2.7220 O   0  0  0  0  0  0  0  0  0  0  0  0
   42.2662    6.3786   -2.4698 C   0  0  1  0  0  0  0  0  0  0  0  0
   43.0185    5.1165   -2.8369 O   0  0  0  0  0  0  0  0  0  0  0  0
   40.7739   -1.2564   -2.5889 C   0  0  0  0  0  0  0  0  0  0  0  0
   39.4533   -1.4827   -2.5760 O   0  0  0  0  0  0  0  0  0  0  0  0
   43.3371    3.5463   -7.3255 C   0  0  1  0  0  0  0  0  0  0  0  0
   44.4505    4.1569   -7.9034 O   0  0  0  0  0  0  0  0  0  0  0  0
   47.4295    4.7376   -5.9998 C   0  0  0  0  0  0  0  0  0  0  0  0
   41.3775    6.9511   -3.6254 C   0  0  0  0  0  0  0  0  0  0  0  0
   42.0110    6.8712   -4.9103 N   0  0  0  0  0  0  0  0  0  0  0  0
   47.5035    3.7656   -7.1781 C   0  0  0  0  0  0  0  0  0  0  0  0
   48.5178    2.7516   -6.8300 N   0  0  0  0  0  0  0  0  0  0  0  0
   49.9689    3.2084   -6.6660 C   0  0  0  0  0  0  0  0  0  0  0  0
  1  2  1  6  0  0  0
  1  8  1  0  0  0  0
  1 33  1  0  0  0  0
  3  4  1  1  0  0  0
  3 10  1  0  0  0  0
  3 42  1  0  0  0  0
  5 11  1  0  0  0  0
  5 29  1  0  0  0  0
  5 35  1  1  0  0  0
  6 13  1  0  0  0  0
  6 39  1  0  0  0  0
  6 22  1  6  0  0  0
  7 15  1  0  0  0  0
  8  9  1  6  0  0  0
  8 17  1  0  0  0  0
 10 19  1  0  0  0  0
 11 12  1  1  0  0  0
 11 21  1  0  0  0  0
 12 44  1  0  0  0  0
 13 14  1  6  0  0  0
 13 23  1  0  0  0  0
 15 16  1  0  0  0  0
 17 18  1  1  0  0  0
 17 25  1  0  0  0  0
 19 20  1  1  0  0  0
 19 27  1  0  0  0  0
 21 22  1  1  0  0  0
 21 28  1  0  0  0  0
 23 24  1  6  0  0  0
 23 30  1  0  0  0  0
 25 26  1  6  0  0  0
 25 32  1  0  0  0  0
 27  2  1  6  0  0  0
 27 34  1  0  0  0  0
 28 29  1  0  0  0  0
 28 36  1  1  0  0  0
 30 31  1  6  0  0  0
 30 38  1  0  0  0  0
 32 33  1  0  0  0  0
 32 40  1  1  0  0  0
 34 35  1  1  0  0  0
 34 42  1  0  0  0  0
 36 37  1  0  0  0  0
 38 39  1  0  0  0  0
 38 45  1  6  0  0  0
 40 41  1  0  0  0  0
 42 43  1  6  0  0  0
 44 47  1  0  0  0  0
 45 46  1  0  0  0  0
 47 48  1  0  0  0  0
 48 49  1  0  0  0  0
 49  7  1  0  0  0  0
M  END
>  <CHROM.1>
-167.02434696,7.62359959,154.22689131,-178.15272127,73.78128172,-69.04969728
12.86343486,-162.73517342,-177.36657337,-83.53090245,-107.74561362,-157.34065266
-64.48507021,-64.57106672,164.79797583,-48.13304401,43.78462704,2.00704058
-4.62026411,-2.07927797,0.34798361,0.35498650

>  <Name>
2bee_lig

>  <RI>
3.46266e+07

>  <Rbt.Current_Directory>
/home/itssahil/PROJECTS/Mol_Feturizer/New_Systems/rnas/2bee

>  <Rbt.Executable>
rbdock ($Id: //depot/dev/client3/rdock/2013.1/src/exe/rbdock.cxx#4 $)

>  <Rbt.Library>
libRbt.so (2013.1, Build901 2013/11/27)

>  <Rbt.Parameter_File>
/export/apps/rDock/src/rDock_2013.1_src/data/scripts/dock_solv.prm

>  <Rbt.Receptor>
prm/pocket_docking_4.prm

>  <SCORE>
0.741636

>  <SCORE.INTER>
5.36649

>  <SCORE.INTER.CONST>
1

>  <SCORE.INTER.POLAR>
-0.912238

>  <SCORE.INTER.ROT>
16

>  <SCORE.INTER.SOLV>
8.98313

>  <SCORE.INTER.VDW>
-10.6426

>  <SCORE.INTER.norm>
0.10952

>  <SCORE.INTRA>
-4.62486

>  <SCORE.INTRA.DIHEDRAL>
-9.97512

>  <SCORE.INTRA.DIHEDRAL.0>
36.0842

>  <SCORE.INTRA.POLAR>
0

>  <SCORE.INTRA.POLAR.0>
0

>  <SCORE.INTRA.REPUL>
0

>  <SCORE.INTRA.REPUL.0>
0

>  <SCORE.INTRA.SOLV>
-0.343104

>  <SCORE.INTRA.SOLV.lig_0>
-126.444

>  <SCORE.INTRA.VDW>
0.534258

>  <SCORE.INTRA.VDW.0>
-7.40469

>  <SCORE.INTRA.norm>
-0.0943848

>  <SCORE.RESTR>
0

>  <SCORE.RESTR.CAVITY>
0

>  <SCORE.RESTR.norm>
0

>  <SCORE.SYSTEM>
0

>  <SCORE.SYSTEM.CONST>
0

>  <SCORE.SYSTEM.DIHEDRAL>
0

>  <SCORE.SYSTEM.SOLV>
0

>  <SCORE.SYSTEM.norm>
0

>  <SCORE.heavy>
49

>  <SCORE.norm>
0.0151354

>  <RMSD>
8.215

$$$$
2bee_lig
 OpenBabel11021811423D
libRbt.so/2013.1/901 2013/11/27
 49 52  0  0  0  0  0  0  0  0999 V2000
   40.2458    2.5332   -2.9167 C   0  0  2  0  0  0  0  0  0  0  0  0
   39.7282    2.7136   -1.6045 O   0  0  0  0  0  0  0  0  0  0  0  0
   39.5388    6.3104    0.9256 C   0  0  2  0  0  0  0  0  0  0  0  0
   39.9923    7.4223    1.8047 N   0  0  0  0  0  0  0  0  0  0  0  0
   41.2008    6.0146   -3.2463 C   0  0  1  0  0  0  0  0  0  0  0  0
   42.6969    9.9263   -1.4973 C   0  0  1  0  0  0  0  0  0  0  0  0
   42.1954    4.5546   -8.6109 C   0  0  0  0  0  0  0  0  0  0  0  0
   39.5757    1.2804   -3.6026 C   0  0  2  0  0  0  0  0  0  0  0  0
   38.1231    1.4139   -3.5773 N   0  0  0  0  0  0  0  0  0  0  0  0
   39.9774    4.9163    1.5676 C   0  0  0  0  0  0  0  0  0  0  0  0
   41.6504    7.3469   -3.7518 C   0  0  2  0  0  0  0  0  0  0  0  0
   42.0506    7.3182   -5.1693 O   0  0  0  0  0  0  0  0  0  0  0  0
   43.7912   10.4910   -0.4415 C   0  0  2  0  0  0  0  0  0  0  0  0
   43.9465    9.4783    0.6556 N   0  0  0  0  0  0  0  0  0  0  0  0
   42.0778    3.5527   -9.6024 C   0  0  0  0  0  0  0  0  0  0  0  0
   40.9823    3.5527  -10.4630 N   0  0  0  0  0  0  0  0  0  0  0  0
   40.0554   -0.0436   -2.8618 C   0  0  1  0  0  0  0  0  0  0  0  0
   39.4511   -1.1657   -3.4887 O   0  0  0  0  0  0  0  0  0  0  0  0
   39.5082    3.6678    0.6228 C   0  0  2  0  0  0  0  0  0  0  0  0
   39.8870    2.4191    1.1917 N   0  0  0  0  0  0  0  0  0  0  0  0
   42.6447    7.6234   -2.6501 C   0  0  2  0  0  0  0  0  0  0  0  0
   43.2211    8.6509   -1.9380 O   0  0  0  0  0  0  0  0  0  0  0  0
   43.2696   11.8569    0.1316 C   0  0  1  0  0  0  0  0  0  0  0  0
   43.1597   12.7929   -0.9968 O   0  0  0  0  0  0  0  0  0  0  0  0
   41.5980   -0.1288   -2.9276 C   0  0  2  0  0  0  0  0  0  0  0  0
   42.0902   -1.3456   -2.2324 O   0  0  0  0  0  0  0  0  0  0  0  0
   40.1486    3.8127   -0.8125 C   0  0  2  0  0  0  0  0  0  0  0  0
   43.2557    6.1664   -2.3476 C   0  0  2  0  0  0  0  0  0  0  0  0
   42.1609    5.3764   -2.4536 O   0  0  0  0  0  0  0  0  0  0  0  0
   41.8270   11.6175    0.8563 C   0  0  2  0  0  0  0  0  0  0  0  0
   41.9497   10.6719    1.9886 O   0  0  0  0  0  0  0  0  0  0  0  0
   42.2507    1.1218   -2.2495 C   0  0  2  0  0  0  0  0  0  0  0  0
   41.7200    2.2644   -2.9688 O   0  0  0  0  0  0  0  0  0  0  0  0
   39.6914    5.1930   -1.3940 C   0  0  2  0  0  0  0  0  0  0  0  0
   40.2920    5.2064   -2.6664 O   0  0  0  0  0  0  0  0  0  0  0  0
   43.8549    5.9001   -0.9173 C   0  0  0  0  0  0  0  0  0  0  0  0
   45.0643    6.7035   -0.7398 O   0  0  0  0  0  0  0  0  0  0  0  0
   40.7821   11.0209   -0.1883 C   0  0  1  0  0  0  0  0  0  0  0  0
   41.3810    9.7393   -0.7290 O   0  0  0  0  0  0  0  0  0  0  0  0
   43.7118    0.9675   -2.3798 C   0  0  0  0  0  0  0  0  0  0  0  0
   44.0740    1.0078   -3.6692 O   0  0  0  0  0  0  0  0  0  0  0  0
   40.1880    6.3887   -0.4741 C   0  0  1  0  0  0  0  0  0  0  0  0
   39.7674    7.6116   -0.9974 O   0  0  0  0  0  0  0  0  0  0  0  0
   43.4214    7.5178   -5.6674 C   0  0  0  0  0  0  0  0  0  0  0  0
   39.4549   10.8152    0.6175 C   0  0  0  0  0  0  0  0  0  0  0  0
   38.3294   10.5238   -0.2233 N   0  0  0  0  0  0  0  0  0  0  0  0
   43.6408    6.6451   -6.9040 C   0  0  0  0  0  0  0  0  0  0  0  0
   42.5476    6.9580   -7.8448 N   0  0  0  0  0  0  0  0  0  0  0  0
   42.3824    6.0710   -9.0806 C   0  0  0  0  0  0  0  0  0  0  0  0
  1  2  1  1  0  0  0
  1  8  1  0  0  0  0
  1 33  1  0  0  0  0
  3  4  1  1  0  0  0
  3 10  1  0  0  0  0
  3 42  1  0  0  0  0
  5 11  1  0  0  0  0
  5 29  1  0  0  0  0
  5 35  1  1  0  0  0
  6 13  1  0  0  0  0
  6 39  1  0  0  0  0
  6 22  1  1  0  0  0
  7 15  1  0  0  0  0
  8  9  1  1  0  0  0
  8 17  1  0  0  0  0
 10 19  1  0  0  0  0
 11 12  1  6  0  0  0
 11 21  1  0  0  0  0
 12 44  1  0  0  0  0
 13 14  1  1  0  0  0
 13 23  1  0  0  0  0
 15 16  1  0  0  0  0
 17 18  1  6  0  0  0
 17 25  1  0  0  0  0
 19 20  1  1  0  0  0
 19 27  1  0  0  0  0
 21 22  1  6  0  0  0
 21 28  1  0  0  0  0
 23 24  1  6  0  0  0
 23 30  1  0  0  0  0
 25 26  1  1  0  0  0
 25 32  1  0  0  0  0
 27  2  1  6  0  0  0
 27 34  1  0  0  0  0
 28 29  1  0  0  0  0
 28 36  1  1  0  0  0
 30 31  1  1  0  0  0
 30 38  1  0  0  0  0
 32 33  1  0  0  0  0
 32 40  1  6  0  0  0
 34 35  1  6  0  0  0
 34 42  1  0  0  0  0
 36 37  1  0  0  0  0
 38 39  1  0  0  0  0
 38 45  1  1  0  0  0
 40 41  1  0  0  0  0
 42 43  1  6  0  0  0
 44 47  1  0  0  0  0
 45 46  1  0  0  0  0
 47 48  1  0  0  0  0
 48 49  1  0  0  0  0
 49  7  1  0  0  0  0
M  END
>  <CHROM.1>
-177.59260877,-62.07765214,167.82904455,-64.63913957,-112.74332377,145.78150225
34.26649463,-174.87689925,-67.68378037,64.77917358,-118.64113900,168.77272048
53.28823660,-170.37618610,56.90787309,-177.53559325,41.54258098,5.75148337
-2.37364182,1.77885047,-1.25108917,-2.47212974

>  <Name>
2bee_lig

>  <RI>
0

>  <Rbt.Current_Directory>
/home/itssahil/PROJECTS/Mol_Feturizer/New_Systems/rnas/2bee

>  <Rbt.Executable>
rbdock ($Id: //depot/dev/client3/rdock/2013.1/src/exe/rbdock.cxx#4 $)

>  <Rbt.Library>
libRbt.so (2013.1, Build901 2013/11/27)

>  <Rbt.Parameter_File>
/export/apps/rDock/src/rDock_2013.1_src/data/scripts/dock_solv.prm

>  <Rbt.Receptor>
prm/pocket_docking_5.prm

>  <SCORE>
-11.3595

>  <SCORE.INTER>
-8.29014

>  <SCORE.INTER.CONST>
1

>  <SCORE.INTER.POLAR>
-1.74889

>  <SCORE.INTER.ROT>
16

>  <SCORE.INTER.SOLV>
18.8658

>  <SCORE.INTER.VDW>
-20.2524

>  <SCORE.INTER.norm>
-0.169187

>  <SCORE.INTRA>
-3.12906

>  <SCORE.INTRA.DIHEDRAL>
-10.7174

>  <SCORE.INTRA.DIHEDRAL.0>
36.0842

>  <SCORE.INTRA.POLAR>
0

>  <SCORE.INTRA.POLAR.0>
0

>  <SCORE.INTRA.REPUL>
0.138311

>  <SCORE.INTRA.REPUL.0>
0

>  <SCORE.INTRA.SOLV>
1.23421

>  <SCORE.INTRA.SOLV.lig_0>
-126.444

>  <SCORE.INTRA.VDW>
0.920982

>  <SCORE.INTRA.VDW.0>
-7.40469

>  <SCORE.INTRA.norm>
-0.0638584

>  <SCORE.RESTR>
0.059686

>  <SCORE.RESTR.CAVITY>
0.059686

>  <SCORE.RESTR.norm>
0.00121808

>  <SCORE.SYSTEM>
0

>  <SCORE.SYSTEM.CONST>
0

>  <SCORE.SYSTEM.DIHEDRAL>
0

>  <SCORE.SYSTEM.SOLV>
0

>  <SCORE.SYSTEM.norm>
0

>  <SCORE.heavy>
49

>  <SCORE.norm>
-0.231827

>  <RMSD>
8.226

$$$$
2bee_lig
 OpenBabel11021811423D
libRbt.so/2013.1/901 2013/11/27
 49 52  0  0  0  0  0  0  0  0999 V2000
   44.1874    6.0516   -0.9749 C   0  0  2  0  0  0  0  0  0  0  0  0
   43.1800    5.5249   -1.8292 O   0  0  0  0  0  0  0  0  0  0  0  0
   45.2382    2.0850   -3.6472 C   0  0  2  0  0  0  0  0  0  0  0  0
   45.5087    0.9525   -4.5740 N   0  0  0  0  0  0  0  0  0  0  0  0
   44.1324    6.2976   -5.1235 C   0  0  1  0  0  0  0  0  0  0  0  0
   45.5152    9.1520   -8.6251 C   0  0  1  0  0  0  0  0  0  0  0  0
   42.0154    2.4469   -6.6022 C   0  0  0  0  0  0  0  0  0  0  0  0
   43.7400    5.9396    0.5339 C   0  0  2  0  0  0  0  0  0  0  0  0
   43.3902    4.5590    0.8505 N   0  0  0  0  0  0  0  0  0  0  0  0
   43.8108    1.8790   -2.9632 C   0  0  0  0  0  0  0  0  0  0  0  0
   43.2720    7.2882   -5.8384 C   0  0  2  0  0  0  0  0  0  0  0  0
   42.0315    6.6952   -6.3674 O   0  0  0  0  0  0  0  0  0  0  0  0
   46.4633   10.4333   -8.3244 C   0  0  2  0  0  0  0  0  0  0  0  0
   45.5799   11.5955   -7.9752 N   0  0  0  0  0  0  0  0  0  0  0  0
   42.4182    3.4047   -7.5619 C   0  0  0  0  0  0  0  0  0  0  0  0
   43.6493    4.0433   -7.4312 N   0  0  0  0  0  0  0  0  0  0  0  0
   42.5204    6.9277    0.7952 C   0  0  1  0  0  0  0  0  0  0  0  0
   42.1279    6.8234    2.1561 O   0  0  0  0  0  0  0  0  0  0  0  0
   43.4701    3.1120   -1.9457 C   0  0  2  0  0  0  0  0  0  0  0  0
   42.2024    2.9327   -1.3235 N   0  0  0  0  0  0  0  0  0  0  0  0
   44.3483    7.8259   -6.7502 C   0  0  2  0  0  0  0  0  0  0  0  0
   44.7397    8.9649   -7.4169 O   0  0  0  0  0  0  0  0  0  0  0  0
   47.3050   10.7417   -9.6139 C   0  0  1  0  0  0  0  0  0  0  0  0
   48.1495    9.5675   -9.8780 O   0  0  0  0  0  0  0  0  0  0  0  0
   42.9552    8.3702    0.4467 C   0  0  2  0  0  0  0  0  0  0  0  0
   41.8384    9.3254    0.6622 O   0  0  0  0  0  0  0  0  0  0  0  0
   43.4843    4.4779   -2.7364 C   0  0  2  0  0  0  0  0  0  0  0  0
   45.2266    6.5180   -7.0748 C   0  0  2  0  0  0  0  0  0  0  0  0
   45.2344    5.8823   -5.8790 O   0  0  0  0  0  0  0  0  0  0  0  0
   46.2903   11.0436  -10.8560 C   0  0  2  0  0  0  0  0  0  0  0  0
   45.4439   12.2258  -10.5777 O   0  0  0  0  0  0  0  0  0  0  0  0
   43.4021    8.4671   -1.0502 C   0  0  2  0  0  0  0  0  0  0  0  0
   44.4805    7.5067   -1.1878 O   0  0  0  0  0  0  0  0  0  0  0  0
   44.9001    4.6289   -3.3884 C   0  0  2  0  0  0  0  0  0  0  0  0
   44.8097    5.8734   -4.0387 O   0  0  0  0  0  0  0  0  0  0  0  0
   46.7345    6.7226   -7.4752 C   0  0  0  0  0  0  0  0  0  0  0  0
   47.3021    5.4436   -7.9009 O   0  0  0  0  0  0  0  0  0  0  0  0
   45.3394    9.7891  -11.1032 C   0  0  1  0  0  0  0  0  0  0  0  0
   44.6064    9.5279   -9.8039 O   0  0  0  0  0  0  0  0  0  0  0  0
   43.8192    9.8624   -1.2845 C   0  0  0  0  0  0  0  0  0  0  0  0
   42.7501   10.6415   -1.4971 O   0  0  0  0  0  0  0  0  0  0  0  0
   45.1911    3.4358   -4.3956 C   0  0  1  0  0  0  0  0  0  0  0  0
   46.4578    3.5767   -4.9629 O   0  0  0  0  0  0  0  0  0  0  0  0
   40.7945    6.4890   -5.5965 C   0  0  0  0  0  0  0  0  0  0  0  0
   44.4055   10.1990  -12.2918 C   0  0  0  0  0  0  0  0  0  0  0  0
   43.3558   11.0934  -11.8957 N   0  0  0  0  0  0  0  0  0  0  0  0
   41.0219    5.3840   -4.5640 C   0  0  0  0  0  0  0  0  0  0  0  0
   40.6696    4.1098   -5.2200 N   0  0  0  0  0  0  0  0  0  0  0  0
   41.6638    2.9504   -5.1265 C   0  0  0  0  0  0  0  0  0  0  0  0
  1  2  1  6  0  0  0
  1  8  1  0  0  0  0
  1 33  1  0  0  0  0
  3  4  1  6  0  0  0
  3 10  1  0  0  0  0
  3 42  1  0  0  0  0
  5 11  1  0  0  0  0
  5 29  1  0  0  0  0
  5 35  1  1  0  0  0
  6 13  1  0  0  0  0
  6 39  1  0  0  0  0
  6 22  1  1  0  0  0
  7 15  1  0  0  0  0
  8  9  1  6  0  0  0
  8 17  1  0  0  0  0
 10 19  1  0  0  0  0
 11 12  1  6  0  0  0
 11 21  1  0  0  0  0
 12 44  1  0  0  0  0
 13 14  1  6  0  0  0
 13 23  1  0  0  0  0
 15 16  1  0  0  0  0
 17 18  1  1  0  0  0
 17 25  1  0  0  0  0
 19 20  1  6  0  0  0
 19 27  1  0  0  0  0
 21 22  1  6  0  0  0
 21 28  1  0  0  0  0
 23 24  1  6  0  0  0
 23 30  1  0  0  0  0
 25 26  1  6  0  0  0
 25 32  1  0  0  0  0
 27  2  1  1  0  0  0
 27 34  1  0  0  0  0
 28 29  1  0  0  0  0
 28 36  1  1  0  0  0
 30 31  1  1  0  0  0
 30 38  1  0  0  0  0
 32 33  1  0  0  0  0
 32 40  1  1  0  0  0
 34 35  1  6  0  0  0
 34 42  1  0  0  0  0
 36 37  1  0  0  0  0
 38 39  1  0  0  0  0
 38 45  1  6  0  0  0
 40 41  1  0  0  0  0
 42 43  1  1  0  0  0
 44 47  1  0  0  0  0
 45 46  1  0  0  0  0
 47 48  1  0  0  0  0
 48 49  1  0  0  0  0
 49  7  1  0  0  0  0
M  END
>  <CHROM.1>
-123.32394225,134.80641086,-140.46949109,68.96390852,83.58738480,-69.77491450
-152.75232848,80.57013487,-172.45286593,-80.89055823,-70.42230470,-76.88454326
-89.60169214,130.59445093,-124.84913863,50.92643999,44.10878863,6.74149266
-5.08870789,2.90356984,-1.32303991,-2.90064972

>  <Name>
2bee_lig

>  <RI>
2.18182e+07

>  <Rbt.Current_Directory>
/home/itssahil/PROJECTS/Mol_Feturizer/New_Systems/rnas/2bee

>  <Rbt.Executable>
rbdock ($Id: //depot/dev/client3/rdock/2013.1/src/exe/rbdock.cxx#4 $)

>  <Rbt.Library>
libRbt.so (2013.1, Build901 2013/11/27)

>  <Rbt.Parameter_File>
/export/apps/rDock/src/rDock_2013.1_src/data/scripts/dock_solv.prm

>  <Rbt.Receptor>
prm/pocket_docking_3.prm

>  <SCORE>
-10.5056

>  <SCORE.INTER>
-15.5194

>  <SCORE.INTER.CONST>
1

>  <SCORE.INTER.POLAR>
-2.18112

>  <SCORE.INTER.ROT>
16

>  <SCORE.INTER.SOLV>
23.7436

>  <SCORE.INTER.VDW>
-25.2571

>  <SCORE.INTER.norm>
-0.316723

>  <SCORE.INTRA>
4.76005

>  <SCORE.INTRA.DIHEDRAL>
-0.735788

>  <SCORE.INTRA.DIHEDRAL.0>
36.0842

>  <SCORE.INTRA.POLAR>
0

>  <SCORE.INTRA.POLAR.0>
0

>  <SCORE.INTRA.REPUL>
0

>  <SCORE.INTRA.REPUL.0>
0

>  <SCORE.INTRA.SOLV>
11.1971

>  <SCORE.INTRA.SOLV.lig_0>
-126.444

>  <SCORE.INTRA.VDW>
-0.470619

>  <SCORE.INTRA.VDW.0>
-7.40469

>  <SCORE.INTRA.norm>
0.0971439

>  <SCORE.RESTR>
0.253768

>  <SCORE.RESTR.CAVITY>
0.253768

>  <SCORE.RESTR.norm>
0.00517893

>  <SCORE.SYSTEM>
0

>  <SCORE.SYSTEM.CONST>
0

>  <SCORE.SYSTEM.DIHEDRAL>
0

>  <SCORE.SYSTEM.SOLV>
0

>  <SCORE.SYSTEM.norm>
0

>  <SCORE.heavy>
49

>  <SCORE.norm>
-0.2144

>  <RMSD>
8.237

$$$$
2bee_lig
 OpenBabel11021811423D
libRbt.so/2013.1/901 2013/11/27
 49 52  0  0  0  0  0  0  0  0999 V2000
   43.2948   13.4760  -12.8207 C   0  0  2  0  0  0  0  0  0  0  0  0
   43.8940   12.5063  -11.9706 O   0  0  0  0  0  0  0  0  0  0  0  0
   48.2928   12.3712  -11.8877 C   0  0  2  0  0  0  0  0  0  0  0  0
   49.6868   12.6124  -11.4257 N   0  0  0  0  0  0  0  0  0  0  0  0
   45.5035    9.7220   -9.4697 C   0  0  1  0  0  0  0  0  0  0  0  0
   43.3726    7.0663   -6.0684 C   0  0  1  0  0  0  0  0  0  0  0  0
   50.2116    4.9164   -6.7091 C   0  0  0  0  0  0  0  0  0  0  0  0
   41.7227   13.4058  -12.7093 C   0  0  2  0  0  0  0  0  0  0  0  0
   41.3137   13.5408  -11.3153 N   0  0  0  0  0  0  0  0  0  0  0  0
   47.5498   13.7709  -12.0797 C   0  0  0  0  0  0  0  0  0  0  0  0
   45.7365    9.3387   -8.0444 C   0  0  2  0  0  0  0  0  0  0  0  0
   47.0496    8.7074   -7.8268 O   0  0  0  0  0  0  0  0  0  0  0  0
   42.7839    7.6182   -4.6613 C   0  0  2  0  0  0  0  0  0  0  0  0
   43.7395    8.6448   -4.1265 N   0  0  0  0  0  0  0  0  0  0  0  0
   51.3977    5.6565   -6.9237 C   0  0  0  0  0  0  0  0  0  0  0  0
   52.2828    5.8709   -5.8695 N   0  0  0  0  0  0  0  0  0  0  0  0
   41.2117   12.0372  -13.3399 C   0  0  1  0  0  0  0  0  0  0  0  0
   39.7960   11.9851  -13.2393 O   0  0  0  0  0  0  0  0  0  0  0  0
   46.0082   13.5478  -12.5749 C   0  0  2  0  0  0  0  0  0  0  0  0
   45.3397   14.7912  -12.7578 N   0  0  0  0  0  0  0  0  0  0  0  0
   44.4469    8.5767   -7.8572 C   0  0  2  0  0  0  0  0  0  0  0  0
   43.5114    8.2394   -6.9053 O   0  0  0  0  0  0  0  0  0  0  0  0
   42.6540    6.4083   -3.6686 C   0  0  1  0  0  0  0  0  0  0  0  0
   41.6948    5.4607   -4.2548 O   0  0  0  0  0  0  0  0  0  0  0  0
   41.6716   11.9572  -14.8141 C   0  0  2  0  0  0  0  0  0  0  0  0
   41.2278   10.6846  -15.4380 O   0  0  0  0  0  0  0  0  0  0  0  0
   45.2268   12.6765  -11.5160 C   0  0  2  0  0  0  0  0  0  0  0  0
   44.2376    7.8733   -9.2885 C   0  0  2  0  0  0  0  0  0  0  0  0
   44.6439    8.8449  -10.1399 O   0  0  0  0  0  0  0  0  0  0  0  0
   44.1219    5.7261   -3.4610 C   0  0  2  0  0  0  0  0  0  0  0  0
   45.0793    6.6899   -2.8729 O   0  0  0  0  0  0  0  0  0  0  0  0
   43.2319   12.0338  -14.9119 C   0  0  2  0  0  0  0  0  0  0  0  0
   43.5913   13.2885  -14.2786 O   0  0  0  0  0  0  0  0  0  0  0  0
   45.9962   11.3210  -11.3631 C   0  0  2  0  0  0  0  0  0  0  0  0
   45.2104   10.6236  -10.4272 O   0  0  0  0  0  0  0  0  0  0  0  0
   42.7716    7.4956   -9.7177 C   0  0  0  0  0  0  0  0  0  0  0  0
   42.8182    6.6212  -10.8892 O   0  0  0  0  0  0  0  0  0  0  0  0
   44.6991    5.2326   -4.8619 C   0  0  1  0  0  0  0  0  0  0  0  0
   44.7436    6.4423   -5.7719 O   0  0  0  0  0  0  0  0  0  0  0  0
   43.5759   11.9749  -16.3450 C   0  0  0  0  0  0  0  0  0  0  0  0
   44.3871   12.9893  -16.6742 O   0  0  0  0  0  0  0  0  0  0  0  0
   47.4795   11.5653  -10.8505 C   0  0  1  0  0  0  0  0  0  0  0  0
   48.1570   10.3521  -10.7267 O   0  0  0  0  0  0  0  0  0  0  0  0
   47.5966    7.5935   -8.6187 C   0  0  0  0  0  0  0  0  0  0  0  0
   46.1055    4.6211   -4.5436 C   0  0  0  0  0  0  0  0  0  0  0  0
   47.1099    5.6191   -4.3117 N   0  0  0  0  0  0  0  0  0  0  0  0
   48.2300    6.5684   -7.6771 C   0  0  0  0  0  0  0  0  0  0  0  0
   48.4031    5.3262   -8.4550 N   0  0  0  0  0  0  0  0  0  0  0  0
   49.4494    4.3162   -7.9794 C   0  0  0  0  0  0  0  0  0  0  0  0
  1  2  1  1  0  0  0
  1  8  1  0  0  0  0
  1 33  1  0  0  0  0
  3  4  1  1  0  0  0
  3 10  1  0  0  0  0
  3 42  1  0  0  0  0
  5 11  1  0  0  0  0
  5 29  1  0  0  0  0
  5 35  1  1  0  0  0
  6 13  1  0  0  0  0
  6 39  1  0  0  0  0
  6 22  1  6  0  0  0
  7 15  1  0  0  0  0
  8  9  1  1  0  0  0
  8 17  1  0  0  0  0
 10 19  1  0  0  0  0
 11 12  1  6  0  0  0
 11 21  1  0  0  0  0
 12 44  1  0  0  0  0
 13 14  1  1  0  0  0
 13 23  1  0  0  0  0
 15 16  1  0  0  0  0
 17 18  1  6  0  0  0
 17 25  1  0  0  0  0
 19 20  1  1  0  0  0
 19 27  1  0  0  0  0
 21 22  1  1  0  0  0
 21 28  1  0  0  0  0
 23 24  1  6  0  0  0
 23 30  1  0  0  0  0
 25 26  1  1  0  0  0
 25 32  1  0  0  0  0
 27  2  1  6  0  0  0
 27 34  1  0  0  0  0
 28 29  1  0  0  0  0
 28 36  1  6  0  0  0
 30 31  1  6  0  0  0
 30 38  1  0  0  0  0
 32 33  1  0  0  0  0
 32 40  1  6  0  0  0
 34 35  1  1  0  0  0
 34 42  1  0  0  0  0
 36 37  1  0  0  0  0
 38 39  1  0  0  0  0
 38 45  1  1  0  0  0
 40 41  1  0  0  0  0
 42 43  1  6  0  0  0
 44 47  1  0  0  0  0
 45 46  1  0  0  0  0
 47 48  1  0  0  0  0
 48 49  1  0  0  0  0
 49  7  1  0  0  0  0
M  END
>  <CHROM.1>
-156.76708766,102.02902728,144.79526848,-161.95468283,-49.82059855,-136.24891991
-94.81674295,-27.03130882,-167.79764263,128.18208036,-148.15661463,-76.42535323
163.99443800,157.70452554,-3.01359844,-91.80485218,45.12504132,9.34768731
-9.49741164,1.82502851,0.07545910,-0.91457314

>  <Name>
2bee_lig

>  <RI>
0

>  <Rbt.Current_Directory>
/home/itssahil/PROJECTS/Mol_Feturizer/New_Systems/rnas/2bee

>  <Rbt.Executable>
rbdock ($Id: //depot/dev/client3/rdock/2013.1/src/exe/rbdock.cxx#4 $)

>  <Rbt.Library>
libRbt.so (2013.1, Build901 2013/11/27)

>  <Rbt.Parameter_File>
/export/apps/rDock/src/rDock_2013.1_src/data/scripts/dock_solv.prm

>  <Rbt.Receptor>
prm/blind_docking_60.prm

>  <SCORE>
36.7521

>  <SCORE.INTER>
-3.44729

>  <SCORE.INTER.CONST>
1

>  <SCORE.INTER.POLAR>
-1.82593

>  <SCORE.INTER.ROT>
16

>  <SCORE.INTER.SOLV>
32.2503

>  <SCORE.INTER.VDW>
-21.2285

>  <SCORE.INTER.norm>
-0.0703528

>  <SCORE.INTRA>
14.1646

>  <SCORE.INTRA.DIHEDRAL>
7.15006

>  <SCORE.INTRA.DIHEDRAL.0>
36.0842

>  <SCORE.INTRA.POLAR>
0

>  <SCORE.INTRA.POLAR.0>
0

>  <SCORE.INTRA.REPUL>
0.00903319

>  <SCORE.INTRA.REPUL.0>
0

>  <SCORE.INTRA.SOLV>
0.78474

>  <SCORE.INTRA.SOLV.lig_0>
-126.444

>  <SCORE.INTRA.VDW>
10.152

>  <SCORE.INTRA.VDW.0>
-7.40469

>  <SCORE.INTRA.norm>
0.289074

>  <SCORE.RESTR>
26.0348

>  <SCORE.RESTR.CAVITY>
26.0348

>  <SCORE.RESTR.norm>
0.531322

>  <SCORE.SYSTEM>
0

>  <SCORE.SYSTEM.CONST>
0

>  <SCORE.SYSTEM.DIHEDRAL>
0

>  <SCORE.SYSTEM.SOLV>
0

>  <SCORE.SYSTEM.norm>
0

>  <SCORE.heavy>
49

>  <SCORE.norm>
0.750043

>  <RMSD>
8.267

$$$$
2bee_lig
 OpenBabel11021811423D
libRbt.so/2013.1/901 2013/11/27
 49 52  0  0  0  0  0  0  0  0999 V2000
   42.3203    7.8053   -2.5750 C   0  0  2  0  0  0  0  0  0  0  0  0
   42.8809    7.0586   -1.5024 O   0  0  0  0  0  0  0  0  0  0  0  0
   43.2107    2.8985   -0.1029 C   0  0  2  0  0  0  0  0  0  0  0  0
   42.9400    1.4394    0.0092 N   0  0  0  0  0  0  0  0  0  0  0  0
   44.3476    4.6495   -4.1045 C   0  0  1  0  0  0  0  0  0  0  0  0
   41.5074    1.2131   -4.4273 C   0  0  1  0  0  0  0  0  0  0  0  0
   44.0208    7.5061   -7.6094 C   0  0  0  0  0  0  0  0  0  0  0  0
   42.7449    9.3210   -2.4682 C   0  0  2  0  0  0  0  0  0  0  0  0
   44.1981    9.4294   -2.3978 N   0  0  0  0  0  0  0  0  0  0  0  0
   41.8564    3.7076    0.1401 C   0  0  0  0  0  0  0  0  0  0  0  0
   44.5680    3.5013   -5.0349 C   0  0  2  0  0  0  0  0  0  0  0  0
   45.3642    3.8665   -6.2194 O   0  0  0  0  0  0  0  0  0  0  0  0
   42.5656    0.5409   -3.3981 C   0  0  2  0  0  0  0  0  0  0  0  0
   43.5417   -0.2722   -4.1977 N   0  0  0  0  0  0  0  0  0  0  0  0
   44.6498    8.5110   -8.3811 C   0  0  0  0  0  0  0  0  0  0  0  0
   45.2288    9.6100   -7.7506 N   0  0  0  0  0  0  0  0  0  0  0  0
   42.0464    9.9741   -1.1964 C   0  0  1  0  0  0  0  0  0  0  0  0
   42.4304   11.3388   -1.1113 O   0  0  0  0  0  0  0  0  0  0  0  0
   42.1098    5.3173    0.0119 C   0  0  2  0  0  0  0  0  0  0  0  0
   40.9091    6.0483    0.2360 N   0  0  0  0  0  0  0  0  0  0  0  0
   43.1202    3.0886   -5.1463 C   0  0  2  0  0  0  0  0  0  0  0  0
   42.3146    1.9900   -5.3443 O   0  0  0  0  0  0  0  0  0  0  0  0
   41.7722   -0.3705   -2.3950 C   0  0  1  0  0  0  0  0  0  0  0  0
   40.8542    0.4986   -1.6444 O   0  0  0  0  0  0  0  0  0  0  0  0
   40.5127    9.8316   -1.3334 C   0  0  2  0  0  0  0  0  0  0  0  0
   39.8203   10.4161   -0.1565 O   0  0  0  0  0  0  0  0  0  0  0  0
   42.6778    5.6572   -1.4209 C   0  0  2  0  0  0  0  0  0  0  0  0
   42.3445    4.4974   -5.1132 C   0  0  2  0  0  0  0  0  0  0  0  0
   43.0601    5.1893   -4.1949 O   0  0  0  0  0  0  0  0  0  0  0  0
   40.9654   -1.5143   -3.2343 C   0  0  2  0  0  0  0  0  0  0  0  0
   41.8995   -2.3811   -3.9876 O   0  0  0  0  0  0  0  0  0  0  0  0
   40.1047    8.3246   -1.4444 C   0  0  2  0  0  0  0  0  0  0  0  0
   40.8212    7.8210   -2.6009 O   0  0  0  0  0  0  0  0  0  0  0  0
   43.9993    4.8381   -1.6090 C   0  0  2  0  0  0  0  0  0  0  0  0
   44.4260    5.2302   -2.8912 O   0  0  0  0  0  0  0  0  0  0  0  0
   40.8539    4.5072   -4.6095 C   0  0  0  0  0  0  0  0  0  0  0  0
   40.7895    3.9219   -3.2705 O   0  0  0  0  0  0  0  0  0  0  0  0
   39.9656   -0.8303   -4.2695 C   0  0  1  0  0  0  0  0  0  0  0  0
   40.7988    0.0661   -5.1615 O   0  0  0  0  0  0  0  0  0  0  0  0
   38.6378    8.2865   -1.5947 C   0  0  0  0  0  0  0  0  0  0  0  0
   38.2169    7.0259   -1.7644 O   0  0  0  0  0  0  0  0  0  0  0  0
   43.7185    3.2779   -1.5118 C   0  0  1  0  0  0  0  0  0  0  0  0
   44.9038    2.5598   -1.6721 O   0  0  0  0  0  0  0  0  0  0  0  0
   46.7771    4.2792   -6.1968 C   0  0  0  0  0  0  0  0  0  0  0  0
   39.2700   -2.0134   -5.0243 C   0  0  0  0  0  0  0  0  0  0  0  0
   38.2792   -1.5721   -5.9635 N   0  0  0  0  0  0  0  0  0  0  0  0
   46.8776    5.7044   -5.6512 C   0  0  0  0  0  0  0  0  0  0  0  0
   46.1708    6.5772   -6.6087 N   0  0  0  0  0  0  0  0  0  0  0  0
   44.7426    7.0110   -6.2720 C   0  0  0  0  0  0  0  0  0  0  0  0
  1  2  1  1  0  0  0
  1  8  1  0  0  0  0
  1 33  1  0  0  0  0
  3  4  1  6  0  0  0
  3 10  1  0  0  0  0
  3 42  1  0  0  0  0
  5 11  1  0  0  0  0
  5 29  1  0  0  0  0
  5 35  1  1  0  0  0
  6 13  1  0  0  0  0
  6 39  1  0  0  0  0
  6 22  1  6  0  0  0
  7 15  1  0  0  0  0
  8  9  1  1  0  0  0
  8 17  1  0  0  0  0
 10 19  1  0  0  0  0
 11 12  1  6  0  0  0
 11 21  1  0  0  0  0
 12 44  1  0  0  0  0
 13 14  1  6  0  0  0
 13 23  1  0  0  0  0
 15 16  1  0  0  0  0
 17 18  1  6  0  0  0
 17 25  1  0  0  0  0
 19 20  1  6  0  0  0
 19 27  1  0  0  0  0
 21 22  1  6  0  0  0
 21 28  1  0  0  0  0
 23 24  1  6  0  0  0
 23 30  1  0  0  0  0
 25 26  1  1  0  0  0
 25 32  1  0  0  0  0
 27  2  1  1  0  0  0
 27 34  1  0  0  0  0
 28 29  1  0  0  0  0
 28 36  1  1  0  0  0
 30 31  1  6  0  0  0
 30 38  1  0  0  0  0
 32 33  1  0  0  0  0
 32 40  1  6  0  0  0
 34 35  1  6  0  0  0
 34 42  1  0  0  0  0
 36 37  1  0  0  0  0
 38 39  1  0  0  0  0
 38 45  1  6  0  0  0
 40 41  1  0  0  0  0
 42 43  1  1  0  0  0
 44 47  1  0  0  0  0
 45 46  1  0  0  0  0
 47 48  1  0  0  0  0
 48 49  1  0  0  0  0
 49  7  1  0  0  0  0
M  END
>  <CHROM.1>
-177.48290816,-53.19498095,-64.13844580,-42.84296904,65.84880368,-74.19258325
103.94825610,-127.29741095,55.97386881,176.87819513,-100.88212567,177.25894424
-63.81972527,99.91498834,-161.11227882,-54.04853639,42.47854244,4.60803958
-3.35364688,1.41012470,0.85597073,0.24987281

>  <Name>
2bee_lig

>  <RI>
3.46266e+07

>  <Rbt.Current_Directory>
/home/itssahil/PROJECTS/Mol_Feturizer/New_Systems/rnas/2bee

>  <Rbt.Executable>
rbdock ($Id: //depot/dev/client3/rdock/2013.1/src/exe/rbdock.cxx#4 $)

>  <Rbt.Library>
libRbt.so (2013.1, Build901 2013/11/27)

>  <Rbt.Parameter_File>
/export/apps/rDock/src/rDock_2013.1_src/data/scripts/dock_solv.prm

>  <Rbt.Receptor>
prm/pocket_docking_4.prm

>  <SCORE>
-17.3926

>  <SCORE.INTER>
-10.1342

>  <SCORE.INTER.CONST>
1

>  <SCORE.INTER.POLAR>
-2.7768

>  <SCORE.INTER.ROT>
16

>  <SCORE.INTER.SOLV>
19.6147

>  <SCORE.INTER.VDW>
-18.3051

>  <SCORE.INTER.norm>
-0.206821

>  <SCORE.INTRA>
-7.25831

>  <SCORE.INTRA.DIHEDRAL>
-15.5233

>  <SCORE.INTRA.DIHEDRAL.0>
36.0842

>  <SCORE.INTRA.POLAR>
0

>  <SCORE.INTRA.POLAR.0>
0

>  <SCORE.INTRA.REPUL>
0

>  <SCORE.INTRA.REPUL.0>
0

>  <SCORE.INTRA.SOLV>
6.9583

>  <SCORE.INTRA.SOLV.lig_0>
-126.444

>  <SCORE.INTRA.VDW>
-2.97583

>  <SCORE.INTRA.VDW.0>
-7.40469

>  <SCORE.INTRA.norm>
-0.148129

>  <SCORE.RESTR>
0

>  <SCORE.RESTR.CAVITY>
0

>  <SCORE.RESTR.norm>
0

>  <SCORE.SYSTEM>
0

>  <SCORE.SYSTEM.CONST>
0

>  <SCORE.SYSTEM.DIHEDRAL>
0

>  <SCORE.SYSTEM.SOLV>
0

>  <SCORE.SYSTEM.norm>
0

>  <SCORE.heavy>
49

>  <SCORE.norm>
-0.35495

>  <RMSD>
8.282

$$$$
2bee_lig
 OpenBabel11021811423D
libRbt.so/2013.1/901 2013/11/27
 49 52  0  0  0  0  0  0  0  0999 V2000
   44.2277    1.4089   -5.0177 C   0  0  2  0  0  0  0  0  0  0  0  0
   45.0303    2.3161   -5.7626 O   0  0  0  0  0  0  0  0  0  0  0  0
   45.3678    6.6855   -6.1731 C   0  0  2  0  0  0  0  0  0  0  0  0
   44.9582    8.1050   -6.3520 N   0  0  0  0  0  0  0  0  0  0  0  0
   43.4463    4.0169   -3.0005 C   0  0  1  0  0  0  0  0  0  0  0  0
   41.6982    0.0899   -1.7816 C   0  0  1  0  0  0  0  0  0  0  0  0
   38.0644    8.3897    0.6349 C   0  0  0  0  0  0  0  0  0  0  0  0
   44.9499    0.0116   -4.8953 C   0  0  2  0  0  0  0  0  0  0  0  0
   46.2842    0.1861   -4.3314 N   0  0  0  0  0  0  0  0  0  0  0  0
   44.8174    5.8184   -7.3950 C   0  0  0  0  0  0  0  0  0  0  0  0
   41.9779    3.7407   -2.9994 C   0  0  2  0  0  0  0  0  0  0  0  0
   41.1652    4.9554   -2.8146 O   0  0  0  0  0  0  0  0  0  0  0  0
   41.6370   -0.1405   -3.3860 C   0  0  2  0  0  0  0  0  0  0  0  0
   40.2622    0.2331   -3.8588 N   0  0  0  0  0  0  0  0  0  0  0  0
   38.2161    9.7695    0.9067 C   0  0  0  0  0  0  0  0  0  0  0  0
   39.1391   10.5222    0.1840 N   0  0  0  0  0  0  0  0  0  0  0  0
   45.0050   -0.6789   -6.3278 C   0  0  1  0  0  0  0  0  0  0  0  0
   45.6522   -1.9373   -6.2069 O   0  0  0  0  0  0  0  0  0  0  0  0
   45.2360    4.2473   -7.2283 C   0  0  2  0  0  0  0  0  0  0  0  0
   44.7572    3.4670   -8.3183 N   0  0  0  0  0  0  0  0  0  0  0  0
   42.0096    2.6403   -1.9665 C   0  0  2  0  0  0  0  0  0  0  0  0
   41.3637    1.4851   -1.5879 O   0  0  0  0  0  0  0  0  0  0  0  0
   41.9354   -1.6536   -3.6821 C   0  0  1  0  0  0  0  0  0  0  0  0
   43.2978   -1.9336   -3.2057 O   0  0  0  0  0  0  0  0  0  0  0  0
   43.5646   -0.8395   -6.8670 C   0  0  2  0  0  0  0  0  0  0  0  0
   43.5710   -1.4677   -8.2129 O   0  0  0  0  0  0  0  0  0  0  0  0
   44.6558    3.6796   -5.8747 C   0  0  2  0  0  0  0  0  0  0  0  0
   43.1561    3.1359   -0.9529 C   0  0  2  0  0  0  0  0  0  0  0  0
   44.0724    3.6598   -1.8014 O   0  0  0  0  0  0  0  0  0  0  0  0
   40.8293   -2.5773   -2.9160 C   0  0  2  0  0  0  0  0  0  0  0  0
   39.4619   -2.2848   -3.4020 O   0  0  0  0  0  0  0  0  0  0  0  0
   42.8569    0.5521   -6.9782 C   0  0  2  0  0  0  0  0  0  0  0  0
   42.8966    1.1069   -5.6384 O   0  0  0  0  0  0  0  0  0  0  0  0
   45.2218    4.5644   -4.7130 C   0  0  2  0  0  0  0  0  0  0  0  0
   44.6671    3.9630   -3.5682 O   0  0  0  0  0  0  0  0  0  0  0  0
   43.9121    2.0473   -0.1048 C   0  0  0  0  0  0  0  0  0  0  0  0
   42.9549    1.3474    0.7516 O   0  0  0  0  0  0  0  0  0  0  0  0
   40.8773   -2.3007   -1.3475 C   0  0  1  0  0  0  0  0  0  0  0  0
   40.6327   -0.8189   -1.1527 O   0  0  0  0  0  0  0  0  0  0  0  0
   41.4907    0.3009   -7.4742 C   0  0  0  0  0  0  0  0  0  0  0  0
   40.8063   -0.4507   -6.6013 O   0  0  0  0  0  0  0  0  0  0  0  0
   44.7732    6.0785   -4.8828 C   0  0  1  0  0  0  0  0  0  0  0  0
   45.2905    6.8577   -3.8476 O   0  0  0  0  0  0  0  0  0  0  0  0
   41.2262    5.8464   -1.6443 C   0  0  0  0  0  0  0  0  0  0  0  0
   39.7698   -3.2177   -0.7263 C   0  0  0  0  0  0  0  0  0  0  0  0
   39.9581   -4.6070   -1.0311 N   0  0  0  0  0  0  0  0  0  0  0  0
   40.0870    6.8636   -1.7249 C   0  0  0  0  0  0  0  0  0  0  0  0
   40.2247    7.7500   -0.5530 N   0  0  0  0  0  0  0  0  0  0  0  0
   39.3632    7.4590    0.6777 C   0  0  0  0  0  0  0  0  0  0  0  0
  1  2  1  6  0  0  0
  1  8  1  0  0  0  0
  1 33  1  0  0  0  0
  3  4  1  6  0  0  0
  3 10  1  0  0  0  0
  3 42  1  0  0  0  0
  5 11  1  0  0  0  0
  5 29  1  0  0  0  0
  5 35  1  6  0  0  0
  6 13  1  0  0  0  0
  6 39  1  0  0  0  0
  6 22  1  6  0  0  0
  7 15  1  0  0  0  0
  8  9  1  6  0  0  0
  8 17  1  0  0  0  0
 10 19  1  0  0  0  0
 11 12  1  1  0  0  0
 11 21  1  0  0  0  0
 12 44  1  0  0  0  0
 13 14  1  1  0  0  0
 13 23  1  0  0  0  0
 15 16  1  0  0  0  0
 17 18  1  1  0  0  0
 17 25  1  0  0  0  0
 19 20  1  6  0  0  0
 19 27  1  0  0  0  0
 21 22  1  1  0  0  0
 21 28  1  0  0  0  0
 23 24  1  1  0  0  0
 23 30  1  0  0  0  0
 25 26  1  6  0  0  0
 25 32  1  0  0  0  0
 27  2  1  1  0  0  0
 27 34  1  0  0  0  0
 28 29  1  0  0  0  0
 28 36  1  6  0  0  0
 30 31  1  6  0  0  0
 30 38  1  0  0  0  0
 32 33  1  0  0  0  0
 32 40  1  1  0  0  0
 34 35  1  1  0  0  0
 34 42  1  0  0  0  0
 36 37  1  0  0  0  0
 38 39  1  0  0  0  0
 38 45  1  1  0  0  0
 40 41  1  0  0  0  0
 42 43  1  1  0  0  0
 44 47  1  0  0  0  0
 45 46  1  0  0  0  0
 47 48  1  0  0  0  0
 48 49  1  0  0  0  0
 49  7  1  0  0  0  0
M  END
>  <CHROM.1>
-172.85404520,66.57029985,-64.76356211,54.11823857,-59.98997617,-171.27161006
101.52655134,-152.53834534,-61.24856016,62.34849019,-78.48549819,57.44383922
-178.30508832,-97.79209692,-96.83494692,-72.79413723,42.58069368,2.38683013
-3.56413159,-1.30857260,0.89582310,0.14202514

>  <Name>
2bee_lig

>  <RI>
0

>  <Rbt.Current_Directory>
/home/itssahil/PROJECTS/Mol_Feturizer/New_Systems/rnas/2bee

>  <Rbt.Executable>
rbdock ($Id: //depot/dev/client3/rdock/2013.1/src/exe/rbdock.cxx#4 $)

>  <Rbt.Library>
libRbt.so (2013.1, Build901 2013/11/27)

>  <Rbt.Parameter_File>
/export/apps/rDock/src/rDock_2013.1_src/data/scripts/dock_solv.prm

>  <Rbt.Receptor>
prm/pocket_docking_5.prm

>  <SCORE>
-13.4497

>  <SCORE.INTER>
-2.06113

>  <SCORE.INTER.CONST>
1

>  <SCORE.INTER.POLAR>
-1.25877

>  <SCORE.INTER.ROT>
16

>  <SCORE.INTER.SOLV>
10.5461

>  <SCORE.INTER.VDW>
-14.9602

>  <SCORE.INTER.norm>
-0.0420638

>  <SCORE.INTRA>
-11.3889

>  <SCORE.INTRA.DIHEDRAL>
-23.8153

>  <SCORE.INTRA.DIHEDRAL.0>
36.0842

>  <SCORE.INTRA.POLAR>
0

>  <SCORE.INTRA.POLAR.0>
0

>  <SCORE.INTRA.REPUL>
0

>  <SCORE.INTRA.REPUL.0>
0

>  <SCORE.INTRA.SOLV>
3.74222

>  <SCORE.INTRA.SOLV.lig_0>
-126.444

>  <SCORE.INTRA.VDW>
-1.35239

>  <SCORE.INTRA.VDW.0>
-7.40469

>  <SCORE.INTRA.norm>
-0.232427

>  <SCORE.RESTR>
0.000351526

>  <SCORE.RESTR.CAVITY>
0.000351526

>  <SCORE.RESTR.norm>
7.17399e-06

>  <SCORE.SYSTEM>
0

>  <SCORE.SYSTEM.CONST>
0

>  <SCORE.SYSTEM.DIHEDRAL>
0

>  <SCORE.SYSTEM.SOLV>
0

>  <SCORE.SYSTEM.norm>
0

>  <SCORE.heavy>
49

>  <SCORE.norm>
-0.274484

>  <RMSD>
8.284

$$$$
2bee_lig
 OpenBabel11021811423D
libRbt.so/2013.1/901 2013/11/27
 49 52  0  0  0  0  0  0  0  0999 V2000
   42.6389    3.4069   -6.8714 C   0  0  2  0  0  0  0  0  0  0  0  0
   41.7949    3.6573   -5.7546 O   0  0  0  0  0  0  0  0  0  0  0  0
   43.2484    7.6206   -4.5082 C   0  0  2  0  0  0  0  0  0  0  0  0
   43.3216    8.9095   -3.7676 N   0  0  0  0  0  0  0  0  0  0  0  0
   42.7409    3.4987   -2.4652 C   0  0  1  0  0  0  0  0  0  0  0  0
   41.9920   -0.9174   -2.2254 C   0  0  1  0  0  0  0  0  0  0  0  0
   39.1142    5.3521    4.0486 C   0  0  0  0  0  0  0  0  0  0  0  0
   42.3094    1.9990   -7.5024 C   0  0  2  0  0  0  0  0  0  0  0  0
   40.8905    1.9186   -7.8322 N   0  0  0  0  0  0  0  0  0  0  0  0
   41.8138    7.4865   -5.1952 C   0  0  0  0  0  0  0  0  0  0  0  0
   41.5071    2.9566   -1.8199 C   0  0  2  0  0  0  0  0  0  0  0  0
   41.0048    3.8126   -0.7312 O   0  0  0  0  0  0  0  0  0  0  0  0
   41.2411   -0.7135   -3.6486 C   0  0  2  0  0  0  0  0  0  0  0  0
   39.7720   -0.5581   -3.3828 N   0  0  0  0  0  0  0  0  0  0  0  0
   39.8550    6.5571    4.0372 C   0  0  0  0  0  0  0  0  0  0  0  0
   41.1023    6.6111    4.6553 N   0  0  0  0  0  0  0  0  0  0  0  0
   42.7404    0.8534   -6.4856 C   0  0  1  0  0  0  0  0  0  0  0  0
   42.4445   -0.4096   -7.0639 O   0  0  0  0  0  0  0  0  0  0  0  0
   41.6886    6.0747   -6.0092 C   0  0  2  0  0  0  0  0  0  0  0  0
   40.4154    5.9498   -6.6333 N   0  0  0  0  0  0  0  0  0  0  0  0
   42.0435    1.5701   -1.5583 C   0  0  2  0  0  0  0  0  0  0  0  0
   41.6513    0.2552   -1.4477 O   0  0  0  0  0  0  0  0  0  0  0  0
   41.5148   -1.9770   -4.5402 C   0  0  1  0  0  0  0  0  0  0  0  0
   42.9659   -2.0489   -4.7658 O   0  0  0  0  0  0  0  0  0  0  0  0
   44.2504    0.9899   -6.1812 C   0  0  2  0  0  0  0  0  0  0  0  0
   44.6924   -0.0536   -5.2211 O   0  0  0  0  0  0  0  0  0  0  0  0
   41.9157    4.8652   -5.0209 C   0  0  2  0  0  0  0  0  0  0  0  0
   43.5859    1.8473   -1.1955 C   0  0  2  0  0  0  0  0  0  0  0  0
   43.9055    2.8334   -2.0671 O   0  0  0  0  0  0  0  0  0  0  0  0
   40.9599   -3.3052   -3.7711 C   0  0  2  0  0  0  0  0  0  0  0  0
   39.4990   -3.2203   -3.5474 O   0  0  0  0  0  0  0  0  0  0  0  0
   44.5654    2.3922   -5.5614 C   0  0  2  0  0  0  0  0  0  0  0  0
   44.1009    3.3544   -6.5426 O   0  0  0  0  0  0  0  0  0  0  0  0
   43.3302    5.0462   -4.3737 C   0  0  2  0  0  0  0  0  0  0  0  0
   43.4359    3.9168   -3.5411 O   0  0  0  0  0  0  0  0  0  0  0  0
   44.6215    0.6886   -1.4417 C   0  0  0  0  0  0  0  0  0  0  0  0
   45.9799    1.2142   -1.3080 O   0  0  0  0  0  0  0  0  0  0  0  0
   41.6787   -3.4595   -2.3574 C   0  0  1  0  0  0  0  0  0  0  0  0
   41.4104   -2.1852   -1.5842 O   0  0  0  0  0  0  0  0  0  0  0  0
   46.0209    2.4414   -5.3276 C   0  0  0  0  0  0  0  0  0  0  0  0
   46.3641    3.6024   -4.7536 O   0  0  0  0  0  0  0  0  0  0  0  0
   43.4130    6.4095   -3.5632 C   0  0  1  0  0  0  0  0  0  0  0  0
   44.6796    6.5635   -2.9991 O   0  0  0  0  0  0  0  0  0  0  0  0
   41.7808    4.2250    0.4498 C   0  0  0  0  0  0  0  0  0  0  0  0
   41.0571   -4.7426   -1.7091 C   0  0  0  0  0  0  0  0  0  0  0  0
   39.7090   -4.5450   -1.2594 N   0  0  0  0  0  0  0  0  0  0  0  0
   40.9545    5.2104    1.2776 C   0  0  0  0  0  0  0  0  0  0  0  0
   39.7625    4.4772    1.7462 N   0  0  0  0  0  0  0  0  0  0  0  0
   39.6809    4.1032    3.2277 C   0  0  0  0  0  0  0  0  0  0  0  0
  1  2  1  1  0  0  0
  1  8  1  0  0  0  0
  1 33  1  0  0  0  0
  3  4  1  1  0  0  0
  3 10  1  0  0  0  0
  3 42  1  0  0  0  0
  5 11  1  0  0  0  0
  5 29  1  0  0  0  0
  5 35  1  6  0  0  0
  6 13  1  0  0  0  0
  6 39  1  0  0  0  0
  6 22  1  1  0  0  0
  7 15  1  0  0  0  0
  8  9  1  1  0  0  0
  8 17  1  0  0  0  0
 10 19  1  0  0  0  0
 11 12  1  1  0  0  0
 11 21  1  0  0  0  0
 12 44  1  0  0  0  0
 13 14  1  1  0  0  0
 13 23  1  0  0  0  0
 15 16  1  0  0  0  0
 17 18  1  6  0  0  0
 17 25  1  0  0  0  0
 19 20  1  1  0  0  0
 19 27  1  0  0  0  0
 21 22  1  1  0  0  0
 21 28  1  0  0  0  0
 23 24  1  1  0  0  0
 23 30  1  0  0  0  0
 25 26  1  1  0  0  0
 25 32  1  0  0  0  0
 27  2  1  6  0  0  0
 27 34  1  0  0  0  0
 28 29  1  0  0  0  0
 28 36  1  6  0  0  0
 30 31  1  1  0  0  0
 30 38  1  0  0  0  0
 32 33  1  0  0  0  0
 32 40  1  6  0  0  0
 34 35  1  1  0  0  0
 34 42  1  0  0  0  0
 36 37  1  0  0  0  0
 38 39  1  0  0  0  0
 38 45  1  1  0  0  0
 40 41  1  0  0  0  0
 42 43  1  6  0  0  0
 44 47  1  0  0  0  0
 45 46  1  0  0  0  0
 47 48  1  0  0  0  0
 48 49  1  0  0  0  0
 49  7  1  0  0  0  0
M  END
>  <CHROM.1>
179.66055503,69.76391379,-71.30609216,-67.13453923,-56.54834032,174.81593056
117.29920601,58.18331149,168.81839385,-177.95519268,-63.17334488,-72.72755608
63.36589481,107.88934266,83.65315338,-61.36159109,42.29733317,2.31245571
-3.01578965,-1.45532899,1.21101704,0.38864805

>  <Name>
2bee_lig

>  <RI>
0

>  <Rbt.Current_Directory>
/home/itssahil/PROJECTS/Mol_Feturizer/New_Systems/rnas/2bee

>  <Rbt.Executable>
rbdock ($Id: //depot/dev/client3/rdock/2013.1/src/exe/rbdock.cxx#4 $)

>  <Rbt.Library>
libRbt.so (2013.1, Build901 2013/11/27)

>  <Rbt.Parameter_File>
/export/apps/rDock/src/rDock_2013.1_src/data/scripts/dock_solv.prm

>  <Rbt.Receptor>
prm/pocket_docking_6.prm

>  <SCORE>
-15.0236

>  <SCORE.INTER>
-1.88084

>  <SCORE.INTER.CONST>
1

>  <SCORE.INTER.POLAR>
-1.40668

>  <SCORE.INTER.ROT>
16

>  <SCORE.INTER.SOLV>
16.2726

>  <SCORE.INTER.VDW>
-16.2559

>  <SCORE.INTER.norm>
-0.0383844

>  <SCORE.INTRA>
-13.1428

>  <SCORE.INTRA.DIHEDRAL>
-28.328

>  <SCORE.INTRA.DIHEDRAL.0>
36.0842

>  <SCORE.INTRA.POLAR>
0

>  <SCORE.INTRA.POLAR.0>
0

>  <SCORE.INTRA.REPUL>
0

>  <SCORE.INTRA.REPUL.0>
0

>  <SCORE.INTRA.SOLV>
2.43872

>  <SCORE.INTRA.SOLV.lig_0>
-126.444

>  <SCORE.INTRA.VDW>
-0.198118

>  <SCORE.INTRA.VDW.0>
-7.40469

>  <SCORE.INTRA.norm>
-0.26822

>  <SCORE.RESTR>
0

>  <SCORE.RESTR.CAVITY>
0

>  <SCORE.RESTR.norm>
0

>  <SCORE.SYSTEM>
0

>  <SCORE.SYSTEM.CONST>
0

>  <SCORE.SYSTEM.DIHEDRAL>
0

>  <SCORE.SYSTEM.SOLV>
0

>  <SCORE.SYSTEM.norm>
0

>  <SCORE.heavy>
49

>  <SCORE.norm>
-0.306604

>  <RMSD>
8.300

$$$$
2bee_lig
 OpenBabel11021811423D
libRbt.so/2013.1/901 2013/11/27
 49 52  0  0  0  0  0  0  0  0999 V2000
   44.9750    1.8362   -4.6797 C   0  0  2  0  0  0  0  0  0  0  0  0
   44.5119    0.7430   -5.4624 O   0  0  0  0  0  0  0  0  0  0  0  0
   40.9709    0.3081   -8.0405 C   0  0  2  0  0  0  0  0  0  0  0  0
   39.5427    0.1758   -8.4372 N   0  0  0  0  0  0  0  0  0  0  0  0
   42.7132    4.2528   -6.4416 C   0  0  1  0  0  0  0  0  0  0  0  0
   40.9754    6.4444   -2.9630 C   0  0  1  0  0  0  0  0  0  0  0  0
   44.8936    9.8342  -11.6083 C   0  0  0  0  0  0  0  0  0  0  0  0
   46.4891    1.6275   -4.2885 C   0  0  2  0  0  0  0  0  0  0  0  0
   47.2896    1.4071   -5.4882 N   0  0  0  0  0  0  0  0  0  0  0  0
   41.3426   -0.8513   -7.0083 C   0  0  0  0  0  0  0  0  0  0  0  0
   41.7083    5.3541   -6.5411 C   0  0  2  0  0  0  0  0  0  0  0  0
   41.7466    6.0511   -7.8384 O   0  0  0  0  0  0  0  0  0  0  0  0
   39.9772    5.2097   -3.2950 C   0  0  2  0  0  0  0  0  0  0  0  0
   38.9800    5.6775   -4.3148 N   0  0  0  0  0  0  0  0  0  0  0  0
   44.8491   10.9617  -12.4613 C   0  0  0  0  0  0  0  0  0  0  0  0
   44.4610   12.2002  -11.9552 N   0  0  0  0  0  0  0  0  0  0  0  0
   46.6064    0.4077   -3.2736 C   0  0  1  0  0  0  0  0  0  0  0  0
   47.9714    0.2305   -2.9237 O   0  0  0  0  0  0  0  0  0  0  0  0
   42.9032   -0.7324   -6.5373 C   0  0  2  0  0  0  0  0  0  0  0  0
   43.2470   -1.7680   -5.6232 N   0  0  0  0  0  0  0  0  0  0  0  0
   42.0840    6.0479   -5.2542 C   0  0  2  0  0  0  0  0  0  0  0  0
   41.5580    6.8113   -4.2366 O   0  0  0  0  0  0  0  0  0  0  0  0
   39.2564    4.7829   -1.9667 C   0  0  1  0  0  0  0  0  0  0  0  0
   40.2946    4.3263   -1.0312 O   0  0  0  0  0  0  0  0  0  0  0  0
   45.7424    0.7037   -2.0257 C   0  0  2  0  0  0  0  0  0  0  0  0
   45.8111   -0.4197   -1.0566 O   0  0  0  0  0  0  0  0  0  0  0  0
   43.1535    0.6733   -5.8646 C   0  0  2  0  0  0  0  0  0  0  0  0
   43.6803    5.8575   -5.1995 C   0  0  2  0  0  0  0  0  0  0  0  0
   43.8278    4.5957   -5.6687 O   0  0  0  0  0  0  0  0  0  0  0  0
   38.4308    6.0589   -1.3718 C   0  0  2  0  0  0  0  0  0  0  0  0
   37.3905    6.5111   -2.3230 O   0  0  0  0  0  0  0  0  0  0  0  0
   44.2443    0.9146   -2.4272 C   0  0  2  0  0  0  0  0  0  0  0  0
   44.2559    2.0121   -3.3757 O   0  0  0  0  0  0  0  0  0  0  0  0
   42.7717    1.7713   -6.9140 C   0  0  2  0  0  0  0  0  0  0  0  0
   43.0520    2.9666   -6.2266 O   0  0  0  0  0  0  0  0  0  0  0  0
   44.3792    5.8885   -3.7901 C   0  0  0  0  0  0  0  0  0  0  0  0
   44.6322    7.2763   -3.4036 O   0  0  0  0  0  0  0  0  0  0  0  0
   39.4247    7.2735   -1.0961 C   0  0  1  0  0  0  0  0  0  0  0  0
   40.1134    7.5869   -2.4079 O   0  0  0  0  0  0  0  0  0  0  0  0
   43.5049    1.2130   -1.1863 C   0  0  0  0  0  0  0  0  0  0  0  0
   43.9718    2.3344   -0.6210 O   0  0  0  0  0  0  0  0  0  0  0  0
   41.2433    1.6523   -7.3291 C   0  0  1  0  0  0  0  0  0  0  0  0
   40.9177    2.6293   -8.2702 O   0  0  0  0  0  0  0  0  0  0  0  0
   42.9214    6.7414   -8.3956 C   0  0  0  0  0  0  0  0  0  0  0  0
   38.5258    8.4356   -0.5532 C   0  0  0  0  0  0  0  0  0  0  0  0
   39.2752    9.6119   -0.2168 N   0  0  0  0  0  0  0  0  0  0  0  0
   42.6163    7.1796   -9.8287 C   0  0  0  0  0  0  0  0  0  0  0  0
   43.7807    7.9589  -10.2922 N   0  0  0  0  0  0  0  0  0  0  0  0
   43.5237    9.3012  -10.9804 C   0  0  0  0  0  0  0  0  0  0  0  0
  1  2  1  1  0  0  0
  1  8  1  0  0  0  0
  1 33  1  0  0  0  0
  3  4  1  1  0  0  0
  3 10  1  0  0  0  0
  3 42  1  0  0  0  0
  5 11  1  0  0  0  0
  5 29  1  0  0  0  0
  5 35  1  1  0  0  0
  6 13  1  0  0  0  0
  6 39  1  0  0  0  0
  6 22  1  6  0  0  0
  7 15  1  0  0  0  0
  8  9  1  6  0  0  0
  8 17  1  0  0  0  0
 10 19  1  0  0  0  0
 11 12  1  6  0  0  0
 11 21  1  0  0  0  0
 12 44  1  0  0  0  0
 13 14  1  6  0  0  0
 13 23  1  0  0  0  0
 15 16  1  0  0  0  0
 17 18  1  1  0  0  0
 17 25  1  0  0  0  0
 19 20  1  1  0  0  0
 19 27  1  0  0  0  0
 21 22  1  6  0  0  0
 21 28  1  0  0  0  0
 23 24  1  1  0  0  0
 23 30  1  0  0  0  0
 25 26  1  1  0  0  0
 25 32  1  0  0  0  0
 27  2  1  6  0  0  0
 27 34  1  0  0  0  0
 28 29  1  0  0  0  0
 28 36  1  1  0  0  0
 30 31  1  6  0  0  0
 30 38  1  0  0  0  0
 32 33  1  0  0  0  0
 32 40  1  1  0  0  0
 34 35  1  1  0  0  0
 34 42  1  0  0  0  0
 36 37  1  0  0  0  0
 38 39  1  0  0  0  0
 38 45  1  6  0  0  0
 40 41  1  0  0  0  0
 42 43  1  6  0  0  0
 44 47  1  0  0  0  0
 45 46  1  0  0  0  0
 47 48  1  0  0  0  0
 48 49  1  0  0  0  0
 49  7  1  0  0  0  0
M  END
>  <CHROM.1>
176.25759768,65.20515787,-44.96623313,65.01402216,-58.76343952,172.76653140
91.14767366,-172.24163613,-83.97624530,61.26619035,-164.73247476,178.49258167
175.40466756,-132.49659524,-170.45224867,170.77275526,42.67664791,4.25898383
-5.12156335,-1.31023424,0.97131352,-0.80663222

>  <Name>
2bee_lig

>  <RI>
0

>  <Rbt.Current_Directory>
/home/itssahil/PROJECTS/Mol_Feturizer/New_Systems/rnas/2bee

>  <Rbt.Executable>
rbdock ($Id: //depot/dev/client3/rdock/2013.1/src/exe/rbdock.cxx#4 $)

>  <Rbt.Library>
libRbt.so (2013.1, Build901 2013/11/27)

>  <Rbt.Parameter_File>
/export/apps/rDock/src/rDock_2013.1_src/data/scripts/dock_solv.prm

>  <Rbt.Receptor>
prm/pocket_docking_7.prm

>  <SCORE>
-22.8843

>  <SCORE.INTER>
-10.4806

>  <SCORE.INTER.CONST>
1

>  <SCORE.INTER.POLAR>
-0.512442

>  <SCORE.INTER.ROT>
16

>  <SCORE.INTER.SOLV>
16.8861

>  <SCORE.INTER.VDW>
-25.1743

>  <SCORE.INTER.norm>
-0.21389

>  <SCORE.INTRA>
-12.4037

>  <SCORE.INTRA.DIHEDRAL>
-24.9754

>  <SCORE.INTRA.DIHEDRAL.0>
36.0842

>  <SCORE.INTRA.POLAR>
0

>  <SCORE.INTRA.POLAR.0>
0

>  <SCORE.INTRA.REPUL>
0.0256591

>  <SCORE.INTRA.REPUL.0>
0

>  <SCORE.INTRA.SOLV>
-3.53817

>  <SCORE.INTRA.SOLV.lig_0>
-126.444

>  <SCORE.INTRA.VDW>
1.72479

>  <SCORE.INTRA.VDW.0>
-7.40469

>  <SCORE.INTRA.norm>
-0.253137

>  <SCORE.RESTR>
0

>  <SCORE.RESTR.CAVITY>
0

>  <SCORE.RESTR.norm>
0

>  <SCORE.SYSTEM>
0

>  <SCORE.SYSTEM.CONST>
0

>  <SCORE.SYSTEM.DIHEDRAL>
0

>  <SCORE.SYSTEM.SOLV>
0

>  <SCORE.SYSTEM.norm>
0

>  <SCORE.heavy>
49

>  <SCORE.norm>
-0.467027

>  <RMSD>
8.314

$$$$
2bee_lig
 OpenBabel11021811423D
libRbt.so/2013.1/901 2013/11/27
 49 52  0  0  0  0  0  0  0  0999 V2000
   40.7031   -0.1371   -7.3479 C   0  0  2  0  0  0  0  0  0  0  0  0
   41.4503    1.0604   -7.5204 O   0  0  0  0  0  0  0  0  0  0  0  0
   43.9529    0.9976   -3.9001 C   0  0  2  0  0  0  0  0  0  0  0  0
   44.9747    1.4196   -2.9038 N   0  0  0  0  0  0  0  0  0  0  0  0
   40.7171    3.8296   -5.5820 C   0  0  1  0  0  0  0  0  0  0  0  0
   44.2323    6.4559   -6.8985 C   0  0  1  0  0  0  0  0  0  0  0  0
   40.1592    4.9849    0.5436 C   0  0  0  0  0  0  0  0  0  0  0  0
   39.8979   -0.4747   -8.6620 C   0  0  2  0  0  0  0  0  0  0  0  0
   40.8045   -0.5292   -9.8038 N   0  0  0  0  0  0  0  0  0  0  0  0
   44.6381    0.8627   -5.3354 C   0  0  0  0  0  0  0  0  0  0  0  0
   41.2490    5.2176   -5.4303 C   0  0  2  0  0  0  0  0  0  0  0  0
   40.2130    6.1905   -5.0425 O   0  0  0  0  0  0  0  0  0  0  0  0
   45.0797    6.8827   -8.2141 C   0  0  2  0  0  0  0  0  0  0  0  0
   45.3048    5.6520   -9.0434 N   0  0  0  0  0  0  0  0  0  0  0  0
   40.5063    4.9355    1.9140 C   0  0  0  0  0  0  0  0  0  0  0  0
   39.5427    5.2015    2.8843 N   0  0  0  0  0  0  0  0  0  0  0  0
   38.7554    0.6127   -8.8723 C   0  0  1  0  0  0  0  0  0  0  0  0
   38.0335    0.2981  -10.0542 O   0  0  0  0  0  0  0  0  0  0  0  0
   43.5433    0.4126   -6.4625 C   0  0  2  0  0  0  0  0  0  0  0  0
   44.1470    0.2808   -7.7449 N   0  0  0  0  0  0  0  0  0  0  0  0
   41.9416    5.2848   -6.7699 C   0  0  2  0  0  0  0  0  0  0  0  0
   43.0182    5.8558   -7.4101 O   0  0  0  0  0  0  0  0  0  0  0  0
   46.4474    7.4966   -7.7464 C   0  0  1  0  0  0  0  0  0  0  0  0
   46.1418    8.6992   -6.9577 O   0  0  0  0  0  0  0  0  0  0  0  0
   37.8285    0.6177   -7.6345 C   0  0  2  0  0  0  0  0  0  0  0  0
   36.7540    1.6323   -7.7830 O   0  0  0  0  0  0  0  0  0  0  0  0
   42.3786    1.4755   -6.5315 C   0  0  2  0  0  0  0  0  0  0  0  0
   40.9462    4.4603   -7.7274 C   0  0  2  0  0  0  0  0  0  0  0  0
   40.5543    3.4477   -6.9180 O   0  0  0  0  0  0  0  0  0  0  0  0
   47.2572    6.3887   -6.8631 C   0  0  2  0  0  0  0  0  0  0  0  0
   47.5569    5.1820   -7.6665 O   0  0  0  0  0  0  0  0  0  0  0  0
   38.6395    0.9478   -6.3372 C   0  0  2  0  0  0  0  0  0  0  0  0
   39.6697   -0.0709   -6.2635 O   0  0  0  0  0  0  0  0  0  0  0  0
   41.7446    1.5715   -5.1027 C   0  0  2  0  0  0  0  0  0  0  0  0
   40.7171    2.5157   -5.2834 O   0  0  0  0  0  0  0  0  0  0  0  0
   41.5502    3.7871   -9.0150 C   0  0  0  0  0  0  0  0  0  0  0  0
   40.4647    3.2692   -9.8473 O   0  0  0  0  0  0  0  0  0  0  0  0
   46.3869    5.9518   -5.6019 C   0  0  1  0  0  0  0  0  0  0  0  0
   45.0720    5.4222   -6.1349 O   0  0  0  0  0  0  0  0  0  0  0  0
   37.6860    0.9073   -5.2125 C   0  0  0  0  0  0  0  0  0  0  0  0
   37.1814   -0.3258   -5.0705 O   0  0  0  0  0  0  0  0  0  0  0  0
   42.8218    2.0413   -4.0345 C   0  0  1  0  0  0  0  0  0  0  0  0
   42.2477    2.1145   -2.7651 O   0  0  0  0  0  0  0  0  0  0  0  0
   39.3073    6.0506   -3.8905 C   0  0  0  0  0  0  0  0  0  0  0  0
   47.2480    4.8818   -4.8489 C   0  0  0  0  0  0  0  0  0  0  0  0
   48.5616    5.3538   -4.5171 N   0  0  0  0  0  0  0  0  0  0  0  0
   40.1184    6.1410   -2.5971 C   0  0  0  0  0  0  0  0  0  0  0  0
   39.1476    6.1450   -1.4856 N   0  0  0  0  0  0  0  0  0  0  0  0
   39.6738    6.3796   -0.0681 C   0  0  0  0  0  0  0  0  0  0  0  0
  1  2  1  6  0  0  0
  1  8  1  0  0  0  0
  1 33  1  0  0  0  0
  3  4  1  1  0  0  0
  3 10  1  0  0  0  0
  3 42  1  0  0  0  0
  5 11  1  0  0  0  0
  5 29  1  0  0  0  0
  5 35  1  6  0  0  0
  6 13  1  0  0  0  0
  6 39  1  0  0  0  0
  6 22  1  6  0  0  0
  7 15  1  0  0  0  0
  8  9  1  6  0  0  0
  8 17  1  0  0  0  0
 10 19  1  0  0  0  0
 11 12  1  6  0  0  0
 11 21  1  0  0  0  0
 12 44  1  0  0  0  0
 13 14  1  6  0  0  0
 13 23  1  0  0  0  0
 15 16  1  0  0  0  0
 17 18  1  6  0  0  0
 17 25  1  0  0  0  0
 19 20  1  6  0  0  0
 19 27  1  0  0  0  0
 21 22  1  6  0  0  0
 21 28  1  0  0  0  0
 23 24  1  1  0  0  0
 23 30  1  0  0  0  0
 25 26  1  6  0  0  0
 25 32  1  0  0  0  0
 27  2  1  6  0  0  0
 27 34  1  0  0  0  0
 28 29  1  0  0  0  0
 28 36  1  6  0  0  0
 30 31  1  6  0  0  0
 30 38  1  0  0  0  0
 32 33  1  0  0  0  0
 32 40  1  1  0  0  0
 34 35  1  6  0  0  0
 34 42  1  0  0  0  0
 36 37  1  0  0  0  0
 38 39  1  0  0  0  0
 38 45  1  6  0  0  0
 40 41  1  0  0  0  0
 42 43  1  1  0  0  0
 44 47  1  0  0  0  0
 45 46  1  0  0  0  0
 47 48  1  0  0  0  0
 48 49  1  0  0  0  0
 49  7  1  0  0  0  0
M  END
>  <CHROM.1>
-172.28392628,-42.41241529,178.32776831,62.91623082,53.06042169,67.02043708
18.68673135,65.09298199,-171.38649527,63.26610807,-65.78681443,54.80155644
173.88003961,-173.56222525,-85.36715649,-171.12913722,41.94418144,3.42381717
-5.76284796,-2.72916651,0.54434640,1.09985556

>  <Name>
2bee_lig

>  <RI>
0

>  <Rbt.Current_Directory>
/home/itssahil/PROJECTS/Mol_Feturizer/New_Systems/rnas/2bee

>  <Rbt.Executable>
rbdock ($Id: //depot/dev/client3/rdock/2013.1/src/exe/rbdock.cxx#4 $)

>  <Rbt.Library>
libRbt.so (2013.1, Build901 2013/11/27)

>  <Rbt.Parameter_File>
/export/apps/rDock/src/rDock_2013.1_src/data/scripts/dock_solv.prm

>  <Rbt.Receptor>
prm/pocket_docking_6.prm

>  <SCORE>
-10.9996

>  <SCORE.INTER>
2.53596

>  <SCORE.INTER.CONST>
1

>  <SCORE.INTER.POLAR>
-0.935153

>  <SCORE.INTER.ROT>
16

>  <SCORE.INTER.SOLV>
12.715

>  <SCORE.INTER.VDW>
-13.6972

>  <SCORE.INTER.norm>
0.0517544

>  <SCORE.INTRA>
-13.5355

>  <SCORE.INTRA.DIHEDRAL>
-28.361

>  <SCORE.INTRA.DIHEDRAL.0>
36.0842

>  <SCORE.INTRA.POLAR>
0

>  <SCORE.INTRA.POLAR.0>
0

>  <SCORE.INTRA.REPUL>
0

>  <SCORE.INTRA.REPUL.0>
0

>  <SCORE.INTRA.SOLV>
-0.701691

>  <SCORE.INTRA.SOLV.lig_0>
-126.444

>  <SCORE.INTRA.VDW>
0.995834

>  <SCORE.INTRA.VDW.0>
-7.40469

>  <SCORE.INTRA.norm>
-0.276235

>  <SCORE.RESTR>
0

>  <SCORE.RESTR.CAVITY>
0

>  <SCORE.RESTR.norm>
0

>  <SCORE.SYSTEM>
0

>  <SCORE.SYSTEM.CONST>
0

>  <SCORE.SYSTEM.DIHEDRAL>
0

>  <SCORE.SYSTEM.SOLV>
0

>  <SCORE.SYSTEM.norm>
0

>  <SCORE.heavy>
49

>  <SCORE.norm>
-0.224481

>  <RMSD>
8.316

$$$$
2bee_lig
 OpenBabel11021811423D
libRbt.so/2013.1/901 2013/11/27
 49 52  0  0  0  0  0  0  0  0999 V2000
   43.1681   11.1979  -12.7651 C   0  0  2  0  0  0  0  0  0  0  0  0
   44.3389   12.0032  -12.7105 O   0  0  0  0  0  0  0  0  0  0  0  0
   46.7782   14.1823   -9.7650 C   0  0  2  0  0  0  0  0  0  0  0  0
   47.1470   14.8821   -8.5045 N   0  0  0  0  0  0  0  0  0  0  0  0
   45.8234    9.7627   -9.6689 C   0  0  1  0  0  0  0  0  0  0  0  0
   43.3957    7.0583   -6.5133 C   0  0  1  0  0  0  0  0  0  0  0  0
   50.9958    4.8629   -6.4716 C   0  0  0  0  0  0  0  0  0  0  0  0
   42.7037   11.0070  -14.2607 C   0  0  2  0  0  0  0  0  0  0  0  0
   43.8003   10.4716  -15.0604 N   0  0  0  0  0  0  0  0  0  0  0  0
   45.4986   14.8884  -10.4068 C   0  0  0  0  0  0  0  0  0  0  0  0
   45.8848    9.4017   -8.2203 C   0  0  2  0  0  0  0  0  0  0  0  0
   47.1841    8.8306   -7.8253 O   0  0  0  0  0  0  0  0  0  0  0  0
   42.7128    7.6337   -5.1593 C   0  0  2  0  0  0  0  0  0  0  0  0
   43.6236    8.6800   -4.5858 N   0  0  0  0  0  0  0  0  0  0  0  0
   50.1930    4.1598   -5.5432 C   0  0  0  0  0  0  0  0  0  0  0  0
   49.4305    4.8622   -4.6128 N   0  0  0  0  0  0  0  0  0  0  0  0
   42.1870   12.3992  -14.8324 C   0  0  1  0  0  0  0  0  0  0  0  0
   41.7670   12.2166  -16.1767 O   0  0  0  0  0  0  0  0  0  0  0  0
   45.0530   14.1389  -11.7893 C   0  0  2  0  0  0  0  0  0  0  0  0
   43.9175   14.7672  -12.3743 N   0  0  0  0  0  0  0  0  0  0  0  0
   44.6154    8.5854   -8.1913 C   0  0  2  0  0  0  0  0  0  0  0  0
   43.5791    8.2151   -7.3643 O   0  0  0  0  0  0  0  0  0  0  0  0
   42.5284    6.4435   -4.1516 C   0  0  1  0  0  0  0  0  0  0  0  0
   41.6167    5.4751   -4.7783 O   0  0  0  0  0  0  0  0  0  0  0  0
   41.0260   12.9093  -13.9474 C   0  0  2  0  0  0  0  0  0  0  0  0
   40.5229   14.2177  -14.4380 O   0  0  0  0  0  0  0  0  0  0  0  0
   44.7272   12.6228  -11.4951 C   0  0  2  0  0  0  0  0  0  0  0  0
   44.6243    7.8616   -9.6279 C   0  0  2  0  0  0  0  0  0  0  0  0
   45.0964    8.8432  -10.4327 O   0  0  0  0  0  0  0  0  0  0  0  0
   43.9852    5.7793   -3.8352 C   0  0  2  0  0  0  0  0  0  0  0  0
   44.8948    6.7638   -3.2070 O   0  0  0  0  0  0  0  0  0  0  0  0
   41.4974   13.0889  -12.4657 C   0  0  2  0  0  0  0  0  0  0  0  0
   41.9813   11.7830  -12.0598 O   0  0  0  0  0  0  0  0  0  0  0  0
   46.0092   11.9802  -10.8659 C   0  0  2  0  0  0  0  0  0  0  0  0
   45.6193   10.6426  -10.6687 O   0  0  0  0  0  0  0  0  0  0  0  0
   43.2441    7.4164  -10.2383 C   0  0  0  0  0  0  0  0  0  0  0  0
   43.4485    6.2589  -11.1088 O   0  0  0  0  0  0  0  0  0  0  0  0
   44.6557    5.2623   -5.1851 C   0  0  1  0  0  0  0  0  0  0  0  0
   44.7495    6.4532   -6.1158 O   0  0  0  0  0  0  0  0  0  0  0  0
   40.3275   13.5517  -11.6958 C   0  0  0  0  0  0  0  0  0  0  0  0
   40.7185   14.1346  -10.5545 O   0  0  0  0  0  0  0  0  0  0  0  0
   46.4001   12.7064   -9.5086 C   0  0  1  0  0  0  0  0  0  0  0  0
   47.5479   12.1311   -8.9626 O   0  0  0  0  0  0  0  0  0  0  0  0
   47.4332    7.4082   -7.5395 C   0  0  0  0  0  0  0  0  0  0  0  0
   46.0433    4.6705   -4.7637 C   0  0  0  0  0  0  0  0  0  0  0  0
   45.9272    3.4596   -4.0029 N   0  0  0  0  0  0  0  0  0  0  0  0
   48.3554    6.8315   -8.6147 C   0  0  0  0  0  0  0  0  0  0  0  0
   49.1438    5.7632   -7.9705 N   0  0  0  0  0  0  0  0  0  0  0  0
   50.3860    6.1639   -7.1720 C   0  0  0  0  0  0  0  0  0  0  0  0
  1  2  1  6  0  0  0
  1  8  1  0  0  0  0
  1 33  1  0  0  0  0
  3  4  1  1  0  0  0
  3 10  1  0  0  0  0
  3 42  1  0  0  0  0
  5 11  1  0  0  0  0
  5 29  1  0  0  0  0
  5 35  1  1  0  0  0
  6 13  1  0  0  0  0
  6 39  1  0  0  0  0
  6 22  1  6  0  0  0
  7 15  1  0  0  0  0
  8  9  1  6  0  0  0
  8 17  1  0  0  0  0
 10 19  1  0  0  0  0
 11 12  1  6  0  0  0
 11 21  1  0  0  0  0
 12 44  1  0  0  0  0
 13 14  1  1  0  0  0
 13 23  1  0  0  0  0
 15 16  1  0  0  0  0
 17 18  1  6  0  0  0
 17 25  1  0  0  0  0
 19 20  1  1  0  0  0
 19 27  1  0  0  0  0
 21 22  1  1  0  0  0
 21 28  1  0  0  0  0
 23 24  1  6  0  0  0
 23 30  1  0  0  0  0
 25 26  1  6  0  0  0
 25 32  1  0  0  0  0
 27  2  1  6  0  0  0
 27 34  1  0  0  0  0
 28 29  1  0  0  0  0
 28 36  1  6  0  0  0
 30 31  1  6  0  0  0
 30 38  1  0  0  0  0
 32 33  1  0  0  0  0
 32 40  1  1  0  0  0
 34 35  1  1  0  0  0
 34 42  1  0  0  0  0
 36 37  1  0  0  0  0
 38 39  1  0  0  0  0
 38 45  1  1  0  0  0
 40 41  1  0  0  0  0
 42 43  1  6  0  0  0
 44 47  1  0  0  0  0
 45 46  1  0  0  0  0
 47 48  1  0  0  0  0
 48 49  1  0  0  0  0
 49  7  1  0  0  0  0
M  END
>  <CHROM.1>
162.15985325,43.32570522,139.61209397,-42.34116085,-105.73003621,112.83562737
-93.22616451,-131.91345933,-151.56166221,-160.02022373,-139.27656341,69.29603013
149.58792626,-82.36673078,175.21169846,-61.01180440,44.80142230,9.48107482
-9.15872202,1.91098520,-0.03851157,-0.78102411

>  <Name>
2bee_lig

>  <RI>
0

>  <Rbt.Current_Directory>
/home/itssahil/PROJECTS/Mol_Feturizer/New_Systems/rnas/2bee

>  <Rbt.Executable>
rbdock ($Id: //depot/dev/client3/rdock/2013.1/src/exe/rbdock.cxx#4 $)

>  <Rbt.Library>
libRbt.so (2013.1, Build901 2013/11/27)

>  <Rbt.Parameter_File>
/export/apps/rDock/src/rDock_2013.1_src/data/scripts/dock_solv.prm

>  <Rbt.Receptor>
prm/blind_docking_60.prm

>  <SCORE>
33.1279

>  <SCORE.INTER>
1.29968

>  <SCORE.INTER.CONST>
1

>  <SCORE.INTER.POLAR>
-0.880757

>  <SCORE.INTER.ROT>
16

>  <SCORE.INTER.SOLV>
39.2019

>  <SCORE.INTER.VDW>
-23.5316

>  <SCORE.INTER.norm>
0.0265242

>  <SCORE.INTRA>
6.34741

>  <SCORE.INTRA.DIHEDRAL>
9.59886

>  <SCORE.INTRA.DIHEDRAL.0>
36.0842

>  <SCORE.INTRA.POLAR>
0

>  <SCORE.INTRA.POLAR.0>
0

>  <SCORE.INTRA.REPUL>
0

>  <SCORE.INTRA.REPUL.0>
0

>  <SCORE.INTRA.SOLV>
2.68757

>  <SCORE.INTRA.SOLV.lig_0>
-126.444

>  <SCORE.INTRA.VDW>
0.20419

>  <SCORE.INTRA.VDW.0>
-7.40469

>  <SCORE.INTRA.norm>
0.129539

>  <SCORE.RESTR>
25.4808

>  <SCORE.RESTR.CAVITY>
25.4808

>  <SCORE.RESTR.norm>
0.520016

>  <SCORE.SYSTEM>
0

>  <SCORE.SYSTEM.CONST>
0

>  <SCORE.SYSTEM.DIHEDRAL>
0

>  <SCORE.SYSTEM.SOLV>
0

>  <SCORE.SYSTEM.norm>
0

>  <SCORE.heavy>
49

>  <SCORE.norm>
0.676079

>  <RMSD>
8.321

$$$$
2bee_lig
 OpenBabel11021811423D
libRbt.so/2013.1/901 2013/11/27
 49 52  0  0  0  0  0  0  0  0999 V2000
   40.1322    6.1559   -1.2587 C   0  0  2  0  0  0  0  0  0  0  0  0
   40.2382    6.8951   -2.4689 O   0  0  0  0  0  0  0  0  0  0  0  0
   41.2818    5.8581   -6.6173 C   0  0  2  0  0  0  0  0  0  0  0  0
   42.0734    5.3504   -7.7708 N   0  0  0  0  0  0  0  0  0  0  0  0
   39.6300    2.9934   -3.4795 C   0  0  1  0  0  0  0  0  0  0  0  0
   42.4164   -0.5423   -2.5459 C   0  0  1  0  0  0  0  0  0  0  0  0
   34.6962   -1.4652   -3.6249 C   0  0  0  0  0  0  0  0  0  0  0  0
   39.2766    6.9554   -0.2015 C   0  0  2  0  0  0  0  0  0  0  0  0
   37.9793    7.3055   -0.7699 N   0  0  0  0  0  0  0  0  0  0  0  0
   42.1258    6.9721   -5.8463 C   0  0  0  0  0  0  0  0  0  0  0  0
   39.9783    1.6147   -3.9385 C   0  0  2  0  0  0  0  0  0  0  0  0
   38.8925    0.9708   -4.6979 O   0  0  0  0  0  0  0  0  0  0  0  0
   43.5512    0.5755   -2.8524 C   0  0  2  0  0  0  0  0  0  0  0  0
   42.9696    1.5825   -3.8014 N   0  0  0  0  0  0  0  0  0  0  0  0
   35.2621   -1.9660   -2.4292 C   0  0  0  0  0  0  0  0  0  0  0  0
   35.6520   -1.0847   -1.4233 N   0  0  0  0  0  0  0  0  0  0  0  0
   40.0830    8.2480    0.2580 C   0  0  1  0  0  0  0  0  0  0  0  0
   39.3075    8.9583    1.2125 O   0  0  0  0  0  0  0  0  0  0  0  0
   41.2941    7.5465   -4.5619 C   0  0  2  0  0  0  0  0  0  0  0  0
   42.0352    8.5476   -3.8727 N   0  0  0  0  0  0  0  0  0  0  0  0
   40.4268    1.0931   -2.5948 C   0  0  2  0  0  0  0  0  0  0  0  0
   41.2933    0.1975   -2.0099 O   0  0  0  0  0  0  0  0  0  0  0  0
   44.7933   -0.1406   -3.4930 C   0  0  1  0  0  0  0  0  0  0  0  0
   45.3104   -1.0942   -2.5005 O   0  0  0  0  0  0  0  0  0  0  0  0
   41.4413    7.8107    0.8538 C   0  0  2  0  0  0  0  0  0  0  0  0
   42.2348    8.9908    1.2823 O   0  0  0  0  0  0  0  0  0  0  0  0
   40.9530    6.3645   -3.5732 C   0  0  2  0  0  0  0  0  0  0  0  0
   39.4152    1.8179   -1.5755 C   0  0  2  0  0  0  0  0  0  0  0  0
   39.3073    3.0534   -2.1195 O   0  0  0  0  0  0  0  0  0  0  0  0
   44.3287   -0.8936   -4.8644 C   0  0  2  0  0  0  0  0  0  0  0  0
   43.8079    0.0758   -5.8546 O   0  0  0  0  0  0  0  0  0  0  0  0
   42.2779    7.0138   -0.2021 C   0  0  2  0  0  0  0  0  0  0  0  0
   41.4421    5.8898   -0.5794 O   0  0  0  0  0  0  0  0  0  0  0  0
   40.1307    5.3016   -4.3773 C   0  0  2  0  0  0  0  0  0  0  0  0
   39.8641    4.3183   -3.4068 O   0  0  0  0  0  0  0  0  0  0  0  0
   39.8903    2.0298   -0.0905 C   0  0  0  0  0  0  0  0  0  0  0  0
   38.9485    2.9106    0.6000 O   0  0  0  0  0  0  0  0  0  0  0  0
   43.1828   -1.9539   -4.5453 C   0  0  1  0  0  0  0  0  0  0  0  0
   42.0501   -1.1949   -3.8863 O   0  0  0  0  0  0  0  0  0  0  0  0
   43.5374    6.6196    0.4566 C   0  0  0  0  0  0  0  0  0  0  0  0
   43.2943    5.7626    1.4575 O   0  0  0  0  0  0  0  0  0  0  0  0
   40.9741    4.7375   -5.5992 C   0  0  1  0  0  0  0  0  0  0  0  0
   40.2283    3.7988   -6.3125 O   0  0  0  0  0  0  0  0  0  0  0  0
   39.0302   -0.2569   -5.4984 C   0  0  0  0  0  0  0  0  0  0  0  0
   42.8061   -2.5918   -5.9253 C   0  0  0  0  0  0  0  0  0  0  0  0
   42.1572   -1.6675   -6.8102 N   0  0  0  0  0  0  0  0  0  0  0  0
   37.6584   -0.6630   -6.0391 C   0  0  0  0  0  0  0  0  0  0  0  0
   36.8866   -1.1828   -4.8935 N   0  0  0  0  0  0  0  0  0  0  0  0
   35.5754   -0.4833   -4.5293 C   0  0  0  0  0  0  0  0  0  0  0  0
  1  2  1  6  0  0  0
  1  8  1  0  0  0  0
  1 33  1  0  0  0  0
  3  4  1  6  0  0  0
  3 10  1  0  0  0  0
  3 42  1  0  0  0  0
  5 11  1  0  0  0  0
  5 29  1  0  0  0  0
  5 35  1  1  0  0  0
  6 13  1  0  0  0  0
  6 39  1  0  0  0  0
  6 22  1  6  0  0  0
  7 15  1  0  0  0  0
  8  9  1  6  0  0  0
  8 17  1  0  0  0  0
 10 19  1  0  0  0  0
 11 12  1  1  0  0  0
 11 21  1  0  0  0  0
 12 44  1  0  0  0  0
 13 14  1  6  0  0  0
 13 23  1  0  0  0  0
 15 16  1  0  0  0  0
 17 18  1  1  0  0  0
 17 25  1  0  0  0  0
 19 20  1  1  0  0  0
 19 27  1  0  0  0  0
 21 22  1  6  0  0  0
 21 28  1  0  0  0  0
 23 24  1  1  0  0  0
 23 30  1  0  0  0  0
 25 26  1  6  0  0  0
 25 32  1  0  0  0  0
 27  2  1  1  0  0  0
 27 34  1  0  0  0  0
 28 29  1  0  0  0  0
 28 36  1  1  0  0  0
 30 31  1  6  0  0  0
 30 38  1  0  0  0  0
 32 33  1  0  0  0  0
 32 40  1  1  0  0  0
 34 35  1  1  0  0  0
 34 42  1  0  0  0  0
 36 37  1  0  0  0  0
 38 39  1  0  0  0  0
 38 45  1  6  0  0  0
 40 41  1  0  0  0  0
 42 43  1  6  0  0  0
 44 47  1  0  0  0  0
 45 46  1  0  0  0  0
 47 48  1  0  0  0  0
 48 49  1  0  0  0  0
 49  7  1  0  0  0  0
M  END
>  <CHROM.1>
-179.29175502,51.22213772,68.80951105,60.87181792,167.09992057,175.54762005
13.18891449,-162.03629655,169.65599978,65.12167345,-153.23289802,-68.08191048
-72.46862131,120.38846035,161.29166145,56.57963727,40.65665844,3.00450712
-2.97282039,1.47492486,0.32080376,0.44153852

>  <Name>
2bee_lig

>  <RI>
3.46266e+07

>  <Rbt.Current_Directory>
/home/itssahil/PROJECTS/Mol_Feturizer/New_Systems/rnas/2bee

>  <Rbt.Executable>
rbdock ($Id: //depot/dev/client3/rdock/2013.1/src/exe/rbdock.cxx#4 $)

>  <Rbt.Library>
libRbt.so (2013.1, Build901 2013/11/27)

>  <Rbt.Parameter_File>
/export/apps/rDock/src/rDock_2013.1_src/data/scripts/dock_solv.prm

>  <Rbt.Receptor>
prm/pocket_docking_4.prm

>  <SCORE>
-5.11556

>  <SCORE.INTER>
4.70704

>  <SCORE.INTER.CONST>
1

>  <SCORE.INTER.POLAR>
0

>  <SCORE.INTER.ROT>
16

>  <SCORE.INTER.SOLV>
11.0247

>  <SCORE.INTER.VDW>
-14.8035

>  <SCORE.INTER.norm>
0.096062

>  <SCORE.INTRA>
-9.8226

>  <SCORE.INTRA.DIHEDRAL>
-23.2707

>  <SCORE.INTRA.DIHEDRAL.0>
36.0842

>  <SCORE.INTRA.POLAR>
0

>  <SCORE.INTRA.POLAR.0>
0

>  <SCORE.INTRA.REPUL>
0

>  <SCORE.INTRA.REPUL.0>
0

>  <SCORE.INTRA.SOLV>
2.4998

>  <SCORE.INTRA.SOLV.lig_0>
-126.444

>  <SCORE.INTRA.VDW>
0.56284

>  <SCORE.INTRA.VDW.0>
-7.40469

>  <SCORE.INTRA.norm>
-0.200461

>  <SCORE.RESTR>
0

>  <SCORE.RESTR.CAVITY>
0

>  <SCORE.RESTR.norm>
0

>  <SCORE.SYSTEM>
0

>  <SCORE.SYSTEM.CONST>
0

>  <SCORE.SYSTEM.DIHEDRAL>
0

>  <SCORE.SYSTEM.SOLV>
0

>  <SCORE.SYSTEM.norm>
0

>  <SCORE.heavy>
49

>  <SCORE.norm>
-0.104399

>  <RMSD>
8.322

$$$$
2bee_lig
 OpenBabel11021811423D
libRbt.so/2013.1/901 2013/11/27
 49 52  0  0  0  0  0  0  0  0999 V2000
   44.6684    5.4053   -8.5170 C   0  0  2  0  0  0  0  0  0  0  0  0
   45.3595    4.8300   -9.6186 O   0  0  0  0  0  0  0  0  0  0  0  0
   49.3878    3.0561   -9.6354 C   0  0  2  0  0  0  0  0  0  0  0  0
   50.4926    2.1022   -9.3450 N   0  0  0  0  0  0  0  0  0  0  0  0
   45.3824    1.6426  -11.3180 C   0  0  1  0  0  0  0  0  0  0  0  0
   40.9933   -0.1321  -11.2140 C   0  0  1  0  0  0  0  0  0  0  0  0
   47.6864   -0.2450   -7.7460 C   0  0  0  0  0  0  0  0  0  0  0  0
   43.1521    5.6406   -8.8836 C   0  0  2  0  0  0  0  0  0  0  0  0
   42.5500    4.3943   -9.3449 N   0  0  0  0  0  0  0  0  0  0  0  0
   48.7572    3.5689   -8.2616 C   0  0  0  0  0  0  0  0  0  0  0  0
   44.4300    0.7055  -10.6492 C   0  0  2  0  0  0  0  0  0  0  0  0
   45.0595   -0.5652  -10.2500 O   0  0  0  0  0  0  0  0  0  0  0  0
   39.5902    0.2630  -11.9253 C   0  0  2  0  0  0  0  0  0  0  0  0
   39.3931    1.7437  -11.7777 N   0  0  0  0  0  0  0  0  0  0  0  0
   47.4260    0.2855   -6.4609 C   0  0  0  0  0  0  0  0  0  0  0  0
   48.0072   -0.2989   -5.3377 N   0  0  0  0  0  0  0  0  0  0  0  0
   43.0492    6.7840   -9.9855 C   0  0  1  0  0  0  0  0  0  0  0  0
   41.6812    6.9919  -10.3056 O   0  0  0  0  0  0  0  0  0  0  0  0
   47.5287    4.6109   -8.5388 C   0  0  2  0  0  0  0  0  0  0  0  0
   46.9654    5.0810   -7.3189 N   0  0  0  0  0  0  0  0  0  0  0  0
   43.3573    0.7628  -11.7099 C   0  0  2  0  0  0  0  0  0  0  0  0
   41.9952    0.6689  -11.8852 O   0  0  0  0  0  0  0  0  0  0  0  0
   38.4334   -0.5260  -11.2143 C   0  0  1  0  0  0  0  0  0  0  0  0
   38.6908   -1.9593  -11.4170 O   0  0  0  0  0  0  0  0  0  0  0  0
   43.6982    8.0754   -9.4357 C   0  0  2  0  0  0  0  0  0  0  0  0
   43.6374    9.1668  -10.4413 O   0  0  0  0  0  0  0  0  0  0  0  0
   46.4116    3.9039   -9.4009 C   0  0  2  0  0  0  0  0  0  0  0  0
   44.2076    0.8684  -13.0712 C   0  0  2  0  0  0  0  0  0  0  0  0
   45.2185    1.6925  -12.7066 O   0  0  0  0  0  0  0  0  0  0  0  0
   38.4155   -0.1371   -9.6294 C   0  0  2  0  0  0  0  0  0  0  0  0
   38.1582    1.3081   -9.4381 O   0  0  0  0  0  0  0  0  0  0  0  0
   45.1998    7.8278   -9.0702 C   0  0  2  0  0  0  0  0  0  0  0  0
   45.1819    6.7506   -8.0988 O   0  0  0  0  0  0  0  0  0  0  0  0
   47.0811    3.4186  -10.7309 C   0  0  2  0  0  0  0  0  0  0  0  0
   46.0049    2.8330  -11.4228 O   0  0  0  0  0  0  0  0  0  0  0  0
   43.5218    1.5373  -14.3194 C   0  0  0  0  0  0  0  0  0  0  0  0
   43.1273    2.9048  -13.9825 O   0  0  0  0  0  0  0  0  0  0  0  0
   39.8185   -0.4925   -8.9628 C   0  0  1  0  0  0  0  0  0  0  0  0
   40.8787    0.2644   -9.7353 O   0  0  0  0  0  0  0  0  0  0  0  0
   45.7270    9.0975   -8.5358 C   0  0  0  0  0  0  0  0  0  0  0  0
   45.3526    9.2600   -7.2596 O   0  0  0  0  0  0  0  0  0  0  0  0
   48.2486    2.3838  -10.4336 C   0  0  1  0  0  0  0  0  0  0  0  0
   48.8426    1.9658  -11.6247 O   0  0  0  0  0  0  0  0  0  0  0  0
   45.6951   -1.5223  -11.1702 C   0  0  0  0  0  0  0  0  0  0  0  0
   39.6911   -0.0604   -7.4627 C   0  0  0  0  0  0  0  0  0  0  0  0
   40.9011   -0.2609   -6.7182 N   0  0  0  0  0  0  0  0  0  0  0  0
   46.3540   -2.6396  -10.3599 C   0  0  0  0  0  0  0  0  0  0  0  0
   47.4249   -2.0116   -9.5619 N   0  0  0  0  0  0  0  0  0  0  0  0
   47.1448   -1.7093   -8.0883 C   0  0  0  0  0  0  0  0  0  0  0  0
  1  2  1  6  0  0  0
  1  8  1  0  0  0  0
  1 33  1  0  0  0  0
  3  4  1  1  0  0  0
  3 10  1  0  0  0  0
  3 42  1  0  0  0  0
  5 11  1  0  0  0  0
  5 29  1  0  0  0  0
  5 35  1  1  0  0  0
  6 13  1  0  0  0  0
  6 39  1  0  0  0  0
  6 22  1  6  0  0  0
  7 15  1  0  0  0  0
  8  9  1  6  0  0  0
  8 17  1  0  0  0  0
 10 19  1  0  0  0  0
 11 12  1  6  0  0  0
 11 21  1  0  0  0  0
 12 44  1  0  0  0  0
 13 14  1  1  0  0  0
 13 23  1  0  0  0  0
 15 16  1  0  0  0  0
 17 18  1  1  0  0  0
 17 25  1  0  0  0  0
 19 20  1  1  0  0  0
 19 27  1  0  0  0  0
 21 22  1  6  0  0  0
 21 28  1  0  0  0  0
 23 24  1  1  0  0  0
 23 30  1  0  0  0  0
 25 26  1  6  0  0  0
 25 32  1  0  0  0  0
 27  2  1  6  0  0  0
 27 34  1  0  0  0  0
 28 29  1  0  0  0  0
 28 36  1  6  0  0  0
 30 31  1  6  0  0  0
 30 38  1  0  0  0  0
 32 33  1  0  0  0  0
 32 40  1  1  0  0  0
 34 35  1  6  0  0  0
 34 42  1  0  0  0  0
 36 37  1  0  0  0  0
 38 39  1  0  0  0  0
 38 45  1  1  0  0  0
 40 41  1  0  0  0  0
 42 43  1  6  0  0  0
 44 47  1  0  0  0  0
 45 46  1  0  0  0  0
 47 48  1  0  0  0  0
 48 49  1  0  0  0  0
 49  7  1  0  0  0  0
M  END
>  <CHROM.1>
-145.95146231,77.40079556,179.82824010,66.22892378,-60.40713394,174.22617359
-34.24689631,-59.08406305,58.76618271,79.28368065,-78.69966715,-177.52981473
-63.99157486,100.30819791,-135.83573068,174.58216621,44.26662156,2.45638786
-9.90274421,0.78306804,-0.18260240,0.10211511

>  <Name>
2bee_lig

>  <RI>
0

>  <Rbt.Current_Directory>
/home/itssahil/PROJECTS/Mol_Feturizer/New_Systems/rnas/2bee

>  <Rbt.Executable>
rbdock ($Id: //depot/dev/client3/rdock/2013.1/src/exe/rbdock.cxx#4 $)

>  <Rbt.Library>
libRbt.so (2013.1, Build901 2013/11/27)

>  <Rbt.Parameter_File>
/export/apps/rDock/src/rDock_2013.1_src/data/scripts/dock_solv.prm

>  <Rbt.Receptor>
prm/pocket_docking_8.prm

>  <SCORE>
-10.7762

>  <SCORE.INTER>
-2.31193

>  <SCORE.INTER.CONST>
1

>  <SCORE.INTER.POLAR>
-0.938083

>  <SCORE.INTER.ROT>
16

>  <SCORE.INTER.SOLV>
12.4525

>  <SCORE.INTER.VDW>
-16.8318

>  <SCORE.INTER.norm>
-0.0471822

>  <SCORE.INTRA>
-8.46638

>  <SCORE.INTRA.DIHEDRAL>
-20.3696

>  <SCORE.INTRA.DIHEDRAL.0>
36.0842

>  <SCORE.INTRA.POLAR>
0

>  <SCORE.INTRA.POLAR.0>
0

>  <SCORE.INTRA.REPUL>
0

>  <SCORE.INTRA.REPUL.0>
0

>  <SCORE.INTRA.SOLV>
-0.385804

>  <SCORE.INTRA.SOLV.lig_0>
-126.444

>  <SCORE.INTRA.VDW>
1.9113

>  <SCORE.INTRA.VDW.0>
-7.40469

>  <SCORE.INTRA.norm>
-0.172783

>  <SCORE.RESTR>
0.00208414

>  <SCORE.RESTR.CAVITY>
0.00208414

>  <SCORE.RESTR.norm>
4.25334e-05

>  <SCORE.SYSTEM>
0

>  <SCORE.SYSTEM.CONST>
0

>  <SCORE.SYSTEM.DIHEDRAL>
0

>  <SCORE.SYSTEM.SOLV>
0

>  <SCORE.SYSTEM.norm>
0

>  <SCORE.heavy>
49

>  <SCORE.norm>
-0.219923

>  <RMSD>
8.338

$$$$
2bee_lig
 OpenBabel11021811423D
libRbt.so/2013.1/901 2013/11/27
 49 52  0  0  0  0  0  0  0  0999 V2000
   42.3174    7.6174   -2.4016 C   0  0  2  0  0  0  0  0  0  0  0  0
   42.4705    7.8358   -3.7984 O   0  0  0  0  0  0  0  0  0  0  0  0
   41.9474    5.0819   -7.1920 C   0  0  2  0  0  0  0  0  0  0  0  0
   42.2229    3.9664   -8.1378 N   0  0  0  0  0  0  0  0  0  0  0  0
   40.5392    4.4141   -2.8358 C   0  0  1  0  0  0  0  0  0  0  0  0
   37.8135    0.7218   -4.0121 C   0  0  1  0  0  0  0  0  0  0  0  0
   39.1456    6.2393    3.1361 C   0  0  0  0  0  0  0  0  0  0  0  0
   40.8957    8.1062   -1.9232 C   0  0  2  0  0  0  0  0  0  0  0  0
   39.8531    7.4648   -2.7170 N   0  0  0  0  0  0  0  0  0  0  0  0
   43.1972    6.0745   -7.1668 C   0  0  0  0  0  0  0  0  0  0  0  0
   39.2366    3.7100   -2.6355 C   0  0  2  0  0  0  0  0  0  0  0  0
   38.7915    3.7141   -1.2312 O   0  0  0  0  0  0  0  0  0  0  0  0
   37.8709   -0.1410   -2.6398 C   0  0  2  0  0  0  0  0  0  0  0  0
   39.0529   -1.0629   -2.7177 N   0  0  0  0  0  0  0  0  0  0  0  0
   39.0230    7.5309    2.5725 C   0  0  0  0  0  0  0  0  0  0  0  0
   40.0889    8.4248    2.6466 N   0  0  0  0  0  0  0  0  0  0  0  0
   40.8216    9.6921   -2.0306 C   0  0  1  0  0  0  0  0  0  0  0  0
   39.5407   10.1230   -1.5937 O   0  0  0  0  0  0  0  0  0  0  0  0
   42.9385    7.3089   -6.1272 C   0  0  2  0  0  0  0  0  0  0  0  0
   44.0443    8.2050   -6.1043 N   0  0  0  0  0  0  0  0  0  0  0  0
   39.6191    2.4335   -3.3448 C   0  0  2  0  0  0  0  0  0  0  0  0
   39.0904    1.4002   -4.0849 O   0  0  0  0  0  0  0  0  0  0  0  0
   36.5357   -0.9574   -2.5103 C   0  0  1  0  0  0  0  0  0  0  0  0
   35.4345    0.0129   -2.4249 O   0  0  0  0  0  0  0  0  0  0  0  0
   41.9452   10.3101   -1.1663 C   0  0  2  0  0  0  0  0  0  0  0  0
   41.9218   11.7928   -1.2506 O   0  0  0  0  0  0  0  0  0  0  0  0
   42.6851    6.7423   -4.6760 C   0  0  2  0  0  0  0  0  0  0  0  0
   41.1698    2.2597   -2.9542 C   0  0  2  0  0  0  0  0  0  0  0  0
   41.6161    3.5373   -3.0053 O   0  0  0  0  0  0  0  0  0  0  0  0
   36.3770   -1.9335   -3.8086 C   0  0  2  0  0  0  0  0  0  0  0  0
   37.4923   -2.9039   -3.8854 O   0  0  0  0  0  0  0  0  0  0  0  0
   43.3495    9.8132   -1.6466 C   0  0  2  0  0  0  0  0  0  0  0  0
   43.2954    8.3670   -1.5472 O   0  0  0  0  0  0  0  0  0  0  0  0
   41.4558    5.7756   -4.7569 C   0  0  2  0  0  0  0  0  0  0  0  0
   41.3066    5.3530   -3.4231 O   0  0  0  0  0  0  0  0  0  0  0  0
   42.0878    1.4326   -3.9283 C   0  0  0  0  0  0  0  0  0  0  0  0
   43.4039    1.2489   -3.3170 O   0  0  0  0  0  0  0  0  0  0  0  0
   36.3684   -1.0678   -5.1464 C   0  0  1  0  0  0  0  0  0  0  0  0
   37.6593   -0.2762   -5.1683 O   0  0  0  0  0  0  0  0  0  0  0  0
   44.3510   10.4302   -0.7566 C   0  0  0  0  0  0  0  0  0  0  0  0
   44.2091    9.9745    0.4953 O   0  0  0  0  0  0  0  0  0  0  0  0
   41.7468    4.5694   -5.7484 C   0  0  1  0  0  0  0  0  0  0  0  0
   40.6418    3.7206   -5.8187 O   0  0  0  0  0  0  0  0  0  0  0  0
   39.4737    3.0250   -0.1236 C   0  0  0  0  0  0  0  0  0  0  0  0
   36.2341   -2.1027   -6.3143 C   0  0  0  0  0  0  0  0  0  0  0  0
   36.1432   -1.4814   -7.6044 N   0  0  0  0  0  0  0  0  0  0  0  0
   40.6225    3.8984    0.3826 C   0  0  0  0  0  0  0  0  0  0  0  0
   40.0092    5.0644    1.0478 N   0  0  0  0  0  0  0  0  0  0  0  0
   40.2575    5.2544    2.5457 C   0  0  0  0  0  0  0  0  0  0  0  0
  1  2  1  6  0  0  0
  1  8  1  0  0  0  0
  1 33  1  0  0  0  0
  3  4  1  6  0  0  0
  3 10  1  0  0  0  0
  3 42  1  0  0  0  0
  5 11  1  0  0  0  0
  5 29  1  0  0  0  0
  5 35  1  6  0  0  0
  6 13  1  0  0  0  0
  6 39  1  0  0  0  0
  6 22  1  6  0  0  0
  7 15  1  0  0  0  0
  8  9  1  6  0  0  0
  8 17  1  0  0  0  0
 10 19  1  0  0  0  0
 11 12  1  1  0  0  0
 11 21  1  0  0  0  0
 12 44  1  0  0  0  0
 13 14  1  6  0  0  0
 13 23  1  0  0  0  0
 15 16  1  0  0  0  0
 17 18  1  1  0  0  0
 17 25  1  0  0  0  0
 19 20  1  1  0  0  0
 19 27  1  0  0  0  0
 21 22  1  1  0  0  0
 21 28  1  0  0  0  0
 23 24  1  6  0  0  0
 23 30  1  0  0  0  0
 25 26  1  6  0  0  0
 25 32  1  0  0  0  0
 27  2  1  1  0  0  0
 27 34  1  0  0  0  0
 28 29  1  0  0  0  0
 28 36  1  6  0  0  0
 30 31  1  6  0  0  0
 30 38  1  0  0  0  0
 32 33  1  0  0  0  0
 32 40  1  1  0  0  0
 34 35  1  1  0  0  0
 34 42  1  0  0  0  0
 36 37  1  0  0  0  0
 38 39  1  0  0  0  0
 38 45  1  6  0  0  0
 40 41  1  0  0  0  0
 42 43  1  6  0  0  0
 44 47  1  0  0  0  0
 45 46  1  0  0  0  0
 47 48  1  0  0  0  0
 48 49  1  0  0  0  0
 49  7  1  0  0  0  0
M  END
>  <CHROM.1>
-118.59154870,-44.98228404,-70.42520619,-62.31011931,-65.92818600,82.56761714
-35.15704657,-175.19669710,-172.88692982,65.22672519,-171.45013126,177.08175515
69.38438335,116.81457343,-161.12233991,-57.62631886,40.38058108,4.50853275
-2.85508527,-0.80044191,-0.94700594,-2.16741965

>  <Name>
2bee_lig

>  <RI>
3.46266e+07

>  <Rbt.Current_Directory>
/home/itssahil/PROJECTS/Mol_Feturizer/New_Systems/rnas/2bee

>  <Rbt.Executable>
rbdock ($Id: //depot/dev/client3/rdock/2013.1/src/exe/rbdock.cxx#4 $)

>  <Rbt.Library>
libRbt.so (2013.1, Build901 2013/11/27)

>  <Rbt.Parameter_File>
/export/apps/rDock/src/rDock_2013.1_src/data/scripts/dock_solv.prm

>  <Rbt.Receptor>
prm/pocket_docking_4.prm

>  <SCORE>
-7.69214

>  <SCORE.INTER>
-0.840058

>  <SCORE.INTER.CONST>
1

>  <SCORE.INTER.POLAR>
-0.588636

>  <SCORE.INTER.ROT>
16

>  <SCORE.INTER.SOLV>
12.6223

>  <SCORE.INTER.VDW>
-17.072

>  <SCORE.INTER.norm>
-0.017144

>  <SCORE.INTRA>
-6.8753

>  <SCORE.INTRA.DIHEDRAL>
-17.4707

>  <SCORE.INTRA.DIHEDRAL.0>
36.0842

>  <SCORE.INTRA.POLAR>
0

>  <SCORE.INTRA.POLAR.0>
0

>  <SCORE.INTRA.REPUL>
0

>  <SCORE.INTRA.REPUL.0>
0

>  <SCORE.INTRA.SOLV>
1.87396

>  <SCORE.INTRA.SOLV.lig_0>
-126.444

>  <SCORE.INTRA.VDW>
0.923085

>  <SCORE.INTRA.VDW.0>
-7.40469

>  <SCORE.INTRA.norm>
-0.140312

>  <SCORE.RESTR>
0.0232191

>  <SCORE.RESTR.CAVITY>
0.0232191

>  <SCORE.RESTR.norm>
0.00047386

>  <SCORE.SYSTEM>
0

>  <SCORE.SYSTEM.CONST>
0

>  <SCORE.SYSTEM.DIHEDRAL>
0

>  <SCORE.SYSTEM.SOLV>
0

>  <SCORE.SYSTEM.norm>
0

>  <SCORE.heavy>
49

>  <SCORE.norm>
-0.156982

>  <RMSD>
8.344

$$$$
2bee_lig
 OpenBabel11021811423D
libRbt.so/2013.1/901 2013/11/27
 49 52  0  0  0  0  0  0  0  0999 V2000
   47.3478    2.2698   -7.2915 C   0  0  2  0  0  0  0  0  0  0  0  0
   46.8057    1.5748   -8.4074 O   0  0  0  0  0  0  0  0  0  0  0  0
   43.0622    2.0248  -10.6786 C   0  0  2  0  0  0  0  0  0  0  0  0
   41.6037    2.0387  -10.9743 N   0  0  0  0  0  0  0  0  0  0  0  0
   45.1640    5.2576   -8.1157 C   0  0  1  0  0  0  0  0  0  0  0  0
   43.0650    7.7367   -4.8005 C   0  0  1  0  0  0  0  0  0  0  0  0
   43.9402   11.1551  -12.6891 C   0  0  0  0  0  0  0  0  0  0  0  0
   48.9194    2.1341   -7.2722 C   0  0  2  0  0  0  0  0  0  0  0  0
   49.4755    2.5803   -8.5451 N   0  0  0  0  0  0  0  0  0  0  0  0
   43.4727    0.5908  -10.1102 C   0  0  0  0  0  0  0  0  0  0  0  0
   44.2801    6.4328   -7.8513 C   0  0  2  0  0  0  0  0  0  0  0  0
   44.3661    7.4637   -8.9002 O   0  0  0  0  0  0  0  0  0  0  0  0
   43.2613    8.0828   -3.2280 C   0  0  2  0  0  0  0  0  0  0  0  0
   43.6461    6.8183   -2.5166 N   0  0  0  0  0  0  0  0  0  0  0  0
   43.6572   12.4706  -13.1255 C   0  0  0  0  0  0  0  0  0  0  0  0
   42.7628   13.2625  -12.4088 N   0  0  0  0  0  0  0  0  0  0  0  0
   49.3129    0.6247   -6.9578 C   0  0  1  0  0  0  0  0  0  0  0  0
   50.7286    0.5133   -6.9379 O   0  0  0  0  0  0  0  0  0  0  0  0
   45.0684    0.5391   -9.7598 C   0  0  2  0  0  0  0  0  0  0  0  0
   45.4462   -0.7392   -9.2604 N   0  0  0  0  0  0  0  0  0  0  0  0
   44.7533    6.6915   -6.4413 C   0  0  2  0  0  0  0  0  0  0  0  0
   44.3321    7.1800   -5.2252 O   0  0  0  0  0  0  0  0  0  0  0  0
   41.9051    8.6446   -2.6701 C   0  0  1  0  0  0  0  0  0  0  0  0
   41.6083    9.8837   -3.4039 O   0  0  0  0  0  0  0  0  0  0  0  0
   48.6997    0.2153   -5.5985 C   0  0  2  0  0  0  0  0  0  0  0  0
   49.0306   -1.1956   -5.2730 O   0  0  0  0  0  0  0  0  0  0  0  0
   45.4185    1.6494   -8.6941 C   0  0  2  0  0  0  0  0  0  0  0  0
   46.3211    6.3408   -6.5217 C   0  0  2  0  0  0  0  0  0  0  0  0
   46.3242    5.2570   -7.3337 O   0  0  0  0  0  0  0  0  0  0  0  0
   40.7351    7.5265   -2.8812 C   0  0  2  0  0  0  0  0  0  0  0  0
   41.0460    6.2832   -2.1402 O   0  0  0  0  0  0  0  0  0  0  0  0
   47.1415    0.3598   -5.6283 C   0  0  2  0  0  0  0  0  0  0  0  0
   46.8950    1.7504   -5.9597 O   0  0  0  0  0  0  0  0  0  0  0  0
   44.9945    3.0308   -9.2978 C   0  0  2  0  0  0  0  0  0  0  0  0
   45.3685    3.9370   -8.2885 O   0  0  0  0  0  0  0  0  0  0  0  0
   47.0476    5.9013   -5.1970 C   0  0  0  0  0  0  0  0  0  0  0  0
   48.4581    5.6379   -5.4807 O   0  0  0  0  0  0  0  0  0  0  0  0
   40.5916    7.1698   -4.4276 C   0  0  1  0  0  0  0  0  0  0  0  0
   41.9483    6.6877   -4.8972 O   0  0  0  0  0  0  0  0  0  0  0  0
   46.6487   -0.0263   -4.2927 C   0  0  0  0  0  0  0  0  0  0  0  0
   47.0442    0.8634   -3.3722 O   0  0  0  0  0  0  0  0  0  0  0  0
   43.4353    3.0641   -9.5981 C   0  0  1  0  0  0  0  0  0  0  0  0
   43.0715    4.2956  -10.1434 O   0  0  0  0  0  0  0  0  0  0  0  0
   43.8747    7.3128  -10.2796 C   0  0  0  0  0  0  0  0  0  0  0  0
   39.4662    6.0832   -4.5043 C   0  0  0  0  0  0  0  0  0  0  0  0
   39.9121    4.7856   -4.0846 N   0  0  0  0  0  0  0  0  0  0  0  0
   43.4842    8.6856  -10.8290 C   0  0  0  0  0  0  0  0  0  0  0  0
   44.7322    9.4626  -10.9585 N   0  0  0  0  0  0  0  0  0  0  0  0
   44.6232   10.9593  -11.2573 C   0  0  0  0  0  0  0  0  0  0  0  0
  1  2  1  6  0  0  0
  1  8  1  0  0  0  0
  1 33  1  0  0  0  0
  3  4  1  1  0  0  0
  3 10  1  0  0  0  0
  3 42  1  0  0  0  0
  5 11  1  0  0  0  0
  5 29  1  0  0  0  0
  5 35  1  1  0  0  0
  6 13  1  0  0  0  0
  6 39  1  0  0  0  0
  6 22  1  1  0  0  0
  7 15  1  0  0  0  0
  8  9  1  6  0  0  0
  8 17  1  0  0  0  0
 10 19  1  0  0  0  0
 11 12  1  6  0  0  0
 11 21  1  0  0  0  0
 12 44  1  0  0  0  0
 13 14  1  1  0  0  0
 13 23  1  0  0  0  0
 15 16  1  0  0  0  0
 17 18  1  1  0  0  0
 17 25  1  0  0  0  0
 19 20  1  1  0  0  0
 19 27  1  0  0  0  0
 21 22  1  6  0  0  0
 21 28  1  0  0  0  0
 23 24  1  6  0  0  0
 23 30  1  0  0  0  0
 25 26  1  6  0  0  0
 25 32  1  0  0  0  0
 27  2  1  6  0  0  0
 27 34  1  0  0  0  0
 28 29  1  0  0  0  0
 28 36  1  1  0  0  0
 30 31  1  1  0  0  0
 30 38  1  0  0  0  0
 32 33  1  0  0  0  0
 32 40  1  1  0  0  0
 34 35  1  1  0  0  0
 34 42  1  0  0  0  0
 36 37  1  0  0  0  0
 38 39  1  0  0  0  0
 38 45  1  1  0  0  0
 40 41  1  0  0  0  0
 42 43  1  6  0  0  0
 44 47  1  0  0  0  0
 45 46  1  0  0  0  0
 47 48  1  0  0  0  0
 48 49  1  0  0  0  0
 49  7  1  0  0  0  0
M  END
>  <CHROM.1>
-174.75067207,68.24918853,178.99277084,-62.34892307,68.69498537,151.62456099
-1.34095167,-167.25687519,-179.64192800,67.19219172,-172.24503328,-76.06601106
67.28391211,-169.59624717,-63.52342712,175.68940897,44.80654532,4.91870523
-7.20476998,-0.52269321,0.97741346,-1.10908980

>  <Name>
2bee_lig

>  <RI>
0

>  <Rbt.Current_Directory>
/home/itssahil/PROJECTS/Mol_Feturizer/New_Systems/rnas/2bee

>  <Rbt.Executable>
rbdock ($Id: //depot/dev/client3/rdock/2013.1/src/exe/rbdock.cxx#4 $)

>  <Rbt.Library>
libRbt.so (2013.1, Build901 2013/11/27)

>  <Rbt.Parameter_File>
/export/apps/rDock/src/rDock_2013.1_src/data/scripts/dock_solv.prm

>  <Rbt.Receptor>
prm/pocket_docking_7.prm

>  <SCORE>
-21.3064

>  <SCORE.INTER>
-9.22331

>  <SCORE.INTER.CONST>
1

>  <SCORE.INTER.POLAR>
-1.32969

>  <SCORE.INTER.ROT>
16

>  <SCORE.INTER.SOLV>
14.2393

>  <SCORE.INTER.VDW>
-20.7296

>  <SCORE.INTER.norm>
-0.188231

>  <SCORE.INTRA>
-12.0831

>  <SCORE.INTRA.DIHEDRAL>
-25.752

>  <SCORE.INTRA.DIHEDRAL.0>
36.0842

>  <SCORE.INTRA.POLAR>
0

>  <SCORE.INTRA.POLAR.0>
0

>  <SCORE.INTRA.REPUL>
0

>  <SCORE.INTRA.REPUL.0>
0

>  <SCORE.INTRA.SOLV>
-2.06906

>  <SCORE.INTRA.SOLV.lig_0>
-126.444

>  <SCORE.INTRA.VDW>
1.82745

>  <SCORE.INTRA.VDW.0>
-7.40469

>  <SCORE.INTRA.norm>
-0.246593

>  <SCORE.RESTR>
0

>  <SCORE.RESTR.CAVITY>
0

>  <SCORE.RESTR.norm>
0

>  <SCORE.SYSTEM>
0

>  <SCORE.SYSTEM.CONST>
0

>  <SCORE.SYSTEM.DIHEDRAL>
0

>  <SCORE.SYSTEM.SOLV>
0

>  <SCORE.SYSTEM.norm>
0

>  <SCORE.heavy>
49

>  <SCORE.norm>
-0.434824

>  <RMSD>
8.361

$$$$
2bee_lig
 OpenBabel11021811423D
libRbt.so/2013.1/901 2013/11/27
 49 52  0  0  0  0  0  0  0  0999 V2000
   46.8046   11.0188  -10.7062 C   0  0  2  0  0  0  0  0  0  0  0  0
   46.3705   11.8360  -11.7859 O   0  0  0  0  0  0  0  0  0  0  0  0
   42.5605   12.1012  -13.9741 C   0  0  2  0  0  0  0  0  0  0  0  0
   41.4240   11.7029  -14.8484 N   0  0  0  0  0  0  0  0  0  0  0  0
   43.9031    9.4734  -10.5006 C   0  0  1  0  0  0  0  0  0  0  0  0
   46.8388    6.9483   -7.9549 C   0  0  1  0  0  0  0  0  0  0  0  0
   43.0052    5.2443   -6.2213 C   0  0  0  0  0  0  0  0  0  0  0  0
   46.7978   11.8407   -9.3596 C   0  0  2  0  0  0  0  0  0  0  0  0
   45.4795   12.4246   -9.1369 N   0  0  0  0  0  0  0  0  0  0  0  0
   43.9277   11.9556  -14.7850 C   0  0  0  0  0  0  0  0  0  0  0  0
   44.2032    8.0498  -10.8410 C   0  0  2  0  0  0  0  0  0  0  0  0
   42.9938    7.2635  -11.1399 O   0  0  0  0  0  0  0  0  0  0  0  0
   47.9371    5.7682   -8.1341 C   0  0  2  0  0  0  0  0  0  0  0  0
   47.2084    4.5004   -8.4728 N   0  0  0  0  0  0  0  0  0  0  0  0
   42.4821    6.5466   -6.0446 C   0  0  0  0  0  0  0  0  0  0  0  0
   42.1781    7.0049   -4.7646 N   0  0  0  0  0  0  0  0  0  0  0  0
   47.9305   12.9567   -9.4193 C   0  0  1  0  0  0  0  0  0  0  0  0
   47.9199   13.6879   -8.2018 O   0  0  0  0  0  0  0  0  0  0  0  0
   45.2040   12.3721  -13.8527 C   0  0  2  0  0  0  0  0  0  0  0  0
   46.4277   12.2542  -14.5703 N   0  0  0  0  0  0  0  0  0  0  0  0
   45.0616    7.7604   -9.6334 C   0  0  2  0  0  0  0  0  0  0  0  0
   46.1248    6.9934   -9.2135 O   0  0  0  0  0  0  0  0  0  0  0  0
   48.7249    5.6138   -6.7844 C   0  0  1  0  0  0  0  0  0  0  0  0
   49.4190    6.8854   -6.5335 O   0  0  0  0  0  0  0  0  0  0  0  0
   49.2992   12.2756   -9.6516 C   0  0  2  0  0  0  0  0  0  0  0  0
   50.3856   13.2853   -9.7295 O   0  0  0  0  0  0  0  0  0  0  0  0
   45.2513   11.4546  -12.5694 C   0  0  2  0  0  0  0  0  0  0  0  0
   44.3408    8.6088   -8.4723 C   0  0  2  0  0  0  0  0  0  0  0  0
   43.9878    9.7390   -9.1296 O   0  0  0  0  0  0  0  0  0  0  0  0
   47.6732    5.2572   -5.5885 C   0  0  2  0  0  0  0  0  0  0  0  0
   46.9789    3.9769   -5.8533 O   0  0  0  0  0  0  0  0  0  0  0  0
   49.2915   11.4589  -10.9867 C   0  0  2  0  0  0  0  0  0  0  0  0
   48.2070   10.5061  -10.8432 O   0  0  0  0  0  0  0  0  0  0  0  0
   43.8905   11.6315  -11.8147 C   0  0  2  0  0  0  0  0  0  0  0  0
   44.0496   10.7992  -10.6914 O   0  0  0  0  0  0  0  0  0  0  0  0
   45.2115    9.0666   -7.2442 C   0  0  0  0  0  0  0  0  0  0  0  0
   45.1406   10.5217   -7.1137 O   0  0  0  0  0  0  0  0  0  0  0  0
   46.5783    6.4080   -5.4613 C   0  0  1  0  0  0  0  0  0  0  0  0
   45.9041    6.5272   -6.8122 O   0  0  0  0  0  0  0  0  0  0  0  0
   50.6193   10.8291  -11.1129 C   0  0  0  0  0  0  0  0  0  0  0  0
   50.5553    9.7576  -11.9149 O   0  0  0  0  0  0  0  0  0  0  0  0
   42.6715   11.1895  -12.7318 C   0  0  1  0  0  0  0  0  0  0  0  0
   41.4651   11.3599  -12.0521 O   0  0  0  0  0  0  0  0  0  0  0  0
   41.8822    7.0290  -10.2037 C   0  0  0  0  0  0  0  0  0  0  0  0
   45.6218    5.9508   -4.3085 C   0  0  0  0  0  0  0  0  0  0  0  0
   44.8676    7.0335   -3.7450 N   0  0  0  0  0  0  0  0  0  0  0  0
   42.4458    6.7767   -8.8045 C   0  0  0  0  0  0  0  0  0  0  0  0
   42.8590    5.3606   -8.7614 N   0  0  0  0  0  0  0  0  0  0  0  0
   43.7405    4.9007   -7.5983 C   0  0  0  0  0  0  0  0  0  0  0  0
  1  2  1  6  0  0  0
  1  8  1  0  0  0  0
  1 33  1  0  0  0  0
  3  4  1  6  0  0  0
  3 10  1  0  0  0  0
  3 42  1  0  0  0  0
  5 11  1  0  0  0  0
  5 29  1  0  0  0  0
  5 35  1  6  0  0  0
  6 13  1  0  0  0  0
  6 39  1  0  0  0  0
  6 22  1  6  0  0  0
  7 15  1  0  0  0  0
  8  9  1  6  0  0  0
  8 17  1  0  0  0  0
 10 19  1  0  0  0  0
 11 12  1  1  0  0  0
 11 21  1  0  0  0  0
 12 44  1  0  0  0  0
 13 14  1  1  0  0  0
 13 23  1  0  0  0  0
 15 16  1  0  0  0  0
 17 18  1  1  0  0  0
 17 25  1  0  0  0  0
 19 20  1  6  0  0  0
 19 27  1  0  0  0  0
 21 22  1  1  0  0  0
 21 28  1  0  0  0  0
 23 24  1  1  0  0  0
 23 30  1  0  0  0  0
 25 26  1  6  0  0  0
 25 32  1  0  0  0  0
 27  2  1  1  0  0  0
 27 34  1  0  0  0  0
 28 29  1  0  0  0  0
 28 36  1  1  0  0  0
 30 31  1  6  0  0  0
 30 38  1  0  0  0  0
 32 33  1  0  0  0  0
 32 40  1  1  0  0  0
 34 35  1  1  0  0  0
 34 42  1  0  0  0  0
 36 37  1  0  0  0  0
 38 39  1  0  0  0  0
 38 45  1  1  0  0  0
 40 41  1  0  0  0  0
 42 43  1  1  0  0  0
 44 47  1  0  0  0  0
 45 46  1  0  0  0  0
 47 48  1  0  0  0  0
 48 49  1  0  0  0  0
 49  7  1  0  0  0  0
M  END
>  <CHROM.1>
-122.31825335,54.53201005,177.64069890,-162.06810349,-60.62794997,-40.13023895
176.19948034,-168.03696661,123.10857731,157.20438209,-82.06629276,159.88327125
-81.40959353,166.60903535,56.23093236,-48.65518233,45.60814012,9.06273558
-9.37350715,-1.55464468,0.29445700,2.35895934

>  <Name>
2bee_lig

>  <RI>
0

>  <Rbt.Current_Directory>
/home/itssahil/PROJECTS/Mol_Feturizer/New_Systems/rnas/2bee

>  <Rbt.Executable>
rbdock ($Id: //depot/dev/client3/rdock/2013.1/src/exe/rbdock.cxx#4 $)

>  <Rbt.Library>
libRbt.so (2013.1, Build901 2013/11/27)

>  <Rbt.Parameter_File>
/export/apps/rDock/src/rDock_2013.1_src/data/scripts/dock_solv.prm

>  <Rbt.Receptor>
prm/blind_docking_60.prm

>  <SCORE>
73.6031

>  <SCORE.INTER>
45.9063

>  <SCORE.INTER.CONST>
1

>  <SCORE.INTER.POLAR>
-0.208003

>  <SCORE.INTER.ROT>
16

>  <SCORE.INTER.SOLV>
36.9626

>  <SCORE.INTER.VDW>
4.70998

>  <SCORE.INTER.norm>
0.936863

>  <SCORE.INTRA>
12.2814

>  <SCORE.INTRA.DIHEDRAL>
-6.92065

>  <SCORE.INTRA.DIHEDRAL.0>
36.0842

>  <SCORE.INTRA.POLAR>
0

>  <SCORE.INTRA.POLAR.0>
0

>  <SCORE.INTRA.REPUL>
0

>  <SCORE.INTRA.REPUL.0>
0

>  <SCORE.INTRA.SOLV>
8.9543

>  <SCORE.INTRA.SOLV.lig_0>
-126.444

>  <SCORE.INTRA.VDW>
11.2646

>  <SCORE.INTRA.VDW.0>
-7.40469

>  <SCORE.INTRA.norm>
0.250641

>  <SCORE.RESTR>
15.4154

>  <SCORE.RESTR.CAVITY>
15.4154

>  <SCORE.RESTR.norm>
0.3146

>  <SCORE.SYSTEM>
0

>  <SCORE.SYSTEM.CONST>
0

>  <SCORE.SYSTEM.DIHEDRAL>
0

>  <SCORE.SYSTEM.SOLV>
0

>  <SCORE.SYSTEM.norm>
0

>  <SCORE.heavy>
49

>  <SCORE.norm>
1.5021

>  <RMSD>
8.372

$$$$
2bee_lig
 OpenBabel11021811423D
libRbt.so/2013.1/901 2013/11/27
 49 52  0  0  0  0  0  0  0  0999 V2000
   40.8924    5.3931   -0.1371 C   0  0  2  0  0  0  0  0  0  0  0  0
   42.1914    5.9464    0.0321 O   0  0  0  0  0  0  0  0  0  0  0  0
   42.9416    8.1754   -3.6885 C   0  0  2  0  0  0  0  0  0  0  0  0
   43.6907    8.8071   -4.8086 N   0  0  0  0  0  0  0  0  0  0  0  0
   42.5812    3.6177   -3.2808 C   0  0  1  0  0  0  0  0  0  0  0  0
   42.4897    4.8917   -7.5575 C   0  0  1  0  0  0  0  0  0  0  0  0
   38.3610   -2.9459   -5.9248 C   0  0  0  0  0  0  0  0  0  0  0  0
   39.8372    6.5387   -0.3879 C   0  0  2  0  0  0  0  0  0  0  0  0
   40.2549    7.3651   -1.5154 N   0  0  0  0  0  0  0  0  0  0  0  0
   43.4797    8.7524   -2.3009 C   0  0  0  0  0  0  0  0  0  0  0  0
   41.9809    2.8325   -4.4014 C   0  0  2  0  0  0  0  0  0  0  0  0
   41.9184    1.3875   -4.1212 O   0  0  0  0  0  0  0  0  0  0  0  0
   42.5515    4.4812   -9.1256 C   0  0  2  0  0  0  0  0  0  0  0  0
   43.9386    3.9920   -9.4253 N   0  0  0  0  0  0  0  0  0  0  0  0
   37.2929   -2.7311   -5.0227 C   0  0  0  0  0  0  0  0  0  0  0  0
   36.5293   -1.5697   -5.1148 N   0  0  0  0  0  0  0  0  0  0  0  0
   39.6707    7.3998    0.9398 C   0  0  1  0  0  0  0  0  0  0  0  0
   38.7161    8.4250    0.7060 O   0  0  0  0  0  0  0  0  0  0  0  0
   42.6894    8.0718   -1.0425 C   0  0  2  0  0  0  0  0  0  0  0  0
   43.1561    8.5868    0.1998 N   0  0  0  0  0  0  0  0  0  0  0  0
   42.8576    3.3934   -5.4948 C   0  0  2  0  0  0  0  0  0  0  0  0
   42.8632    3.6919   -6.8386 O   0  0  0  0  0  0  0  0  0  0  0  0
   42.2112    5.7507   -9.9850 C   0  0  1  0  0  0  0  0  0  0  0  0
   40.8391    6.1556   -9.6456 O   0  0  0  0  0  0  0  0  0  0  0  0
   39.2235    6.4705    2.0920 C   0  0  2  0  0  0  0  0  0  0  0  0
   39.0709    7.2333    3.3572 O   0  0  0  0  0  0  0  0  0  0  0  0
   42.8824    6.5056   -1.0732 C   0  0  2  0  0  0  0  0  0  0  0  0
   44.2758    3.5735   -4.7572 C   0  0  2  0  0  0  0  0  0  0  0  0
   43.9002    4.0110   -3.5318 O   0  0  0  0  0  0  0  0  0  0  0  0
   43.2868    6.9305   -9.6465 C   0  0  2  0  0  0  0  0  0  0  0  0
   44.6642    6.5106   -9.9899 O   0  0  0  0  0  0  0  0  0  0  0  0
   40.2751    5.3352    2.3271 C   0  0  2  0  0  0  0  0  0  0  0  0
   40.3787    4.6440    1.0560 O   0  0  0  0  0  0  0  0  0  0  0  0
   42.3439    5.9926   -2.4514 C   0  0  2  0  0  0  0  0  0  0  0  0
   42.5405    4.6022   -2.3618 O   0  0  0  0  0  0  0  0  0  0  0  0
   45.2707    4.6523   -5.3247 C   0  0  0  0  0  0  0  0  0  0  0  0
   46.5305    4.5889   -4.5842 O   0  0  0  0  0  0  0  0  0  0  0  0
   43.2397    7.2850   -8.0936 C   0  0  1  0  0  0  0  0  0  0  0  0
   43.5258    6.0033   -7.3393 O   0  0  0  0  0  0  0  0  0  0  0  0
   39.7576    4.4899    3.4196 C   0  0  0  0  0  0  0  0  0  0  0  0
   40.2950    3.2641    3.3580 O   0  0  0  0  0  0  0  0  0  0  0  0
   43.1503    6.6450   -3.6541 C   0  0  1  0  0  0  0  0  0  0  0  0
   42.6559    6.1873   -4.8757 O   0  0  0  0  0  0  0  0  0  0  0  0
   41.0235    0.4315   -4.7936 C   0  0  0  0  0  0  0  0  0  0  0  0
   44.3176    8.4022   -7.8860 C   0  0  0  0  0  0  0  0  0  0  0  0
   44.0153    9.6104   -8.5983 N   0  0  0  0  0  0  0  0  0  0  0  0
   41.3907   -0.9901   -4.3654 C   0  0  0  0  0  0  0  0  0  0  0  0
   40.1806   -1.8150   -4.5474 N   0  0  0  0  0  0  0  0  0  0  0  0
   39.5628   -1.8922   -5.9451 C   0  0  0  0  0  0  0  0  0  0  0  0
  1  2  1  1  0  0  0
  1  8  1  0  0  0  0
  1 33  1  0  0  0  0
  3  4  1  6  0  0  0
  3 10  1  0  0  0  0
  3 42  1  0  0  0  0
  5 11  1  0  0  0  0
  5 29  1  0  0  0  0
  5 35  1  6  0  0  0
  6 13  1  0  0  0  0
  6 39  1  0  0  0  0
  6 22  1  1  0  0  0
  7 15  1  0  0  0  0
  8  9  1  6  0  0  0
  8 17  1  0  0  0  0
 10 19  1  0  0  0  0
 11 12  1  1  0  0  0
 11 21  1  0  0  0  0
 12 44  1  0  0  0  0
 13 14  1  6  0  0  0
 13 23  1  0  0  0  0
 15 16  1  0  0  0  0
 17 18  1  6  0  0  0
 17 25  1  0  0  0  0
 19 20  1  1  0  0  0
 19 27  1  0  0  0  0
 21 22  1  6  0  0  0
 21 28  1  0  0  0  0
 23 24  1  1  0  0  0
 23 30  1  0  0  0  0
 25 26  1  1  0  0  0
 25 32  1  0  0  0  0
 27  2  1  1  0  0  0
 27 34  1  0  0  0  0
 28 29  1  0  0  0  0
 28 36  1  6  0  0  0
 30 31  1  1  0  0  0
 30 38  1  0  0  0  0
 32 33  1  0  0  0  0
 32 40  1  1  0  0  0
 34 35  1  1  0  0  0
 34 42  1  0  0  0  0
 36 37  1  0  0  0  0
 38 39  1  0  0  0  0
 38 45  1  6  0  0  0
 40 41  1  0  0  0  0
 42 43  1  6  0  0  0
 44 47  1  0  0  0  0
 45 46  1  0  0  0  0
 47 48  1  0  0  0  0
 48 49  1  0  0  0  0
 49  7  1  0  0  0  0
M  END
>  <CHROM.1>
-71.25403824,-56.74072011,-172.45278187,60.50694547,159.15939737,172.29455591
89.20603428,98.19670887,-175.74838076,156.88352012,-162.35945373,63.60037498
155.52981648,58.44251675,174.53690169,58.05902813,41.87681753,4.78681239
-3.77893770,-2.13624279,-1.07595019,-2.23055394

>  <Name>
2bee_lig

>  <RI>
3.71943e+07

>  <Rbt.Current_Directory>
/home/itssahil/PROJECTS/Mol_Feturizer/New_Systems/rnas/2bee

>  <Rbt.Executable>
rbdock ($Id: //depot/dev/client3/rdock/2013.1/src/exe/rbdock.cxx#4 $)

>  <Rbt.Library>
libRbt.so (2013.1, Build901 2013/11/27)

>  <Rbt.Parameter_File>
/export/apps/rDock/src/rDock_2013.1_src/data/scripts/dock_solv.prm

>  <Rbt.Receptor>
prm/pocket_docking_2.prm

>  <SCORE>
23.0015

>  <SCORE.INTER>
12.4142

>  <SCORE.INTER.CONST>
1

>  <SCORE.INTER.POLAR>
0

>  <SCORE.INTER.ROT>
16

>  <SCORE.INTER.SOLV>
20.0998

>  <SCORE.INTER.VDW>
-12.6904

>  <SCORE.INTER.norm>
0.253352

>  <SCORE.INTRA>
0.432164

>  <SCORE.INTRA.DIHEDRAL>
-17.7291

>  <SCORE.INTRA.DIHEDRAL.0>
36.0842

>  <SCORE.INTRA.POLAR>
0

>  <SCORE.INTRA.POLAR.0>
0

>  <SCORE.INTRA.REPUL>
0

>  <SCORE.INTRA.REPUL.0>
0

>  <SCORE.INTRA.SOLV>
7.61192

>  <SCORE.INTRA.SOLV.lig_0>
-126.444

>  <SCORE.INTRA.VDW>
5.49078

>  <SCORE.INTRA.VDW.0>
-7.40469

>  <SCORE.INTRA.norm>
0.00881968

>  <SCORE.RESTR>
10.1551

>  <SCORE.RESTR.CAVITY>
10.1551

>  <SCORE.RESTR.norm>
0.207248

>  <SCORE.SYSTEM>
0

>  <SCORE.SYSTEM.CONST>
0

>  <SCORE.SYSTEM.DIHEDRAL>
0

>  <SCORE.SYSTEM.SOLV>
0

>  <SCORE.SYSTEM.norm>
0

>  <SCORE.heavy>
49

>  <SCORE.norm>
0.469419

>  <RMSD>
8.375

$$$$
2bee_lig
 OpenBabel11021811423D
libRbt.so/2013.1/901 2013/11/27
 49 52  0  0  0  0  0  0  0  0999 V2000
   40.8551    5.1418   -1.3195 C   0  0  2  0  0  0  0  0  0  0  0  0
   40.8878    6.1214   -2.3498 O   0  0  0  0  0  0  0  0  0  0  0  0
   41.9847    5.7380   -6.5953 C   0  0  2  0  0  0  0  0  0  0  0  0
   42.8336    5.5792   -7.8073 N   0  0  0  0  0  0  0  0  0  0  0  0
   41.0128    2.3077   -3.5899 C   0  0  1  0  0  0  0  0  0  0  0  0
   44.0356   -1.1027   -3.4474 C   0  0  1  0  0  0  0  0  0  0  0  0
   37.4389    0.5458   -3.0131 C   0  0  0  0  0  0  0  0  0  0  0  0
   39.7616    5.5132   -0.2447 C   0  0  2  0  0  0  0  0  0  0  0  0
   38.4678    5.7014   -0.8921 N   0  0  0  0  0  0  0  0  0  0  0  0
   42.4836    7.0053   -5.7628 C   0  0  0  0  0  0  0  0  0  0  0  0
   41.2353    0.9648   -4.2060 C   0  0  2  0  0  0  0  0  0  0  0  0
   40.0038    0.3759   -4.7600 O   0  0  0  0  0  0  0  0  0  0  0  0
   45.0977    0.1216   -3.5116 C   0  0  2  0  0  0  0  0  0  0  0  0
   44.4198    1.2936   -4.1596 N   0  0  0  0  0  0  0  0  0  0  0  0
   36.5874    1.3704   -2.2412 C   0  0  0  0  0  0  0  0  0  0  0  0
   35.8755    0.8273   -1.1740 N   0  0  0  0  0  0  0  0  0  0  0  0
   40.2191    6.8191    0.5409 C   0  0  1  0  0  0  0  0  0  0  0  0
   39.2314    7.1428    1.5088 O   0  0  0  0  0  0  0  0  0  0  0  0
   41.5828    7.2062   -4.4138 C   0  0  2  0  0  0  0  0  0  0  0  0
   42.0144    8.3399   -3.6689 N   0  0  0  0  0  0  0  0  0  0  0  0
   41.9503    0.3500   -3.0272 C   0  0  2  0  0  0  0  0  0  0  0  0
   42.9075   -0.5846   -2.7026 O   0  0  0  0  0  0  0  0  0  0  0  0
   46.3381   -0.3408   -4.3565 C   0  0  1  0  0  0  0  0  0  0  0  0
   46.9514   -1.4756   -3.6509 O   0  0  0  0  0  0  0  0  0  0  0  0
   41.5896    6.5544    1.2063 C   0  0  2  0  0  0  0  0  0  0  0  0
   42.0622    7.7565    1.9394 O   0  0  0  0  0  0  0  0  0  0  0  0
   41.6733    5.9137   -3.5125 C   0  0  2  0  0  0  0  0  0  0  0  0
   41.1885    1.0013   -1.7691 C   0  0  2  0  0  0  0  0  0  0  0  0
   40.9863    2.2720   -2.1916 O   0  0  0  0  0  0  0  0  0  0  0  0
   45.8399   -0.7620   -5.8525 C   0  0  2  0  0  0  0  0  0  0  0  0
   45.2222    0.3872   -6.5519 O   0  0  0  0  0  0  0  0  0  0  0  0
   42.6640    6.1813    0.1310 C   0  0  2  0  0  0  0  0  0  0  0  0
   42.1338    5.0136   -0.5469 O   0  0  0  0  0  0  0  0  0  0  0  0
   41.1776    4.7039   -4.3746 C   0  0  2  0  0  0  0  0  0  0  0  0
   41.2768    3.6242   -3.4777 O   0  0  0  0  0  0  0  0  0  0  0  0
   41.9704    1.1083   -0.4078 C   0  0  0  0  0  0  0  0  0  0  0  0
   41.0729    1.6162    0.6295 O   0  0  0  0  0  0  0  0  0  0  0  0
   44.7646   -1.9345   -5.7614 C   0  0  1  0  0  0  0  0  0  0  0  0
   43.6322   -1.4284   -4.8923 O   0  0  0  0  0  0  0  0  0  0  0  0
   43.9240    5.9244    0.8537 C   0  0  0  0  0  0  0  0  0  0  0  0
   44.5301    7.0786    1.1633 O   0  0  0  0  0  0  0  0  0  0  0  0
   42.0895    4.5123   -5.6606 C   0  0  1  0  0  0  0  0  0  0  0  0
   41.6330    3.4379   -6.4245 O   0  0  0  0  0  0  0  0  0  0  0  0
   39.9320   -0.8876   -5.5119 C   0  0  0  0  0  0  0  0  0  0  0  0
   44.3481   -2.2369   -7.2406 C   0  0  0  0  0  0  0  0  0  0  0  0
   43.6216   -1.1593   -7.8486 N   0  0  0  0  0  0  0  0  0  0  0  0
   38.4653   -1.2565   -5.7396 C   0  0  0  0  0  0  0  0  0  0  0  0
   37.8858   -1.5356   -4.4113 N   0  0  0  0  0  0  0  0  0  0  0  0
   36.7800   -0.6114   -3.8972 C   0  0  0  0  0  0  0  0  0  0  0  0
  1  2  1  6  0  0  0
  1  8  1  0  0  0  0
  1 33  1  0  0  0  0
  3  4  1  6  0  0  0
  3 10  1  0  0  0  0
  3 42  1  0  0  0  0
  5 11  1  0  0  0  0
  5 29  1  0  0  0  0
  5 35  1  1  0  0  0
  6 13  1  0  0  0  0
  6 39  1  0  0  0  0
  6 22  1  1  0  0  0
  7 15  1  0  0  0  0
  8  9  1  6  0  0  0
  8 17  1  0  0  0  0
 10 19  1  0  0  0  0
 11 12  1  1  0  0  0
 11 21  1  0  0  0  0
 12 44  1  0  0  0  0
 13 14  1  6  0  0  0
 13 23  1  0  0  0  0
 15 16  1  0  0  0  0
 17 18  1  1  0  0  0
 17 25  1  0  0  0  0
 19 20  1  1  0  0  0
 19 27  1  0  0  0  0
 21 22  1  6  0  0  0
 21 28  1  0  0  0  0
 23 24  1  1  0  0  0
 23 30  1  0  0  0  0
 25 26  1  6  0  0  0
 25 32  1  0  0  0  0
 27  2  1  1  0  0  0
 27 34  1  0  0  0  0
 28 29  1  0  0  0  0
 28 36  1  1  0  0  0
 30 31  1  1  0  0  0
 30 38  1  0  0  0  0
 32 33  1  0  0  0  0
 32 40  1  1  0  0  0
 34 35  1  1  0  0  0
 34 42  1  0  0  0  0
 36 37  1  0  0  0  0
 38 39  1  0  0  0  0
 38 45  1  6  0  0  0
 40 41  1  0  0  0  0
 42 43  1  6  0  0  0
 44 47  1  0  0  0  0
 45 46  1  0  0  0  0
 47 48  1  0  0  0  0
 48 49  1  0  0  0  0
 49  7  1  0  0  0  0
M  END
>  <CHROM.1>
-171.98985122,61.03529532,70.64866367,66.32429733,175.28933702,171.92540701
26.36877477,-176.15329984,-175.13976145,-80.01549164,-179.61845368,-67.50699923
-65.60830763,115.34229226,-93.13739811,-168.74819589,41.73347888,2.65739592
-3.12943073,1.80656795,0.35619839,0.51257993

>  <Name>
2bee_lig

>  <RI>
0

>  <Rbt.Current_Directory>
/home/itssahil/PROJECTS/Mol_Feturizer/New_Systems/rnas/2bee

>  <Rbt.Executable>
rbdock ($Id: //depot/dev/client3/rdock/2013.1/src/exe/rbdock.cxx#4 $)

>  <Rbt.Library>
libRbt.so (2013.1, Build901 2013/11/27)

>  <Rbt.Parameter_File>
/export/apps/rDock/src/rDock_2013.1_src/data/scripts/dock_solv.prm

>  <Rbt.Receptor>
prm/pocket_docking_5.prm

>  <SCORE>
-8.7694

>  <SCORE.INTER>
3.41467

>  <SCORE.INTER.CONST>
1

>  <SCORE.INTER.POLAR>
0

>  <SCORE.INTER.ROT>
16

>  <SCORE.INTER.SOLV>
10.667

>  <SCORE.INTER.VDW>
-15.5459

>  <SCORE.INTER.norm>
0.0696871

>  <SCORE.INTRA>
-12.1841

>  <SCORE.INTRA.DIHEDRAL>
-25.8572

>  <SCORE.INTRA.DIHEDRAL.0>
36.0842

>  <SCORE.INTRA.POLAR>
0

>  <SCORE.INTRA.POLAR.0>
0

>  <SCORE.INTRA.REPUL>
0

>  <SCORE.INTRA.REPUL.0>
0

>  <SCORE.INTRA.SOLV>
1.06258

>  <SCORE.INTRA.SOLV.lig_0>
-126.444

>  <SCORE.INTRA.VDW>
0.213239

>  <SCORE.INTRA.VDW.0>
-7.40469

>  <SCORE.INTRA.norm>
-0.248654

>  <SCORE.RESTR>
0

>  <SCORE.RESTR.CAVITY>
0

>  <SCORE.RESTR.norm>
0

>  <SCORE.SYSTEM>
0

>  <SCORE.SYSTEM.CONST>
0

>  <SCORE.SYSTEM.DIHEDRAL>
0

>  <SCORE.SYSTEM.SOLV>
0

>  <SCORE.SYSTEM.norm>
0

>  <SCORE.heavy>
49

>  <SCORE.norm>
-0.178967

>  <RMSD>
8.381

$$$$
2bee_lig
 OpenBabel11021811423D
libRbt.so/2013.1/901 2013/11/27
 49 52  0  0  0  0  0  0  0  0999 V2000
   43.6894   12.4850  -12.9864 C   0  0  2  0  0  0  0  0  0  0  0  0
   43.4505   11.5345  -11.9562 O   0  0  0  0  0  0  0  0  0  0  0  0
   47.2178   10.8610   -9.7818 C   0  0  2  0  0  0  0  0  0  0  0  0
   48.1780   10.7808   -8.6476 N   0  0  0  0  0  0  0  0  0  0  0  0
   43.7643    7.9075  -10.1228 C   0  0  1  0  0  0  0  0  0  0  0  0
   47.2620    5.8016   -8.2570 C   0  0  1  0  0  0  0  0  0  0  0  0
   42.6237    6.3076   -4.6515 C   0  0  0  0  0  0  0  0  0  0  0  0
   42.4691   13.4773  -13.1102 C   0  0  2  0  0  0  0  0  0  0  0  0
   42.1946   14.0960  -11.8177 N   0  0  0  0  0  0  0  0  0  0  0  0
   46.5940   12.3290   -9.8435 C   0  0  0  0  0  0  0  0  0  0  0  0
   44.1071    6.4583  -10.0004 C   0  0  2  0  0  0  0  0  0  0  0  0
   42.9400    5.5757  -10.1707 O   0  0  0  0  0  0  0  0  0  0  0  0
   47.4543    4.1958   -8.3802 C   0  0  2  0  0  0  0  0  0  0  0  0
   47.0117    3.5726   -7.0884 N   0  0  0  0  0  0  0  0  0  0  0  0
   42.7262    7.7184   -4.6591 C   0  0  0  0  0  0  0  0  0  0  0  0
   43.7241    8.3460   -3.9167 N   0  0  0  0  0  0  0  0  0  0  0  0
   41.2031   12.6871  -13.6622 C   0  0  1  0  0  0  0  0  0  0  0  0
   40.1116   13.5888  -13.7746 O   0  0  0  0  0  0  0  0  0  0  0  0
   45.5218   12.4541  -11.0708 C   0  0  2  0  0  0  0  0  0  0  0  0
   44.9664   13.7630  -11.1397 N   0  0  0  0  0  0  0  0  0  0  0  0
   44.8389    6.5641   -8.6843 C   0  0  2  0  0  0  0  0  0  0  0  0
   45.8583    5.9916   -7.9577 O   0  0  0  0  0  0  0  0  0  0  0  0
   48.9719    3.8967   -8.6513 C   0  0  1  0  0  0  0  0  0  0  0  0
   49.3206    4.5246   -9.9342 O   0  0  0  0  0  0  0  0  0  0  0  0
   41.5557   12.0612  -15.0316 C   0  0  2  0  0  0  0  0  0  0  0  0
   40.4033   11.2992  -15.5769 O   0  0  0  0  0  0  0  0  0  0  0  0
   44.3655   11.3967  -10.8811 C   0  0  2  0  0  0  0  0  0  0  0  0
   43.9972    7.6868   -7.8978 C   0  0  2  0  0  0  0  0  0  0  0  0
   43.7061    8.5633   -8.8883 O   0  0  0  0  0  0  0  0  0  0  0  0
   49.8638    4.5001   -7.4250 C   0  0  2  0  0  0  0  0  0  0  0  0
   49.5023    3.8625   -6.1389 O   0  0  0  0  0  0  0  0  0  0  0  0
   42.7708   11.0839  -14.8969 C   0  0  2  0  0  0  0  0  0  0  0  0
   43.8479   11.8893  -14.3533 O   0  0  0  0  0  0  0  0  0  0  0  0
   45.0293    9.9795  -10.8236 C   0  0  2  0  0  0  0  0  0  0  0  0
   43.9209    9.1248  -10.6787 O   0  0  0  0  0  0  0  0  0  0  0  0
   44.7341    8.5133   -6.7800 C   0  0  0  0  0  0  0  0  0  0  0  0
   45.4604    7.5992   -5.8988 O   0  0  0  0  0  0  0  0  0  0  0  0
   49.6242    6.0701   -7.2949 C   0  0  1  0  0  0  0  0  0  0  0  0
   48.1378    6.2741   -7.0881 O   0  0  0  0  0  0  0  0  0  0  0  0
   43.0494   10.5564  -16.2459 C   0  0  0  0  0  0  0  0  0  0  0  0
   44.1073   11.1791  -16.7831 O   0  0  0  0  0  0  0  0  0  0  0  0
   46.0411    9.8759   -9.6038 C   0  0  1  0  0  0  0  0  0  0  0  0
   46.6321    8.6127   -9.5685 O   0  0  0  0  0  0  0  0  0  0  0  0
   41.6554    5.7235   -9.4670 C   0  0  0  0  0  0  0  0  0  0  0  0
   50.5061    6.5297   -6.0849 C   0  0  0  0  0  0  0  0  0  0  0  0
   51.8694    6.0948   -6.1894 N   0  0  0  0  0  0  0  0  0  0  0  0
   41.7041    4.9354   -8.1573 C   0  0  0  0  0  0  0  0  0  0  0  0
   41.9859    5.9095   -7.0850 N   0  0  0  0  0  0  0  0  0  0  0  0
   42.9798    5.5122   -5.9915 C   0  0  0  0  0  0  0  0  0  0  0  0
  1  2  1  1  0  0  0
  1  8  1  0  0  0  0
  1 33  1  0  0  0  0
  3  4  1  1  0  0  0
  3 10  1  0  0  0  0
  3 42  1  0  0  0  0
  5 11  1  0  0  0  0
  5 29  1  0  0  0  0
  5 35  1  6  0  0  0
  6 13  1  0  0  0  0
  6 39  1  0  0  0  0
  6 22  1  1  0  0  0
  7 15  1  0  0  0  0
  8  9  1  1  0  0  0
  8 17  1  0  0  0  0
 10 19  1  0  0  0  0
 11 12  1  1  0  0  0
 11 21  1  0  0  0  0
 12 44  1  0  0  0  0
 13 14  1  1  0  0  0
 13 23  1  0  0  0  0
 15 16  1  0  0  0  0
 17 18  1  6  0  0  0
 17 25  1  0  0  0  0
 19 20  1  1  0  0  0
 19 27  1  0  0  0  0
 21 22  1  1  0  0  0
 21 28  1  0  0  0  0
 23 24  1  6  0  0  0
 23 30  1  0  0  0  0
 25 26  1  1  0  0  0
 25 32  1  0  0  0  0
 27  2  1  6  0  0  0
 27 34  1  0  0  0  0
 28 29  1  0  0  0  0
 28 36  1  1  0  0  0
 30 31  1  1  0  0  0
 30 38  1  0  0  0  0
 32 33  1  0  0  0  0
 32 40  1  6  0  0  0
 34 35  1  1  0  0  0
 34 42  1  0  0  0  0
 36 37  1  0  0  0  0
 38 39  1  0  0  0  0
 38 45  1  1  0  0  0
 40 41  1  0  0  0  0
 42 43  1  6  0  0  0
 44 47  1  0  0  0  0
 45 46  1  0  0  0  0
 47 48  1  0  0  0  0
 48 49  1  0  0  0  0
 49  7  1  0  0  0  0
M  END
>  <CHROM.1>
-123.26967794,-57.03341213,-113.37665193,-111.07705322,-50.09268627,-89.59723687
57.93058679,1.74430709,-48.02165113,102.00878195,-152.72774289,51.55019458
99.67262078,-138.31525090,-152.79983230,-63.56028749,44.95836898,8.55570296
-9.71233135,-2.03741160,-0.05678533,2.31040423

>  <Name>
2bee_lig

>  <RI>
0

>  <Rbt.Current_Directory>
/home/itssahil/PROJECTS/Mol_Feturizer/New_Systems/rnas/2bee

>  <Rbt.Executable>
rbdock ($Id: //depot/dev/client3/rdock/2013.1/src/exe/rbdock.cxx#4 $)

>  <Rbt.Library>
libRbt.so (2013.1, Build901 2013/11/27)

>  <Rbt.Parameter_File>
/export/apps/rDock/src/rDock_2013.1_src/data/scripts/dock_solv.prm

>  <Rbt.Receptor>
prm/blind_docking_60.prm

>  <SCORE>
50.7022

>  <SCORE.INTER>
11.3708

>  <SCORE.INTER.CONST>
1

>  <SCORE.INTER.POLAR>
-1.25964

>  <SCORE.INTER.ROT>
16

>  <SCORE.INTER.SOLV>
31.7825

>  <SCORE.INTER.VDW>
-13.0815

>  <SCORE.INTER.norm>
0.232057

>  <SCORE.INTRA>
16.707

>  <SCORE.INTRA.DIHEDRAL>
13.7491

>  <SCORE.INTRA.DIHEDRAL.0>
36.0842

>  <SCORE.INTRA.POLAR>
0

>  <SCORE.INTRA.POLAR.0>
0

>  <SCORE.INTRA.REPUL>
0

>  <SCORE.INTRA.REPUL.0>
0

>  <SCORE.INTRA.SOLV>
8.07521

>  <SCORE.INTRA.SOLV.lig_0>
-126.444

>  <SCORE.INTRA.VDW>
5.7949

>  <SCORE.INTRA.VDW.0>
-7.40469

>  <SCORE.INTRA.norm>
0.34096

>  <SCORE.RESTR>
22.6243

>  <SCORE.RESTR.CAVITY>
22.6243

>  <SCORE.RESTR.norm>
0.461721

>  <SCORE.SYSTEM>
0

>  <SCORE.SYSTEM.CONST>
0

>  <SCORE.SYSTEM.DIHEDRAL>
0

>  <SCORE.SYSTEM.SOLV>
0

>  <SCORE.SYSTEM.norm>
0

>  <SCORE.heavy>
49

>  <SCORE.norm>
1.03474

>  <RMSD>
8.382

$$$$
2bee_lig
 OpenBabel11021811423D
libRbt.so/2013.1/901 2013/11/27
 49 52  0  0  0  0  0  0  0  0999 V2000
   40.1884    7.2957   -0.4011 C   0  0  2  0  0  0  0  0  0  0  0  0
   41.3943    7.1984   -1.1485 O   0  0  0  0  0  0  0  0  0  0  0  0
   39.8368    6.1677   -5.1343 C   0  0  2  0  0  0  0  0  0  0  0  0
   39.8298    5.7930   -6.5745 N   0  0  0  0  0  0  0  0  0  0  0  0
   42.1549    3.6915   -2.1169 C   0  0  1  0  0  0  0  0  0  0  0  0
   44.2121    3.9920   -6.0674 C   0  0  1  0  0  0  0  0  0  0  0  0
   41.7081    0.8602   -6.3398 C   0  0  0  0  0  0  0  0  0  0  0  0
   40.3389    8.3700    0.7444 C   0  0  2  0  0  0  0  0  0  0  0  0
   40.7630    9.6468    0.1799 N   0  0  0  0  0  0  0  0  0  0  0  0
   40.6847    7.5061   -4.9403 C   0  0  0  0  0  0  0  0  0  0  0  0
   42.7874    2.5403   -2.8292 C   0  0  2  0  0  0  0  0  0  0  0  0
   43.1990    1.4577   -1.9188 O   0  0  0  0  0  0  0  0  0  0  0  0
   45.2571    3.3190   -7.1095 C   0  0  2  0  0  0  0  0  0  0  0  0
   46.6475    3.5656   -6.6004 N   0  0  0  0  0  0  0  0  0  0  0  0
   40.5858    0.5985   -7.1600 C   0  0  0  0  0  0  0  0  0  0  0  0
   39.4723   -0.0477   -6.6277 N   0  0  0  0  0  0  0  0  0  0  0  0
   41.3719    7.8380    1.8315 C   0  0  1  0  0  0  0  0  0  0  0  0
   41.4973    8.8091    2.8603 O   0  0  0  0  0  0  0  0  0  0  0  0
   40.7276    7.9445   -3.3663 C   0  0  2  0  0  0  0  0  0  0  0  0
   41.4743    9.1426   -3.1842 N   0  0  0  0  0  0  0  0  0  0  0  0
   43.7952    3.3511   -3.6076 C   0  0  2  0  0  0  0  0  0  0  0  0
   44.4957    3.3676   -4.7925 O   0  0  0  0  0  0  0  0  0  0  0  0
   45.0534    3.9851   -8.5169 C   0  0  1  0  0  0  0  0  0  0  0  0
   43.6803    3.6863   -8.9493 O   0  0  0  0  0  0  0  0  0  0  0  0
   40.8647    6.4895    2.3931 C   0  0  2  0  0  0  0  0  0  0  0  0
   41.8100    5.9484    3.4029 O   0  0  0  0  0  0  0  0  0  0  0  0
   41.3659    6.7858   -2.5053 C   0  0  2  0  0  0  0  0  0  0  0  0
   44.1992    4.5103   -2.5681 C   0  0  2  0  0  0  0  0  0  0  0  0
   43.0091    4.7919   -1.9865 O   0  0  0  0  0  0  0  0  0  0  0  0
   45.3071    5.5923   -8.3903 C   0  0  2  0  0  0  0  0  0  0  0  0
   46.6914    5.8806   -7.9521 O   0  0  0  0  0  0  0  0  0  0  0  0
   40.7139    5.4343    1.2470 C   0  0  2  0  0  0  0  0  0  0  0  0
   39.7912    6.0311    0.2999 O   0  0  0  0  0  0  0  0  0  0  0  0
   40.5015    5.5000   -2.7333 C   0  0  2  0  0  0  0  0  0  0  0  0
   41.1374    4.5506   -1.9121 O   0  0  0  0  0  0  0  0  0  0  0  0
   44.7377    5.8690   -3.1510 C   0  0  0  0  0  0  0  0  0  0  0  0
   44.9020    6.8332   -2.0635 O   0  0  0  0  0  0  0  0  0  0  0  0
   44.3000    6.2234   -7.3288 C   0  0  1  0  0  0  0  0  0  0  0  0
   44.5239    5.4945   -6.0203 O   0  0  0  0  0  0  0  0  0  0  0  0
   40.2064    4.1960    1.8671 C   0  0  0  0  0  0  0  0  0  0  0  0
   38.8779    4.2633    2.0285 O   0  0  0  0  0  0  0  0  0  0  0  0
   40.5039    5.0789   -4.2647 C   0  0  1  0  0  0  0  0  0  0  0  0
   39.7240    3.9381   -4.4563 O   0  0  0  0  0  0  0  0  0  0  0  0
   44.0739    0.3311   -2.2822 C   0  0  0  0  0  0  0  0  0  0  0  0
   44.6479    7.7496   -7.2771 C   0  0  0  0  0  0  0  0  0  0  0  0
   44.5205    8.3958   -8.5518 N   0  0  0  0  0  0  0  0  0  0  0  0
   43.3501   -0.5659   -3.2874 C   0  0  0  0  0  0  0  0  0  0  0  0
   43.4069    0.1238   -4.5909 N   0  0  0  0  0  0  0  0  0  0  0  0
   42.4989   -0.3802   -5.7147 C   0  0  0  0  0  0  0  0  0  0  0  0
  1  2  1  1  0  0  0
  1  8  1  0  0  0  0
  1 33  1  0  0  0  0
  3  4  1  6  0  0  0
  3 10  1  0  0  0  0
  3 42  1  0  0  0  0
  5 11  1  0  0  0  0
  5 29  1  0  0  0  0
  5 35  1  6  0  0  0
  6 13  1  0  0  0  0
  6 39  1  0  0  0  0
  6 22  1  1  0  0  0
  7 15  1  0  0  0  0
  8  9  1  6  0  0  0
  8 17  1  0  0  0  0
 10 19  1  0  0  0  0
 11 12  1  1  0  0  0
 11 21  1  0  0  0  0
 12 44  1  0  0  0  0
 13 14  1  1  0  0  0
 13 23  1  0  0  0  0
 15 16  1  0  0  0  0
 17 18  1  1  0  0  0
 17 25  1  0  0  0  0
 19 20  1  6  0  0  0
 19 27  1  0  0  0  0
 21 22  1  1  0  0  0
 21 28  1  0  0  0  0
 23 24  1  1  0  0  0
 23 30  1  0  0  0  0
 25 26  1  1  0  0  0
 25 32  1  0  0  0  0
 27  2  1  1  0  0  0
 27 34  1  0  0  0  0
 28 29  1  0  0  0  0
 28 36  1  6  0  0  0
 30 31  1  1  0  0  0
 30 38  1  0  0  0  0
 32 33  1  0  0  0  0
 32 40  1  1  0  0  0
 34 35  1  1  0  0  0
 34 42  1  0  0  0  0
 36 37  1  0  0  0  0
 38 39  1  0  0  0  0
 38 45  1  1  0  0  0
 40 41  1  0  0  0  0
 42 43  1  1  0  0  0
 44 47  1  0  0  0  0
 45 46  1  0  0  0  0
 47 48  1  0  0  0  0
 48 49  1  0  0  0  0
 49  7  1  0  0  0  0
M  END
>  <CHROM.1>
-152.69019120,-60.18122827,-166.70885083,62.58998008,-167.30650216,-67.33762233
93.85475895,70.99864406,173.63331666,81.76743546,-88.30206596,58.65250162
76.44708983,-166.45368563,129.97343435,-164.86432372,42.39059811,4.87506600
-3.38225420,-2.57959709,-1.14986958,-2.92565351

>  <Name>
2bee_lig

>  <RI>
2.18182e+07

>  <Rbt.Current_Directory>
/home/itssahil/PROJECTS/Mol_Feturizer/New_Systems/rnas/2bee

>  <Rbt.Executable>
rbdock ($Id: //depot/dev/client3/rdock/2013.1/src/exe/rbdock.cxx#4 $)

>  <Rbt.Library>
libRbt.so (2013.1, Build901 2013/11/27)

>  <Rbt.Parameter_File>
/export/apps/rDock/src/rDock_2013.1_src/data/scripts/dock_solv.prm

>  <Rbt.Receptor>
prm/pocket_docking_3.prm

>  <SCORE>
-3.32845

>  <SCORE.INTER>
4.61709

>  <SCORE.INTER.CONST>
1

>  <SCORE.INTER.POLAR>
-0.487728

>  <SCORE.INTER.ROT>
16

>  <SCORE.INTER.SOLV>
14.024

>  <SCORE.INTER.VDW>
-14.2375

>  <SCORE.INTER.norm>
0.0942263

>  <SCORE.INTRA>
-8.50737

>  <SCORE.INTRA.DIHEDRAL>
-17.9281

>  <SCORE.INTRA.DIHEDRAL.0>
36.0842

>  <SCORE.INTRA.POLAR>
0

>  <SCORE.INTRA.POLAR.0>
0

>  <SCORE.INTRA.REPUL>
0

>  <SCORE.INTRA.REPUL.0>
0

>  <SCORE.INTRA.SOLV>
0.914595

>  <SCORE.INTRA.SOLV.lig_0>
-126.444

>  <SCORE.INTRA.VDW>
-0.000606208

>  <SCORE.INTRA.VDW.0>
-7.40469

>  <SCORE.INTRA.norm>
-0.17362

>  <SCORE.RESTR>
0.56183

>  <SCORE.RESTR.CAVITY>
0.56183

>  <SCORE.RESTR.norm>
0.0114659

>  <SCORE.SYSTEM>
0

>  <SCORE.SYSTEM.CONST>
0

>  <SCORE.SYSTEM.DIHEDRAL>
0

>  <SCORE.SYSTEM.SOLV>
0

>  <SCORE.SYSTEM.norm>
0

>  <SCORE.heavy>
49

>  <SCORE.norm>
-0.0679275

>  <RMSD>
8.387

$$$$
2bee_lig
 OpenBabel11021811423D
libRbt.so/2013.1/901 2013/11/27
 49 52  0  0  0  0  0  0  0  0999 V2000
   41.7564    7.5471    2.0412 C   0  0  2  0  0  0  0  0  0  0  0  0
   41.9131    6.5657    1.0241 O   0  0  0  0  0  0  0  0  0  0  0  0
   42.8251    9.0132   -2.5187 C   0  0  2  0  0  0  0  0  0  0  0  0
   43.3967    9.3988   -3.8376 N   0  0  0  0  0  0  0  0  0  0  0  0
   40.4603    5.1487   -1.9976 C   0  0  1  0  0  0  0  0  0  0  0  0
   43.4667    1.5939   -2.4207 C   0  0  1  0  0  0  0  0  0  0  0  0
   38.4931   -1.2801   -4.6604 C   0  0  0  0  0  0  0  0  0  0  0  0
   40.7516    7.0366    3.1451 C   0  0  2  0  0  0  0  0  0  0  0  0
   41.1915    5.7457    3.6632 N   0  0  0  0  0  0  0  0  0  0  0  0
   44.0059    8.5715   -1.5396 C   0  0  0  0  0  0  0  0  0  0  0  0
   41.1308    4.2024   -2.9397 C   0  0  2  0  0  0  0  0  0  0  0  0
   40.3076    3.8875   -4.1201 O   0  0  0  0  0  0  0  0  0  0  0  0
   44.7992    2.4485   -2.0672 C   0  0  2  0  0  0  0  0  0  0  0  0
   44.5255    3.8905   -2.3819 N   0  0  0  0  0  0  0  0  0  0  0  0
   37.7823   -1.6564   -3.4968 C   0  0  0  0  0  0  0  0  0  0  0  0
   36.4116   -1.8950   -3.5673 N   0  0  0  0  0  0  0  0  0  0  0  0
   39.2885    6.9514    2.5252 C   0  0  1  0  0  0  0  0  0  0  0  0
   38.3907    6.4958    3.5269 O   0  0  0  0  0  0  0  0  0  0  0  0
   43.4165    8.1269   -0.0814 C   0  0  2  0  0  0  0  0  0  0  0  0
   44.4632    7.7396    0.8022 N   0  0  0  0  0  0  0  0  0  0  0  0
   41.4811    3.1539   -1.9117 C   0  0  2  0  0  0  0  0  0  0  0  0
   42.4155    2.1859   -1.6204 O   0  0  0  0  0  0  0  0  0  0  0  0
   45.9850    1.9035   -2.9406 C   0  0  1  0  0  0  0  0  0  0  0  0
   46.1983    0.4986   -2.5635 O   0  0  0  0  0  0  0  0  0  0  0  0
   38.8801    8.3475    2.0002 C   0  0  2  0  0  0  0  0  0  0  0  0
   37.5232    8.3093    1.3975 O   0  0  0  0  0  0  0  0  0  0  0  0
   42.4010    6.9314   -0.2565 C   0  0  2  0  0  0  0  0  0  0  0  0
   40.2160    3.1916   -0.9189 C   0  0  2  0  0  0  0  0  0  0  0  0
   39.9462    4.5174   -0.8598 O   0  0  0  0  0  0  0  0  0  0  0  0
   45.5982    2.0497   -4.5194 C   0  0  2  0  0  0  0  0  0  0  0  0
   45.3835    3.4676   -4.8866 O   0  0  0  0  0  0  0  0  0  0  0  0
   39.8874    8.8453    0.9105 C   0  0  2  0  0  0  0  0  0  0  0  0
   41.1830    8.8475    1.5631 O   0  0  0  0  0  0  0  0  0  0  0  0
   41.2689    7.4144   -1.2248 C   0  0  2  0  0  0  0  0  0  0  0  0
   40.4194    6.2945   -1.2899 O   0  0  0  0  0  0  0  0  0  0  0  0
   40.4295    2.7184    0.5664 C   0  0  0  0  0  0  0  0  0  0  0  0
   39.2250    3.0043    1.3455 O   0  0  0  0  0  0  0  0  0  0  0  0
   44.2624    1.2394   -4.8329 C   0  0  1  0  0  0  0  0  0  0  0  0
   43.1879    1.7884   -3.9177 O   0  0  0  0  0  0  0  0  0  0  0  0
   39.4358   10.1843    0.4877 C   0  0  0  0  0  0  0  0  0  0  0  0
   39.5200   11.0504    1.5066 O   0  0  0  0  0  0  0  0  0  0  0  0
   41.8653    7.8090   -2.6429 C   0  0  1  0  0  0  0  0  0  0  0  0
   40.8491    8.2457   -3.4931 O   0  0  0  0  0  0  0  0  0  0  0  0
   40.5461    2.7681   -5.0459 C   0  0  0  0  0  0  0  0  0  0  0  0
   43.9814    1.4682   -6.3566 C   0  0  0  0  0  0  0  0  0  0  0  0
   42.7201    0.9307   -6.7796 N   0  0  0  0  0  0  0  0  0  0  0  0
   40.3638    1.4469   -4.2975 C   0  0  0  0  0  0  0  0  0  0  0  0
   38.9113    1.1946   -4.2275 N   0  0  0  0  0  0  0  0  0  0  0  0
   38.3017    0.2042   -5.2218 C   0  0  0  0  0  0  0  0  0  0  0  0
  1  2  1  6  0  0  0
  1  8  1  0  0  0  0
  1 33  1  0  0  0  0
  3  4  1  6  0  0  0
  3 10  1  0  0  0  0
  3 42  1  0  0  0  0
  5 11  1  0  0  0  0
  5 29  1  0  0  0  0
  5 35  1  1  0  0  0
  6 13  1  0  0  0  0
  6 39  1  0  0  0  0
  6 22  1  1  0  0  0
  7 15  1  0  0  0  0
  8  9  1  6  0  0  0
  8 17  1  0  0  0  0
 10 19  1  0  0  0  0
 11 12  1  6  0  0  0
 11 21  1  0  0  0  0
 12 44  1  0  0  0  0
 13 14  1  6  0  0  0
 13 23  1  0  0  0  0
 15 16  1  0  0  0  0
 17 18  1  1  0  0  0
 17 25  1  0  0  0  0
 19 20  1  1  0  0  0
 19 27  1  0  0  0  0
 21 22  1  6  0  0  0
 21 28  1  0  0  0  0
 23 24  1  1  0  0  0
 23 30  1  0  0  0  0
 25 26  1  6  0  0  0
 25 32  1  0  0  0  0
 27  2  1  1  0  0  0
 27 34  1  0  0  0  0
 28 29  1  0  0  0  0
 28 36  1  1  0  0  0
 30 31  1  1  0  0  0
 30 38  1  0  0  0  0
 32 33  1  0  0  0  0
 32 40  1  1  0  0  0
 34 35  1  6  0  0  0
 34 42  1  0  0  0  0
 36 37  1  0  0  0  0
 38 39  1  0  0  0  0
 38 45  1  6  0  0  0
 40 41  1  0  0  0  0
 42 43  1  6  0  0  0
 44 47  1  0  0  0  0
 45 46  1  0  0  0  0
 47 48  1  0  0  0  0
 48 49  1  0  0  0  0
 49  7  1  0  0  0  0
M  END
>  <CHROM.1>
159.68168850,5.46998062,94.79321042,73.73230446,-164.74578388,64.62027084
-12.38402075,32.36558454,172.08629835,64.54603138,-81.16673945,-173.21317969
80.16620164,100.42122570,83.39233395,67.60814563,41.42367540,4.69165847,-1.59629730
-1.71847740,-0.44394986,-2.57620915

>  <Name>
2bee_lig

>  <RI>
2.18182e+07

>  <Rbt.Current_Directory>
/home/itssahil/PROJECTS/Mol_Feturizer/New_Systems/rnas/2bee

>  <Rbt.Executable>
rbdock ($Id: //depot/dev/client3/rdock/2013.1/src/exe/rbdock.cxx#4 $)

>  <Rbt.Library>
libRbt.so (2013.1, Build901 2013/11/27)

>  <Rbt.Parameter_File>
/export/apps/rDock/src/rDock_2013.1_src/data/scripts/dock_solv.prm

>  <Rbt.Receptor>
prm/pocket_docking_3.prm

>  <SCORE>
5.79637

>  <SCORE.INTER>
6.81103

>  <SCORE.INTER.CONST>
1

>  <SCORE.INTER.POLAR>
-0.616464

>  <SCORE.INTER.ROT>
16

>  <SCORE.INTER.SOLV>
20.2407

>  <SCORE.INTER.VDW>
-14.418

>  <SCORE.INTER.norm>
0.139001

>  <SCORE.INTRA>
-2.60165

>  <SCORE.INTRA.DIHEDRAL>
-10.1586

>  <SCORE.INTRA.DIHEDRAL.0>
36.0842

>  <SCORE.INTRA.POLAR>
0

>  <SCORE.INTRA.POLAR.0>
0

>  <SCORE.INTRA.REPUL>
0

>  <SCORE.INTRA.REPUL.0>
0

>  <SCORE.INTRA.SOLV>
2.27242

>  <SCORE.INTRA.SOLV.lig_0>
-126.444

>  <SCORE.INTRA.VDW>
1.34146

>  <SCORE.INTRA.VDW.0>
-7.40469

>  <SCORE.INTRA.norm>
-0.053095

>  <SCORE.RESTR>
1.58699

>  <SCORE.RESTR.CAVITY>
1.58699

>  <SCORE.RESTR.norm>
0.0323876

>  <SCORE.SYSTEM>
0

>  <SCORE.SYSTEM.CONST>
0

>  <SCORE.SYSTEM.DIHEDRAL>
0

>  <SCORE.SYSTEM.SOLV>
0

>  <SCORE.SYSTEM.norm>
0

>  <SCORE.heavy>
49

>  <SCORE.norm>
0.118293

>  <RMSD>
8.407

$$$$
2bee_lig
 OpenBabel11021811423D
libRbt.so/2013.1/901 2013/11/27
 49 52  0  0  0  0  0  0  0  0999 V2000
   50.8566    0.4221   -5.3528 C   0  0  2  0  0  0  0  0  0  0  0  0
   50.1327   -0.0382   -4.2187 O   0  0  0  0  0  0  0  0  0  0  0  0
   46.5800   -1.7747   -6.1518 C   0  0  2  0  0  0  0  0  0  0  0  0
   45.3322   -2.5680   -6.3210 N   0  0  0  0  0  0  0  0  0  0  0  0
   46.8114    2.1950   -3.7507 C   0  0  1  0  0  0  0  0  0  0  0  0
   42.5567    1.1220   -2.7729 C   0  0  1  0  0  0  0  0  0  0  0  0
   43.8250    8.8297   -1.8929 C   0  0  0  0  0  0  0  0  0  0  0  0
   52.1920    1.1300   -4.9002 C   0  0  2  0  0  0  0  0  0  0  0  0
   52.9712    0.2331   -4.0535 N   0  0  0  0  0  0  0  0  0  0  0  0
   47.7520   -2.7339   -5.6475 C   0  0  0  0  0  0  0  0  0  0  0  0
   45.6839    3.0721   -4.1893 C   0  0  2  0  0  0  0  0  0  0  0  0
   46.0485    4.4988   -4.2299 O   0  0  0  0  0  0  0  0  0  0  0  0
   42.8871    0.1068   -3.9941 C   0  0  2  0  0  0  0  0  0  0  0  0
   42.4962    0.7790   -5.2780 N   0  0  0  0  0  0  0  0  0  0  0  0
   42.9208    9.7395   -1.2966 C   0  0  0  0  0  0  0  0  0  0  0  0
   42.7130    9.7098    0.0806 N   0  0  0  0  0  0  0  0  0  0  0  0
   51.8387    2.4867   -4.1475 C   0  0  1  0  0  0  0  0  0  0  0  0
   53.0462    3.1187   -3.7483 O   0  0  0  0  0  0  0  0  0  0  0  0
   49.1392   -1.8956   -5.4363 C   0  0  2  0  0  0  0  0  0  0  0  0
   50.1932   -2.7445   -4.9951 N   0  0  0  0  0  0  0  0  0  0  0  0
   44.6615    2.5399   -3.2146 C   0  0  2  0  0  0  0  0  0  0  0  0
   43.3102    2.3229   -3.0663 O   0  0  0  0  0  0  0  0  0  0  0  0
   42.0602   -1.2112   -3.7818 C   0  0  1  0  0  0  0  0  0  0  0  0
   42.5106   -1.8131   -2.5182 O   0  0  0  0  0  0  0  0  0  0  0  0
   51.0197    3.3924   -5.0964 C   0  0  2  0  0  0  0  0  0  0  0  0
   50.6546    4.6666   -4.4262 O   0  0  0  0  0  0  0  0  0  0  0  0
   48.9121   -0.7415   -4.3839 C   0  0  2  0  0  0  0  0  0  0  0  0
   45.5398    2.2531   -1.8979 C   0  0  2  0  0  0  0  0  0  0  0  0
   46.6846    1.7597   -2.4272 O   0  0  0  0  0  0  0  0  0  0  0  0
   40.4704   -0.8449   -3.7395 C   0  0  2  0  0  0  0  0  0  0  0  0
   40.0292   -0.2375   -5.0154 O   0  0  0  0  0  0  0  0  0  0  0  0
   49.7011    2.6772   -5.5429 C   0  0  2  0  0  0  0  0  0  0  0  0
   50.1324    1.4452   -6.1757 O   0  0  0  0  0  0  0  0  0  0  0  0
   47.7546    0.1652   -4.9231 C   0  0  2  0  0  0  0  0  0  0  0  0
   47.6542    1.1597   -3.9328 O   0  0  0  0  0  0  0  0  0  0  0  0
   45.0185    1.1675   -0.8852 C   0  0  0  0  0  0  0  0  0  0  0  0
   45.2176   -0.1646   -1.4556 O   0  0  0  0  0  0  0  0  0  0  0  0
   40.1777    0.1875   -2.5615 C   0  0  1  0  0  0  0  0  0  0  0  0
   41.0477    1.4015   -2.8121 O   0  0  0  0  0  0  0  0  0  0  0  0
   49.0012    3.5986   -6.4577 C   0  0  0  0  0  0  0  0  0  0  0  0
   49.6834    3.7290   -7.6035 O   0  0  0  0  0  0  0  0  0  0  0  0
   46.4119   -0.6670   -5.0880 C   0  0  1  0  0  0  0  0  0  0  0  0
   45.3914    0.1489   -5.5769 O   0  0  0  0  0  0  0  0  0  0  0  0
   45.1770    5.5832   -4.7111 C   0  0  0  0  0  0  0  0  0  0  0  0
   38.6403    0.4783   -2.6316 C   0  0  0  0  0  0  0  0  0  0  0  0
   37.8417   -0.6195   -2.1674 N   0  0  0  0  0  0  0  0  0  0  0  0
   44.0158    5.7687   -3.7333 C   0  0  0  0  0  0  0  0  0  0  0  0
   44.5570    6.4835   -2.5610 N   0  0  0  0  0  0  0  0  0  0  0  0
   43.5816    7.2647   -1.6780 C   0  0  0  0  0  0  0  0  0  0  0  0
  1  2  1  1  0  0  0
  1  8  1  0  0  0  0
  1 33  1  0  0  0  0
  3  4  1  1  0  0  0
  3 10  1  0  0  0  0
  3 42  1  0  0  0  0
  5 11  1  0  0  0  0
  5 29  1  0  0  0  0
  5 35  1  6  0  0  0
  6 13  1  0  0  0  0
  6 39  1  0  0  0  0
  6 22  1  6  0  0  0
  7 15  1  0  0  0  0
  8  9  1  1  0  0  0
  8 17  1  0  0  0  0
 10 19  1  0  0  0  0
 11 12  1  1  0  0  0
 11 21  1  0  0  0  0
 12 44  1  0  0  0  0
 13 14  1  6  0  0  0
 13 23  1  0  0  0  0
 15 16  1  0  0  0  0
 17 18  1  6  0  0  0
 17 25  1  0  0  0  0
 19 20  1  1  0  0  0
 19 27  1  0  0  0  0
 21 22  1  1  0  0  0
 21 28  1  0  0  0  0
 23 24  1  1  0  0  0
 23 30  1  0  0  0  0
 25 26  1  1  0  0  0
 25 32  1  0  0  0  0
 27  2  1  6  0  0  0
 27 34  1  0  0  0  0
 28 29  1  0  0  0  0
 28 36  1  1  0  0  0
 30 31  1  6  0  0  0
 30 38  1  0  0  0  0
 32 33  1  0  0  0  0
 32 40  1  6  0  0  0
 34 35  1  1  0  0  0
 34 42  1  0  0  0  0
 36 37  1  0  0  0  0
 38 39  1  0  0  0  0
 38 45  1  6  0  0  0
 40 41  1  0  0  0  0
 42 43  1  6  0  0  0
 44 47  1  0  0  0  0
 45 46  1  0  0  0  0
 47 48  1  0  0  0  0
 48 49  1  0  0  0  0
 49  7  1  0  0  0  0
M  END
>  <CHROM.1>
-178.25769449,-5.10566995,-60.54418806,57.14802567,175.51567201,68.88857037
123.27526267,49.79064525,73.38140683,68.30279159,-175.68968709,73.05622912
76.23673163,157.30925706,-108.87846861,172.36260231,45.98176247,1.80687630
-3.92299685,0.18819610,-0.21711239,-2.90683427

>  <Name>
2bee_lig

>  <RI>
0

>  <Rbt.Current_Directory>
/home/itssahil/PROJECTS/Mol_Feturizer/New_Systems/rnas/2bee

>  <Rbt.Executable>
rbdock ($Id: //depot/dev/client3/rdock/2013.1/src/exe/rbdock.cxx#4 $)

>  <Rbt.Library>
libRbt.so (2013.1, Build901 2013/11/27)

>  <Rbt.Parameter_File>
/export/apps/rDock/src/rDock_2013.1_src/data/scripts/dock_solv.prm

>  <Rbt.Receptor>
prm/pocket_docking_7.prm

>  <SCORE>
-19.3345

>  <SCORE.INTER>
-8.86193

>  <SCORE.INTER.CONST>
1

>  <SCORE.INTER.POLAR>
-2.51889

>  <SCORE.INTER.ROT>
16

>  <SCORE.INTER.SOLV>
18.0192

>  <SCORE.INTER.VDW>
-17.7847

>  <SCORE.INTER.norm>
-0.180856

>  <SCORE.INTRA>
-10.4726

>  <SCORE.INTRA.DIHEDRAL>
-21.8279

>  <SCORE.INTRA.DIHEDRAL.0>
36.0842

>  <SCORE.INTRA.POLAR>
0

>  <SCORE.INTRA.POLAR.0>
0

>  <SCORE.INTRA.REPUL>
0

>  <SCORE.INTRA.REPUL.0>
0

>  <SCORE.INTRA.SOLV>
1.33612

>  <SCORE.INTRA.SOLV.lig_0>
-126.444

>  <SCORE.INTRA.VDW>
-0.226668

>  <SCORE.INTRA.VDW.0>
-7.40469

>  <SCORE.INTRA.norm>
-0.213726

>  <SCORE.RESTR>
0

>  <SCORE.RESTR.CAVITY>
0

>  <SCORE.RESTR.norm>
0

>  <SCORE.SYSTEM>
0

>  <SCORE.SYSTEM.CONST>
0

>  <SCORE.SYSTEM.DIHEDRAL>
0

>  <SCORE.SYSTEM.SOLV>
0

>  <SCORE.SYSTEM.norm>
0

>  <SCORE.heavy>
49

>  <SCORE.norm>
-0.394581

>  <RMSD>
8.413

$$$$
2bee_lig
 OpenBabel11021811423D
libRbt.so/2013.1/901 2013/11/27
 49 52  0  0  0  0  0  0  0  0999 V2000
   44.2099    6.3842   -3.2752 C   0  0  2  0  0  0  0  0  0  0  0  0
   42.9225    6.2880   -3.8714 O   0  0  0  0  0  0  0  0  0  0  0  0
   41.1862    4.6318   -7.5615 C   0  0  2  0  0  0  0  0  0  0  0  0
   41.0108    3.7468   -8.7450 N   0  0  0  0  0  0  0  0  0  0  0  0
   40.4144    3.1347   -3.2961 C   0  0  1  0  0  0  0  0  0  0  0  0
   40.3474   -1.6243   -2.5803 C   0  0  1  0  0  0  0  0  0  0  0  0
   40.4895    3.8290    1.3336 C   0  0  0  0  0  0  0  0  0  0  0  0
   44.3593    5.3210   -2.1192 C   0  0  2  0  0  0  0  0  0  0  0  0
   44.0662    3.9852   -2.6276 N   0  0  0  0  0  0  0  0  0  0  0  0
   42.6445    5.2798   -7.5973 C   0  0  0  0  0  0  0  0  0  0  0  0
   39.4996    1.9701   -3.4947 C   0  0  2  0  0  0  0  0  0  0  0  0
   38.1876    2.1540   -2.8506 O   0  0  0  0  0  0  0  0  0  0  0  0
   41.0405   -2.8340   -3.4094 C   0  0  2  0  0  0  0  0  0  0  0  0
   40.6277   -2.7104   -4.8472 N   0  0  0  0  0  0  0  0  0  0  0  0
   40.0014    5.1532    1.4292 C   0  0  0  0  0  0  0  0  0  0  0  0
   39.6847    5.6881    2.6759 N   0  0  0  0  0  0  0  0  0  0  0  0
   43.3957    5.7143   -0.9156 C   0  0  1  0  0  0  0  0  0  0  0  0
   43.5405    4.7548    0.1214 O   0  0  0  0  0  0  0  0  0  0  0  0
   42.8815    6.2505   -6.3039 C   0  0  2  0  0  0  0  0  0  0  0  0
   44.1767    6.8405   -6.3316 N   0  0  0  0  0  0  0  0  0  0  0  0
   40.4692    0.9082   -3.0354 C   0  0  2  0  0  0  0  0  0  0  0  0
   40.8062   -0.4128   -3.2265 O   0  0  0  0  0  0  0  0  0  0  0  0
   40.5481   -4.1968   -2.8041 C   0  0  1  0  0  0  0  0  0  0  0  0
   41.0030   -4.2463   -1.4068 O   0  0  0  0  0  0  0  0  0  0  0  0
   43.7594    7.1334   -0.4202 C   0  0  2  0  0  0  0  0  0  0  0  0
   42.8713    7.5472    0.6961 O   0  0  0  0  0  0  0  0  0  0  0  0
   42.7052    5.4209   -4.9728 C   0  0  2  0  0  0  0  0  0  0  0  0
   41.2648    1.6426   -1.8457 C   0  0  2  0  0  0  0  0  0  0  0  0
   41.4028    2.8979   -2.3347 O   0  0  0  0  0  0  0  0  0  0  0  0
   38.9212   -4.2726   -2.9093 C   0  0  2  0  0  0  0  0  0  0  0  0
   38.4752   -4.2194   -4.3198 O   0  0  0  0  0  0  0  0  0  0  0  0
   43.6131    8.1777   -1.5768 C   0  0  2  0  0  0  0  0  0  0  0  0
   44.4947    7.7065   -2.6280 O   0  0  0  0  0  0  0  0  0  0  0  0
   41.2649    4.8063   -4.9894 C   0  0  2  0  0  0  0  0  0  0  0  0
   41.2087    4.1176   -3.7636 O   0  0  0  0  0  0  0  0  0  0  0  0
   42.7166    1.1387   -1.5080 C   0  0  0  0  0  0  0  0  0  0  0  0
   43.2590    1.9260   -0.4010 O   0  0  0  0  0  0  0  0  0  0  0  0
   38.2646   -3.0502   -2.1260 C   0  0  1  0  0  0  0  0  0  0  0  0
   38.8281   -1.7826   -2.7336 O   0  0  0  0  0  0  0  0  0  0  0  0
   44.0005    9.4889   -1.0233 C   0  0  0  0  0  0  0  0  0  0  0  0
   44.4071   10.3088   -2.0019 O   0  0  0  0  0  0  0  0  0  0  0  0
   41.0733    3.8433   -6.2377 C   0  0  1  0  0  0  0  0  0  0  0  0
   39.7845    3.3092   -6.2464 O   0  0  0  0  0  0  0  0  0  0  0  0
   37.9705    2.7601   -1.5268 C   0  0  0  0  0  0  0  0  0  0  0  0
   36.7183   -3.2150   -2.3127 C   0  0  0  0  0  0  0  0  0  0  0  0
   36.2984   -3.0481   -3.6745 N   0  0  0  0  0  0  0  0  0  0  0  0
   38.5690    1.8518   -0.4518 C   0  0  0  0  0  0  0  0  0  0  0  0
   38.3559    2.5275    0.8429 N   0  0  0  0  0  0  0  0  0  0  0  0
   39.5403    2.6328    1.8060 C   0  0  0  0  0  0  0  0  0  0  0  0
  1  2  1  1  0  0  0
  1  8  1  0  0  0  0
  1 33  1  0  0  0  0
  3  4  1  6  0  0  0
  3 10  1  0  0  0  0
  3 42  1  0  0  0  0
  5 11  1  0  0  0  0
  5 29  1  0  0  0  0
  5 35  1  6  0  0  0
  6 13  1  0  0  0  0
  6 39  1  0  0  0  0
  6 22  1  6  0  0  0
  7 15  1  0  0  0  0
  8  9  1  6  0  0  0
  8 17  1  0  0  0  0
 10 19  1  0  0  0  0
 11 12  1  1  0  0  0
 11 21  1  0  0  0  0
 12 44  1  0  0  0  0
 13 14  1  6  0  0  0
 13 23  1  0  0  0  0
 15 16  1  0  0  0  0
 17 18  1  1  0  0  0
 17 25  1  0  0  0  0
 19 20  1  6  0  0  0
 19 27  1  0  0  0  0
 21 22  1  1  0  0  0
 21 28  1  0  0  0  0
 23 24  1  1  0  0  0
 23 30  1  0  0  0  0
 25 26  1  1  0  0  0
 25 32  1  0  0  0  0
 27  2  1  1  0  0  0
 27 34  1  0  0  0  0
 28 29  1  0  0  0  0
 28 36  1  6  0  0  0
 30 31  1  6  0  0  0
 30 38  1  0  0  0  0
 32 33  1  0  0  0  0
 32 40  1  1  0  0  0
 34 35  1  1  0  0  0
 34 42  1  0  0  0  0
 36 37  1  0  0  0  0
 38 39  1  0  0  0  0
 38 45  1  6  0  0  0
 40 41  1  0  0  0  0
 42 43  1  1  0  0  0
 44 47  1  0  0  0  0
 45 46  1  0  0  0  0
 47 48  1  0  0  0  0
 48 49  1  0  0  0  0
 49  7  1  0  0  0  0
M  END
>  <CHROM.1>
-89.70204586,23.92624638,173.94860365,62.74838251,-40.23103958,-66.69819554
-89.59923084,-93.98451727,-179.70156321,155.84598637,-161.22830897,-65.99097697
178.40698658,-132.31980417,79.23131400,67.76456551,41.17263552,2.77781334
-2.65545711,-0.30241801,-1.13003298,-1.85944024

>  <Name>
2bee_lig

>  <RI>
0

>  <Rbt.Current_Directory>
/home/itssahil/PROJECTS/Mol_Feturizer/New_Systems/rnas/2bee

>  <Rbt.Executable>
rbdock ($Id: //depot/dev/client3/rdock/2013.1/src/exe/rbdock.cxx#4 $)

>  <Rbt.Library>
libRbt.so (2013.1, Build901 2013/11/27)

>  <Rbt.Parameter_File>
/export/apps/rDock/src/rDock_2013.1_src/data/scripts/dock_solv.prm

>  <Rbt.Receptor>
prm/pocket_docking_5.prm

>  <SCORE>
-11.1056

>  <SCORE.INTER>
-7.18525

>  <SCORE.INTER.CONST>
1

>  <SCORE.INTER.POLAR>
-1.69467

>  <SCORE.INTER.ROT>
16

>  <SCORE.INTER.SOLV>
11.4816

>  <SCORE.INTER.VDW>
-17.2351

>  <SCORE.INTER.norm>
-0.146638

>  <SCORE.INTRA>
-3.93583

>  <SCORE.INTRA.DIHEDRAL>
-12.4932

>  <SCORE.INTRA.DIHEDRAL.0>
36.0842

>  <SCORE.INTRA.POLAR>
0

>  <SCORE.INTRA.POLAR.0>
0

>  <SCORE.INTRA.REPUL>
0.0205992

>  <SCORE.INTRA.REPUL.0>
0

>  <SCORE.INTRA.SOLV>
5.12634

>  <SCORE.INTRA.SOLV.lig_0>
-126.444

>  <SCORE.INTRA.VDW>
-0.355404

>  <SCORE.INTRA.VDW.0>
-7.40469

>  <SCORE.INTRA.norm>
-0.0803231

>  <SCORE.RESTR>
0.0154543

>  <SCORE.RESTR.CAVITY>
0.0154543

>  <SCORE.RESTR.norm>
0.000315393

>  <SCORE.SYSTEM>
0

>  <SCORE.SYSTEM.CONST>
0

>  <SCORE.SYSTEM.DIHEDRAL>
0

>  <SCORE.SYSTEM.SOLV>
0

>  <SCORE.SYSTEM.norm>
0

>  <SCORE.heavy>
49

>  <SCORE.norm>
-0.226645

>  <RMSD>
8.416

$$$$
2bee_lig
 OpenBabel11021811423D
libRbt.so/2013.1/901 2013/11/27
 49 52  0  0  0  0  0  0  0  0999 V2000
   41.2329    6.4207   -4.8099 C   0  0  2  0  0  0  0  0  0  0  0  0
   42.0073    5.6117   -3.9337 O   0  0  0  0  0  0  0  0  0  0  0  0
   44.1867    6.4509   -0.2027 C   0  0  2  0  0  0  0  0  0  0  0  0
   44.4580    6.9588    1.1697 N   0  0  0  0  0  0  0  0  0  0  0  0
   41.4445    2.8266   -1.0505 C   0  0  1  0  0  0  0  0  0  0  0  0
   40.1459   -1.7639   -1.6760 C   0  0  1  0  0  0  0  0  0  0  0  0
   40.0457    6.9546    4.1410 C   0  0  0  0  0  0  0  0  0  0  0  0
   40.3998    5.5161   -5.7981 C   0  0  2  0  0  0  0  0  0  0  0  0
   39.5941    4.5619   -5.0437 N   0  0  0  0  0  0  0  0  0  0  0  0
   43.7163    7.6612   -1.1309 C   0  0  0  0  0  0  0  0  0  0  0  0
   40.4945    1.8100   -0.5060 C   0  0  2  0  0  0  0  0  0  0  0  0
   40.6105    1.6387    0.9526 O   0  0  0  0  0  0  0  0  0  0  0  0
   41.5874   -2.4731   -1.8997 C   0  0  2  0  0  0  0  0  0  0  0  0
   41.9576   -2.3306   -3.3473 N   0  0  0  0  0  0  0  0  0  0  0  0
   41.2726    6.7996    4.8278 C   0  0  0  0  0  0  0  0  0  0  0  0
   41.4298    7.3452    6.1000 N   0  0  0  0  0  0  0  0  0  0  0  0
   41.3925    4.7808   -6.8010 C   0  0  1  0  0  0  0  0  0  0  0  0
   40.6336    3.9730   -7.6891 O   0  0  0  0  0  0  0  0  0  0  0  0
   43.3950    7.1407   -2.6467 C   0  0  2  0  0  0  0  0  0  0  0  0
   42.9831    8.2150   -3.4849 N   0  0  0  0  0  0  0  0  0  0  0  0
   40.8549    0.7037   -1.4678 C   0  0  2  0  0  0  0  0  0  0  0  0
   40.3280   -0.3945   -2.1090 O   0  0  0  0  0  0  0  0  0  0  0  0
   41.4626   -3.9876   -1.5036 C   0  0  1  0  0  0  0  0  0  0  0  0
   41.1147   -4.0406   -0.0760 O   0  0  0  0  0  0  0  0  0  0  0  0
   42.2111    5.8430   -7.5711 C   0  0  2  0  0  0  0  0  0  0  0  0
   43.1640    5.1974   -8.5098 O   0  0  0  0  0  0  0  0  0  0  0  0
   42.2669    6.0376   -2.6058 C   0  0  2  0  0  0  0  0  0  0  0  0
   42.4381    0.9069   -1.6674 C   0  0  2  0  0  0  0  0  0  0  0  0
   42.5452    2.2566   -1.6993 O   0  0  0  0  0  0  0  0  0  0  0  0
   40.3155   -4.6899   -2.4279 C   0  0  2  0  0  0  0  0  0  0  0  0
   40.6754   -4.6282   -3.8626 O   0  0  0  0  0  0  0  0  0  0  0  0
   43.0281    6.7375   -6.5801 C   0  0  2  0  0  0  0  0  0  0  0  0
   42.0402    7.3234   -5.6941 O   0  0  0  0  0  0  0  0  0  0  0  0
   42.7756    4.8792   -1.6828 C   0  0  2  0  0  0  0  0  0  0  0  0
   41.7171    3.9536   -1.7368 O   0  0  0  0  0  0  0  0  0  0  0  0
   43.0870    0.3815   -3.0011 C   0  0  0  0  0  0  0  0  0  0  0  0
   44.5282    0.6293   -2.9709 O   0  0  0  0  0  0  0  0  0  0  0  0
   38.9197   -3.9484   -2.2255 C   0  0  1  0  0  0  0  0  0  0  0  0
   39.1385   -2.4917   -2.5772 O   0  0  0  0  0  0  0  0  0  0  0  0
   43.7539    7.7296   -7.3954 C   0  0  0  0  0  0  0  0  0  0  0  0
   44.5168    8.5082   -6.6163 O   0  0  0  0  0  0  0  0  0  0  0  0
   43.0488    5.4059   -0.2096 C   0  0  1  0  0  0  0  0  0  0  0  0
   43.5095    4.3675    0.6002 O   0  0  0  0  0  0  0  0  0  0  0  0
   39.9961    2.5177    1.9610 C   0  0  0  0  0  0  0  0  0  0  0  0
   37.9115   -4.6884   -3.1684 C   0  0  0  0  0  0  0  0  0  0  0  0
   37.5807   -6.0068   -2.7091 N   0  0  0  0  0  0  0  0  0  0  0  0
   40.3847    3.9680    1.6700 C   0  0  0  0  0  0  0  0  0  0  0  0
   39.9863    4.7600    2.8498 N   0  0  0  0  0  0  0  0  0  0  0  0
   39.8903    6.2798    2.7004 C   0  0  0  0  0  0  0  0  0  0  0  0
  1  2  1  6  0  0  0
  1  8  1  0  0  0  0
  1 33  1  0  0  0  0
  3  4  1  1  0  0  0
  3 10  1  0  0  0  0
  3 42  1  0  0  0  0
  5 11  1  0  0  0  0
  5 29  1  0  0  0  0
  5 35  1  6  0  0  0
  6 13  1  0  0  0  0
  6 39  1  0  0  0  0
  6 22  1  6  0  0  0
  7 15  1  0  0  0  0
  8  9  1  1  0  0  0
  8 17  1  0  0  0  0
 10 19  1  0  0  0  0
 11 12  1  1  0  0  0
 11 21  1  0  0  0  0
 12 44  1  0  0  0  0
 13 14  1  6  0  0  0
 13 23  1  0  0  0  0
 15 16  1  0  0  0  0
 17 18  1  6  0  0  0
 17 25  1  0  0  0  0
 19 20  1  6  0  0  0
 19 27  1  0  0  0  0
 21 22  1  1  0  0  0
 21 28  1  0  0  0  0
 23 24  1  1  0  0  0
 23 30  1  0  0  0  0
 25 26  1  6  0  0  0
 25 32  1  0  0  0  0
 27  2  1  6  0  0  0
 27 34  1  0  0  0  0
 28 29  1  0  0  0  0
 28 36  1  6  0  0  0
 30 31  1  6  0  0  0
 30 38  1  0  0  0  0
 32 33  1  0  0  0  0
 32 40  1  6  0  0  0
 34 35  1  1  0  0  0
 34 42  1  0  0  0  0
 36 37  1  0  0  0  0
 38 39  1  0  0  0  0
 38 45  1  6  0  0  0
 40 41  1  0  0  0  0
 42 43  1  1  0  0  0
 44 47  1  0  0  0  0
 45 46  1  0  0  0  0
 47 48  1  0  0  0  0
 48 49  1  0  0  0  0
 49  7  1  0  0  0  0
M  END
>  <CHROM.1>
-147.13629008,154.35284872,-82.04146850,-178.33275584,81.14889257,-52.61201548
-83.54329134,-76.97830203,-178.52391464,-177.89230592,-170.62889456,70.97855116
-168.45741745,-163.26574846,-156.98720364,63.94449800,41.56524642,2.87475273
-2.13203518,-0.35743844,-1.31282064,-1.99732307

>  <Name>
2bee_lig

>  <RI>
0

>  <Rbt.Current_Directory>
/home/itssahil/PROJECTS/Mol_Feturizer/New_Systems/rnas/2bee

>  <Rbt.Executable>
rbdock ($Id: //depot/dev/client3/rdock/2013.1/src/exe/rbdock.cxx#4 $)

>  <Rbt.Library>
libRbt.so (2013.1, Build901 2013/11/27)

>  <Rbt.Parameter_File>
/export/apps/rDock/src/rDock_2013.1_src/data/scripts/dock_solv.prm

>  <Rbt.Receptor>
prm/pocket_docking_8.prm

>  <SCORE>
-15.0835

>  <SCORE.INTER>
-9.67314

>  <SCORE.INTER.CONST>
1

>  <SCORE.INTER.POLAR>
-0.938083

>  <SCORE.INTER.ROT>
16

>  <SCORE.INTER.SOLV>
18.0241

>  <SCORE.INTER.VDW>
-23.5965

>  <SCORE.INTER.norm>
-0.197411

>  <SCORE.INTRA>
-5.41039

>  <SCORE.INTRA.DIHEDRAL>
-16.9833

>  <SCORE.INTRA.DIHEDRAL.0>
36.0842

>  <SCORE.INTRA.POLAR>
0

>  <SCORE.INTRA.POLAR.0>
0

>  <SCORE.INTRA.REPUL>
0.00735381

>  <SCORE.INTRA.REPUL.0>
0

>  <SCORE.INTRA.SOLV>
0.658508

>  <SCORE.INTRA.SOLV.lig_0>
-126.444

>  <SCORE.INTRA.VDW>
2.71525

>  <SCORE.INTRA.VDW.0>
-7.40469

>  <SCORE.INTRA.norm>
-0.110416

>  <SCORE.RESTR>
0

>  <SCORE.RESTR.CAVITY>
0

>  <SCORE.RESTR.norm>
0

>  <SCORE.SYSTEM>
0

>  <SCORE.SYSTEM.CONST>
0

>  <SCORE.SYSTEM.DIHEDRAL>
0

>  <SCORE.SYSTEM.SOLV>
0

>  <SCORE.SYSTEM.norm>
0

>  <SCORE.heavy>
49

>  <SCORE.norm>
-0.307827

>  <RMSD>
8.448

$$$$
2bee_lig
 OpenBabel11021811423D
libRbt.so/2013.1/901 2013/11/27
 49 52  0  0  0  0  0  0  0  0999 V2000
   40.4055   10.8587   -0.2016 C   0  0  2  0  0  0  0  0  0  0  0  0
   41.7317   10.3945    0.0170 O   0  0  0  0  0  0  0  0  0  0  0  0
   43.6208    6.5701    1.1029 C   0  0  2  0  0  0  0  0  0  0  0  0
   43.8586    5.1026    1.1733 N   0  0  0  0  0  0  0  0  0  0  0  0
   43.2630    8.6373   -2.9151 C   0  0  1  0  0  0  0  0  0  0  0  0
   41.3144    4.5947   -2.8781 C   0  0  1  0  0  0  0  0  0  0  0  0
   42.5697    3.0468   -7.5561 C   0  0  0  0  0  0  0  0  0  0  0  0
   40.4175   12.3864   -0.5952 C   0  0  2  0  0  0  0  0  0  0  0  0
   41.2916   12.6000   -1.7437 N   0  0  0  0  0  0  0  0  0  0  0  0
   42.1411    6.8907    1.6083 C   0  0  0  0  0  0  0  0  0  0  0  0
   43.5245    7.6452   -4.0014 C   0  0  2  0  0  0  0  0  0  0  0  0
   43.7983    8.2779   -5.3033 O   0  0  0  0  0  0  0  0  0  0  0  0
   42.6111    4.1692   -2.0014 C   0  0  2  0  0  0  0  0  0  0  0  0
   43.6279    3.5739   -2.9314 N   0  0  0  0  0  0  0  0  0  0  0  0
   41.9223    2.0389   -8.3083 C   0  0  0  0  0  0  0  0  0  0  0  0
   42.4458    0.7482   -8.3349 N   0  0  0  0  0  0  0  0  0  0  0  0
   40.8782   13.2490    0.6601 C   0  0  1  0  0  0  0  0  0  0  0  0
   40.8815   14.6222    0.2978 O   0  0  0  0  0  0  0  0  0  0  0  0
   41.8358    8.4947    1.5335 C   0  0  2  0  0  0  0  0  0  0  0  0
   40.5210    8.7919    1.9909 N   0  0  0  0  0  0  0  0  0  0  0  0
   42.2921    6.8051   -3.7689 C   0  0  2  0  0  0  0  0  0  0  0  0
   41.8183    5.5169   -3.8738 O   0  0  0  0  0  0  0  0  0  0  0  0
   42.1597    3.1193   -0.9244 C   0  0  1  0  0  0  0  0  0  0  0  0
   41.1812    3.7813   -0.0492 O   0  0  0  0  0  0  0  0  0  0  0  0
   39.9122   12.9829    1.8380 C   0  0  2  0  0  0  0  0  0  0  0  0
   40.3161   13.7587    3.0383 O   0  0  0  0  0  0  0  0  0  0  0  0
   42.0086    9.0037    0.0495 C   0  0  2  0  0  0  0  0  0  0  0  0
   41.1866    7.8998   -3.3600 C   0  0  2  0  0  0  0  0  0  0  0  0
   41.9067    8.7510   -2.5912 O   0  0  0  0  0  0  0  0  0  0  0  0
   41.5124    1.8242   -1.6777 C   0  0  2  0  0  0  0  0  0  0  0  0
   42.5056    1.1678   -2.5575 O   0  0  0  0  0  0  0  0  0  0  0  0
   39.9046   11.4638    2.2150 C   0  0  2  0  0  0  0  0  0  0  0  0
   39.5138   10.7728    1.0009 O   0  0  0  0  0  0  0  0  0  0  0  0
   43.4705    8.6629   -0.3970 C   0  0  2  0  0  0  0  0  0  0  0  0
   43.5207    9.1748   -1.7068 O   0  0  0  0  0  0  0  0  0  0  0  0
   39.9725    7.4281   -2.4774 C   0  0  0  0  0  0  0  0  0  0  0  0
   39.2417    8.5980   -1.9910 O   0  0  0  0  0  0  0  0  0  0  0  0
   40.2691    2.2734   -2.5674 C   0  0  1  0  0  0  0  0  0  0  0  0
   40.7763    3.3181   -3.5395 O   0  0  0  0  0  0  0  0  0  0  0  0
   38.9450   11.3010    3.3233 C   0  0  0  0  0  0  0  0  0  0  0  0
   37.7187   11.6824    2.9409 O   0  0  0  0  0  0  0  0  0  0  0  0
   43.7289    7.0967   -0.3455 C   0  0  1  0  0  0  0  0  0  0  0  0
   45.0362    6.8066   -0.7368 O   0  0  0  0  0  0  0  0  0  0  0  0
   44.0202    7.5560   -6.5669 C   0  0  0  0  0  0  0  0  0  0  0  0
   39.7485    0.9641   -3.2514 C   0  0  0  0  0  0  0  0  0  0  0  0
   40.6237    0.4860   -4.2830 N   0  0  0  0  0  0  0  0  0  0  0  0
   42.7108    6.9026   -7.0112 C   0  0  0  0  0  0  0  0  0  0  0  0
   42.8565    5.4534   -6.7731 N   0  0  0  0  0  0  0  0  0  0  0  0
   41.9102    4.5021   -7.5086 C   0  0  0  0  0  0  0  0  0  0  0  0
  1  2  1  1  0  0  0
  1  8  1  0  0  0  0
  1 33  1  0  0  0  0
  3  4  1  6  0  0  0
  3 10  1  0  0  0  0
  3 42  1  0  0  0  0
  5 11  1  0  0  0  0
  5 29  1  0  0  0  0
  5 35  1  1  0  0  0
  6 13  1  0  0  0  0
  6 39  1  0  0  0  0
  6 22  1  6  0  0  0
  7 15  1  0  0  0  0
  8  9  1  6  0  0  0
  8 17  1  0  0  0  0
 10 19  1  0  0  0  0
 11 12  1  6  0  0  0
 11 21  1  0  0  0  0
 12 44  1  0  0  0  0
 13 14  1  6  0  0  0
 13 23  1  0  0  0  0
 15 16  1  0  0  0  0
 17 18  1  6  0  0  0
 17 25  1  0  0  0  0
 19 20  1  6  0  0  0
 19 27  1  0  0  0  0
 21 22  1  6  0  0  0
 21 28  1  0  0  0  0
 23 24  1  1  0  0  0
 23 30  1  0  0  0  0
 25 26  1  1  0  0  0
 25 32  1  0  0  0  0
 27  2  1  1  0  0  0
 27 34  1  0  0  0  0
 28 29  1  0  0  0  0
 28 36  1  1  0  0  0
 30 31  1  6  0  0  0
 30 38  1  0  0  0  0
 32 33  1  0  0  0  0
 32 40  1  1  0  0  0
 34 35  1  6  0  0  0
 34 42  1  0  0  0  0
 36 37  1  0  0  0  0
 38 39  1  0  0  0  0
 38 45  1  6  0  0  0
 40 41  1  0  0  0  0
 42 43  1  1  0  0  0
 44 47  1  0  0  0  0
 45 46  1  0  0  0  0
 47 48  1  0  0  0  0
 48 49  1  0  0  0  0
 49  7  1  0  0  0  0
M  END
>  <CHROM.1>
-164.09789765,-61.81337710,-70.28750132,-177.87352152,-176.61118777,69.06061591
118.72569683,-89.13398269,168.52030653,60.42695157,-91.12833534,-72.09681525
-106.90720721,-161.10542529,158.64274328,-173.82085764,41.68862405,7.20818075
-1.86951928,-2.24234777,-1.33108189,3.11098509

>  <Name>
2bee_lig

>  <RI>
0

>  <Rbt.Current_Directory>
/home/itssahil/PROJECTS/Mol_Feturizer/New_Systems/rnas/2bee

>  <Rbt.Executable>
rbdock ($Id: //depot/dev/client3/rdock/2013.1/src/exe/rbdock.cxx#4 $)

>  <Rbt.Library>
libRbt.so (2013.1, Build901 2013/11/27)

>  <Rbt.Parameter_File>
/export/apps/rDock/src/rDock_2013.1_src/data/scripts/dock_solv.prm

>  <Rbt.Receptor>
prm/pocket_docking_6.prm

>  <SCORE>
-11.6538

>  <SCORE.INTER>
-7.54641

>  <SCORE.INTER.CONST>
1

>  <SCORE.INTER.POLAR>
-2.16372

>  <SCORE.INTER.ROT>
16

>  <SCORE.INTER.SOLV>
15.4736

>  <SCORE.INTER.VDW>
-17.2431

>  <SCORE.INTER.norm>
-0.154008

>  <SCORE.INTRA>
-4.10741

>  <SCORE.INTRA.DIHEDRAL>
-16.2567

>  <SCORE.INTRA.DIHEDRAL.0>
36.0842

>  <SCORE.INTRA.POLAR>
0

>  <SCORE.INTRA.POLAR.0>
0

>  <SCORE.INTRA.REPUL>
0

>  <SCORE.INTRA.REPUL.0>
0

>  <SCORE.INTRA.SOLV>
7.16248

>  <SCORE.INTRA.SOLV.lig_0>
-126.444

>  <SCORE.INTRA.VDW>
0.439687

>  <SCORE.INTRA.VDW.0>
-7.40469

>  <SCORE.INTRA.norm>
-0.0838248

>  <SCORE.RESTR>
0

>  <SCORE.RESTR.CAVITY>
0

>  <SCORE.RESTR.norm>
0

>  <SCORE.SYSTEM>
0

>  <SCORE.SYSTEM.CONST>
0

>  <SCORE.SYSTEM.DIHEDRAL>
0

>  <SCORE.SYSTEM.SOLV>
0

>  <SCORE.SYSTEM.norm>
0

>  <SCORE.heavy>
49

>  <SCORE.norm>
-0.237833

>  <RMSD>
8.487

$$$$
2bee_lig
 OpenBabel11021811423D
libRbt.so/2013.1/901 2013/11/27
 49 52  0  0  0  0  0  0  0  0999 V2000
   50.5452    2.3997   -7.6700 C   0  0  2  0  0  0  0  0  0  0  0  0
   49.5061    1.9113   -6.8309 O   0  0  0  0  0  0  0  0  0  0  0  0
   46.6506    5.2610   -6.8375 C   0  0  2  0  0  0  0  0  0  0  0  0
   45.3546    5.9886   -6.7623 N   0  0  0  0  0  0  0  0  0  0  0  0
   47.9470    2.2096   -3.6634 C   0  0  1  0  0  0  0  0  0  0  0  0
   46.0588   -1.2803   -5.7418 C   0  0  1  0  0  0  0  0  0  0  0  0
   40.5359    1.4486    0.2641 C   0  0  0  0  0  0  0  0  0  0  0  0
   51.9104    1.6904   -7.3209 C   0  0  2  0  0  0  0  0  0  0  0  0
   51.7541    0.2417   -7.3935 N   0  0  0  0  0  0  0  0  0  0  0  0
   46.5687    4.1521   -7.9827 C   0  0  0  0  0  0  0  0  0  0  0  0
   46.6556    1.6220   -3.1948 C   0  0  2  0  0  0  0  0  0  0  0  0
   46.4494    1.7718   -1.7439 O   0  0  0  0  0  0  0  0  0  0  0  0
   45.5716   -0.0155   -6.6328 C   0  0  2  0  0  0  0  0  0  0  0  0
   44.2610    0.4660   -6.0819 N   0  0  0  0  0  0  0  0  0  0  0  0
   40.8178    1.2211    1.6314 C   0  0  0  0  0  0  0  0  0  0  0  0
   39.9465    0.4542    2.4017 N   0  0  0  0  0  0  0  0  0  0  0  0
   52.3907    2.1563   -5.8772 C   0  0  1  0  0  0  0  0  0  0  0  0
   53.6219    1.5167   -5.5738 O   0  0  0  0  0  0  0  0  0  0  0  0
   47.9717    3.3202   -8.0881 C   0  0  2  0  0  0  0  0  0  0  0  0
   47.9117    2.3345   -9.1133 N   0  0  0  0  0  0  0  0  0  0  0  0
   46.8386    0.2680   -3.8365 C   0  0  2  0  0  0  0  0  0  0  0  0
   46.1341   -0.7795   -4.3855 O   0  0  0  0  0  0  0  0  0  0  0  0
   45.4094   -0.4895   -8.1211 C   0  0  1  0  0  0  0  0  0  0  0  0
   46.7324   -0.9286   -8.5886 O   0  0  0  0  0  0  0  0  0  0  0  0
   52.5418    3.6952   -5.8671 C   0  0  2  0  0  0  0  0  0  0  0  0
   52.9748    4.1750   -4.5298 O   0  0  0  0  0  0  0  0  0  0  0  0
   48.2888    2.6284   -6.7053 C   0  0  2  0  0  0  0  0  0  0  0  0
   48.4193    0.0120   -3.6836 C   0  0  2  0  0  0  0  0  0  0  0  0
   48.9268    1.2448   -3.9216 O   0  0  0  0  0  0  0  0  0  0  0  0
   44.3183   -1.7018   -8.1809 C   0  0  2  0  0  0  0  0  0  0  0  0
   42.9915   -1.2488   -7.7057 O   0  0  0  0  0  0  0  0  0  0  0  0
   51.1829    4.3870   -6.2205 C   0  0  2  0  0  0  0  0  0  0  0  0
   50.8195    3.8667   -7.5250 O   0  0  0  0  0  0  0  0  0  0  0  0
   48.3547    3.7555   -5.6200 C   0  0  2  0  0  0  0  0  0  0  0  0
   48.6618    3.0390   -4.4487 O   0  0  0  0  0  0  0  0  0  0  0  0
   49.1128   -0.9563   -4.7119 C   0  0  0  0  0  0  0  0  0  0  0  0
   48.8173   -0.5115   -6.0736 O   0  0  0  0  0  0  0  0  0  0  0  0
   44.7961   -2.9138   -7.2633 C   0  0  1  0  0  0  0  0  0  0  0  0
   44.9778   -2.3634   -5.8641 O   0  0  0  0  0  0  0  0  0  0  0  0
   51.4261    5.8418   -6.2107 C   0  0  0  0  0  0  0  0  0  0  0  0
   50.2949    6.5076   -6.4796 O   0  0  0  0  0  0  0  0  0  0  0  0
   46.9694    4.5254   -5.5168 C   0  0  1  0  0  0  0  0  0  0  0  0
   47.0434    5.5320   -4.5537 O   0  0  0  0  0  0  0  0  0  0  0  0
   45.2952    1.2509   -0.9933 C   0  0  0  0  0  0  0  0  0  0  0  0
   43.6718   -3.9978   -7.3820 C   0  0  0  0  0  0  0  0  0  0  0  0
   42.4492   -3.6081   -6.7402 N   0  0  0  0  0  0  0  0  0  0  0  0
   44.0222    1.9451   -1.4798 C   0  0  0  0  0  0  0  0  0  0  0  0
   42.9169    1.4437   -0.6401 N   0  0  0  0  0  0  0  0  0  0  0  0
   41.6117    2.2419   -0.6124 C   0  0  0  0  0  0  0  0  0  0  0  0
  1  2  1  1  0  0  0
  1  8  1  0  0  0  0
  1 33  1  0  0  0  0
  3  4  1  1  0  0  0
  3 10  1  0  0  0  0
  3 42  1  0  0  0  0
  5 11  1  0  0  0  0
  5 29  1  0  0  0  0
  5 35  1  6  0  0  0
  6 13  1  0  0  0  0
  6 39  1  0  0  0  0
  6 22  1  1  0  0  0
  7 15  1  0  0  0  0
  8  9  1  1  0  0  0
  8 17  1  0  0  0  0
 10 19  1  0  0  0  0
 11 12  1  1  0  0  0
 11 21  1  0  0  0  0
 12 44  1  0  0  0  0
 13 14  1  1  0  0  0
 13 23  1  0  0  0  0
 15 16  1  0  0  0  0
 17 18  1  6  0  0  0
 17 25  1  0  0  0  0
 19 20  1  6  0  0  0
 19 27  1  0  0  0  0
 21 22  1  1  0  0  0
 21 28  1  0  0  0  0
 23 24  1  1  0  0  0
 23 30  1  0  0  0  0
 25 26  1  1  0  0  0
 25 32  1  0  0  0  0
 27  2  1  6  0  0  0
 27 34  1  0  0  0  0
 28 29  1  0  0  0  0
 28 36  1  6  0  0  0
 30 31  1  1  0  0  0
 30 38  1  0  0  0  0
 32 33  1  0  0  0  0
 32 40  1  6  0  0  0
 34 35  1  1  0  0  0
 34 42  1  0  0  0  0
 36 37  1  0  0  0  0
 38 39  1  0  0  0  0
 38 45  1  1  0  0  0
 40 41  1  0  0  0  0
 42 43  1  1  0  0  0
 44 47  1  0  0  0  0
 45 46  1  0  0  0  0
 47 48  1  0  0  0  0
 48 49  1  0  0  0  0
 49  7  1  0  0  0  0
M  END
>  <CHROM.1>
163.27506511,-15.15843068,-56.99908149,-175.57159873,-177.72602365,-63.80797280
112.83649221,33.71799225,53.87049507,-178.74354960,-72.74539165,-69.63546617
-176.69558559,162.45703559,175.53802302,61.95353227,47.13774711,1.54844373
-5.21612123,0.09730274,-0.57101675,-2.30843514

>  <Name>
2bee_lig

>  <RI>
0

>  <Rbt.Current_Directory>
/home/itssahil/PROJECTS/Mol_Feturizer/New_Systems/rnas/2bee

>  <Rbt.Executable>
rbdock ($Id: //depot/dev/client3/rdock/2013.1/src/exe/rbdock.cxx#4 $)

>  <Rbt.Library>
libRbt.so (2013.1, Build901 2013/11/27)

>  <Rbt.Parameter_File>
/export/apps/rDock/src/rDock_2013.1_src/data/scripts/dock_solv.prm

>  <Rbt.Receptor>
prm/pocket_docking_8.prm

>  <SCORE>
-14.6906

>  <SCORE.INTER>
-5.5988

>  <SCORE.INTER.CONST>
1

>  <SCORE.INTER.POLAR>
-0.848528

>  <SCORE.INTER.ROT>
16

>  <SCORE.INTER.SOLV>
9.9128

>  <SCORE.INTER.VDW>
-18.475

>  <SCORE.INTER.norm>
-0.114261

>  <SCORE.INTRA>
-9.09176

>  <SCORE.INTRA.DIHEDRAL>
-21.6817

>  <SCORE.INTRA.DIHEDRAL.0>
36.0842

>  <SCORE.INTRA.POLAR>
0

>  <SCORE.INTRA.POLAR.0>
0

>  <SCORE.INTRA.REPUL>
0.0103252

>  <SCORE.INTRA.REPUL.0>
0

>  <SCORE.INTRA.SOLV>
3.3084

>  <SCORE.INTRA.SOLV.lig_0>
-126.444

>  <SCORE.INTRA.VDW>
0.0432838

>  <SCORE.INTRA.VDW.0>
-7.40469

>  <SCORE.INTRA.norm>
-0.185546

>  <SCORE.RESTR>
0

>  <SCORE.RESTR.CAVITY>
0

>  <SCORE.RESTR.norm>
0

>  <SCORE.SYSTEM>
0

>  <SCORE.SYSTEM.CONST>
0

>  <SCORE.SYSTEM.DIHEDRAL>
0

>  <SCORE.SYSTEM.SOLV>
0

>  <SCORE.SYSTEM.norm>
0

>  <SCORE.heavy>
49

>  <SCORE.norm>
-0.299807

>  <RMSD>
8.487

$$$$
2bee_lig
 OpenBabel11021811423D
libRbt.so/2013.1/901 2013/11/27
 49 52  0  0  0  0  0  0  0  0999 V2000
   50.0324   -0.1829   -7.5779 C   0  0  2  0  0  0  0  0  0  0  0  0
   48.6263   -0.0750   -7.7609 O   0  0  0  0  0  0  0  0  0  0  0  0
   48.4344    0.8778  -12.0539 C   0  0  2  0  0  0  0  0  0  0  0  0
   47.8563    1.1274  -13.4023 N   0  0  0  0  0  0  0  0  0  0  0  0
   46.8431    2.8754   -8.2146 C   0  0  1  0  0  0  0  0  0  0  0  0
   44.0088    1.7331   -4.6872 C   0  0  1  0  0  0  0  0  0  0  0  0
   43.1201    7.5948   -9.4844 C   0  0  0  0  0  0  0  0  0  0  0  0
   50.3603   -0.6200   -6.0979 C   0  0  2  0  0  0  0  0  0  0  0  0
   49.6479   -1.8504   -5.7704 N   0  0  0  0  0  0  0  0  0  0  0  0
   47.9859   -0.5673  -11.5456 C   0  0  0  0  0  0  0  0  0  0  0  0
   45.4371    2.5667   -7.8141 C   0  0  2  0  0  0  0  0  0  0  0  0
   44.4377    3.2479   -8.6551 O   0  0  0  0  0  0  0  0  0  0  0  0
   44.1273    1.6408   -3.0721 C   0  0  2  0  0  0  0  0  0  0  0  0
   45.4715    1.0640   -2.7353 N   0  0  0  0  0  0  0  0  0  0  0  0
   44.1260    7.8475  -10.4462 C   0  0  0  0  0  0  0  0  0  0  0  0
   44.9353    8.9749  -10.3247 N   0  0  0  0  0  0  0  0  0  0  0  0
   49.9767    0.5616   -5.1036 C   0  0  1  0  0  0  0  0  0  0  0  0
   50.2796    0.1610   -3.7752 O   0  0  0  0  0  0  0  0  0  0  0  0
   48.5911   -0.8744  -10.0587 C   0  0  2  0  0  0  0  0  0  0  0  0
   48.2039   -2.1653   -9.6002 N   0  0  0  0  0  0  0  0  0  0  0  0
   45.5989    2.8929   -6.3491 C   0  0  2  0  0  0  0  0  0  0  0  0
   45.1268    2.5546   -5.1011 O   0  0  0  0  0  0  0  0  0  0  0  0
   42.9754    0.7145   -2.5418 C   0  0  1  0  0  0  0  0  0  0  0  0
   41.6998    1.3536   -2.8967 O   0  0  0  0  0  0  0  0  0  0  0  0
   50.7658    1.8312   -5.4993 C   0  0  2  0  0  0  0  0  0  0  0  0
   50.4248    2.9659   -4.6037 O   0  0  0  0  0  0  0  0  0  0  0  0
   48.0902    0.2222   -9.0401 C   0  0  2  0  0  0  0  0  0  0  0  0
   46.6120    4.1421   -6.3720 C   0  0  2  0  0  0  0  0  0  0  0  0
   47.4686    3.7897   -7.3600 O   0  0  0  0  0  0  0  0  0  0  0  0
   43.1182   -0.7612   -3.2240 C   0  0  2  0  0  0  0  0  0  0  0  0
   44.4069   -1.3935   -2.8619 O   0  0  0  0  0  0  0  0  0  0  0  0
   50.4366    2.2512   -6.9707 C   0  0  2  0  0  0  0  0  0  0  0  0
   50.7830    1.0991   -7.7813 O   0  0  0  0  0  0  0  0  0  0  0  0
   48.5517    1.6159   -9.5853 C   0  0  2  0  0  0  0  0  0  0  0  0
   48.0792    2.5043   -8.6018 O   0  0  0  0  0  0  0  0  0  0  0  0
   47.4941    4.4001   -5.0948 C   0  0  0  0  0  0  0  0  0  0  0  0
   48.1750    5.6879   -5.2265 O   0  0  0  0  0  0  0  0  0  0  0  0
   43.0441   -0.6400   -4.8111 C   0  0  1  0  0  0  0  0  0  0  0  0
   44.1491    0.3054   -5.2338 O   0  0  0  0  0  0  0  0  0  0  0  0
   51.2462    3.4480   -7.2672 C   0  0  0  0  0  0  0  0  0  0  0  0
   52.5519    3.1483   -7.2420 O   0  0  0  0  0  0  0  0  0  0  0  0
   47.9237    1.9017  -11.0158 C   0  0  1  0  0  0  0  0  0  0  0  0
   48.3489    3.1413  -11.4944 O   0  0  0  0  0  0  0  0  0  0  0  0
   43.0147    2.8819   -8.7458 C   0  0  0  0  0  0  0  0  0  0  0  0
   43.2121   -2.1005   -5.3513 C   0  0  0  0  0  0  0  0  0  0  0  0
   43.1950   -2.1724   -6.7841 N   0  0  0  0  0  0  0  0  0  0  0  0
   42.1617    4.1486   -8.6638 C   0  0  0  0  0  0  0  0  0  0  0  0
   42.6999    5.0893   -9.6656 N   0  0  0  0  0  0  0  0  0  0  0  0
   42.0366    6.4619   -9.7968 C   0  0  0  0  0  0  0  0  0  0  0  0
  1  2  1  1  0  0  0
  1  8  1  0  0  0  0
  1 33  1  0  0  0  0
  3  4  1  6  0  0  0
  3 10  1  0  0  0  0
  3 42  1  0  0  0  0
  5 11  1  0  0  0  0
  5 29  1  0  0  0  0
  5 35  1  1  0  0  0
  6 13  1  0  0  0  0
  6 39  1  0  0  0  0
  6 22  1  6  0  0  0
  7 15  1  0  0  0  0
  8  9  1  1  0  0  0
  8 17  1  0  0  0  0
 10 19  1  0  0  0  0
 11 12  1  6  0  0  0
 11 21  1  0  0  0  0
 12 44  1  0  0  0  0
 13 14  1  6  0  0  0
 13 23  1  0  0  0  0
 15 16  1  0  0  0  0
 17 18  1  1  0  0  0
 17 25  1  0  0  0  0
 19 20  1  1  0  0  0
 19 27  1  0  0  0  0
 21 22  1  6  0  0  0
 21 28  1  0  0  0  0
 23 24  1  6  0  0  0
 23 30  1  0  0  0  0
 25 26  1  1  0  0  0
 25 32  1  0  0  0  0
 27  2  1  1  0  0  0
 27 34  1  0  0  0  0
 28 29  1  0  0  0  0
 28 36  1  1  0  0  0
 30 31  1  6  0  0  0
 30 38  1  0  0  0  0
 32 33  1  0  0  0  0
 32 40  1  6  0  0  0
 34 35  1  1  0  0  0
 34 42  1  0  0  0  0
 36 37  1  0  0  0  0
 38 39  1  0  0  0  0
 38 45  1  6  0  0  0
 40 41  1  0  0  0  0
 42 43  1  6  0  0  0
 44 47  1  0  0  0  0
 45 46  1  0  0  0  0
 47 48  1  0  0  0  0
 48 49  1  0  0  0  0
 49  7  1  0  0  0  0
M  END
>  <CHROM.1>
-175.92528363,47.73667720,174.31590380,168.51694498,163.00666665,134.49110825
-9.75901551,57.19173764,-170.83444270,64.59659140,-67.28439418,-178.85953930
51.37564147,-179.51539446,119.67889039,72.91188248,46.67105815,1.97161604
-7.18621601,-0.09586255,-0.37012889,2.27499185

>  <Name>
2bee_lig

>  <RI>
0

>  <Rbt.Current_Directory>
/home/itssahil/PROJECTS/Mol_Feturizer/New_Systems/rnas/2bee

>  <Rbt.Executable>
rbdock ($Id: //depot/dev/client3/rdock/2013.1/src/exe/rbdock.cxx#4 $)

>  <Rbt.Library>
libRbt.so (2013.1, Build901 2013/11/27)

>  <Rbt.Parameter_File>
/export/apps/rDock/src/rDock_2013.1_src/data/scripts/dock_solv.prm

>  <Rbt.Receptor>
prm/pocket_docking_8.prm

>  <SCORE>
-12.4041

>  <SCORE.INTER>
-0.902158

>  <SCORE.INTER.CONST>
1

>  <SCORE.INTER.POLAR>
-1.172

>  <SCORE.INTER.ROT>
16

>  <SCORE.INTER.SOLV>
13.7964

>  <SCORE.INTER.VDW>
-15.5602

>  <SCORE.INTER.norm>
-0.0184114

>  <SCORE.INTRA>
-11.5022

>  <SCORE.INTRA.DIHEDRAL>
-20.6516

>  <SCORE.INTRA.DIHEDRAL.0>
36.0842

>  <SCORE.INTRA.POLAR>
0

>  <SCORE.INTRA.POLAR.0>
0

>  <SCORE.INTRA.REPUL>
0

>  <SCORE.INTRA.REPUL.0>
0

>  <SCORE.INTRA.SOLV>
-3.32416

>  <SCORE.INTRA.SOLV.lig_0>
-126.444

>  <SCORE.INTRA.VDW>
0.48569

>  <SCORE.INTRA.VDW.0>
-7.40469

>  <SCORE.INTRA.norm>
-0.234739

>  <SCORE.RESTR>
0.000249658

>  <SCORE.RESTR.CAVITY>
0.000249658

>  <SCORE.RESTR.norm>
5.09506e-06

>  <SCORE.SYSTEM>
0

>  <SCORE.SYSTEM.CONST>
0

>  <SCORE.SYSTEM.DIHEDRAL>
0

>  <SCORE.SYSTEM.SOLV>
0

>  <SCORE.SYSTEM.norm>
0

>  <SCORE.heavy>
49

>  <SCORE.norm>
-0.253145

>  <RMSD>
8.497

$$$$
2bee_lig
 OpenBabel11021811423D
libRbt.so/2013.1/901 2013/11/27
 49 52  0  0  0  0  0  0  0  0999 V2000
   41.4043    0.9646   -5.4589 C   0  0  2  0  0  0  0  0  0  0  0  0
   42.3358    1.7392   -4.7143 O   0  0  0  0  0  0  0  0  0  0  0  0
   46.4169    2.5039   -6.1752 C   0  0  2  0  0  0  0  0  0  0  0  0
   47.5348    3.1497   -6.9156 N   0  0  0  0  0  0  0  0  0  0  0  0
   43.8521    4.9692   -3.3881 C   0  0  1  0  0  0  0  0  0  0  0  0
   42.6783    7.1869   -7.1448 C   0  0  1  0  0  0  0  0  0  0  0  0
   38.8077    8.9243   -0.7915 C   0  0  0  0  0  0  0  0  0  0  0  0
   40.0491    0.8238   -4.6636 C   0  0  2  0  0  0  0  0  0  0  0  0
   39.5375    2.1435   -4.3098 N   0  0  0  0  0  0  0  0  0  0  0  0
   45.2766    2.0764   -7.2071 C   0  0  0  0  0  0  0  0  0  0  0  0
   44.3785    6.3449   -3.6395 C   0  0  2  0  0  0  0  0  0  0  0  0
   44.5239    7.1383   -2.4068 O   0  0  0  0  0  0  0  0  0  0  0  0
   42.9737    5.6097   -7.3818 C   0  0  2  0  0  0  0  0  0  0  0  0
   44.4565    5.3944   -7.2930 N   0  0  0  0  0  0  0  0  0  0  0  0
   38.3344    8.1769    0.3122 C   0  0  0  0  0  0  0  0  0  0  0  0
   38.8259    8.4377    1.5894 N   0  0  0  0  0  0  0  0  0  0  0  0
   40.2878   -0.0772   -3.3739 C   0  0  1  0  0  0  0  0  0  0  0  0
   39.0622   -0.2021   -2.6673 O   0  0  0  0  0  0  0  0  0  0  0  0
   44.0223    1.3738   -6.4296 C   0  0  2  0  0  0  0  0  0  0  0  0
   43.0037    0.9805   -7.3428 N   0  0  0  0  0  0  0  0  0  0  0  0
   43.3839    6.7173   -4.7123 C   0  0  2  0  0  0  0  0  0  0  0  0
   43.2437    7.4856   -5.8460 O   0  0  0  0  0  0  0  0  0  0  0  0
   42.4377    5.2122   -8.8033 C   0  0  1  0  0  0  0  0  0  0  0  0
   40.9846    5.4366   -8.8030 O   0  0  0  0  0  0  0  0  0  0  0  0
   40.8233   -1.4592   -3.8150 C   0  0  2  0  0  0  0  0  0  0  0  0
   41.0752   -2.3288   -2.6376 O   0  0  0  0  0  0  0  0  0  0  0  0
   43.4235    2.3747   -5.3662 C   0  0  2  0  0  0  0  0  0  0  0  0
   42.0330    6.0036   -4.2091 C   0  0  2  0  0  0  0  0  0  0  0  0
   42.5011    4.8293   -3.7235 O   0  0  0  0  0  0  0  0  0  0  0  0
   43.1861    6.1233   -9.9317 C   0  0  2  0  0  0  0  0  0  0  0  0
   44.6480    5.8908   -9.9208 O   0  0  0  0  0  0  0  0  0  0  0  0
   42.1642   -1.3058   -4.6077 C   0  0  2  0  0  0  0  0  0  0  0  0
   41.8460   -0.4426   -5.7293 O   0  0  0  0  0  0  0  0  0  0  0  0
   44.5795    2.7638   -4.3839 C   0  0  2  0  0  0  0  0  0  0  0  0
   43.9372    3.6275   -3.4776 O   0  0  0  0  0  0  0  0  0  0  0  0
   40.9482    5.6340   -5.2872 C   0  0  0  0  0  0  0  0  0  0  0  0
   40.2313    6.8438   -5.6899 O   0  0  0  0  0  0  0  0  0  0  0  0
   42.9189    7.6692   -9.6522 C   0  0  1  0  0  0  0  0  0  0  0  0
   43.4146    7.9565   -8.2504 O   0  0  0  0  0  0  0  0  0  0  0  0
   42.5853   -2.6622   -5.0061 C   0  0  0  0  0  0  0  0  0  0  0  0
   41.6767   -3.2141   -5.8217 O   0  0  0  0  0  0  0  0  0  0  0  0
   45.7696    3.4728   -5.1608 C   0  0  1  0  0  0  0  0  0  0  0  0
   46.7963    3.8065   -4.2771 O   0  0  0  0  0  0  0  0  0  0  0  0
   43.4682    7.3446   -1.4019 C   0  0  0  0  0  0  0  0  0  0  0  0
   43.6955    8.4382  -10.7742 C   0  0  0  0  0  0  0  0  0  0  0  0
   43.6934    9.8600  -10.5819 N   0  0  0  0  0  0  0  0  0  0  0  0
   42.4011    8.2781   -1.9755 C   0  0  0  0  0  0  0  0  0  0  0  0
   41.2003    8.1203   -1.1323 N   0  0  0  0  0  0  0  0  0  0  0  0
   39.8286    8.2239   -1.8025 C   0  0  0  0  0  0  0  0  0  0  0  0
  1  2  1  1  0  0  0
  1  8  1  0  0  0  0
  1 33  1  0  0  0  0
  3  4  1  6  0  0  0
  3 10  1  0  0  0  0
  3 42  1  0  0  0  0
  5 11  1  0  0  0  0
  5 29  1  0  0  0  0
  5 35  1  6  0  0  0
  6 13  1  0  0  0  0
  6 39  1  0  0  0  0
  6 22  1  1  0  0  0
  7 15  1  0  0  0  0
  8  9  1  1  0  0  0
  8 17  1  0  0  0  0
 10 19  1  0  0  0  0
 11 12  1  1  0  0  0
 11 21  1  0  0  0  0
 12 44  1  0  0  0  0
 13 14  1  6  0  0  0
 13 23  1  0  0  0  0
 15 16  1  0  0  0  0
 17 18  1  6  0  0  0
 17 25  1  0  0  0  0
 19 20  1  6  0  0  0
 19 27  1  0  0  0  0
 21 22  1  1  0  0  0
 21 28  1  0  0  0  0
 23 24  1  1  0  0  0
 23 30  1  0  0  0  0
 25 26  1  1  0  0  0
 25 32  1  0  0  0  0
 27  2  1  1  0  0  0
 27 34  1  0  0  0  0
 28 29  1  0  0  0  0
 28 36  1  6  0  0  0
 30 31  1  1  0  0  0
 30 38  1  0  0  0  0
 32 33  1  0  0  0  0
 32 40  1  6  0  0  0
 34 35  1  1  0  0  0
 34 42  1  0  0  0  0
 36 37  1  0  0  0  0
 38 39  1  0  0  0  0
 38 45  1  6  0  0  0
 40 41  1  0  0  0  0
 42 43  1  1  0  0  0
 44 47  1  0  0  0  0
 45 46  1  0  0  0  0
 47 48  1  0  0  0  0
 48 49  1  0  0  0  0
 49  7  1  0  0  0  0
M  END
>  <CHROM.1>
-158.90120390,-26.19532258,-31.82593657,105.15993886,-52.04834724,-71.56937896
134.21325756,-41.83668119,-76.30295178,62.43404556,-97.46039224,-173.05884494
162.80350354,-145.41645474,-144.74646458,-73.78193065,42.57396872,4.24047126
-5.13678121,-1.67315385,1.07008126,0.01610344

>  <Name>
2bee_lig

>  <RI>
2.18182e+07

>  <Rbt.Current_Directory>
/home/itssahil/PROJECTS/Mol_Feturizer/New_Systems/rnas/2bee

>  <Rbt.Executable>
rbdock ($Id: //depot/dev/client3/rdock/2013.1/src/exe/rbdock.cxx#4 $)

>  <Rbt.Library>
libRbt.so (2013.1, Build901 2013/11/27)

>  <Rbt.Parameter_File>
/export/apps/rDock/src/rDock_2013.1_src/data/scripts/dock_solv.prm

>  <Rbt.Receptor>
prm/pocket_docking_3.prm

>  <SCORE>
0.612595

>  <SCORE.INTER>
-5.84819

>  <SCORE.INTER.CONST>
1

>  <SCORE.INTER.POLAR>
-0.959166

>  <SCORE.INTER.ROT>
16

>  <SCORE.INTER.SOLV>
14.3934

>  <SCORE.INTER.VDW>
-19.766

>  <SCORE.INTER.norm>
-0.119351

>  <SCORE.INTRA>
5.36268

>  <SCORE.INTRA.DIHEDRAL>
-7.12535

>  <SCORE.INTRA.DIHEDRAL.0>
36.0842

>  <SCORE.INTRA.POLAR>
0

>  <SCORE.INTRA.POLAR.0>
0

>  <SCORE.INTRA.REPUL>
0

>  <SCORE.INTRA.REPUL.0>
0

>  <SCORE.INTRA.SOLV>
6.68777

>  <SCORE.INTRA.SOLV.lig_0>
-126.444

>  <SCORE.INTRA.VDW>
5.58147

>  <SCORE.INTRA.VDW.0>
-7.40469

>  <SCORE.INTRA.norm>
0.109442

>  <SCORE.RESTR>
1.09811

>  <SCORE.RESTR.CAVITY>
1.09811

>  <SCORE.RESTR.norm>
0.0224103

>  <SCORE.SYSTEM>
0

>  <SCORE.SYSTEM.CONST>
0

>  <SCORE.SYSTEM.DIHEDRAL>
0

>  <SCORE.SYSTEM.SOLV>
0

>  <SCORE.SYSTEM.norm>
0

>  <SCORE.heavy>
49

>  <SCORE.norm>
0.0125019

>  <RMSD>
8.502

$$$$
2bee_lig
 OpenBabel11021811423D
libRbt.so/2013.1/901 2013/11/27
 49 52  0  0  0  0  0  0  0  0999 V2000
   47.6154   11.7129  -12.0450 C   0  0  2  0  0  0  0  0  0  0  0  0
   46.7416   10.6365  -12.3610 O   0  0  0  0  0  0  0  0  0  0  0  0
   42.9921   12.5457  -13.6532 C   0  0  2  0  0  0  0  0  0  0  0  0
   41.7702   12.8155  -14.4589 N   0  0  0  0  0  0  0  0  0  0  0  0
   44.9207    9.0550  -10.5339 C   0  0  1  0  0  0  0  0  0  0  0  0
   43.6401    6.9510   -6.4220 C   0  0  1  0  0  0  0  0  0  0  0  0
   50.8168    4.5941   -7.0427 C   0  0  0  0  0  0  0  0  0  0  0  0
   48.5460   11.3252  -10.8315 C   0  0  2  0  0  0  0  0  0  0  0  0
   49.2548   10.0834  -11.1218 N   0  0  0  0  0  0  0  0  0  0  0  0
   44.2743   12.6026  -14.6022 C   0  0  0  0  0  0  0  0  0  0  0  0
   45.4494    9.1461   -9.1394 C   0  0  2  0  0  0  0  0  0  0  0  0
   46.8839    8.8235   -9.0469 O   0  0  0  0  0  0  0  0  0  0  0  0
   42.9228    7.5155   -5.0812 C   0  0  2  0  0  0  0  0  0  0  0  0
   43.7442    8.6579   -4.5585 N   0  0  0  0  0  0  0  0  0  0  0  0
   51.2402    5.2955   -5.8897 C   0  0  0  0  0  0  0  0  0  0  0  0
   52.5957    5.5461   -5.6882 N   0  0  0  0  0  0  0  0  0  0  0  0
   47.6652   11.2024   -9.5120 C   0  0  1  0  0  0  0  0  0  0  0  0
   48.5117   10.8579   -8.4249 O   0  0  0  0  0  0  0  0  0  0  0  0
   45.6386   12.2975  -13.7553 C   0  0  2  0  0  0  0  0  0  0  0  0
   46.7891   12.3550  -14.5915 N   0  0  0  0  0  0  0  0  0  0  0  0
   44.3957    8.2763   -8.4976 C   0  0  2  0  0  0  0  0  0  0  0  0
   43.7134    8.0865   -7.3171 O   0  0  0  0  0  0  0  0  0  0  0  0
   42.8530    6.3525   -4.0282 C   0  0  1  0  0  0  0  0  0  0  0  0
   42.0233    5.2856   -4.6070 O   0  0  0  0  0  0  0  0  0  0  0  0
   46.9462   12.5476   -9.2575 C   0  0  2  0  0  0  0  0  0  0  0  0
   46.0985   12.4717   -8.0403 O   0  0  0  0  0  0  0  0  0  0  0  0
   45.5431   10.8733  -13.0818 C   0  0  2  0  0  0  0  0  0  0  0  0
   44.1186    7.1622   -9.6243 C   0  0  2  0  0  0  0  0  0  0  0  0
   44.1719    7.8953  -10.7618 O   0  0  0  0  0  0  0  0  0  0  0  0
   44.3653    5.8300   -3.7066 C   0  0  2  0  0  0  0  0  0  0  0  0
   45.1915    6.9129   -3.1270 O   0  0  0  0  0  0  0  0  0  0  0  0
   46.0312   12.9241  -10.4702 C   0  0  2  0  0  0  0  0  0  0  0  0
   46.9190   12.9698  -11.6165 O   0  0  0  0  0  0  0  0  0  0  0  0
   44.2716   10.8699  -12.1677 C   0  0  2  0  0  0  0  0  0  0  0  0
   44.2974    9.5795  -11.6072 O   0  0  0  0  0  0  0  0  0  0  0  0
   42.7170    6.4472   -9.6258 C   0  0  0  0  0  0  0  0  0  0  0  0
   41.7603    7.2546  -10.3823 O   0  0  0  0  0  0  0  0  0  0  0  0
   45.0652    5.3228   -5.0453 C   0  0  1  0  0  0  0  0  0  0  0  0
   45.0454    6.4814   -6.0203 O   0  0  0  0  0  0  0  0  0  0  0  0
   45.4088   14.2230  -10.1519 C   0  0  0  0  0  0  0  0  0  0  0  0
   46.2934   15.2171  -10.3085 O   0  0  0  0  0  0  0  0  0  0  0  0
   42.9588   11.1365  -13.0208 C   0  0  1  0  0  0  0  0  0  0  0  0
   41.8345   11.1398  -12.1948 O   0  0  0  0  0  0  0  0  0  0  0  0
   47.4508    7.6852   -8.3054 C   0  0  0  0  0  0  0  0  0  0  0  0
   46.5033    4.8702   -4.6206 C   0  0  0  0  0  0  0  0  0  0  0  0
   47.3140    5.9552   -4.1469 N   0  0  0  0  0  0  0  0  0  0  0  0
   48.6406    7.1195   -9.0821 C   0  0  0  0  0  0  0  0  0  0  0  0
   49.5707    6.5561   -8.0843 N   0  0  0  0  0  0  0  0  0  0  0  0
   49.4708    5.0627   -7.7663 C   0  0  0  0  0  0  0  0  0  0  0  0
  1  2  1  1  0  0  0
  1  8  1  0  0  0  0
  1 33  1  0  0  0  0
  3  4  1  6  0  0  0
  3 10  1  0  0  0  0
  3 42  1  0  0  0  0
  5 11  1  0  0  0  0
  5 29  1  0  0  0  0
  5 35  1  1  0  0  0
  6 13  1  0  0  0  0
  6 39  1  0  0  0  0
  6 22  1  6  0  0  0
  7 15  1  0  0  0  0
  8  9  1  6  0  0  0
  8 17  1  0  0  0  0
 10 19  1  0  0  0  0
 11 12  1  6  0  0  0
 11 21  1  0  0  0  0
 12 44  1  0  0  0  0
 13 14  1  1  0  0  0
 13 23  1  0  0  0  0
 15 16  1  0  0  0  0
 17 18  1  1  0  0  0
 17 25  1  0  0  0  0
 19 20  1  6  0  0  0
 19 27  1  0  0  0  0
 21 22  1  1  0  0  0
 21 28  1  0  0  0  0
 23 24  1  6  0  0  0
 23 30  1  0  0  0  0
 25 26  1  1  0  0  0
 25 32  1  0  0  0  0
 27  2  1  1  0  0  0
 27 34  1  0  0  0  0
 28 29  1  0  0  0  0
 28 36  1  1  0  0  0
 30 31  1  6  0  0  0
 30 38  1  0  0  0  0
 32 33  1  0  0  0  0
 32 40  1  1  0  0  0
 34 35  1  6  0  0  0
 34 42  1  0  0  0  0
 36 37  1  0  0  0  0
 38 39  1  0  0  0  0
 38 45  1  1  0  0  0
 40 41  1  0  0  0  0
 42 43  1  1  0  0  0
 44 47  1  0  0  0  0
 45 46  1  0  0  0  0
 47 48  1  0  0  0  0
 48 49  1  0  0  0  0
 49  7  1  0  0  0  0
M  END
>  <CHROM.1>
158.87867516,34.90446276,168.22831952,-141.28166469,-116.39628894,143.04163249
-119.51182511,16.31228175,85.65043165,75.87125585,85.19341330,-65.06238500
150.06545370,94.66309742,162.51919853,54.00661748,45.76266414,9.11563060
-9.07586669,-1.72038933,-0.00209850,2.29025396

>  <Name>
2bee_lig

>  <RI>
0

>  <Rbt.Current_Directory>
/home/itssahil/PROJECTS/Mol_Feturizer/New_Systems/rnas/2bee

>  <Rbt.Executable>
rbdock ($Id: //depot/dev/client3/rdock/2013.1/src/exe/rbdock.cxx#4 $)

>  <Rbt.Library>
libRbt.so (2013.1, Build901 2013/11/27)

>  <Rbt.Parameter_File>
/export/apps/rDock/src/rDock_2013.1_src/data/scripts/dock_solv.prm

>  <Rbt.Receptor>
prm/blind_docking_60.prm

>  <SCORE>
29.8956

>  <SCORE.INTER>
6.61054

>  <SCORE.INTER.CONST>
1

>  <SCORE.INTER.POLAR>
-1.12954

>  <SCORE.INTER.ROT>
16

>  <SCORE.INTER.SOLV>
42.9096

>  <SCORE.INTER.VDW>
-20.3977

>  <SCORE.INTER.norm>
0.134909

>  <SCORE.INTRA>
9.15384

>  <SCORE.INTRA.DIHEDRAL>
3.49673

>  <SCORE.INTRA.DIHEDRAL.0>
36.0842

>  <SCORE.INTRA.POLAR>
0

>  <SCORE.INTRA.POLAR.0>
0

>  <SCORE.INTRA.REPUL>
0.158799

>  <SCORE.INTRA.REPUL.0>
0

>  <SCORE.INTRA.SOLV>
3.57103

>  <SCORE.INTRA.SOLV.lig_0>
-126.444

>  <SCORE.INTRA.VDW>
4.82597

>  <SCORE.INTRA.VDW.0>
-7.40469

>  <SCORE.INTRA.norm>
0.186813

>  <SCORE.RESTR>
14.1312

>  <SCORE.RESTR.CAVITY>
14.1312

>  <SCORE.RESTR.norm>
0.288392

>  <SCORE.SYSTEM>
0

>  <SCORE.SYSTEM.CONST>
0

>  <SCORE.SYSTEM.DIHEDRAL>
0

>  <SCORE.SYSTEM.SOLV>
0

>  <SCORE.SYSTEM.norm>
0

>  <SCORE.heavy>
49

>  <SCORE.norm>
0.610114

>  <RMSD>
8.504

$$$$
2bee_lig
 OpenBabel11021811423D
libRbt.so/2013.1/901 2013/11/27
 49 52  0  0  0  0  0  0  0  0999 V2000
   46.2452   12.2649  -11.2523 C   0  0  2  0  0  0  0  0  0  0  0  0
   46.0410   11.1871  -12.1572 O   0  0  0  0  0  0  0  0  0  0  0  0
   42.8925   12.8569  -14.7404 C   0  0  2  0  0  0  0  0  0  0  0  0
   41.9839   13.0117  -15.9088 N   0  0  0  0  0  0  0  0  0  0  0  0
   44.2643    9.4531  -11.2490 C   0  0  1  0  0  0  0  0  0  0  0  0
   44.4328    7.7806   -6.7723 C   0  0  1  0  0  0  0  0  0  0  0  0
   49.6006    4.7980   -7.6800 C   0  0  0  0  0  0  0  0  0  0  0  0
   47.7749   12.3919  -10.8876 C   0  0  2  0  0  0  0  0  0  0  0  0
   48.5707   12.5120  -12.1045 N   0  0  0  0  0  0  0  0  0  0  0  0
   44.4068   12.8510  -15.2454 C   0  0  0  0  0  0  0  0  0  0  0  0
   45.0963    9.3372  -10.0132 C   0  0  2  0  0  0  0  0  0  0  0  0
   46.4736    8.8925  -10.2878 O   0  0  0  0  0  0  0  0  0  0  0  0
   44.5889    6.1746   -6.9384 C   0  0  2  0  0  0  0  0  0  0  0  0
   43.2152    5.5830   -7.0647 N   0  0  0  0  0  0  0  0  0  0  0  0
   50.2670    4.5776   -6.4520 C   0  0  0  0  0  0  0  0  0  0  0  0
   49.5611    4.6623   -5.2540 N   0  0  0  0  0  0  0  0  0  0  0  0
   48.2151   11.1316  -10.0217 C   0  0  1  0  0  0  0  0  0  0  0  0
   49.5914   11.2570   -9.6944 O   0  0  0  0  0  0  0  0  0  0  0  0
   45.4377   12.6690  -13.9901 C   0  0  2  0  0  0  0  0  0  0  0  0
   46.7917   12.6716  -14.4295 N   0  0  0  0  0  0  0  0  0  0  0  0
   44.1264    8.4849   -9.2311 C   0  0  2  0  0  0  0  0  0  0  0  0
   43.7074    8.2126   -7.9484 O   0  0  0  0  0  0  0  0  0  0  0  0
   45.3221    5.6130   -5.6683 C   0  0  1  0  0  0  0  0  0  0  0  0
   46.6578    6.2261   -5.6256 O   0  0  0  0  0  0  0  0  0  0  0  0
   47.3407   11.0633   -8.7481 C   0  0  2  0  0  0  0  0  0  0  0  0
   47.7090    9.8891   -7.9165 O   0  0  0  0  0  0  0  0  0  0  0  0
   45.1279   11.3183  -13.2347 C   0  0  2  0  0  0  0  0  0  0  0  0
   43.4910    7.5367  -10.3645 C   0  0  2  0  0  0  0  0  0  0  0  0
   43.3666    8.3918  -11.4072 O   0  0  0  0  0  0  0  0  0  0  0  0
   44.4492    5.9814   -4.3395 C   0  0  2  0  0  0  0  0  0  0  0  0
   43.1063    5.3610   -4.3950 O   0  0  0  0  0  0  0  0  0  0  0  0
   45.8257   10.9435   -9.1228 C   0  0  2  0  0  0  0  0  0  0  0  0
   45.5422   12.1102   -9.9370 O   0  0  0  0  0  0  0  0  0  0  0  0
   43.6350   11.3742  -12.7649 C   0  0  2  0  0  0  0  0  0  0  0  0
   43.4766   10.1483  -12.0925 O   0  0  0  0  0  0  0  0  0  0  0  0
   42.0572    6.9410  -10.1093 C   0  0  0  0  0  0  0  0  0  0  0  0
   42.1335    5.9220   -9.0627 O   0  0  0  0  0  0  0  0  0  0  0  0
   44.2710    7.5605   -4.2222 C   0  0  1  0  0  0  0  0  0  0  0  0
   43.6074    8.0262   -5.5014 O   0  0  0  0  0  0  0  0  0  0  0  0
   45.0712   10.9089   -7.8558 C   0  0  0  0  0  0  0  0  0  0  0  0
   45.3773   11.9714   -7.0991 O   0  0  0  0  0  0  0  0  0  0  0  0
   42.6547   11.5186  -14.0060 C   0  0  1  0  0  0  0  0  0  0  0  0
   41.3293   11.5762  -13.5745 O   0  0  0  0  0  0  0  0  0  0  0  0
   47.4295    8.4182   -9.2737 C   0  0  0  0  0  0  0  0  0  0  0  0
   43.4084    7.7904   -2.9353 C   0  0  0  0  0  0  0  0  0  0  0  0
   44.1879    7.7822   -1.7307 N   0  0  0  0  0  0  0  0  0  0  0  0
   46.7498    7.3705   -8.3908 C   0  0  0  0  0  0  0  0  0  0  0  0
   47.5883    6.1574   -8.4481 N   0  0  0  0  0  0  0  0  0  0  0  0
   49.0447    6.2640   -7.9911 C   0  0  0  0  0  0  0  0  0  0  0  0
  1  2  1  6  0  0  0
  1  8  1  0  0  0  0
  1 33  1  0  0  0  0
  3  4  1  6  0  0  0
  3 10  1  0  0  0  0
  3 42  1  0  0  0  0
  5 11  1  0  0  0  0
  5 29  1  0  0  0  0
  5 35  1  1  0  0  0
  6 13  1  0  0  0  0
  6 39  1  0  0  0  0
  6 22  1  6  0  0  0
  7 15  1  0  0  0  0
  8  9  1  6  0  0  0
  8 17  1  0  0  0  0
 10 19  1  0  0  0  0
 11 12  1  6  0  0  0
 11 21  1  0  0  0  0
 12 44  1  0  0  0  0
 13 14  1  1  0  0  0
 13 23  1  0  0  0  0
 15 16  1  0  0  0  0
 17 18  1  1  0  0  0
 17 25  1  0  0  0  0
 19 20  1  6  0  0  0
 19 27  1  0  0  0  0
 21 22  1  1  0  0  0
 21 28  1  0  0  0  0
 23 24  1  1  0  0  0
 23 30  1  0  0  0  0
 25 26  1  1  0  0  0
 25 32  1  0  0  0  0
 27  2  1  1  0  0  0
 27 34  1  0  0  0  0
 28 29  1  0  0  0  0
 28 36  1  1  0  0  0
 30 31  1  6  0  0  0
 30 38  1  0  0  0  0
 32 33  1  0  0  0  0
 32 40  1  1  0  0  0
 34 35  1  6  0  0  0
 34 42  1  0  0  0  0
 36 37  1  0  0  0  0
 38 39  1  0  0  0  0
 38 45  1  1  0  0  0
 40 41  1  0  0  0  0
 42 43  1  1  0  0  0
 44 47  1  0  0  0  0
 45 46  1  0  0  0  0
 47 48  1  0  0  0  0
 48 49  1  0  0  0  0
 49  7  1  0  0  0  0
M  END
>  <CHROM.1>
-139.66205190,53.62625392,-81.90359800,66.69660920,-166.41310066,49.00421155
-55.97918131,49.42760782,-71.09477377,54.63083583,41.00634981,82.94913950
124.49470992,59.03959936,161.46060963,-130.67739689,45.36207490,9.10755430
-9.26303863,-1.69323446,0.09414434,2.20987119

>  <Name>
2bee_lig

>  <RI>
0

>  <Rbt.Current_Directory>
/home/itssahil/PROJECTS/Mol_Feturizer/New_Systems/rnas/2bee

>  <Rbt.Executable>
rbdock ($Id: //depot/dev/client3/rdock/2013.1/src/exe/rbdock.cxx#4 $)

>  <Rbt.Library>
libRbt.so (2013.1, Build901 2013/11/27)

>  <Rbt.Parameter_File>
/export/apps/rDock/src/rDock_2013.1_src/data/scripts/dock_solv.prm

>  <Rbt.Receptor>
prm/blind_docking_60.prm

>  <SCORE>
83.439

>  <SCORE.INTER>
15.5552

>  <SCORE.INTER.CONST>
1

>  <SCORE.INTER.POLAR>
-1.07402

>  <SCORE.INTER.ROT>
16

>  <SCORE.INTER.SOLV>
30.2231

>  <SCORE.INTER.VDW>
-10.3908

>  <SCORE.INTER.norm>
0.317454

>  <SCORE.INTRA>
51.8629

>  <SCORE.INTRA.DIHEDRAL>
-5.67498

>  <SCORE.INTRA.DIHEDRAL.0>
36.0842

>  <SCORE.INTRA.POLAR>
0

>  <SCORE.INTRA.POLAR.0>
0

>  <SCORE.INTRA.REPUL>
0.117025

>  <SCORE.INTRA.REPUL.0>
0

>  <SCORE.INTRA.SOLV>
8.98303

>  <SCORE.INTRA.SOLV.lig_0>
-126.444

>  <SCORE.INTRA.VDW>
49.6237

>  <SCORE.INTRA.VDW.0>
-7.40469

>  <SCORE.INTRA.norm>
1.05843

>  <SCORE.RESTR>
16.0209

>  <SCORE.RESTR.CAVITY>
16.0209

>  <SCORE.RESTR.norm>
0.326958

>  <SCORE.SYSTEM>
0

>  <SCORE.SYSTEM.CONST>
0

>  <SCORE.SYSTEM.DIHEDRAL>
0

>  <SCORE.SYSTEM.SOLV>
0

>  <SCORE.SYSTEM.norm>
0

>  <SCORE.heavy>
49

>  <SCORE.norm>
1.70284

>  <RMSD>
8.506

$$$$
2bee_lig
 OpenBabel11021811423D
libRbt.so/2013.1/901 2013/11/27
 49 52  0  0  0  0  0  0  0  0999 V2000
   41.0848    4.4926   -4.1513 C   0  0  2  0  0  0  0  0  0  0  0  0
   41.8459    4.0401   -5.2641 O   0  0  0  0  0  0  0  0  0  0  0  0
   43.2228    0.0672   -6.5657 C   0  0  2  0  0  0  0  0  0  0  0  0
   43.9386   -1.2373   -6.5420 N   0  0  0  0  0  0  0  0  0  0  0  0
   39.5433    1.0132   -3.9087 C   0  0  1  0  0  0  0  0  0  0  0  0
   39.3400   -3.0551   -1.4530 C   0  0  1  0  0  0  0  0  0  0  0  0
   33.4685   -4.6086   -3.2746 C   0  0  0  0  0  0  0  0  0  0  0  0
   40.3372    5.8352   -4.5083 C   0  0  2  0  0  0  0  0  0  0  0  0
   39.5330    5.6549   -5.7122 N   0  0  0  0  0  0  0  0  0  0  0  0
   44.2787    1.2527   -6.3990 C   0  0  0  0  0  0  0  0  0  0  0  0
   38.5563   -0.1013   -4.0372 C   0  0  2  0  0  0  0  0  0  0  0  0
   37.1601    0.3500   -3.9056 O   0  0  0  0  0  0  0  0  0  0  0  0
   39.8268   -4.5626   -1.8014 C   0  0  2  0  0  0  0  0  0  0  0  0
   38.9032   -5.1217   -2.8442 N   0  0  0  0  0  0  0  0  0  0  0  0
   32.9806   -4.6273   -4.6022 C   0  0  0  0  0  0  0  0  0  0  0  0
   33.6716   -5.3311   -5.5860 N   0  0  0  0  0  0  0  0  0  0  0  0
   41.4061    7.0004   -4.6868 C   0  0  1  0  0  0  0  0  0  0  0  0
   40.7239    8.2053   -5.0031 O   0  0  0  0  0  0  0  0  0  0  0  0
   43.5286    2.7049   -6.4067 C   0  0  2  0  0  0  0  0  0  0  0  0
   44.4633    3.7695   -6.2676 N   0  0  0  0  0  0  0  0  0  0  0  0
   39.1955   -1.0164   -3.0209 C   0  0  2  0  0  0  0  0  0  0  0  0
   39.3732   -2.3468   -2.7152 O   0  0  0  0  0  0  0  0  0  0  0  0
   39.7667   -5.4201   -0.4872 C   0  0  1  0  0  0  0  0  0  0  0  0
   40.7050   -4.8192    0.4721 O   0  0  0  0  0  0  0  0  0  0  0  0
   42.2198    7.1442   -3.3797 C   0  0  2  0  0  0  0  0  0  0  0  0
   43.2422    8.2138   -3.5086 O   0  0  0  0  0  0  0  0  0  0  0  0
   42.4739    2.7686   -5.2342 C   0  0  2  0  0  0  0  0  0  0  0  0
   39.7344    0.0103   -1.9060 C   0  0  2  0  0  0  0  0  0  0  0  0
   40.1846    1.0372   -2.6656 O   0  0  0  0  0  0  0  0  0  0  0  0
   38.2382   -5.4167    0.0848 C   0  0  2  0  0  0  0  0  0  0  0  0
   37.3028   -6.0213   -0.8902 O   0  0  0  0  0  0  0  0  0  0  0  0
   42.9516    5.8048   -3.0332 C   0  0  2  0  0  0  0  0  0  0  0  0
   41.8991    4.8115   -2.9333 O   0  0  0  0  0  0  0  0  0  0  0  0
   41.4675    1.5870   -5.4425 C   0  0  2  0  0  0  0  0  0  0  0  0
   40.5712    1.7519   -4.3705 O   0  0  0  0  0  0  0  0  0  0  0  0
   40.9475   -0.4416   -1.0117 C   0  0  0  0  0  0  0  0  0  0  0  0
   41.2652    0.6163   -0.0529 O   0  0  0  0  0  0  0  0  0  0  0  0
   37.7666   -3.9229    0.3770 C   0  0  1  0  0  0  0  0  0  0  0  0
   37.9034   -3.1548   -0.9210 O   0  0  0  0  0  0  0  0  0  0  0  0
   43.6776    6.0265   -1.7685 C   0  0  0  0  0  0  0  0  0  0  0  0
   44.7497    6.8034   -1.9739 O   0  0  0  0  0  0  0  0  0  0  0  0
   42.2181    0.1880   -5.3983 C   0  0  1  0  0  0  0  0  0  0  0  0
   41.3131   -0.8555   -5.5937 O   0  0  0  0  0  0  0  0  0  0  0  0
   35.9731   -0.4994   -4.0961 C   0  0  0  0  0  0  0  0  0  0  0  0
   36.2936   -4.0425    0.8959 C   0  0  0  0  0  0  0  0  0  0  0  0
   35.7845   -2.8091    1.4232 N   0  0  0  0  0  0  0  0  0  0  0  0
   35.9242   -1.5537   -2.9893 C   0  0  0  0  0  0  0  0  0  0  0  0
   34.7565   -2.4114   -3.2701 N   0  0  0  0  0  0  0  0  0  0  0  0
   34.8787   -3.9111   -2.9924 C   0  0  0  0  0  0  0  0  0  0  0  0
  1  2  1  6  0  0  0
  1  8  1  0  0  0  0
  1 33  1  0  0  0  0
  3  4  1  1  0  0  0
  3 10  1  0  0  0  0
  3 42  1  0  0  0  0
  5 11  1  0  0  0  0
  5 29  1  0  0  0  0
  5 35  1  6  0  0  0
  6 13  1  0  0  0  0
  6 39  1  0  0  0  0
  6 22  1  6  0  0  0
  7 15  1  0  0  0  0
  8  9  1  6  0  0  0
  8 17  1  0  0  0  0
 10 19  1  0  0  0  0
 11 12  1  1  0  0  0
 11 21  1  0  0  0  0
 12 44  1  0  0  0  0
 13 14  1  6  0  0  0
 13 23  1  0  0  0  0
 15 16  1  0  0  0  0
 17 18  1  1  0  0  0
 17 25  1  0  0  0  0
 19 20  1  1  0  0  0
 19 27  1  0  0  0  0
 21 22  1  1  0  0  0
 21 28  1  0  0  0  0
 23 24  1  1  0  0  0
 23 30  1  0  0  0  0
 25 26  1  6  0  0  0
 25 32  1  0  0  0  0
 27  2  1  6  0  0  0
 27 34  1  0  0  0  0
 28 29  1  0  0  0  0
 28 36  1  6  0  0  0
 30 31  1  6  0  0  0
 30 38  1  0  0  0  0
 32 33  1  0  0  0  0
 32 40  1  1  0  0  0
 34 35  1  1  0  0  0
 34 42  1  0  0  0  0
 36 37  1  0  0  0  0
 38 39  1  0  0  0  0
 38 45  1  6  0  0  0
 40 41  1  0  0  0  0
 42 43  1  6  0  0  0
 44 47  1  0  0  0  0
 45 46  1  0  0  0  0
 47 48  1  0  0  0  0
 48 49  1  0  0  0  0
 49  7  1  0  0  0  0
M  END
>  <CHROM.1>
-172.34022368,-11.70381698,-172.63035718,64.39224879,174.72999501,66.62570439
-139.66772615,-165.35151303,-178.97888775,-73.27877426,-173.65556932,170.05754069
-177.28245451,142.34984310,176.11354960,65.89753878,39.81523751,0.31066125
-3.22910764,1.00485547,-0.30166381,-0.44096016

>  <Name>
2bee_lig

>  <RI>
0

>  <Rbt.Current_Directory>
/home/itssahil/PROJECTS/Mol_Feturizer/New_Systems/rnas/2bee

>  <Rbt.Executable>
rbdock ($Id: //depot/dev/client3/rdock/2013.1/src/exe/rbdock.cxx#4 $)

>  <Rbt.Library>
libRbt.so (2013.1, Build901 2013/11/27)

>  <Rbt.Parameter_File>
/export/apps/rDock/src/rDock_2013.1_src/data/scripts/dock_solv.prm

>  <Rbt.Receptor>
prm/pocket_docking_7.prm

>  <SCORE>
-3.48284

>  <SCORE.INTER>
8.38842

>  <SCORE.INTER.CONST>
1

>  <SCORE.INTER.POLAR>
-0.959166

>  <SCORE.INTER.ROT>
16

>  <SCORE.INTER.SOLV>
7.84217

>  <SCORE.INTER.VDW>
-8.09122

>  <SCORE.INTER.norm>
0.171192

>  <SCORE.INTRA>
-11.8713

>  <SCORE.INTRA.DIHEDRAL>
-22.7403

>  <SCORE.INTRA.DIHEDRAL.0>
36.0842

>  <SCORE.INTRA.POLAR>
0

>  <SCORE.INTRA.POLAR.0>
0

>  <SCORE.INTRA.REPUL>
0.0204907

>  <SCORE.INTRA.REPUL.0>
0

>  <SCORE.INTRA.SOLV>
-2.98784

>  <SCORE.INTRA.SOLV.lig_0>
-126.444

>  <SCORE.INTRA.VDW>
0.890378

>  <SCORE.INTRA.VDW.0>
-7.40469

>  <SCORE.INTRA.norm>
-0.242271

>  <SCORE.RESTR>
0

>  <SCORE.RESTR.CAVITY>
0

>  <SCORE.RESTR.norm>
0

>  <SCORE.SYSTEM>
0

>  <SCORE.SYSTEM.CONST>
0

>  <SCORE.SYSTEM.DIHEDRAL>
0

>  <SCORE.SYSTEM.SOLV>
0

>  <SCORE.SYSTEM.norm>
0

>  <SCORE.heavy>
49

>  <SCORE.norm>
-0.0710784

>  <RMSD>
8.508

$$$$
2bee_lig
 OpenBabel11021811423D
libRbt.so/2013.1/901 2013/11/27
 49 52  0  0  0  0  0  0  0  0999 V2000
   43.6304    8.7267   -2.4064 C   0  0  2  0  0  0  0  0  0  0  0  0
   44.2322    7.6695   -1.6700 O   0  0  0  0  0  0  0  0  0  0  0  0
   43.3097    3.6023   -0.2625 C   0  0  2  0  0  0  0  0  0  0  0  0
   42.5102    2.4044    0.1127 N   0  0  0  0  0  0  0  0  0  0  0  0
   44.0537    4.9709   -4.6471 C   0  0  1  0  0  0  0  0  0  0  0  0
   42.2489    0.8456   -5.0659 C   0  0  1  0  0  0  0  0  0  0  0  0
   46.8946    9.8100   -8.6244 C   0  0  0  0  0  0  0  0  0  0  0  0
   42.7626    9.6347   -1.4517 C   0  0  2  0  0  0  0  0  0  0  0  0
   43.5757   10.1087   -0.3370 N   0  0  0  0  0  0  0  0  0  0  0  0
   42.7997    4.8618    0.5752 C   0  0  0  0  0  0  0  0  0  0  0  0
   44.7397    3.9376   -5.4803 C   0  0  2  0  0  0  0  0  0  0  0  0
   45.3964    4.5037   -6.6714 O   0  0  0  0  0  0  0  0  0  0  0  0
   42.8738   -0.6511   -5.0488 C   0  0  2  0  0  0  0  0  0  0  0  0
   43.1623   -1.0523   -6.4662 N   0  0  0  0  0  0  0  0  0  0  0  0
   45.6242   10.4291   -8.6830 C   0  0  0  0  0  0  0  0  0  0  0  0
   44.7901   10.4093   -7.5674 N   0  0  0  0  0  0  0  0  0  0  0  0
   41.4996    8.8093   -0.9463 C   0  0  1  0  0  0  0  0  0  0  0  0
   40.7223    9.6357   -0.0919 O   0  0  0  0  0  0  0  0  0  0  0  0
   43.6460    6.2035    0.1812 C   0  0  2  0  0  0  0  0  0  0  0  0
   43.2044    7.3307    0.9299 N   0  0  0  0  0  0  0  0  0  0  0  0
   43.5644    2.9969   -5.5918 C   0  0  2  0  0  0  0  0  0  0  0  0
   43.2470    1.6637   -5.7218 O   0  0  0  0  0  0  0  0  0  0  0  0
   41.8233   -1.6206   -4.3988 C   0  0  1  0  0  0  0  0  0  0  0  0
   41.6084   -1.1712   -3.0155 O   0  0  0  0  0  0  0  0  0  0  0  0
   40.6791    8.3410   -2.1705 C   0  0  2  0  0  0  0  0  0  0  0  0
   39.4960    7.5512   -1.7432 O   0  0  0  0  0  0  0  0  0  0  0  0
   43.4930    6.4988   -1.3617 C   0  0  2  0  0  0  0  0  0  0  0  0
   42.3116    4.0014   -5.6856 C   0  0  2  0  0  0  0  0  0  0  0  0
   42.6639    4.9708   -4.8080 O   0  0  0  0  0  0  0  0  0  0  0  0
   40.4422   -1.5734   -5.2671 C   0  0  2  0  0  0  0  0  0  0  0  0
   40.6714   -2.0253   -6.6580 O   0  0  0  0  0  0  0  0  0  0  0  0
   41.5522    7.4465   -3.1125 C   0  0  2  0  0  0  0  0  0  0  0  0
   42.6857    8.2741   -3.4792 O   0  0  0  0  0  0  0  0  0  0  0  0
   44.0021    5.2355   -2.1347 C   0  0  2  0  0  0  0  0  0  0  0  0
   43.8447    5.6130   -3.4811 O   0  0  0  0  0  0  0  0  0  0  0  0
   40.9054    3.4728   -5.2176 C   0  0  0  0  0  0  0  0  0  0  0  0
   39.8987    4.5112   -5.4357 O   0  0  0  0  0  0  0  0  0  0  0  0
   39.8716   -0.0861   -5.3074 C   0  0  1  0  0  0  0  0  0  0  0  0
   40.9590    0.7882   -5.8963 O   0  0  0  0  0  0  0  0  0  0  0  0
   40.7010    7.0686   -4.2564 C   0  0  0  0  0  0  0  0  0  0  0  0
   40.5441    8.1082   -5.0871 O   0  0  0  0  0  0  0  0  0  0  0  0
   43.1422    3.9547   -1.7573 C   0  0  1  0  0  0  0  0  0  0  0  0
   43.6105    2.8349   -2.4451 O   0  0  0  0  0  0  0  0  0  0  0  0
   46.2881    5.6749   -6.6718 C   0  0  0  0  0  0  0  0  0  0  0  0
   38.5708   -0.1598   -6.1766 C   0  0  0  0  0  0  0  0  0  0  0  0
   38.8314   -0.5017   -7.5455 N   0  0  0  0  0  0  0  0  0  0  0  0
   45.4459    6.9501   -6.6121 C   0  0  0  0  0  0  0  0  0  0  0  0
   46.3695    8.0804   -6.8301 N   0  0  0  0  0  0  0  0  0  0  0  0
   46.9694    8.2639   -8.2257 C   0  0  0  0  0  0  0  0  0  0  0  0
  1  2  1  1  0  0  0
  1  8  1  0  0  0  0
  1 33  1  0  0  0  0
  3  4  1  1  0  0  0
  3 10  1  0  0  0  0
  3 42  1  0  0  0  0
  5 11  1  0  0  0  0
  5 29  1  0  0  0  0
  5 35  1  1  0  0  0
  6 13  1  0  0  0  0
  6 39  1  0  0  0  0
  6 22  1  6  0  0  0
  7 15  1  0  0  0  0
  8  9  1  1  0  0  0
  8 17  1  0  0  0  0
 10 19  1  0  0  0  0
 11 12  1  6  0  0  0
 11 21  1  0  0  0  0
 12 44  1  0  0  0  0
 13 14  1  6  0  0  0
 13 23  1  0  0  0  0
 15 16  1  0  0  0  0
 17 18  1  1  0  0  0
 17 25  1  0  0  0  0
 19 20  1  1  0  0  0
 19 27  1  0  0  0  0
 21 22  1  6  0  0  0
 21 28  1  0  0  0  0
 23 24  1  1  0  0  0
 23 30  1  0  0  0  0
 25 26  1  1  0  0  0
 25 32  1  0  0  0  0
 27  2  1  6  0  0  0
 27 34  1  0  0  0  0
 28 29  1  0  0  0  0
 28 36  1  1  0  0  0
 30 31  1  6  0  0  0
 30 38  1  0  0  0  0
 32 33  1  0  0  0  0
 32 40  1  6  0  0  0
 34 35  1  6  0  0  0
 34 42  1  0  0  0  0
 36 37  1  0  0  0  0
 38 39  1  0  0  0  0
 38 45  1  6  0  0  0
 40 41  1  0  0  0  0
 42 43  1  6  0  0  0
 44 47  1  0  0  0  0
 45 46  1  0  0  0  0
 47 48  1  0  0  0  0
 48 49  1  0  0  0  0
 49  7  1  0  0  0  0
M  END
>  <CHROM.1>
81.55392308,-26.51327213,-150.85894588,56.34586990,48.73856734,-79.05026842
136.25534233,-130.02349584,-177.58435794,74.63692236,-177.45814262,-65.52029282
-171.23670255,70.09120304,135.52265974,-59.94419189,42.75094972,4.84557949
-4.09591523,1.02265097,1.05976637,0.69873614

>  <Name>
2bee_lig

>  <RI>
2.18182e+07

>  <Rbt.Current_Directory>
/home/itssahil/PROJECTS/Mol_Feturizer/New_Systems/rnas/2bee

>  <Rbt.Executable>
rbdock ($Id: //depot/dev/client3/rdock/2013.1/src/exe/rbdock.cxx#4 $)

>  <Rbt.Library>
libRbt.so (2013.1, Build901 2013/11/27)

>  <Rbt.Parameter_File>
/export/apps/rDock/src/rDock_2013.1_src/data/scripts/dock_solv.prm

>  <Rbt.Receptor>
prm/pocket_docking_3.prm

>  <SCORE>
-9.35621

>  <SCORE.INTER>
-9.46618

>  <SCORE.INTER.CONST>
1

>  <SCORE.INTER.POLAR>
-2.16719

>  <SCORE.INTER.ROT>
16

>  <SCORE.INTER.SOLV>
20.2783

>  <SCORE.INTER.VDW>
-20.1129

>  <SCORE.INTER.norm>
-0.193187

>  <SCORE.INTRA>
0.0338758

>  <SCORE.INTRA.DIHEDRAL>
-12.0766

>  <SCORE.INTRA.DIHEDRAL.0>
36.0842

>  <SCORE.INTRA.POLAR>
0

>  <SCORE.INTRA.POLAR.0>
0

>  <SCORE.INTRA.REPUL>
0

>  <SCORE.INTRA.REPUL.0>
0

>  <SCORE.INTRA.SOLV>
6.95221

>  <SCORE.INTRA.SOLV.lig_0>
-126.444

>  <SCORE.INTRA.VDW>
2.59605

>  <SCORE.INTRA.VDW.0>
-7.40469

>  <SCORE.INTRA.norm>
0.000691343

>  <SCORE.RESTR>
0.0760929

>  <SCORE.RESTR.CAVITY>
0.0760929

>  <SCORE.RESTR.norm>
0.00155292

>  <SCORE.SYSTEM>
0

>  <SCORE.SYSTEM.CONST>
0

>  <SCORE.SYSTEM.DIHEDRAL>
0

>  <SCORE.SYSTEM.SOLV>
0

>  <SCORE.SYSTEM.norm>
0

>  <SCORE.heavy>
49

>  <SCORE.norm>
-0.190943

>  <RMSD>
8.509

$$$$
2bee_lig
 OpenBabel11021811423D
libRbt.so/2013.1/901 2013/11/27
 49 52  0  0  0  0  0  0  0  0999 V2000
   41.4849    0.3896   -4.1023 C   0  0  2  0  0  0  0  0  0  0  0  0
   41.2456    0.3812   -5.5040 O   0  0  0  0  0  0  0  0  0  0  0  0
   42.6685    2.9431   -8.7882 C   0  0  2  0  0  0  0  0  0  0  0  0
   42.8666    4.1597   -9.6222 N   0  0  0  0  0  0  0  0  0  0  0  0
   43.2856    2.8830   -4.2181 C   0  0  1  0  0  0  0  0  0  0  0  0
   41.1792    2.6651   -0.1023 C   0  0  1  0  0  0  0  0  0  0  0  0
   40.4713   10.5672   -1.3142 C   0  0  0  0  0  0  0  0  0  0  0  0
   41.1016   -1.0052   -3.4725 C   0  0  2  0  0  0  0  0  0  0  0  0
   41.8093   -2.0774   -4.1640 N   0  0  0  0  0  0  0  0  0  0  0  0
   41.1057    2.6604   -8.6284 C   0  0  0  0  0  0  0  0  0  0  0  0
   42.3981    3.6293   -3.2757 C   0  0  2  0  0  0  0  0  0  0  0  0
   42.4708    5.0899   -3.4532 O   0  0  0  0  0  0  0  0  0  0  0  0
   40.8700    4.2535    0.0089 C   0  0  2  0  0  0  0  0  0  0  0  0
   41.9923    4.8948    0.7719 N   0  0  0  0  0  0  0  0  0  0  0  0
   40.7835   11.8510   -0.8089 C   0  0  0  0  0  0  0  0  0  0  0  0
   41.2252   12.8492   -1.6745 N   0  0  0  0  0  0  0  0  0  0  0  0
   39.5242   -1.2004   -3.5481 C   0  0  1  0  0  0  0  0  0  0  0  0
   39.1884   -2.4557   -2.9751 O   0  0  0  0  0  0  0  0  0  0  0  0
   40.8456    1.3366   -7.7056 C   0  0  2  0  0  0  0  0  0  0  0  0
   39.4543    1.0708   -7.5646 N   0  0  0  0  0  0  0  0  0  0  0  0
   42.8812    2.9565   -2.0137 C   0  0  2  0  0  0  0  0  0  0  0  0
   42.4674    2.5765   -0.7569 O   0  0  0  0  0  0  0  0  0  0  0  0
   39.5053    4.4423    0.7627 C   0  0  1  0  0  0  0  0  0  0  0  0
   38.4618    3.8031   -0.0522 O   0  0  0  0  0  0  0  0  0  0  0  0
   38.8347   -0.0388   -2.7953 C   0  0  2  0  0  0  0  0  0  0  0  0
   37.3568   -0.1740   -2.8546 O   0  0  0  0  0  0  0  0  0  0  0  0
   41.4932    1.5418   -6.2809 C   0  0  2  0  0  0  0  0  0  0  0  0
   44.4501    2.7461   -2.3002 C   0  0  2  0  0  0  0  0  0  0  0  0
   44.4518    2.4051   -3.6108 O   0  0  0  0  0  0  0  0  0  0  0  0
   39.6126    3.7623    2.2425 C   0  0  2  0  0  0  0  0  0  0  0  0
   40.6677    4.4120    3.0525 O   0  0  0  0  0  0  0  0  0  0  0  0
   39.2273    1.3392   -3.4252 C   0  0  2  0  0  0  0  0  0  0  0  0
   40.6744    1.3966   -3.3423 O   0  0  0  0  0  0  0  0  0  0  0  0
   43.0199    1.8181   -6.4940 C   0  0  2  0  0  0  0  0  0  0  0  0
   43.4950    1.9601   -5.1772 O   0  0  0  0  0  0  0  0  0  0  0  0
   45.1892    1.5829   -1.5409 C   0  0  0  0  0  0  0  0  0  0  0  0
   46.5989    1.5670   -1.9306 O   0  0  0  0  0  0  0  0  0  0  0  0
   39.9611    2.2132    2.1090 C   0  0  1  0  0  0  0  0  0  0  0  0
   41.2562    2.1175    1.3298 O   0  0  0  0  0  0  0  0  0  0  0  0
   38.5477    2.3823   -2.6342 C   0  0  0  0  0  0  0  0  0  0  0  0
   38.9294    3.6009   -3.0398 O   0  0  0  0  0  0  0  0  0  0  0  0
   43.2434    3.1266   -7.3660 C   0  0  1  0  0  0  0  0  0  0  0  0
   44.6061    3.3571   -7.5561 O   0  0  0  0  0  0  0  0  0  0  0  0
   41.5459    6.0642   -2.8514 C   0  0  0  0  0  0  0  0  0  0  0  0
   40.0585    1.6775    3.5776 C   0  0  0  0  0  0  0  0  0  0  0  0
   38.9096    2.0082    4.3709 N   0  0  0  0  0  0  0  0  0  0  0  0
   42.0380    7.4803   -3.1539 C   0  0  0  0  0  0  0  0  0  0  0  0
   41.0816    8.4076   -2.5186 N   0  0  0  0  0  0  0  0  0  0  0  0
   41.5279    9.8511   -2.2763 C   0  0  0  0  0  0  0  0  0  0  0  0
  1  2  1  6  0  0  0
  1  8  1  0  0  0  0
  1 33  1  0  0  0  0
  3  4  1  6  0  0  0
  3 10  1  0  0  0  0
  3 42  1  0  0  0  0
  5 11  1  0  0  0  0
  5 29  1  0  0  0  0
  5 35  1  1  0  0  0
  6 13  1  0  0  0  0
  6 39  1  0  0  0  0
  6 22  1  1  0  0  0
  7 15  1  0  0  0  0
  8  9  1  6  0  0  0
  8 17  1  0  0  0  0
 10 19  1  0  0  0  0
 11 12  1  1  0  0  0
 11 21  1  0  0  0  0
 12 44  1  0  0  0  0
 13 14  1  1  0  0  0
 13 23  1  0  0  0  0
 15 16  1  0  0  0  0
 17 18  1  1  0  0  0
 17 25  1  0  0  0  0
 19 20  1  1  0  0  0
 19 27  1  0  0  0  0
 21 22  1  1  0  0  0
 21 28  1  0  0  0  0
 23 24  1  6  0  0  0
 23 30  1  0  0  0  0
 25 26  1  6  0  0  0
 25 32  1  0  0  0  0
 27  2  1  1  0  0  0
 27 34  1  0  0  0  0
 28 29  1  0  0  0  0
 28 36  1  1  0  0  0
 30 31  1  1  0  0  0
 30 38  1  0  0  0  0
 32 33  1  0  0  0  0
 32 40  1  1  0  0  0
 34 35  1  1  0  0  0
 34 42  1  0  0  0  0
 36 37  1  0  0  0  0
 38 39  1  0  0  0  0
 38 45  1  1  0  0  0
 40 41  1  0  0  0  0
 42 43  1  6  0  0  0
 44 47  1  0  0  0  0
 45 46  1  0  0  0  0
 47 48  1  0  0  0  0
 48 49  1  0  0  0  0
 49  7  1  0  0  0  0
M  END
>  <CHROM.1>
178.74992019,61.57222367,-63.41610360,49.06663377,168.26416384,174.21207680
2.85954670,-167.67812975,-179.58912837,174.52734811,-67.08958161,51.71518539
-179.53131418,161.36534596,-167.99887216,171.37310635,41.35683080,3.15742932
-2.76883099,1.14214703,-1.25101965,-2.69505633

>  <Name>
2bee_lig

>  <RI>
0

>  <Rbt.Current_Directory>
/home/itssahil/PROJECTS/Mol_Feturizer/New_Systems/rnas/2bee

>  <Rbt.Executable>
rbdock ($Id: //depot/dev/client3/rdock/2013.1/src/exe/rbdock.cxx#4 $)

>  <Rbt.Library>
libRbt.so (2013.1, Build901 2013/11/27)

>  <Rbt.Parameter_File>
/export/apps/rDock/src/rDock_2013.1_src/data/scripts/dock_solv.prm

>  <Rbt.Receptor>
prm/pocket_docking_6.prm

>  <SCORE>
-15.8937

>  <SCORE.INTER>
-0.153213

>  <SCORE.INTER.CONST>
1

>  <SCORE.INTER.POLAR>
-1.19341

>  <SCORE.INTER.ROT>
16

>  <SCORE.INTER.SOLV>
14.0029

>  <SCORE.INTER.VDW>
-15.0584

>  <SCORE.INTER.norm>
-0.0031268

>  <SCORE.INTRA>
-15.7405

>  <SCORE.INTRA.DIHEDRAL>
-28.9721

>  <SCORE.INTRA.DIHEDRAL.0>
36.0842

>  <SCORE.INTRA.POLAR>
0

>  <SCORE.INTRA.POLAR.0>
0

>  <SCORE.INTRA.REPUL>
0

>  <SCORE.INTRA.REPUL.0>
0

>  <SCORE.INTRA.SOLV>
-1.3956

>  <SCORE.INTRA.SOLV.lig_0>
-126.444

>  <SCORE.INTRA.VDW>
-0.556625

>  <SCORE.INTRA.VDW.0>
-7.40469

>  <SCORE.INTRA.norm>
-0.321235

>  <SCORE.RESTR>
0

>  <SCORE.RESTR.CAVITY>
0

>  <SCORE.RESTR.norm>
0

>  <SCORE.SYSTEM>
0

>  <SCORE.SYSTEM.CONST>
0

>  <SCORE.SYSTEM.DIHEDRAL>
0

>  <SCORE.SYSTEM.SOLV>
0

>  <SCORE.SYSTEM.norm>
0

>  <SCORE.heavy>
49

>  <SCORE.norm>
-0.324361

>  <RMSD>
8.513

$$$$
2bee_lig
 OpenBabel11021811423D
libRbt.so/2013.1/901 2013/11/27
 49 52  0  0  0  0  0  0  0  0999 V2000
   43.9858    6.3045   -3.3406 C   0  0  2  0  0  0  0  0  0  0  0  0
   43.2629    5.1431   -3.7290 O   0  0  0  0  0  0  0  0  0  0  0  0
   43.7601    2.6380   -0.1441 C   0  0  2  0  0  0  0  0  0  0  0  0
   43.5896    1.4936    0.7920 N   0  0  0  0  0  0  0  0  0  0  0  0
   45.0894    1.8873   -4.4007 C   0  0  1  0  0  0  0  0  0  0  0  0
   41.9990   -1.7094   -4.5610 C   0  0  1  0  0  0  0  0  0  0  0  0
   51.0712    3.7243   -4.4459 C   0  0  0  0  0  0  0  0  0  0  0  0
   43.6822    7.4952   -4.3301 C   0  0  2  0  0  0  0  0  0  0  0  0
   42.2434    7.7219   -4.4131 N   0  0  0  0  0  0  0  0  0  0  0  0
   42.3312    3.2683   -0.4742 C   0  0  0  0  0  0  0  0  0  0  0  0
   45.3970    0.4297   -4.5158 C   0  0  2  0  0  0  0  0  0  0  0  0
   46.2613    0.1143   -5.6664 O   0  0  0  0  0  0  0  0  0  0  0  0
   41.0746   -2.0463   -3.2715 C   0  0  2  0  0  0  0  0  0  0  0  0
   41.8507   -2.9584   -2.3667 N   0  0  0  0  0  0  0  0  0  0  0  0
   51.8304    3.7707   -5.6384 C   0  0  0  0  0  0  0  0  0  0  0  0
   52.4502    4.9582   -6.0211 N   0  0  0  0  0  0  0  0  0  0  0  0
   44.3067    7.1658   -5.7561 C   0  0  1  0  0  0  0  0  0  0  0  0
   44.0326    8.2447   -6.6382 O   0  0  0  0  0  0  0  0  0  0  0  0
   42.4748    4.5227   -1.5123 C   0  0  2  0  0  0  0  0  0  0  0  0
   41.2061    5.0976   -1.8059 N   0  0  0  0  0  0  0  0  0  0  0  0
   43.9696   -0.0551   -4.4369 C   0  0  2  0  0  0  0  0  0  0  0  0
   43.2043   -1.1197   -4.0174 O   0  0  0  0  0  0  0  0  0  0  0  0
   39.7601   -2.7450   -3.7716 C   0  0  1  0  0  0  0  0  0  0  0  0
   39.0544   -1.7862   -4.6344 O   0  0  0  0  0  0  0  0  0  0  0  0
   45.8289    6.9418   -5.6016 C   0  0  2  0  0  0  0  0  0  0  0  0
   46.4506    6.6154   -6.9103 O   0  0  0  0  0  0  0  0  0  0  0  0
   43.1584    4.0357   -2.8489 C   0  0  2  0  0  0  0  0  0  0  0  0
   43.1613    1.0853   -5.2329 C   0  0  2  0  0  0  0  0  0  0  0  0
   43.7986    2.2112   -4.8324 O   0  0  0  0  0  0  0  0  0  0  0  0
   40.1524   -4.1064   -4.5816 C   0  0  2  0  0  0  0  0  0  0  0  0
   40.8643   -5.0625   -3.7038 O   0  0  0  0  0  0  0  0  0  0  0  0
   46.1172    5.7626   -4.6135 C   0  0  2  0  0  0  0  0  0  0  0  0
   45.4764    6.1440   -3.3693 O   0  0  0  0  0  0  0  0  0  0  0  0
   44.5499    3.4252   -2.4698 C   0  0  2  0  0  0  0  0  0  0  0  0
   45.0740    3.0504   -3.7207 O   0  0  0  0  0  0  0  0  0  0  0  0
   41.6409    1.2915   -4.8845 C   0  0  0  0  0  0  0  0  0  0  0  0
   41.4927    1.4668   -3.4399 O   0  0  0  0  0  0  0  0  0  0  0  0
   41.0966   -3.7558   -5.8164 C   0  0  1  0  0  0  0  0  0  0  0  0
   42.3094   -3.0425   -5.2561 O   0  0  0  0  0  0  0  0  0  0  0  0
   47.5832    5.6377   -4.5098 C   0  0  0  0  0  0  0  0  0  0  0  0
   48.0999    5.2079   -5.6689 O   0  0  0  0  0  0  0  0  0  0  0  0
   44.3785    2.1895   -1.4869 C   0  0  1  0  0  0  0  0  0  0  0  0
   45.6244    1.6602   -1.1497 O   0  0  0  0  0  0  0  0  0  0  0  0
   47.4788    0.8526   -6.0397 C   0  0  0  0  0  0  0  0  0  0  0  0
   41.4213   -5.1278   -6.4984 C   0  0  0  0  0  0  0  0  0  0  0  0
   40.2661   -5.7523   -7.0765 N   0  0  0  0  0  0  0  0  0  0  0  0
   48.4437    0.8671   -4.8532 C   0  0  0  0  0  0  0  0  0  0  0  0
   49.4853    1.8654   -5.1643 N   0  0  0  0  0  0  0  0  0  0  0  0
   50.3953    2.3374   -4.0283 C   0  0  0  0  0  0  0  0  0  0  0  0
  1  2  1  6  0  0  0
  1  8  1  0  0  0  0
  1 33  1  0  0  0  0
  3  4  1  1  0  0  0
  3 10  1  0  0  0  0
  3 42  1  0  0  0  0
  5 11  1  0  0  0  0
  5 29  1  0  0  0  0
  5 35  1  1  0  0  0
  6 13  1  0  0  0  0
  6 39  1  0  0  0  0
  6 22  1  1  0  0  0
  7 15  1  0  0  0  0
  8  9  1  6  0  0  0
  8 17  1  0  0  0  0
 10 19  1  0  0  0  0
 11 12  1  6  0  0  0
 11 21  1  0  0  0  0
 12 44  1  0  0  0  0
 13 14  1  1  0  0  0
 13 23  1  0  0  0  0
 15 16  1  0  0  0  0
 17 18  1  6  0  0  0
 17 25  1  0  0  0  0
 19 20  1  6  0  0  0
 19 27  1  0  0  0  0
 21 22  1  6  0  0  0
 21 28  1  0  0  0  0
 23 24  1  6  0  0  0
 23 30  1  0  0  0  0
 25 26  1  6  0  0  0
 25 32  1  0  0  0  0
 27  2  1  6  0  0  0
 27 34  1  0  0  0  0
 28 29  1  0  0  0  0
 28 36  1  1  0  0  0
 30 31  1  1  0  0  0
 30 38  1  0  0  0  0
 32 33  1  0  0  0  0
 32 40  1  1  0  0  0
 34 35  1  6  0  0  0
 34 42  1  0  0  0  0
 36 37  1  0  0  0  0
 38 39  1  0  0  0  0
 38 45  1  1  0  0  0
 40 41  1  0  0  0  0
 42 43  1  1  0  0  0
 44 47  1  0  0  0  0
 45 46  1  0  0  0  0
 47 48  1  0  0  0  0
 48 49  1  0  0  0  0
 49  7  1  0  0  0  0
M  END
>  <CHROM.1>
-167.10094104,-54.64595085,-139.19664799,-179.01132293,45.89128565,56.33436003
-144.67358943,58.86915311,52.36651164,-68.03708089,-95.99917359,65.71666309
-167.15881225,165.70709577,-160.71518151,-57.14607103,44.34193070,1.98741731
-4.16221376,0.92337133,0.28033893,0.16935493

>  <Name>
2bee_lig

>  <RI>
0

>  <Rbt.Current_Directory>
/home/itssahil/PROJECTS/Mol_Feturizer/New_Systems/rnas/2bee

>  <Rbt.Executable>
rbdock ($Id: //depot/dev/client3/rdock/2013.1/src/exe/rbdock.cxx#4 $)

>  <Rbt.Library>
libRbt.so (2013.1, Build901 2013/11/27)

>  <Rbt.Parameter_File>
/export/apps/rDock/src/rDock_2013.1_src/data/scripts/dock_solv.prm

>  <Rbt.Receptor>
prm/pocket_docking_5.prm

>  <SCORE>
-7.9038

>  <SCORE.INTER>
-0.381469

>  <SCORE.INTER.CONST>
1

>  <SCORE.INTER.POLAR>
-0.614989

>  <SCORE.INTER.ROT>
16

>  <SCORE.INTER.SOLV>
19.1497

>  <SCORE.INTER.VDW>
-18.8543

>  <SCORE.INTER.norm>
-0.00778508

>  <SCORE.INTRA>
-7.53002

>  <SCORE.INTRA.DIHEDRAL>
-17.8352

>  <SCORE.INTRA.DIHEDRAL.0>
36.0842

>  <SCORE.INTRA.POLAR>
0

>  <SCORE.INTRA.POLAR.0>
0

>  <SCORE.INTRA.REPUL>
0

>  <SCORE.INTRA.REPUL.0>
0

>  <SCORE.INTRA.SOLV>
0.0200131

>  <SCORE.INTRA.SOLV.lig_0>
-126.444

>  <SCORE.INTRA.VDW>
1.37759

>  <SCORE.INTRA.VDW.0>
-7.40469

>  <SCORE.INTRA.norm>
-0.153674

>  <SCORE.RESTR>
0.00769505

>  <SCORE.RESTR.CAVITY>
0.00769505

>  <SCORE.RESTR.norm>
0.000157042

>  <SCORE.SYSTEM>
0

>  <SCORE.SYSTEM.CONST>
0

>  <SCORE.SYSTEM.DIHEDRAL>
0

>  <SCORE.SYSTEM.SOLV>
0

>  <SCORE.SYSTEM.norm>
0

>  <SCORE.heavy>
49

>  <SCORE.norm>
-0.161302

>  <RMSD>
8.552

$$$$
2bee_lig
 OpenBabel11021811423D
libRbt.so/2013.1/901 2013/11/27
 49 52  0  0  0  0  0  0  0  0999 V2000
   42.0399   -0.5573   -3.4006 C   0  0  2  0  0  0  0  0  0  0  0  0
   43.3506   -1.0853   -3.5600 O   0  0  0  0  0  0  0  0  0  0  0  0
   47.4322    0.5572   -3.6884 C   0  0  2  0  0  0  0  0  0  0  0  0
   48.5722    1.4306   -4.0790 N   0  0  0  0  0  0  0  0  0  0  0  0
   43.7430    2.4306   -1.9093 C   0  0  1  0  0  0  0  0  0  0  0  0
   44.0602    5.8361   -4.9923 C   0  0  1  0  0  0  0  0  0  0  0  0
   41.3139    6.4570    3.3787 C   0  0  0  0  0  0  0  0  0  0  0  0
   41.0483   -1.6875   -2.9227 C   0  0  2  0  0  0  0  0  0  0  0  0
   41.5580   -2.3203   -1.7109 N   0  0  0  0  0  0  0  0  0  0  0  0
   46.8122   -0.1185   -4.9949 C   0  0  0  0  0  0  0  0  0  0  0  0
   44.1006    3.8747   -2.0479 C   0  0  2  0  0  0  0  0  0  0  0  0
   43.9773    4.6208   -0.7835 O   0  0  0  0  0  0  0  0  0  0  0  0
   43.4025    6.1933   -6.4314 C   0  0  2  0  0  0  0  0  0  0  0  0
   43.1605    4.9068   -7.1658 N   0  0  0  0  0  0  0  0  0  0  0  0
   40.4539    5.3357    3.3152 C   0  0  0  0  0  0  0  0  0  0  0  0
   39.1761    5.4705    2.7768 N   0  0  0  0  0  0  0  0  0  0  0  0
   40.8501   -2.7436   -4.0963 C   0  0  1  0  0  0  0  0  0  0  0  0
   39.9529   -3.7539   -3.6587 O   0  0  0  0  0  0  0  0  0  0  0  0
   45.5461   -1.0773   -4.6086 C   0  0  2  0  0  0  0  0  0  0  0  0
   44.9916   -1.6918   -5.7667 N   0  0  0  0  0  0  0  0  0  0  0  0
   43.2075    4.1614   -3.2307 C   0  0  2  0  0  0  0  0  0  0  0  0
   43.1063    4.9571   -4.3494 O   0  0  0  0  0  0  0  0  0  0  0  0
   44.4057    7.1060   -7.2231 C   0  0  1  0  0  0  0  0  0  0  0  0
   44.5765    8.3445   -6.4495 O   0  0  0  0  0  0  0  0  0  0  0  0
   40.3053   -2.0138   -5.3460 C   0  0  2  0  0  0  0  0  0  0  0  0
   40.1199   -2.9629   -6.4733 O   0  0  0  0  0  0  0  0  0  0  0  0
   44.4356   -0.2281   -3.8759 C   0  0  2  0  0  0  0  0  0  0  0  0
   41.9163    3.2500   -2.9314 C   0  0  2  0  0  0  0  0  0  0  0  0
   42.4779    2.1271   -2.4238 O   0  0  0  0  0  0  0  0  0  0  0  0
   45.8200    6.3128   -7.4072 C   0  0  2  0  0  0  0  0  0  0  0  0
   45.6351    5.0669   -8.1851 O   0  0  0  0  0  0  0  0  0  0  0  0
   41.2944   -0.8917   -5.8067 C   0  0  2  0  0  0  0  0  0  0  0  0
   41.4342   -0.0141   -4.6602 O   0  0  0  0  0  0  0  0  0  0  0  0
   45.0945    0.4133   -2.6083 C   0  0  2  0  0  0  0  0  0  0  0  0
   44.0244    1.1182   -2.0269 O   0  0  0  0  0  0  0  0  0  0  0  0
   41.0384    2.7903   -4.1536 C   0  0  0  0  0  0  0  0  0  0  0  0
   40.4351    3.9626   -4.7869 O   0  0  0  0  0  0  0  0  0  0  0  0
   46.4241    5.9331   -5.9824 C   0  0  1  0  0  0  0  0  0  0  0  0
   45.3798    5.1014   -5.2675 O   0  0  0  0  0  0  0  0  0  0  0  0
   40.6862   -0.2384   -6.9810 C   0  0  0  0  0  0  0  0  0  0  0  0
   39.5355    0.3582   -6.6414 O   0  0  0  0  0  0  0  0  0  0  0  0
   46.2999    1.3641   -3.0149 C   0  0  1  0  0  0  0  0  0  0  0  0
   46.8839    1.9222   -1.8775 O   0  0  0  0  0  0  0  0  0  0  0  0
   44.1655    6.0731   -0.6343 C   0  0  0  0  0  0  0  0  0  0  0  0
   47.7557    5.1652   -6.2830 C   0  0  0  0  0  0  0  0  0  0  0  0
   48.4992    4.8496   -5.0972 N   0  0  0  0  0  0  0  0  0  0  0  0
   44.0626    6.4457    0.8454 C   0  0  0  0  0  0  0  0  0  0  0  0
   42.7154    6.0423    1.2929 N   0  0  0  0  0  0  0  0  0  0  0  0
   41.8509    7.0820    2.0091 C   0  0  0  0  0  0  0  0  0  0  0  0
  1  2  1  6  0  0  0
  1  8  1  0  0  0  0
  1 33  1  0  0  0  0
  3  4  1  6  0  0  0
  3 10  1  0  0  0  0
  3 42  1  0  0  0  0
  5 11  1  0  0  0  0
  5 29  1  0  0  0  0
  5 35  1  6  0  0  0
  6 13  1  0  0  0  0
  6 39  1  0  0  0  0
  6 22  1  1  0  0  0
  7 15  1  0  0  0  0
  8  9  1  1  0  0  0
  8 17  1  0  0  0  0
 10 19  1  0  0  0  0
 11 12  1  1  0  0  0
 11 21  1  0  0  0  0
 12 44  1  0  0  0  0
 13 14  1  6  0  0  0
 13 23  1  0  0  0  0
 15 16  1  0  0  0  0
 17 18  1  1  0  0  0
 17 25  1  0  0  0  0
 19 20  1  6  0  0  0
 19 27  1  0  0  0  0
 21 22  1  1  0  0  0
 21 28  1  0  0  0  0
 23 24  1  1  0  0  0
 23 30  1  0  0  0  0
 25 26  1  6  0  0  0
 25 32  1  0  0  0  0
 27  2  1  1  0  0  0
 27 34  1  0  0  0  0
 28 29  1  0  0  0  0
 28 36  1  6  0  0  0
 30 31  1  6  0  0  0
 30 38  1  0  0  0  0
 32 33  1  0  0  0  0
 32 40  1  6  0  0  0
 34 35  1  6  0  0  0
 34 42  1  0  0  0  0
 36 37  1  0  0  0  0
 38 39  1  0  0  0  0
 38 45  1  6  0  0  0
 40 41  1  0  0  0  0
 42 43  1  1  0  0  0
 44 47  1  0  0  0  0
 45 46  1  0  0  0  0
 47 48  1  0  0  0  0
 48 49  1  0  0  0  0
 49  7  1  0  0  0  0
M  END
>  <CHROM.1>
-174.70794350,-7.72567019,167.49265555,-67.00890200,-175.24465796,-175.52778434
10.75007693,-154.76347605,-64.44379044,63.49975986,-108.97819864,174.73271040
-60.09262943,-128.05950757,-128.58134935,-63.52100753,43.42190806,2.56258036
-3.60185909,1.96213110,-0.90934879,-2.47656613

>  <Name>
2bee_lig

>  <RI>
3.46266e+07

>  <Rbt.Current_Directory>
/home/itssahil/PROJECTS/Mol_Feturizer/New_Systems/rnas/2bee

>  <Rbt.Executable>
rbdock ($Id: //depot/dev/client3/rdock/2013.1/src/exe/rbdock.cxx#4 $)

>  <Rbt.Library>
libRbt.so (2013.1, Build901 2013/11/27)

>  <Rbt.Parameter_File>
/export/apps/rDock/src/rDock_2013.1_src/data/scripts/dock_solv.prm

>  <Rbt.Receptor>
prm/pocket_docking_4.prm

>  <SCORE>
-10.8869

>  <SCORE.INTER>
-4.03327

>  <SCORE.INTER.CONST>
1

>  <SCORE.INTER.POLAR>
-0.880969

>  <SCORE.INTER.ROT>
16

>  <SCORE.INTER.SOLV>
13.7706

>  <SCORE.INTER.VDW>
-18.6091

>  <SCORE.INTER.norm>
-0.0823116

>  <SCORE.INTRA>
-6.87611

>  <SCORE.INTRA.DIHEDRAL>
-13.8287

>  <SCORE.INTRA.DIHEDRAL.0>
36.0842

>  <SCORE.INTRA.POLAR>
0

>  <SCORE.INTRA.POLAR.0>
0

>  <SCORE.INTRA.REPUL>
0

>  <SCORE.INTRA.REPUL.0>
0

>  <SCORE.INTRA.SOLV>
-0.42434

>  <SCORE.INTRA.SOLV.lig_0>
-126.444

>  <SCORE.INTRA.VDW>
0.250382

>  <SCORE.INTRA.VDW.0>
-7.40469

>  <SCORE.INTRA.norm>
-0.140329

>  <SCORE.RESTR>
0.0224969

>  <SCORE.RESTR.CAVITY>
0.0224969

>  <SCORE.RESTR.norm>
0.000459121

>  <SCORE.SYSTEM>
0

>  <SCORE.SYSTEM.CONST>
0

>  <SCORE.SYSTEM.DIHEDRAL>
0

>  <SCORE.SYSTEM.SOLV>
0

>  <SCORE.SYSTEM.norm>
0

>  <SCORE.heavy>
49

>  <SCORE.norm>
-0.222181

>  <RMSD>
8.562

$$$$
2bee_lig
 OpenBabel11021811423D
libRbt.so/2013.1/901 2013/11/27
 49 52  0  0  0  0  0  0  0  0999 V2000
   47.5948   11.8258  -12.2514 C   0  0  2  0  0  0  0  0  0  0  0  0
   46.7155   10.7793  -12.6436 O   0  0  0  0  0  0  0  0  0  0  0  0
   43.0417   12.7903  -13.9977 C   0  0  2  0  0  0  0  0  0  0  0  0
   41.8601   13.1151  -14.8422 N   0  0  0  0  0  0  0  0  0  0  0  0
   44.8047    9.1145  -10.9945 C   0  0  1  0  0  0  0  0  0  0  0  0
   43.9557    7.9162   -6.4396 C   0  0  1  0  0  0  0  0  0  0  0  0
   50.0621    6.2549   -6.1207 C   0  0  0  0  0  0  0  0  0  0  0  0
   48.5027   11.3570  -11.0493 C   0  0  2  0  0  0  0  0  0  0  0  0
   49.2037   10.1271  -11.4021 N   0  0  0  0  0  0  0  0  0  0  0  0
   44.3668   12.8883  -14.8823 C   0  0  0  0  0  0  0  0  0  0  0  0
   45.3443    9.1452   -9.6015 C   0  0  2  0  0  0  0  0  0  0  0  0
   46.7404    8.6829   -9.5161 O   0  0  0  0  0  0  0  0  0  0  0  0
   45.1488    6.8362   -6.6421 C   0  0  2  0  0  0  0  0  0  0  0  0
   44.5994    5.6741   -7.4171 N   0  0  0  0  0  0  0  0  0  0  0  0
   51.4375    6.4429   -6.3919 C   0  0  0  0  0  0  0  0  0  0  0  0
   52.2774    5.3388   -6.5190 N   0  0  0  0  0  0  0  0  0  0  0  0
   47.6004   11.1658   -9.7526 C   0  0  1  0  0  0  0  0  0  0  0  0
   48.4264   10.7486   -8.6753 O   0  0  0  0  0  0  0  0  0  0  0  0
   45.6885   12.5248  -13.9921 C   0  0  2  0  0  0  0  0  0  0  0  0
   46.8768   12.6183  -14.7703 N   0  0  0  0  0  0  0  0  0  0  0  0
   44.2123    8.3794   -8.9605 C   0  0  2  0  0  0  0  0  0  0  0  0
   43.5184    8.2506   -7.7786 O   0  0  0  0  0  0  0  0  0  0  0  0
   45.6469    6.3751   -5.2259 C   0  0  1  0  0  0  0  0  0  0  0  0
   46.1806    7.5614   -4.5407 O   0  0  0  0  0  0  0  0  0  0  0  0
   46.8907   12.5012   -9.4295 C   0  0  2  0  0  0  0  0  0  0  0  0
   46.0235   12.3624   -8.2317 O   0  0  0  0  0  0  0  0  0  0  0  0
   45.5531   11.0663  -13.4042 C   0  0  2  0  0  0  0  0  0  0  0  0
   43.8235    7.3044  -10.0922 C   0  0  2  0  0  0  0  0  0  0  0  0
   43.9450    8.0352  -11.2259 O   0  0  0  0  0  0  0  0  0  0  0  0
   44.3972    5.7193   -4.4063 C   0  0  2  0  0  0  0  0  0  0  0  0
   43.8669    4.5279   -5.1067 O   0  0  0  0  0  0  0  0  0  0  0  0
   45.9982   12.9585  -10.6312 C   0  0  2  0  0  0  0  0  0  0  0  0
   46.9042   13.0625  -11.7594 O   0  0  0  0  0  0  0  0  0  0  0  0
   44.2407   11.0235  -12.5508 C   0  0  2  0  0  0  0  0  0  0  0  0
   44.2325    9.7038  -12.0626 O   0  0  0  0  0  0  0  0  0  0  0  0
   42.3585    6.7304  -10.0923 C   0  0  0  0  0  0  0  0  0  0  0  0
   42.0752    6.1210   -8.7932 O   0  0  0  0  0  0  0  0  0  0  0  0
   43.2205    6.7836   -4.2592 C   0  0  1  0  0  0  0  0  0  0  0  0
   42.8360    7.2130   -5.6596 O   0  0  0  0  0  0  0  0  0  0  0  0
   45.3838   14.2428  -10.2457 C   0  0  0  0  0  0  0  0  0  0  0  0
   44.3745   14.5463  -11.0731 O   0  0  0  0  0  0  0  0  0  0  0  0
   42.9704   11.3485  -13.4470 C   0  0  1  0  0  0  0  0  0  0  0  0
   41.8093   11.3160  -12.6744 O   0  0  0  0  0  0  0  0  0  0  0  0
   47.3877    8.1605   -8.3016 C   0  0  0  0  0  0  0  0  0  0  0  0
   42.0798    6.0424   -3.4829 C   0  0  0  0  0  0  0  0  0  0  0  0
   42.5384    5.4215   -2.2734 N   0  0  0  0  0  0  0  0  0  0  0  0
   48.2390    6.9437   -8.6672 C   0  0  0  0  0  0  0  0  0  0  0  0
   48.0201    5.9381   -7.6096 N   0  0  0  0  0  0  0  0  0  0  0  0
   49.2421    5.2249   -7.0271 C   0  0  0  0  0  0  0  0  0  0  0  0
  1  2  1  1  0  0  0
  1  8  1  0  0  0  0
  1 33  1  0  0  0  0
  3  4  1  6  0  0  0
  3 10  1  0  0  0  0
  3 42  1  0  0  0  0
  5 11  1  0  0  0  0
  5 29  1  0  0  0  0
  5 35  1  1  0  0  0
  6 13  1  0  0  0  0
  6 39  1  0  0  0  0
  6 22  1  6  0  0  0
  7 15  1  0  0  0  0
  8  9  1  6  0  0  0
  8 17  1  0  0  0  0
 10 19  1  0  0  0  0
 11 12  1  6  0  0  0
 11 21  1  0  0  0  0
 12 44  1  0  0  0  0
 13 14  1  6  0  0  0
 13 23  1  0  0  0  0
 15 16  1  0  0  0  0
 17 18  1  1  0  0  0
 17 25  1  0  0  0  0
 19 20  1  6  0  0  0
 19 27  1  0  0  0  0
 21 22  1  1  0  0  0
 21 28  1  0  0  0  0
 23 24  1  1  0  0  0
 23 30  1  0  0  0  0
 25 26  1  1  0  0  0
 25 32  1  0  0  0  0
 27  2  1  1  0  0  0
 27 34  1  0  0  0  0
 28 29  1  0  0  0  0
 28 36  1  1  0  0  0
 30 31  1  6  0  0  0
 30 38  1  0  0  0  0
 32 33  1  0  0  0  0
 32 40  1  1  0  0  0
 34 35  1  6  0  0  0
 34 42  1  0  0  0  0
 36 37  1  0  0  0  0
 38 39  1  0  0  0  0
 38 45  1  6  0  0  0
 40 41  1  0  0  0  0
 42 43  1  1  0  0  0
 44 47  1  0  0  0  0
 45 46  1  0  0  0  0
 47 48  1  0  0  0  0
 48 49  1  0  0  0  0
 49  7  1  0  0  0  0
M  END
>  <CHROM.1>
160.93090283,28.44835398,-35.44534890,-49.98521525,-157.62639025,137.98732968
-58.34525130,15.04188755,-56.86136147,-165.55649710,85.01511248,51.56715973
-138.09785936,-134.18181770,71.66221355,-125.83605468,45.53655442,9.18351662
-9.30806747,-1.63451194,0.03016890,2.27771354

>  <Name>
2bee_lig

>  <RI>
0

>  <Rbt.Current_Directory>
/home/itssahil/PROJECTS/Mol_Feturizer/New_Systems/rnas/2bee

>  <Rbt.Executable>
rbdock ($Id: //depot/dev/client3/rdock/2013.1/src/exe/rbdock.cxx#4 $)

>  <Rbt.Library>
libRbt.so (2013.1, Build901 2013/11/27)

>  <Rbt.Parameter_File>
/export/apps/rDock/src/rDock_2013.1_src/data/scripts/dock_solv.prm

>  <Rbt.Receptor>
prm/blind_docking_60.prm

>  <SCORE>
19.9984

>  <SCORE.INTER>
-10.483

>  <SCORE.INTER.CONST>
1

>  <SCORE.INTER.POLAR>
-0.893505

>  <SCORE.INTER.ROT>
16

>  <SCORE.INTER.SOLV>
30.0302

>  <SCORE.INTER.VDW>
-28.287

>  <SCORE.INTER.norm>
-0.213938

>  <SCORE.INTRA>
10.9868

>  <SCORE.INTRA.DIHEDRAL>
5.84897

>  <SCORE.INTRA.DIHEDRAL.0>
36.0842

>  <SCORE.INTRA.POLAR>
0

>  <SCORE.INTRA.POLAR.0>
0

>  <SCORE.INTRA.REPUL>
0.30882

>  <SCORE.INTRA.REPUL.0>
0

>  <SCORE.INTRA.SOLV>
7.06931

>  <SCORE.INTRA.SOLV.lig_0>
-126.444

>  <SCORE.INTRA.VDW>
2.98351

>  <SCORE.INTRA.VDW.0>
-7.40469

>  <SCORE.INTRA.norm>
0.224219

>  <SCORE.RESTR>
19.4946

>  <SCORE.RESTR.CAVITY>
19.4946

>  <SCORE.RESTR.norm>
0.397849

>  <SCORE.SYSTEM>
0

>  <SCORE.SYSTEM.CONST>
0

>  <SCORE.SYSTEM.DIHEDRAL>
0

>  <SCORE.SYSTEM.SOLV>
0

>  <SCORE.SYSTEM.norm>
0

>  <SCORE.heavy>
49

>  <SCORE.norm>
0.408131

>  <RMSD>
8.565

$$$$
2bee_lig
 OpenBabel11021811423D
libRbt.so/2013.1/901 2013/11/27
 49 52  0  0  0  0  0  0  0  0999 V2000
   42.1042    7.7704   -2.5876 C   0  0  2  0  0  0  0  0  0  0  0  0
   42.9105    7.0507   -1.6634 O   0  0  0  0  0  0  0  0  0  0  0  0
   44.0310    2.8065   -1.3394 C   0  0  2  0  0  0  0  0  0  0  0  0
   43.8876    1.3364   -1.1574 N   0  0  0  0  0  0  0  0  0  0  0  0
   42.6121    4.9932   -5.1451 C   0  0  1  0  0  0  0  0  0  0  0  0
   39.6519    2.0551   -7.0386 C   0  0  1  0  0  0  0  0  0  0  0  0
   49.4150    5.2518   -5.2655 C   0  0  0  0  0  0  0  0  0  0  0  0
   42.5016    9.2972   -2.5884 C   0  0  2  0  0  0  0  0  0  0  0  0
   43.9302    9.4420   -2.8466 N   0  0  0  0  0  0  0  0  0  0  0  0
   43.4144    3.5586   -0.0737 C   0  0  0  0  0  0  0  0  0  0  0  0
   42.5369    3.9477   -6.2099 C   0  0  2  0  0  0  0  0  0  0  0  0
   43.5897    4.0905   -7.2305 O   0  0  0  0  0  0  0  0  0  0  0  0
   39.2107    1.6684   -5.5264 C   0  0  2  0  0  0  0  0  0  0  0  0
   40.3447    2.0159   -4.6064 N   0  0  0  0  0  0  0  0  0  0  0  0
   49.9388    5.8435   -6.4387 C   0  0  0  0  0  0  0  0  0  0  0  0
   51.2717    5.6351   -6.7858 N   0  0  0  0  0  0  0  0  0  0  0  0
   42.0888    9.9485   -1.1965 C   0  0  1  0  0  0  0  0  0  0  0  0
   42.4459   11.3230   -1.2084 O   0  0  0  0  0  0  0  0  0  0  0  0
   43.5409    5.1794   -0.2418 C   0  0  2  0  0  0  0  0  0  0  0  0
   43.0016    5.8592    0.8867 N   0  0  0  0  0  0  0  0  0  0  0  0
   41.0770    4.1423   -6.5407 C   0  0  2  0  0  0  0  0  0  0  0  0
   39.9645    3.4678   -6.9908 O   0  0  0  0  0  0  0  0  0  0  0  0
   38.9052    0.1289   -5.4764 C   0  0  1  0  0  0  0  0  0  0  0  0
   37.7797   -0.1250   -6.3877 O   0  0  0  0  0  0  0  0  0  0  0  0
   40.5678    9.7669   -0.9849 C   0  0  2  0  0  0  0  0  0  0  0  0
   40.1416   10.3485    0.3135 O   0  0  0  0  0  0  0  0  0  0  0  0
   42.7877    5.6422   -1.5494 C   0  0  2  0  0  0  0  0  0  0  0  0
   40.8836    5.7310   -6.3784 C   0  0  2  0  0  0  0  0  0  0  0  0
   41.6482    5.9964   -5.2926 O   0  0  0  0  0  0  0  0  0  0  0  0
   40.2396   -0.6965   -5.9254 C   0  0  2  0  0  0  0  0  0  0  0  0
   41.3663   -0.4311   -5.0026 O   0  0  0  0  0  0  0  0  0  0  0  0
   40.1854    8.2491   -0.9920 C   0  0  2  0  0  0  0  0  0  0  0  0
   40.6376    7.7492   -2.2765 O   0  0  0  0  0  0  0  0  0  0  0  0
   43.4265    4.8752   -2.7561 C   0  0  2  0  0  0  0  0  0  0  0  0
   42.7055    5.3749   -3.8563 O   0  0  0  0  0  0  0  0  0  0  0  0
   39.4428    6.2685   -6.0452 C   0  0  0  0  0  0  0  0  0  0  0  0
   39.0034    5.7187   -4.7630 O   0  0  0  0  0  0  0  0  0  0  0  0
   40.6798   -0.2674   -7.3956 C   0  0  1  0  0  0  0  0  0  0  0  0
   40.9035    1.2302   -7.3700 O   0  0  0  0  0  0  0  0  0  0  0  0
   38.7238    8.1734   -0.8090 C   0  0  0  0  0  0  0  0  0  0  0  0
   38.3101    6.9002   -0.8635 O   0  0  0  0  0  0  0  0  0  0  0  0
   43.2608    3.3053   -2.5823 C   0  0  1  0  0  0  0  0  0  0  0  0
   43.8411    2.6332   -3.6583 O   0  0  0  0  0  0  0  0  0  0  0  0
   45.0222    3.8309   -7.0129 C   0  0  0  0  0  0  0  0  0  0  0  0
   41.9691   -1.1003   -7.7069 C   0  0  0  0  0  0  0  0  0  0  0  0
   43.0972   -0.7018   -6.9149 N   0  0  0  0  0  0  0  0  0  0  0  0
   45.5930    4.9009   -6.0811 C   0  0  0  0  0  0  0  0  0  0  0  0
   47.0534    4.6922   -6.0379 N   0  0  0  0  0  0  0  0  0  0  0  0
   47.8556    5.4226   -4.9588 C   0  0  0  0  0  0  0  0  0  0  0  0
  1  2  1  1  0  0  0
  1  8  1  0  0  0  0
  1 33  1  0  0  0  0
  3  4  1  1  0  0  0
  3 10  1  0  0  0  0
  3 42  1  0  0  0  0
  5 11  1  0  0  0  0
  5 29  1  0  0  0  0
  5 35  1  1  0  0  0
  6 13  1  0  0  0  0
  6 39  1  0  0  0  0
  6 22  1  1  0  0  0
  7 15  1  0  0  0  0
  8  9  1  1  0  0  0
  8 17  1  0  0  0  0
 10 19  1  0  0  0  0
 11 12  1  6  0  0  0
 11 21  1  0  0  0  0
 12 44  1  0  0  0  0
 13 14  1  1  0  0  0
 13 23  1  0  0  0  0
 15 16  1  0  0  0  0
 17 18  1  6  0  0  0
 17 25  1  0  0  0  0
 19 20  1  1  0  0  0
 19 27  1  0  0  0  0
 21 22  1  6  0  0  0
 21 28  1  0  0  0  0
 23 24  1  6  0  0  0
 23 30  1  0  0  0  0
 25 26  1  1  0  0  0
 25 32  1  0  0  0  0
 27  2  1  6  0  0  0
 27 34  1  0  0  0  0
 28 29  1  0  0  0  0
 28 36  1  1  0  0  0
 30 31  1  1  0  0  0
 30 38  1  0  0  0  0
 32 33  1  0  0  0  0
 32 40  1  6  0  0  0
 34 35  1  6  0  0  0
 34 42  1  0  0  0  0
 36 37  1  0  0  0  0
 38 39  1  0  0  0  0
 38 45  1  1  0  0  0
 40 41  1  0  0  0  0
 42 43  1  6  0  0  0
 44 47  1  0  0  0  0
 45 46  1  0  0  0  0
 47 48  1  0  0  0  0
 48 49  1  0  0  0  0
 49  7  1  0  0  0  0
M  END
>  <CHROM.1>
-176.16827044,38.32611981,78.74020224,-175.45295736,70.16535950,-68.92644410
18.94445318,-166.98342240,61.11623588,177.26760679,-168.16736313,-68.75317497
-172.96059445,-167.20363258,-170.13390429,65.43757238,42.40799212,4.71689648
-4.09778916,1.52135679,0.20759846,0.60457659

>  <Name>
2bee_lig

>  <RI>
3.46266e+07

>  <Rbt.Current_Directory>
/home/itssahil/PROJECTS/Mol_Feturizer/New_Systems/rnas/2bee

>  <Rbt.Executable>
rbdock ($Id: //depot/dev/client3/rdock/2013.1/src/exe/rbdock.cxx#4 $)

>  <Rbt.Library>
libRbt.so (2013.1, Build901 2013/11/27)

>  <Rbt.Parameter_File>
/export/apps/rDock/src/rDock_2013.1_src/data/scripts/dock_solv.prm

>  <Rbt.Receptor>
prm/pocket_docking_4.prm

>  <SCORE>
-18.17

>  <SCORE.INTER>
-6.27779

>  <SCORE.INTER.CONST>
1

>  <SCORE.INTER.POLAR>
-1.80714

>  <SCORE.INTER.ROT>
16

>  <SCORE.INTER.SOLV>
17.631

>  <SCORE.INTER.VDW>
-18.3051

>  <SCORE.INTER.norm>
-0.128118

>  <SCORE.INTRA>
-11.8922

>  <SCORE.INTRA.DIHEDRAL>
-25.3775

>  <SCORE.INTRA.DIHEDRAL.0>
36.0842

>  <SCORE.INTRA.POLAR>
0

>  <SCORE.INTRA.POLAR.0>
0

>  <SCORE.INTRA.REPUL>
0.0372519

>  <SCORE.INTRA.REPUL.0>
0

>  <SCORE.INTRA.SOLV>
0.734643

>  <SCORE.INTRA.SOLV.lig_0>
-126.444

>  <SCORE.INTRA.VDW>
0.242955

>  <SCORE.INTRA.VDW.0>
-7.40469

>  <SCORE.INTRA.norm>
-0.242698

>  <SCORE.RESTR>
0

>  <SCORE.RESTR.CAVITY>
0

>  <SCORE.RESTR.norm>
0

>  <SCORE.SYSTEM>
0

>  <SCORE.SYSTEM.CONST>
0

>  <SCORE.SYSTEM.DIHEDRAL>
0

>  <SCORE.SYSTEM.SOLV>
0

>  <SCORE.SYSTEM.norm>
0

>  <SCORE.heavy>
49

>  <SCORE.norm>
-0.370817

>  <RMSD>
8.579

$$$$
2bee_lig
 OpenBabel11021811423D
libRbt.so/2013.1/901 2013/11/27
 49 52  0  0  0  0  0  0  0  0999 V2000
   41.0786    2.5575   -5.0479 C   0  0  2  0  0  0  0  0  0  0  0  0
   41.7600    1.5228   -4.3499 O   0  0  0  0  0  0  0  0  0  0  0  0
   45.9547    0.2987   -3.8201 C   0  0  2  0  0  0  0  0  0  0  0  0
   47.3530   -0.0739   -4.1674 N   0  0  0  0  0  0  0  0  0  0  0  0
   44.3383    4.6274   -4.1032 C   0  0  1  0  0  0  0  0  0  0  0  0
   48.6312    5.1426   -5.4448 C   0  0  1  0  0  0  0  0  0  0  0  0
   38.5464    7.1578   -1.3091 C   0  0  0  0  0  0  0  0  0  0  0  0
   39.5791    2.6481   -4.5661 C   0  0  2  0  0  0  0  0  0  0  0  0
   39.5284    2.8102   -3.1171 N   0  0  0  0  0  0  0  0  0  0  0  0
   44.9433   -0.6643   -4.5931 C   0  0  0  0  0  0  0  0  0  0  0  0
   45.2410    5.5639   -3.3677 C   0  0  2  0  0  0  0  0  0  0  0  0
   44.5474    6.7716   -2.8875 O   0  0  0  0  0  0  0  0  0  0  0  0
   48.8438    3.6749   -4.7878 C   0  0  2  0  0  0  0  0  0  0  0  0
   49.3125    3.8602   -3.3739 N   0  0  0  0  0  0  0  0  0  0  0  0
   38.6816    8.0624   -0.2301 C   0  0  0  0  0  0  0  0  0  0  0  0
   38.4971    9.4270   -0.4408 N   0  0  0  0  0  0  0  0  0  0  0  0
   38.7959    1.3457   -5.0377 C   0  0  1  0  0  0  0  0  0  0  0  0
   37.4468    1.4384   -4.6039 O   0  0  0  0  0  0  0  0  0  0  0  0
   43.3933   -0.2777   -4.2477 C   0  0  2  0  0  0  0  0  0  0  0  0
   42.4834   -1.1373   -4.9257 N   0  0  0  0  0  0  0  0  0  0  0  0
   46.3174    5.6319   -4.4239 C   0  0  2  0  0  0  0  0  0  0  0  0
   47.6734    5.8055   -4.5850 O   0  0  0  0  0  0  0  0  0  0  0  0
   49.9184    2.9030   -5.6338 C   0  0  1  0  0  0  0  0  0  0  0  0
   49.3797    2.7501   -6.9932 O   0  0  0  0  0  0  0  0  0  0  0  0
   38.8825    1.2339   -6.5776 C   0  0  2  0  0  0  0  0  0  0  0  0
   38.1756    0.0200   -7.0600 O   0  0  0  0  0  0  0  0  0  0  0  0
   43.1116    1.2206   -4.6560 C   0  0  2  0  0  0  0  0  0  0  0  0
   45.4764    5.5758   -5.7939 C   0  0  2  0  0  0  0  0  0  0  0  0
   44.5075    4.6793   -5.4910 O   0  0  0  0  0  0  0  0  0  0  0  0
   51.3121    3.7521   -5.6318 C   0  0  2  0  0  0  0  0  0  0  0  0
   51.8433    3.9017   -4.2582 O   0  0  0  0  0  0  0  0  0  0  0  0
   40.3744    1.1508   -7.0434 C   0  0  2  0  0  0  0  0  0  0  0  0
   41.0001    2.3554   -6.5316 O   0  0  0  0  0  0  0  0  0  0  0  0
   44.1289    2.1197   -3.8754 C   0  0  2  0  0  0  0  0  0  0  0  0
   43.7769    3.4171   -4.2910 O   0  0  0  0  0  0  0  0  0  0  0  0
   46.1976    5.0277   -7.0804 C   0  0  0  0  0  0  0  0  0  0  0  0
   46.4927    3.6060   -6.9037 O   0  0  0  0  0  0  0  0  0  0  0  0
   51.0688    5.2049   -6.2396 C   0  0  1  0  0  0  0  0  0  0  0  0
   49.9887    5.8583   -5.4030 O   0  0  0  0  0  0  0  0  0  0  0  0
   40.3609    1.0714   -8.5163 C   0  0  0  0  0  0  0  0  0  0  0  0
   41.5963    0.8486   -8.9847 O   0  0  0  0  0  0  0  0  0  0  0  0
   45.6249    1.7443   -4.2542 C   0  0  1  0  0  0  0  0  0  0  0  0
   46.5212    2.5454   -3.5463 O   0  0  0  0  0  0  0  0  0  0  0  0
   43.4055    6.7807   -1.9586 C   0  0  0  0  0  0  0  0  0  0  0  0
   52.4567    5.9271   -6.1675 C   0  0  0  0  0  0  0  0  0  0  0  0
   53.4863    5.2334   -6.8868 N   0  0  0  0  0  0  0  0  0  0  0  0
   42.1080    6.6218   -2.7525 C   0  0  0  0  0  0  0  0  0  0  0  0
   41.0228    7.1517   -1.9043 N   0  0  0  0  0  0  0  0  0  0  0  0
   39.6140    7.2258   -2.4968 C   0  0  0  0  0  0  0  0  0  0  0  0
  1  2  1  1  0  0  0
  1  8  1  0  0  0  0
  1 33  1  0  0  0  0
  3  4  1  6  0  0  0
  3 10  1  0  0  0  0
  3 42  1  0  0  0  0
  5 11  1  0  0  0  0
  5 29  1  0  0  0  0
  5 35  1  1  0  0  0
  6 13  1  0  0  0  0
  6 39  1  0  0  0  0
  6 22  1  1  0  0  0
  7 15  1  0  0  0  0
  8  9  1  1  0  0  0
  8 17  1  0  0  0  0
 10 19  1  0  0  0  0
 11 12  1  6  0  0  0
 11 21  1  0  0  0  0
 12 44  1  0  0  0  0
 13 14  1  1  0  0  0
 13 23  1  0  0  0  0
 15 16  1  0  0  0  0
 17 18  1  6  0  0  0
 17 25  1  0  0  0  0
 19 20  1  6  0  0  0
 19 27  1  0  0  0  0
 21 22  1  6  0  0  0
 21 28  1  0  0  0  0
 23 24  1  6  0  0  0
 23 30  1  0  0  0  0
 25 26  1  1  0  0  0
 25 32  1  0  0  0  0
 27  2  1  1  0  0  0
 27 34  1  0  0  0  0
 28 29  1  0  0  0  0
 28 36  1  6  0  0  0
 30 31  1  1  0  0  0
 30 38  1  0  0  0  0
 32 33  1  0  0  0  0
 32 40  1  6  0  0  0
 34 35  1  6  0  0  0
 34 42  1  0  0  0  0
 36 37  1  0  0  0  0
 38 39  1  0  0  0  0
 38 45  1  1  0  0  0
 40 41  1  0  0  0  0
 42 43  1  1  0  0  0
 44 47  1  0  0  0  0
 45 46  1  0  0  0  0
 47 48  1  0  0  0  0
 48 49  1  0  0  0  0
 49  7  1  0  0  0  0
M  END
>  <CHROM.1>
177.50087138,-19.99122780,-73.48931114,66.61106248,59.80176108,-86.66174938
138.29053874,-155.25934270,66.64689497,-173.17815036,-172.06851161,58.51273065
-158.35989436,175.03681602,154.01712324,52.43571885,44.37995006,3.59824913
-4.72249454,-3.12189141,0.14490399,0.52364413

>  <Name>
2bee_lig

>  <RI>
3.46266e+07

>  <Rbt.Current_Directory>
/home/itssahil/PROJECTS/Mol_Feturizer/New_Systems/rnas/2bee

>  <Rbt.Executable>
rbdock ($Id: //depot/dev/client3/rdock/2013.1/src/exe/rbdock.cxx#4 $)

>  <Rbt.Library>
libRbt.so (2013.1, Build901 2013/11/27)

>  <Rbt.Parameter_File>
/export/apps/rDock/src/rDock_2013.1_src/data/scripts/dock_solv.prm

>  <Rbt.Receptor>
prm/pocket_docking_4.prm

>  <SCORE>
-9.78132

>  <SCORE.INTER>
-1.79914

>  <SCORE.INTER.CONST>
1

>  <SCORE.INTER.POLAR>
-1.3165

>  <SCORE.INTER.ROT>
16

>  <SCORE.INTER.SOLV>
17.1333

>  <SCORE.INTER.VDW>
-16.7889

>  <SCORE.INTER.norm>
-0.0367172

>  <SCORE.INTRA>
-8.08279

>  <SCORE.INTRA.DIHEDRAL>
-18.2531

>  <SCORE.INTRA.DIHEDRAL.0>
36.0842

>  <SCORE.INTRA.POLAR>
0

>  <SCORE.INTRA.POLAR.0>
0

>  <SCORE.INTRA.REPUL>
0

>  <SCORE.INTRA.REPUL.0>
0

>  <SCORE.INTRA.SOLV>
1.59829

>  <SCORE.INTRA.SOLV.lig_0>
-126.444

>  <SCORE.INTRA.VDW>
0.244597

>  <SCORE.INTRA.VDW.0>
-7.40469

>  <SCORE.INTRA.norm>
-0.164955

>  <SCORE.RESTR>
0.100618

>  <SCORE.RESTR.CAVITY>
0.100618

>  <SCORE.RESTR.norm>
0.00205343

>  <SCORE.SYSTEM>
0

>  <SCORE.SYSTEM.CONST>
0

>  <SCORE.SYSTEM.DIHEDRAL>
0

>  <SCORE.SYSTEM.SOLV>
0

>  <SCORE.SYSTEM.norm>
0

>  <SCORE.heavy>
49

>  <SCORE.norm>
-0.199619

>  <RMSD>
8.579

$$$$
2bee_lig
 OpenBabel11021811423D
libRbt.so/2013.1/901 2013/11/27
 49 52  0  0  0  0  0  0  0  0999 V2000
   40.5585    6.8256   -4.0304 C   0  0  2  0  0  0  0  0  0  0  0  0
   40.8079    5.4481   -3.7809 O   0  0  0  0  0  0  0  0  0  0  0  0
   38.4657    2.4046   -1.6301 C   0  0  2  0  0  0  0  0  0  0  0  0
   37.3144    1.5400   -1.2538 N   0  0  0  0  0  0  0  0  0  0  0  0
   41.1058    1.8201   -5.4418 C   0  0  1  0  0  0  0  0  0  0  0  0
   44.2527    2.7705   -8.4735 C   0  0  1  0  0  0  0  0  0  0  0  0
   43.8710   -4.9564   -6.8577 C   0  0  0  0  0  0  0  0  0  0  0  0
   41.5988    7.3908   -5.0732 C   0  0  2  0  0  0  0  0  0  0  0  0
   41.5813    6.5805   -6.2863 N   0  0  0  0  0  0  0  0  0  0  0  0
   38.0212    3.9362   -1.5618 C   0  0  0  0  0  0  0  0  0  0  0  0
   41.3034    1.0035   -6.6774 C   0  0  2  0  0  0  0  0  0  0  0  0
   40.8908   -0.4008   -6.5098 O   0  0  0  0  0  0  0  0  0  0  0  0
   43.0136    3.5452   -9.1775 C   0  0  2  0  0  0  0  0  0  0  0  0
   42.4016    2.6221  -10.1906 N   0  0  0  0  0  0  0  0  0  0  0  0
   42.9366   -5.6992   -7.6167 C   0  0  0  0  0  0  0  0  0  0  0  0
   41.5800   -5.3916   -7.5415 N   0  0  0  0  0  0  0  0  0  0  0  0
   43.0447    7.4208   -4.4095 C   0  0  1  0  0  0  0  0  0  0  0  0
   43.9730    7.9350   -5.3533 O   0  0  0  0  0  0  0  0  0  0  0  0
   39.2571    4.9198   -1.9821 C   0  0  2  0  0  0  0  0  0  0  0  0
   38.8729    6.2888   -1.9155 N   0  0  0  0  0  0  0  0  0  0  0  0
   42.7450    1.3865   -6.9093 C   0  0  2  0  0  0  0  0  0  0  0  0
   43.6745    1.5698   -7.9081 O   0  0  0  0  0  0  0  0  0  0  0  0
   43.5671    4.8420   -9.8689 C   0  0  1  0  0  0  0  0  0  0  0  0
   44.1326    5.6949   -8.8133 O   0  0  0  0  0  0  0  0  0  0  0  0
   42.9980    8.2965   -3.1358 C   0  0  2  0  0  0  0  0  0  0  0  0
   44.3273    8.3391   -2.4747 O   0  0  0  0  0  0  0  0  0  0  0  0
   39.7414    4.5755   -3.4443 C   0  0  2  0  0  0  0  0  0  0  0  0
   43.3299    1.4944   -5.4147 C   0  0  2  0  0  0  0  0  0  0  0  0
   42.2972    2.0660   -4.7507 O   0  0  0  0  0  0  0  0  0  0  0  0
   44.6956    4.4214  -10.9704 C   0  0  2  0  0  0  0  0  0  0  0  0
   44.1154    3.5612  -12.0262 O   0  0  0  0  0  0  0  0  0  0  0  0
   41.9586    7.7293   -2.1122 C   0  0  2  0  0  0  0  0  0  0  0  0
   40.6956    7.7074   -2.8255 O   0  0  0  0  0  0  0  0  0  0  0  0
   40.1613    3.0668   -3.4574 C   0  0  2  0  0  0  0  0  0  0  0  0
   40.5921    2.8775   -4.7835 O   0  0  0  0  0  0  0  0  0  0  0  0
   44.5765    2.4242   -5.1756 C   0  0  0  0  0  0  0  0  0  0  0  0
   44.9748    2.3512   -3.7701 O   0  0  0  0  0  0  0  0  0  0  0  0
   45.8797    3.6232  -10.2633 C   0  0  1  0  0  0  0  0  0  0  0  0
   45.2573    2.4229   -9.5810 O   0  0  0  0  0  0  0  0  0  0  0  0
   41.9646    8.6346   -0.9476 C   0  0  0  0  0  0  0  0  0  0  0  0
   41.0714    8.2294   -0.0347 O   0  0  0  0  0  0  0  0  0  0  0  0
   38.9341    2.1331   -3.0771 C   0  0  1  0  0  0  0  0  0  0  0  0
   39.3225    0.7932   -3.0836 O   0  0  0  0  0  0  0  0  0  0  0  0
   41.3458   -1.2954   -5.4330 C   0  0  0  0  0  0  0  0  0  0  0  0
   46.8817    3.2573  -11.4102 C   0  0  0  0  0  0  0  0  0  0  0  0
   46.3616    2.2719  -12.3140 N   0  0  0  0  0  0  0  0  0  0  0  0
   42.7932   -1.7109   -5.7003 C   0  0  0  0  0  0  0  0  0  0  0  0
   42.7610   -2.6642   -6.8264 N   0  0  0  0  0  0  0  0  0  0  0  0
   44.0525   -3.4024   -7.1848 C   0  0  0  0  0  0  0  0  0  0  0  0
  1  2  1  1  0  0  0
  1  8  1  0  0  0  0
  1 33  1  0  0  0  0
  3  4  1  6  0  0  0
  3 10  1  0  0  0  0
  3 42  1  0  0  0  0
  5 11  1  0  0  0  0
  5 29  1  0  0  0  0
  5 35  1  6  0  0  0
  6 13  1  0  0  0  0
  6 39  1  0  0  0  0
  6 22  1  6  0  0  0
  7 15  1  0  0  0  0
  8  9  1  6  0  0  0
  8 17  1  0  0  0  0
 10 19  1  0  0  0  0
 11 12  1  1  0  0  0
 11 21  1  0  0  0  0
 12 44  1  0  0  0  0
 13 14  1  6  0  0  0
 13 23  1  0  0  0  0
 15 16  1  0  0  0  0
 17 18  1  6  0  0  0
 17 25  1  0  0  0  0
 19 20  1  6  0  0  0
 19 27  1  0  0  0  0
 21 22  1  6  0  0  0
 21 28  1  0  0  0  0
 23 24  1  1  0  0  0
 23 30  1  0  0  0  0
 25 26  1  1  0  0  0
 25 32  1  0  0  0  0
 27  2  1  1  0  0  0
 27 34  1  0  0  0  0
 28 29  1  0  0  0  0
 28 36  1  6  0  0  0
 30 31  1  6  0  0  0
 30 38  1  0  0  0  0
 32 33  1  0  0  0  0
 32 40  1  1  0  0  0
 34 35  1  6  0  0  0
 34 42  1  0  0  0  0
 36 37  1  0  0  0  0
 38 39  1  0  0  0  0
 38 45  1  6  0  0  0
 40 41  1  0  0  0  0
 42 43  1  1  0  0  0
 44 47  1  0  0  0  0
 45 46  1  0  0  0  0
 47 48  1  0  0  0  0
 48 49  1  0  0  0  0
 49  7  1  0  0  0  0
M  END
>  <CHROM.1>
-149.54125280,147.93208238,-64.57497004,-64.35284481,-52.67987363,-73.75036039
106.16801119,-71.28593112,-178.26019064,178.57729064,178.14995517,-69.61158665
-72.79328517,-171.42048458,112.63206804,66.38287104,42.26832591,3.08909957
-5.69538993,-2.09058850,-0.95911674,-2.87899645

>  <Name>
2bee_lig

>  <RI>
0

>  <Rbt.Current_Directory>
/home/itssahil/PROJECTS/Mol_Feturizer/New_Systems/rnas/2bee

>  <Rbt.Executable>
rbdock ($Id: //depot/dev/client3/rdock/2013.1/src/exe/rbdock.cxx#4 $)

>  <Rbt.Library>
libRbt.so (2013.1, Build901 2013/11/27)

>  <Rbt.Parameter_File>
/export/apps/rDock/src/rDock_2013.1_src/data/scripts/dock_solv.prm

>  <Rbt.Receptor>
prm/pocket_docking_7.prm

>  <SCORE>
-6.26435

>  <SCORE.INTER>
-1.06866

>  <SCORE.INTER.CONST>
1

>  <SCORE.INTER.POLAR>
-0.503383

>  <SCORE.INTER.ROT>
16

>  <SCORE.INTER.SOLV>
10.5799

>  <SCORE.INTER.VDW>
-16.8278

>  <SCORE.INTER.norm>
-0.0218094

>  <SCORE.INTRA>
-5.19569

>  <SCORE.INTRA.DIHEDRAL>
-21.1103

>  <SCORE.INTRA.DIHEDRAL.0>
36.0842

>  <SCORE.INTRA.POLAR>
0

>  <SCORE.INTRA.POLAR.0>
0

>  <SCORE.INTRA.REPUL>
0.0982557

>  <SCORE.INTRA.REPUL.0>
0

>  <SCORE.INTRA.SOLV>
4.41458

>  <SCORE.INTRA.SOLV.lig_0>
-126.444

>  <SCORE.INTRA.VDW>
2.66091

>  <SCORE.INTRA.VDW.0>
-7.40469

>  <SCORE.INTRA.norm>
-0.106034

>  <SCORE.RESTR>
0

>  <SCORE.RESTR.CAVITY>
0

>  <SCORE.RESTR.norm>
0

>  <SCORE.SYSTEM>
0

>  <SCORE.SYSTEM.CONST>
0

>  <SCORE.SYSTEM.DIHEDRAL>
0

>  <SCORE.SYSTEM.SOLV>
0

>  <SCORE.SYSTEM.norm>
0

>  <SCORE.heavy>
49

>  <SCORE.norm>
-0.127844

>  <RMSD>
8.580

$$$$
2bee_lig
 OpenBabel11021811423D
libRbt.so/2013.1/901 2013/11/27
 49 52  0  0  0  0  0  0  0  0999 V2000
   41.1710    6.3448   -1.1072 C   0  0  2  0  0  0  0  0  0  0  0  0
   41.7459    6.0507   -2.3741 O   0  0  0  0  0  0  0  0  0  0  0  0
   42.8348    1.8215   -1.8246 C   0  0  2  0  0  0  0  0  0  0  0  0
   43.2549    0.4344   -2.1629 N   0  0  0  0  0  0  0  0  0  0  0  0
   45.1213    5.5162   -3.3046 C   0  0  1  0  0  0  0  0  0  0  0  0
   43.4040    5.8787   -7.6386 C   0  0  1  0  0  0  0  0  0  0  0  0
   50.0315    3.9552   -8.5257 C   0  0  0  0  0  0  0  0  0  0  0  0
   40.7872    7.8726   -1.0209 C   0  0  2  0  0  0  0  0  0  0  0  0
   39.9198    8.2340   -2.1370 N   0  0  0  0  0  0  0  0  0  0  0  0
   41.5292    2.1976   -2.6624 C   0  0  0  0  0  0  0  0  0  0  0  0
   45.8542    5.0378   -4.5157 C   0  0  2  0  0  0  0  0  0  0  0  0
   47.2479    5.5123   -4.5682 O   0  0  0  0  0  0  0  0  0  0  0  0
   43.0371    4.8274   -8.8180 C   0  0  2  0  0  0  0  0  0  0  0  0
   44.3170    4.3964   -9.4733 N   0  0  0  0  0  0  0  0  0  0  0  0
   48.6875    4.2938   -8.8084 C   0  0  0  0  0  0  0  0  0  0  0  0
   47.6582    3.4471   -8.4030 N   0  0  0  0  0  0  0  0  0  0  0  0
   42.1158    8.7481   -1.0041 C   0  0  1  0  0  0  0  0  0  0  0  0
   41.7606   10.1208   -0.9216 O   0  0  0  0  0  0  0  0  0  0  0  0
   41.0429    3.7218   -2.3281 C   0  0  2  0  0  0  0  0  0  0  0  0
   39.8733    4.0637   -3.0640 N   0  0  0  0  0  0  0  0  0  0  0  0
   44.8247    5.4805   -5.5271 C   0  0  2  0  0  0  0  0  0  0  0  0
   44.3065    5.1624   -6.7621 O   0  0  0  0  0  0  0  0  0  0  0  0
   42.0981    5.5472   -9.8506 C   0  0  1  0  0  0  0  0  0  0  0  0
   40.8679    5.9220   -9.1379 O   0  0  0  0  0  0  0  0  0  0  0  0
   42.9866    8.3218    0.2005 C   0  0  2  0  0  0  0  0  0  0  0  0
   44.2473    9.1057    0.2451 O   0  0  0  0  0  0  0  0  0  0  0  0
   42.2001    4.7397   -2.6688 C   0  0  2  0  0  0  0  0  0  0  0  0
   44.2776    6.8569   -4.8996 C   0  0  2  0  0  0  0  0  0  0  0  0
   44.2365    6.5650   -3.5778 O   0  0  0  0  0  0  0  0  0  0  0  0
   42.8666    6.8556  -10.4515 C   0  0  2  0  0  0  0  0  0  0  0  0
   44.1043    6.4663  -11.1642 O   0  0  0  0  0  0  0  0  0  0  0  0
   43.3557    6.8036    0.1068 C   0  0  2  0  0  0  0  0  0  0  0  0
   42.0848    6.1059    0.0574 O   0  0  0  0  0  0  0  0  0  0  0  0
   43.4535    4.3254   -1.8264 C   0  0  2  0  0  0  0  0  0  0  0  0
   44.4030    5.2999   -2.1854 O   0  0  0  0  0  0  0  0  0  0  0  0
   42.8272    7.3223   -5.2937 C   0  0  0  0  0  0  0  0  0  0  0  0
   41.8854    6.2278   -5.0603 O   0  0  0  0  0  0  0  0  0  0  0  0
   43.2565    7.8517   -9.2704 C   0  0  1  0  0  0  0  0  0  0  0  0
   44.1142    7.0693   -8.2980 O   0  0  0  0  0  0  0  0  0  0  0  0
   44.1607    6.4826    1.3003 C   0  0  0  0  0  0  0  0  0  0  0  0
   43.3780    6.3989    2.3846 O   0  0  0  0  0  0  0  0  0  0  0  0
   43.9233    2.8535   -2.1945 C   0  0  1  0  0  0  0  0  0  0  0  0
   45.0344    2.4929   -1.4318 O   0  0  0  0  0  0  0  0  0  0  0  0
   48.1419    5.3897   -5.7312 C   0  0  0  0  0  0  0  0  0  0  0  0
   43.9993    9.0468   -9.9583 C   0  0  0  0  0  0  0  0  0  0  0  0
   44.7036    9.8789   -9.0255 N   0  0  0  0  0  0  0  0  0  0  0  0
   49.5827    5.6507   -5.2897 C   0  0  0  0  0  0  0  0  0  0  0  0
   50.4406    5.3909   -6.4621 N   0  0  0  0  0  0  0  0  0  0  0  0
   50.5126    3.9607   -7.0014 C   0  0  0  0  0  0  0  0  0  0  0  0
  1  2  1  6  0  0  0
  1  8  1  0  0  0  0
  1 33  1  0  0  0  0
  3  4  1  6  0  0  0
  3 10  1  0  0  0  0
  3 42  1  0  0  0  0
  5 11  1  0  0  0  0
  5 29  1  0  0  0  0
  5 35  1  6  0  0  0
  6 13  1  0  0  0  0
  6 39  1  0  0  0  0
  6 22  1  1  0  0  0
  7 15  1  0  0  0  0
  8  9  1  6  0  0  0
  8 17  1  0  0  0  0
 10 19  1  0  0  0  0
 11 12  1  6  0  0  0
 11 21  1  0  0  0  0
 12 44  1  0  0  0  0
 13 14  1  6  0  0  0
 13 23  1  0  0  0  0
 15 16  1  0  0  0  0
 17 18  1  1  0  0  0
 17 25  1  0  0  0  0
 19 20  1  6  0  0  0
 19 27  1  0  0  0  0
 21 22  1  6  0  0  0
 21 28  1  0  0  0  0
 23 24  1  1  0  0  0
 23 30  1  0  0  0  0
 25 26  1  6  0  0  0
 25 32  1  0  0  0  0
 27  2  1  1  0  0  0
 27 34  1  0  0  0  0
 28 29  1  0  0  0  0
 28 36  1  6  0  0  0
 30 31  1  1  0  0  0
 30 38  1  0  0  0  0
 32 33  1  0  0  0  0
 32 40  1  1  0  0  0
 34 35  1  6  0  0  0
 34 42  1  0  0  0  0
 36 37  1  0  0  0  0
 38 39  1  0  0  0  0
 38 45  1  6  0  0  0
 40 41  1  0  0  0  0
 42 43  1  1  0  0  0
 44 47  1  0  0  0  0
 45 46  1  0  0  0  0
 47 48  1  0  0  0  0
 48 49  1  0  0  0  0
 49  7  1  0  0  0  0
M  END
>  <CHROM.1>
178.45134826,-33.00856812,-171.50959915,-67.64182282,-169.57125740,-165.14327754
-170.00289619,50.97026968,51.82680492,75.30142788,-72.64990994,-165.80519614
174.81560826,-65.28973292,121.03054207,-64.90850579,44.04008408,5.77863084
-4.54093511,2.02172399,-0.45913937,1.72439808

>  <Name>
2bee_lig

>  <RI>
2.18182e+07

>  <Rbt.Current_Directory>
/home/itssahil/PROJECTS/Mol_Feturizer/New_Systems/rnas/2bee

>  <Rbt.Executable>
rbdock ($Id: //depot/dev/client3/rdock/2013.1/src/exe/rbdock.cxx#4 $)

>  <Rbt.Library>
libRbt.so (2013.1, Build901 2013/11/27)

>  <Rbt.Parameter_File>
/export/apps/rDock/src/rDock_2013.1_src/data/scripts/dock_solv.prm

>  <Rbt.Receptor>
prm/pocket_docking_3.prm

>  <SCORE>
-13.6442

>  <SCORE.INTER>
-6.38472

>  <SCORE.INTER.CONST>
1

>  <SCORE.INTER.POLAR>
0

>  <SCORE.INTER.ROT>
16

>  <SCORE.INTER.SOLV>
21.248

>  <SCORE.INTER.VDW>
-25.6058

>  <SCORE.INTER.norm>
-0.1303

>  <SCORE.INTRA>
-7.30638

>  <SCORE.INTRA.DIHEDRAL>
-21.6077

>  <SCORE.INTRA.DIHEDRAL.0>
36.0842

>  <SCORE.INTRA.POLAR>
0

>  <SCORE.INTRA.POLAR.0>
0

>  <SCORE.INTRA.REPUL>
0.00204606

>  <SCORE.INTRA.REPUL.0>
0

>  <SCORE.INTRA.SOLV>
2.17876

>  <SCORE.INTRA.SOLV.lig_0>
-126.444

>  <SCORE.INTRA.VDW>
2.39784

>  <SCORE.INTRA.VDW.0>
-7.40469

>  <SCORE.INTRA.norm>
-0.14911

>  <SCORE.RESTR>
0.0469372

>  <SCORE.RESTR.CAVITY>
0.0469372

>  <SCORE.RESTR.norm>
0.000957901

>  <SCORE.SYSTEM>
0

>  <SCORE.SYSTEM.CONST>
0

>  <SCORE.SYSTEM.DIHEDRAL>
0

>  <SCORE.SYSTEM.SOLV>
0

>  <SCORE.SYSTEM.norm>
0

>  <SCORE.heavy>
49

>  <SCORE.norm>
-0.278452

>  <RMSD>
8.607

$$$$
2bee_lig
 OpenBabel11021811423D
libRbt.so/2013.1/901 2013/11/27
 49 52  0  0  0  0  0  0  0  0999 V2000
   40.9394    6.6204   -2.7494 C   0  0  2  0  0  0  0  0  0  0  0  0
   41.4181    5.8695   -1.6407 O   0  0  0  0  0  0  0  0  0  0  0  0
   39.6553    2.6311    0.7633 C   0  0  2  0  0  0  0  0  0  0  0  0
   38.9769    1.3472    1.0895 N   0  0  0  0  0  0  0  0  0  0  0  0
   43.3192    2.6913   -1.9180 C   0  0  1  0  0  0  0  0  0  0  0  0
   40.0945    0.5943   -4.2174 C   0  0  1  0  0  0  0  0  0  0  0  0
   48.9898   -1.1413   -5.8909 C   0  0  0  0  0  0  0  0  0  0  0  0
   42.1048    7.4830   -3.3712 C   0  0  2  0  0  0  0  0  0  0  0  0
   43.2354    6.6255   -3.7103 N   0  0  0  0  0  0  0  0  0  0  0  0
   38.7239    3.4892   -0.2082 C   0  0  0  0  0  0  0  0  0  0  0  0
   43.4810    1.2794   -2.3796 C   0  0  2  0  0  0  0  0  0  0  0  0
   44.8839    0.9213   -2.6513 O   0  0  0  0  0  0  0  0  0  0  0  0
   39.6030    0.2187   -2.7179 C   0  0  2  0  0  0  0  0  0  0  0  0
   40.1703   -1.1252   -2.3641 N   0  0  0  0  0  0  0  0  0  0  0  0
   50.3181   -1.1603   -6.3768 C   0  0  0  0  0  0  0  0  0  0  0  0
   50.6216   -0.5507   -7.5921 N   0  0  0  0  0  0  0  0  0  0  0  0
   42.5218    8.6227   -2.3420 C   0  0  1  0  0  0  0  0  0  0  0  0
   43.5676    9.3964   -2.9120 O   0  0  0  0  0  0  0  0  0  0  0  0
   39.4412    4.9043   -0.6014 C   0  0  2  0  0  0  0  0  0  0  0  0
   38.6140    5.6811   -1.4608 N   0  0  0  0  0  0  0  0  0  0  0  0
   42.4478    1.3372   -3.4786 C   0  0  2  0  0  0  0  0  0  0  0  0
   41.5407    0.5579   -4.1605 O   0  0  0  0  0  0  0  0  0  0  0  0
   38.0331    0.1812   -2.7047 C   0  0  1  0  0  0  0  0  0  0  0  0
   37.5590    1.5308   -3.0444 O   0  0  0  0  0  0  0  0  0  0  0  0
   41.2856    9.4970   -2.0280 C   0  0  2  0  0  0  0  0  0  0  0  0
   41.6279   10.5668   -1.0564 O   0  0  0  0  0  0  0  0  0  0  0  0
   40.8249    4.6249   -1.3074 C   0  0  2  0  0  0  0  0  0  0  0  0
   42.6174    2.8316   -4.0490 C   0  0  2  0  0  0  0  0  0  0  0  0
   42.8291    3.5415   -2.9153 O   0  0  0  0  0  0  0  0  0  0  0  0
   37.5150   -0.9272   -3.7848 C   0  0  2  0  0  0  0  0  0  0  0  0
   38.0005   -2.2809   -3.4340 O   0  0  0  0  0  0  0  0  0  0  0  0
   40.1348    8.6293   -1.4175 C   0  0  2  0  0  0  0  0  0  0  0  0
   39.8624    7.6069   -2.4099 O   0  0  0  0  0  0  0  0  0  0  0  0
   41.6959    3.7805   -0.3171 C   0  0  2  0  0  0  0  0  0  0  0  0
   42.8977    3.6120   -1.0292 O   0  0  0  0  0  0  0  0  0  0  0  0
   41.3802    3.4948   -4.7599 C   0  0  0  0  0  0  0  0  0  0  0  0
   40.2365    3.4916   -3.8481 O   0  0  0  0  0  0  0  0  0  0  0  0
   38.0473   -0.5621   -5.2417 C   0  0  1  0  0  0  0  0  0  0  0  0
   39.5578   -0.4954   -5.1560 O   0  0  0  0  0  0  0  0  0  0  0  0
   38.9966    9.5353   -1.1739 C   0  0  0  0  0  0  0  0  0  0  0  0
   39.2453   10.3274   -0.1222 O   0  0  0  0  0  0  0  0  0  0  0  0
   40.9906    2.3984    0.0219 C   0  0  1  0  0  0  0  0  0  0  0  0
   41.7714    1.6596    0.9112 O   0  0  0  0  0  0  0  0  0  0  0  0
   45.3399   -0.3700   -3.1914 C   0  0  0  0  0  0  0  0  0  0  0  0
   37.5104   -1.6953   -6.1801 C   0  0  0  0  0  0  0  0  0  0  0  0
   37.7688   -1.4411   -7.5684 N   0  0  0  0  0  0  0  0  0  0  0  0
   46.8499   -0.3129   -3.4277 C   0  0  0  0  0  0  0  0  0  0  0  0
   47.2216   -1.5686   -4.1083 N   0  0  0  0  0  0  0  0  0  0  0  0
   48.6940   -1.7906   -4.4606 C   0  0  0  0  0  0  0  0  0  0  0  0
  1  2  1  1  0  0  0
  1  8  1  0  0  0  0
  1 33  1  0  0  0  0
  3  4  1  6  0  0  0
  3 10  1  0  0  0  0
  3 42  1  0  0  0  0
  5 11  1  0  0  0  0
  5 29  1  0  0  0  0
  5 35  1  1  0  0  0
  6 13  1  0  0  0  0
  6 39  1  0  0  0  0
  6 22  1  1  0  0  0
  7 15  1  0  0  0  0
  8  9  1  1  0  0  0
  8 17  1  0  0  0  0
 10 19  1  0  0  0  0
 11 12  1  6  0  0  0
 11 21  1  0  0  0  0
 12 44  1  0  0  0  0
 13 14  1  6  0  0  0
 13 23  1  0  0  0  0
 15 16  1  0  0  0  0
 17 18  1  6  0  0  0
 17 25  1  0  0  0  0
 19 20  1  6  0  0  0
 19 27  1  0  0  0  0
 21 22  1  6  0  0  0
 21 28  1  0  0  0  0
 23 24  1  6  0  0  0
 23 30  1  0  0  0  0
 25 26  1  1  0  0  0
 25 32  1  0  0  0  0
 27  2  1  1  0  0  0
 27 34  1  0  0  0  0
 28 29  1  0  0  0  0
 28 36  1  1  0  0  0
 30 31  1  1  0  0  0
 30 38  1  0  0  0  0
 32 33  1  0  0  0  0
 32 40  1  6  0  0  0
 34 35  1  6  0  0  0
 34 42  1  0  0  0  0
 36 37  1  0  0  0  0
 38 39  1  0  0  0  0
 38 45  1  6  0  0  0
 40 41  1  0  0  0  0
 42 43  1  1  0  0  0
 44 47  1  0  0  0  0
 45 46  1  0  0  0  0
 47 48  1  0  0  0  0
 48 49  1  0  0  0  0
 49  7  1  0  0  0  0
M  END
>  <CHROM.1>
-150.72140262,-45.21615385,-65.46053088,-177.14710786,-176.24670994,175.78827287
114.35078849,-75.86821262,56.37990359,-73.15087022,-88.01412335,173.20756763
-173.67486067,-179.46446782,-87.26332148,176.19137909,41.69754324,2.92904209
-2.82723540,-2.04759171,-0.17970728,-2.85672135

>  <Name>
2bee_lig

>  <RI>
0

>  <Rbt.Current_Directory>
/home/itssahil/PROJECTS/Mol_Feturizer/New_Systems/rnas/2bee

>  <Rbt.Executable>
rbdock ($Id: //depot/dev/client3/rdock/2013.1/src/exe/rbdock.cxx#4 $)

>  <Rbt.Library>
libRbt.so (2013.1, Build901 2013/11/27)

>  <Rbt.Parameter_File>
/export/apps/rDock/src/rDock_2013.1_src/data/scripts/dock_solv.prm

>  <Rbt.Receptor>
prm/pocket_docking_6.prm

>  <SCORE>
-11.1557

>  <SCORE.INTER>
-2.17933

>  <SCORE.INTER.CONST>
1

>  <SCORE.INTER.POLAR>
-0.979796

>  <SCORE.INTER.ROT>
16

>  <SCORE.INTER.SOLV>
8.15696

>  <SCORE.INTER.VDW>
-15.1726

>  <SCORE.INTER.norm>
-0.0444762

>  <SCORE.INTRA>
-8.97638

>  <SCORE.INTRA.DIHEDRAL>
-21.7433

>  <SCORE.INTRA.DIHEDRAL.0>
36.0842

>  <SCORE.INTRA.POLAR>
0

>  <SCORE.INTRA.POLAR.0>
0

>  <SCORE.INTRA.REPUL>
0

>  <SCORE.INTRA.REPUL.0>
0

>  <SCORE.INTRA.SOLV>
3.46432

>  <SCORE.INTRA.SOLV.lig_0>
-126.444

>  <SCORE.INTRA.VDW>
0.163105

>  <SCORE.INTRA.VDW.0>
-7.40469

>  <SCORE.INTRA.norm>
-0.183192

>  <SCORE.RESTR>
0

>  <SCORE.RESTR.CAVITY>
0

>  <SCORE.RESTR.norm>
0

>  <SCORE.SYSTEM>
0

>  <SCORE.SYSTEM.CONST>
0

>  <SCORE.SYSTEM.DIHEDRAL>
0

>  <SCORE.SYSTEM.SOLV>
0

>  <SCORE.SYSTEM.norm>
0

>  <SCORE.heavy>
49

>  <SCORE.norm>
-0.227668

>  <RMSD>
8.625

$$$$
2bee_lig
 OpenBabel11021811423D
libRbt.so/2013.1/901 2013/11/27
 49 52  0  0  0  0  0  0  0  0999 V2000
   48.3455   12.7458  -10.8552 C   0  0  2  0  0  0  0  0  0  0  0  0
   47.9873   11.4661  -10.3490 O   0  0  0  0  0  0  0  0  0  0  0  0
   43.9568   10.5957  -11.8890 C   0  0  2  0  0  0  0  0  0  0  0  0
   42.8417    9.8518  -12.5355 N   0  0  0  0  0  0  0  0  0  0  0  0
   45.6368    9.2218   -7.8898 C   0  0  1  0  0  0  0  0  0  0  0  0
   43.7767    5.3163   -9.0875 C   0  0  1  0  0  0  0  0  0  0  0  0
   43.6125    5.8009   -1.3115 C   0  0  0  0  0  0  0  0  0  0  0  0
   48.8787   13.6664   -9.6902 C   0  0  2  0  0  0  0  0  0  0  0  0
   49.9746   13.0039   -8.9911 N   0  0  0  0  0  0  0  0  0  0  0  0
   45.1849   10.6944  -12.9038 C   0  0  0  0  0  0  0  0  0  0  0  0
   44.4927    8.4464   -7.3221 C   0  0  2  0  0  0  0  0  0  0  0  0
   44.1778    8.8215   -5.9327 O   0  0  0  0  0  0  0  0  0  0  0  0
   42.7631    4.2569   -8.3937 C   0  0  2  0  0  0  0  0  0  0  0  0
   43.5855    3.1959   -7.7220 N   0  0  0  0  0  0  0  0  0  0  0  0
   43.6009    7.1488   -0.8828 C   0  0  0  0  0  0  0  0  0  0  0  0
   42.8980    7.5061    0.2656 N   0  0  0  0  0  0  0  0  0  0  0  0
   47.6793   14.0134   -8.7039 C   0  0  1  0  0  0  0  0  0  0  0  0
   48.1674   14.8457   -7.6617 O   0  0  0  0  0  0  0  0  0  0  0  0
   46.4377   11.4948  -12.2246 C   0  0  2  0  0  0  0  0  0  0  0  0
   47.5351   11.5960  -13.1256 N   0  0  0  0  0  0  0  0  0  0  0  0
   45.0194    7.0767   -7.6761 C   0  0  2  0  0  0  0  0  0  0  0  0
   44.6079    5.8056   -8.0079 O   0  0  0  0  0  0  0  0  0  0  0  0
   41.8552    3.6323   -9.5125 C   0  0  1  0  0  0  0  0  0  0  0  0
   41.0757    4.7278  -10.1074 O   0  0  0  0  0  0  0  0  0  0  0  0
   46.5560   14.7157   -9.5017 C   0  0  2  0  0  0  0  0  0  0  0  0
   45.4072   15.0442   -8.6195 O   0  0  0  0  0  0  0  0  0  0  0  0
   46.8977   10.7521  -10.9101 C   0  0  2  0  0  0  0  0  0  0  0  0
   46.6055    7.2387   -7.4628 C   0  0  2  0  0  0  0  0  0  0  0  0
   46.8260    8.4866   -7.9407 O   0  0  0  0  0  0  0  0  0  0  0  0
   42.8010    2.8971  -10.6209 C   0  0  2  0  0  0  0  0  0  0  0  0
   43.5825    1.7982  -10.0101 O   0  0  0  0  0  0  0  0  0  0  0  0
   46.0398   13.7953  -10.6576 C   0  0  2  0  0  0  0  0  0  0  0  0
   47.2093   13.5095  -11.4669 O   0  0  0  0  0  0  0  0  0  0  0  0
   45.6597   10.6793   -9.9537 C   0  0  2  0  0  0  0  0  0  0  0  0
   46.1824   10.0287   -8.8207 O   0  0  0  0  0  0  0  0  0  0  0  0
   47.5598    6.2826   -8.2695 C   0  0  0  0  0  0  0  0  0  0  0  0
   48.9509    6.5972   -7.9447 O   0  0  0  0  0  0  0  0  0  0  0  0
   43.8177    3.9471  -11.2557 C   0  0  1  0  0  0  0  0  0  0  0  0
   44.6146    4.5374  -10.1112 O   0  0  0  0  0  0  0  0  0  0  0  0
   44.9950   14.5507  -11.3741 C   0  0  0  0  0  0  0  0  0  0  0  0
   44.3585   13.7575  -12.2465 O   0  0  0  0  0  0  0  0  0  0  0  0
   44.4704    9.8694  -10.6258 C   0  0  1  0  0  0  0  0  0  0  0  0
   43.3710    9.8190   -9.7683 O   0  0  0  0  0  0  0  0  0  0  0  0
   43.3672    8.0202   -5.0011 C   0  0  0  0  0  0  0  0  0  0  0  0
   44.6782    3.1311  -12.2788 C   0  0  0  0  0  0  0  0  0  0  0  0
   45.5941    3.9511  -13.0187 N   0  0  0  0  0  0  0  0  0  0  0  0
   44.2427    7.5674   -3.8317 C   0  0  0  0  0  0  0  0  0  0  0  0
   44.1577    6.0949   -3.7820 N   0  0  0  0  0  0  0  0  0  0  0  0
   44.6004    5.3889   -2.4986 C   0  0  0  0  0  0  0  0  0  0  0  0
  1  2  1  1  0  0  0
  1  8  1  0  0  0  0
  1 33  1  0  0  0  0
  3  4  1  6  0  0  0
  3 10  1  0  0  0  0
  3 42  1  0  0  0  0
  5 11  1  0  0  0  0
  5 29  1  0  0  0  0
  5 35  1  6  0  0  0
  6 13  1  0  0  0  0
  6 39  1  0  0  0  0
  6 22  1  1  0  0  0
  7 15  1  0  0  0  0
  8  9  1  1  0  0  0
  8 17  1  0  0  0  0
 10 19  1  0  0  0  0
 11 12  1  1  0  0  0
 11 21  1  0  0  0  0
 12 44  1  0  0  0  0
 13 14  1  6  0  0  0
 13 23  1  0  0  0  0
 15 16  1  0  0  0  0
 17 18  1  1  0  0  0
 17 25  1  0  0  0  0
 19 20  1  6  0  0  0
 19 27  1  0  0  0  0
 21 22  1  1  0  0  0
 21 28  1  0  0  0  0
 23 24  1  6  0  0  0
 23 30  1  0  0  0  0
 25 26  1  1  0  0  0
 25 32  1  0  0  0  0
 27  2  1  1  0  0  0
 27 34  1  0  0  0  0
 28 29  1  0  0  0  0
 28 36  1  6  0  0  0
 30 31  1  1  0  0  0
 30 38  1  0  0  0  0
 32 33  1  0  0  0  0
 32 40  1  6  0  0  0
 34 35  1  1  0  0  0
 34 42  1  0  0  0  0
 36 37  1  0  0  0  0
 38 39  1  0  0  0  0
 38 45  1  6  0  0  0
 40 41  1  0  0  0  0
 42 43  1  1  0  0  0
 44 47  1  0  0  0  0
 45 46  1  0  0  0  0
 47 48  1  0  0  0  0
 48 49  1  0  0  0  0
 49  7  1  0  0  0  0
M  END
>  <CHROM.1>
145.88684882,3.70350710,-135.34983486,-170.97716421,-163.03183923,115.59372778
58.03250446,9.74860532,179.52765448,-170.42958196,-150.42965332,175.86272103
-123.66668241,-163.03809590,65.18142493,-65.67942922,45.24338574,8.73014399
-8.77732112,0.29040120,-1.22936389,-1.68773857

>  <Name>
2bee_lig

>  <RI>
0

>  <Rbt.Current_Directory>
/home/itssahil/PROJECTS/Mol_Feturizer/New_Systems/rnas/2bee

>  <Rbt.Executable>
rbdock ($Id: //depot/dev/client3/rdock/2013.1/src/exe/rbdock.cxx#4 $)

>  <Rbt.Library>
libRbt.so (2013.1, Build901 2013/11/27)

>  <Rbt.Parameter_File>
/export/apps/rDock/src/rDock_2013.1_src/data/scripts/dock_solv.prm

>  <Rbt.Receptor>
prm/blind_docking_100.prm

>  <SCORE>
92.8091

>  <SCORE.INTER>
33.1081

>  <SCORE.INTER.CONST>
1

>  <SCORE.INTER.POLAR>
-0.472927

>  <SCORE.INTER.ROT>
16

>  <SCORE.INTER.SOLV>
36.1587

>  <SCORE.INTER.VDW>
-2.6711

>  <SCORE.INTER.norm>
0.675675

>  <SCORE.INTRA>
18.8953

>  <SCORE.INTRA.DIHEDRAL>
10.6682

>  <SCORE.INTRA.DIHEDRAL.0>
36.0842

>  <SCORE.INTRA.POLAR>
0

>  <SCORE.INTRA.POLAR.0>
0

>  <SCORE.INTRA.REPUL>
0.0724814

>  <SCORE.INTRA.REPUL.0>
0

>  <SCORE.INTRA.SOLV>
-0.874897

>  <SCORE.INTRA.SOLV.lig_0>
-126.444

>  <SCORE.INTRA.VDW>
13.6363

>  <SCORE.INTRA.VDW.0>
-7.40469

>  <SCORE.INTRA.norm>
0.385619

>  <SCORE.RESTR>
40.8057

>  <SCORE.RESTR.CAVITY>
40.8057

>  <SCORE.RESTR.norm>
0.832769

>  <SCORE.SYSTEM>
0

>  <SCORE.SYSTEM.CONST>
0

>  <SCORE.SYSTEM.DIHEDRAL>
0

>  <SCORE.SYSTEM.SOLV>
0

>  <SCORE.SYSTEM.norm>
0

>  <SCORE.heavy>
49

>  <SCORE.norm>
1.89406

>  <RMSD>
8.630

$$$$
2bee_lig
 OpenBabel11021811423D
libRbt.so/2013.1/901 2013/11/27
 49 52  0  0  0  0  0  0  0  0999 V2000
   41.2799    0.0238   -5.7196 C   0  0  2  0  0  0  0  0  0  0  0  0
   41.4148    1.0182   -4.7121 O   0  0  0  0  0  0  0  0  0  0  0  0
   38.2316   -0.2005   -1.9271 C   0  0  2  0  0  0  0  0  0  0  0  0
   37.4076   -0.2552   -0.6890 N   0  0  0  0  0  0  0  0  0  0  0  0
   39.2605    3.7512   -4.0192 C   0  0  1  0  0  0  0  0  0  0  0  0
   42.6589    6.0813   -5.7933 C   0  0  1  0  0  0  0  0  0  0  0  0
   39.6463    5.1438    2.7814 C   0  0  0  0  0  0  0  0  0  0  0  0
   42.4453    0.1515   -6.7752 C   0  0  2  0  0  0  0  0  0  0  0  0
   43.7382    0.1062   -6.1006 N   0  0  0  0  0  0  0  0  0  0  0  0
   39.7566   -0.4970   -1.5607 C   0  0  0  0  0  0  0  0  0  0  0  0
   40.0079    4.7636   -3.2135 C   0  0  2  0  0  0  0  0  0  0  0  0
   39.1714    5.4141   -2.1901 O   0  0  0  0  0  0  0  0  0  0  0  0
   44.0373    6.6617   -5.1656 C   0  0  2  0  0  0  0  0  0  0  0  0
   43.8150    8.1013   -4.8034 N   0  0  0  0  0  0  0  0  0  0  0  0
   38.7448    4.0757    2.9994 C   0  0  0  0  0  0  0  0  0  0  0  0
   38.5815    3.5557    4.2814 N   0  0  0  0  0  0  0  0  0  0  0  0
   42.2619    1.4998   -7.6001 C   0  0  1  0  0  0  0  0  0  0  0  0
   43.3122    1.6037   -8.5504 O   0  0  0  0  0  0  0  0  0  0  0  0
   40.6983   -0.4327   -2.8951 C   0  0  2  0  0  0  0  0  0  0  0  0
   42.0596   -0.7049   -2.5799 N   0  0  0  0  0  0  0  0  0  0  0  0
   40.5745    5.5314   -4.3832 C   0  0  2  0  0  0  0  0  0  0  0  0
   41.6605    6.2862   -4.7651 O   0  0  0  0  0  0  0  0  0  0  0  0
   45.1698    6.5280   -6.2453 C   0  0  1  0  0  0  0  0  0  0  0  0
   45.3355    5.0956   -6.5324 O   0  0  0  0  0  0  0  0  0  0  0  0
   40.8794    1.4842   -8.2929 C   0  0  2  0  0  0  0  0  0  0  0  0
   40.6602    2.7348   -9.0634 O   0  0  0  0  0  0  0  0  0  0  0  0
   40.5835    0.9927   -3.5631 C   0  0  2  0  0  0  0  0  0  0  0  0
   39.3811    5.4724   -5.4601 C   0  0  2  0  0  0  0  0  0  0  0  0
   38.9180    4.2104   -5.2956 O   0  0  0  0  0  0  0  0  0  0  0  0
   44.7381    7.3621   -7.5800 C   0  0  2  0  0  0  0  0  0  0  0  0
   44.5718    8.8018   -7.2783 O   0  0  0  0  0  0  0  0  0  0  0  0
   39.7324    1.3512   -7.2363 C   0  0  2  0  0  0  0  0  0  0  0  0
   40.0159    0.1218   -6.5203 O   0  0  0  0  0  0  0  0  0  0  0  0
   39.0730    1.2343   -3.8984 C   0  0  2  0  0  0  0  0  0  0  0  0
   39.0900    2.5050   -4.5024 O   0  0  0  0  0  0  0  0  0  0  0  0
   39.7536    5.6104   -6.9825 C   0  0  0  0  0  0  0  0  0  0  0  0
   40.7160    4.5698   -7.3437 O   0  0  0  0  0  0  0  0  0  0  0  0
   43.3596    6.8040   -8.1522 C   0  0  1  0  0  0  0  0  0  0  0  0
   42.3398    6.9204   -7.0386 O   0  0  0  0  0  0  0  0  0  0  0  0
   38.4612    1.3206   -7.9837 C   0  0  0  0  0  0  0  0  0  0  0  0
   37.4274    1.1743   -7.1440 O   0  0  0  0  0  0  0  0  0  0  0  0
   38.1866    1.1986   -2.5810 C   0  0  1  0  0  0  0  0  0  0  0  0
   36.8429    1.4061   -2.8935 O   0  0  0  0  0  0  0  0  0  0  0  0
   38.3469    4.7088   -1.1953 C   0  0  0  0  0  0  0  0  0  0  0  0
   43.0388    7.6857   -9.4063 C   0  0  0  0  0  0  0  0  0  0  0  0
   44.1010    7.6937  -10.3708 N   0  0  0  0  0  0  0  0  0  0  0  0
   39.2523    3.8661   -0.2958 C   0  0  0  0  0  0  0  0  0  0  0  0
   40.2181    4.7939    0.3243 N   0  0  0  0  0  0  0  0  0  0  0  0
   39.6912    5.8172    1.3325 C   0  0  0  0  0  0  0  0  0  0  0  0
  1  2  1  1  0  0  0
  1  8  1  0  0  0  0
  1 33  1  0  0  0  0
  3  4  1  1  0  0  0
  3 10  1  0  0  0  0
  3 42  1  0  0  0  0
  5 11  1  0  0  0  0
  5 29  1  0  0  0  0
  5 35  1  6  0  0  0
  6 13  1  0  0  0  0
  6 39  1  0  0  0  0
  6 22  1  1  0  0  0
  7 15  1  0  0  0  0
  8  9  1  1  0  0  0
  8 17  1  0  0  0  0
 10 19  1  0  0  0  0
 11 12  1  1  0  0  0
 11 21  1  0  0  0  0
 12 44  1  0  0  0  0
 13 14  1  6  0  0  0
 13 23  1  0  0  0  0
 15 16  1  0  0  0  0
 17 18  1  6  0  0  0
 17 25  1  0  0  0  0
 19 20  1  1  0  0  0
 19 27  1  0  0  0  0
 21 22  1  1  0  0  0
 21 28  1  0  0  0  0
 23 24  1  6  0  0  0
 23 30  1  0  0  0  0
 25 26  1  1  0  0  0
 25 32  1  0  0  0  0
 27  2  1  6  0  0  0
 27 34  1  0  0  0  0
 28 29  1  0  0  0  0
 28 36  1  6  0  0  0
 30 31  1  1  0  0  0
 30 38  1  0  0  0  0
 32 33  1  0  0  0  0
 32 40  1  6  0  0  0
 34 35  1  1  0  0  0
 34 42  1  0  0  0  0
 36 37  1  0  0  0  0
 38 39  1  0  0  0  0
 38 45  1  6  0  0  0
 40 41  1  0  0  0  0
 42 43  1  6  0  0  0
 44 47  1  0  0  0  0
 45 46  1  0  0  0  0
 47 48  1  0  0  0  0
 48 49  1  0  0  0  0
 49  7  1  0  0  0  0
M  END
>  <CHROM.1>
-171.82960455,50.74865566,-144.27255997,-173.51189589,51.85543322,62.12980638
117.66832131,53.67125106,57.09772790,178.48584219,-73.18714712,55.28626199
58.00900994,67.66693698,86.15788572,-65.96702765,40.81920303,3.55033148,-4.61993200
2.74034728,1.04415099,0.87293042

>  <Name>
2bee_lig

>  <RI>
0

>  <Rbt.Current_Directory>
/home/itssahil/PROJECTS/Mol_Feturizer/New_Systems/rnas/2bee

>  <Rbt.Executable>
rbdock ($Id: //depot/dev/client3/rdock/2013.1/src/exe/rbdock.cxx#4 $)

>  <Rbt.Library>
libRbt.so (2013.1, Build901 2013/11/27)

>  <Rbt.Parameter_File>
/export/apps/rDock/src/rDock_2013.1_src/data/scripts/dock_solv.prm

>  <Rbt.Receptor>
prm/pocket_docking_8.prm

>  <SCORE>
-18.2368

>  <SCORE.INTER>
-6.77258

>  <SCORE.INTER.CONST>
1

>  <SCORE.INTER.POLAR>
-0.938511

>  <SCORE.INTER.ROT>
16

>  <SCORE.INTER.SOLV>
14.7809

>  <SCORE.INTER.VDW>
-20.5803

>  <SCORE.INTER.norm>
-0.138216

>  <SCORE.INTRA>
-11.4642

>  <SCORE.INTRA.DIHEDRAL>
-24.7468

>  <SCORE.INTRA.DIHEDRAL.0>
36.0842

>  <SCORE.INTRA.POLAR>
0

>  <SCORE.INTRA.POLAR.0>
0

>  <SCORE.INTRA.REPUL>
0

>  <SCORE.INTRA.REPUL.0>
0

>  <SCORE.INTRA.SOLV>
0.204265

>  <SCORE.INTRA.SOLV.lig_0>
-126.444

>  <SCORE.INTRA.VDW>
0.807019

>  <SCORE.INTRA.VDW.0>
-7.40469

>  <SCORE.INTRA.norm>
-0.233964

>  <SCORE.RESTR>
0

>  <SCORE.RESTR.CAVITY>
0

>  <SCORE.RESTR.norm>
0

>  <SCORE.SYSTEM>
0

>  <SCORE.SYSTEM.CONST>
0

>  <SCORE.SYSTEM.DIHEDRAL>
0

>  <SCORE.SYSTEM.SOLV>
0

>  <SCORE.SYSTEM.norm>
0

>  <SCORE.heavy>
49

>  <SCORE.norm>
-0.37218

>  <RMSD>
8.633

$$$$
2bee_lig
 OpenBabel11021811423D
libRbt.so/2013.1/901 2013/11/27
 49 52  0  0  0  0  0  0  0  0999 V2000
   42.7604    0.5036   -2.9120 C   0  0  2  0  0  0  0  0  0  0  0  0
   41.9317    1.3032   -3.7463 O   0  0  0  0  0  0  0  0  0  0  0  0
   39.1620    4.7084   -3.4185 C   0  0  2  0  0  0  0  0  0  0  0  0
   38.4508    5.8757   -2.8299 N   0  0  0  0  0  0  0  0  0  0  0  0
   43.7037    4.5340   -3.4618 C   0  0  1  0  0  0  0  0  0  0  0  0
   42.2322    5.8482    0.5428 C   0  0  1  0  0  0  0  0  0  0  0  0
   48.5677    5.8163   -8.3088 C   0  0  0  0  0  0  0  0  0  0  0  0
   43.6778   -0.4343   -3.7881 C   0  0  2  0  0  0  0  0  0  0  0  0
   44.4356    0.3620   -4.7474 N   0  0  0  0  0  0  0  0  0  0  0  0
   38.9658    3.4378   -2.4724 C   0  0  0  0  0  0  0  0  0  0  0  0
   44.1838    5.7536   -2.7444 C   0  0  2  0  0  0  0  0  0  0  0  0
   45.5420    6.1589   -3.1463 O   0  0  0  0  0  0  0  0  0  0  0  0
   41.5922    7.1960   -0.0935 C   0  0  2  0  0  0  0  0  0  0  0  0
   42.5367    8.3318    0.1733 N   0  0  0  0  0  0  0  0  0  0  0  0
   48.5648    4.5135   -8.8597 C   0  0  0  0  0  0  0  0  0  0  0  0
   49.3441    3.5137   -8.2820 N   0  0  0  0  0  0  0  0  0  0  0  0
   42.7738   -1.5234   -4.5151 C   0  0  1  0  0  0  0  0  0  0  0  0
   43.6083   -2.3654   -5.2972 O   0  0  0  0  0  0  0  0  0  0  0  0
   39.7449    2.1353   -3.0789 C   0  0  2  0  0  0  0  0  0  0  0  0
   39.5683    0.9942   -2.2464 N   0  0  0  0  0  0  0  0  0  0  0  0
   43.8801    5.2644   -1.3490 C   0  0  2  0  0  0  0  0  0  0  0  0
   43.5242    5.7067   -0.0949 O   0  0  0  0  0  0  0  0  0  0  0  0
   40.2022    7.4560    0.5894 C   0  0  1  0  0  0  0  0  0  0  0  0
   39.3353    6.3124    0.2696 O   0  0  0  0  0  0  0  0  0  0  0  0
   42.0029   -2.3344   -3.4477 C   0  0  2  0  0  0  0  0  0  0  0  0
   41.1326   -3.3547   -4.0859 O   0  0  0  0  0  0  0  0  0  0  0  0
   41.2842    2.4523   -3.2245 C   0  0  2  0  0  0  0  0  0  0  0  0
   44.2168    3.6942   -1.4407 C   0  0  2  0  0  0  0  0  0  0  0  0
   43.7507    3.3796   -2.6728 O   0  0  0  0  0  0  0  0  0  0  0  0
   40.4179    7.6146    2.1993 C   0  0  2  0  0  0  0  0  0  0  0  0
   41.2939    8.7672    2.5088 O   0  0  0  0  0  0  0  0  0  0  0  0
   41.1014   -1.3926   -2.5816 C   0  0  2  0  0  0  0  0  0  0  0  0
   42.0115   -0.4231   -2.0017 O   0  0  0  0  0  0  0  0  0  0  0  0
   41.4203    3.7040   -4.1558 C   0  0  2  0  0  0  0  0  0  0  0  0
   42.8140    3.8806   -4.2344 O   0  0  0  0  0  0  0  0  0  0  0  0
   43.4932    2.7245   -0.4348 C   0  0  0  0  0  0  0  0  0  0  0  0
   44.0425    1.3766   -0.5788 O   0  0  0  0  0  0  0  0  0  0  0  0
   41.0886    6.2972    2.7941 C   0  0  1  0  0  0  0  0  0  0  0  0
   42.3915    6.0907    2.0503 O   0  0  0  0  0  0  0  0  0  0  0  0
   40.4275   -2.2427   -1.5823 C   0  0  0  0  0  0  0  0  0  0  0  0
   39.5172   -1.5335   -0.9014 O   0  0  0  0  0  0  0  0  0  0  0  0
   40.6821    4.9619   -3.5270 C   0  0  1  0  0  0  0  0  0  0  0  0
   40.8028    6.0674   -4.3693 O   0  0  0  0  0  0  0  0  0  0  0  0
   45.9508    6.5127   -4.5155 C   0  0  0  0  0  0  0  0  0  0  0  0
   41.2645    6.5715    4.3260 C   0  0  0  0  0  0  0  0  0  0  0  0
   40.0276    6.5109    5.0507 N   0  0  0  0  0  0  0  0  0  0  0  0
   46.1272    5.2339   -5.3356 C   0  0  0  0  0  0  0  0  0  0  0  0
   46.6346    5.6442   -6.6593 N   0  0  0  0  0  0  0  0  0  0  0  0
   48.1177    5.9990   -6.7859 C   0  0  0  0  0  0  0  0  0  0  0  0
  1  2  1  6  0  0  0
  1  8  1  0  0  0  0
  1 33  1  0  0  0  0
  3  4  1  1  0  0  0
  3 10  1  0  0  0  0
  3 42  1  0  0  0  0
  5 11  1  0  0  0  0
  5 29  1  0  0  0  0
  5 35  1  1  0  0  0
  6 13  1  0  0  0  0
  6 39  1  0  0  0  0
  6 22  1  6  0  0  0
  7 15  1  0  0  0  0
  8  9  1  6  0  0  0
  8 17  1  0  0  0  0
 10 19  1  0  0  0  0
 11 12  1  1  0  0  0
 11 21  1  0  0  0  0
 12 44  1  0  0  0  0
 13 14  1  1  0  0  0
 13 23  1  0  0  0  0
 15 16  1  0  0  0  0
 17 18  1  1  0  0  0
 17 25  1  0  0  0  0
 19 20  1  1  0  0  0
 19 27  1  0  0  0  0
 21 22  1  1  0  0  0
 21 28  1  0  0  0  0
 23 24  1  1  0  0  0
 23 30  1  0  0  0  0
 25 26  1  6  0  0  0
 25 32  1  0  0  0  0
 27  2  1  6  0  0  0
 27 34  1  0  0  0  0
 28 29  1  0  0  0  0
 28 36  1  1  0  0  0
 30 31  1  6  0  0  0
 30 38  1  0  0  0  0
 32 33  1  0  0  0  0
 32 40  1  1  0  0  0
 34 35  1  1  0  0  0
 34 42  1  0  0  0  0
 36 37  1  0  0  0  0
 38 39  1  0  0  0  0
 38 45  1  1  0  0  0
 40 41  1  0  0  0  0
 42 43  1  6  0  0  0
 44 47  1  0  0  0  0
 45 46  1  0  0  0  0
 47 48  1  0  0  0  0
 48 49  1  0  0  0  0
 49  7  1  0  0  0  0
M  END
>  <CHROM.1>
-163.50966856,-52.33105695,-77.10675596,-59.00181282,59.18558385,-77.47319206
93.86598266,-107.14654213,-173.69213670,-172.79141896,-86.30510898,74.06019456
-175.75345829,78.12453883,156.76722975,-66.02485103,42.66433619,3.60133717
-2.38722498,0.91164749,-0.79307597,-2.67821739

>  <Name>
2bee_lig

>  <RI>
3.46266e+07

>  <Rbt.Current_Directory>
/home/itssahil/PROJECTS/Mol_Feturizer/New_Systems/rnas/2bee

>  <Rbt.Executable>
rbdock ($Id: //depot/dev/client3/rdock/2013.1/src/exe/rbdock.cxx#4 $)

>  <Rbt.Library>
libRbt.so (2013.1, Build901 2013/11/27)

>  <Rbt.Parameter_File>
/export/apps/rDock/src/rDock_2013.1_src/data/scripts/dock_solv.prm

>  <Rbt.Receptor>
prm/pocket_docking_4.prm

>  <SCORE>
-11.8477

>  <SCORE.INTER>
-6.35747

>  <SCORE.INTER.CONST>
1

>  <SCORE.INTER.POLAR>
-0.670775

>  <SCORE.INTER.ROT>
16

>  <SCORE.INTER.SOLV>
12.2788

>  <SCORE.INTER.VDW>
-20.362

>  <SCORE.INTER.norm>
-0.129744

>  <SCORE.INTRA>
-5.55526

>  <SCORE.INTRA.DIHEDRAL>
-16.0607

>  <SCORE.INTRA.DIHEDRAL.0>
36.0842

>  <SCORE.INTRA.POLAR>
0

>  <SCORE.INTRA.POLAR.0>
0

>  <SCORE.INTRA.REPUL>
0

>  <SCORE.INTRA.REPUL.0>
0

>  <SCORE.INTRA.SOLV>
3.87468

>  <SCORE.INTRA.SOLV.lig_0>
-126.444

>  <SCORE.INTRA.VDW>
0.537751

>  <SCORE.INTRA.VDW.0>
-7.40469

>  <SCORE.INTRA.norm>
-0.113373

>  <SCORE.RESTR>
0.0650035

>  <SCORE.RESTR.CAVITY>
0.0650035

>  <SCORE.RESTR.norm>
0.0013266

>  <SCORE.SYSTEM>
0

>  <SCORE.SYSTEM.CONST>
0

>  <SCORE.SYSTEM.DIHEDRAL>
0

>  <SCORE.SYSTEM.SOLV>
0

>  <SCORE.SYSTEM.norm>
0

>  <SCORE.heavy>
49

>  <SCORE.norm>
-0.24179

>  <RMSD>
8.638

$$$$
2bee_lig
 OpenBabel11021811423D
libRbt.so/2013.1/901 2013/11/27
 49 52  0  0  0  0  0  0  0  0999 V2000
   40.3532    2.4893   -4.8781 C   0  0  2  0  0  0  0  0  0  0  0  0
   40.0770    1.4485   -3.9493 O   0  0  0  0  0  0  0  0  0  0  0  0
   39.5165    1.6028    0.4137 C   0  0  2  0  0  0  0  0  0  0  0  0
   39.8496    1.7277    1.8588 N   0  0  0  0  0  0  0  0  0  0  0  0
   40.9288    4.6536   -2.7127 C   0  0  1  0  0  0  0  0  0  0  0  0
   44.1077    6.4958   -5.7944 C   0  0  1  0  0  0  0  0  0  0  0  0
   41.0243    7.5080    2.7336 C   0  0  0  0  0  0  0  0  0  0  0  0
   39.8624    2.0808   -6.3208 C   0  0  2  0  0  0  0  0  0  0  0  0
   38.4514    1.7115   -6.2830 N   0  0  0  0  0  0  0  0  0  0  0  0
   40.3843    0.4275   -0.2292 C   0  0  0  0  0  0  0  0  0  0  0  0
   42.3870    4.8554   -2.9685 C   0  0  2  0  0  0  0  0  0  0  0  0
   43.0972    5.4364   -1.8159 O   0  0  0  0  0  0  0  0  0  0  0  0
   43.9802    6.9014   -7.3597 C   0  0  2  0  0  0  0  0  0  0  0  0
   43.7245    5.6490   -8.1467 N   0  0  0  0  0  0  0  0  0  0  0  0
   39.7397    7.3432    2.1649 C   0  0  0  0  0  0  0  0  0  0  0  0
   38.8081    8.3759    2.2431 N   0  0  0  0  0  0  0  0  0  0  0  0
   40.7655    0.8893   -6.8654 C   0  0  1  0  0  0  0  0  0  0  0  0
   40.3195    0.5318   -8.1655 O   0  0  0  0  0  0  0  0  0  0  0  0
   40.0564    0.2671   -1.8224 C   0  0  2  0  0  0  0  0  0  0  0  0
   40.8192   -0.7851   -2.4031 N   0  0  0  0  0  0  0  0  0  0  0  0
   42.2323    5.6070   -4.2685 C   0  0  2  0  0  0  0  0  0  0  0  0
   42.8588    5.8381   -5.4722 O   0  0  0  0  0  0  0  0  0  0  0  0
   45.3251    7.5763   -7.8090 C   0  0  1  0  0  0  0  0  0  0  0  0
   45.4935    8.7964   -7.0062 O   0  0  0  0  0  0  0  0  0  0  0  0
   42.2434    1.3439   -6.8856 C   0  0  2  0  0  0  0  0  0  0  0  0
   43.1252    0.2533   -7.3742 O   0  0  0  0  0  0  0  0  0  0  0  0
   40.3653    1.6217   -2.5713 C   0  0  2  0  0  0  0  0  0  0  0  0
   40.9073    6.4839   -4.0176 C   0  0  2  0  0  0  0  0  0  0  0  0
   40.1252    5.6185   -3.3296 O   0  0  0  0  0  0  0  0  0  0  0  0
   46.5542    6.5285   -7.5746 C   0  0  2  0  0  0  0  0  0  0  0  0
   46.3725    5.3035   -8.3856 O   0  0  0  0  0  0  0  0  0  0  0  0
   42.7165    1.7520   -5.4506 C   0  0  2  0  0  0  0  0  0  0  0  0
   41.8101    2.8063   -5.0370 O   0  0  0  0  0  0  0  0  0  0  0  0
   39.4943    2.7379   -1.9022 C   0  0  2  0  0  0  0  0  0  0  0  0
   39.8267    3.8808   -2.6528 O   0  0  0  0  0  0  0  0  0  0  0  0
   40.0708    6.9323   -5.2726 C   0  0  0  0  0  0  0  0  0  0  0  0
   39.5830    5.7485   -5.9797 O   0  0  0  0  0  0  0  0  0  0  0  0
   46.6314    6.1101   -6.0390 C   0  0  1  0  0  0  0  0  0  0  0  0
   45.2857    5.5188   -5.6744 O   0  0  0  0  0  0  0  0  0  0  0  0
   44.1196    2.1912   -5.5695 C   0  0  0  0  0  0  0  0  0  0  0  0
   44.9267    1.1370   -5.7503 O   0  0  0  0  0  0  0  0  0  0  0  0
   39.8562    2.8940   -0.3636 C   0  0  1  0  0  0  0  0  0  0  0  0
   39.0682    3.8845    0.2230 O   0  0  0  0  0  0  0  0  0  0  0  0
   43.3940    4.7299   -0.5590 C   0  0  0  0  0  0  0  0  0  0  0  0
   47.8218    5.0971   -5.9400 C   0  0  0  0  0  0  0  0  0  0  0  0
   48.0067    4.5791   -4.6148 N   0  0  0  0  0  0  0  0  0  0  0  0
   43.7151    5.7533    0.5312 C   0  0  0  0  0  0  0  0  0  0  0  0
   42.4282    6.3323    0.9634 N   0  0  0  0  0  0  0  0  0  0  0  0
   42.1261    6.3821    2.4626 C   0  0  0  0  0  0  0  0  0  0  0  0
  1  2  1  1  0  0  0
  1  8  1  0  0  0  0
  1 33  1  0  0  0  0
  3  4  1  1  0  0  0
  3 10  1  0  0  0  0
  3 42  1  0  0  0  0
  5 11  1  0  0  0  0
  5 29  1  0  0  0  0
  5 35  1  6  0  0  0
  6 13  1  0  0  0  0
  6 39  1  0  0  0  0
  6 22  1  6  0  0  0
  7 15  1  0  0  0  0
  8  9  1  1  0  0  0
  8 17  1  0  0  0  0
 10 19  1  0  0  0  0
 11 12  1  1  0  0  0
 11 21  1  0  0  0  0
 12 44  1  0  0  0  0
 13 14  1  6  0  0  0
 13 23  1  0  0  0  0
 15 16  1  0  0  0  0
 17 18  1  6  0  0  0
 17 25  1  0  0  0  0
 19 20  1  6  0  0  0
 19 27  1  0  0  0  0
 21 22  1  1  0  0  0
 21 28  1  0  0  0  0
 23 24  1  1  0  0  0
 23 30  1  0  0  0  0
 25 26  1  1  0  0  0
 25 32  1  0  0  0  0
 27  2  1  6  0  0  0
 27 34  1  0  0  0  0
 28 29  1  0  0  0  0
 28 36  1  6  0  0  0
 30 31  1  6  0  0  0
 30 38  1  0  0  0  0
 32 33  1  0  0  0  0
 32 40  1  6  0  0  0
 34 35  1  6  0  0  0
 34 42  1  0  0  0  0
 36 37  1  0  0  0  0
 38 39  1  0  0  0  0
 38 45  1  6  0  0  0
 40 41  1  0  0  0  0
 42 43  1  1  0  0  0
 44 47  1  0  0  0  0
 45 46  1  0  0  0  0
 47 48  1  0  0  0  0
 48 49  1  0  0  0  0
 49  7  1  0  0  0  0
M  END
>  <CHROM.1>
-176.56861955,59.92207026,-159.63685054,-172.23696189,71.51391966,-161.73032265
-64.88187947,-175.67311161,61.48702621,-73.89833243,-72.44154256,-178.07582491
76.62668203,130.00835583,158.09711606,63.34957584,42.14673309,4.14721548
-3.73782096,2.45454637,0.84191647,0.90587130

>  <Name>
2bee_lig

>  <RI>
0

>  <Rbt.Current_Directory>
/home/itssahil/PROJECTS/Mol_Feturizer/New_Systems/rnas/2bee

>  <Rbt.Executable>
rbdock ($Id: //depot/dev/client3/rdock/2013.1/src/exe/rbdock.cxx#4 $)

>  <Rbt.Library>
libRbt.so (2013.1, Build901 2013/11/27)

>  <Rbt.Parameter_File>
/export/apps/rDock/src/rDock_2013.1_src/data/scripts/dock_solv.prm

>  <Rbt.Receptor>
prm/pocket_docking_6.prm

>  <SCORE>
-14.2577

>  <SCORE.INTER>
-1.68031

>  <SCORE.INTER.CONST>
1

>  <SCORE.INTER.POLAR>
-0.938083

>  <SCORE.INTER.ROT>
16

>  <SCORE.INTER.SOLV>
10.4225

>  <SCORE.INTER.VDW>
-15.7341

>  <SCORE.INTER.norm>
-0.034292

>  <SCORE.INTRA>
-12.5774

>  <SCORE.INTRA.DIHEDRAL>
-21.8977

>  <SCORE.INTRA.DIHEDRAL.0>
36.0842

>  <SCORE.INTRA.POLAR>
0

>  <SCORE.INTRA.POLAR.0>
0

>  <SCORE.INTRA.REPUL>
0

>  <SCORE.INTRA.REPUL.0>
0

>  <SCORE.INTRA.SOLV>
-3.01934

>  <SCORE.INTRA.SOLV.lig_0>
-126.444

>  <SCORE.INTRA.VDW>
-0.118897

>  <SCORE.INTRA.VDW.0>
-7.40469

>  <SCORE.INTRA.norm>
-0.256682

>  <SCORE.RESTR>
0

>  <SCORE.RESTR.CAVITY>
0

>  <SCORE.RESTR.norm>
0

>  <SCORE.SYSTEM>
0

>  <SCORE.SYSTEM.CONST>
0

>  <SCORE.SYSTEM.DIHEDRAL>
0

>  <SCORE.SYSTEM.SOLV>
0

>  <SCORE.SYSTEM.norm>
0

>  <SCORE.heavy>
49

>  <SCORE.norm>
-0.290974

>  <RMSD>
8.664

$$$$
2bee_lig
 OpenBabel11021811423D
libRbt.so/2013.1/901 2013/11/27
 49 52  0  0  0  0  0  0  0  0999 V2000
   41.8569    7.2741   -2.1474 C   0  0  2  0  0  0  0  0  0  0  0  0
   42.0593    6.6403   -0.8906 O   0  0  0  0  0  0  0  0  0  0  0  0
   40.3948    3.2255    1.3326 C   0  0  2  0  0  0  0  0  0  0  0  0
   39.3896    2.2730    1.8777 N   0  0  0  0  0  0  0  0  0  0  0  0
   41.9501    3.3516   -3.1044 C   0  0  1  0  0  0  0  0  0  0  0  0
   39.7067    1.4086   -6.6431 C   0  0  1  0  0  0  0  0  0  0  0  0
   46.6766    0.6083   -3.5577 C   0  0  0  0  0  0  0  0  0  0  0  0
   43.1376    8.0989   -2.5577 C   0  0  2  0  0  0  0  0  0  0  0  0
   44.3147    7.2372   -2.5382 N   0  0  0  0  0  0  0  0  0  0  0  0
   39.9994    4.7122    1.7581 C   0  0  0  0  0  0  0  0  0  0  0  0
   41.7882    2.0758   -3.8651 C   0  0  2  0  0  0  0  0  0  0  0  0
   42.9631    1.1929   -3.7626 O   0  0  0  0  0  0  0  0  0  0  0  0
   38.4179    1.6268   -5.6827 C   0  0  2  0  0  0  0  0  0  0  0  0
   38.8883    1.5996   -4.2576 N   0  0  0  0  0  0  0  0  0  0  0  0
   47.7876    0.6396   -4.4327 C   0  0  0  0  0  0  0  0  0  0  0  0
   48.0613    1.7918   -5.1664 N   0  0  0  0  0  0  0  0  0  0  0  0
   43.3023    9.3382   -1.5733 C   0  0  1  0  0  0  0  0  0  0  0  0
   44.4543   10.0769   -1.9531 O   0  0  0  0  0  0  0  0  0  0  0  0
   41.0743    5.7919    1.1661 C   0  0  2  0  0  0  0  0  0  0  0  0
   40.7351    7.1206    1.5479 N   0  0  0  0  0  0  0  0  0  0  0  0
   41.3787    2.7058   -5.1744 C   0  0  2  0  0  0  0  0  0  0  0  0
   40.6187    2.4792   -6.2996 O   0  0  0  0  0  0  0  0  0  0  0  0
   37.3948    0.4666   -5.9533 C   0  0  1  0  0  0  0  0  0  0  0  0
   36.9735    0.5717   -7.3580 O   0  0  0  0  0  0  0  0  0  0  0  0
   42.0284   10.2121   -1.6436 C   0  0  2  0  0  0  0  0  0  0  0  0
   42.1340   11.3750   -0.7257 O   0  0  0  0  0  0  0  0  0  0  0  0
   41.1243    5.6890   -0.4081 C   0  0  2  0  0  0  0  0  0  0  0  0
   42.2680    4.0454   -5.2188 C   0  0  2  0  0  0  0  0  0  0  0  0
   42.2321    4.4481   -3.9263 O   0  0  0  0  0  0  0  0  0  0  0  0
   38.1160   -0.9653   -5.6480 C   0  0  2  0  0  0  0  0  0  0  0  0
   38.5378   -1.0584   -4.2321 O   0  0  0  0  0  0  0  0  0  0  0  0
   40.7646    9.3815   -1.2403 C   0  0  2  0  0  0  0  0  0  0  0  0
   40.7319    8.2654   -2.1663 O   0  0  0  0  0  0  0  0  0  0  0  0
   41.5117    4.2156   -0.7708 C   0  0  2  0  0  0  0  0  0  0  0  0
   41.5499    4.2434   -2.1771 O   0  0  0  0  0  0  0  0  0  0  0  0
   41.7368    5.2556   -6.0727 C   0  0  0  0  0  0  0  0  0  0  0  0
   40.5210    5.7877   -5.4578 O   0  0  0  0  0  0  0  0  0  0  0  0
   39.4038   -1.1372   -6.5705 C   0  0  1  0  0  0  0  0  0  0  0  0
   40.3103    0.0426   -6.2875 O   0  0  0  0  0  0  0  0  0  0  0  0
   39.6027   10.2824   -1.3587 C   0  0  0  0  0  0  0  0  0  0  0  0
   39.5481   11.1165   -0.3115 O   0  0  0  0  0  0  0  0  0  0  0  0
   40.4343    3.1916   -0.2115 C   0  0  1  0  0  0  0  0  0  0  0  0
   40.7948    1.8828   -0.5331 O   0  0  0  0  0  0  0  0  0  0  0  0
   43.4809    0.6123   -2.5129 C   0  0  0  0  0  0  0  0  0  0  0  0
   40.0185   -2.5232   -6.1779 C   0  0  0  0  0  0  0  0  0  0  0  0
   41.2014   -2.8422   -6.9247 N   0  0  0  0  0  0  0  0  0  0  0  0
   44.1785    1.7042   -1.7005 C   0  0  0  0  0  0  0  0  0  0  0  0
   45.5211    1.1919   -1.3642 N   0  0  0  0  0  0  0  0  0  0  0  0
   46.6879    1.5684   -2.2798 C   0  0  0  0  0  0  0  0  0  0  0  0
  1  2  1  1  0  0  0
  1  8  1  0  0  0  0
  1 33  1  0  0  0  0
  3  4  1  6  0  0  0
  3 10  1  0  0  0  0
  3 42  1  0  0  0  0
  5 11  1  0  0  0  0
  5 29  1  0  0  0  0
  5 35  1  6  0  0  0
  6 13  1  0  0  0  0
  6 39  1  0  0  0  0
  6 22  1  1  0  0  0
  7 15  1  0  0  0  0
  8  9  1  1  0  0  0
  8 17  1  0  0  0  0
 10 19  1  0  0  0  0
 11 12  1  6  0  0  0
 11 21  1  0  0  0  0
 12 44  1  0  0  0  0
 13 14  1  1  0  0  0
 13 23  1  0  0  0  0
 15 16  1  0  0  0  0
 17 18  1  6  0  0  0
 17 25  1  0  0  0  0
 19 20  1  6  0  0  0
 19 27  1  0  0  0  0
 21 22  1  6  0  0  0
 21 28  1  0  0  0  0
 23 24  1  6  0  0  0
 23 30  1  0  0  0  0
 25 26  1  1  0  0  0
 25 32  1  0  0  0  0
 27  2  1  1  0  0  0
 27 34  1  0  0  0  0
 28 29  1  0  0  0  0
 28 36  1  6  0  0  0
 30 31  1  1  0  0  0
 30 38  1  0  0  0  0
 32 33  1  0  0  0  0
 32 40  1  6  0  0  0
 34 35  1  6  0  0  0
 34 42  1  0  0  0  0
 36 37  1  0  0  0  0
 38 39  1  0  0  0  0
 38 45  1  1  0  0  0
 40 41  1  0  0  0  0
 42 43  1  1  0  0  0
 44 47  1  0  0  0  0
 45 46  1  0  0  0  0
 47 48  1  0  0  0  0
 48 49  1  0  0  0  0
 49  7  1  0  0  0  0
M  END
>  <CHROM.1>
-170.79470588,70.53062441,70.56847428,-65.66986156,61.59786651,-73.66765875
6.18918881,-147.19593165,67.11332377,-77.24284989,171.91272913,179.93193281
-127.89421213,94.73378885,-80.78671136,-170.24050942,41.58229559,3.87044702
-2.97608397,1.47305482,-0.16191692,0.45962118

>  <Name>
2bee_lig

>  <RI>
3.46266e+07

>  <Rbt.Current_Directory>
/home/itssahil/PROJECTS/Mol_Feturizer/New_Systems/rnas/2bee

>  <Rbt.Executable>
rbdock ($Id: //depot/dev/client3/rdock/2013.1/src/exe/rbdock.cxx#4 $)

>  <Rbt.Library>
libRbt.so (2013.1, Build901 2013/11/27)

>  <Rbt.Parameter_File>
/export/apps/rDock/src/rDock_2013.1_src/data/scripts/dock_solv.prm

>  <Rbt.Receptor>
prm/pocket_docking_4.prm

>  <SCORE>
-13.5835

>  <SCORE.INTER>
-5.78308

>  <SCORE.INTER.CONST>
1

>  <SCORE.INTER.POLAR>
-1.93466

>  <SCORE.INTER.ROT>
16

>  <SCORE.INTER.SOLV>
11.0882

>  <SCORE.INTER.VDW>
-15.3693

>  <SCORE.INTER.norm>
-0.118022

>  <SCORE.INTRA>
-8.23655

>  <SCORE.INTRA.DIHEDRAL>
-17.5486

>  <SCORE.INTRA.DIHEDRAL.0>
36.0842

>  <SCORE.INTRA.POLAR>
0

>  <SCORE.INTRA.POLAR.0>
0

>  <SCORE.INTRA.REPUL>
0.00172584

>  <SCORE.INTRA.REPUL.0>
0

>  <SCORE.INTRA.SOLV>
-0.0297336

>  <SCORE.INTRA.SOLV.lig_0>
-126.444

>  <SCORE.INTRA.VDW>
0.544005

>  <SCORE.INTRA.VDW.0>
-7.40469

>  <SCORE.INTRA.norm>
-0.168093

>  <SCORE.RESTR>
0.436123

>  <SCORE.RESTR.CAVITY>
0.436123

>  <SCORE.RESTR.norm>
0.00890048

>  <SCORE.SYSTEM>
0

>  <SCORE.SYSTEM.CONST>
0

>  <SCORE.SYSTEM.DIHEDRAL>
0

>  <SCORE.SYSTEM.SOLV>
0

>  <SCORE.SYSTEM.norm>
0

>  <SCORE.heavy>
49

>  <SCORE.norm>
-0.277214

>  <RMSD>
8.675

$$$$
2bee_lig
 OpenBabel11021811423D
libRbt.so/2013.1/901 2013/11/27
 49 52  0  0  0  0  0  0  0  0999 V2000
   41.8271    4.7301   -4.8781 C   0  0  2  0  0  0  0  0  0  0  0  0
   41.5697    5.0064   -6.2490 O   0  0  0  0  0  0  0  0  0  0  0  0
   42.4027    2.4619   -9.7427 C   0  0  2  0  0  0  0  0  0  0  0  0
   43.1645    1.8057  -10.8399 N   0  0  0  0  0  0  0  0  0  0  0  0
   42.9213    1.3024   -5.3062 C   0  0  1  0  0  0  0  0  0  0  0  0
   43.5109   -3.2756   -6.3614 C   0  0  1  0  0  0  0  0  0  0  0  0
   38.2659    3.2972   -0.9364 C   0  0  0  0  0  0  0  0  0  0  0  0
   40.9951    5.7040   -3.9571 C   0  0  2  0  0  0  0  0  0  0  0  0
   39.5785    5.6254   -4.2972 N   0  0  0  0  0  0  0  0  0  0  0  0
   42.5578    4.0458   -9.8653 C   0  0  0  0  0  0  0  0  0  0  0  0
   42.6265   -0.1135   -4.9310 C   0  0  2  0  0  0  0  0  0  0  0  0
   42.6629   -0.3416   -3.4761 O   0  0  0  0  0  0  0  0  0  0  0  0
   43.9685   -4.0633   -7.7034 C   0  0  2  0  0  0  0  0  0  0  0  0
   43.2570   -3.4461   -8.8721 N   0  0  0  0  0  0  0  0  0  0  0  0
   38.8755    3.7812    0.2447 C   0  0  0  0  0  0  0  0  0  0  0  0
   39.7263    2.9550    0.9756 N   0  0  0  0  0  0  0  0  0  0  0  0
   41.5548    7.1849   -4.1174 C   0  0  1  0  0  0  0  0  0  0  0  0
   40.8033    8.0532   -3.2817 O   0  0  0  0  0  0  0  0  0  0  0  0
   41.7445    4.8042   -8.6674 C   0  0  2  0  0  0  0  0  0  0  0  0
   41.8693    6.2182   -8.7734 N   0  0  0  0  0  0  0  0  0  0  0  0
   43.6297   -0.7515   -5.8613 C   0  0  2  0  0  0  0  0  0  0  0  0
   43.8561   -1.8902   -6.6010 O   0  0  0  0  0  0  0  0  0  0  0  0
   43.5769   -5.5763   -7.5492 C   0  0  1  0  0  0  0  0  0  0  0  0
   44.3231   -6.1077   -6.3992 O   0  0  0  0  0  0  0  0  0  0  0  0
   43.0540    7.2022   -3.7388 C   0  0  2  0  0  0  0  0  0  0  0  0
   43.6215    8.5665   -3.8897 O   0  0  0  0  0  0  0  0  0  0  0  0
   42.2898    4.3274   -7.2651 C   0  0  2  0  0  0  0  0  0  0  0  0
   44.8579    0.2867   -5.8271 C   0  0  2  0  0  0  0  0  0  0  0  0
   44.2159    1.4790   -5.8065 O   0  0  0  0  0  0  0  0  0  0  0  0
   41.9645   -5.6916   -7.3244 C   0  0  2  0  0  0  0  0  0  0  0  0
   41.2242   -5.1514   -8.4870 O   0  0  0  0  0  0  0  0  0  0  0  0
   43.8674    6.2282   -4.6550 C   0  0  2  0  0  0  0  0  0  0  0  0
   43.2549    4.9270   -4.4646 O   0  0  0  0  0  0  0  0  0  0  0  0
   42.1181    2.7722   -7.1981 C   0  0  2  0  0  0  0  0  0  0  0  0
   42.6071    2.4623   -5.9156 O   0  0  0  0  0  0  0  0  0  0  0  0
   45.8241    0.3276   -7.0682 C   0  0  0  0  0  0  0  0  0  0  0  0
   46.4493   -0.9834   -7.2408 O   0  0  0  0  0  0  0  0  0  0  0  0
   41.5329   -4.8735   -6.0269 C   0  0  1  0  0  0  0  0  0  0  0  0
   41.9904   -3.4447   -6.2334 O   0  0  0  0  0  0  0  0  0  0  0  0
   45.2721    6.2916   -4.2093 C   0  0  0  0  0  0  0  0  0  0  0  0
   45.8481    7.4237   -4.6358 O   0  0  0  0  0  0  0  0  0  0  0  0
   42.9440    2.0600   -8.3526 C   0  0  1  0  0  0  0  0  0  0  0  0
   42.7762    0.6765   -8.2879 O   0  0  0  0  0  0  0  0  0  0  0  0
   41.5812   -0.0014   -2.5373 C   0  0  0  0  0  0  0  0  0  0  0  0
   39.9786   -5.0379   -5.9258 C   0  0  0  0  0  0  0  0  0  0  0  0
   39.4149   -4.3460   -4.8023 N   0  0  0  0  0  0  0  0  0  0  0  0
   41.3016    1.5003   -2.6126 C   0  0  0  0  0  0  0  0  0  0  0  0
   40.0942    1.7493   -1.8014 N   0  0  0  0  0  0  0  0  0  0  0  0
   39.2010    2.9326   -2.1803 C   0  0  0  0  0  0  0  0  0  0  0  0
  1  2  1  6  0  0  0
  1  8  1  0  0  0  0
  1 33  1  0  0  0  0
  3  4  1  6  0  0  0
  3 10  1  0  0  0  0
  3 42  1  0  0  0  0
  5 11  1  0  0  0  0
  5 29  1  0  0  0  0
  5 35  1  6  0  0  0
  6 13  1  0  0  0  0
  6 39  1  0  0  0  0
  6 22  1  6  0  0  0
  7 15  1  0  0  0  0
  8  9  1  6  0  0  0
  8 17  1  0  0  0  0
 10 19  1  0  0  0  0
 11 12  1  1  0  0  0
 11 21  1  0  0  0  0
 12 44  1  0  0  0  0
 13 14  1  6  0  0  0
 13 23  1  0  0  0  0
 15 16  1  0  0  0  0
 17 18  1  1  0  0  0
 17 25  1  0  0  0  0
 19 20  1  6  0  0  0
 19 27  1  0  0  0  0
 21 22  1  1  0  0  0
 21 28  1  0  0  0  0
 23 24  1  1  0  0  0
 23 30  1  0  0  0  0
 25 26  1  6  0  0  0
 25 32  1  0  0  0  0
 27  2  1  1  0  0  0
 27 34  1  0  0  0  0
 28 29  1  0  0  0  0
 28 36  1  6  0  0  0
 30 31  1  6  0  0  0
 30 38  1  0  0  0  0
 32 33  1  0  0  0  0
 32 40  1  1  0  0  0
 34 35  1  1  0  0  0
 34 42  1  0  0  0  0
 36 37  1  0  0  0  0
 38 39  1  0  0  0  0
 38 45  1  6  0  0  0
 40 41  1  0  0  0  0
 42 43  1  1  0  0  0
 44 47  1  0  0  0  0
 45 46  1  0  0  0  0
 47 48  1  0  0  0  0
 48 49  1  0  0  0  0
 49  7  1  0  0  0  0
M  END
>  <CHROM.1>
174.86439478,-46.85807981,175.17573347,-65.07219229,79.40549583,-59.20346976
-34.03017807,177.81505685,-60.48151898,-75.93024635,-168.61620098,-179.57354706
172.21191144,-151.53978753,-161.68294249,65.23190895,42.40367062,1.49634994
-5.57895198,-1.70804754,-1.03511545,-2.97744245

>  <Name>
2bee_lig

>  <RI>
0

>  <Rbt.Current_Directory>
/home/itssahil/PROJECTS/Mol_Feturizer/New_Systems/rnas/2bee

>  <Rbt.Executable>
rbdock ($Id: //depot/dev/client3/rdock/2013.1/src/exe/rbdock.cxx#4 $)

>  <Rbt.Library>
libRbt.so (2013.1, Build901 2013/11/27)

>  <Rbt.Parameter_File>
/export/apps/rDock/src/rDock_2013.1_src/data/scripts/dock_solv.prm

>  <Rbt.Receptor>
prm/pocket_docking_8.prm

>  <SCORE>
-7.28435

>  <SCORE.INTER>
4.18272

>  <SCORE.INTER.CONST>
1

>  <SCORE.INTER.POLAR>
-0.449008

>  <SCORE.INTER.ROT>
16

>  <SCORE.INTER.SOLV>
11.8452

>  <SCORE.INTER.VDW>
-13.9299

>  <SCORE.INTER.norm>
0.0853616

>  <SCORE.INTRA>
-11.4671

>  <SCORE.INTRA.DIHEDRAL>
-25.7195

>  <SCORE.INTRA.DIHEDRAL.0>
36.0842

>  <SCORE.INTRA.POLAR>
0

>  <SCORE.INTRA.POLAR.0>
0

>  <SCORE.INTRA.REPUL>
0.0387747

>  <SCORE.INTRA.REPUL.0>
0

>  <SCORE.INTRA.SOLV>
-0.568626

>  <SCORE.INTRA.SOLV.lig_0>
-126.444

>  <SCORE.INTRA.VDW>
1.48314

>  <SCORE.INTRA.VDW.0>
-7.40469

>  <SCORE.INTRA.norm>
-0.234022

>  <SCORE.RESTR>
0

>  <SCORE.RESTR.CAVITY>
0

>  <SCORE.RESTR.norm>
0

>  <SCORE.SYSTEM>
0

>  <SCORE.SYSTEM.CONST>
0

>  <SCORE.SYSTEM.DIHEDRAL>
0

>  <SCORE.SYSTEM.SOLV>
0

>  <SCORE.SYSTEM.norm>
0

>  <SCORE.heavy>
49

>  <SCORE.norm>
-0.14866

>  <RMSD>
8.682

$$$$
2bee_lig
 OpenBabel11021811423D
libRbt.so/2013.1/901 2013/11/27
 49 52  0  0  0  0  0  0  0  0999 V2000
   42.4460    4.6931   -6.1529 C   0  0  2  0  0  0  0  0  0  0  0  0
   43.2331    4.4565   -4.9924 O   0  0  0  0  0  0  0  0  0  0  0  0
   42.7612    2.8605   -0.9176 C   0  0  2  0  0  0  0  0  0  0  0  0
   42.1122    2.4996    0.3721 N   0  0  0  0  0  0  0  0  0  0  0  0
   42.6615    1.0113   -5.4891 C   0  0  1  0  0  0  0  0  0  0  0  0
   46.8324   -0.8670   -6.0805 C   0  0  1  0  0  0  0  0  0  0  0  0
   45.8243    3.6485   -9.8351 C   0  0  0  0  0  0  0  0  0  0  0  0
   41.9475    6.1896   -6.1811 C   0  0  2  0  0  0  0  0  0  0  0  0
   43.0841    7.0975   -6.0697 N   0  0  0  0  0  0  0  0  0  0  0  0
   42.5877    4.4259   -1.1768 C   0  0  0  0  0  0  0  0  0  0  0  0
   43.6263    0.5537   -6.5344 C   0  0  2  0  0  0  0  0  0  0  0  0
   42.9723    0.2130   -7.8097 O   0  0  0  0  0  0  0  0  0  0  0  0
   47.7354   -2.1436   -5.6492 C   0  0  2  0  0  0  0  0  0  0  0  0
   47.7273   -2.2357   -4.1511 N   0  0  0  0  0  0  0  0  0  0  0  0
   45.7809    4.1343   -8.5074 C   0  0  0  0  0  0  0  0  0  0  0  0
   46.9410    4.6183   -7.9069 N   0  0  0  0  0  0  0  0  0  0  0  0
   40.8990    6.4166   -5.0060 C   0  0  1  0  0  0  0  0  0  0  0  0
   40.4526    7.7643   -5.0422 O   0  0  0  0  0  0  0  0  0  0  0  0
   43.2772    4.8607   -2.5936 C   0  0  2  0  0  0  0  0  0  0  0  0
   43.1355    6.2573   -2.8295 N   0  0  0  0  0  0  0  0  0  0  0  0
   44.3143   -0.4910   -5.6894 C   0  0  2  0  0  0  0  0  0  0  0  0
   45.5262   -1.1186   -5.5094 O   0  0  0  0  0  0  0  0  0  0  0  0
   49.1949   -1.9234   -6.1855 C   0  0  1  0  0  0  0  0  0  0  0  0
   49.1185   -1.8595   -7.6523 O   0  0  0  0  0  0  0  0  0  0  0  0
   39.7203    5.4314   -5.1832 C   0  0  2  0  0  0  0  0  0  0  0  0
   38.7231    5.5992   -4.0954 O   0  0  0  0  0  0  0  0  0  0  0  0
   42.6188    4.0532   -3.7792 C   0  0  2  0  0  0  0  0  0  0  0  0
   43.1096   -1.0817   -4.8022 C   0  0  2  0  0  0  0  0  0  0  0  0
   42.3932    0.0336   -4.5249 O   0  0  0  0  0  0  0  0  0  0  0  0
   49.7945   -0.5430   -5.5544 C   0  0  2  0  0  0  0  0  0  0  0  0
   49.8643   -0.6182   -4.0776 O   0  0  0  0  0  0  0  0  0  0  0  0
   40.2281    3.9510   -5.1594 C   0  0  2  0  0  0  0  0  0  0  0  0
   41.1987    3.8649   -6.2341 O   0  0  0  0  0  0  0  0  0  0  0  0
   42.8133    2.5293   -3.4749 C   0  0  2  0  0  0  0  0  0  0  0  0
   42.2185    1.9130   -4.5913 O   0  0  0  0  0  0  0  0  0  0  0  0
   43.4656   -1.7334   -3.4150 C   0  0  0  0  0  0  0  0  0  0  0  0
   42.2674   -2.3492   -2.8455 O   0  0  0  0  0  0  0  0  0  0  0  0
   48.8668    0.6896   -5.9536 C   0  0  1  0  0  0  0  0  0  0  0  0
   47.4742    0.3759   -5.4480 O   0  0  0  0  0  0  0  0  0  0  0  0
   39.0479    3.0888   -5.3578 C   0  0  0  0  0  0  0  0  0  0  0  0
   38.4578    3.3645   -6.5287 O   0  0  0  0  0  0  0  0  0  0  0  0
   42.1065    2.1286   -2.1102 C   0  0  1  0  0  0  0  0  0  0  0  0
   42.2941    0.7716   -1.8459 O   0  0  0  0  0  0  0  0  0  0  0  0
   43.6677   -0.2487   -9.0222 C   0  0  0  0  0  0  0  0  0  0  0  0
   49.5230    1.9428   -5.2814 C   0  0  0  0  0  0  0  0  0  0  0  0
   49.4047    1.9368   -3.8515 N   0  0  0  0  0  0  0  0  0  0  0  0
   44.6376    0.8366   -9.4917 C   0  0  0  0  0  0  0  0  0  0  0  0
   43.8384    2.0593   -9.7017 N   0  0  0  0  0  0  0  0  0  0  0  0
   44.4554    3.1931  -10.5234 C   0  0  0  0  0  0  0  0  0  0  0  0
  1  2  1  1  0  0  0
  1  8  1  0  0  0  0
  1 33  1  0  0  0  0
  3  4  1  1  0  0  0
  3 10  1  0  0  0  0
  3 42  1  0  0  0  0
  5 11  1  0  0  0  0
  5 29  1  0  0  0  0
  5 35  1  1  0  0  0
  6 13  1  0  0  0  0
  6 39  1  0  0  0  0
  6 22  1  1  0  0  0
  7 15  1  0  0  0  0
  8  9  1  1  0  0  0
  8 17  1  0  0  0  0
 10 19  1  0  0  0  0
 11 12  1  6  0  0  0
 11 21  1  0  0  0  0
 12 44  1  0  0  0  0
 13 14  1  1  0  0  0
 13 23  1  0  0  0  0
 15 16  1  0  0  0  0
 17 18  1  6  0  0  0
 17 25  1  0  0  0  0
 19 20  1  6  0  0  0
 19 27  1  0  0  0  0
 21 22  1  6  0  0  0
 21 28  1  0  0  0  0
 23 24  1  6  0  0  0
 23 30  1  0  0  0  0
 25 26  1  1  0  0  0
 25 32  1  0  0  0  0
 27  2  1  6  0  0  0
 27 34  1  0  0  0  0
 28 29  1  0  0  0  0
 28 36  1  1  0  0  0
 30 31  1  1  0  0  0
 30 38  1  0  0  0  0
 32 33  1  0  0  0  0
 32 40  1  6  0  0  0
 34 35  1  6  0  0  0
 34 42  1  0  0  0  0
 36 37  1  0  0  0  0
 38 39  1  0  0  0  0
 38 45  1  1  0  0  0
 40 41  1  0  0  0  0
 42 43  1  1  0  0  0
 44 47  1  0  0  0  0
 45 46  1  0  0  0  0
 47 48  1  0  0  0  0
 48 49  1  0  0  0  0
 49  7  1  0  0  0  0
M  END
>  <CHROM.1>
88.05334406,-56.91642183,-169.74176181,-175.95724099,179.16153449,-61.36328816
8.21552808,-137.01919275,-173.15800514,59.67058141,125.37554112,-69.60106826
-56.90550033,-163.71836917,-57.94751669,-59.93680243,43.98114362,2.06916499
-5.31844003,-2.95313024,-0.66098234,2.13380227

>  <Name>
2bee_lig

>  <RI>
0

>  <Rbt.Current_Directory>
/home/itssahil/PROJECTS/Mol_Feturizer/New_Systems/rnas/2bee

>  <Rbt.Executable>
rbdock ($Id: //depot/dev/client3/rdock/2013.1/src/exe/rbdock.cxx#4 $)

>  <Rbt.Library>
libRbt.so (2013.1, Build901 2013/11/27)

>  <Rbt.Parameter_File>
/export/apps/rDock/src/rDock_2013.1_src/data/scripts/dock_solv.prm

>  <Rbt.Receptor>
prm/pocket_docking_7.prm

>  <SCORE>
-2.31126

>  <SCORE.INTER>
1.91386

>  <SCORE.INTER.CONST>
1

>  <SCORE.INTER.POLAR>
-0.901342

>  <SCORE.INTER.ROT>
16

>  <SCORE.INTER.SOLV>
16.4071

>  <SCORE.INTER.VDW>
-15.4553

>  <SCORE.INTER.norm>
0.0390583

>  <SCORE.INTRA>
-4.23466

>  <SCORE.INTRA.DIHEDRAL>
-14.7231

>  <SCORE.INTRA.DIHEDRAL.0>
36.0842

>  <SCORE.INTRA.POLAR>
0

>  <SCORE.INTRA.POLAR.0>
0

>  <SCORE.INTRA.REPUL>
0

>  <SCORE.INTRA.REPUL.0>
0

>  <SCORE.INTRA.SOLV>
2.87043

>  <SCORE.INTRA.SOLV.lig_0>
-126.444

>  <SCORE.INTRA.VDW>
1.69168

>  <SCORE.INTRA.VDW.0>
-7.40469

>  <SCORE.INTRA.norm>
-0.0864217

>  <SCORE.RESTR>
0.00954498

>  <SCORE.RESTR.CAVITY>
0.00954498

>  <SCORE.RESTR.norm>
0.000194796

>  <SCORE.SYSTEM>
0

>  <SCORE.SYSTEM.CONST>
0

>  <SCORE.SYSTEM.DIHEDRAL>
0

>  <SCORE.SYSTEM.SOLV>
0

>  <SCORE.SYSTEM.norm>
0

>  <SCORE.heavy>
49

>  <SCORE.norm>
-0.0471686

>  <RMSD>
8.684

$$$$
2bee_lig
 OpenBabel11021811423D
libRbt.so/2013.1/901 2013/11/27
 49 52  0  0  0  0  0  0  0  0999 V2000
   41.8243   -1.1040   -5.3486 C   0  0  2  0  0  0  0  0  0  0  0  0
   42.0645    0.1923   -5.8819 O   0  0  0  0  0  0  0  0  0  0  0  0
   45.8991    1.1772   -3.9584 C   0  0  2  0  0  0  0  0  0  0  0  0
   47.1752    1.8890   -3.6760 N   0  0  0  0  0  0  0  0  0  0  0  0
   42.0210    3.4599   -3.7568 C   0  0  1  0  0  0  0  0  0  0  0  0
   43.9856    6.1693   -6.8105 C   0  0  1  0  0  0  0  0  0  0  0  0
   38.6217    8.2609    0.7858 C   0  0  0  0  0  0  0  0  0  0  0  0
   40.5291   -1.7311   -5.9953 C   0  0  2  0  0  0  0  0  0  0  0  0
   40.6440   -1.7265   -7.4498 N   0  0  0  0  0  0  0  0  0  0  0  0
   45.8785    0.7148   -5.4860 C   0  0  0  0  0  0  0  0  0  0  0  0
   42.5069    4.8123   -3.3477 C   0  0  2  0  0  0  0  0  0  0  0  0
   41.6303    5.4625   -2.3582 O   0  0  0  0  0  0  0  0  0  0  0  0
   45.4485    6.8621   -6.7049 C   0  0  2  0  0  0  0  0  0  0  0  0
   45.2652    8.2644   -6.2021 N   0  0  0  0  0  0  0  0  0  0  0  0
   39.5317    8.1102    1.8582 C   0  0  0  0  0  0  0  0  0  0  0  0
   40.6045    7.2294    1.7398 N   0  0  0  0  0  0  0  0  0  0  0  0
   39.2513   -0.9189   -5.5060 C   0  0  1  0  0  0  0  0  0  0  0  0
   38.0906   -1.4933   -6.0891 O   0  0  0  0  0  0  0  0  0  0  0  0
   44.4840   -0.0609   -5.8400 C   0  0  2  0  0  0  0  0  0  0  0  0
   44.4599   -0.4855   -7.1985 N   0  0  0  0  0  0  0  0  0  0  0  0
   42.6781    5.3639   -4.7425 C   0  0  2  0  0  0  0  0  0  0  0  0
   43.4316    6.2525   -5.4756 O   0  0  0  0  0  0  0  0  0  0  0  0
   46.1014    6.8638   -8.1332 C   0  0  1  0  0  0  0  0  0  0  0  0
   46.2599    5.4613   -8.5449 O   0  0  0  0  0  0  0  0  0  0  0  0
   39.1838   -0.9657   -3.9618 C   0  0  2  0  0  0  0  0  0  0  0  0
   38.0109   -0.2045   -3.4608 O   0  0  0  0  0  0  0  0  0  0  0  0
   43.2563    0.8907   -5.5600 C   0  0  2  0  0  0  0  0  0  0  0  0
   41.4485    4.7020   -5.5408 C   0  0  2  0  0  0  0  0  0  0  0  0
   41.4151    3.4532   -5.0179 O   0  0  0  0  0  0  0  0  0  0  0  0
   45.1376    7.6866   -9.1615 C   0  0  2  0  0  0  0  0  0  0  0  0
   44.9835    9.0959   -8.7355 O   0  0  0  0  0  0  0  0  0  0  0  0
   40.4761   -0.3464   -3.3324 C   0  0  2  0  0  0  0  0  0  0  0  0
   41.5732   -1.1282   -3.8706 O   0  0  0  0  0  0  0  0  0  0  0  0
   43.3254    1.3165   -4.0545 C   0  0  2  0  0  0  0  0  0  0  0  0
   42.1876    2.1318   -3.9114 O   0  0  0  0  0  0  0  0  0  0  0  0
   41.5898    4.5245   -7.0978 C   0  0  0  0  0  0  0  0  0  0  0  0
   40.4877    3.7013   -7.5951 O   0  0  0  0  0  0  0  0  0  0  0  0
   43.6936    7.0146   -9.2143 C   0  0  1  0  0  0  0  0  0  0  0  0
   43.1589    7.0055   -7.7974 O   0  0  0  0  0  0  0  0  0  0  0  0
   40.3352   -0.4547   -1.8681 C   0  0  0  0  0  0  0  0  0  0  0  0
   41.4558   -0.0456   -1.2581 O   0  0  0  0  0  0  0  0  0  0  0  0
   44.6748    2.0954   -3.7465 C   0  0  1  0  0  0  0  0  0  0  0  0
   44.7286    2.4615   -2.4014 O   0  0  0  0  0  0  0  0  0  0  0  0
   40.7334    6.5963   -2.6355 C   0  0  0  0  0  0  0  0  0  0  0  0
   42.8586    7.8932  -10.2062 C   0  0  0  0  0  0  0  0  0  0  0  0
   43.6297    8.3651  -11.3204 N   0  0  0  0  0  0  0  0  0  0  0  0
   40.1091    7.0779   -1.3251 C   0  0  0  0  0  0  0  0  0  0  0  0
   39.4907    8.3884   -1.6049 N   0  0  0  0  0  0  0  0  0  0  0  0
   39.0203    9.2329   -0.4188 C   0  0  0  0  0  0  0  0  0  0  0  0
  1  2  1  6  0  0  0
  1  8  1  0  0  0  0
  1 33  1  0  0  0  0
  3  4  1  6  0  0  0
  3 10  1  0  0  0  0
  3 42  1  0  0  0  0
  5 11  1  0  0  0  0
  5 29  1  0  0  0  0
  5 35  1  6  0  0  0
  6 13  1  0  0  0  0
  6 39  1  0  0  0  0
  6 22  1  1  0  0  0
  7 15  1  0  0  0  0
  8  9  1  6  0  0  0
  8 17  1  0  0  0  0
 10 19  1  0  0  0  0
 11 12  1  1  0  0  0
 11 21  1  0  0  0  0
 12 44  1  0  0  0  0
 13 14  1  6  0  0  0
 13 23  1  0  0  0  0
 15 16  1  0  0  0  0
 17 18  1  6  0  0  0
 17 25  1  0  0  0  0
 19 20  1  6  0  0  0
 19 27  1  0  0  0  0
 21 22  1  1  0  0  0
 21 28  1  0  0  0  0
 23 24  1  6  0  0  0
 23 30  1  0  0  0  0
 25 26  1  1  0  0  0
 25 32  1  0  0  0  0
 27  2  1  1  0  0  0
 27 34  1  0  0  0  0
 28 29  1  0  0  0  0
 28 36  1  6  0  0  0
 30 31  1  1  0  0  0
 30 38  1  0  0  0  0
 32 33  1  0  0  0  0
 32 40  1  1  0  0  0
 34 35  1  6  0  0  0
 34 42  1  0  0  0  0
 36 37  1  0  0  0  0
 38 39  1  0  0  0  0
 38 45  1  6  0  0  0
 40 41  1  0  0  0  0
 42 43  1  1  0  0  0
 44 47  1  0  0  0  0
 45 46  1  0  0  0  0
 47 48  1  0  0  0  0
 48 49  1  0  0  0  0
 49  7  1  0  0  0  0
M  END
>  <CHROM.1>
-172.97345144,-23.57641684,-141.05591990,-81.80828169,-107.22429469,-173.94801363
139.77072393,51.29896494,170.02395405,174.83033267,-108.22258956,37.47279016
166.74886687,-168.56816981,-28.61585127,102.24370822,42.32788278,3.66164658
-4.87613511,-2.14405958,1.00133423,0.19846494

>  <Name>
2bee_lig

>  <RI>
3.71943e+07

>  <Rbt.Current_Directory>
/home/itssahil/PROJECTS/Mol_Feturizer/New_Systems/rnas/2bee

>  <Rbt.Executable>
rbdock ($Id: //depot/dev/client3/rdock/2013.1/src/exe/rbdock.cxx#4 $)

>  <Rbt.Library>
libRbt.so (2013.1, Build901 2013/11/27)

>  <Rbt.Parameter_File>
/export/apps/rDock/src/rDock_2013.1_src/data/scripts/dock_solv.prm

>  <Rbt.Receptor>
prm/pocket_docking_2.prm

>  <SCORE>
23.505

>  <SCORE.INTER>
7.57386

>  <SCORE.INTER.CONST>
1

>  <SCORE.INTER.POLAR>
-0.557082

>  <SCORE.INTER.ROT>
16

>  <SCORE.INTER.SOLV>
17.594

>  <SCORE.INTER.VDW>
-13.2252

>  <SCORE.INTER.norm>
0.154569

>  <SCORE.INTRA>
4.927

>  <SCORE.INTRA.DIHEDRAL>
-0.0346279

>  <SCORE.INTRA.DIHEDRAL.0>
36.0842

>  <SCORE.INTRA.POLAR>
0

>  <SCORE.INTRA.POLAR.0>
0

>  <SCORE.INTRA.REPUL>
0

>  <SCORE.INTRA.REPUL.0>
0

>  <SCORE.INTRA.SOLV>
-0.0192593

>  <SCORE.INTRA.SOLV.lig_0>
-126.444

>  <SCORE.INTRA.VDW>
4.95394

>  <SCORE.INTRA.VDW.0>
-7.40469

>  <SCORE.INTRA.norm>
0.100551

>  <SCORE.RESTR>
11.0042

>  <SCORE.RESTR.CAVITY>
11.0042

>  <SCORE.RESTR.norm>
0.224575

>  <SCORE.SYSTEM>
0

>  <SCORE.SYSTEM.CONST>
0

>  <SCORE.SYSTEM.DIHEDRAL>
0

>  <SCORE.SYSTEM.SOLV>
0

>  <SCORE.SYSTEM.norm>
0

>  <SCORE.heavy>
49

>  <SCORE.norm>
0.479695

>  <RMSD>
8.710

$$$$
2bee_lig
 OpenBabel11021811423D
libRbt.so/2013.1/901 2013/11/27
 49 52  0  0  0  0  0  0  0  0999 V2000
   44.2711    6.1350   -0.9118 C   0  0  2  0  0  0  0  0  0  0  0  0
   43.3666    5.8443   -1.9699 O   0  0  0  0  0  0  0  0  0  0  0  0
   43.4040    6.0729   -6.3654 C   0  0  2  0  0  0  0  0  0  0  0  0
   43.9248    6.0380   -7.7591 N   0  0  0  0  0  0  0  0  0  0  0  0
   42.5342    2.3510   -3.5907 C   0  0  1  0  0  0  0  0  0  0  0  0
   43.1394   -1.9319   -5.6935 C   0  0  1  0  0  0  0  0  0  0  0  0
   39.0141   -0.3835    0.9510 C   0  0  0  0  0  0  0  0  0  0  0  0
   43.6127    5.7947    0.4810 C   0  0  2  0  0  0  0  0  0  0  0  0
   43.1512    4.4107    0.4910 N   0  0  0  0  0  0  0  0  0  0  0  0
   44.2446    7.1289   -5.5132 C   0  0  0  0  0  0  0  0  0  0  0  0
   41.6700    1.3650   -4.3074 C   0  0  2  0  0  0  0  0  0  0  0  0
   40.5158    0.9234   -3.5055 O   0  0  0  0  0  0  0  0  0  0  0  0
   43.5685   -2.3336   -7.2053 C   0  0  2  0  0  0  0  0  0  0  0  0
   42.5898   -1.7011   -8.1515 N   0  0  0  0  0  0  0  0  0  0  0  0
   37.8968   -0.3514    1.8179 C   0  0  0  0  0  0  0  0  0  0  0  0
   36.8947   -1.3113    1.6947 N   0  0  0  0  0  0  0  0  0  0  0  0
   42.4214    6.8116    0.7616 C   0  0  1  0  0  0  0  0  0  0  0  0
   41.8383    6.5006    2.0187 O   0  0  0  0  0  0  0  0  0  0  0  0
   43.7107    7.1871   -3.9695 C   0  0  2  0  0  0  0  0  0  0  0  0
   44.4485    8.1331   -3.2033 N   0  0  0  0  0  0  0  0  0  0  0  0
   42.7772    0.4159   -4.6975 C   0  0  2  0  0  0  0  0  0  0  0  0
   43.1450   -0.4843   -5.6718 O   0  0  0  0  0  0  0  0  0  0  0  0
   43.5336   -3.8984   -7.3322 C   0  0  1  0  0  0  0  0  0  0  0  0
   44.5249   -4.4374   -6.3896 O   0  0  0  0  0  0  0  0  0  0  0  0
   42.9746    8.2555    0.7428 C   0  0  2  0  0  0  0  0  0  0  0  0
   41.8897    9.2403    0.9858 O   0  0  0  0  0  0  0  0  0  0  0  0
   43.8309    5.7594   -3.3074 C   0  0  2  0  0  0  0  0  0  0  0  0
   43.7612    0.4746   -3.4264 C   0  0  2  0  0  0  0  0  0  0  0  0
   43.7165    1.7878   -3.0983 O   0  0  0  0  0  0  0  0  0  0  0  0
   42.0288   -4.4298   -6.9907 C   0  0  2  0  0  0  0  0  0  0  0  0
   41.0397   -3.8789   -7.9443 O   0  0  0  0  0  0  0  0  0  0  0  0
   43.6302    8.5789   -0.6412 C   0  0  2  0  0  0  0  0  0  0  0  0
   44.6660    7.5782   -0.8143 O   0  0  0  0  0  0  0  0  0  0  0  0
   42.9944    4.7644   -4.1808 C   0  0  2  0  0  0  0  0  0  0  0  0
   43.1505    3.5453   -3.4955 O   0  0  0  0  0  0  0  0  0  0  0  0
   45.2793    0.1279   -3.6520 C   0  0  0  0  0  0  0  0  0  0  0  0
   45.9877    0.1923   -2.3739 O   0  0  0  0  0  0  0  0  0  0  0  0
   41.6123   -3.9850   -5.5184 C   0  0  1  0  0  0  0  0  0  0  0  0
   41.7218   -2.4754   -5.4657 O   0  0  0  0  0  0  0  0  0  0  0  0
   44.1476    9.9578   -0.5598 C   0  0  0  0  0  0  0  0  0  0  0  0
   43.3233   10.8055   -1.1901 O   0  0  0  0  0  0  0  0  0  0  0  0
   43.5547    4.7037   -5.6657 C   0  0  1  0  0  0  0  0  0  0  0  0
   42.7965    3.8213   -6.4356 O   0  0  0  0  0  0  0  0  0  0  0  0
   40.5990    0.2478   -2.2002 C   0  0  0  0  0  0  0  0  0  0  0  0
   40.1574   -4.5271   -5.3126 C   0  0  0  0  0  0  0  0  0  0  0  0
   39.6166   -4.2027   -4.0239 N   0  0  0  0  0  0  0  0  0  0  0  0
   41.2372    1.1941   -1.1822 C   0  0  0  0  0  0  0  0  0  0  0  0
   41.2576    0.4790    0.1086 N   0  0  0  0  0  0  0  0  0  0  0  0
   40.1279    0.7527    1.1037 C   0  0  0  0  0  0  0  0  0  0  0  0
  1  2  1  6  0  0  0
  1  8  1  0  0  0  0
  1 33  1  0  0  0  0
  3  4  1  6  0  0  0
  3 10  1  0  0  0  0
  3 42  1  0  0  0  0
  5 11  1  0  0  0  0
  5 29  1  0  0  0  0
  5 35  1  6  0  0  0
  6 13  1  0  0  0  0
  6 39  1  0  0  0  0
  6 22  1  6  0  0  0
  7 15  1  0  0  0  0
  8  9  1  6  0  0  0
  8 17  1  0  0  0  0
 10 19  1  0  0  0  0
 11 12  1  1  0  0  0
 11 21  1  0  0  0  0
 12 44  1  0  0  0  0
 13 14  1  6  0  0  0
 13 23  1  0  0  0  0
 15 16  1  0  0  0  0
 17 18  1  1  0  0  0
 17 25  1  0  0  0  0
 19 20  1  1  0  0  0
 19 27  1  0  0  0  0
 21 22  1  1  0  0  0
 21 28  1  0  0  0  0
 23 24  1  1  0  0  0
 23 30  1  0  0  0  0
 25 26  1  6  0  0  0
 25 32  1  0  0  0  0
 27  2  1  1  0  0  0
 27 34  1  0  0  0  0
 28 29  1  0  0  0  0
 28 36  1  6  0  0  0
 30 31  1  6  0  0  0
 30 38  1  0  0  0  0
 32 33  1  0  0  0  0
 32 40  1  1  0  0  0
 34 35  1  1  0  0  0
 34 42  1  0  0  0  0
 36 37  1  0  0  0  0
 38 39  1  0  0  0  0
 38 45  1  6  0  0  0
 40 41  1  0  0  0  0
 42 43  1  6  0  0  0
 44 47  1  0  0  0  0
 45 46  1  0  0  0  0
 47 48  1  0  0  0  0
 48 49  1  0  0  0  0
 49  7  1  0  0  0  0
M  END
>  <CHROM.1>
-164.75275863,15.93389218,174.83517286,178.75201789,-59.70961495,63.85870704
-103.29852168,-91.09482709,-177.98099808,-102.05566872,167.92344371,-179.58303190
178.40229029,-96.76870964,96.73244526,177.62352863,42.55885550,2.39479745
-3.10012258,-1.32954578,-1.03360665,-2.53591546

>  <Name>
2bee_lig

>  <RI>
0

>  <Rbt.Current_Directory>
/home/itssahil/PROJECTS/Mol_Feturizer/New_Systems/rnas/2bee

>  <Rbt.Executable>
rbdock ($Id: //depot/dev/client3/rdock/2013.1/src/exe/rbdock.cxx#4 $)

>  <Rbt.Library>
libRbt.so (2013.1, Build901 2013/11/27)

>  <Rbt.Parameter_File>
/export/apps/rDock/src/rDock_2013.1_src/data/scripts/dock_solv.prm

>  <Rbt.Receptor>
prm/pocket_docking_7.prm

>  <SCORE>
-14.1609

>  <SCORE.INTER>
-8.61595

>  <SCORE.INTER.CONST>
1

>  <SCORE.INTER.POLAR>
-2.22372

>  <SCORE.INTER.ROT>
16

>  <SCORE.INTER.SOLV>
13.4161

>  <SCORE.INTER.VDW>
-17.0702

>  <SCORE.INTER.norm>
-0.175836

>  <SCORE.INTRA>
-5.54498

>  <SCORE.INTRA.DIHEDRAL>
-15.8067

>  <SCORE.INTRA.DIHEDRAL.0>
36.0842

>  <SCORE.INTRA.POLAR>
0

>  <SCORE.INTRA.POLAR.0>
0

>  <SCORE.INTRA.REPUL>
0

>  <SCORE.INTRA.REPUL.0>
0

>  <SCORE.INTRA.SOLV>
-0.753824

>  <SCORE.INTRA.SOLV.lig_0>
-126.444

>  <SCORE.INTRA.VDW>
2.7353

>  <SCORE.INTRA.VDW.0>
-7.40469

>  <SCORE.INTRA.norm>
-0.113163

>  <SCORE.RESTR>
0

>  <SCORE.RESTR.CAVITY>
0

>  <SCORE.RESTR.norm>
0

>  <SCORE.SYSTEM>
0

>  <SCORE.SYSTEM.CONST>
0

>  <SCORE.SYSTEM.DIHEDRAL>
0

>  <SCORE.SYSTEM.SOLV>
0

>  <SCORE.SYSTEM.norm>
0

>  <SCORE.heavy>
49

>  <SCORE.norm>
-0.288999

>  <RMSD>
8.712

$$$$
2bee_lig
 OpenBabel11021811423D
libRbt.so/2013.1/901 2013/11/27
 49 52  0  0  0  0  0  0  0  0999 V2000
   42.2341    1.2145   -0.5210 C   0  0  2  0  0  0  0  0  0  0  0  0
   41.6518    2.3875   -1.0752 O   0  0  0  0  0  0  0  0  0  0  0  0
   39.6595    5.9232    0.6288 C   0  0  2  0  0  0  0  0  0  0  0  0
   39.3991    7.0771    1.5318 N   0  0  0  0  0  0  0  0  0  0  0  0
   43.3442    5.9463   -1.9766 C   0  0  1  0  0  0  0  0  0  0  0  0
   43.0471   10.2393   -0.4333 C   0  0  1  0  0  0  0  0  0  0  0  0
   43.9117    7.6647   -8.6064 C   0  0  0  0  0  0  0  0  0  0  0  0
   43.7815    1.4245   -0.2963 C   0  0  2  0  0  0  0  0  0  0  0  0
   44.0119    2.6132    0.5176 N   0  0  0  0  0  0  0  0  0  0  0  0
   39.7766    4.5887    1.4967 C   0  0  0  0  0  0  0  0  0  0  0  0
   43.6681    7.3431   -2.3970 C   0  0  2  0  0  0  0  0  0  0  0  0
   44.6933    7.4019   -3.4533 O   0  0  0  0  0  0  0  0  0  0  0  0
   43.8622   11.3979    0.3568 C   0  0  2  0  0  0  0  0  0  0  0  0
   44.0218   10.9645    1.7850 N   0  0  0  0  0  0  0  0  0  0  0  0
   43.7614    6.5120   -9.4123 C   0  0  0  0  0  0  0  0  0  0  0  0
   42.5890    6.3218  -10.1402 N   0  0  0  0  0  0  0  0  0  0  0  0
   44.5078    1.5313   -1.7081 C   0  0  1  0  0  0  0  0  0  0  0  0
   45.9000    1.7153   -1.4960 O   0  0  0  0  0  0  0  0  0  0  0  0
   40.0765    3.2975    0.5404 C   0  0  2  0  0  0  0  0  0  0  0  0
   40.1737    2.1005    1.3046 N   0  0  0  0  0  0  0  0  0  0  0  0
   43.9216    7.8864   -1.0116 C   0  0  2  0  0  0  0  0  0  0  0  0
   43.8382    9.0388   -0.2633 O   0  0  0  0  0  0  0  0  0  0  0  0
   43.0389   12.7323    0.2689 C   0  0  1  0  0  0  0  0  0  0  0  0
   42.9410   13.0947   -1.1527 O   0  0  0  0  0  0  0  0  0  0  0  0
   44.2302    0.2434   -2.5179 C   0  0  2  0  0  0  0  0  0  0  0  0
   44.8789    0.3081   -3.8524 O   0  0  0  0  0  0  0  0  0  0  0  0
   41.4169    3.5252   -0.2612 C   0  0  2  0  0  0  0  0  0  0  0  0
   44.6228    6.6460   -0.2652 C   0  0  2  0  0  0  0  0  0  0  0  0
   43.9225    5.5941   -0.7523 O   0  0  0  0  0  0  0  0  0  0  0  0
   41.5662   12.4974    0.9318 C   0  0  2  0  0  0  0  0  0  0  0  0
   41.6775   12.1308    2.3617 O   0  0  0  0  0  0  0  0  0  0  0  0
   42.6923    0.0432   -2.7288 C   0  0  2  0  0  0  0  0  0  0  0  0
   42.1279   -0.0005   -1.3932 O   0  0  0  0  0  0  0  0  0  0  0  0
   41.2509    4.8436   -1.0900 C   0  0  2  0  0  0  0  0  0  0  0  0
   42.4771    4.9351   -1.7739 O   0  0  0  0  0  0  0  0  0  0  0  0
   44.5057    6.5660    1.3018 C   0  0  0  0  0  0  0  0  0  0  0  0
   43.0965    6.4605    1.6791 O   0  0  0  0  0  0  0  0  0  0  0  0
   40.8030   11.3253    0.1683 C   0  0  1  0  0  0  0  0  0  0  0  0
   41.6826   10.0956    0.2554 O   0  0  0  0  0  0  0  0  0  0  0  0
   42.5222   -1.2123   -3.4841 C   0  0  0  0  0  0  0  0  0  0  0  0
   41.2220   -1.4642   -3.6874 O   0  0  0  0  0  0  0  0  0  0  0  0
   40.9929    6.0856   -0.1344 C   0  0  1  0  0  0  0  0  0  0  0  0
   40.8380    7.2518   -0.8842 O   0  0  0  0  0  0  0  0  0  0  0  0
   44.5632    6.8102   -4.7950 C   0  0  0  0  0  0  0  0  0  0  0  0
   39.4251   11.1776    0.8981 C   0  0  0  0  0  0  0  0  0  0  0  0
   38.5742   10.1935    0.2929 N   0  0  0  0  0  0  0  0  0  0  0  0
   45.8900    6.9559   -5.5414 C   0  0  0  0  0  0  0  0  0  0  0  0
   45.6062    6.7012   -6.9671 N   0  0  0  0  0  0  0  0  0  0  0  0
   45.3107    7.9006   -7.8701 C   0  0  0  0  0  0  0  0  0  0  0  0
  1  2  1  6  0  0  0
  1  8  1  0  0  0  0
  1 33  1  0  0  0  0
  3  4  1  1  0  0  0
  3 10  1  0  0  0  0
  3 42  1  0  0  0  0
  5 11  1  0  0  0  0
  5 29  1  0  0  0  0
  5 35  1  1  0  0  0
  6 13  1  0  0  0  0
  6 39  1  0  0  0  0
  6 22  1  1  0  0  0
  7 15  1  0  0  0  0
  8  9  1  1  0  0  0
  8 17  1  0  0  0  0
 10 19  1  0  0  0  0
 11 12  1  6  0  0  0
 11 21  1  0  0  0  0
 12 44  1  0  0  0  0
 13 14  1  1  0  0  0
 13 23  1  0  0  0  0
 15 16  1  0  0  0  0
 17 18  1  1  0  0  0
 17 25  1  0  0  0  0
 19 20  1  1  0  0  0
 19 27  1  0  0  0  0
 21 22  1  6  0  0  0
 21 28  1  0  0  0  0
 23 24  1  6  0  0  0
 23 30  1  0  0  0  0
 25 26  1  6  0  0  0
 25 32  1  0  0  0  0
 27  2  1  6  0  0  0
 27 34  1  0  0  0  0
 28 29  1  0  0  0  0
 28 36  1  1  0  0  0
 30 31  1  1  0  0  0
 30 38  1  0  0  0  0
 32 33  1  0  0  0  0
 32 40  1  1  0  0  0
 34 35  1  1  0  0  0
 34 42  1  0  0  0  0
 36 37  1  0  0  0  0
 38 39  1  0  0  0  0
 38 45  1  1  0  0  0
 40 41  1  0  0  0  0
 42 43  1  6  0  0  0
 44 47  1  0  0  0  0
 45 46  1  0  0  0  0
 47 48  1  0  0  0  0
 48 49  1  0  0  0  0
 49  7  1  0  0  0  0
M  END
>  <CHROM.1>
-75.56583591,-50.73903816,-155.91457618,-175.64406122,61.17428238,-174.02699997
22.02679746,-80.91624942,61.26570860,179.05475718,-133.78893714,177.29971506
-164.65701546,94.01631284,-125.60181592,-58.32413884,42.74115499,6.02629764
-1.55038988,1.28978594,-1.18784546,-3.08665822

>  <Name>
2bee_lig

>  <RI>
0

>  <Rbt.Current_Directory>
/home/itssahil/PROJECTS/Mol_Feturizer/New_Systems/rnas/2bee

>  <Rbt.Executable>
rbdock ($Id: //depot/dev/client3/rdock/2013.1/src/exe/rbdock.cxx#4 $)

>  <Rbt.Library>
libRbt.so (2013.1, Build901 2013/11/27)

>  <Rbt.Parameter_File>
/export/apps/rDock/src/rDock_2013.1_src/data/scripts/dock_solv.prm

>  <Rbt.Receptor>
prm/pocket_docking_8.prm

>  <SCORE>
-21.192

>  <SCORE.INTER>
-15.742

>  <SCORE.INTER.CONST>
1

>  <SCORE.INTER.POLAR>
-1.41417

>  <SCORE.INTER.ROT>
16

>  <SCORE.INTER.SOLV>
23.5159

>  <SCORE.INTER.VDW>
-27.8861

>  <SCORE.INTER.norm>
-0.321266

>  <SCORE.INTRA>
-5.45002

>  <SCORE.INTRA.DIHEDRAL>
-16.4558

>  <SCORE.INTRA.DIHEDRAL.0>
36.0842

>  <SCORE.INTRA.POLAR>
0

>  <SCORE.INTRA.POLAR.0>
0

>  <SCORE.INTRA.REPUL>
0.0794848

>  <SCORE.INTRA.REPUL.0>
0

>  <SCORE.INTRA.SOLV>
4.13613

>  <SCORE.INTRA.SOLV.lig_0>
-126.444

>  <SCORE.INTRA.VDW>
0.31241

>  <SCORE.INTRA.VDW.0>
-7.40469

>  <SCORE.INTRA.norm>
-0.111225

>  <SCORE.RESTR>
0

>  <SCORE.RESTR.CAVITY>
0

>  <SCORE.RESTR.norm>
0

>  <SCORE.SYSTEM>
0

>  <SCORE.SYSTEM.CONST>
0

>  <SCORE.SYSTEM.DIHEDRAL>
0

>  <SCORE.SYSTEM.SOLV>
0

>  <SCORE.SYSTEM.norm>
0

>  <SCORE.heavy>
49

>  <SCORE.norm>
-0.432491

>  <RMSD>
8.723

$$$$
2bee_lig
 OpenBabel11021811423D
libRbt.so/2013.1/901 2013/11/27
 49 52  0  0  0  0  0  0  0  0999 V2000
   44.1288    1.3159   -5.2076 C   0  0  2  0  0  0  0  0  0  0  0  0
   44.7164    2.5896   -5.4414 O   0  0  0  0  0  0  0  0  0  0  0  0
   48.2974    3.7285   -7.7335 C   0  0  2  0  0  0  0  0  0  0  0  0
   49.2292    3.8697   -8.8853 N   0  0  0  0  0  0  0  0  0  0  0  0
   44.3160    6.1816   -6.9296 C   0  0  1  0  0  0  0  0  0  0  0  0
   45.3200    9.2738  -10.0844 C   0  0  1  0  0  0  0  0  0  0  0  0
   39.6508    7.8390   -2.0102 C   0  0  0  0  0  0  0  0  0  0  0  0
   42.7147    1.4812   -4.5280 C   0  0  2  0  0  0  0  0  0  0  0  0
   41.8716    2.3573   -5.3345 N   0  0  0  0  0  0  0  0  0  0  0  0
   47.9602    2.1840   -7.5125 C   0  0  0  0  0  0  0  0  0  0  0  0
   44.5727    7.6532   -6.9673 C   0  0  2  0  0  0  0  0  0  0  0  0
   44.0483    8.3580   -5.7847 O   0  0  0  0  0  0  0  0  0  0  0  0
   45.9655   10.2551   -8.9657 C   0  0  2  0  0  0  0  0  0  0  0  0
   44.9244   11.2622   -8.5722 N   0  0  0  0  0  0  0  0  0  0  0  0
   38.6364    7.2856   -1.1944 C   0  0  0  0  0  0  0  0  0  0  0  0
   38.1079    8.0305   -0.1424 N   0  0  0  0  0  0  0  0  0  0  0  0
   42.9035    2.0457   -3.0523 C   0  0  1  0  0  0  0  0  0  0  0  0
   41.6264    2.1867   -2.4472 O   0  0  0  0  0  0  0  0  0  0  0  0
   46.9265    1.9876   -6.2617 C   0  0  2  0  0  0  0  0  0  0  0  0
   46.6266    0.6121   -6.0509 N   0  0  0  0  0  0  0  0  0  0  0  0
   44.0121    7.8913   -8.3485 C   0  0  2  0  0  0  0  0  0  0  0  0
   44.1498    8.7007   -9.4534 O   0  0  0  0  0  0  0  0  0  0  0  0
   47.2185   10.9653   -9.5916 C   0  0  1  0  0  0  0  0  0  0  0  0
   48.1914    9.9176   -9.9341 O   0  0  0  0  0  0  0  0  0  0  0  0
   43.7990    1.0731   -2.2501 C   0  0  2  0  0  0  0  0  0  0  0  0
   44.0142    1.5714   -0.8675 O   0  0  0  0  0  0  0  0  0  0  0  0
   45.5927    2.7845   -6.5396 C   0  0  2  0  0  0  0  0  0  0  0  0
   42.7710    6.8698   -8.4104 C   0  0  2  0  0  0  0  0  0  0  0  0
   43.2683    5.7861   -7.7682 O   0  0  0  0  0  0  0  0  0  0  0  0
   46.7535   11.8075  -10.9100 C   0  0  2  0  0  0  0  0  0  0  0  0
   45.7726   12.8572  -10.5533 O   0  0  0  0  0  0  0  0  0  0  0  0
   45.1961    0.9129   -2.9371 C   0  0  2  0  0  0  0  0  0  0  0  0
   44.9085    0.4363   -4.2767 O   0  0  0  0  0  0  0  0  0  0  0  0
   45.9787    4.2874   -6.7518 C   0  0  2  0  0  0  0  0  0  0  0  0
   44.7300    4.8999   -6.9651 O   0  0  0  0  0  0  0  0  0  0  0  0
   42.2996    6.3665   -9.8246 C   0  0  0  0  0  0  0  0  0  0  0  0
   43.3909    5.6367  -10.4694 O   0  0  0  0  0  0  0  0  0  0  0  0
   46.0822   10.8304  -11.9748 C   0  0  1  0  0  0  0  0  0  0  0  0
   44.9211   10.1506  -11.2797 O   0  0  0  0  0  0  0  0  0  0  0  0
   45.9685   -0.0436   -2.1221 C   0  0  0  0  0  0  0  0  0  0  0  0
   47.2460   -0.0775   -2.5248 O   0  0  0  0  0  0  0  0  0  0  0  0
   46.9571    4.4522   -7.9919 C   0  0  1  0  0  0  0  0  0  0  0  0
   47.3005    5.7932   -8.1652 O   0  0  0  0  0  0  0  0  0  0  0  0
   43.7582    7.7324   -4.4842 C   0  0  0  0  0  0  0  0  0  0  0  0
   45.6612   11.7444  -13.1751 C   0  0  0  0  0  0  0  0  0  0  0  0
   44.5147   12.5566  -12.8844 N   0  0  0  0  0  0  0  0  0  0  0  0
   42.4525    6.9424   -4.5845 C   0  0  0  0  0  0  0  0  0  0  0  0
   41.4408    7.6937   -3.8162 N   0  0  0  0  0  0  0  0  0  0  0  0
   40.3374    6.9036   -3.1095 C   0  0  0  0  0  0  0  0  0  0  0  0
  1  2  1  1  0  0  0
  1  8  1  0  0  0  0
  1 33  1  0  0  0  0
  3  4  1  6  0  0  0
  3 10  1  0  0  0  0
  3 42  1  0  0  0  0
  5 11  1  0  0  0  0
  5 29  1  0  0  0  0
  5 35  1  6  0  0  0
  6 13  1  0  0  0  0
  6 39  1  0  0  0  0
  6 22  1  1  0  0  0
  7 15  1  0  0  0  0
  8  9  1  6  0  0  0
  8 17  1  0  0  0  0
 10 19  1  0  0  0  0
 11 12  1  1  0  0  0
 11 21  1  0  0  0  0
 12 44  1  0  0  0  0
 13 14  1  6  0  0  0
 13 23  1  0  0  0  0
 15 16  1  0  0  0  0
 17 18  1  1  0  0  0
 17 25  1  0  0  0  0
 19 20  1  6  0  0  0
 19 27  1  0  0  0  0
 21 22  1  1  0  0  0
 21 28  1  0  0  0  0
 23 24  1  6  0  0  0
 23 30  1  0  0  0  0
 25 26  1  1  0  0  0
 25 32  1  0  0  0  0
 27  2  1  1  0  0  0
 27 34  1  0  0  0  0
 28 29  1  0  0  0  0
 28 36  1  6  0  0  0
 30 31  1  1  0  0  0
 30 38  1  0  0  0  0
 32 33  1  0  0  0  0
 32 40  1  1  0  0  0
 34 35  1  6  0  0  0
 34 42  1  0  0  0  0
 36 37  1  0  0  0  0
 38 39  1  0  0  0  0
 38 45  1  6  0  0  0
 40 41  1  0  0  0  0
 42 43  1  1  0  0  0
 44 47  1  0  0  0  0
 45 46  1  0  0  0  0
 47 48  1  0  0  0  0
 48 49  1  0  0  0  0
 49  7  1  0  0  0  0
M  END
>  <CHROM.1>
-149.52982193,19.36412245,-62.73927617,173.78914076,21.74936221,-76.06646605
37.68014747,-69.09264166,61.48731860,-170.41898375,163.55723644,-73.62775563
-108.28335318,-148.02002154,162.91095373,-177.29959039,44.50955701,5.87483107
-6.62915804,-1.77228968,0.70818056,-0.58627074

>  <Name>
2bee_lig

>  <RI>
3.46266e+07

>  <Rbt.Current_Directory>
/home/itssahil/PROJECTS/Mol_Feturizer/New_Systems/rnas/2bee

>  <Rbt.Executable>
rbdock ($Id: //depot/dev/client3/rdock/2013.1/src/exe/rbdock.cxx#4 $)

>  <Rbt.Library>
libRbt.so (2013.1, Build901 2013/11/27)

>  <Rbt.Parameter_File>
/export/apps/rDock/src/rDock_2013.1_src/data/scripts/dock_solv.prm

>  <Rbt.Receptor>
prm/pocket_docking_4.prm

>  <SCORE>
-10.5355

>  <SCORE.INTER>
-10.0241

>  <SCORE.INTER.CONST>
1

>  <SCORE.INTER.POLAR>
-0.425866

>  <SCORE.INTER.ROT>
16

>  <SCORE.INTER.SOLV>
20.298

>  <SCORE.INTER.VDW>
-26.2958

>  <SCORE.INTER.norm>
-0.204573

>  <SCORE.INTRA>
-0.511428

>  <SCORE.INTRA.DIHEDRAL>
-8.14915

>  <SCORE.INTRA.DIHEDRAL.0>
36.0842

>  <SCORE.INTRA.POLAR>
0

>  <SCORE.INTRA.POLAR.0>
0

>  <SCORE.INTRA.REPUL>
0.00291782

>  <SCORE.INTRA.REPUL.0>
0

>  <SCORE.INTRA.SOLV>
1.07401

>  <SCORE.INTRA.SOLV.lig_0>
-126.444

>  <SCORE.INTRA.VDW>
3.01155

>  <SCORE.INTRA.VDW.0>
-7.40469

>  <SCORE.INTRA.norm>
-0.0104373

>  <SCORE.RESTR>
0

>  <SCORE.RESTR.CAVITY>
0

>  <SCORE.RESTR.norm>
0

>  <SCORE.SYSTEM>
0

>  <SCORE.SYSTEM.CONST>
0

>  <SCORE.SYSTEM.DIHEDRAL>
0

>  <SCORE.SYSTEM.SOLV>
0

>  <SCORE.SYSTEM.norm>
0

>  <SCORE.heavy>
49

>  <SCORE.norm>
-0.215011

>  <RMSD>
8.724

$$$$
2bee_lig
 OpenBabel11021811423D
libRbt.so/2013.1/901 2013/11/27
 49 52  0  0  0  0  0  0  0  0999 V2000
   40.5421    1.5271   -5.6713 C   0  0  2  0  0  0  0  0  0  0  0  0
   40.2641    0.7084   -4.5423 O   0  0  0  0  0  0  0  0  0  0  0  0
   40.3581    1.8276   -0.2864 C   0  0  2  0  0  0  0  0  0  0  0  0
   40.9052    2.1280    1.0646 N   0  0  0  0  0  0  0  0  0  0  0  0
   41.1240    4.6249   -3.8138 C   0  0  1  0  0  0  0  0  0  0  0  0
   44.1408    6.9903   -6.3933 C   0  0  1  0  0  0  0  0  0  0  0  0
   43.1680    6.0720    1.7017 C   0  0  0  0  0  0  0  0  0  0  0  0
   39.9031    0.9028   -6.9716 C   0  0  2  0  0  0  0  0  0  0  0  0
   38.4758    0.6785   -6.7692 N   0  0  0  0  0  0  0  0  0  0  0  0
   40.8132    0.3625   -0.7272 C   0  0  0  0  0  0  0  0  0  0  0  0
   42.1186    5.7394   -3.7783 C   0  0  2  0  0  0  0  0  0  0  0  0
   41.8506    6.7143   -2.7067 O   0  0  0  0  0  0  0  0  0  0  0  0
   44.3631    7.3456   -7.9603 C   0  0  2  0  0  0  0  0  0  0  0  0
   43.9699    6.1452   -8.7711 N   0  0  0  0  0  0  0  0  0  0  0  0
   42.0074    6.8800    1.6740 C   0  0  0  0  0  0  0  0  0  0  0  0
   40.8083    6.3908    2.1875 N   0  0  0  0  0  0  0  0  0  0  0  0
   40.6627   -0.4475   -7.3343 C   0  0  1  0  0  0  0  0  0  0  0  0
   40.0841   -0.9994   -8.5080 O   0  0  0  0  0  0  0  0  0  0  0  0
   40.2422   -0.0008   -2.2150 C   0  0  2  0  0  0  0  0  0  0  0  0
   40.6354   -1.3096   -2.6135 N   0  0  0  0  0  0  0  0  0  0  0  0
   42.0130    6.1122   -5.2372 C   0  0  2  0  0  0  0  0  0  0  0  0
   42.7424    6.6324   -6.2824 O   0  0  0  0  0  0  0  0  0  0  0  0
   45.8784    7.6939   -8.1804 C   0  0  1  0  0  0  0  0  0  0  0  0
   46.1780    8.8825   -7.3685 O   0  0  0  0  0  0  0  0  0  0  0  0
   42.1647   -0.1426   -7.5406 C   0  0  2  0  0  0  0  0  0  0  0  0
   42.9156   -1.3818   -7.8666 O   0  0  0  0  0  0  0  0  0  0  0  0
   40.7710    1.0539   -3.2634 C   0  0  2  0  0  0  0  0  0  0  0  0
   40.4522    5.8826   -5.5516 C   0  0  2  0  0  0  0  0  0  0  0  0
   40.1864    4.7592   -4.8435 O   0  0  0  0  0  0  0  0  0  0  0  0
   46.7915    6.4166   -7.7352 C   0  0  2  0  0  0  0  0  0  0  0  0
   46.4794    5.2258   -8.5575 O   0  0  0  0  0  0  0  0  0  0  0  0
   42.7855    0.4815   -6.2464 C   0  0  2  0  0  0  0  0  0  0  0  0
   42.0010    1.6734   -5.9852 O   0  0  0  0  0  0  0  0  0  0  0  0
   40.3018    2.4690   -2.7840 C   0  0  2  0  0  0  0  0  0  0  0  0
   40.8006    3.3171   -3.7899 O   0  0  0  0  0  0  0  0  0  0  0  0
   40.0363    5.5759   -7.0377 C   0  0  0  0  0  0  0  0  0  0  0  0
   41.1682    5.8442   -7.9244 O   0  0  0  0  0  0  0  0  0  0  0  0
   46.5228    6.0583   -6.2060 C   0  0  1  0  0  0  0  0  0  0  0  0
   45.0389    5.7880   -6.0699 O   0  0  0  0  0  0  0  0  0  0  0  0
   44.2037    0.7597   -6.5414 C   0  0  0  0  0  0  0  0  0  0  0  0
   44.9888   -0.1770   -5.9923 O   0  0  0  0  0  0  0  0  0  0  0  0
   40.8969    2.8088   -1.3512 C   0  0  1  0  0  0  0  0  0  0  0  0
   40.4651    4.0672   -0.9315 O   0  0  0  0  0  0  0  0  0  0  0  0
   42.8710    7.3140   -1.8316 C   0  0  0  0  0  0  0  0  0  0  0  0
   47.4285    4.8173   -5.9010 C   0  0  0  0  0  0  0  0  0  0  0  0
   47.0513    4.1317   -4.6984 N   0  0  0  0  0  0  0  0  0  0  0  0
   43.5606    6.2091   -1.0299 C   0  0  0  0  0  0  0  0  0  0  0  0
   44.6217    6.8587   -0.2360 N   0  0  0  0  0  0  0  0  0  0  0  0
   44.5639    6.7316    1.2877 C   0  0  0  0  0  0  0  0  0  0  0  0
  1  2  1  1  0  0  0
  1  8  1  0  0  0  0
  1 33  1  0  0  0  0
  3  4  1  1  0  0  0
  3 10  1  0  0  0  0
  3 42  1  0  0  0  0
  5 11  1  0  0  0  0
  5 29  1  0  0  0  0
  5 35  1  6  0  0  0
  6 13  1  0  0  0  0
  6 39  1  0  0  0  0
  6 22  1  6  0  0  0
  7 15  1  0  0  0  0
  8  9  1  1  0  0  0
  8 17  1  0  0  0  0
 10 19  1  0  0  0  0
 11 12  1  1  0  0  0
 11 21  1  0  0  0  0
 12 44  1  0  0  0  0
 13 14  1  6  0  0  0
 13 23  1  0  0  0  0
 15 16  1  0  0  0  0
 17 18  1  6  0  0  0
 17 25  1  0  0  0  0
 19 20  1  6  0  0  0
 19 27  1  0  0  0  0
 21 22  1  1  0  0  0
 21 28  1  0  0  0  0
 23 24  1  1  0  0  0
 23 30  1  0  0  0  0
 25 26  1  1  0  0  0
 25 32  1  0  0  0  0
 27  2  1  6  0  0  0
 27 34  1  0  0  0  0
 28 29  1  0  0  0  0
 28 36  1  6  0  0  0
 30 31  1  6  0  0  0
 30 38  1  0  0  0  0
 32 33  1  0  0  0  0
 32 40  1  6  0  0  0
 34 35  1  6  0  0  0
 34 42  1  0  0  0  0
 36 37  1  0  0  0  0
 38 39  1  0  0  0  0
 38 45  1  6  0  0  0
 40 41  1  0  0  0  0
 42 43  1  1  0  0  0
 44 47  1  0  0  0  0
 45 46  1  0  0  0  0
 47 48  1  0  0  0  0
 48 49  1  0  0  0  0
 49  7  1  0  0  0  0
M  END
>  <CHROM.1>
178.31791877,101.00199604,172.35865914,-171.88007238,137.49029572,-61.45506458
5.50637162,177.45531175,-12.16599323,-102.28364074,-155.72647352,-163.75033250
176.68621201,120.53684723,-8.90120715,-76.75256644,42.50469984,3.84017865
-4.48579007,2.68836939,0.96485851,1.05290658

>  <Name>
2bee_lig

>  <RI>
3.46266e+07

>  <Rbt.Current_Directory>
/home/itssahil/PROJECTS/Mol_Feturizer/New_Systems/rnas/2bee

>  <Rbt.Executable>
rbdock ($Id: //depot/dev/client3/rdock/2013.1/src/exe/rbdock.cxx#4 $)

>  <Rbt.Library>
libRbt.so (2013.1, Build901 2013/11/27)

>  <Rbt.Parameter_File>
/export/apps/rDock/src/rDock_2013.1_src/data/scripts/dock_solv.prm

>  <Rbt.Receptor>
prm/pocket_docking_4.prm

>  <SCORE>
-1.02899

>  <SCORE.INTER>
-2.91377

>  <SCORE.INTER.CONST>
1

>  <SCORE.INTER.POLAR>
-0.936373

>  <SCORE.INTER.ROT>
16

>  <SCORE.INTER.SOLV>
11.0565

>  <SCORE.INTER.VDW>
-16.7734

>  <SCORE.INTER.norm>
-0.0594648

>  <SCORE.INTRA>
1.87322

>  <SCORE.INTRA.DIHEDRAL>
-6.35157

>  <SCORE.INTRA.DIHEDRAL.0>
36.0842

>  <SCORE.INTRA.POLAR>
0

>  <SCORE.INTRA.POLAR.0>
0

>  <SCORE.INTRA.REPUL>
0

>  <SCORE.INTRA.REPUL.0>
0

>  <SCORE.INTRA.SOLV>
-2.44209

>  <SCORE.INTRA.SOLV.lig_0>
-126.444

>  <SCORE.INTRA.VDW>
6.27005

>  <SCORE.INTRA.VDW.0>
-7.40469

>  <SCORE.INTRA.norm>
0.038229

>  <SCORE.RESTR>
0.0115656

>  <SCORE.RESTR.CAVITY>
0.0115656

>  <SCORE.RESTR.norm>
0.000236033

>  <SCORE.SYSTEM>
0

>  <SCORE.SYSTEM.CONST>
0

>  <SCORE.SYSTEM.DIHEDRAL>
0

>  <SCORE.SYSTEM.SOLV>
0

>  <SCORE.SYSTEM.norm>
0

>  <SCORE.heavy>
49

>  <SCORE.norm>
-0.0209997

>  <RMSD>
8.725

$$$$
2bee_lig
 OpenBabel11021811423D
libRbt.so/2013.1/901 2013/11/27
 49 52  0  0  0  0  0  0  0  0999 V2000
   42.2962   -2.6521   -5.6965 C   0  0  2  0  0  0  0  0  0  0  0  0
   42.4018   -1.2473   -5.8902 O   0  0  0  0  0  0  0  0  0  0  0  0
   46.2616   -0.4163   -3.9446 C   0  0  2  0  0  0  0  0  0  0  0  0
   47.4193    0.3554   -3.4162 N   0  0  0  0  0  0  0  0  0  0  0  0
   41.9713    0.6771   -2.8407 C   0  0  1  0  0  0  0  0  0  0  0  0
   43.4754    4.8470   -3.9237 C   0  0  1  0  0  0  0  0  0  0  0  0
   40.0280    5.5061    2.7501 C   0  0  0  0  0  0  0  0  0  0  0  0
   41.1684   -3.2498   -6.6237 C   0  0  2  0  0  0  0  0  0  0  0  0
   41.4182   -2.8843   -8.0139 N   0  0  0  0  0  0  0  0  0  0  0  0
   46.0743   -0.0924   -5.4963 C   0  0  0  0  0  0  0  0  0  0  0  0
   42.0848    2.0385   -2.2354 C   0  0  2  0  0  0  0  0  0  0  0  0
   41.1633    2.2428   -1.1044 O   0  0  0  0  0  0  0  0  0  0  0  0
   42.9140    6.3531   -4.1417 C   0  0  2  0  0  0  0  0  0  0  0  0
   42.3279    6.4373   -5.5210 N   0  0  0  0  0  0  0  0  0  0  0  0
   41.3671    5.9523    2.6590 C   0  0  0  0  0  0  0  0  0  0  0  0
   41.6516    7.3141    2.7312 N   0  0  0  0  0  0  0  0  0  0  0  0
   39.7491   -2.7295   -6.1270 C   0  0  1  0  0  0  0  0  0  0  0  0
   38.7405   -3.2762   -6.9642 O   0  0  0  0  0  0  0  0  0  0  0  0
   44.8015   -0.9124   -6.1120 C   0  0  2  0  0  0  0  0  0  0  0  0
   44.6317   -0.6370   -7.4983 N   0  0  0  0  0  0  0  0  0  0  0  0
   41.9465    2.8128   -3.5238 C   0  0  2  0  0  0  0  0  0  0  0  0
   42.3324    3.9841   -4.1355 O   0  0  0  0  0  0  0  0  0  0  0  0
   44.1112    7.3571   -3.9834 C   0  0  1  0  0  0  0  0  0  0  0  0
   44.6165    7.2243   -2.6091 O   0  0  0  0  0  0  0  0  0  0  0  0
   39.5434   -3.1517   -4.6536 C   0  0  2  0  0  0  0  0  0  0  0  0
   38.2336   -2.6713   -4.1441 O   0  0  0  0  0  0  0  0  0  0  0  0
   43.4865   -0.5254   -5.3296 C   0  0  2  0  0  0  0  0  0  0  0  0
   40.8858    1.9346   -4.3552 C   0  0  2  0  0  0  0  0  0  0  0  0
   41.2681    0.6717   -4.0502 O   0  0  0  0  0  0  0  0  0  0  0  0
   45.2612    6.9966   -5.0839 C   0  0  2  0  0  0  0  0  0  0  0  0
   44.7403    7.1312   -6.4630 O   0  0  0  0  0  0  0  0  0  0  0  0
   40.6712   -2.5578   -3.7453 C   0  0  2  0  0  0  0  0  0  0  0  0
   41.9127   -3.0577   -4.3048 O   0  0  0  0  0  0  0  0  0  0  0  0
   43.7238   -0.8586   -3.8179 C   0  0  2  0  0  0  0  0  0  0  0  0
   42.4979   -0.5015   -3.2267 O   0  0  0  0  0  0  0  0  0  0  0  0
   40.9131    2.0365   -5.9252 C   0  0  0  0  0  0  0  0  0  0  0  0
   42.2637    1.7488   -6.4074 O   0  0  0  0  0  0  0  0  0  0  0  0
   45.7647    5.4987   -4.8787 C   0  0  1  0  0  0  0  0  0  0  0  0
   44.5481    4.6042   -4.9947 O   0  0  0  0  0  0  0  0  0  0  0  0
   40.4094   -3.0286   -2.3721 C   0  0  0  0  0  0  0  0  0  0  0  0
   41.3299   -2.5444   -1.5274 O   0  0  0  0  0  0  0  0  0  0  0  0
   44.9447   -0.0247   -3.2380 C   0  0  1  0  0  0  0  0  0  0  0  0
   45.1516   -0.3365   -1.8940 O   0  0  0  0  0  0  0  0  0  0  0  0
   41.1740    1.4696    0.1482 C   0  0  0  0  0  0  0  0  0  0  0  0
   46.8399    5.2618   -5.9926 C   0  0  0  0  0  0  0  0  0  0  0  0
   47.4802    3.9820   -5.8888 N   0  0  0  0  0  0  0  0  0  0  0  0
   40.0517    1.9693    1.0591 C   0  0  0  0  0  0  0  0  0  0  0  0
   40.4040    3.3478    1.4510 N   0  0  0  0  0  0  0  0  0  0  0  0
   39.7455    3.9336    2.7019 C   0  0  0  0  0  0  0  0  0  0  0  0
  1  2  1  1  0  0  0
  1  8  1  0  0  0  0
  1 33  1  0  0  0  0
  3  4  1  1  0  0  0
  3 10  1  0  0  0  0
  3 42  1  0  0  0  0
  5 11  1  0  0  0  0
  5 29  1  0  0  0  0
  5 35  1  6  0  0  0
  6 13  1  0  0  0  0
  6 39  1  0  0  0  0
  6 22  1  6  0  0  0
  7 15  1  0  0  0  0
  8  9  1  6  0  0  0
  8 17  1  0  0  0  0
 10 19  1  0  0  0  0
 11 12  1  1  0  0  0
 11 21  1  0  0  0  0
 12 44  1  0  0  0  0
 13 14  1  6  0  0  0
 13 23  1  0  0  0  0
 15 16  1  0  0  0  0
 17 18  1  6  0  0  0
 17 25  1  0  0  0  0
 19 20  1  6  0  0  0
 19 27  1  0  0  0  0
 21 22  1  1  0  0  0
 21 28  1  0  0  0  0
 23 24  1  1  0  0  0
 23 30  1  0  0  0  0
 25 26  1  1  0  0  0
 25 32  1  0  0  0  0
 27  2  1  6  0  0  0
 27 34  1  0  0  0  0
 28 29  1  0  0  0  0
 28 36  1  6  0  0  0
 30 31  1  6  0  0  0
 30 38  1  0  0  0  0
 32 33  1  0  0  0  0
 32 40  1  1  0  0  0
 34 35  1  1  0  0  0
 34 42  1  0  0  0  0
 36 37  1  0  0  0  0
 38 39  1  0  0  0  0
 38 45  1  6  0  0  0
 40 41  1  0  0  0  0
 42 43  1  1  0  0  0
 44 47  1  0  0  0  0
 45 46  1  0  0  0  0
 47 48  1  0  0  0  0
 48 49  1  0  0  0  0
 49  7  1  0  0  0  0
M  END
>  <CHROM.1>
-169.76562094,-38.51163526,-143.39497296,-178.40470846,61.62099182,-179.13260493
25.02763762,70.52314114,54.24410151,-179.22191522,-80.40691207,175.41024027
-66.67001769,-159.69015976,-168.05577111,-53.56872930,42.59292343,1.54720486
-3.64199270,-1.87519293,0.87152887,0.62773177

>  <Name>
2bee_lig

>  <RI>
3.46266e+07

>  <Rbt.Current_Directory>
/home/itssahil/PROJECTS/Mol_Feturizer/New_Systems/rnas/2bee

>  <Rbt.Executable>
rbdock ($Id: //depot/dev/client3/rdock/2013.1/src/exe/rbdock.cxx#4 $)

>  <Rbt.Library>
libRbt.so (2013.1, Build901 2013/11/27)

>  <Rbt.Parameter_File>
/export/apps/rDock/src/rDock_2013.1_src/data/scripts/dock_solv.prm

>  <Rbt.Receptor>
prm/pocket_docking_4.prm

>  <SCORE>
-12.8046

>  <SCORE.INTER>
-1.63358

>  <SCORE.INTER.CONST>
1

>  <SCORE.INTER.POLAR>
-0.947465

>  <SCORE.INTER.ROT>
16

>  <SCORE.INTER.SOLV>
9.1466

>  <SCORE.INTER.VDW>
-15.2464

>  <SCORE.INTER.norm>
-0.0333384

>  <SCORE.INTRA>
-11.2889

>  <SCORE.INTRA.DIHEDRAL>
-21.3508

>  <SCORE.INTRA.DIHEDRAL.0>
36.0842

>  <SCORE.INTRA.POLAR>
0

>  <SCORE.INTRA.POLAR.0>
0

>  <SCORE.INTRA.REPUL>
0

>  <SCORE.INTRA.REPUL.0>
0

>  <SCORE.INTRA.SOLV>
-1.08589

>  <SCORE.INTRA.SOLV.lig_0>
-126.444

>  <SCORE.INTRA.VDW>
-0.0705327

>  <SCORE.INTRA.VDW.0>
-7.40469

>  <SCORE.INTRA.norm>
-0.230386

>  <SCORE.RESTR>
0.11785

>  <SCORE.RESTR.CAVITY>
0.11785

>  <SCORE.RESTR.norm>
0.00240511

>  <SCORE.SYSTEM>
0

>  <SCORE.SYSTEM.CONST>
0

>  <SCORE.SYSTEM.DIHEDRAL>
0

>  <SCORE.SYSTEM.SOLV>
0

>  <SCORE.SYSTEM.norm>
0

>  <SCORE.heavy>
49

>  <SCORE.norm>
-0.261319

>  <RMSD>
8.743

$$$$
2bee_lig
 OpenBabel11021811423D
libRbt.so/2013.1/901 2013/11/27
 49 52  0  0  0  0  0  0  0  0999 V2000
   42.5228   13.6043  -12.6132 C   0  0  2  0  0  0  0  0  0  0  0  0
   42.9842   12.6884  -11.6281 O   0  0  0  0  0  0  0  0  0  0  0  0
   47.3393   12.7219  -12.2653 C   0  0  2  0  0  0  0  0  0  0  0  0
   48.7936   12.6318  -11.9625 N   0  0  0  0  0  0  0  0  0  0  0  0
   44.4633    9.4015  -11.0505 C   0  0  1  0  0  0  0  0  0  0  0  0
   47.6749    7.6393   -7.9300 C   0  0  1  0  0  0  0  0  0  0  0  0
   42.9870    6.7785   -4.0426 C   0  0  0  0  0  0  0  0  0  0  0  0
   40.9577   13.4911  -12.7763 C   0  0  2  0  0  0  0  0  0  0  0  0
   40.3060   13.6701  -11.4834 N   0  0  0  0  0  0  0  0  0  0  0  0
   46.6709   13.8253  -11.3253 C   0  0  0  0  0  0  0  0  0  0  0  0
   44.8863    8.0647  -10.5343 C   0  0  2  0  0  0  0  0  0  0  0  0
   43.7726    7.2942   -9.9545 O   0  0  0  0  0  0  0  0  0  0  0  0
   48.8479    6.5759   -8.2822 C   0  0  2  0  0  0  0  0  0  0  0  0
   48.2876    5.5629   -9.2378 N   0  0  0  0  0  0  0  0  0  0  0  0
   41.6138    6.5613   -4.3032 C   0  0  0  0  0  0  0  0  0  0  0  0
   41.2244    5.8882   -5.4591 N   0  0  0  0  0  0  0  0  0  0  0  0
   40.5973   12.0832  -13.4243 C   0  0  1  0  0  0  0  0  0  0  0  0
   39.1876   11.9924  -13.5715 O   0  0  0  0  0  0  0  0  0  0  0  0
   45.0675   13.9453  -11.6187 C   0  0  2  0  0  0  0  0  0  0  0  0
   44.4637   14.9337  -10.7912 N   0  0  0  0  0  0  0  0  0  0  0  0
   46.0348    8.5609   -9.6896 C   0  0  2  0  0  0  0  0  0  0  0  0
   47.2690    8.1896   -9.2061 O   0  0  0  0  0  0  0  0  0  0  0  0
   49.3104    5.8870   -6.9489 C   0  0  1  0  0  0  0  0  0  0  0  0
   49.8571    6.9382   -6.0785 O   0  0  0  0  0  0  0  0  0  0  0  0
   41.3121   11.9575  -14.7897 C   0  0  2  0  0  0  0  0  0  0  0  0
   41.0144   10.6478  -15.4236 O   0  0  0  0  0  0  0  0  0  0  0  0
   44.3724   12.5500  -11.3714 C   0  0  2  0  0  0  0  0  0  0  0  0
   45.4841    9.9642   -9.1283 C   0  0  2  0  0  0  0  0  0  0  0  0
   44.8228   10.4553  -10.2033 O   0  0  0  0  0  0  0  0  0  0  0  0
   48.0324    5.1413   -6.2603 C   0  0  2  0  0  0  0  0  0  0  0  0
   47.4892    4.0872   -7.1465 O   0  0  0  0  0  0  0  0  0  0  0  0
   42.8630   12.0773  -14.6155 C   0  0  2  0  0  0  0  0  0  0  0  0
   43.0763   13.3668  -13.9863 O   0  0  0  0  0  0  0  0  0  0  0  0
   45.0648   11.5067  -12.3119 C   0  0  2  0  0  0  0  0  0  0  0  0
   44.3610   10.3214  -12.0297 O   0  0  0  0  0  0  0  0  0  0  0  0
   46.5370   11.0597   -8.7199 C   0  0  0  0  0  0  0  0  0  0  0  0
   47.7304   10.9217   -9.5543 O   0  0  0  0  0  0  0  0  0  0  0  0
   46.8763    6.1974   -5.9651 C   0  0  1  0  0  0  0  0  0  0  0  0
   46.5264    6.8499   -7.2862 O   0  0  0  0  0  0  0  0  0  0  0  0
   43.4560   11.9707  -15.9619 C   0  0  0  0  0  0  0  0  0  0  0  0
   43.3045   10.7296  -16.4435 O   0  0  0  0  0  0  0  0  0  0  0  0
   46.6141   11.3872  -11.9834 C   0  0  1  0  0  0  0  0  0  0  0  0
   47.2212   10.4620  -12.8329 O   0  0  0  0  0  0  0  0  0  0  0  0
   43.0232    7.6676   -8.7438 C   0  0  0  0  0  0  0  0  0  0  0  0
   45.7062    5.3716   -5.3311 C   0  0  0  0  0  0  0  0  0  0  0  0
   45.8975    5.1131   -3.9328 N   0  0  0  0  0  0  0  0  0  0  0  0
   43.9219    7.4895   -7.5192 C   0  0  0  0  0  0  0  0  0  0  0  0
   43.1161    7.8667   -6.3418 N   0  0  0  0  0  0  0  0  0  0  0  0
   43.7813    7.8147   -4.9648 C   0  0  0  0  0  0  0  0  0  0  0  0
  1  2  1  1  0  0  0
  1  8  1  0  0  0  0
  1 33  1  0  0  0  0
  3  4  1  1  0  0  0
  3 10  1  0  0  0  0
  3 42  1  0  0  0  0
  5 11  1  0  0  0  0
  5 29  1  0  0  0  0
  5 35  1  6  0  0  0
  6 13  1  0  0  0  0
  6 39  1  0  0  0  0
  6 22  1  6  0  0  0
  7 15  1  0  0  0  0
  8  9  1  1  0  0  0
  8 17  1  0  0  0  0
 10 19  1  0  0  0  0
 11 12  1  1  0  0  0
 11 21  1  0  0  0  0
 12 44  1  0  0  0  0
 13 14  1  6  0  0  0
 13 23  1  0  0  0  0
 15 16  1  0  0  0  0
 17 18  1  6  0  0  0
 17 25  1  0  0  0  0
 19 20  1  1  0  0  0
 19 27  1  0  0  0  0
 21 22  1  1  0  0  0
 21 28  1  0  0  0  0
 23 24  1  1  0  0  0
 23 30  1  0  0  0  0
 25 26  1  1  0  0  0
 25 32  1  0  0  0  0
 27  2  1  6  0  0  0
 27 34  1  0  0  0  0
 28 29  1  0  0  0  0
 28 36  1  6  0  0  0
 30 31  1  6  0  0  0
 30 38  1  0  0  0  0
 32 33  1  0  0  0  0
 32 40  1  6  0  0  0
 34 35  1  1  0  0  0
 34 42  1  0  0  0  0
 36 37  1  0  0  0  0
 38 39  1  0  0  0  0
 38 45  1  6  0  0  0
 40 41  1  0  0  0  0
 42 43  1  6  0  0  0
 44 47  1  0  0  0  0
 45 46  1  0  0  0  0
 47 48  1  0  0  0  0
 48 49  1  0  0  0  0
 49  7  1  0  0  0  0
M  END
>  <CHROM.1>
175.90489128,-103.19219803,142.89705554,69.76791367,-65.55796937,-70.45288231
-97.19623605,31.86866165,30.68208641,-68.75311155,-82.09766489,80.93006504
-179.54942156,-178.60367325,-119.65314426,-27.57402236,44.82447840,9.61696312
-10.00451029,1.90741278,0.04763773,-0.87357034

>  <Name>
2bee_lig

>  <RI>
0

>  <Rbt.Current_Directory>
/home/itssahil/PROJECTS/Mol_Feturizer/New_Systems/rnas/2bee

>  <Rbt.Executable>
rbdock ($Id: //depot/dev/client3/rdock/2013.1/src/exe/rbdock.cxx#4 $)

>  <Rbt.Library>
libRbt.so (2013.1, Build901 2013/11/27)

>  <Rbt.Parameter_File>
/export/apps/rDock/src/rDock_2013.1_src/data/scripts/dock_solv.prm

>  <Rbt.Receptor>
prm/blind_docking_60.prm

>  <SCORE>
65.7701

>  <SCORE.INTER>
28.762

>  <SCORE.INTER.CONST>
1

>  <SCORE.INTER.POLAR>
-0.344843

>  <SCORE.INTER.ROT>
16

>  <SCORE.INTER.SOLV>
32.2188

>  <SCORE.INTER.VDW>
-4.68214

>  <SCORE.INTER.norm>
0.586979

>  <SCORE.INTRA>
9.92658

>  <SCORE.INTRA.DIHEDRAL>
-7.36431

>  <SCORE.INTRA.DIHEDRAL.0>
36.0842

>  <SCORE.INTRA.POLAR>
0

>  <SCORE.INTRA.POLAR.0>
0

>  <SCORE.INTRA.REPUL>
0

>  <SCORE.INTRA.REPUL.0>
0

>  <SCORE.INTRA.SOLV>
6.43219

>  <SCORE.INTRA.SOLV.lig_0>
-126.444

>  <SCORE.INTRA.VDW>
10.3926

>  <SCORE.INTRA.VDW.0>
-7.40469

>  <SCORE.INTRA.norm>
0.202583

>  <SCORE.RESTR>
27.0816

>  <SCORE.RESTR.CAVITY>
27.0816

>  <SCORE.RESTR.norm>
0.552685

>  <SCORE.SYSTEM>
0

>  <SCORE.SYSTEM.CONST>
0

>  <SCORE.SYSTEM.DIHEDRAL>
0

>  <SCORE.SYSTEM.SOLV>
0

>  <SCORE.SYSTEM.norm>
0

>  <SCORE.heavy>
49

>  <SCORE.norm>
1.34225

>  <RMSD>
8.751

$$$$
2bee_lig
 OpenBabel11021811423D
libRbt.so/2013.1/901 2013/11/27
 49 52  0  0  0  0  0  0  0  0999 V2000
   47.7798    3.8587   -6.1691 C   0  0  2  0  0  0  0  0  0  0  0  0
   46.6005    3.0831   -6.3414 O   0  0  0  0  0  0  0  0  0  0  0  0
   44.3365    4.2293   -2.7448 C   0  0  2  0  0  0  0  0  0  0  0  0
   43.2174    4.3043   -1.7667 N   0  0  0  0  0  0  0  0  0  0  0  0
   45.9607    0.2174   -4.1727 C   0  0  1  0  0  0  0  0  0  0  0  0
   44.9871   -2.8320   -7.5642 C   0  0  1  0  0  0  0  0  0  0  0  0
   38.5410   -3.2709   -3.5623 C   0  0  0  0  0  0  0  0  0  0  0  0
   48.6620    3.8123   -7.4763 C   0  0  2  0  0  0  0  0  0  0  0  0
   47.8704    4.2289   -8.6288 N   0  0  0  0  0  0  0  0  0  0  0  0
   43.8119    4.6785   -4.1839 C   0  0  0  0  0  0  0  0  0  0  0  0
   44.9454   -0.7338   -4.7178 C   0  0  2  0  0  0  0  0  0  0  0  0
   44.0808   -1.3113   -3.6742 O   0  0  0  0  0  0  0  0  0  0  0  0
   44.5389   -1.5208   -8.4075 C   0  0  2  0  0  0  0  0  0  0  0  0
   44.0500   -0.4862   -7.4361 N   0  0  0  0  0  0  0  0  0  0  0  0
   37.2509   -2.6953   -3.6331 C   0  0  0  0  0  0  0  0  0  0  0  0
   36.4975   -2.5348   -2.4723 N   0  0  0  0  0  0  0  0  0  0  0  0
   49.2444    2.3436   -7.6654 C   0  0  1  0  0  0  0  0  0  0  0  0
   50.0404    2.3127   -8.8412 O   0  0  0  0  0  0  0  0  0  0  0  0
   45.0110    4.5969   -5.2916 C   0  0  2  0  0  0  0  0  0  0  0  0
   44.5550    5.0044   -6.5770 N   0  0  0  0  0  0  0  0  0  0  0  0
   45.9107   -1.5819   -5.5101 C   0  0  2  0  0  0  0  0  0  0  0  0
   45.9986   -2.3599   -6.6423 O   0  0  0  0  0  0  0  0  0  0  0  0
   43.3955   -1.9361   -9.4007 C   0  0  1  0  0  0  0  0  0  0  0  0
   43.9563   -2.9347  -10.3226 O   0  0  0  0  0  0  0  0  0  0  0  0
   50.0746    1.9646   -6.4170 C   0  0  2  0  0  0  0  0  0  0  0  0
   50.6253    0.5913   -6.5456 O   0  0  0  0  0  0  0  0  0  0  0  0
   45.5680    3.1222   -5.3696 C   0  0  2  0  0  0  0  0  0  0  0  0
   47.2187   -1.6018   -4.5740 C   0  0  2  0  0  0  0  0  0  0  0  0
   47.2454   -0.3322   -4.1034 O   0  0  0  0  0  0  0  0  0  0  0  0
   42.1411   -2.5413   -8.5500 C   0  0  2  0  0  0  0  0  0  0  0  0
   41.5868   -1.5281   -7.6239 O   0  0  0  0  0  0  0  0  0  0  0  0
   49.1904    2.0201   -5.1267 C   0  0  2  0  0  0  0  0  0  0  0  0
   48.6821    3.3777   -5.0724 O   0  0  0  0  0  0  0  0  0  0  0  0
   46.0647    2.7309   -3.9368 C   0  0  2  0  0  0  0  0  0  0  0  0
   46.5551    1.4256   -4.1255 O   0  0  0  0  0  0  0  0  0  0  0  0
   48.6133   -1.8472   -5.2601 C   0  0  0  0  0  0  0  0  0  0  0  0
   48.6622   -3.2106   -5.7875 O   0  0  0  0  0  0  0  0  0  0  0  0
   42.6157   -3.7998   -7.6956 C   0  0  1  0  0  0  0  0  0  0  0  0
   43.7476   -3.3286   -6.8067 O   0  0  0  0  0  0  0  0  0  0  0  0
   50.0646    1.6700   -3.9915 C   0  0  0  0  0  0  0  0  0  0  0  0
   50.2640    0.3458   -3.9448 O   0  0  0  0  0  0  0  0  0  0  0  0
   44.8733    2.7877   -2.8882 C   0  0  1  0  0  0  0  0  0  0  0  0
   45.3297    2.4460   -1.6149 O   0  0  0  0  0  0  0  0  0  0  0  0
   42.8627   -2.0995   -3.9227 C   0  0  0  0  0  0  0  0  0  0  0  0
   41.3459   -4.2779   -6.9131 C   0  0  0  0  0  0  0  0  0  0  0  0
   41.5321   -5.5445   -6.2654 N   0  0  0  0  0  0  0  0  0  0  0  0
   42.2360   -2.4951   -2.5849 C   0  0  0  0  0  0  0  0  0  0  0  0
   40.9994   -3.2375   -2.8974 N   0  0  0  0  0  0  0  0  0  0  0  0
   39.6598   -2.5256   -2.6976 C   0  0  0  0  0  0  0  0  0  0  0  0
  1  2  1  6  0  0  0
  1  8  1  0  0  0  0
  1 33  1  0  0  0  0
  3  4  1  1  0  0  0
  3 10  1  0  0  0  0
  3 42  1  0  0  0  0
  5 11  1  0  0  0  0
  5 29  1  0  0  0  0
  5 35  1  6  0  0  0
  6 13  1  0  0  0  0
  6 39  1  0  0  0  0
  6 22  1  1  0  0  0
  7 15  1  0  0  0  0
  8  9  1  6  0  0  0
  8 17  1  0  0  0  0
 10 19  1  0  0  0  0
 11 12  1  1  0  0  0
 11 21  1  0  0  0  0
 12 44  1  0  0  0  0
 13 14  1  1  0  0  0
 13 23  1  0  0  0  0
 15 16  1  0  0  0  0
 17 18  1  6  0  0  0
 17 25  1  0  0  0  0
 19 20  1  6  0  0  0
 19 27  1  0  0  0  0
 21 22  1  1  0  0  0
 21 28  1  0  0  0  0
 23 24  1  6  0  0  0
 23 30  1  0  0  0  0
 25 26  1  6  0  0  0
 25 32  1  0  0  0  0
 27  2  1  6  0  0  0
 27 34  1  0  0  0  0
 28 29  1  0  0  0  0
 28 36  1  6  0  0  0
 30 31  1  1  0  0  0
 30 38  1  0  0  0  0
 32 33  1  0  0  0  0
 32 40  1  1  0  0  0
 34 35  1  6  0  0  0
 34 42  1  0  0  0  0
 36 37  1  0  0  0  0
 38 39  1  0  0  0  0
 38 45  1  1  0  0  0
 40 41  1  0  0  0  0
 42 43  1  1  0  0  0
 44 47  1  0  0  0  0
 45 46  1  0  0  0  0
 47 48  1  0  0  0  0
 48 49  1  0  0  0  0
 49  7  1  0  0  0  0
M  END
>  <CHROM.1>
-171.36672750,54.15153740,72.28687865,-61.56549281,169.49291987,-178.94656002
-8.63020655,62.09960261,-66.89695450,-77.61495831,-82.10703333,169.93721773
178.01903726,-104.86832744,159.74057662,-173.60450076,45.12205717,0.02609686
-5.46746054,0.44239527,0.45486804,0.59880111

>  <Name>
2bee_lig

>  <RI>
0

>  <Rbt.Current_Directory>
/home/itssahil/PROJECTS/Mol_Feturizer/New_Systems/rnas/2bee

>  <Rbt.Executable>
rbdock ($Id: //depot/dev/client3/rdock/2013.1/src/exe/rbdock.cxx#4 $)

>  <Rbt.Library>
libRbt.so (2013.1, Build901 2013/11/27)

>  <Rbt.Parameter_File>
/export/apps/rDock/src/rDock_2013.1_src/data/scripts/dock_solv.prm

>  <Rbt.Receptor>
prm/pocket_docking_8.prm

>  <SCORE>
-10.544

>  <SCORE.INTER>
2.24161

>  <SCORE.INTER.CONST>
1

>  <SCORE.INTER.POLAR>
-0.895021

>  <SCORE.INTER.ROT>
16

>  <SCORE.INTER.SOLV>
9.47808

>  <SCORE.INTER.VDW>
-12.9482

>  <SCORE.INTER.norm>
0.0457471

>  <SCORE.INTRA>
-12.7856

>  <SCORE.INTRA.DIHEDRAL>
-25.1992

>  <SCORE.INTRA.DIHEDRAL.0>
36.0842

>  <SCORE.INTRA.POLAR>
0

>  <SCORE.INTRA.POLAR.0>
0

>  <SCORE.INTRA.REPUL>
0

>  <SCORE.INTRA.REPUL.0>
0

>  <SCORE.INTRA.SOLV>
0.772873

>  <SCORE.INTRA.SOLV.lig_0>
-126.444

>  <SCORE.INTRA.VDW>
-0.572423

>  <SCORE.INTRA.VDW.0>
-7.40469

>  <SCORE.INTRA.norm>
-0.26093

>  <SCORE.RESTR>
0

>  <SCORE.RESTR.CAVITY>
0

>  <SCORE.RESTR.norm>
0

>  <SCORE.SYSTEM>
0

>  <SCORE.SYSTEM.CONST>
0

>  <SCORE.SYSTEM.DIHEDRAL>
0

>  <SCORE.SYSTEM.SOLV>
0

>  <SCORE.SYSTEM.norm>
0

>  <SCORE.heavy>
49

>  <SCORE.norm>
-0.215183

>  <RMSD>
8.751

$$$$
2bee_lig
 OpenBabel11021811423D
libRbt.so/2013.1/901 2013/11/27
 49 52  0  0  0  0  0  0  0  0999 V2000
   44.5411    3.3756   -5.7737 C   0  0  2  0  0  0  0  0  0  0  0  0
   43.1242    3.4531   -5.8659 O   0  0  0  0  0  0  0  0  0  0  0  0
   39.8573    1.7195   -8.2526 C   0  0  2  0  0  0  0  0  0  0  0  0
   39.1411    0.7928   -9.1708 N   0  0  0  0  0  0  0  0  0  0  0  0
   41.1863    1.3350   -3.5788 C   0  0  1  0  0  0  0  0  0  0  0  0
   38.2041   -1.8116   -2.5128 C   0  0  1  0  0  0  0  0  0  0  0  0
   38.6747    5.5894    3.6000 C   0  0  0  0  0  0  0  0  0  0  0  0
   45.0415    4.0561   -4.4412 C   0  0  2  0  0  0  0  0  0  0  0  0
   44.3634    3.4651   -3.2926 N   0  0  0  0  0  0  0  0  0  0  0  0
   41.1509    2.2973   -8.9879 C   0  0  0  0  0  0  0  0  0  0  0  0
   40.1229    1.4373   -2.5341 C   0  0  2  0  0  0  0  0  0  0  0  0
   40.4303    2.4382   -1.4978 O   0  0  0  0  0  0  0  0  0  0  0  0
   37.5393   -2.7778   -1.3924 C   0  0  2  0  0  0  0  0  0  0  0  0
   38.6379   -3.5780   -0.7554 N   0  0  0  0  0  0  0  0  0  0  0  0
   38.8790    4.5184    4.5012 C   0  0  0  0  0  0  0  0  0  0  0  0
   38.7005    3.2055    4.0712 N   0  0  0  0  0  0  0  0  0  0  0  0
   44.7907    5.6252   -4.5261 C   0  0  1  0  0  0  0  0  0  0  0  0
   45.2483    6.2294   -3.3250 O   0  0  0  0  0  0  0  0  0  0  0  0
   41.9739    3.3116   -8.0053 C   0  0  2  0  0  0  0  0  0  0  0  0
   43.1250    3.8394   -8.6555 N   0  0  0  0  0  0  0  0  0  0  0  0
   40.0479   -0.0370   -2.2186 C   0  0  2  0  0  0  0  0  0  0  0  0
   39.1773   -1.0156   -1.7951 O   0  0  0  0  0  0  0  0  0  0  0  0
   36.5031   -3.7209   -2.1016 C   0  0  1  0  0  0  0  0  0  0  0  0
   35.4580   -2.8660   -2.6834 O   0  0  0  0  0  0  0  0  0  0  0  0
   45.5371    6.1903   -5.7569 C   0  0  2  0  0  0  0  0  0  0  0  0
   45.3163    7.6537   -5.8828 O   0  0  0  0  0  0  0  0  0  0  0  0
   42.4087    2.5498   -6.6931 C   0  0  2  0  0  0  0  0  0  0  0  0
   41.5797   -0.5089   -2.3546 C   0  0  2  0  0  0  0  0  0  0  0  0
   41.9987    0.2063   -3.4256 O   0  0  0  0  0  0  0  0  0  0  0  0
   37.2707   -4.5949   -3.2464 C   0  0  2  0  0  0  0  0  0  0  0  0
   38.3217   -5.4493   -2.6493 O   0  0  0  0  0  0  0  0  0  0  0  0
   45.0363    5.5035   -7.0712 C   0  0  2  0  0  0  0  0  0  0  0  0
   45.2725    4.0860   -6.8731 O   0  0  0  0  0  0  0  0  0  0  0  0
   41.1079    2.0021   -6.0146 C   0  0  2  0  0  0  0  0  0  0  0  0
   41.6043    1.3708   -4.8592 O   0  0  0  0  0  0  0  0  0  0  0  0
   41.8588   -2.0192   -2.6963 C   0  0  0  0  0  0  0  0  0  0  0  0
   43.2882   -2.2050   -2.9452 O   0  0  0  0  0  0  0  0  0  0  0  0
   37.9533   -3.6242   -4.3099 C   0  0  1  0  0  0  0  0  0  0  0  0
   38.8934   -2.7189   -3.5417 O   0  0  0  0  0  0  0  0  0  0  0  0
   45.8144    6.0832   -8.1822 C   0  0  0  0  0  0  0  0  0  0  0  0
   47.1210    5.8363   -8.0178 O   0  0  0  0  0  0  0  0  0  0  0  0
   40.3461    0.9955   -6.9783 C   0  0  1  0  0  0  0  0  0  0  0  0
   39.1852    0.5215   -6.3667 O   0  0  0  0  0  0  0  0  0  0  0  0
   39.5050    2.8740   -0.4390 C   0  0  0  0  0  0  0  0  0  0  0  0
   38.6699   -4.5652   -5.3366 C   0  0  0  0  0  0  0  0  0  0  0  0
   39.2930   -3.8483   -6.4120 N   0  0  0  0  0  0  0  0  0  0  0  0
   40.2059    3.9003    0.4523 C   0  0  0  0  0  0  0  0  0  0  0  0
   39.2015    4.3769    1.4230 N   0  0  0  0  0  0  0  0  0  0  0  0
   39.5306    5.6212    2.2504 C   0  0  0  0  0  0  0  0  0  0  0  0
  1  2  1  6  0  0  0
  1  8  1  0  0  0  0
  1 33  1  0  0  0  0
  3  4  1  6  0  0  0
  3 10  1  0  0  0  0
  3 42  1  0  0  0  0
  5 11  1  0  0  0  0
  5 29  1  0  0  0  0
  5 35  1  6  0  0  0
  6 13  1  0  0  0  0
  6 39  1  0  0  0  0
  6 22  1  1  0  0  0
  7 15  1  0  0  0  0
  8  9  1  1  0  0  0
  8 17  1  0  0  0  0
 10 19  1  0  0  0  0
 11 12  1  1  0  0  0
 11 21  1  0  0  0  0
 12 44  1  0  0  0  0
 13 14  1  6  0  0  0
 13 23  1  0  0  0  0
 15 16  1  0  0  0  0
 17 18  1  1  0  0  0
 17 25  1  0  0  0  0
 19 20  1  6  0  0  0
 19 27  1  0  0  0  0
 21 22  1  1  0  0  0
 21 28  1  0  0  0  0
 23 24  1  6  0  0  0
 23 30  1  0  0  0  0
 25 26  1  6  0  0  0
 25 32  1  0  0  0  0
 27  2  1  1  0  0  0
 27 34  1  0  0  0  0
 28 29  1  0  0  0  0
 28 36  1  6  0  0  0
 30 31  1  1  0  0  0
 30 38  1  0  0  0  0
 32 33  1  0  0  0  0
 32 40  1  6  0  0  0
 34 35  1  1  0  0  0
 34 42  1  0  0  0  0
 36 37  1  0  0  0  0
 38 39  1  0  0  0  0
 38 45  1  6  0  0  0
 40 41  1  0  0  0  0
 42 43  1  1  0  0  0
 44 47  1  0  0  0  0
 45 46  1  0  0  0  0
 47 48  1  0  0  0  0
 48 49  1  0  0  0  0
 49  7  1  0  0  0  0
M  END
>  <CHROM.1>
-158.27801539,24.79209596,179.50271114,-57.44894631,172.24100231,178.81499731
82.80542508,-103.76437456,172.74300095,60.89549995,137.88773938,177.28571153
175.61231568,-167.25377866,-155.69021480,61.66115012,41.09208130,1.45308018
-3.77432099,-0.03621199,-0.92425023,-2.16934477

>  <Name>
2bee_lig

>  <RI>
0

>  <Rbt.Current_Directory>
/home/itssahil/PROJECTS/Mol_Feturizer/New_Systems/rnas/2bee

>  <Rbt.Executable>
rbdock ($Id: //depot/dev/client3/rdock/2013.1/src/exe/rbdock.cxx#4 $)

>  <Rbt.Library>
libRbt.so (2013.1, Build901 2013/11/27)

>  <Rbt.Parameter_File>
/export/apps/rDock/src/rDock_2013.1_src/data/scripts/dock_solv.prm

>  <Rbt.Receptor>
prm/pocket_docking_5.prm

>  <SCORE>
-2.95665

>  <SCORE.INTER>
1.84803

>  <SCORE.INTER.CONST>
1

>  <SCORE.INTER.POLAR>
-1.25076

>  <SCORE.INTER.ROT>
16

>  <SCORE.INTER.SOLV>
8.04424

>  <SCORE.INTER.VDW>
-11.5469

>  <SCORE.INTER.norm>
0.0377149

>  <SCORE.INTRA>
-4.80469

>  <SCORE.INTRA.DIHEDRAL>
-12.4433

>  <SCORE.INTRA.DIHEDRAL.0>
36.0842

>  <SCORE.INTRA.POLAR>
0

>  <SCORE.INTRA.POLAR.0>
0

>  <SCORE.INTRA.REPUL>
0.00640934

>  <SCORE.INTRA.REPUL.0>
0

>  <SCORE.INTRA.SOLV>
1.30351

>  <SCORE.INTRA.SOLV.lig_0>
-126.444

>  <SCORE.INTRA.VDW>
0.733178

>  <SCORE.INTRA.VDW.0>
-7.40469

>  <SCORE.INTRA.norm>
-0.0980548

>  <SCORE.RESTR>
1.11503e-05

>  <SCORE.RESTR.CAVITY>
1.11503e-05

>  <SCORE.RESTR.norm>
2.27556e-07

>  <SCORE.SYSTEM>
0

>  <SCORE.SYSTEM.CONST>
0

>  <SCORE.SYSTEM.DIHEDRAL>
0

>  <SCORE.SYSTEM.SOLV>
0

>  <SCORE.SYSTEM.norm>
0

>  <SCORE.heavy>
49

>  <SCORE.norm>
-0.0603397

>  <RMSD>
8.752

$$$$
2bee_lig
 OpenBabel11021811423D
libRbt.so/2013.1/901 2013/11/27
 49 52  0  0  0  0  0  0  0  0999 V2000
   43.0355   13.0077  -12.9995 C   0  0  2  0  0  0  0  0  0  0  0  0
   43.2606   12.0042  -12.0175 O   0  0  0  0  0  0  0  0  0  0  0  0
   47.6116   12.0748  -11.3557 C   0  0  2  0  0  0  0  0  0  0  0  0
   48.9132   12.0397  -10.6348 N   0  0  0  0  0  0  0  0  0  0  0  0
   44.4471    8.8377  -10.7432 C   0  0  1  0  0  0  0  0  0  0  0  0
   47.6702    6.8304   -8.2667 C   0  0  1  0  0  0  0  0  0  0  0  0
   43.5812    6.4017   -3.5433 C   0  0  0  0  0  0  0  0  0  0  0  0
   41.5049   13.3859  -13.0558 C   0  0  2  0  0  0  0  0  0  0  0  0
   41.0363   13.7727  -11.7294 N   0  0  0  0  0  0  0  0  0  0  0  0
   46.7022   13.2375  -10.7483 C   0  0  0  0  0  0  0  0  0  0  0  0
   44.6121    7.5523   -9.9994 C   0  0  2  0  0  0  0  0  0  0  0  0
   43.3280    6.9052   -9.6790 O   0  0  0  0  0  0  0  0  0  0  0  0
   47.0320    5.3393   -8.2495 C   0  0  2  0  0  0  0  0  0  0  0  0
   46.3114    5.1554   -6.9456 N   0  0  0  0  0  0  0  0  0  0  0  0
   44.4409    5.8455   -2.5674 C   0  0  0  0  0  0  0  0  0  0  0  0
   44.5109    4.4630   -2.4107 N   0  0  0  0  0  0  0  0  0  0  0  0
   40.6799   12.1535  -13.6324 C   0  0  1  0  0  0  0  0  0  0  0  0
   39.3047   12.5047  -13.6837 O   0  0  0  0  0  0  0  0  0  0  0  0
   45.2554   13.3001  -11.5062 C   0  0  2  0  0  0  0  0  0  0  0  0
   44.4401   14.3404  -10.9774 N   0  0  0  0  0  0  0  0  0  0  0  0
   45.5217    8.0913   -8.9220 C   0  0  2  0  0  0  0  0  0  0  0  0
   46.5465    7.7238   -8.0796 O   0  0  0  0  0  0  0  0  0  0  0  0
   48.1988    4.2980   -8.3922 C   0  0  1  0  0  0  0  0  0  0  0  0
   48.8404    4.5335   -9.6940 O   0  0  0  0  0  0  0  0  0  0  0  0
   41.2196   11.7969  -15.0370 C   0  0  2  0  0  0  0  0  0  0  0  0
   40.4854   10.6384  -15.6068 O   0  0  0  0  0  0  0  0  0  0  0  0
   44.5122   11.9158  -11.3560 C   0  0  2  0  0  0  0  0  0  0  0  0
   44.9463    9.5736   -8.6786 C   0  0  2  0  0  0  0  0  0  0  0  0
   44.6410    9.9656   -9.9385 O   0  0  0  0  0  0  0  0  0  0  0  0
   49.2493    4.4988   -7.1595 C   0  0  2  0  0  0  0  0  0  0  0  0
   48.5917    4.2616   -5.8547 O   0  0  0  0  0  0  0  0  0  0  0  0
   42.7395   11.4296  -14.9690 C   0  0  2  0  0  0  0  0  0  0  0  0
   43.3871   12.5952  -14.3976 O   0  0  0  0  0  0  0  0  0  0  0  0
   45.4451   10.8134  -11.9618 C   0  0  2  0  0  0  0  0  0  0  0  0
   44.6843    9.6410  -11.7985 O   0  0  0  0  0  0  0  0  0  0  0  0
   45.9279   10.6609   -8.1042 C   0  0  0  0  0  0  0  0  0  0  0  0
   45.3943   11.9938   -8.3838 O   0  0  0  0  0  0  0  0  0  0  0  0
   49.8284    5.9833   -7.1703 C   0  0  1  0  0  0  0  0  0  0  0  0
   48.6422    6.9206   -7.0819 O   0  0  0  0  0  0  0  0  0  0  0  0
   43.1710   11.1293  -16.3471 C   0  0  0  0  0  0  0  0  0  0  0  0
   44.0928   12.0133  -16.7525 O   0  0  0  0  0  0  0  0  0  0  0  0
   46.8298   10.7531  -11.1863 C   0  0  1  0  0  0  0  0  0  0  0  0
   47.6549    9.7740  -11.7404 O   0  0  0  0  0  0  0  0  0  0  0  0
   42.9957    6.2714   -8.3927 C   0  0  0  0  0  0  0  0  0  0  0  0
   50.7984    6.0636   -5.9432 C   0  0  0  0  0  0  0  0  0  0  0  0
   52.1217    6.4857   -6.3030 N   0  0  0  0  0  0  0  0  0  0  0  0
   43.0949    7.3125   -7.2768 C   0  0  0  0  0  0  0  0  0  0  0  0
   42.9414    6.5853   -6.0017 N   0  0  0  0  0  0  0  0  0  0  0  0
   44.1285    6.5614   -5.0366 C   0  0  0  0  0  0  0  0  0  0  0  0
  1  2  1  1  0  0  0
  1  8  1  0  0  0  0
  1 33  1  0  0  0  0
  3  4  1  1  0  0  0
  3 10  1  0  0  0  0
  3 42  1  0  0  0  0
  5 11  1  0  0  0  0
  5 29  1  0  0  0  0
  5 35  1  6  0  0  0
  6 13  1  0  0  0  0
  6 39  1  0  0  0  0
  6 22  1  1  0  0  0
  7 15  1  0  0  0  0
  8  9  1  1  0  0  0
  8 17  1  0  0  0  0
 10 19  1  0  0  0  0
 11 12  1  1  0  0  0
 11 21  1  0  0  0  0
 12 44  1  0  0  0  0
 13 14  1  1  0  0  0
 13 23  1  0  0  0  0
 15 16  1  0  0  0  0
 17 18  1  6  0  0  0
 17 25  1  0  0  0  0
 19 20  1  1  0  0  0
 19 27  1  0  0  0  0
 21 22  1  1  0  0  0
 21 28  1  0  0  0  0
 23 24  1  6  0  0  0
 23 30  1  0  0  0  0
 25 26  1  1  0  0  0
 25 32  1  0  0  0  0
 27  2  1  6  0  0  0
 27 34  1  0  0  0  0
 28 29  1  0  0  0  0
 28 36  1  6  0  0  0
 30 31  1  1  0  0  0
 30 38  1  0  0  0  0
 32 33  1  0  0  0  0
 32 40  1  6  0  0  0
 34 35  1  1  0  0  0
 34 42  1  0  0  0  0
 36 37  1  0  0  0  0
 38 39  1  0  0  0  0
 38 45  1  1  0  0  0
 40 41  1  0  0  0  0
 42 43  1  6  0  0  0
 44 47  1  0  0  0  0
 45 46  1  0  0  0  0
 47 48  1  0  0  0  0
 48 49  1  0  0  0  0
 49  7  1  0  0  0  0
M  END
>  <CHROM.1>
-151.65697534,-109.02415553,-72.78317859,-86.23787987,-137.60132889,59.91750348
36.42125771,19.76300088,160.53936411,116.38166542,-78.83036840,124.81794624
-172.17108353,115.53688760,152.35039769,155.70568073,45.17656672,9.17022815
-9.86590607,2.00239690,0.09443883,-0.89789081

>  <Name>
2bee_lig

>  <RI>
0

>  <Rbt.Current_Directory>
/home/itssahil/PROJECTS/Mol_Feturizer/New_Systems/rnas/2bee

>  <Rbt.Executable>
rbdock ($Id: //depot/dev/client3/rdock/2013.1/src/exe/rbdock.cxx#4 $)

>  <Rbt.Library>
libRbt.so (2013.1, Build901 2013/11/27)

>  <Rbt.Parameter_File>
/export/apps/rDock/src/rDock_2013.1_src/data/scripts/dock_solv.prm

>  <Rbt.Receptor>
prm/blind_docking_60.prm

>  <SCORE>
61.6599

>  <SCORE.INTER>
18.1716

>  <SCORE.INTER.CONST>
1

>  <SCORE.INTER.POLAR>
-0.711109

>  <SCORE.INTER.ROT>
16

>  <SCORE.INTER.SOLV>
30.6769

>  <SCORE.INTER.VDW>
-10.0075

>  <SCORE.INTER.norm>
0.37085

>  <SCORE.INTRA>
18.4146

>  <SCORE.INTRA.DIHEDRAL>
8.40359

>  <SCORE.INTRA.DIHEDRAL.0>
36.0842

>  <SCORE.INTRA.POLAR>
0

>  <SCORE.INTRA.POLAR.0>
0

>  <SCORE.INTRA.REPUL>
0

>  <SCORE.INTRA.REPUL.0>
0

>  <SCORE.INTRA.SOLV>
2.74028

>  <SCORE.INTRA.SOLV.lig_0>
-126.444

>  <SCORE.INTRA.VDW>
12.8427

>  <SCORE.INTRA.VDW.0>
-7.40469

>  <SCORE.INTRA.norm>
0.375808

>  <SCORE.RESTR>
25.0736

>  <SCORE.RESTR.CAVITY>
25.0736

>  <SCORE.RESTR.norm>
0.511707

>  <SCORE.SYSTEM>
0

>  <SCORE.SYSTEM.CONST>
0

>  <SCORE.SYSTEM.DIHEDRAL>
0

>  <SCORE.SYSTEM.SOLV>
0

>  <SCORE.SYSTEM.norm>
0

>  <SCORE.heavy>
49

>  <SCORE.norm>
1.25836

>  <RMSD>
8.755

$$$$
2bee_lig
 OpenBabel11021811423D
libRbt.so/2013.1/901 2013/11/27
 49 52  0  0  0  0  0  0  0  0999 V2000
   43.7544    4.4386   -2.2123 C   0  0  2  0  0  0  0  0  0  0  0  0
   42.5993    4.0162   -2.9262 O   0  0  0  0  0  0  0  0  0  0  0  0
   44.3327    0.9114   -5.5203 C   0  0  2  0  0  0  0  0  0  0  0  0
   44.4039   -0.2204   -6.4841 N   0  0  0  0  0  0  0  0  0  0  0  0
   41.8075    4.6747   -6.2917 C   0  0  1  0  0  0  0  0  0  0  0  0
   37.8281    2.2985   -7.1649 C   0  0  1  0  0  0  0  0  0  0  0  0
   44.5797    9.3135  -10.7482 C   0  0  0  0  0  0  0  0  0  0  0  0
   43.3635    5.5101   -1.1223 C   0  0  2  0  0  0  0  0  0  0  0  0
   42.3191    4.9802   -0.2522 N   0  0  0  0  0  0  0  0  0  0  0  0
   43.4373    0.4850   -4.2696 C   0  0  0  0  0  0  0  0  0  0  0  0
   40.7917    4.2724   -7.3111 C   0  0  2  0  0  0  0  0  0  0  0  0
   40.5247    5.3280   -8.3034 O   0  0  0  0  0  0  0  0  0  0  0  0
   37.1243    1.0678   -6.3767 C   0  0  2  0  0  0  0  0  0  0  0  0
   38.2067    0.1670   -5.8569 N   0  0  0  0  0  0  0  0  0  0  0  0
   43.6457    9.9916  -11.5659 C   0  0  0  0  0  0  0  0  0  0  0  0
   44.0875   10.7159  -12.6709 N   0  0  0  0  0  0  0  0  0  0  0  0
   42.9002    6.8500   -1.8448 C   0  0  1  0  0  0  0  0  0  0  0  0
   42.5551    7.8095   -0.8563 O   0  0  0  0  0  0  0  0  0  0  0  0
   43.3234    1.7086   -3.1919 C   0  0  2  0  0  0  0  0  0  0  0  0
   42.5339    1.3348   -2.0679 N   0  0  0  0  0  0  0  0  0  0  0  0
   39.7367    3.8151   -6.3330 C   0  0  2  0  0  0  0  0  0  0  0  0
   38.7000    2.9207   -6.1910 O   0  0  0  0  0  0  0  0  0  0  0  0
   36.1963    0.2991   -7.3836 C   0  0  1  0  0  0  0  0  0  0  0  0
   35.1601    1.2408   -7.8320 O   0  0  0  0  0  0  0  0  0  0  0  0
   44.0487    7.3617   -2.7450 C   0  0  2  0  0  0  0  0  0  0  0  0
   43.6516    8.6060   -3.4521 O   0  0  0  0  0  0  0  0  0  0  0  0
   42.6900    2.9764   -3.8866 C   0  0  2  0  0  0  0  0  0  0  0  0
   39.8975    4.8604   -5.1209 C   0  0  2  0  0  0  0  0  0  0  0  0
   41.2420    5.0097   -5.0566 O   0  0  0  0  0  0  0  0  0  0  0  0
   37.0955   -0.2442   -8.6326 C   0  0  2  0  0  0  0  0  0  0  0  0
   38.1364   -1.1891   -8.1688 O   0  0  0  0  0  0  0  0  0  0  0  0
   44.4312    6.2882   -3.8179 C   0  0  2  0  0  0  0  0  0  0  0  0
   44.7957    5.1063   -3.0598 O   0  0  0  0  0  0  0  0  0  0  0  0
   43.6014    3.3495   -5.1043 C   0  0  2  0  0  0  0  0  0  0  0  0
   42.9655    4.4902   -5.6281 O   0  0  0  0  0  0  0  0  0  0  0  0
   39.4354    4.4047   -3.6875 C   0  0  0  0  0  0  0  0  0  0  0  0
   39.8356    3.0152   -3.4668 O   0  0  0  0  0  0  0  0  0  0  0  0
   37.8122    0.9773   -9.3630 C   0  0  1  0  0  0  0  0  0  0  0  0
   38.6417    1.6921   -8.3169 O   0  0  0  0  0  0  0  0  0  0  0  0
   45.5422    6.8489   -4.6097 C   0  0  0  0  0  0  0  0  0  0  0  0
   45.9208    5.9860   -5.5622 O   0  0  0  0  0  0  0  0  0  0  0  0
   43.6681    2.1559   -6.1499 C   0  0  1  0  0  0  0  0  0  0  0  0
   44.4893    2.4967   -7.2249 O   0  0  0  0  0  0  0  0  0  0  0  0
   41.4612    5.7612   -9.3532 C   0  0  0  0  0  0  0  0  0  0  0  0
   38.6545    0.3386  -10.5187 C   0  0  0  0  0  0  0  0  0  0  0  0
   39.7762   -0.4178  -10.0411 N   0  0  0  0  0  0  0  0  0  0  0  0
   42.5656    6.6120   -8.7243 C   0  0  0  0  0  0  0  0  0  0  0  0
   43.1271    7.4462   -9.8045 N   0  0  0  0  0  0  0  0  0  0  0  0
   44.0506    8.6033   -9.4175 C   0  0  0  0  0  0  0  0  0  0  0  0
  1  2  1  6  0  0  0
  1  8  1  0  0  0  0
  1 33  1  0  0  0  0
  3  4  1  6  0  0  0
  3 10  1  0  0  0  0
  3 42  1  0  0  0  0
  5 11  1  0  0  0  0
  5 29  1  0  0  0  0
  5 35  1  1  0  0  0
  6 13  1  0  0  0  0
  6 39  1  0  0  0  0
  6 22  1  1  0  0  0
  7 15  1  0  0  0  0
  8  9  1  6  0  0  0
  8 17  1  0  0  0  0
 10 19  1  0  0  0  0
 11 12  1  1  0  0  0
 11 21  1  0  0  0  0
 12 44  1  0  0  0  0
 13 14  1  6  0  0  0
 13 23  1  0  0  0  0
 15 16  1  0  0  0  0
 17 18  1  1  0  0  0
 17 25  1  0  0  0  0
 19 20  1  1  0  0  0
 19 27  1  0  0  0  0
 21 22  1  6  0  0  0
 21 28  1  0  0  0  0
 23 24  1  6  0  0  0
 23 30  1  0  0  0  0
 25 26  1  6  0  0  0
 25 32  1  0  0  0  0
 27  2  1  1  0  0  0
 27 34  1  0  0  0  0
 28 29  1  0  0  0  0
 28 36  1  1  0  0  0
 30 31  1  1  0  0  0
 30 38  1  0  0  0  0
 32 33  1  0  0  0  0
 32 40  1  1  0  0  0
 34 35  1  6  0  0  0
 34 42  1  0  0  0  0
 36 37  1  0  0  0  0
 38 39  1  0  0  0  0
 38 45  1  6  0  0  0
 40 41  1  0  0  0  0
 42 43  1  6  0  0  0
 44 47  1  0  0  0  0
 45 46  1  0  0  0  0
 47 48  1  0  0  0  0
 48 49  1  0  0  0  0
 49  7  1  0  0  0  0
M  END
>  <CHROM.1>
-175.00034199,-40.54209134,164.76795105,174.59743022,70.62826793,-75.03784254
-26.95912090,55.09403852,40.66029967,-179.51355586,-70.78601375,-69.59575796
-157.53115472,167.57587457,177.52703251,66.10801990,41.66102103,4.02898812
-6.03227345,-0.02682191,0.86226734,2.00710790

>  <Name>
2bee_lig

>  <RI>
0

>  <Rbt.Current_Directory>
/home/itssahil/PROJECTS/Mol_Feturizer/New_Systems/rnas/2bee

>  <Rbt.Executable>
rbdock ($Id: //depot/dev/client3/rdock/2013.1/src/exe/rbdock.cxx#4 $)

>  <Rbt.Library>
libRbt.so (2013.1, Build901 2013/11/27)

>  <Rbt.Parameter_File>
/export/apps/rDock/src/rDock_2013.1_src/data/scripts/dock_solv.prm

>  <Rbt.Receptor>
prm/pocket_docking_8.prm

>  <SCORE>
-19.6481

>  <SCORE.INTER>
-8.36688

>  <SCORE.INTER.CONST>
1

>  <SCORE.INTER.POLAR>
-0.556349

>  <SCORE.INTER.ROT>
16

>  <SCORE.INTER.SOLV>
15.3394

>  <SCORE.INTER.VDW>
-23.1032

>  <SCORE.INTER.norm>
-0.170753

>  <SCORE.INTRA>
-11.2812

>  <SCORE.INTRA.DIHEDRAL>
-23.0248

>  <SCORE.INTRA.DIHEDRAL.0>
36.0842

>  <SCORE.INTRA.POLAR>
0

>  <SCORE.INTRA.POLAR.0>
0

>  <SCORE.INTRA.REPUL>
0

>  <SCORE.INTRA.REPUL.0>
0

>  <SCORE.INTRA.SOLV>
0.399883

>  <SCORE.INTRA.SOLV.lig_0>
-126.444

>  <SCORE.INTRA.VDW>
0.0312785

>  <SCORE.INTRA.VDW.0>
-7.40469

>  <SCORE.INTRA.norm>
-0.230228

>  <SCORE.RESTR>
0

>  <SCORE.RESTR.CAVITY>
0

>  <SCORE.RESTR.norm>
0

>  <SCORE.SYSTEM>
0

>  <SCORE.SYSTEM.CONST>
0

>  <SCORE.SYSTEM.DIHEDRAL>
0

>  <SCORE.SYSTEM.SOLV>
0

>  <SCORE.SYSTEM.norm>
0

>  <SCORE.heavy>
49

>  <SCORE.norm>
-0.400981

>  <RMSD>
8.772

$$$$
2bee_lig
 OpenBabel11021811423D
libRbt.so/2013.1/901 2013/11/27
 49 52  0  0  0  0  0  0  0  0999 V2000
   37.2950   -0.9815   -5.0197 C   0  0  2  0  0  0  0  0  0  0  0  0
   37.5537    0.3827   -5.3266 O   0  0  0  0  0  0  0  0  0  0  0  0
   40.9843   -0.0076   -8.0566 C   0  0  2  0  0  0  0  0  0  0  0  0
   41.9940    0.3554   -9.0879 N   0  0  0  0  0  0  0  0  0  0  0  0
   40.0741    2.6532   -4.4168 C   0  0  1  0  0  0  0  0  0  0  0  0
   42.5506    5.8229   -1.8086 C   0  0  1  0  0  0  0  0  0  0  0  0
   42.2853    6.3309   -9.7054 C   0  0  0  0  0  0  0  0  0  0  0  0
   36.2688   -1.0896   -3.8263 C   0  0  2  0  0  0  0  0  0  0  0  0
   35.0583   -0.3371   -4.1381 N   0  0  0  0  0  0  0  0  0  0  0  0
   39.5192    0.2000   -8.6552 C   0  0  0  0  0  0  0  0  0  0  0  0
   39.6846    3.8999   -3.6911 C   0  0  2  0  0  0  0  0  0  0  0  0
   39.0264    4.8894   -4.5618 O   0  0  0  0  0  0  0  0  0  0  0  0
   43.2221    5.6226   -0.3458 C   0  0  2  0  0  0  0  0  0  0  0  0
   42.1212    5.6063    0.6745 N   0  0  0  0  0  0  0  0  0  0  0  0
   43.6198    6.1972   -9.2558 C   0  0  0  0  0  0  0  0  0  0  0  0
   43.9678    6.6260   -7.9769 N   0  0  0  0  0  0  0  0  0  0  0  0
   36.9576   -0.5645   -2.4915 C   0  0  1  0  0  0  0  0  0  0  0  0
   36.0284   -0.6700   -1.4226 O   0  0  0  0  0  0  0  0  0  0  0  0
   38.3791   -0.1763   -7.5460 C   0  0  2  0  0  0  0  0  0  0  0  0
   37.0684   -0.0030   -8.0736 N   0  0  0  0  0  0  0  0  0  0  0  0
   41.0324    4.1637   -3.0646 C   0  0  2  0  0  0  0  0  0  0  0  0
   41.6250    4.7191   -1.9532 O   0  0  0  0  0  0  0  0  0  0  0  0
   44.2065    6.8177   -0.0833 C   0  0  1  0  0  0  0  0  0  0  0  0
   45.2573    6.7542   -1.1097 O   0  0  0  0  0  0  0  0  0  0  0  0
   38.2272   -1.4029   -2.2146 C   0  0  2  0  0  0  0  0  0  0  0  0
   38.9114   -0.9345   -0.9824 O   0  0  0  0  0  0  0  0  0  0  0  0
   38.5592    0.7285   -6.2654 C   0  0  2  0  0  0  0  0  0  0  0  0
   42.0569    3.6921   -4.2115 C   0  0  2  0  0  0  0  0  0  0  0  0
   41.4430    2.5875   -4.6982 O   0  0  0  0  0  0  0  0  0  0  0  0
   43.3769    8.2211   -0.1588 C   0  0  2  0  0  0  0  0  0  0  0  0
   42.3206    8.2724    0.8771 O   0  0  0  0  0  0  0  0  0  0  0  0
   39.2344   -1.2923   -3.4075 C   0  0  2  0  0  0  0  0  0  0  0  0
   38.4991   -1.7536   -4.5698 O   0  0  0  0  0  0  0  0  0  0  0  0
   40.0084    0.4905   -5.7217 C   0  0  2  0  0  0  0  0  0  0  0  0
   40.0508    1.3164   -4.5833 O   0  0  0  0  0  0  0  0  0  0  0  0
   43.4981    3.2383   -3.7722 C   0  0  0  0  0  0  0  0  0  0  0  0
   43.3894    2.1820   -2.7663 O   0  0  0  0  0  0  0  0  0  0  0  0
   42.6896    8.3743   -1.5883 C   0  0  1  0  0  0  0  0  0  0  0  0
   41.8020    7.1629   -1.7835 O   0  0  0  0  0  0  0  0  0  0  0  0
   40.3957   -2.1364   -3.0690 C   0  0  0  0  0  0  0  0  0  0  0  0
   41.2883   -2.1278   -4.0682 O   0  0  0  0  0  0  0  0  0  0  0  0
   41.0951    0.8944   -6.8072 C   0  0  1  0  0  0  0  0  0  0  0  0
   42.3809    0.6697   -6.3148 O   0  0  0  0  0  0  0  0  0  0  0  0
   39.7165    5.7642   -5.5239 C   0  0  0  0  0  0  0  0  0  0  0  0
   41.9127    9.7333   -1.5361 C   0  0  0  0  0  0  0  0  0  0  0  0
   40.7103    9.6606   -0.7567 N   0  0  0  0  0  0  0  0  0  0  0  0
   40.3381    4.9081   -6.6283 C   0  0  0  0  0  0  0  0  0  0  0  0
   41.0295    5.8342   -7.5460 N   0  0  0  0  0  0  0  0  0  0  0  0
   41.1572    5.4321   -9.0169 C   0  0  0  0  0  0  0  0  0  0  0  0
  1  2  1  1  0  0  0
  1  8  1  0  0  0  0
  1 33  1  0  0  0  0
  3  4  1  6  0  0  0
  3 10  1  0  0  0  0
  3 42  1  0  0  0  0
  5 11  1  0  0  0  0
  5 29  1  0  0  0  0
  5 35  1  1  0  0  0
  6 13  1  0  0  0  0
  6 39  1  0  0  0  0
  6 22  1  1  0  0  0
  7 15  1  0  0  0  0
  8  9  1  6  0  0  0
  8 17  1  0  0  0  0
 10 19  1  0  0  0  0
 11 12  1  6  0  0  0
 11 21  1  0  0  0  0
 12 44  1  0  0  0  0
 13 14  1  1  0  0  0
 13 23  1  0  0  0  0
 15 16  1  0  0  0  0
 17 18  1  1  0  0  0
 17 25  1  0  0  0  0
 19 20  1  6  0  0  0
 19 27  1  0  0  0  0
 21 22  1  6  0  0  0
 21 28  1  0  0  0  0
 23 24  1  6  0  0  0
 23 30  1  0  0  0  0
 25 26  1  1  0  0  0
 25 32  1  0  0  0  0
 27  2  1  1  0  0  0
 27 34  1  0  0  0  0
 28 29  1  0  0  0  0
 28 36  1  1  0  0  0
 30 31  1  1  0  0  0
 30 38  1  0  0  0  0
 32 33  1  0  0  0  0
 32 40  1  1  0  0  0
 34 35  1  1  0  0  0
 34 42  1  0  0  0  0
 36 37  1  0  0  0  0
 38 39  1  0  0  0  0
 38 45  1  1  0  0  0
 40 41  1  0  0  0  0
 42 43  1  1  0  0  0
 44 47  1  0  0  0  0
 45 46  1  0  0  0  0
 47 48  1  0  0  0  0
 48 49  1  0  0  0  0
 49  7  1  0  0  0  0
M  END
>  <CHROM.1>
172.91840428,142.48723306,-161.16749289,-68.20279129,-77.08126794,65.44358665
-118.85080190,47.23765658,54.67472459,177.98796844,-70.16258561,-74.64328413
-179.15810055,-151.10856332,-163.16462902,64.60801122,40.62087101,2.98617432
-4.21436094,2.61678873,-1.03432426,-1.77671188

>  <Name>
2bee_lig

>  <RI>
3.46266e+07

>  <Rbt.Current_Directory>
/home/itssahil/PROJECTS/Mol_Feturizer/New_Systems/rnas/2bee

>  <Rbt.Executable>
rbdock ($Id: //depot/dev/client3/rdock/2013.1/src/exe/rbdock.cxx#4 $)

>  <Rbt.Library>
libRbt.so (2013.1, Build901 2013/11/27)

>  <Rbt.Parameter_File>
/export/apps/rDock/src/rDock_2013.1_src/data/scripts/dock_solv.prm

>  <Rbt.Receptor>
prm/pocket_docking_4.prm

>  <SCORE>
-12.8277

>  <SCORE.INTER>
-4.20868

>  <SCORE.INTER.CONST>
1

>  <SCORE.INTER.POLAR>
-0.959166

>  <SCORE.INTER.ROT>
16

>  <SCORE.INTER.SOLV>
7.10552

>  <SCORE.INTER.VDW>
-16.2437

>  <SCORE.INTER.norm>
-0.0858914

>  <SCORE.INTRA>
-8.61902

>  <SCORE.INTRA.DIHEDRAL>
-22.0455

>  <SCORE.INTRA.DIHEDRAL.0>
36.0842

>  <SCORE.INTRA.POLAR>
0

>  <SCORE.INTRA.POLAR.0>
0

>  <SCORE.INTRA.REPUL>
0

>  <SCORE.INTRA.REPUL.0>
0

>  <SCORE.INTRA.SOLV>
1.18367

>  <SCORE.INTRA.SOLV.lig_0>
-126.444

>  <SCORE.INTRA.VDW>
1.81187

>  <SCORE.INTRA.VDW.0>
-7.40469

>  <SCORE.INTRA.norm>
-0.175898

>  <SCORE.RESTR>
0

>  <SCORE.RESTR.CAVITY>
0

>  <SCORE.RESTR.norm>
0

>  <SCORE.SYSTEM>
0

>  <SCORE.SYSTEM.CONST>
0

>  <SCORE.SYSTEM.DIHEDRAL>
0

>  <SCORE.SYSTEM.SOLV>
0

>  <SCORE.SYSTEM.norm>
0

>  <SCORE.heavy>
49

>  <SCORE.norm>
-0.26179

>  <RMSD>
8.782

$$$$
2bee_lig
 OpenBabel11021811423D
libRbt.so/2013.1/901 2013/11/27
 49 52  0  0  0  0  0  0  0  0999 V2000
   41.0728    8.5427    0.2060 C   0  0  2  0  0  0  0  0  0  0  0  0
   41.5300    7.2097    0.3961 O   0  0  0  0  0  0  0  0  0  0  0  0
   39.9168    3.4810    2.0900 C   0  0  2  0  0  0  0  0  0  0  0  0
   38.9285    2.4356    2.4709 N   0  0  0  0  0  0  0  0  0  0  0  0
   41.1779    4.1636   -2.2745 C   0  0  1  0  0  0  0  0  0  0  0  0
   38.6474    2.7607   -6.0961 C   0  0  1  0  0  0  0  0  0  0  0  0
   47.1617    1.4765   -3.7982 C   0  0  0  0  0  0  0  0  0  0  0  0
   40.5123    8.7264   -1.2572 C   0  0  2  0  0  0  0  0  0  0  0  0
   39.4834    7.7279   -1.5275 N   0  0  0  0  0  0  0  0  0  0  0  0
   39.4617    4.8853    2.6973 C   0  0  0  0  0  0  0  0  0  0  0  0
   40.6972    2.9735   -3.0396 C   0  0  2  0  0  0  0  0  0  0  0  0
   41.7713    2.0104   -3.3380 O   0  0  0  0  0  0  0  0  0  0  0  0
   38.2104    1.3680   -5.3888 C   0  0  2  0  0  0  0  0  0  0  0  0
   39.3344    0.9244   -4.4983 N   0  0  0  0  0  0  0  0  0  0  0  0
   48.1325    0.8719   -2.9657 C   0  0  0  0  0  0  0  0  0  0  0  0
   49.0177   -0.0632   -3.4974 N   0  0  0  0  0  0  0  0  0  0  0  0
   41.7132    8.6263   -2.2964 C   0  0  1  0  0  0  0  0  0  0  0  0
   41.2000    8.7974   -3.6096 O   0  0  0  0  0  0  0  0  0  0  0  0
   40.5168    6.0649    2.2889 C   0  0  2  0  0  0  0  0  0  0  0  0
   40.1241    7.3200    2.8337 N   0  0  0  0  0  0  0  0  0  0  0  0
   39.9927    3.7425   -4.1310 C   0  0  2  0  0  0  0  0  0  0  0  0
   38.9300    3.6666   -5.0027 O   0  0  0  0  0  0  0  0  0  0  0  0
   37.9373    0.3049   -6.5119 C   0  0  1  0  0  0  0  0  0  0  0  0
   36.8198    0.8042   -7.3265 O   0  0  0  0  0  0  0  0  0  0  0  0
   42.7639    9.7100   -1.9602 C   0  0  2  0  0  0  0  0  0  0  0  0
   43.9126    9.6416   -2.8992 O   0  0  0  0  0  0  0  0  0  0  0  0
   40.6135    6.1759    0.7175 C   0  0  2  0  0  0  0  0  0  0  0  0
   40.9476    5.0200   -4.3401 C   0  0  2  0  0  0  0  0  0  0  0  0
   41.3122    5.3080   -3.0680 O   0  0  0  0  0  0  0  0  0  0  0  0
   39.2901    0.1087   -7.4036 C   0  0  2  0  0  0  0  0  0  0  0  0
   40.4084   -0.3916   -6.5727 O   0  0  0  0  0  0  0  0  0  0  0  0
   43.3077    9.5208   -0.5048 C   0  0  2  0  0  0  0  0  0  0  0  0
   42.1376    9.5885    0.3500 O   0  0  0  0  0  0  0  0  0  0  0  0
   41.0585    4.7763    0.1739 C   0  0  2  0  0  0  0  0  0  0  0  0
   41.1345    4.9938   -1.2142 O   0  0  0  0  0  0  0  0  0  0  0  0
   40.3059    6.3332   -4.9229 C   0  0  0  0  0  0  0  0  0  0  0  0
   39.6906    6.0404   -6.2171 O   0  0  0  0  0  0  0  0  0  0  0  0
   39.7250    1.4982   -8.0512 C   0  0  1  0  0  0  0  0  0  0  0  0
   39.9170    2.4759   -6.9107 O   0  0  0  0  0  0  0  0  0  0  0  0
   44.2790   10.6046   -0.2648 C   0  0  0  0  0  0  0  0  0  0  0  0
   44.6262   10.6446    1.0287 O   0  0  0  0  0  0  0  0  0  0  0  0
   40.0000    3.6560    0.5572 C   0  0  1  0  0  0  0  0  0  0  0  0
   40.4116    2.4131    0.0755 O   0  0  0  0  0  0  0  0  0  0  0  0
   42.4512    1.1638   -2.3440 C   0  0  0  0  0  0  0  0  0  0  0  0
   41.0324    1.1935   -8.8579 C   0  0  0  0  0  0  0  0  0  0  0  0
   40.8434    0.1986   -9.8744 N   0  0  0  0  0  0  0  0  0  0  0  0
   43.5049    0.3071   -3.0474 C   0  0  0  0  0  0  0  0  0  0  0  0
   44.7128    1.1442   -3.1823 N   0  0  0  0  0  0  0  0  0  0  0  0
   45.8231    0.6640   -4.1192 C   0  0  0  0  0  0  0  0  0  0  0  0
  1  2  1  6  0  0  0
  1  8  1  0  0  0  0
  1 33  1  0  0  0  0
  3  4  1  6  0  0  0
  3 10  1  0  0  0  0
  3 42  1  0  0  0  0
  5 11  1  0  0  0  0
  5 29  1  0  0  0  0
  5 35  1  1  0  0  0
  6 13  1  0  0  0  0
  6 39  1  0  0  0  0
  6 22  1  1  0  0  0
  7 15  1  0  0  0  0
  8  9  1  6  0  0  0
  8 17  1  0  0  0  0
 10 19  1  0  0  0  0
 11 12  1  6  0  0  0
 11 21  1  0  0  0  0
 12 44  1  0  0  0  0
 13 14  1  1  0  0  0
 13 23  1  0  0  0  0
 15 16  1  0  0  0  0
 17 18  1  6  0  0  0
 17 25  1  0  0  0  0
 19 20  1  1  0  0  0
 19 27  1  0  0  0  0
 21 22  1  6  0  0  0
 21 28  1  0  0  0  0
 23 24  1  6  0  0  0
 23 30  1  0  0  0  0
 25 26  1  6  0  0  0
 25 32  1  0  0  0  0
 27  2  1  1  0  0  0
 27 34  1  0  0  0  0
 28 29  1  0  0  0  0
 28 36  1  1  0  0  0
 30 31  1  1  0  0  0
 30 38  1  0  0  0  0
 32 33  1  0  0  0  0
 32 40  1  1  0  0  0
 34 35  1  6  0  0  0
 34 42  1  0  0  0  0
 36 37  1  0  0  0  0
 38 39  1  0  0  0  0
 38 45  1  1  0  0  0
 40 41  1  0  0  0  0
 42 43  1  6  0  0  0
 44 47  1  0  0  0  0
 45 46  1  0  0  0  0
 47 48  1  0  0  0  0
 48 49  1  0  0  0  0
 49  7  1  0  0  0  0
M  END
>  <CHROM.1>
-82.16921554,45.84639445,74.44877528,80.73446930,69.72974950,-179.83575608
-63.34942883,-91.35114848,-57.34927277,169.86048712,-163.39613991,59.00559583
83.32965120,-166.62953066,-164.11664052,98.09240079,41.36793491,4.34174263
-2.80765552,1.44546666,-0.34986441,0.69407964

>  <Name>
2bee_lig

>  <RI>
0

>  <Rbt.Current_Directory>
/home/itssahil/PROJECTS/Mol_Feturizer/New_Systems/rnas/2bee

>  <Rbt.Executable>
rbdock ($Id: //depot/dev/client3/rdock/2013.1/src/exe/rbdock.cxx#4 $)

>  <Rbt.Library>
libRbt.so (2013.1, Build901 2013/11/27)

>  <Rbt.Parameter_File>
/export/apps/rDock/src/rDock_2013.1_src/data/scripts/dock_solv.prm

>  <Rbt.Receptor>
prm/pocket_docking_5.prm

>  <SCORE>
-13.0467

>  <SCORE.INTER>
-9.19048

>  <SCORE.INTER.CONST>
1

>  <SCORE.INTER.POLAR>
-1.43469

>  <SCORE.INTER.ROT>
16

>  <SCORE.INTER.SOLV>
13.7241

>  <SCORE.INTER.VDW>
-20.186

>  <SCORE.INTER.norm>
-0.187561

>  <SCORE.INTRA>
-3.90904

>  <SCORE.INTRA.DIHEDRAL>
-12.838

>  <SCORE.INTRA.DIHEDRAL.0>
36.0842

>  <SCORE.INTRA.POLAR>
0

>  <SCORE.INTRA.POLAR.0>
0

>  <SCORE.INTRA.REPUL>
0.0134967

>  <SCORE.INTRA.REPUL.0>
0

>  <SCORE.INTRA.SOLV>
4.45033

>  <SCORE.INTRA.SOLV.lig_0>
-126.444

>  <SCORE.INTRA.VDW>
0.217326

>  <SCORE.INTRA.VDW.0>
-7.40469

>  <SCORE.INTRA.norm>
-0.0797763

>  <SCORE.RESTR>
0.0527974

>  <SCORE.RESTR.CAVITY>
0.0527974

>  <SCORE.RESTR.norm>
0.0010775

>  <SCORE.SYSTEM>
0

>  <SCORE.SYSTEM.CONST>
0

>  <SCORE.SYSTEM.DIHEDRAL>
0

>  <SCORE.SYSTEM.SOLV>
0

>  <SCORE.SYSTEM.norm>
0

>  <SCORE.heavy>
49

>  <SCORE.norm>
-0.26626

>  <RMSD>
8.789

$$$$
2bee_lig
 OpenBabel11021811423D
libRbt.so/2013.1/901 2013/11/27
 49 52  0  0  0  0  0  0  0  0999 V2000
   42.8353    4.9217   -2.1004 C   0  0  2  0  0  0  0  0  0  0  0  0
   41.5694    5.3311   -1.5982 O   0  0  0  0  0  0  0  0  0  0  0  0
   37.8234    3.0955   -1.0120 C   0  0  2  0  0  0  0  0  0  0  0  0
   36.5723    2.3600   -1.3416 N   0  0  0  0  0  0  0  0  0  0  0  0
   41.9580    1.2842   -1.8080 C   0  0  1  0  0  0  0  0  0  0  0  0
   44.2536   -1.2077   -5.0099 C   0  0  1  0  0  0  0  0  0  0  0  0
   40.9310   -6.7405   -3.0837 C   0  0  0  0  0  0  0  0  0  0  0  0
   43.8806    6.0966   -1.9748 C   0  0  2  0  0  0  0  0  0  0  0  0
   43.9409    6.5669   -0.5950 N   0  0  0  0  0  0  0  0  0  0  0  0
   37.7825    4.5392   -1.6915 C   0  0  0  0  0  0  0  0  0  0  0  0
   42.0393   -0.0278   -2.5183 C   0  0  2  0  0  0  0  0  0  0  0  0
   41.5338   -1.1509   -1.7100 O   0  0  0  0  0  0  0  0  0  0  0  0
   45.7544   -1.3672   -5.6040 C   0  0  2  0  0  0  0  0  0  0  0  0
   46.2593   -0.0014   -5.9684 N   0  0  0  0  0  0  0  0  0  0  0  0
   40.3727   -7.3830   -4.2134 C   0  0  0  0  0  0  0  0  0  0  0  0
   40.8592   -8.6243   -4.6172 N   0  0  0  0  0  0  0  0  0  0  0  0
   43.4789    7.2667   -2.9756 C   0  0  1  0  0  0  0  0  0  0  0  0
   44.4276    8.3172   -2.8590 O   0  0  0  0  0  0  0  0  0  0  0  0
   39.1481    5.3753   -1.3633 C   0  0  2  0  0  0  0  0  0  0  0  0
   39.1172    6.6684   -1.9578 N   0  0  0  0  0  0  0  0  0  0  0  0
   43.4929    0.0781   -2.9115 C   0  0  2  0  0  0  0  0  0  0  0  0
   44.3869   -0.3057   -3.8854 O   0  0  0  0  0  0  0  0  0  0  0  0
   45.6914   -2.2935   -6.8705 C   0  0  1  0  0  0  0  0  0  0  0  0
   45.2047   -3.6087   -6.4286 O   0  0  0  0  0  0  0  0  0  0  0  0
   43.4374    6.7071   -4.4166 C   0  0  2  0  0  0  0  0  0  0  0  0
   43.0503    7.7657   -5.3837 O   0  0  0  0  0  0  0  0  0  0  0  0
   40.4036    4.5784   -1.8922 C   0  0  2  0  0  0  0  0  0  0  0  0
   44.1514    0.8199   -1.6451 C   0  0  2  0  0  0  0  0  0  0  0  0
   43.1942    1.7211   -1.3199 O   0  0  0  0  0  0  0  0  0  0  0  0
   44.6935   -1.6237   -7.9746 C   0  0  2  0  0  0  0  0  0  0  0  0
   45.1921   -0.2996   -8.4099 O   0  0  0  0  0  0  0  0  0  0  0  0
   42.4017    5.5388   -4.5269 C   0  0  2  0  0  0  0  0  0  0  0  0
   42.8347    4.5538   -3.5540 O   0  0  0  0  0  0  0  0  0  0  0  0
   40.3945    3.1737   -1.1998 C   0  0  2  0  0  0  0  0  0  0  0  0
   41.5529    2.5661   -1.7185 O   0  0  0  0  0  0  0  0  0  0  0  0
   45.4719    1.6435   -1.8770 C   0  0  0  0  0  0  0  0  0  0  0  0
   46.5477    0.7353   -2.2738 O   0  0  0  0  0  0  0  0  0  0  0  0
   43.2380   -1.4356   -7.3539 C   0  0  1  0  0  0  0  0  0  0  0  0
   43.3936   -0.5785   -6.1151 O   0  0  0  0  0  0  0  0  0  0  0  0
   42.4471    5.0545   -5.9194 C   0  0  0  0  0  0  0  0  0  0  0  0
   41.7854    5.8927   -6.7287 O   0  0  0  0  0  0  0  0  0  0  0  0
   39.0725    2.3714   -1.5617 C   0  0  1  0  0  0  0  0  0  0  0  0
   39.0721    1.1262   -0.9324 O   0  0  0  0  0  0  0  0  0  0  0  0
   41.5570   -2.5656   -2.1159 C   0  0  0  0  0  0  0  0  0  0  0  0
   42.3823   -0.7723   -8.4857 C   0  0  0  0  0  0  0  0  0  0  0  0
   40.9975   -0.6389   -8.1347 N   0  0  0  0  0  0  0  0  0  0  0  0
   40.8948   -3.4133   -1.0288 C   0  0  0  0  0  0  0  0  0  0  0  0
   41.0896   -4.8250   -1.4125 N   0  0  0  0  0  0  0  0  0  0  0  0
   40.2682   -5.3760   -2.5800 C   0  0  0  0  0  0  0  0  0  0  0  0
  1  2  1  6  0  0  0
  1  8  1  0  0  0  0
  1 33  1  0  0  0  0
  3  4  1  6  0  0  0
  3 10  1  0  0  0  0
  3 42  1  0  0  0  0
  5 11  1  0  0  0  0
  5 29  1  0  0  0  0
  5 35  1  6  0  0  0
  6 13  1  0  0  0  0
  6 39  1  0  0  0  0
  6 22  1  1  0  0  0
  7 15  1  0  0  0  0
  8  9  1  1  0  0  0
  8 17  1  0  0  0  0
 10 19  1  0  0  0  0
 11 12  1  1  0  0  0
 11 21  1  0  0  0  0
 12 44  1  0  0  0  0
 13 14  1  6  0  0  0
 13 23  1  0  0  0  0
 15 16  1  0  0  0  0
 17 18  1  6  0  0  0
 17 25  1  0  0  0  0
 19 20  1  6  0  0  0
 19 27  1  0  0  0  0
 21 22  1  1  0  0  0
 21 28  1  0  0  0  0
 23 24  1  1  0  0  0
 23 30  1  0  0  0  0
 25 26  1  6  0  0  0
 25 32  1  0  0  0  0
 27  2  1  1  0  0  0
 27 34  1  0  0  0  0
 28 29  1  0  0  0  0
 28 36  1  6  0  0  0
 30 31  1  1  0  0  0
 30 38  1  0  0  0  0
 32 33  1  0  0  0  0
 32 40  1  6  0  0  0
 34 35  1  6  0  0  0
 34 42  1  0  0  0  0
 36 37  1  0  0  0  0
 38 39  1  0  0  0  0
 38 45  1  6  0  0  0
 40 41  1  0  0  0  0
 42 43  1  1  0  0  0
 44 47  1  0  0  0  0
 45 46  1  0  0  0  0
 47 48  1  0  0  0  0
 48 49  1  0  0  0  0
 49  7  1  0  0  0  0
M  END
>  <CHROM.1>
164.77371449,89.33525888,-171.56800339,-175.06650225,-176.43036081,-177.86794778
-8.01450055,-172.71892292,-64.81194467,-77.14795220,-160.60846488,174.72705522
-173.43023240,-73.03362929,163.59504109,-176.38765995,42.32928123,1.27642292
-3.53707066,-1.64928724,-0.75661256,-3.01221039

>  <Name>
2bee_lig

>  <RI>
0

>  <Rbt.Current_Directory>
/home/itssahil/PROJECTS/Mol_Feturizer/New_Systems/rnas/2bee

>  <Rbt.Executable>
rbdock ($Id: //depot/dev/client3/rdock/2013.1/src/exe/rbdock.cxx#4 $)

>  <Rbt.Library>
libRbt.so (2013.1, Build901 2013/11/27)

>  <Rbt.Parameter_File>
/export/apps/rDock/src/rDock_2013.1_src/data/scripts/dock_solv.prm

>  <Rbt.Receptor>
prm/pocket_docking_8.prm

>  <SCORE>
-15.9722

>  <SCORE.INTER>
-3.54226

>  <SCORE.INTER.CONST>
1

>  <SCORE.INTER.POLAR>
-1.06842

>  <SCORE.INTER.ROT>
16

>  <SCORE.INTER.SOLV>
16.632

>  <SCORE.INTER.VDW>
-18.6108

>  <SCORE.INTER.norm>
-0.072291

>  <SCORE.INTRA>
-12.43

>  <SCORE.INTRA.DIHEDRAL>
-24.2974

>  <SCORE.INTRA.DIHEDRAL.0>
36.0842

>  <SCORE.INTRA.POLAR>
0

>  <SCORE.INTRA.POLAR.0>
0

>  <SCORE.INTRA.REPUL>
0

>  <SCORE.INTRA.REPUL.0>
0

>  <SCORE.INTRA.SOLV>
-4.85235

>  <SCORE.INTRA.SOLV.lig_0>
-126.444

>  <SCORE.INTRA.VDW>
2.14493

>  <SCORE.INTRA.VDW.0>
-7.40469

>  <SCORE.INTRA.norm>
-0.253673

>  <SCORE.RESTR>
0

>  <SCORE.RESTR.CAVITY>
0

>  <SCORE.RESTR.norm>
0

>  <SCORE.SYSTEM>
0

>  <SCORE.SYSTEM.CONST>
0

>  <SCORE.SYSTEM.DIHEDRAL>
0

>  <SCORE.SYSTEM.SOLV>
0

>  <SCORE.SYSTEM.norm>
0

>  <SCORE.heavy>
49

>  <SCORE.norm>
-0.325964

>  <RMSD>
8.798

$$$$
2bee_lig
 OpenBabel11021811423D
libRbt.so/2013.1/901 2013/11/27
 49 52  0  0  0  0  0  0  0  0999 V2000
   43.0976   10.9507  -13.9927 C   0  0  2  0  0  0  0  0  0  0  0  0
   44.3886   11.4851  -14.2568 O   0  0  0  0  0  0  0  0  0  0  0  0
   47.9537   11.7503  -11.6889 C   0  0  2  0  0  0  0  0  0  0  0  0
   48.8544   12.2090  -10.5965 N   0  0  0  0  0  0  0  0  0  0  0  0
   44.1698    9.3186  -10.8164 C   0  0  1  0  0  0  0  0  0  0  0  0
   47.1930    7.1010   -8.2699 C   0  0  1  0  0  0  0  0  0  0  0  0
   43.4123    7.7400   -4.6472 C   0  0  0  0  0  0  0  0  0  0  0  0
   42.2821   10.7996  -15.3347 C   0  0  2  0  0  0  0  0  0  0  0  0
   43.0413   10.0051  -16.2944 N   0  0  0  0  0  0  0  0  0  0  0  0
   47.5345   13.0005  -12.5884 C   0  0  0  0  0  0  0  0  0  0  0  0
   44.2373    8.0149  -10.0894 C   0  0  2  0  0  0  0  0  0  0  0  0
   42.9090    7.4364   -9.8232 O   0  0  0  0  0  0  0  0  0  0  0  0
   46.4935    5.6404   -8.1777 C   0  0  2  0  0  0  0  0  0  0  0  0
   45.7896    5.5431   -6.8555 N   0  0  0  0  0  0  0  0  0  0  0  0
   44.6687    7.0959   -4.5619 C   0  0  0  0  0  0  0  0  0  0  0  0
   44.8555    6.0556   -3.6543 N   0  0  0  0  0  0  0  0  0  0  0  0
   41.9423   12.2443  -15.9088 C   0  0  1  0  0  0  0  0  0  0  0  0
   41.2046   12.0982  -17.1136 O   0  0  0  0  0  0  0  0  0  0  0  0
   46.5322   12.5392  -13.7943 C   0  0  2  0  0  0  0  0  0  0  0  0
   46.1598   13.6462  -14.6080 N   0  0  0  0  0  0  0  0  0  0  0  0
   45.1380    8.4857   -8.9732 C   0  0  2  0  0  0  0  0  0  0  0  0
   46.1112    8.0485   -8.1033 O   0  0  0  0  0  0  0  0  0  0  0  0
   47.6130    4.5453   -8.2942 C   0  0  1  0  0  0  0  0  0  0  0  0
   48.2402    4.6978   -9.6152 O   0  0  0  0  0  0  0  0  0  0  0  0
   41.1357   13.0317  -14.8502 C   0  0  2  0  0  0  0  0  0  0  0  0
   40.8101   14.3953  -15.3407 O   0  0  0  0  0  0  0  0  0  0  0  0
   45.2388   11.8680  -13.1879 C   0  0  2  0  0  0  0  0  0  0  0  0
   44.6380    9.9942   -8.7241 C   0  0  2  0  0  0  0  0  0  0  0  0
   44.3985   10.4216   -9.9867 O   0  0  0  0  0  0  0  0  0  0  0  0
   48.6931    4.7536   -7.0886 C   0  0  2  0  0  0  0  0  0  0  0  0
   48.0498    4.6004   -5.7642 O   0  0  0  0  0  0  0  0  0  0  0  0
   41.9524   13.1697  -13.5222 C   0  0  2  0  0  0  0  0  0  0  0  0
   42.2412   11.8091  -13.1105 O   0  0  0  0  0  0  0  0  0  0  0  0
   45.7046   10.6541  -12.3149 C   0  0  2  0  0  0  0  0  0  0  0  0
   44.4874   10.1232  -11.8495 O   0  0  0  0  0  0  0  0  0  0  0  0
   45.6584   11.0159   -8.0989 C   0  0  0  0  0  0  0  0  0  0  0  0
   45.6151   12.2688   -8.8524 O   0  0  0  0  0  0  0  0  0  0  0  0
   49.3334    6.2103   -7.1731 C   0  0  1  0  0  0  0  0  0  0  0  0
   48.1892    7.2001   -7.1061 O   0  0  0  0  0  0  0  0  0  0  0  0
   41.1019   13.9080  -12.5696 C   0  0  0  0  0  0  0  0  0  0  0  0
   41.7143   14.0182  -11.3830 O   0  0  0  0  0  0  0  0  0  0  0  0
   46.6502   11.1349  -11.1330 C   0  0  1  0  0  0  0  0  0  0  0  0
   47.0653   10.0444  -10.3683 O   0  0  0  0  0  0  0  0  0  0  0  0
   42.6008    6.4806   -8.7468 C   0  0  0  0  0  0  0  0  0  0  0  0
   50.3279    6.3015   -5.9665 C   0  0  0  0  0  0  0  0  0  0  0  0
   51.5333    7.0105   -6.2876 N   0  0  0  0  0  0  0  0  0  0  0  0
   42.8733    7.1395   -7.3938 C   0  0  0  0  0  0  0  0  0  0  0  0
   42.2061    6.3077   -6.3736 N   0  0  0  0  0  0  0  0  0  0  0  0
   42.1194    6.8485   -4.9448 C   0  0  0  0  0  0  0  0  0  0  0  0
  1  2  1  6  0  0  0
  1  8  1  0  0  0  0
  1 33  1  0  0  0  0
  3  4  1  1  0  0  0
  3 10  1  0  0  0  0
  3 42  1  0  0  0  0
  5 11  1  0  0  0  0
  5 29  1  0  0  0  0
  5 35  1  6  0  0  0
  6 13  1  0  0  0  0
  6 39  1  0  0  0  0
  6 22  1  1  0  0  0
  7 15  1  0  0  0  0
  8  9  1  6  0  0  0
  8 17  1  0  0  0  0
 10 19  1  0  0  0  0
 11 12  1  1  0  0  0
 11 21  1  0  0  0  0
 12 44  1  0  0  0  0
 13 14  1  1  0  0  0
 13 23  1  0  0  0  0
 15 16  1  0  0  0  0
 17 18  1  6  0  0  0
 17 25  1  0  0  0  0
 19 20  1  1  0  0  0
 19 27  1  0  0  0  0
 21 22  1  1  0  0  0
 21 28  1  0  0  0  0
 23 24  1  6  0  0  0
 23 30  1  0  0  0  0
 25 26  1  6  0  0  0
 25 32  1  0  0  0  0
 27  2  1  6  0  0  0
 27 34  1  0  0  0  0
 28 29  1  0  0  0  0
 28 36  1  6  0  0  0
 30 31  1  1  0  0  0
 30 38  1  0  0  0  0
 32 33  1  0  0  0  0
 32 40  1  1  0  0  0
 34 35  1  1  0  0  0
 34 42  1  0  0  0  0
 36 37  1  0  0  0  0
 38 39  1  0  0  0  0
 38 45  1  1  0  0  0
 40 41  1  0  0  0  0
 42 43  1  1  0  0  0
 44 47  1  0  0  0  0
 45 46  1  0  0  0  0
 47 48  1  0  0  0  0
 48 49  1  0  0  0  0
 49  7  1  0  0  0  0
M  END
>  <CHROM.1>
171.97397000,-63.61682339,-77.53913490,-56.23427539,-156.09267186,62.19602374
36.75889605,-174.89713919,133.82854461,177.42396890,-160.10002990,141.75654737
164.47664550,-170.31980564,-32.28916152,-68.14305652,45.04329048,9.42622066
-10.20786180,1.94792226,0.03414581,-0.90388223

>  <Name>
2bee_lig

>  <RI>
0

>  <Rbt.Current_Directory>
/home/itssahil/PROJECTS/Mol_Feturizer/New_Systems/rnas/2bee

>  <Rbt.Executable>
rbdock ($Id: //depot/dev/client3/rdock/2013.1/src/exe/rbdock.cxx#4 $)

>  <Rbt.Library>
libRbt.so (2013.1, Build901 2013/11/27)

>  <Rbt.Parameter_File>
/export/apps/rDock/src/rDock_2013.1_src/data/scripts/dock_solv.prm

>  <Rbt.Receptor>
prm/blind_docking_60.prm

>  <SCORE>
13.1257

>  <SCORE.INTER>
-9.81135

>  <SCORE.INTER.CONST>
1

>  <SCORE.INTER.POLAR>
-0.689898

>  <SCORE.INTER.ROT>
16

>  <SCORE.INTER.SOLV>
33.3435

>  <SCORE.INTER.VDW>
-29.6224

>  <SCORE.INTER.norm>
-0.200232

>  <SCORE.INTRA>
-0.210235

>  <SCORE.INTRA.DIHEDRAL>
-14.7982

>  <SCORE.INTRA.DIHEDRAL.0>
36.0842

>  <SCORE.INTRA.POLAR>
0

>  <SCORE.INTRA.POLAR.0>
0

>  <SCORE.INTRA.REPUL>
0.00757937

>  <SCORE.INTRA.REPUL.0>
0

>  <SCORE.INTRA.SOLV>
3.31202

>  <SCORE.INTRA.SOLV.lig_0>
-126.444

>  <SCORE.INTRA.VDW>
5.49493

>  <SCORE.INTRA.VDW.0>
-7.40469

>  <SCORE.INTRA.norm>
-0.00429051

>  <SCORE.RESTR>
23.1473

>  <SCORE.RESTR.CAVITY>
23.1473

>  <SCORE.RESTR.norm>
0.472394

>  <SCORE.SYSTEM>
0

>  <SCORE.SYSTEM.CONST>
0

>  <SCORE.SYSTEM.DIHEDRAL>
0

>  <SCORE.SYSTEM.SOLV>
0

>  <SCORE.SYSTEM.norm>
0

>  <SCORE.heavy>
49

>  <SCORE.norm>
0.267872

>  <RMSD>
8.814

$$$$
2bee_lig
 OpenBabel11021811423D
libRbt.so/2013.1/901 2013/11/27
 49 52  0  0  0  0  0  0  0  0999 V2000
   40.8275   -0.2913   -7.0908 C   0  0  2  0  0  0  0  0  0  0  0  0
   41.6626    0.8249   -6.8100 O   0  0  0  0  0  0  0  0  0  0  0  0
   44.0265   -0.7481   -3.4467 C   0  0  2  0  0  0  0  0  0  0  0  0
   45.0535   -0.8072   -2.3713 N   0  0  0  0  0  0  0  0  0  0  0  0
   41.1516    2.7938   -3.8803 C   0  0  1  0  0  0  0  0  0  0  0  0
   41.5959    5.6414   -7.3280 C   0  0  1  0  0  0  0  0  0  0  0  0
   44.1222    9.9307   -1.4294 C   0  0  0  0  0  0  0  0  0  0  0  0
   39.9221    0.0044   -8.3485 C   0  0  2  0  0  0  0  0  0  0  0  0
   40.7534    0.3926   -9.4829 N   0  0  0  0  0  0  0  0  0  0  0  0
   44.7403   -0.4551   -4.8440 C   0  0  0  0  0  0  0  0  0  0  0  0
   41.9650    4.0396   -3.7426 C   0  0  2  0  0  0  0  0  0  0  0  0
   41.9355    4.5969   -2.3792 O   0  0  0  0  0  0  0  0  0  0  0  0
   42.4372    4.3123   -7.7239 C   0  0  2  0  0  0  0  0  0  0  0  0
   43.8242    4.4555   -7.1681 N   0  0  0  0  0  0  0  0  0  0  0  0
   43.4644   10.1210   -0.1918 C   0  0  0  0  0  0  0  0  0  0  0  0
   43.4114    9.0810    0.7335 N   0  0  0  0  0  0  0  0  0  0  0  0
   38.8660    1.1366   -7.9814 C   0  0  1  0  0  0  0  0  0  0  0  0
   38.0530    1.3925   -9.1174 O   0  0  0  0  0  0  0  0  0  0  0  0
   43.6420   -0.3694   -6.0514 C   0  0  2  0  0  0  0  0  0  0  0  0
   44.2702   -0.1172   -7.3037 N   0  0  0  0  0  0  0  0  0  0  0  0
   41.3586    4.7726   -4.9146 C   0  0  2  0  0  0  0  0  0  0  0  0
   41.6514    5.7064   -5.8828 O   0  0  0  0  0  0  0  0  0  0  0  0
   42.4742    4.1960   -9.2895 C   0  0  1  0  0  0  0  0  0  0  0  0
   41.0866    4.0444   -9.7512 O   0  0  0  0  0  0  0  0  0  0  0  0
   38.0158    0.6639   -6.7793 C   0  0  2  0  0  0  0  0  0  0  0  0
   37.0247    1.7004   -6.3928 O   0  0  0  0  0  0  0  0  0  0  0  0
   42.5963    0.7720   -5.7435 C   0  0  2  0  0  0  0  0  0  0  0  0
   39.8180    4.3126   -4.8643 C   0  0  2  0  0  0  0  0  0  0  0  0
   39.9270    3.0066   -4.5227 O   0  0  0  0  0  0  0  0  0  0  0  0
   43.1708    5.5353   -9.9095 C   0  0  2  0  0  0  0  0  0  0  0  0
   44.5659    5.6786   -9.4359 O   0  0  0  0  0  0  0  0  0  0  0  0
   38.9254    0.3682   -5.5403 C   0  0  2  0  0  0  0  0  0  0  0  0
   39.8678   -0.6379   -5.9921 O   0  0  0  0  0  0  0  0  0  0  0  0
   41.9296    0.4394   -4.3660 C   0  0  2  0  0  0  0  0  0  0  0  0
   41.0116    1.4935   -4.2045 O   0  0  0  0  0  0  0  0  0  0  0  0
   38.9926    4.3507   -6.2033 C   0  0  0  0  0  0  0  0  0  0  0  0
   38.7811    5.7413   -6.6045 O   0  0  0  0  0  0  0  0  0  0  0  0
   42.3533    6.8307   -9.4703 C   0  0  1  0  0  0  0  0  0  0  0  0
   42.3208    6.8399   -7.9563 O   0  0  0  0  0  0  0  0  0  0  0  0
   38.0384   -0.0962   -4.4572 C   0  0  0  0  0  0  0  0  0  0  0  0
   37.4910   -1.2774   -4.7740 O   0  0  0  0  0  0  0  0  0  0  0  0
   43.0143    0.3942   -3.2069 C   0  0  1  0  0  0  0  0  0  0  0  0
   42.4100    0.0886   -1.9872 O   0  0  0  0  0  0  0  0  0  0  0  0
   42.3677    5.9544   -2.0086 C   0  0  0  0  0  0  0  0  0  0  0  0
   43.1194    8.0431  -10.0999 C   0  0  0  0  0  0  0  0  0  0  0  0
   44.3838    8.2939   -9.4698 N   0  0  0  0  0  0  0  0  0  0  0  0
   43.8469    6.1257   -2.3575 C   0  0  0  0  0  0  0  0  0  0  0  0
   44.2753    7.4119   -1.7741 N   0  0  0  0  0  0  0  0  0  0  0  0
   43.6770    8.6990   -2.3457 C   0  0  0  0  0  0  0  0  0  0  0  0
  1  2  1  1  0  0  0
  1  8  1  0  0  0  0
  1 33  1  0  0  0  0
  3  4  1  1  0  0  0
  3 10  1  0  0  0  0
  3 42  1  0  0  0  0
  5 11  1  0  0  0  0
  5 29  1  0  0  0  0
  5 35  1  6  0  0  0
  6 13  1  0  0  0  0
  6 39  1  0  0  0  0
  6 22  1  1  0  0  0
  7 15  1  0  0  0  0
  8  9  1  6  0  0  0
  8 17  1  0  0  0  0
 10 19  1  0  0  0  0
 11 12  1  1  0  0  0
 11 21  1  0  0  0  0
 12 44  1  0  0  0  0
 13 14  1  6  0  0  0
 13 23  1  0  0  0  0
 15 16  1  0  0  0  0
 17 18  1  6  0  0  0
 17 25  1  0  0  0  0
 19 20  1  6  0  0  0
 19 27  1  0  0  0  0
 21 22  1  1  0  0  0
 21 28  1  0  0  0  0
 23 24  1  6  0  0  0
 23 30  1  0  0  0  0
 25 26  1  1  0  0  0
 25 32  1  0  0  0  0
 27  2  1  6  0  0  0
 27 34  1  0  0  0  0
 28 29  1  0  0  0  0
 28 36  1  6  0  0  0
 30 31  1  1  0  0  0
 30 38  1  0  0  0  0
 32 33  1  0  0  0  0
 32 40  1  1  0  0  0
 34 35  1  1  0  0  0
 34 42  1  0  0  0  0
 36 37  1  0  0  0  0
 38 39  1  0  0  0  0
 38 45  1  1  0  0  0
 40 41  1  0  0  0  0
 42 43  1  1  0  0  0
 44 47  1  0  0  0  0
 45 46  1  0  0  0  0
 47 48  1  0  0  0  0
 48 49  1  0  0  0  0
 49  7  1  0  0  0  0
M  END
>  <CHROM.1>
-178.01402611,19.34287022,-51.80310092,54.54946062,-165.07191430,-60.66753286
122.21425768,62.56824753,-69.05229152,66.32839301,-74.75020485,-70.70113959
-171.20117824,-66.64128049,171.96890704,-77.03853751,41.67883478,3.38025004
-5.63939257,2.95186265,1.19234099,2.13372032

>  <Name>
2bee_lig

>  <RI>
0

>  <Rbt.Current_Directory>
/home/itssahil/PROJECTS/Mol_Feturizer/New_Systems/rnas/2bee

>  <Rbt.Executable>
rbdock ($Id: //depot/dev/client3/rdock/2013.1/src/exe/rbdock.cxx#4 $)

>  <Rbt.Library>
libRbt.so (2013.1, Build901 2013/11/27)

>  <Rbt.Parameter_File>
/export/apps/rDock/src/rDock_2013.1_src/data/scripts/dock_solv.prm

>  <Rbt.Receptor>
prm/pocket_docking_5.prm

>  <SCORE>
-18.019

>  <SCORE.INTER>
-8.60952

>  <SCORE.INTER.CONST>
1

>  <SCORE.INTER.POLAR>
-0.959166

>  <SCORE.INTER.ROT>
16

>  <SCORE.INTER.SOLV>
16.4207

>  <SCORE.INTER.VDW>
-22.2827

>  <SCORE.INTER.norm>
-0.175704

>  <SCORE.INTRA>
-9.42687

>  <SCORE.INTRA.DIHEDRAL>
-23.4145

>  <SCORE.INTRA.DIHEDRAL.0>
36.0842

>  <SCORE.INTRA.POLAR>
0

>  <SCORE.INTRA.POLAR.0>
0

>  <SCORE.INTRA.REPUL>
0

>  <SCORE.INTRA.REPUL.0>
0

>  <SCORE.INTRA.SOLV>
3.41382

>  <SCORE.INTRA.SOLV.lig_0>
-126.444

>  <SCORE.INTRA.VDW>
0.573485

>  <SCORE.INTRA.VDW.0>
-7.40469

>  <SCORE.INTRA.norm>
-0.192385

>  <SCORE.RESTR>
0.0173773

>  <SCORE.RESTR.CAVITY>
0.0173773

>  <SCORE.RESTR.norm>
0.00035464

>  <SCORE.SYSTEM>
0

>  <SCORE.SYSTEM.CONST>
0

>  <SCORE.SYSTEM.DIHEDRAL>
0

>  <SCORE.SYSTEM.SOLV>
0

>  <SCORE.SYSTEM.norm>
0

>  <SCORE.heavy>
49

>  <SCORE.norm>
-0.367735

>  <RMSD>
8.820

$$$$
2bee_lig
 OpenBabel11021811423D
libRbt.so/2013.1/901 2013/11/27
 49 52  0  0  0  0  0  0  0  0999 V2000
   41.3503    8.4008   -1.0998 C   0  0  2  0  0  0  0  0  0  0  0  0
   41.5559    7.3236   -0.1946 O   0  0  0  0  0  0  0  0  0  0  0  0
   39.6010    3.5117    0.8162 C   0  0  2  0  0  0  0  0  0  0  0  0
   38.5160    2.5322    1.0961 N   0  0  0  0  0  0  0  0  0  0  0  0
   40.9015    5.1725   -3.4178 C   0  0  1  0  0  0  0  0  0  0  0  0
   43.1880    6.6980   -7.3450 C   0  0  1  0  0  0  0  0  0  0  0  0
   39.3919   -0.9088   -4.0118 C   0  0  0  0  0  0  0  0  0  0  0  0
   42.5335    9.4390   -0.9940 C   0  0  2  0  0  0  0  0  0  0  0  0
   43.8110    8.7633   -1.1943 N   0  0  0  0  0  0  0  0  0  0  0  0
   39.4539    4.7593    1.8009 C   0  0  0  0  0  0  0  0  0  0  0  0
   40.6216    5.0264   -4.8782 C   0  0  2  0  0  0  0  0  0  0  0  0
   40.4958    3.6208   -5.3011 O   0  0  0  0  0  0  0  0  0  0  0  0
   42.4846    6.9598   -8.7829 C   0  0  2  0  0  0  0  0  0  0  0  0
   41.4276    5.9129   -8.9825 N   0  0  0  0  0  0  0  0  0  0  0  0
   39.1459   -0.2146   -2.8042 C   0  0  0  0  0  0  0  0  0  0  0  0
   39.6310   -0.7216   -1.6007 N   0  0  0  0  0  0  0  0  0  0  0  0
   42.4704   10.1654    0.4203 C   0  0  1  0  0  0  0  0  0  0  0  0
   43.5357   11.1008    0.5045 O   0  0  0  0  0  0  0  0  0  0  0  0
   40.6219    5.8664    1.5154 C   0  0  2  0  0  0  0  0  0  0  0  0
   40.5046    6.9793    2.3952 N   0  0  0  0  0  0  0  0  0  0  0  0
   41.7518    5.9037   -5.3596 C   0  0  2  0  0  0  0  0  0  0  0  0
   42.1090    6.7542   -6.3814 O   0  0  0  0  0  0  0  0  0  0  0  0
   43.5845    6.8602   -9.8993 C   0  0  1  0  0  0  0  0  0  0  0  0
   44.5681    7.9223   -9.6424 O   0  0  0  0  0  0  0  0  0  0  0  0
   41.0988   10.8640    0.5687 C   0  0  2  0  0  0  0  0  0  0  0  0
   40.9914   11.5434    1.8851 O   0  0  0  0  0  0  0  0  0  0  0  0
   40.5356    6.3618    0.0194 C   0  0  2  0  0  0  0  0  0  0  0  0
   42.9249    5.5832   -4.3067 C   0  0  2  0  0  0  0  0  0  0  0  0
   42.2378    5.4835   -3.1440 O   0  0  0  0  0  0  0  0  0  0  0  0
   44.2704    5.3802   -9.8445 C   0  0  2  0  0  0  0  0  0  0  0  0
   43.2705    4.3194  -10.1020 O   0  0  0  0  0  0  0  0  0  0  0  0
   39.9335    9.8252    0.4560 C   0  0  2  0  0  0  0  0  0  0  0  0
   40.1073    9.1983   -0.8406 O   0  0  0  0  0  0  0  0  0  0  0  0
   40.6815    5.1035   -0.9015 C   0  0  2  0  0  0  0  0  0  0  0  0
   40.6149    5.6569   -2.1936 O   0  0  0  0  0  0  0  0  0  0  0  0
   44.0279    6.6810   -4.0744 C   0  0  0  0  0  0  0  0  0  0  0  0
   44.8355    6.3197   -2.9096 O   0  0  0  0  0  0  0  0  0  0  0  0
   44.9148    5.1285   -8.4091 C   0  0  1  0  0  0  0  0  0  0  0  0
   43.8050    5.2931   -7.3918 O   0  0  0  0  0  0  0  0  0  0  0  0
   38.6721   10.5789    0.5844 C   0  0  0  0  0  0  0  0  0  0  0  0
   37.6282    9.7403    0.6331 O   0  0  0  0  0  0  0  0  0  0  0  0
   39.5163    4.0602   -0.6256 C   0  0  1  0  0  0  0  0  0  0  0  0
   39.6622    2.9407   -1.4451 O   0  0  0  0  0  0  0  0  0  0  0  0
   40.1570    3.1718   -6.6615 C   0  0  0  0  0  0  0  0  0  0  0  0
   45.5179    3.6842   -8.4680 C   0  0  0  0  0  0  0  0  0  0  0  0
   44.5142    2.6589   -8.4753 N   0  0  0  0  0  0  0  0  0  0  0  0
   39.1454    2.0279   -6.5778 C   0  0  0  0  0  0  0  0  0  0  0  0
   39.6839    1.0540   -5.6085 N   0  0  0  0  0  0  0  0  0  0  0  0
   38.9073   -0.2450   -5.3827 C   0  0  0  0  0  0  0  0  0  0  0  0
  1  2  1  1  0  0  0
  1  8  1  0  0  0  0
  1 33  1  0  0  0  0
  3  4  1  1  0  0  0
  3 10  1  0  0  0  0
  3 42  1  0  0  0  0
  5 11  1  0  0  0  0
  5 29  1  0  0  0  0
  5 35  1  6  0  0  0
  6 13  1  0  0  0  0
  6 39  1  0  0  0  0
  6 22  1  1  0  0  0
  7 15  1  0  0  0  0
  8  9  1  1  0  0  0
  8 17  1  0  0  0  0
 10 19  1  0  0  0  0
 11 12  1  6  0  0  0
 11 21  1  0  0  0  0
 12 44  1  0  0  0  0
 13 14  1  6  0  0  0
 13 23  1  0  0  0  0
 15 16  1  0  0  0  0
 17 18  1  6  0  0  0
 17 25  1  0  0  0  0
 19 20  1  1  0  0  0
 19 27  1  0  0  0  0
 21 22  1  6  0  0  0
 21 28  1  0  0  0  0
 23 24  1  1  0  0  0
 23 30  1  0  0  0  0
 25 26  1  1  0  0  0
 25 32  1  0  0  0  0
 27  2  1  6  0  0  0
 27 34  1  0  0  0  0
 28 29  1  0  0  0  0
 28 36  1  1  0  0  0
 30 31  1  1  0  0  0
 30 38  1  0  0  0  0
 32 33  1  0  0  0  0
 32 40  1  6  0  0  0
 34 35  1  6  0  0  0
 34 42  1  0  0  0  0
 36 37  1  0  0  0  0
 38 39  1  0  0  0  0
 38 45  1  6  0  0  0
 40 41  1  0  0  0  0
 42 43  1  6  0  0  0
 44 47  1  0  0  0  0
 45 46  1  0  0  0  0
 47 48  1  0  0  0  0
 48 49  1  0  0  0  0
 49  7  1  0  0  0  0
M  END
>  <CHROM.1>
171.41717014,140.63504926,130.83781470,-175.83284410,176.82809556,-137.00312239
-119.17648944,-147.35497138,168.83681946,-173.77434368,166.48385391,-71.68152551
-49.69824354,-176.60194415,-162.36310753,64.57726250,41.45386486,5.74265002
-3.39978056,-2.01657745,-1.03104124,-2.40726999

>  <Name>
2bee_lig

>  <RI>
3.46266e+07

>  <Rbt.Current_Directory>
/home/itssahil/PROJECTS/Mol_Feturizer/New_Systems/rnas/2bee

>  <Rbt.Executable>
rbdock ($Id: //depot/dev/client3/rdock/2013.1/src/exe/rbdock.cxx#4 $)

>  <Rbt.Library>
libRbt.so (2013.1, Build901 2013/11/27)

>  <Rbt.Parameter_File>
/export/apps/rDock/src/rDock_2013.1_src/data/scripts/dock_solv.prm

>  <Rbt.Receptor>
prm/pocket_docking_4.prm

>  <SCORE>
-5.7027

>  <SCORE.INTER>
-2.66143

>  <SCORE.INTER.CONST>
1

>  <SCORE.INTER.POLAR>
-0.955647

>  <SCORE.INTER.ROT>
16

>  <SCORE.INTER.SOLV>
11.839

>  <SCORE.INTER.VDW>
-16.8018

>  <SCORE.INTER.norm>
-0.0543149

>  <SCORE.INTRA>
-3.46022

>  <SCORE.INTRA.DIHEDRAL>
-8.76578

>  <SCORE.INTRA.DIHEDRAL.0>
36.0842

>  <SCORE.INTRA.POLAR>
0

>  <SCORE.INTRA.POLAR.0>
0

>  <SCORE.INTRA.REPUL>
0.00186356

>  <SCORE.INTRA.REPUL.0>
0

>  <SCORE.INTRA.SOLV>
1.59094

>  <SCORE.INTRA.SOLV.lig_0>
-126.444

>  <SCORE.INTRA.VDW>
0.11788

>  <SCORE.INTRA.VDW.0>
-7.40469

>  <SCORE.INTRA.norm>
-0.0706168

>  <SCORE.RESTR>
0.418954

>  <SCORE.RESTR.CAVITY>
0.418954

>  <SCORE.RESTR.norm>
0.00855009

>  <SCORE.SYSTEM>
0

>  <SCORE.SYSTEM.CONST>
0

>  <SCORE.SYSTEM.DIHEDRAL>
0

>  <SCORE.SYSTEM.SOLV>
0

>  <SCORE.SYSTEM.norm>
0

>  <SCORE.heavy>
49

>  <SCORE.norm>
-0.116382

>  <RMSD>
8.821

$$$$
2bee_lig
 OpenBabel11021811423D
libRbt.so/2013.1/901 2013/11/27
 49 52  0  0  0  0  0  0  0  0999 V2000
   39.5709   -1.5155   -6.0691 C   0  0  2  0  0  0  0  0  0  0  0  0
   39.6215   -0.6417   -7.1899 O   0  0  0  0  0  0  0  0  0  0  0  0
   43.8315    0.6355   -7.0534 C   0  0  2  0  0  0  0  0  0  0  0  0
   45.1229    1.2312   -7.4920 N   0  0  0  0  0  0  0  0  0  0  0  0
   40.1285    3.1745   -5.9432 C   0  0  1  0  0  0  0  0  0  0  0  0
   43.8276    5.6255   -5.4590 C   0  0  1  0  0  0  0  0  0  0  0  0
   43.4249    5.2019   -1.0375 C   0  0  0  0  0  0  0  0  0  0  0  0
   38.1512   -2.1960   -5.9685 C   0  0  2  0  0  0  0  0  0  0  0  0
   37.8261   -2.8627   -7.2249 N   0  0  0  0  0  0  0  0  0  0  0  0
   43.3780   -0.4765   -8.1049 C   0  0  0  0  0  0  0  0  0  0  0  0
   40.3881    4.1679   -4.8577 C   0  0  2  0  0  0  0  0  0  0  0  0
   39.1521    4.6947   -4.2537 O   0  0  0  0  0  0  0  0  0  0  0  0
   44.5015    7.0269   -4.9978 C   0  0  2  0  0  0  0  0  0  0  0  0
   44.1075    8.0826   -5.9895 N   0  0  0  0  0  0  0  0  0  0  0  0
   43.3772    6.5957   -1.2743 C   0  0  0  0  0  0  0  0  0  0  0  0
   44.5591    7.3305   -1.3346 N   0  0  0  0  0  0  0  0  0  0  0  0
   37.0660   -1.0949   -5.5917 C   0  0  1  0  0  0  0  0  0  0  0  0
   35.7928   -1.7173   -5.4988 O   0  0  0  0  0  0  0  0  0  0  0  0
   41.9537   -1.1467   -7.6647 C   0  0  2  0  0  0  0  0  0  0  0  0
   41.5452   -2.1465   -8.5919 N   0  0  0  0  0  0  0  0  0  0  0  0
   41.3243    5.0485   -5.6495 C   0  0  2  0  0  0  0  0  0  0  0  0
   42.4051    5.8897   -5.5095 O   0  0  0  0  0  0  0  0  0  0  0  0
   46.0609    6.8430   -4.9707 C   0  0  1  0  0  0  0  0  0  0  0  0
   46.3635    5.8092   -3.9700 O   0  0  0  0  0  0  0  0  0  0  0  0
   37.4637   -0.4310   -4.2529 C   0  0  2  0  0  0  0  0  0  0  0  0
   36.4830    0.6169   -3.8708 O   0  0  0  0  0  0  0  0  0  0  0  0
   40.8438   -0.0288   -7.5670 C   0  0  2  0  0  0  0  0  0  0  0  0
   40.6950    4.9983   -7.1290 C   0  0  2  0  0  0  0  0  0  0  0  0
   40.3105    3.7033   -7.2256 O   0  0  0  0  0  0  0  0  0  0  0  0
   46.5745    6.4084   -6.4576 C   0  0  2  0  0  0  0  0  0  0  0  0
   46.2622    7.4552   -7.4566 O   0  0  0  0  0  0  0  0  0  0  0  0
   38.8757    0.2352   -4.3635 C   0  0  2  0  0  0  0  0  0  0  0  0
   39.7733   -0.8381   -4.7468 O   0  0  0  0  0  0  0  0  0  0  0  0
   41.3379    1.0347   -6.5290 C   0  0  2  0  0  0  0  0  0  0  0  0
   40.2767    1.9583   -6.5039 O   0  0  0  0  0  0  0  0  0  0  0  0
   41.6534    5.2658   -8.3479 C   0  0  0  0  0  0  0  0  0  0  0  0
   42.6347    4.1851   -8.4409 O   0  0  0  0  0  0  0  0  0  0  0  0
   45.8655    5.0541   -6.9074 C   0  0  1  0  0  0  0  0  0  0  0  0
   44.3720    5.2997   -6.8569 O   0  0  0  0  0  0  0  0  0  0  0  0
   39.1804    0.8180   -3.0433 C   0  0  0  0  0  0  0  0  0  0  0  0
   39.3099   -0.1477   -2.1235 O   0  0  0  0  0  0  0  0  0  0  0  0
   42.7057    1.6920   -6.9976 C   0  0  1  0  0  0  0  0  0  0  0  0
   43.1398    2.6306   -6.0612 O   0  0  0  0  0  0  0  0  0  0  0  0
   38.9237    4.8752   -2.8107 C   0  0  0  0  0  0  0  0  0  0  0  0
   46.4144    4.7504   -8.3426 C   0  0  0  0  0  0  0  0  0  0  0  0
   47.8296    4.5147   -8.3618 N   0  0  0  0  0  0  0  0  0  0  0  0
   40.1341    5.5763   -2.1922 C   0  0  0  0  0  0  0  0  0  0  0  0
   41.2429    4.6024   -2.2064 N   0  0  0  0  0  0  0  0  0  0  0  0
   42.0455    4.4031   -0.9190 C   0  0  0  0  0  0  0  0  0  0  0  0
  1  2  1  6  0  0  0
  1  8  1  0  0  0  0
  1 33  1  0  0  0  0
  3  4  1  6  0  0  0
  3 10  1  0  0  0  0
  3 42  1  0  0  0  0
  5 11  1  0  0  0  0
  5 29  1  0  0  0  0
  5 35  1  1  0  0  0
  6 13  1  0  0  0  0
  6 39  1  0  0  0  0
  6 22  1  6  0  0  0
  7 15  1  0  0  0  0
  8  9  1  6  0  0  0
  8 17  1  0  0  0  0
 10 19  1  0  0  0  0
 11 12  1  6  0  0  0
 11 21  1  0  0  0  0
 12 44  1  0  0  0  0
 13 14  1  6  0  0  0
 13 23  1  0  0  0  0
 15 16  1  0  0  0  0
 17 18  1  1  0  0  0
 17 25  1  0  0  0  0
 19 20  1  6  0  0  0
 19 27  1  0  0  0  0
 21 22  1  1  0  0  0
 21 28  1  0  0  0  0
 23 24  1  1  0  0  0
 23 30  1  0  0  0  0
 25 26  1  6  0  0  0
 25 32  1  0  0  0  0
 27  2  1  1  0  0  0
 27 34  1  0  0  0  0
 28 29  1  0  0  0  0
 28 36  1  6  0  0  0
 30 31  1  6  0  0  0
 30 38  1  0  0  0  0
 32 33  1  0  0  0  0
 32 40  1  1  0  0  0
 34 35  1  6  0  0  0
 34 42  1  0  0  0  0
 36 37  1  0  0  0  0
 38 39  1  0  0  0  0
 38 45  1  6  0  0  0
 40 41  1  0  0  0  0
 42 43  1  1  0  0  0
 44 47  1  0  0  0  0
 45 46  1  0  0  0  0
 47 48  1  0  0  0  0
 48 49  1  0  0  0  0
 49  7  1  0  0  0  0
M  END
>  <CHROM.1>
-173.13458730,-33.70956387,-169.44943611,177.67534693,136.06909125,47.20827150
85.06015915,50.41937672,66.16497113,65.62347958,-171.08671540,63.22495017
-70.48844791,-131.52039979,-101.47158341,57.93535879,41.77023483,2.91087279
-5.53174249,-2.56573433,0.63361612,0.76668184

>  <Name>
2bee_lig

>  <RI>
3.46266e+07

>  <Rbt.Current_Directory>
/home/itssahil/PROJECTS/Mol_Feturizer/New_Systems/rnas/2bee

>  <Rbt.Executable>
rbdock ($Id: //depot/dev/client3/rdock/2013.1/src/exe/rbdock.cxx#4 $)

>  <Rbt.Library>
libRbt.so (2013.1, Build901 2013/11/27)

>  <Rbt.Parameter_File>
/export/apps/rDock/src/rDock_2013.1_src/data/scripts/dock_solv.prm

>  <Rbt.Receptor>
prm/pocket_docking_4.prm

>  <SCORE>
-4.61232

>  <SCORE.INTER>
3.45549

>  <SCORE.INTER.CONST>
1

>  <SCORE.INTER.POLAR>
-1.28266

>  <SCORE.INTER.ROT>
16

>  <SCORE.INTER.SOLV>
11.9704

>  <SCORE.INTER.VDW>
-11.6776

>  <SCORE.INTER.norm>
0.0705201

>  <SCORE.INTRA>
-8.09804

>  <SCORE.INTRA.DIHEDRAL>
-17.8502

>  <SCORE.INTRA.DIHEDRAL.0>
36.0842

>  <SCORE.INTRA.POLAR>
0

>  <SCORE.INTRA.POLAR.0>
0

>  <SCORE.INTRA.REPUL>
0

>  <SCORE.INTRA.REPUL.0>
0

>  <SCORE.INTRA.SOLV>
5.10112

>  <SCORE.INTRA.SOLV.lig_0>
-126.444

>  <SCORE.INTRA.VDW>
-1.72351

>  <SCORE.INTRA.VDW.0>
-7.40469

>  <SCORE.INTRA.norm>
-0.165266

>  <SCORE.RESTR>
0.0302327

>  <SCORE.RESTR.CAVITY>
0.0302327

>  <SCORE.RESTR.norm>
0.000616994

>  <SCORE.SYSTEM>
0

>  <SCORE.SYSTEM.CONST>
0

>  <SCORE.SYSTEM.DIHEDRAL>
0

>  <SCORE.SYSTEM.SOLV>
0

>  <SCORE.SYSTEM.norm>
0

>  <SCORE.heavy>
49

>  <SCORE.norm>
-0.0941289

>  <RMSD>
8.835

$$$$
2bee_lig
 OpenBabel11021811423D
libRbt.so/2013.1/901 2013/11/27
 49 52  0  0  0  0  0  0  0  0999 V2000
   42.4822    8.6850   -0.9343 C   0  0  2  0  0  0  0  0  0  0  0  0
   43.1767    7.5873   -0.3557 O   0  0  0  0  0  0  0  0  0  0  0  0
   44.1392    3.4606   -1.5465 C   0  0  2  0  0  0  0  0  0  0  0  0
   43.9466    2.0744   -2.0527 N   0  0  0  0  0  0  0  0  0  0  0  0
   42.9455    6.9605   -4.1343 C   0  0  1  0  0  0  0  0  0  0  0  0
   40.6322    3.5321   -6.1678 C   0  0  1  0  0  0  0  0  0  0  0  0
   43.3078    8.4901  -10.6257 C   0  0  0  0  0  0  0  0  0  0  0  0
   42.6999    9.9876   -0.0712 C   0  0  2  0  0  0  0  0  0  0  0  0
   44.1264   10.2424    0.0984 N   0  0  0  0  0  0  0  0  0  0  0  0
   43.1506    3.7176   -0.3199 C   0  0  0  0  0  0  0  0  0  0  0  0
   42.5879    6.3955   -5.4706 C   0  0  2  0  0  0  0  0  0  0  0  0
   42.6441    7.3957   -6.5507 O   0  0  0  0  0  0  0  0  0  0  0  0
   39.4043    2.5432   -5.7863 C   0  0  2  0  0  0  0  0  0  0  0  0
   39.4798    2.2518   -4.3158 N   0  0  0  0  0  0  0  0  0  0  0  0
   44.0955    9.5243  -10.0683 C   0  0  0  0  0  0  0  0  0  0  0  0
   45.3412    9.8208  -10.6170 N   0  0  0  0  0  0  0  0  0  0  0  0
   41.9642    9.8188    1.3296 C   0  0  1  0  0  0  0  0  0  0  0  0
   42.1616   10.9973    2.0973 O   0  0  0  0  0  0  0  0  0  0  0  0
   43.3227    5.2372    0.2571 C   0  0  2  0  0  0  0  0  0  0  0  0
   42.4512    5.4733    1.3576 N   0  0  0  0  0  0  0  0  0  0  0  0
   41.2881    5.7560   -5.0458 C   0  0  2  0  0  0  0  0  0  0  0  0
   40.4564    4.6948   -5.3235 O   0  0  0  0  0  0  0  0  0  0  0  0
   39.5514    1.2229   -6.6237 C   0  0  1  0  0  0  0  0  0  0  0  0
   39.4520    1.5905   -8.0438 O   0  0  0  0  0  0  0  0  0  0  0  0
   40.4604    9.5570    1.0823 C   0  0  2  0  0  0  0  0  0  0  0  0
   39.7369    9.3776    2.3670 O   0  0  0  0  0  0  0  0  0  0  0  0
   43.0252    6.2814   -0.8884 C   0  0  2  0  0  0  0  0  0  0  0  0
   40.7088    6.8051   -3.9728 C   0  0  2  0  0  0  0  0  0  0  0  0
   41.8318    7.1843   -3.3177 O   0  0  0  0  0  0  0  0  0  0  0  0
   40.9887    0.5294   -6.2818 C   0  0  2  0  0  0  0  0  0  0  0  0
   41.0780    0.1662   -4.8495 O   0  0  0  0  0  0  0  0  0  0  0  0
   40.2578    8.2663    0.2205 C   0  0  2  0  0  0  0  0  0  0  0  0
   40.9949    8.5082   -1.0053 O   0  0  0  0  0  0  0  0  0  0  0  0
   44.0160    5.9843   -2.0642 C   0  0  2  0  0  0  0  0  0  0  0  0
   43.6829    6.9746   -3.0067 O   0  0  0  0  0  0  0  0  0  0  0  0
   39.7184    6.2667   -2.8750 C   0  0  0  0  0  0  0  0  0  0  0  0
   40.3858    5.2338   -2.0830 O   0  0  0  0  0  0  0  0  0  0  0  0
   42.1766    1.5355   -6.6222 C   0  0  1  0  0  0  0  0  0  0  0  0
   41.9326    2.7951   -5.8176 O   0  0  0  0  0  0  0  0  0  0  0  0
   38.8054    8.1097    0.0162 C   0  0  0  0  0  0  0  0  0  0  0  0
   38.3393    9.0728   -0.7903 O   0  0  0  0  0  0  0  0  0  0  0  0
   43.8049    4.5139   -2.6261 C   0  0  1  0  0  0  0  0  0  0  0  0
   44.6985    4.2582   -3.6665 O   0  0  0  0  0  0  0  0  0  0  0  0
   43.8768    7.8864   -7.1885 C   0  0  0  0  0  0  0  0  0  0  0  0
   43.4916    0.7768   -6.2374 C   0  0  0  0  0  0  0  0  0  0  0  0
   44.6741    1.5576   -6.4622 N   0  0  0  0  0  0  0  0  0  0  0  0
   44.4932    6.7642   -8.0249 C   0  0  0  0  0  0  0  0  0  0  0  0
   43.5325    6.4606   -9.1033 N   0  0  0  0  0  0  0  0  0  0  0  0
   43.8346    6.9855  -10.5084 C   0  0  0  0  0  0  0  0  0  0  0  0
  1  2  1  1  0  0  0
  1  8  1  0  0  0  0
  1 33  1  0  0  0  0
  3  4  1  6  0  0  0
  3 10  1  0  0  0  0
  3 42  1  0  0  0  0
  5 11  1  0  0  0  0
  5 29  1  0  0  0  0
  5 35  1  1  0  0  0
  6 13  1  0  0  0  0
  6 39  1  0  0  0  0
  6 22  1  1  0  0  0
  7 15  1  0  0  0  0
  8  9  1  1  0  0  0
  8 17  1  0  0  0  0
 10 19  1  0  0  0  0
 11 12  1  6  0  0  0
 11 21  1  0  0  0  0
 12 44  1  0  0  0  0
 13 14  1  1  0  0  0
 13 23  1  0  0  0  0
 15 16  1  0  0  0  0
 17 18  1  1  0  0  0
 17 25  1  0  0  0  0
 19 20  1  1  0  0  0
 19 27  1  0  0  0  0
 21 22  1  6  0  0  0
 21 28  1  0  0  0  0
 23 24  1  6  0  0  0
 23 30  1  0  0  0  0
 25 26  1  1  0  0  0
 25 32  1  0  0  0  0
 27  2  1  1  0  0  0
 27 34  1  0  0  0  0
 28 29  1  0  0  0  0
 28 36  1  1  0  0  0
 30 31  1  1  0  0  0
 30 38  1  0  0  0  0
 32 33  1  0  0  0  0
 32 40  1  6  0  0  0
 34 35  1  6  0  0  0
 34 42  1  0  0  0  0
 36 37  1  0  0  0  0
 38 39  1  0  0  0  0
 38 45  1  1  0  0  0
 40 41  1  0  0  0  0
 42 43  1  6  0  0  0
 44 47  1  0  0  0  0
 45 46  1  0  0  0  0
 47 48  1  0  0  0  0
 48 49  1  0  0  0  0
 49  7  1  0  0  0  0
M  END
>  <CHROM.1>
174.05037588,-51.40639328,168.16062310,66.61939623,77.44970069,69.38231393
9.40358401,-154.40778488,59.76913594,69.21170179,-100.85195509,-179.02298514
64.28818630,103.29213663,-84.56959364,79.20579301,42.12916614,5.92081670
-3.71563488,-1.89664902,-1.26194639,-2.39459789

>  <Name>
2bee_lig

>  <RI>
3.46266e+07

>  <Rbt.Current_Directory>
/home/itssahil/PROJECTS/Mol_Feturizer/New_Systems/rnas/2bee

>  <Rbt.Executable>
rbdock ($Id: //depot/dev/client3/rdock/2013.1/src/exe/rbdock.cxx#4 $)

>  <Rbt.Library>
libRbt.so (2013.1, Build901 2013/11/27)

>  <Rbt.Parameter_File>
/export/apps/rDock/src/rDock_2013.1_src/data/scripts/dock_solv.prm

>  <Rbt.Receptor>
prm/pocket_docking_4.prm

>  <SCORE>
-14.4966

>  <SCORE.INTER>
-5.7102

>  <SCORE.INTER.CONST>
1

>  <SCORE.INTER.POLAR>
0

>  <SCORE.INTER.ROT>
16

>  <SCORE.INTER.SOLV>
14.6714

>  <SCORE.INTER.VDW>
-22.9639

>  <SCORE.INTER.norm>
-0.116535

>  <SCORE.INTRA>
-8.87766

>  <SCORE.INTRA.DIHEDRAL>
-17.7356

>  <SCORE.INTRA.DIHEDRAL.0>
36.0842

>  <SCORE.INTRA.POLAR>
0

>  <SCORE.INTRA.POLAR.0>
0

>  <SCORE.INTRA.REPUL>
0.102682

>  <SCORE.INTRA.REPUL.0>
0

>  <SCORE.INTRA.SOLV>
1.51964

>  <SCORE.INTRA.SOLV.lig_0>
-126.444

>  <SCORE.INTRA.VDW>
-1.28308

>  <SCORE.INTRA.VDW.0>
-7.40469

>  <SCORE.INTRA.norm>
-0.181177

>  <SCORE.RESTR>
0.0912482

>  <SCORE.RESTR.CAVITY>
0.0912482

>  <SCORE.RESTR.norm>
0.00186221

>  <SCORE.SYSTEM>
0

>  <SCORE.SYSTEM.CONST>
0

>  <SCORE.SYSTEM.DIHEDRAL>
0

>  <SCORE.SYSTEM.SOLV>
0

>  <SCORE.SYSTEM.norm>
0

>  <SCORE.heavy>
49

>  <SCORE.norm>
-0.295849

>  <RMSD>
8.837

$$$$
2bee_lig
 OpenBabel11021811423D
libRbt.so/2013.1/901 2013/11/27
 49 52  0  0  0  0  0  0  0  0999 V2000
   41.9989    6.2160    0.6085 C   0  0  2  0  0  0  0  0  0  0  0  0
   41.4856    5.9714   -0.6949 O   0  0  0  0  0  0  0  0  0  0  0  0
   42.7975    1.8279   -1.3911 C   0  0  2  0  0  0  0  0  0  0  0  0
   43.0613    0.5506   -2.1078 N   0  0  0  0  0  0  0  0  0  0  0  0
   44.1374    5.9001   -3.0353 C   0  0  1  0  0  0  0  0  0  0  0  0
   41.8279    6.2548   -7.2015 C   0  0  1  0  0  0  0  0  0  0  0  0
   49.8665    4.6118   -7.6575 C   0  0  0  0  0  0  0  0  0  0  0  0
   40.8240    6.5532    1.6058 C   0  0  2  0  0  0  0  0  0  0  0  0
   39.8243    5.4909    1.5782 N   0  0  0  0  0  0  0  0  0  0  0  0
   41.2505    2.1985   -1.5233 C   0  0  0  0  0  0  0  0  0  0  0  0
   44.2199    5.6841   -4.5115 C   0  0  2  0  0  0  0  0  0  0  0  0
   45.4720    6.1934   -5.0973 O   0  0  0  0  0  0  0  0  0  0  0  0
   42.3644    4.8008   -7.6803 C   0  0  2  0  0  0  0  0  0  0  0  0
   43.7277    4.5888   -7.0890 N   0  0  0  0  0  0  0  0  0  0  0  0
   48.8893    4.6907   -8.6772 C   0  0  0  0  0  0  0  0  0  0  0  0
   48.9305    3.8013   -9.7487 N   0  0  0  0  0  0  0  0  0  0  0  0
   40.1932    7.9616    1.2179 C   0  0  1  0  0  0  0  0  0  0  0  0
   39.1401    8.2586    2.1234 O   0  0  0  0  0  0  0  0  0  0  0  0
   40.9222    3.6053   -0.7587 C   0  0  2  0  0  0  0  0  0  0  0  0
   39.5425    3.9400   -0.8632 N   0  0  0  0  0  0  0  0  0  0  0  0
   42.8794    6.2899   -4.8502 C   0  0  2  0  0  0  0  0  0  0  0  0
   41.8451    6.2054   -5.7547 O   0  0  0  0  0  0  0  0  0  0  0  0
   42.4302    4.7878   -9.2493 C   0  0  1  0  0  0  0  0  0  0  0  0
   41.0611    4.9853   -9.7476 O   0  0  0  0  0  0  0  0  0  0  0  0
   41.2983    9.0419    1.2706 C   0  0  2  0  0  0  0  0  0  0  0  0
   40.7543   10.3731    0.8991 O   0  0  0  0  0  0  0  0  0  0  0  0
   41.7974    4.7657   -1.3740 C   0  0  2  0  0  0  0  0  0  0  0  0
   42.7621    7.5045   -3.8021 C   0  0  2  0  0  0  0  0  0  0  0  0
   43.2954    6.9603   -2.6825 O   0  0  0  0  0  0  0  0  0  0  0  0
   43.4300    5.9751   -9.7531 C   0  0  2  0  0  0  0  0  0  0  0  0
   44.8042    5.7670   -9.2434 O   0  0  0  0  0  0  0  0  0  0  0  0
   42.4605    8.6933    0.2818 C   0  0  2  0  0  0  0  0  0  0  0  0
   42.9328    7.3859    0.6962 O   0  0  0  0  0  0  0  0  0  0  0  0
   43.3001    4.3520   -1.2223 C   0  0  2  0  0  0  0  0  0  0  0  0
   43.9809    5.4530   -1.7739 O   0  0  0  0  0  0  0  0  0  0  0  0
   41.3225    8.0023   -3.4078 C   0  0  0  0  0  0  0  0  0  0  0  0
   40.4939    6.8534   -3.0433 O   0  0  0  0  0  0  0  0  0  0  0  0
   42.9076    7.3879   -9.2332 C   0  0  1  0  0  0  0  0  0  0  0  0
   42.8242    7.2995   -7.7237 O   0  0  0  0  0  0  0  0  0  0  0  0
   43.4727    9.7578    0.4161 C   0  0  0  0  0  0  0  0  0  0  0  0
   44.4474    9.5942   -0.4886 O   0  0  0  0  0  0  0  0  0  0  0  0
   43.5978    3.0002   -2.0010 C   0  0  1  0  0  0  0  0  0  0  0  0
   44.9366    2.6377   -1.8513 O   0  0  0  0  0  0  0  0  0  0  0  0
   46.8122    6.0240   -4.5123 C   0  0  0  0  0  0  0  0  0  0  0  0
   43.9472    8.4369   -9.7548 C   0  0  0  0  0  0  0  0  0  0  0  0
   45.1306    8.5013   -8.9462 N   0  0  0  0  0  0  0  0  0  0  0  0
   47.6894    5.2309   -5.4820 C   0  0  0  0  0  0  0  0  0  0  0  0
   48.5288    6.2124   -6.1961 N   0  0  0  0  0  0  0  0  0  0  0  0
   49.9484    5.7981   -6.5894 C   0  0  0  0  0  0  0  0  0  0  0  0
  1  2  1  6  0  0  0
  1  8  1  0  0  0  0
  1 33  1  0  0  0  0
  3  4  1  6  0  0  0
  3 10  1  0  0  0  0
  3 42  1  0  0  0  0
  5 11  1  0  0  0  0
  5 29  1  0  0  0  0
  5 35  1  1  0  0  0
  6 13  1  0  0  0  0
  6 39  1  0  0  0  0
  6 22  1  1  0  0  0
  7 15  1  0  0  0  0
  8  9  1  6  0  0  0
  8 17  1  0  0  0  0
 10 19  1  0  0  0  0
 11 12  1  6  0  0  0
 11 21  1  0  0  0  0
 12 44  1  0  0  0  0
 13 14  1  1  0  0  0
 13 23  1  0  0  0  0
 15 16  1  0  0  0  0
 17 18  1  1  0  0  0
 17 25  1  0  0  0  0
 19 20  1  6  0  0  0
 19 27  1  0  0  0  0
 21 22  1  6  0  0  0
 21 28  1  0  0  0  0
 23 24  1  6  0  0  0
 23 30  1  0  0  0  0
 25 26  1  6  0  0  0
 25 32  1  0  0  0  0
 27  2  1  1  0  0  0
 27 34  1  0  0  0  0
 28 29  1  0  0  0  0
 28 36  1  1  0  0  0
 30 31  1  1  0  0  0
 30 38  1  0  0  0  0
 32 33  1  0  0  0  0
 32 40  1  1  0  0  0
 34 35  1  6  0  0  0
 34 42  1  0  0  0  0
 36 37  1  0  0  0  0
 38 39  1  0  0  0  0
 38 45  1  1  0  0  0
 40 41  1  0  0  0  0
 42 43  1  1  0  0  0
 44 47  1  0  0  0  0
 45 46  1  0  0  0  0
 47 48  1  0  0  0  0
 48 49  1  0  0  0  0
 49  7  1  0  0  0  0
M  END
>  <CHROM.1>
-125.72293404,-28.03874656,76.19219967,169.24543943,43.03364552,118.68623305
-53.05900649,76.52506423,49.12425492,-174.43702831,-72.29264095,-80.20264867
99.80264401,145.95169396,64.96245843,41.24479480,43.37704129,6.00063560,-3.78733255
-2.16842923,0.61592687,-1.32871689

>  <Name>
2bee_lig

>  <RI>
2.18182e+07

>  <Rbt.Current_Directory>
/home/itssahil/PROJECTS/Mol_Feturizer/New_Systems/rnas/2bee

>  <Rbt.Executable>
rbdock ($Id: //depot/dev/client3/rdock/2013.1/src/exe/rbdock.cxx#4 $)

>  <Rbt.Library>
libRbt.so (2013.1, Build901 2013/11/27)

>  <Rbt.Parameter_File>
/export/apps/rDock/src/rDock_2013.1_src/data/scripts/dock_solv.prm

>  <Rbt.Receptor>
prm/pocket_docking_3.prm

>  <SCORE>
-2.74505

>  <SCORE.INTER>
-6.37799

>  <SCORE.INTER.CONST>
1

>  <SCORE.INTER.POLAR>
0

>  <SCORE.INTER.ROT>
16

>  <SCORE.INTER.SOLV>
14.8378

>  <SCORE.INTER.VDW>
-23.4646

>  <SCORE.INTER.norm>
-0.130163

>  <SCORE.INTRA>
3.33453

>  <SCORE.INTRA.DIHEDRAL>
-0.206639

>  <SCORE.INTRA.DIHEDRAL.0>
36.0842

>  <SCORE.INTRA.POLAR>
0

>  <SCORE.INTRA.POLAR.0>
0

>  <SCORE.INTRA.REPUL>
0.108361

>  <SCORE.INTRA.REPUL.0>
0

>  <SCORE.INTRA.SOLV>
5.12163

>  <SCORE.INTRA.SOLV.lig_0>
-126.444

>  <SCORE.INTRA.VDW>
0.335227

>  <SCORE.INTRA.VDW.0>
-7.40469

>  <SCORE.INTRA.norm>
0.0680515

>  <SCORE.RESTR>
0.298411

>  <SCORE.RESTR.CAVITY>
0.298411

>  <SCORE.RESTR.norm>
0.00609001

>  <SCORE.SYSTEM>
0

>  <SCORE.SYSTEM.CONST>
0

>  <SCORE.SYSTEM.DIHEDRAL>
0

>  <SCORE.SYSTEM.SOLV>
0

>  <SCORE.SYSTEM.norm>
0

>  <SCORE.heavy>
49

>  <SCORE.norm>
-0.0560215

>  <RMSD>
8.848

$$$$
2bee_lig
 OpenBabel11021811423D
libRbt.so/2013.1/901 2013/11/27
 49 52  0  0  0  0  0  0  0  0999 V2000
   40.5782    2.0225   -3.6656 C   0  0  2  0  0  0  0  0  0  0  0  0
   41.4243    0.8961   -3.4720 O   0  0  0  0  0  0  0  0  0  0  0  0
   45.7695    0.4099   -3.9794 C   0  0  2  0  0  0  0  0  0  0  0  0
   47.0900    0.2940   -4.6558 N   0  0  0  0  0  0  0  0  0  0  0  0
   43.4362    4.3962   -3.6069 C   0  0  1  0  0  0  0  0  0  0  0  0
   42.7280    7.0736   -7.1479 C   0  0  1  0  0  0  0  0  0  0  0  0
   41.8330    9.7247    1.4048 C   0  0  0  0  0  0  0  0  0  0  0  0
   39.2884    1.9002   -2.7654 C   0  0  2  0  0  0  0  0  0  0  0  0
   39.6689    1.7076   -1.3701 N   0  0  0  0  0  0  0  0  0  0  0  0
   44.7783   -0.6976   -4.5615 C   0  0  0  0  0  0  0  0  0  0  0  0
   44.3494    5.5447   -3.8889 C   0  0  2  0  0  0  0  0  0  0  0  0
   44.9128    6.1441   -2.6668 O   0  0  0  0  0  0  0  0  0  0  0  0
   42.7800    5.4984   -7.5311 C   0  0  2  0  0  0  0  0  0  0  0  0
   44.2169    5.0644   -7.5267 N   0  0  0  0  0  0  0  0  0  0  0  0
   41.0890   10.8706    1.7712 C   0  0  0  0  0  0  0  0  0  0  0  0
   40.5704   10.9790    3.0596 N   0  0  0  0  0  0  0  0  0  0  0  0
   38.3875    0.7015   -3.2979 C   0  0  1  0  0  0  0  0  0  0  0  0
   37.2273    0.6022   -2.4848 O   0  0  0  0  0  0  0  0  0  0  0  0
   43.3096   -0.5944   -3.8518 C   0  0  2  0  0  0  0  0  0  0  0  0
   42.4208   -1.5843   -4.3581 N   0  0  0  0  0  0  0  0  0  0  0  0
   43.4001    6.3051   -4.7829 C   0  0  2  0  0  0  0  0  0  0  0  0
   43.3717    7.1686   -5.8546 O   0  0  0  0  0  0  0  0  0  0  0  0
   42.1469    5.3128   -8.9562 C   0  0  1  0  0  0  0  0  0  0  0  0
   40.7436    5.7434   -8.8725 O   0  0  0  0  0  0  0  0  0  0  0  0
   38.0151    0.9670   -4.7751 C   0  0  2  0  0  0  0  0  0  0  0  0
   37.1848   -0.1386   -5.3176 O   0  0  0  0  0  0  0  0  0  0  0  0
   42.6982    0.8405   -4.0934 C   0  0  2  0  0  0  0  0  0  0  0  0
   41.9693    6.0258   -4.1029 C   0  0  2  0  0  0  0  0  0  0  0  0
   42.0830    4.7272   -3.7355 O   0  0  0  0  0  0  0  0  0  0  0  0
   42.9858    6.2051  -10.0349 C   0  0  2  0  0  0  0  0  0  0  0  0
   44.3971    5.7643  -10.1086 O   0  0  0  0  0  0  0  0  0  0  0  0
   39.3024    1.0922   -5.6565 C   0  0  2  0  0  0  0  0  0  0  0  0
   40.0636    2.1765   -5.0655 O   0  0  0  0  0  0  0  0  0  0  0  0
   43.7073    1.8859   -3.5091 C   0  0  2  0  0  0  0  0  0  0  0  0
   43.0597    3.1109   -3.7542 O   0  0  0  0  0  0  0  0  0  0  0  0
   40.6894    6.1160   -5.0137 C   0  0  0  0  0  0  0  0  0  0  0  0
   39.4993    5.8450   -4.2076 O   0  0  0  0  0  0  0  0  0  0  0  0
   42.9584    7.7415   -9.6134 C   0  0  1  0  0  0  0  0  0  0  0  0
   43.5348    7.8261   -8.2154 O   0  0  0  0  0  0  0  0  0  0  0  0
   38.8544    1.3665   -7.0348 C   0  0  0  0  0  0  0  0  0  0  0  0
   39.9007    1.3905   -7.8714 O   0  0  0  0  0  0  0  0  0  0  0  0
   45.1145    1.7850   -4.2384 C   0  0  1  0  0  0  0  0  0  0  0  0
   46.0069    2.7145   -3.7036 O   0  0  0  0  0  0  0  0  0  0  0  0
   44.1444    6.4874   -1.4590 C   0  0  0  0  0  0  0  0  0  0  0  0
   43.8044    8.4891  -10.6990 C   0  0  0  0  0  0  0  0  0  0  0  0
   43.9525    9.8898  -10.4260 N   0  0  0  0  0  0  0  0  0  0  0  0
   43.5963    7.9085   -1.5968 C   0  0  0  0  0  0  0  0  0  0  0  0
   43.1961    8.3430   -0.2444 N   0  0  0  0  0  0  0  0  0  0  0  0
   42.2922    9.5712   -0.1185 C   0  0  0  0  0  0  0  0  0  0  0  0
  1  2  1  6  0  0  0
  1  8  1  0  0  0  0
  1 33  1  0  0  0  0
  3  4  1  6  0  0  0
  3 10  1  0  0  0  0
  3 42  1  0  0  0  0
  5 11  1  0  0  0  0
  5 29  1  0  0  0  0
  5 35  1  6  0  0  0
  6 13  1  0  0  0  0
  6 39  1  0  0  0  0
  6 22  1  1  0  0  0
  7 15  1  0  0  0  0
  8  9  1  1  0  0  0
  8 17  1  0  0  0  0
 10 19  1  0  0  0  0
 11 12  1  1  0  0  0
 11 21  1  0  0  0  0
 12 44  1  0  0  0  0
 13 14  1  6  0  0  0
 13 23  1  0  0  0  0
 15 16  1  0  0  0  0
 17 18  1  1  0  0  0
 17 25  1  0  0  0  0
 19 20  1  6  0  0  0
 19 27  1  0  0  0  0
 21 22  1  1  0  0  0
 21 28  1  0  0  0  0
 23 24  1  1  0  0  0
 23 30  1  0  0  0  0
 25 26  1  6  0  0  0
 25 32  1  0  0  0  0
 27  2  1  1  0  0  0
 27 34  1  0  0  0  0
 28 29  1  0  0  0  0
 28 36  1  6  0  0  0
 30 31  1  1  0  0  0
 30 38  1  0  0  0  0
 32 33  1  0  0  0  0
 32 40  1  6  0  0  0
 34 35  1  6  0  0  0
 34 42  1  0  0  0  0
 36 37  1  0  0  0  0
 38 39  1  0  0  0  0
 38 45  1  6  0  0  0
 40 41  1  0  0  0  0
 42 43  1  1  0  0  0
 44 47  1  0  0  0  0
 45 46  1  0  0  0  0
 47 48  1  0  0  0  0
 48 49  1  0  0  0  0
 49  7  1  0  0  0  0
M  END
>  <CHROM.1>
-174.69134020,57.81047971,-34.01231125,174.24922178,-46.39870765,-88.24229510
123.24058733,-172.53539851,-179.38482952,-175.49100808,-173.14942345,-176.45874397
-163.56037663,-164.65200495,172.22659343,174.22420121,42.19199491,4.36499677
-4.65916547,2.25318845,-1.23188542,-2.25357771

>  <Name>
2bee_lig

>  <RI>
3.46266e+07

>  <Rbt.Current_Directory>
/home/itssahil/PROJECTS/Mol_Feturizer/New_Systems/rnas/2bee

>  <Rbt.Executable>
rbdock ($Id: //depot/dev/client3/rdock/2013.1/src/exe/rbdock.cxx#4 $)

>  <Rbt.Library>
libRbt.so (2013.1, Build901 2013/11/27)

>  <Rbt.Parameter_File>
/export/apps/rDock/src/rDock_2013.1_src/data/scripts/dock_solv.prm

>  <Rbt.Receptor>
prm/pocket_docking_4.prm

>  <SCORE>
-20.5224

>  <SCORE.INTER>
-8.65734

>  <SCORE.INTER.CONST>
1

>  <SCORE.INTER.POLAR>
-0.959166

>  <SCORE.INTER.ROT>
16

>  <SCORE.INTER.SOLV>
12.9081

>  <SCORE.INTER.VDW>
-21.1437

>  <SCORE.INTER.norm>
-0.17668

>  <SCORE.INTRA>
-11.8886

>  <SCORE.INTRA.DIHEDRAL>
-23.1317

>  <SCORE.INTRA.DIHEDRAL.0>
36.0842

>  <SCORE.INTRA.POLAR>
0

>  <SCORE.INTRA.POLAR.0>
0

>  <SCORE.INTRA.REPUL>
0

>  <SCORE.INTRA.REPUL.0>
0

>  <SCORE.INTRA.SOLV>
-3.61069

>  <SCORE.INTRA.SOLV.lig_0>
-126.444

>  <SCORE.INTRA.VDW>
1.48253

>  <SCORE.INTRA.VDW.0>
-7.40469

>  <SCORE.INTRA.norm>
-0.242625

>  <SCORE.RESTR>
0.0235698

>  <SCORE.RESTR.CAVITY>
0.0235698

>  <SCORE.RESTR.norm>
0.000481016

>  <SCORE.SYSTEM>
0

>  <SCORE.SYSTEM.CONST>
0

>  <SCORE.SYSTEM.DIHEDRAL>
0

>  <SCORE.SYSTEM.SOLV>
0

>  <SCORE.SYSTEM.norm>
0

>  <SCORE.heavy>
49

>  <SCORE.norm>
-0.418825

>  <RMSD>
8.867

$$$$
2bee_lig
 OpenBabel11021811423D
libRbt.so/2013.1/901 2013/11/27
 49 52  0  0  0  0  0  0  0  0999 V2000
   41.7810    7.2788   -1.3602 C   0  0  2  0  0  0  0  0  0  0  0  0
   42.0856    6.9663   -0.0068 O   0  0  0  0  0  0  0  0  0  0  0  0
   40.2677    4.5463    3.1890 C   0  0  2  0  0  0  0  0  0  0  0  0
   39.2299    3.9978    4.1038 N   0  0  0  0  0  0  0  0  0  0  0  0
   41.5773    4.4277   -1.6895 C   0  0  1  0  0  0  0  0  0  0  0  0
   43.0054    1.0184   -4.6665 C   0  0  1  0  0  0  0  0  0  0  0  0
   43.1737    7.0048   -7.6591 C   0  0  0  0  0  0  0  0  0  0  0  0
   43.0024    8.0080   -2.0425 C   0  0  2  0  0  0  0  0  0  0  0  0
   44.2089    7.1997   -1.9028 N   0  0  0  0  0  0  0  0  0  0  0  0
   40.3102    6.1357    3.3300 C   0  0  0  0  0  0  0  0  0  0  0  0
   42.7294    3.7943   -2.3995 C   0  0  2  0  0  0  0  0  0  0  0  0
   43.6890    4.7787   -2.9291 O   0  0  0  0  0  0  0  0  0  0  0  0
   43.8865    0.3202   -3.4972 C   0  0  2  0  0  0  0  0  0  0  0  0
   44.3557    1.3960   -2.5614 N   0  0  0  0  0  0  0  0  0  0  0  0
   44.0951    8.0577   -7.8674 C   0  0  0  0  0  0  0  0  0  0  0  0
   45.2574    8.1247   -7.1024 N   0  0  0  0  0  0  0  0  0  0  0  0
   43.1840    9.4490   -1.3924 C   0  0  1  0  0  0  0  0  0  0  0  0
   44.2820   10.0992   -2.0157 O   0  0  0  0  0  0  0  0  0  0  0  0
   41.4311    6.7786    2.3290 C   0  0  2  0  0  0  0  0  0  0  0  0
   41.4828    8.1956    2.4541 N   0  0  0  0  0  0  0  0  0  0  0  0
   41.9085    2.9141   -3.3106 C   0  0  2  0  0  0  0  0  0  0  0  0
   41.9377    1.7079   -3.9734 O   0  0  0  0  0  0  0  0  0  0  0  0
   45.1073   -0.4090   -4.1636 C   0  0  1  0  0  0  0  0  0  0  0  0
   44.5663   -1.4514   -5.0481 O   0  0  0  0  0  0  0  0  0  0  0  0
   41.8774   10.2551   -1.5773 C   0  0  2  0  0  0  0  0  0  0  0  0
   41.9986   11.6048   -0.9695 O   0  0  0  0  0  0  0  0  0  0  0  0
   41.1006    6.3898    0.8355 C   0  0  2  0  0  0  0  0  0  0  0  0
   40.6323    3.8356   -3.6413 C   0  0  2  0  0  0  0  0  0  0  0  0
   40.4017    4.4330   -2.4480 O   0  0  0  0  0  0  0  0  0  0  0  0
   45.9947    0.6812   -4.9926 C   0  0  2  0  0  0  0  0  0  0  0  0
   46.5317    1.7266   -4.0925 O   0  0  0  0  0  0  0  0  0  0  0  0
   40.6727    9.5189   -0.9017 C   0  0  2  0  0  0  0  0  0  0  0  0
   40.6219    8.2141   -1.5335 O   0  0  0  0  0  0  0  0  0  0  0  0
   41.0677    4.8263    0.7530 C   0  0  2  0  0  0  0  0  0  0  0  0
   40.7922    4.5943   -0.6072 O   0  0  0  0  0  0  0  0  0  0  0  0
   39.2898    3.1199   -4.0429 C   0  0  0  0  0  0  0  0  0  0  0  0
   39.4928    2.3639   -5.2784 O   0  0  0  0  0  0  0  0  0  0  0  0
   45.0969    1.3856   -6.1048 C   0  0  1  0  0  0  0  0  0  0  0  0
   43.9212    2.0167   -5.3885 O   0  0  0  0  0  0  0  0  0  0  0  0
   39.4736   10.3421   -1.1474 C   0  0  0  0  0  0  0  0  0  0  0  0
   38.4322    9.8738   -0.4464 O   0  0  0  0  0  0  0  0  0  0  0  0
   39.9491    4.2311    1.7105 C   0  0  1  0  0  0  0  0  0  0  0  0
   39.9355    2.8381    1.6349 O   0  0  0  0  0  0  0  0  0  0  0  0
   44.7088    4.5019   -3.9541 C   0  0  0  0  0  0  0  0  0  0  0  0
   46.0399    2.4153   -6.8143 C   0  0  0  0  0  0  0  0  0  0  0  0
   45.4001    3.1059   -7.8971 N   0  0  0  0  0  0  0  0  0  0  0  0
   44.1460    4.8506   -5.3327 C   0  0  0  0  0  0  0  0  0  0  0  0
   43.7818    6.2802   -5.2943 N   0  0  0  0  0  0  0  0  0  0  0  0
   42.6265    6.7551   -6.1782 C   0  0  0  0  0  0  0  0  0  0  0  0
  1  2  1  1  0  0  0
  1  8  1  0  0  0  0
  1 33  1  0  0  0  0
  3  4  1  1  0  0  0
  3 10  1  0  0  0  0
  3 42  1  0  0  0  0
  5 11  1  0  0  0  0
  5 29  1  0  0  0  0
  5 35  1  1  0  0  0
  6 13  1  0  0  0  0
  6 39  1  0  0  0  0
  6 22  1  1  0  0  0
  7 15  1  0  0  0  0
  8  9  1  1  0  0  0
  8 17  1  0  0  0  0
 10 19  1  0  0  0  0
 11 12  1  6  0  0  0
 11 21  1  0  0  0  0
 12 44  1  0  0  0  0
 13 14  1  1  0  0  0
 13 23  1  0  0  0  0
 15 16  1  0  0  0  0
 17 18  1  6  0  0  0
 17 25  1  0  0  0  0
 19 20  1  6  0  0  0
 19 27  1  0  0  0  0
 21 22  1  6  0  0  0
 21 28  1  0  0  0  0
 23 24  1  6  0  0  0
 23 30  1  0  0  0  0
 25 26  1  1  0  0  0
 25 32  1  0  0  0  0
 27  2  1  6  0  0  0
 27 34  1  0  0  0  0
 28 29  1  0  0  0  0
 28 36  1  1  0  0  0
 30 31  1  1  0  0  0
 30 38  1  0  0  0  0
 32 33  1  0  0  0  0
 32 40  1  6  0  0  0
 34 35  1  6  0  0  0
 34 42  1  0  0  0  0
 36 37  1  0  0  0  0
 38 39  1  0  0  0  0
 38 45  1  1  0  0  0
 40 41  1  0  0  0  0
 42 43  1  1  0  0  0
 44 47  1  0  0  0  0
 45 46  1  0  0  0  0
 47 48  1  0  0  0  0
 48 49  1  0  0  0  0
 49  7  1  0  0  0  0
M  END
>  <CHROM.1>
175.58849641,48.93507424,79.52260494,53.58184191,-163.05604012,93.47353521
-38.59205828,-153.33824460,-62.21418674,-171.59807880,90.28939405,177.41651060
58.95103416,-150.29609649,-82.36732112,-66.59515079,42.44708104,5.11844463
-2.54376990,-2.56011902,-1.07310062,3.02061124

>  <Name>
2bee_lig

>  <RI>
0

>  <Rbt.Current_Directory>
/home/itssahil/PROJECTS/Mol_Feturizer/New_Systems/rnas/2bee

>  <Rbt.Executable>
rbdock ($Id: //depot/dev/client3/rdock/2013.1/src/exe/rbdock.cxx#4 $)

>  <Rbt.Library>
libRbt.so (2013.1, Build901 2013/11/27)

>  <Rbt.Parameter_File>
/export/apps/rDock/src/rDock_2013.1_src/data/scripts/dock_solv.prm

>  <Rbt.Receptor>
prm/pocket_docking_5.prm

>  <SCORE>
-15.8053

>  <SCORE.INTER>
-11.0528

>  <SCORE.INTER.CONST>
1

>  <SCORE.INTER.POLAR>
-2.87705

>  <SCORE.INTER.ROT>
16

>  <SCORE.INTER.SOLV>
13.4373

>  <SCORE.INTER.VDW>
-16.5241

>  <SCORE.INTER.norm>
-0.225568

>  <SCORE.INTRA>
-4.75247

>  <SCORE.INTRA.DIHEDRAL>
-14.7945

>  <SCORE.INTRA.DIHEDRAL.0>
36.0842

>  <SCORE.INTRA.POLAR>
0

>  <SCORE.INTRA.POLAR.0>
0

>  <SCORE.INTRA.REPUL>
0

>  <SCORE.INTRA.REPUL.0>
0

>  <SCORE.INTRA.SOLV>
7.84211

>  <SCORE.INTRA.SOLV.lig_0>
-126.444

>  <SCORE.INTRA.VDW>
-1.27625

>  <SCORE.INTRA.VDW.0>
-7.40469

>  <SCORE.INTRA.norm>
-0.0969891

>  <SCORE.RESTR>
0

>  <SCORE.RESTR.CAVITY>
0

>  <SCORE.RESTR.norm>
0

>  <SCORE.SYSTEM>
0

>  <SCORE.SYSTEM.CONST>
0

>  <SCORE.SYSTEM.DIHEDRAL>
0

>  <SCORE.SYSTEM.SOLV>
0

>  <SCORE.SYSTEM.norm>
0

>  <SCORE.heavy>
49

>  <SCORE.norm>
-0.322557

>  <RMSD>
8.871

$$$$
2bee_lig
 OpenBabel11021811423D
libRbt.so/2013.1/901 2013/11/27
 49 52  0  0  0  0  0  0  0  0999 V2000
   42.2167    4.4061   -1.2857 C   0  0  2  0  0  0  0  0  0  0  0  0
   41.9677    5.3766   -2.2948 O   0  0  0  0  0  0  0  0  0  0  0  0
   43.7668    6.8626   -6.0270 C   0  0  2  0  0  0  0  0  0  0  0  0
   44.6763    6.9394   -7.2025 N   0  0  0  0  0  0  0  0  0  0  0  0
   41.5066    3.0465   -4.4310 C   0  0  1  0  0  0  0  0  0  0  0  0
   38.7674   -0.7990   -4.0079 C   0  0  1  0  0  0  0  0  0  0  0  0
   47.6339    0.2832   -3.3615 C   0  0  0  0  0  0  0  0  0  0  0  0
   40.9084    4.1421   -0.4446 C   0  0  2  0  0  0  0  0  0  0  0  0
   39.8101    3.7724   -1.3310 N   0  0  0  0  0  0  0  0  0  0  0  0
   44.6348    6.8385   -4.6877 C   0  0  0  0  0  0  0  0  0  0  0  0
   41.6710    1.9261   -3.4561 C   0  0  2  0  0  0  0  0  0  0  0  0
   43.0167    1.3275   -3.4907 O   0  0  0  0  0  0  0  0  0  0  0  0
   37.9546   -1.5111   -2.7982 C   0  0  2  0  0  0  0  0  0  0  0  0
   38.9470   -1.9317   -1.7536 N   0  0  0  0  0  0  0  0  0  0  0  0
   48.6474    0.3124   -4.3478 C   0  0  0  0  0  0  0  0  0  0  0  0
   49.9824    0.4315   -3.9682 N   0  0  0  0  0  0  0  0  0  0  0  0
   40.5613    5.4397    0.4086 C   0  0  1  0  0  0  0  0  0  0  0  0
   39.3856    5.1911    1.1655 O   0  0  0  0  0  0  0  0  0  0  0  0
   43.6706    6.7407   -3.3715 C   0  0  2  0  0  0  0  0  0  0  0  0
   44.4355    6.7277   -2.1710 N   0  0  0  0  0  0  0  0  0  0  0  0
   40.4449    1.1513   -3.8746 C   0  0  2  0  0  0  0  0  0  0  0  0
   39.4782    0.3001   -3.3891 O   0  0  0  0  0  0  0  0  0  0  0  0
   37.1939   -2.7571   -3.3770 C   0  0  1  0  0  0  0  0  0  0  0  0
   36.2361   -2.2613   -4.3762 O   0  0  0  0  0  0  0  0  0  0  0  0
   41.7587    5.7752    1.3278 C   0  0  2  0  0  0  0  0  0  0  0  0
   41.4822    6.9923    2.1328 O   0  0  0  0  0  0  0  0  0  0  0  0
   42.7869    5.4354   -3.4513 C   0  0  2  0  0  0  0  0  0  0  0  0
   40.4020    1.3844   -5.4656 C   0  0  2  0  0  0  0  0  0  0  0  0
   40.7790    2.6811   -5.5687 O   0  0  0  0  0  0  0  0  0  0  0  0
   38.2753   -3.7844   -4.0393 C   0  0  2  0  0  0  0  0  0  0  0  0
   39.2354   -4.2746   -3.0248 O   0  0  0  0  0  0  0  0  0  0  0  0
   43.0513    6.0290    0.4825 C   0  0  2  0  0  0  0  0  0  0  0  0
   43.2522    4.8112   -0.2797 O   0  0  0  0  0  0  0  0  0  0  0  0
   41.9611    5.5074   -4.7799 C   0  0  2  0  0  0  0  0  0  0  0  0
   41.2027    4.3230   -4.7370 O   0  0  0  0  0  0  0  0  0  0  0  0
   39.0101    1.2710   -6.1906 C   0  0  0  0  0  0  0  0  0  0  0  0
   38.0003    1.9962   -5.4200 O   0  0  0  0  0  0  0  0  0  0  0  0
   39.0921   -3.0498   -5.1936 C   0  0  1  0  0  0  0  0  0  0  0  0
   39.7496   -1.8381   -4.5667 O   0  0  0  0  0  0  0  0  0  0  0  0
   44.1391    6.3159    1.4364 C   0  0  0  0  0  0  0  0  0  0  0  0
   45.2068    6.8094    0.7948 O   0  0  0  0  0  0  0  0  0  0  0  0
   42.9222    5.5690   -6.0428 C   0  0  1  0  0  0  0  0  0  0  0  0
   42.1755    5.6417   -7.2189 O   0  0  0  0  0  0  0  0  0  0  0  0
   44.2559    2.0027   -3.0718 C   0  0  0  0  0  0  0  0  0  0  0  0
   40.1033   -4.1163   -5.7351 C   0  0  0  0  0  0  0  0  0  0  0  0
   39.4660   -5.1629   -6.4816 N   0  0  0  0  0  0  0  0  0  0  0  0
   45.2046    2.1028   -4.2671 C   0  0  0  0  0  0  0  0  0  0  0  0
   46.5115    2.5383   -3.7376 N   0  0  0  0  0  0  0  0  0  0  0  0
   47.1921    1.6619   -2.6841 C   0  0  0  0  0  0  0  0  0  0  0  0
  1  2  1  6  0  0  0
  1  8  1  0  0  0  0
  1 33  1  0  0  0  0
  3  4  1  6  0  0  0
  3 10  1  0  0  0  0
  3 42  1  0  0  0  0
  5 11  1  0  0  0  0
  5 29  1  0  0  0  0
  5 35  1  1  0  0  0
  6 13  1  0  0  0  0
  6 39  1  0  0  0  0
  6 22  1  1  0  0  0
  7 15  1  0  0  0  0
  8  9  1  6  0  0  0
  8 17  1  0  0  0  0
 10 19  1  0  0  0  0
 11 12  1  6  0  0  0
 11 21  1  0  0  0  0
 12 44  1  0  0  0  0
 13 14  1  1  0  0  0
 13 23  1  0  0  0  0
 15 16  1  0  0  0  0
 17 18  1  1  0  0  0
 17 25  1  0  0  0  0
 19 20  1  1  0  0  0
 19 27  1  0  0  0  0
 21 22  1  6  0  0  0
 21 28  1  0  0  0  0
 23 24  1  6  0  0  0
 23 30  1  0  0  0  0
 25 26  1  6  0  0  0
 25 32  1  0  0  0  0
 27  2  1  1  0  0  0
 27 34  1  0  0  0  0
 28 29  1  0  0  0  0
 28 36  1  1  0  0  0
 30 31  1  1  0  0  0
 30 38  1  0  0  0  0
 32 33  1  0  0  0  0
 32 40  1  1  0  0  0
 34 35  1  6  0  0  0
 34 42  1  0  0  0  0
 36 37  1  0  0  0  0
 38 39  1  0  0  0  0
 38 45  1  1  0  0  0
 40 41  1  0  0  0  0
 42 43  1  6  0  0  0
 44 47  1  0  0  0  0
 45 46  1  0  0  0  0
 47 48  1  0  0  0  0
 48 49  1  0  0  0  0
 49  7  1  0  0  0  0
M  END
>  <CHROM.1>
-157.04618655,88.09908161,171.05007685,77.77271565,67.33092154,-118.51371132
-146.55202440,-109.30004216,45.24539278,-167.38289203,-44.86848352,70.83342810
-169.16299682,58.93036961,67.77461512,66.78337188,41.91369454,2.42109238
-3.24602582,0.98112765,0.35948805,0.53406817

>  <Name>
2bee_lig

>  <RI>
3.46266e+07

>  <Rbt.Current_Directory>
/home/itssahil/PROJECTS/Mol_Feturizer/New_Systems/rnas/2bee

>  <Rbt.Executable>
rbdock ($Id: //depot/dev/client3/rdock/2013.1/src/exe/rbdock.cxx#4 $)

>  <Rbt.Library>
libRbt.so (2013.1, Build901 2013/11/27)

>  <Rbt.Parameter_File>
/export/apps/rDock/src/rDock_2013.1_src/data/scripts/dock_solv.prm

>  <Rbt.Receptor>
prm/pocket_docking_4.prm

>  <SCORE>
-3.86991

>  <SCORE.INTER>
-2.86901

>  <SCORE.INTER.CONST>
1

>  <SCORE.INTER.POLAR>
-1.75617

>  <SCORE.INTER.ROT>
16

>  <SCORE.INTER.SOLV>
12.3544

>  <SCORE.INTER.VDW>
-14.4435

>  <SCORE.INTER.norm>
-0.0585512

>  <SCORE.INTRA>
-1.06379

>  <SCORE.INTRA.DIHEDRAL>
-7.67899

>  <SCORE.INTRA.DIHEDRAL.0>
36.0842

>  <SCORE.INTRA.POLAR>
0

>  <SCORE.INTRA.POLAR.0>
0

>  <SCORE.INTRA.REPUL>
0.0327137

>  <SCORE.INTRA.REPUL.0>
0

>  <SCORE.INTRA.SOLV>
2.49928

>  <SCORE.INTRA.SOLV.lig_0>
-126.444

>  <SCORE.INTRA.VDW>
1.3625

>  <SCORE.INTRA.VDW.0>
-7.40469

>  <SCORE.INTRA.norm>
-0.02171

>  <SCORE.RESTR>
0.0628862

>  <SCORE.RESTR.CAVITY>
0.0628862

>  <SCORE.RESTR.norm>
0.00128339

>  <SCORE.SYSTEM>
0

>  <SCORE.SYSTEM.CONST>
0

>  <SCORE.SYSTEM.DIHEDRAL>
0

>  <SCORE.SYSTEM.SOLV>
0

>  <SCORE.SYSTEM.norm>
0

>  <SCORE.heavy>
49

>  <SCORE.norm>
-0.0789777

>  <RMSD>
8.875

$$$$
2bee_lig
 OpenBabel11021811423D
libRbt.so/2013.1/901 2013/11/27
 49 52  0  0  0  0  0  0  0  0999 V2000
   42.2208    6.4759   -1.0812 C   0  0  2  0  0  0  0  0  0  0  0  0
   42.3501    5.5895    0.0233 O   0  0  0  0  0  0  0  0  0  0  0  0
   40.3574    2.0573    1.7339 C   0  0  2  0  0  0  0  0  0  0  0  0
   39.2860    1.0679    2.0308 N   0  0  0  0  0  0  0  0  0  0  0  0
   42.2270    2.3338   -2.4247 C   0  0  1  0  0  0  0  0  0  0  0  0
   45.0698    1.3683   -6.0428 C   0  0  1  0  0  0  0  0  0  0  0  0
   37.2095    1.0903   -7.3972 C   0  0  0  0  0  0  0  0  0  0  0  0
   43.3714    7.5550   -1.0555 C   0  0  2  0  0  0  0  0  0  0  0  0
   44.6727    6.8973   -1.0031 N   0  0  0  0  0  0  0  0  0  0  0  0
   39.8533    3.5182    2.1331 C   0  0  0  0  0  0  0  0  0  0  0  0
   42.3230    1.9567   -3.8673 C   0  0  2  0  0  0  0  0  0  0  0  0
   41.2302    1.0700   -4.3031 O   0  0  0  0  0  0  0  0  0  0  0  0
   46.6670    1.1946   -6.2661 C   0  0  2  0  0  0  0  0  0  0  0  0
   47.3609    2.3330   -5.5765 N   0  0  0  0  0  0  0  0  0  0  0  0
   35.9634    1.0751   -8.0664 C   0  0  0  0  0  0  0  0  0  0  0  0
   35.9125    1.2776   -9.4437 N   0  0  0  0  0  0  0  0  0  0  0  0
   43.1547    8.5248    0.1873 C   0  0  1  0  0  0  0  0  0  0  0  0
   44.1919    9.4950    0.1995 O   0  0  0  0  0  0  0  0  0  0  0  0
   40.9994    4.6376    1.8091 C   0  0  2  0  0  0  0  0  0  0  0  0
   40.5624    5.9434    2.1703 N   0  0  0  0  0  0  0  0  0  0  0  0
   43.7582    1.4904   -3.8292 C   0  0  2  0  0  0  0  0  0  0  0  0
   44.8898    1.3893   -4.6064 O   0  0  0  0  0  0  0  0  0  0  0  0
   46.9581    1.2179   -7.8091 C   0  0  1  0  0  0  0  0  0  0  0  0
   46.2595    0.0696   -8.4049 O   0  0  0  0  0  0  0  0  0  0  0  0
   41.7648    9.1925    0.0709 C   0  0  2  0  0  0  0  0  0  0  0  0
   41.5147   10.0967    1.2223 O   0  0  0  0  0  0  0  0  0  0  0  0
   41.3598    4.6052    0.2728 C   0  0  2  0  0  0  0  0  0  0  0  0
   43.8704    0.8006   -2.3803 C   0  0  2  0  0  0  0  0  0  0  0  0
   43.1295    1.6364   -1.6144 O   0  0  0  0  0  0  0  0  0  0  0  0
   46.4309    2.6312   -8.4321 C   0  0  2  0  0  0  0  0  0  0  0  0
   47.1392    3.7795   -7.8230 O   0  0  0  0  0  0  0  0  0  0  0  0
   40.6327    8.1121    0.0403 C   0  0  2  0  0  0  0  0  0  0  0  0
   40.9460    7.2653   -1.0951 O   0  0  0  0  0  0  0  0  0  0  0  0
   41.8435    3.1547   -0.0660 C   0  0  2  0  0  0  0  0  0  0  0  0
   42.1565    3.2452   -1.4348 O   0  0  0  0  0  0  0  0  0  0  0  0
   45.2902    0.7270   -1.7062 C   0  0  0  0  0  0  0  0  0  0  0  0
   45.8141    2.0808   -1.5273 O   0  0  0  0  0  0  0  0  0  0  0  0
   44.8697    2.8001   -8.1612 C   0  0  1  0  0  0  0  0  0  0  0  0
   44.6699    2.7147   -6.6624 O   0  0  0  0  0  0  0  0  0  0  0  0
   39.3535    8.8339   -0.0953 C   0  0  0  0  0  0  0  0  0  0  0  0
   39.2777    9.4318   -1.2919 O   0  0  0  0  0  0  0  0  0  0  0  0
   40.7001    2.0923    0.2278 C   0  0  1  0  0  0  0  0  0  0  0  0
   41.1457    0.8040   -0.0693 O   0  0  0  0  0  0  0  0  0  0  0  0
   41.0507    0.5546   -5.6702 C   0  0  0  0  0  0  0  0  0  0  0  0
   44.4850    4.1871   -8.7786 C   0  0  0  0  0  0  0  0  0  0  0  0
   44.6011    4.2145  -10.2084 N   0  0  0  0  0  0  0  0  0  0  0  0
   39.6935   -0.1432   -5.7721 C   0  0  0  0  0  0  0  0  0  0  0  0
   38.6788    0.8341   -5.3326 N   0  0  0  0  0  0  0  0  0  0  0  0
   37.2492    0.6748   -5.8542 C   0  0  0  0  0  0  0  0  0  0  0  0
  1  2  1  1  0  0  0
  1  8  1  0  0  0  0
  1 33  1  0  0  0  0
  3  4  1  6  0  0  0
  3 10  1  0  0  0  0
  3 42  1  0  0  0  0
  5 11  1  0  0  0  0
  5 29  1  0  0  0  0
  5 35  1  6  0  0  0
  6 13  1  0  0  0  0
  6 39  1  0  0  0  0
  6 22  1  1  0  0  0
  7 15  1  0  0  0  0
  8  9  1  1  0  0  0
  8 17  1  0  0  0  0
 10 19  1  0  0  0  0
 11 12  1  1  0  0  0
 11 21  1  0  0  0  0
 12 44  1  0  0  0  0
 13 14  1  1  0  0  0
 13 23  1  0  0  0  0
 15 16  1  0  0  0  0
 17 18  1  6  0  0  0
 17 25  1  0  0  0  0
 19 20  1  6  0  0  0
 19 27  1  0  0  0  0
 21 22  1  6  0  0  0
 21 28  1  0  0  0  0
 23 24  1  6  0  0  0
 23 30  1  0  0  0  0
 25 26  1  1  0  0  0
 25 32  1  0  0  0  0
 27  2  1  1  0  0  0
 27 34  1  0  0  0  0
 28 29  1  0  0  0  0
 28 36  1  1  0  0  0
 30 31  1  1  0  0  0
 30 38  1  0  0  0  0
 32 33  1  0  0  0  0
 32 40  1  6  0  0  0
 34 35  1  6  0  0  0
 34 42  1  0  0  0  0
 36 37  1  0  0  0  0
 38 39  1  0  0  0  0
 38 45  1  1  0  0  0
 40 41  1  0  0  0  0
 42 43  1  1  0  0  0
 44 47  1  0  0  0  0
 45 46  1  0  0  0  0
 47 48  1  0  0  0  0
 48 49  1  0  0  0  0
 49  7  1  0  0  0  0
M  END
>  <CHROM.1>
174.55120675,167.37989547,-178.75132036,-172.47548163,178.92792737,-171.15323236
-21.58675088,-133.40636653,59.91941359,66.90983603,-156.09668030,66.70176254
54.90745358,154.70588003,-72.42192859,-177.18334090,42.35069657,3.56869925
-3.12273253,-1.82064727,-0.34052995,-2.23597821

>  <Name>
2bee_lig

>  <RI>
0

>  <Rbt.Current_Directory>
/home/itssahil/PROJECTS/Mol_Feturizer/New_Systems/rnas/2bee

>  <Rbt.Executable>
rbdock ($Id: //depot/dev/client3/rdock/2013.1/src/exe/rbdock.cxx#4 $)

>  <Rbt.Library>
libRbt.so (2013.1, Build901 2013/11/27)

>  <Rbt.Parameter_File>
/export/apps/rDock/src/rDock_2013.1_src/data/scripts/dock_solv.prm

>  <Rbt.Receptor>
prm/pocket_docking_6.prm

>  <SCORE>
-6.30667

>  <SCORE.INTER>
1.13172

>  <SCORE.INTER.CONST>
1

>  <SCORE.INTER.POLAR>
-0.957285

>  <SCORE.INTER.ROT>
16

>  <SCORE.INTER.SOLV>
13.8556

>  <SCORE.INTER.VDW>
-14.9398

>  <SCORE.INTER.norm>
0.0230963

>  <SCORE.INTRA>
-7.43839

>  <SCORE.INTRA.DIHEDRAL>
-20.5033

>  <SCORE.INTRA.DIHEDRAL.0>
36.0842

>  <SCORE.INTRA.POLAR>
0

>  <SCORE.INTRA.POLAR.0>
0

>  <SCORE.INTRA.REPUL>
0

>  <SCORE.INTRA.REPUL.0>
0

>  <SCORE.INTRA.SOLV>
-1.33608

>  <SCORE.INTRA.SOLV.lig_0>
-126.444

>  <SCORE.INTRA.VDW>
3.48131

>  <SCORE.INTRA.VDW.0>
-7.40469

>  <SCORE.INTRA.norm>
-0.151804

>  <SCORE.RESTR>
0

>  <SCORE.RESTR.CAVITY>
0

>  <SCORE.RESTR.norm>
0

>  <SCORE.SYSTEM>
0

>  <SCORE.SYSTEM.CONST>
0

>  <SCORE.SYSTEM.DIHEDRAL>
0

>  <SCORE.SYSTEM.SOLV>
0

>  <SCORE.SYSTEM.norm>
0

>  <SCORE.heavy>
49

>  <SCORE.norm>
-0.128708

>  <RMSD>
8.875

$$$$
2bee_lig
 OpenBabel11021811423D
libRbt.so/2013.1/901 2013/11/27
 49 52  0  0  0  0  0  0  0  0999 V2000
   40.0398    0.5599   -1.9091 C   0  0  2  0  0  0  0  0  0  0  0  0
   40.4641    0.6752   -3.2614 O   0  0  0  0  0  0  0  0  0  0  0  0
   44.8365    0.7389   -2.7589 C   0  0  2  0  0  0  0  0  0  0  0  0
   46.2814    0.6623   -3.1072 N   0  0  0  0  0  0  0  0  0  0  0  0
   42.0320    4.3166   -3.8281 C   0  0  1  0  0  0  0  0  0  0  0  0
   43.3304    6.6613   -7.4754 C   0  0  1  0  0  0  0  0  0  0  0  0
   42.3542    7.3680    1.3178 C   0  0  0  0  0  0  0  0  0  0  0  0
   38.4719    0.3991   -1.8385 C   0  0  2  0  0  0  0  0  0  0  0  0
   38.0469   -0.7248   -2.6660 N   0  0  0  0  0  0  0  0  0  0  0  0
   44.1130   -0.6125   -3.2041 C   0  0  0  0  0  0  0  0  0  0  0  0
   42.8125    5.5637   -4.0895 C   0  0  2  0  0  0  0  0  0  0  0  0
   42.8991    6.4444   -2.9118 O   0  0  0  0  0  0  0  0  0  0  0  0
   44.6660    6.8076   -6.5666 C   0  0  2  0  0  0  0  0  0  0  0  0
   44.5364    8.0571   -5.7449 N   0  0  0  0  0  0  0  0  0  0  0  0
   41.4113    6.6940    2.1287 C   0  0  0  0  0  0  0  0  0  0  0  0
   41.8331    6.0302    3.2786 N   0  0  0  0  0  0  0  0  0  0  0  0
   37.7830    1.7580   -2.2974 C   0  0  1  0  0  0  0  0  0  0  0  0
   36.3728    1.6053   -2.2261 O   0  0  0  0  0  0  0  0  0  0  0  0
   42.5182   -0.5623   -2.8500 C   0  0  2  0  0  0  0  0  0  0  0  0
   41.8656   -1.7673   -3.2353 N   0  0  0  0  0  0  0  0  0  0  0  0
   42.0688    5.9750   -5.3371 C   0  0  2  0  0  0  0  0  0  0  0  0
   42.2327    6.6388   -6.5318 O   0  0  0  0  0  0  0  0  0  0  0  0
   45.9094    6.8960   -7.5217 C   0  0  1  0  0  0  0  0  0  0  0  0
   45.9741    5.6355   -8.2757 O   0  0  0  0  0  0  0  0  0  0  0  0
   38.2690    2.9053   -1.3814 C   0  0  2  0  0  0  0  0  0  0  0  0
   37.6604    4.1983   -1.7858 O   0  0  0  0  0  0  0  0  0  0  0  0
   41.8455    0.6628   -3.5833 C   0  0  2  0  0  0  0  0  0  0  0  0
   40.5571    5.5299   -5.0139 C   0  0  2  0  0  0  0  0  0  0  0  0
   40.7434    4.3521   -4.3720 O   0  0  0  0  0  0  0  0  0  0  0  0
   45.7328    8.1805   -8.5129 C   0  0  2  0  0  0  0  0  0  0  0  0
   45.6664    9.4430   -7.7427 O   0  0  0  0  0  0  0  0  0  0  0  0
   39.8256    3.0509   -1.4555 C   0  0  2  0  0  0  0  0  0  0  0  0
   40.3477    1.7567   -1.0597 O   0  0  0  0  0  0  0  0  0  0  0  0
   42.5917    1.9579   -3.1158 C   0  0  2  0  0  0  0  0  0  0  0  0
   41.9046    2.9755   -3.8030 O   0  0  0  0  0  0  0  0  0  0  0  0
   39.6025    5.2249   -6.2269 C   0  0  0  0  0  0  0  0  0  0  0  0
   38.2484    4.9812   -5.7304 O   0  0  0  0  0  0  0  0  0  0  0  0
   44.3923    8.0363   -9.3621 C   0  0  1  0  0  0  0  0  0  0  0  0
   43.2541    7.9054   -8.3716 O   0  0  0  0  0  0  0  0  0  0  0  0
   40.1988    4.1447   -0.5389 C   0  0  0  0  0  0  0  0  0  0  0  0
   40.1981    3.7135    0.7297 O   0  0  0  0  0  0  0  0  0  0  0  0
   44.1312    1.8959   -3.5010 C   0  0  1  0  0  0  0  0  0  0  0  0
   44.7865    3.0504   -3.0719 O   0  0  0  0  0  0  0  0  0  0  0  0
   43.6559    7.7055   -2.8500 C   0  0  0  0  0  0  0  0  0  0  0  0
   44.3194    9.3232  -10.2519 C   0  0  0  0  0  0  0  0  0  0  0  0
   43.2921    9.2549  -11.2511 N   0  0  0  0  0  0  0  0  0  0  0  0
   43.4703    8.3382   -1.4701 C   0  0  0  0  0  0  0  0  0  0  0  0
   44.1359    7.4465   -0.5005 N   0  0  0  0  0  0  0  0  0  0  0  0
   43.2635    6.5019    0.3289 C   0  0  0  0  0  0  0  0  0  0  0  0
  1  2  1  6  0  0  0
  1  8  1  0  0  0  0
  1 33  1  0  0  0  0
  3  4  1  6  0  0  0
  3 10  1  0  0  0  0
  3 42  1  0  0  0  0
  5 11  1  0  0  0  0
  5 29  1  0  0  0  0
  5 35  1  6  0  0  0
  6 13  1  0  0  0  0
  6 39  1  0  0  0  0
  6 22  1  1  0  0  0
  7 15  1  0  0  0  0
  8  9  1  6  0  0  0
  8 17  1  0  0  0  0
 10 19  1  0  0  0  0
 11 12  1  1  0  0  0
 11 21  1  0  0  0  0
 12 44  1  0  0  0  0
 13 14  1  6  0  0  0
 13 23  1  0  0  0  0
 15 16  1  0  0  0  0
 17 18  1  1  0  0  0
 17 25  1  0  0  0  0
 19 20  1  6  0  0  0
 19 27  1  0  0  0  0
 21 22  1  1  0  0  0
 21 28  1  0  0  0  0
 23 24  1  6  0  0  0
 23 30  1  0  0  0  0
 25 26  1  6  0  0  0
 25 32  1  0  0  0  0
 27  2  1  1  0  0  0
 27 34  1  0  0  0  0
 28 29  1  0  0  0  0
 28 36  1  6  0  0  0
 30 31  1  1  0  0  0
 30 38  1  0  0  0  0
 32 33  1  0  0  0  0
 32 40  1  1  0  0  0
 34 35  1  6  0  0  0
 34 42  1  0  0  0  0
 36 37  1  0  0  0  0
 38 39  1  0  0  0  0
 38 45  1  1  0  0  0
 40 41  1  0  0  0  0
 42 43  1  1  0  0  0
 44 47  1  0  0  0  0
 45 46  1  0  0  0  0
 47 48  1  0  0  0  0
 48 49  1  0  0  0  0
 49  7  1  0  0  0  0
M  END
>  <CHROM.1>
-172.15398740,60.38304862,-44.23404352,78.12583753,176.86233072,178.72163666
39.33238630,48.93485763,-173.96174868,78.60326380,178.87661726,169.90040969
66.99746073,-101.40059109,-66.61392041,176.50411484,42.11381560,4.47842518
-3.77198750,2.97230561,1.11766921,0.93952823

>  <Name>
2bee_lig

>  <RI>
0

>  <Rbt.Current_Directory>
/home/itssahil/PROJECTS/Mol_Feturizer/New_Systems/rnas/2bee

>  <Rbt.Executable>
rbdock ($Id: //depot/dev/client3/rdock/2013.1/src/exe/rbdock.cxx#4 $)

>  <Rbt.Library>
libRbt.so (2013.1, Build901 2013/11/27)

>  <Rbt.Parameter_File>
/export/apps/rDock/src/rDock_2013.1_src/data/scripts/dock_solv.prm

>  <Rbt.Receptor>
prm/pocket_docking_5.prm

>  <SCORE>
-24.1282

>  <SCORE.INTER>
-11.961

>  <SCORE.INTER.CONST>
1

>  <SCORE.INTER.POLAR>
-1.41798

>  <SCORE.INTER.ROT>
16

>  <SCORE.INTER.SOLV>
24.6815

>  <SCORE.INTER.VDW>
-25.7412

>  <SCORE.INTER.norm>
-0.244103

>  <SCORE.INTRA>
-12.198

>  <SCORE.INTRA.DIHEDRAL>
-24.6846

>  <SCORE.INTRA.DIHEDRAL.0>
36.0842

>  <SCORE.INTRA.POLAR>
0

>  <SCORE.INTRA.POLAR.0>
0

>  <SCORE.INTRA.REPUL>
0

>  <SCORE.INTRA.REPUL.0>
0

>  <SCORE.INTRA.SOLV>
-0.13802

>  <SCORE.INTRA.SOLV.lig_0>
-126.444

>  <SCORE.INTRA.VDW>
0.213282

>  <SCORE.INTRA.VDW.0>
-7.40469

>  <SCORE.INTRA.norm>
-0.248939

>  <SCORE.RESTR>
0.0308643

>  <SCORE.RESTR.CAVITY>
0.0308643

>  <SCORE.RESTR.norm>
0.000629883

>  <SCORE.SYSTEM>
0

>  <SCORE.SYSTEM.CONST>
0

>  <SCORE.SYSTEM.DIHEDRAL>
0

>  <SCORE.SYSTEM.SOLV>
0

>  <SCORE.SYSTEM.norm>
0

>  <SCORE.heavy>
49

>  <SCORE.norm>
-0.492412

>  <RMSD>
8.886

$$$$
2bee_lig
 OpenBabel11021811423D
libRbt.so/2013.1/901 2013/11/27
 49 52  0  0  0  0  0  0  0  0999 V2000
   48.3645    6.6419   -7.9337 C   0  0  2  0  0  0  0  0  0  0  0  0
   48.6766    7.2827   -9.1642 O   0  0  0  0  0  0  0  0  0  0  0  0
   47.4639   11.5067   -9.4115 C   0  0  2  0  0  0  0  0  0  0  0  0
   46.7620   12.7305   -9.8854 N   0  0  0  0  0  0  0  0  0  0  0  0
   45.0257    8.0345   -7.9076 C   0  0  1  0  0  0  0  0  0  0  0  0
   42.9340    9.5717  -11.5531 C   0  0  1  0  0  0  0  0  0  0  0  0
   46.3295    4.7983   -5.5078 C   0  0  0  0  0  0  0  0  0  0  0  0
   49.5930    5.7876   -7.4337 C   0  0  2  0  0  0  0  0  0  0  0  0
   50.7847    6.6253   -7.3527 N   0  0  0  0  0  0  0  0  0  0  0  0
   48.2408   10.8360  -10.6340 C   0  0  0  0  0  0  0  0  0  0  0  0
   43.6491    8.6124   -7.8481 C   0  0  2  0  0  0  0  0  0  0  0  0
   42.8365    8.0494   -6.7559 O   0  0  0  0  0  0  0  0  0  0  0  0
   44.3976   10.1999  -11.2464 C   0  0  2  0  0  0  0  0  0  0  0  0
   44.2767   11.1034  -10.0539 N   0  0  0  0  0  0  0  0  0  0  0  0
   47.5228    5.1373   -4.8281 C   0  0  0  0  0  0  0  0  0  0  0  0
   47.6134    6.3489   -4.1465 N   0  0  0  0  0  0  0  0  0  0  0  0
   49.8096    4.5540   -8.4153 C   0  0  1  0  0  0  0  0  0  0  0  0
   50.9138    3.7887   -7.9549 O   0  0  0  0  0  0  0  0  0  0  0  0
   49.0155    9.4784  -10.1561 C   0  0  2  0  0  0  0  0  0  0  0  0
   49.7191    8.8775  -11.2379 N   0  0  0  0  0  0  0  0  0  0  0  0
   43.3015    8.3808   -9.2988 C   0  0  2  0  0  0  0  0  0  0  0  0
   42.5511    8.8939  -10.3325 O   0  0  0  0  0  0  0  0  0  0  0  0
   44.8669   11.0057  -12.5099 C   0  0  1  0  0  0  0  0  0  0  0  0
   44.9746   10.0520  -13.6237 O   0  0  0  0  0  0  0  0  0  0  0  0
   48.5173    3.7056   -8.4533 C   0  0  2  0  0  0  0  0  0  0  0  0
   48.6712    2.5491   -9.3724 O   0  0  0  0  0  0  0  0  0  0  0  0
   47.9758    8.4495   -9.5632 C   0  0  2  0  0  0  0  0  0  0  0  0
   44.0202    6.9776   -9.6178 C   0  0  2  0  0  0  0  0  0  0  0  0
   45.1830    7.0969   -8.9340 O   0  0  0  0  0  0  0  0  0  0  0  0
   43.7809   12.1815  -12.8288 C   0  0  2  0  0  0  0  0  0  0  0  0
   43.6794   13.1338  -11.6999 O   0  0  0  0  0  0  0  0  0  0  0  0
   47.3052    4.5653   -8.9449 C   0  0  2  0  0  0  0  0  0  0  0  0
   47.2224    5.6736   -8.0126 O   0  0  0  0  0  0  0  0  0  0  0  0
   47.2415    9.1559   -8.3739 C   0  0  2  0  0  0  0  0  0  0  0  0
   46.3678    8.1544   -7.9117 O   0  0  0  0  0  0  0  0  0  0  0  0
   44.4154    6.6736  -11.1102 C   0  0  0  0  0  0  0  0  0  0  0  0
   43.9083    5.3547  -11.4882 O   0  0  0  0  0  0  0  0  0  0  0  0
   42.3427   11.5441  -13.0821 C   0  0  1  0  0  0  0  0  0  0  0  0
   41.9892   10.7461  -11.8444 O   0  0  0  0  0  0  0  0  0  0  0  0
   46.1202    3.6872   -8.9267 C   0  0  0  0  0  0  0  0  0  0  0  0
   46.1471    2.8425   -9.9664 O   0  0  0  0  0  0  0  0  0  0  0  0
   46.4715   10.4525   -8.8723 C   0  0  1  0  0  0  0  0  0  0  0  0
   45.8291   11.0774   -7.8032 O   0  0  0  0  0  0  0  0  0  0  0  0
   43.0183    8.3442   -5.3252 C   0  0  0  0  0  0  0  0  0  0  0  0
   41.3890   12.7564  -13.3540 C   0  0  0  0  0  0  0  0  0  0  0  0
   41.6978   13.4486  -14.5723 N   0  0  0  0  0  0  0  0  0  0  0  0
   44.2421    7.5882   -4.8058 C   0  0  0  0  0  0  0  0  0  0  0  0
   44.2607    6.2839   -5.4961 N   0  0  0  0  0  0  0  0  0  0  0  0
   44.9335    5.1037   -4.7918 C   0  0  0  0  0  0  0  0  0  0  0  0
  1  2  1  6  0  0  0
  1  8  1  0  0  0  0
  1 33  1  0  0  0  0
  3  4  1  6  0  0  0
  3 10  1  0  0  0  0
  3 42  1  0  0  0  0
  5 11  1  0  0  0  0
  5 29  1  0  0  0  0
  5 35  1  6  0  0  0
  6 13  1  0  0  0  0
  6 39  1  0  0  0  0
  6 22  1  1  0  0  0
  7 15  1  0  0  0  0
  8  9  1  6  0  0  0
  8 17  1  0  0  0  0
 10 19  1  0  0  0  0
 11 12  1  1  0  0  0
 11 21  1  0  0  0  0
 12 44  1  0  0  0  0
 13 14  1  1  0  0  0
 13 23  1  0  0  0  0
 15 16  1  0  0  0  0
 17 18  1  1  0  0  0
 17 25  1  0  0  0  0
 19 20  1  6  0  0  0
 19 27  1  0  0  0  0
 21 22  1  1  0  0  0
 21 28  1  0  0  0  0
 23 24  1  6  0  0  0
 23 30  1  0  0  0  0
 25 26  1  6  0  0  0
 25 32  1  0  0  0  0
 27  2  1  1  0  0  0
 27 34  1  0  0  0  0
 28 29  1  0  0  0  0
 28 36  1  6  0  0  0
 30 31  1  1  0  0  0
 30 38  1  0  0  0  0
 32 33  1  0  0  0  0
 32 40  1  1  0  0  0
 34 35  1  6  0  0  0
 34 42  1  0  0  0  0
 36 37  1  0  0  0  0
 38 39  1  0  0  0  0
 38 45  1  1  0  0  0
 40 41  1  0  0  0  0
 42 43  1  1  0  0  0
 44 47  1  0  0  0  0
 45 46  1  0  0  0  0
 47 48  1  0  0  0  0
 48 49  1  0  0  0  0
 49  7  1  0  0  0  0
M  END
>  <CHROM.1>
-156.82570291,-31.07236522,-23.50436013,-42.12135345,72.83574904,-75.70157027
109.52751499,137.50182719,-129.25857088,-75.79584646,-113.06626835,66.30717665
-36.66378257,-153.17496915,-106.44274099,107.67542014,45.82837369,8.04375031
-9.19549588,-1.03481930,0.31709324,-0.80731407

>  <Name>
2bee_lig

>  <RI>
0

>  <Rbt.Current_Directory>
/home/itssahil/PROJECTS/Mol_Feturizer/New_Systems/rnas/2bee

>  <Rbt.Executable>
rbdock ($Id: //depot/dev/client3/rdock/2013.1/src/exe/rbdock.cxx#4 $)

>  <Rbt.Library>
libRbt.so (2013.1, Build901 2013/11/27)

>  <Rbt.Parameter_File>
/export/apps/rDock/src/rDock_2013.1_src/data/scripts/dock_solv.prm

>  <Rbt.Receptor>
prm/blind_docking_60.prm

>  <SCORE>
110.108

>  <SCORE.INTER>
84.941

>  <SCORE.INTER.CONST>
1

>  <SCORE.INTER.POLAR>
-0.380248

>  <SCORE.INTER.ROT>
16

>  <SCORE.INTER.SOLV>
44.3978

>  <SCORE.INTER.VDW>
28.8289

>  <SCORE.INTER.norm>
1.73349

>  <SCORE.INTRA>
10.5812

>  <SCORE.INTRA.DIHEDRAL>
7.34707

>  <SCORE.INTRA.DIHEDRAL.0>
36.0842

>  <SCORE.INTRA.POLAR>
0

>  <SCORE.INTRA.POLAR.0>
0

>  <SCORE.INTRA.REPUL>
0

>  <SCORE.INTRA.REPUL.0>
0

>  <SCORE.INTRA.SOLV>
10.9117

>  <SCORE.INTRA.SOLV.lig_0>
-126.444

>  <SCORE.INTRA.VDW>
1.4518

>  <SCORE.INTRA.VDW.0>
-7.40469

>  <SCORE.INTRA.norm>
0.215942

>  <SCORE.RESTR>
14.5862

>  <SCORE.RESTR.CAVITY>
14.5862

>  <SCORE.RESTR.norm>
0.297678

>  <SCORE.SYSTEM>
0

>  <SCORE.SYSTEM.CONST>
0

>  <SCORE.SYSTEM.DIHEDRAL>
0

>  <SCORE.SYSTEM.SOLV>
0

>  <SCORE.SYSTEM.norm>
0

>  <SCORE.heavy>
49

>  <SCORE.norm>
2.24711

>  <RMSD>
8.887

$$$$
2bee_lig
 OpenBabel11021811423D
libRbt.so/2013.1/901 2013/11/27
 49 52  0  0  0  0  0  0  0  0999 V2000
   40.8392    1.5803   -2.9729 C   0  0  2  0  0  0  0  0  0  0  0  0
   42.0850    1.0788   -3.4404 O   0  0  0  0  0  0  0  0  0  0  0  0
   45.5078    2.7293   -5.6617 C   0  0  2  0  0  0  0  0  0  0  0  0
   46.2688    3.4292   -6.7322 N   0  0  0  0  0  0  0  0  0  0  0  0
   42.2398    4.9300   -3.4657 C   0  0  1  0  0  0  0  0  0  0  0  0
   43.0899    6.7424   -7.4712 C   0  0  1  0  0  0  0  0  0  0  0  0
   42.4196   10.0263   -0.6175 C   0  0  0  0  0  0  0  0  0  0  0  0
   40.2959    0.6849   -1.7931 C   0  0  2  0  0  0  0  0  0  0  0  0
   41.2998    0.5833   -0.7393 N   0  0  0  0  0  0  0  0  0  0  0  0
   44.6354    1.5608   -6.3108 C   0  0  0  0  0  0  0  0  0  0  0  0
   42.3394    6.3645   -3.8719 C   0  0  2  0  0  0  0  0  0  0  0  0
   41.6674    7.2762   -2.9297 O   0  0  0  0  0  0  0  0  0  0  0  0
   44.3922    6.9660   -6.5305 C   0  0  2  0  0  0  0  0  0  0  0  0
   44.1874    8.2269   -5.7424 N   0  0  0  0  0  0  0  0  0  0  0  0
   43.5004    9.2557   -1.1061 C   0  0  0  0  0  0  0  0  0  0  0  0
   44.4233    9.8287   -1.9782 N   0  0  0  0  0  0  0  0  0  0  0  0
   39.8958   -0.7467   -2.3611 C   0  0  1  0  0  0  0  0  0  0  0  0
   39.4038   -1.5436   -1.2934 O   0  0  0  0  0  0  0  0  0  0  0  0
   43.7727    0.7749   -5.1664 C   0  0  2  0  0  0  0  0  0  0  0  0
   42.9979   -0.2755   -5.7346 N   0  0  0  0  0  0  0  0  0  0  0  0
   41.8469    6.1783   -5.2866 C   0  0  2  0  0  0  0  0  0  0  0  0
   41.9682    6.6942   -6.5571 O   0  0  0  0  0  0  0  0  0  0  0  0
   45.6569    7.0860   -7.4538 C   0  0  1  0  0  0  0  0  0  0  0  0
   45.7956    5.8127   -8.1758 O   0  0  0  0  0  0  0  0  0  0  0  0
   38.8290   -0.5714   -3.4667 C   0  0  2  0  0  0  0  0  0  0  0  0
   38.4374   -1.8860   -4.0365 O   0  0  0  0  0  0  0  0  0  0  0  0
   42.8226    1.7909   -4.4206 C   0  0  2  0  0  0  0  0  0  0  0  0
   40.7288    5.0329   -5.1269 C   0  0  2  0  0  0  0  0  0  0  0  0
   41.2967    4.2135   -4.2103 O   0  0  0  0  0  0  0  0  0  0  0  0
   45.4541    8.3392   -8.4794 C   0  0  2  0  0  0  0  0  0  0  0  0
   45.3131    9.6146   -7.7413 O   0  0  0  0  0  0  0  0  0  0  0  0
   39.3774    0.3231   -4.6281 C   0  0  2  0  0  0  0  0  0  0  0  0
   39.7465    1.5775   -3.9998 O   0  0  0  0  0  0  0  0  0  0  0  0
   43.7248    2.9144   -3.8073 C   0  0  2  0  0  0  0  0  0  0  0  0
   42.7901    3.7399   -3.1555 O   0  0  0  0  0  0  0  0  0  0  0  0
   40.4062    4.1371   -6.3795 C   0  0  0  0  0  0  0  0  0  0  0  0
   39.1280    3.4564   -6.1739 O   0  0  0  0  0  0  0  0  0  0  0  0
   44.1449    8.1188   -9.3606 C   0  0  1  0  0  0  0  0  0  0  0  0
   42.9862    7.9616   -8.3982 O   0  0  0  0  0  0  0  0  0  0  0  0
   38.2922    0.4545   -5.6184 C   0  0  0  0  0  0  0  0  0  0  0  0
   37.2963    1.2032   -5.1255 O   0  0  0  0  0  0  0  0  0  0  0  0
   44.5262    3.6820   -4.9435 C   0  0  1  0  0  0  0  0  0  0  0  0
   45.3324    4.6738   -4.3844 O   0  0  0  0  0  0  0  0  0  0  0  0
   40.2183    7.3132   -2.6735 C   0  0  0  0  0  0  0  0  0  0  0  0
   44.0427    9.3811  -10.2821 C   0  0  0  0  0  0  0  0  0  0  0  0
   45.0725    9.4300  -11.2801 N   0  0  0  0  0  0  0  0  0  0  0  0
   39.9138    8.4144   -1.6569 C   0  0  0  0  0  0  0  0  0  0  0  0
   40.7298    8.1270   -0.4612 N   0  0  0  0  0  0  0  0  0  0  0  0
   41.3294    9.3081    0.3048 C   0  0  0  0  0  0  0  0  0  0  0  0
  1  2  1  6  0  0  0
  1  8  1  0  0  0  0
  1 33  1  0  0  0  0
  3  4  1  6  0  0  0
  3 10  1  0  0  0  0
  3 42  1  0  0  0  0
  5 11  1  0  0  0  0
  5 29  1  0  0  0  0
  5 35  1  6  0  0  0
  6 13  1  0  0  0  0
  6 39  1  0  0  0  0
  6 22  1  1  0  0  0
  7 15  1  0  0  0  0
  8  9  1  1  0  0  0
  8 17  1  0  0  0  0
 10 19  1  0  0  0  0
 11 12  1  1  0  0  0
 11 21  1  0  0  0  0
 12 44  1  0  0  0  0
 13 14  1  6  0  0  0
 13 23  1  0  0  0  0
 15 16  1  0  0  0  0
 17 18  1  1  0  0  0
 17 25  1  0  0  0  0
 19 20  1  6  0  0  0
 19 27  1  0  0  0  0
 21 22  1  1  0  0  0
 21 28  1  0  0  0  0
 23 24  1  6  0  0  0
 23 30  1  0  0  0  0
 25 26  1  6  0  0  0
 25 32  1  0  0  0  0
 27  2  1  1  0  0  0
 27 34  1  0  0  0  0
 28 29  1  0  0  0  0
 28 36  1  6  0  0  0
 30 31  1  1  0  0  0
 30 38  1  0  0  0  0
 32 33  1  0  0  0  0
 32 40  1  6  0  0  0
 34 35  1  6  0  0  0
 34 42  1  0  0  0  0
 36 37  1  0  0  0  0
 38 39  1  0  0  0  0
 38 45  1  6  0  0  0
 40 41  1  0  0  0  0
 42 43  1  1  0  0  0
 44 47  1  0  0  0  0
 45 46  1  0  0  0  0
 47 48  1  0  0  0  0
 48 49  1  0  0  0  0
 49  7  1  0  0  0  0
M  END
>  <CHROM.1>
-174.41920244,-52.13296773,-35.83133460,176.08957738,-65.40592837,-178.73331087
65.62609066,-156.35884421,-163.06374038,69.36777483,-102.83653542,69.27521087
-56.17268228,143.03810645,-66.58448507,-57.35091667,42.26130461,4.60288291
-4.75313086,2.54257054,-1.01972299,-2.63257228

>  <Name>
2bee_lig

>  <RI>
0

>  <Rbt.Current_Directory>
/home/itssahil/PROJECTS/Mol_Feturizer/New_Systems/rnas/2bee

>  <Rbt.Executable>
rbdock ($Id: //depot/dev/client3/rdock/2013.1/src/exe/rbdock.cxx#4 $)

>  <Rbt.Library>
libRbt.so (2013.1, Build901 2013/11/27)

>  <Rbt.Parameter_File>
/export/apps/rDock/src/rDock_2013.1_src/data/scripts/dock_solv.prm

>  <Rbt.Receptor>
prm/pocket_docking_6.prm

>  <SCORE>
-14.692

>  <SCORE.INTER>
-7.17912

>  <SCORE.INTER.CONST>
1

>  <SCORE.INTER.POLAR>
-2.35165

>  <SCORE.INTER.ROT>
16

>  <SCORE.INTER.SOLV>
22.6486

>  <SCORE.INTER.VDW>
-18.7634

>  <SCORE.INTER.norm>
-0.146513

>  <SCORE.INTRA>
-7.51284

>  <SCORE.INTRA.DIHEDRAL>
-16.4271

>  <SCORE.INTRA.DIHEDRAL.0>
36.0842

>  <SCORE.INTRA.POLAR>
0

>  <SCORE.INTRA.POLAR.0>
0

>  <SCORE.INTRA.REPUL>
0

>  <SCORE.INTRA.REPUL.0>
0

>  <SCORE.INTRA.SOLV>
3.25953

>  <SCORE.INTRA.SOLV.lig_0>
-126.444

>  <SCORE.INTRA.VDW>
-0.929046

>  <SCORE.INTRA.VDW.0>
-7.40469

>  <SCORE.INTRA.norm>
-0.153323

>  <SCORE.RESTR>
0

>  <SCORE.RESTR.CAVITY>
0

>  <SCORE.RESTR.norm>
0

>  <SCORE.SYSTEM>
0

>  <SCORE.SYSTEM.CONST>
0

>  <SCORE.SYSTEM.DIHEDRAL>
0

>  <SCORE.SYSTEM.SOLV>
0

>  <SCORE.SYSTEM.norm>
0

>  <SCORE.heavy>
49

>  <SCORE.norm>
-0.299836

>  <RMSD>
8.894

$$$$
2bee_lig
 OpenBabel11021811423D
libRbt.so/2013.1/901 2013/11/27
 49 52  0  0  0  0  0  0  0  0999 V2000
   41.0650    8.8090    0.2570 C   0  0  2  0  0  0  0  0  0  0  0  0
   41.4749    7.4999    0.6317 O   0  0  0  0  0  0  0  0  0  0  0  0
   39.6740    4.0251    2.6458 C   0  0  2  0  0  0  0  0  0  0  0  0
   38.6385    3.0528    3.0896 N   0  0  0  0  0  0  0  0  0  0  0  0
   41.6453    4.2899   -1.6408 C   0  0  1  0  0  0  0  0  0  0  0  0
   38.9091    2.0011   -4.3350 C   0  0  1  0  0  0  0  0  0  0  0  0
   47.4606    5.7185   -5.4073 C   0  0  0  0  0  0  0  0  0  0  0  0
   40.5398    8.8140   -1.2307 C   0  0  2  0  0  0  0  0  0  0  0  0
   39.4846    7.8194   -1.3917 N   0  0  0  0  0  0  0  0  0  0  0  0
   39.2307    5.4992    3.0682 C   0  0  0  0  0  0  0  0  0  0  0  0
   41.8432    2.9328   -2.2337 C   0  0  2  0  0  0  0  0  0  0  0  0
   43.2589    2.5284   -2.2828 O   0  0  0  0  0  0  0  0  0  0  0  0
   38.9612    0.8983   -3.1467 C   0  0  2  0  0  0  0  0  0  0  0  0
   40.0023   -0.1226   -3.5032 N   0  0  0  0  0  0  0  0  0  0  0  0
   47.2225    5.8031   -6.7990 C   0  0  0  0  0  0  0  0  0  0  0  0
   48.2691    5.6016   -7.6960 N   0  0  0  0  0  0  0  0  0  0  0  0
   41.7571    8.5419   -2.2187 C   0  0  1  0  0  0  0  0  0  0  0  0
   41.2758    8.5529   -3.5548 O   0  0  0  0  0  0  0  0  0  0  0  0
   40.3381    6.6002    2.5857 C   0  0  2  0  0  0  0  0  0  0  0  0
   39.9560    7.9177    2.9660 N   0  0  0  0  0  0  0  0  0  0  0  0
   41.0410    3.1739   -3.4895 C   0  0  2  0  0  0  0  0  0  0  0  0
   40.2541    2.5303   -4.4177 O   0  0  0  0  0  0  0  0  0  0  0  0
   37.5450    0.2305   -3.0266 C   0  0  1  0  0  0  0  0  0  0  0  0
   36.5906    1.2879   -2.6624 O   0  0  0  0  0  0  0  0  0  0  0  0
   42.8355    9.6290   -2.0031 C   0  0  2  0  0  0  0  0  0  0  0  0
   43.9998    9.4031   -2.8972 O   0  0  0  0  0  0  0  0  0  0  0  0
   40.5143    6.5307    1.0188 C   0  0  2  0  0  0  0  0  0  0  0  0
   41.3677    4.7115   -3.8313 C   0  0  2  0  0  0  0  0  0  0  0  0
   41.3839    5.2745   -2.5998 O   0  0  0  0  0  0  0  0  0  0  0  0
   37.1577   -0.4636   -4.4520 C   0  0  2  0  0  0  0  0  0  0  0  0
   38.1265   -1.5243   -4.8091 O   0  0  0  0  0  0  0  0  0  0  0  0
   43.3441    9.6180   -0.5228 C   0  0  2  0  0  0  0  0  0  0  0  0
   42.1602    9.8328    0.2874 O   0  0  0  0  0  0  0  0  0  0  0  0
   40.9446    5.0686    0.6586 C   0  0  2  0  0  0  0  0  0  0  0  0
   41.0942    5.1261   -0.7394 O   0  0  0  0  0  0  0  0  0  0  0  0
   40.3124    5.5206   -4.6723 C   0  0  0  0  0  0  0  0  0  0  0  0
   40.1505    4.8922   -5.9831 O   0  0  0  0  0  0  0  0  0  0  0  0
   37.1569    0.6301   -5.6109 C   0  0  1  0  0  0  0  0  0  0  0  0
   38.5346    1.2588   -5.6256 O   0  0  0  0  0  0  0  0  0  0  0  0
   44.3452   10.6948   -0.4045 C   0  0  0  0  0  0  0  0  0  0  0  0
   43.8778   11.8299   -0.9416 O   0  0  0  0  0  0  0  0  0  0  0  0
   39.8366    4.0238    1.1094 C   0  0  1  0  0  0  0  0  0  0  0  0
   40.2350    2.7252    0.7914 O   0  0  0  0  0  0  0  0  0  0  0  0
   44.2041    2.8792   -3.3554 C   0  0  0  0  0  0  0  0  0  0  0  0
   36.7963   -0.1482   -6.9213 C   0  0  0  0  0  0  0  0  0  0  0  0
   36.6058    0.7160   -8.0507 N   0  0  0  0  0  0  0  0  0  0  0  0
   44.4521    4.3882   -3.3358 C   0  0  0  0  0  0  0  0  0  0  0  0
   45.3164    4.6923   -4.4927 N   0  0  0  0  0  0  0  0  0  0  0  0
   46.2268    5.9194   -4.4111 C   0  0  0  0  0  0  0  0  0  0  0  0
  1  2  1  6  0  0  0
  1  8  1  0  0  0  0
  1 33  1  0  0  0  0
  3  4  1  6  0  0  0
  3 10  1  0  0  0  0
  3 42  1  0  0  0  0
  5 11  1  0  0  0  0
  5 29  1  0  0  0  0
  5 35  1  1  0  0  0
  6 13  1  0  0  0  0
  6 39  1  0  0  0  0
  6 22  1  6  0  0  0
  7 15  1  0  0  0  0
  8  9  1  1  0  0  0
  8 17  1  0  0  0  0
 10 19  1  0  0  0  0
 11 12  1  6  0  0  0
 11 21  1  0  0  0  0
 12 44  1  0  0  0  0
 13 14  1  6  0  0  0
 13 23  1  0  0  0  0
 15 16  1  0  0  0  0
 17 18  1  6  0  0  0
 17 25  1  0  0  0  0
 19 20  1  6  0  0  0
 19 27  1  0  0  0  0
 21 22  1  6  0  0  0
 21 28  1  0  0  0  0
 23 24  1  6  0  0  0
 23 30  1  0  0  0  0
 25 26  1  6  0  0  0
 25 32  1  0  0  0  0
 27  2  1  1  0  0  0
 27 34  1  0  0  0  0
 28 29  1  0  0  0  0
 28 36  1  6  0  0  0
 30 31  1  6  0  0  0
 30 38  1  0  0  0  0
 32 33  1  0  0  0  0
 32 40  1  6  0  0  0
 34 35  1  6  0  0  0
 34 42  1  0  0  0  0
 36 37  1  0  0  0  0
 38 39  1  0  0  0  0
 38 45  1  6  0  0  0
 40 41  1  0  0  0  0
 42 43  1  1  0  0  0
 44 47  1  0  0  0  0
 45 46  1  0  0  0  0
 47 48  1  0  0  0  0
 48 49  1  0  0  0  0
 49  7  1  0  0  0  0
M  END
>  <CHROM.1>
-79.91723185,47.36745851,-59.43709957,-178.48099375,-84.91280032,66.68406986
72.70819862,-92.02039524,-61.42027310,47.96274846,167.43919524,173.51179353
-175.58841174,-153.03123188,155.93399923,71.83086956,41.18332432,4.85418197
-2.38613293,0.90498284,0.68149535,0.88065181

>  <Name>
2bee_lig

>  <RI>
0

>  <Rbt.Current_Directory>
/home/itssahil/PROJECTS/Mol_Feturizer/New_Systems/rnas/2bee

>  <Rbt.Executable>
rbdock ($Id: //depot/dev/client3/rdock/2013.1/src/exe/rbdock.cxx#4 $)

>  <Rbt.Library>
libRbt.so (2013.1, Build901 2013/11/27)

>  <Rbt.Parameter_File>
/export/apps/rDock/src/rDock_2013.1_src/data/scripts/dock_solv.prm

>  <Rbt.Receptor>
prm/pocket_docking_7.prm

>  <SCORE>
-16.9762

>  <SCORE.INTER>
-9.17932

>  <SCORE.INTER.CONST>
1

>  <SCORE.INTER.POLAR>
-1.50774

>  <SCORE.INTER.ROT>
16

>  <SCORE.INTER.SOLV>
12.2109

>  <SCORE.INTER.VDW>
-19.4307

>  <SCORE.INTER.norm>
-0.187333

>  <SCORE.INTRA>
-7.79693

>  <SCORE.INTRA.DIHEDRAL>
-18.3104

>  <SCORE.INTRA.DIHEDRAL.0>
36.0842

>  <SCORE.INTRA.POLAR>
0

>  <SCORE.INTRA.POLAR.0>
0

>  <SCORE.INTRA.REPUL>
0

>  <SCORE.INTRA.REPUL.0>
0

>  <SCORE.INTRA.SOLV>
0.636522

>  <SCORE.INTRA.SOLV.lig_0>
-126.444

>  <SCORE.INTRA.VDW>
1.04002

>  <SCORE.INTRA.VDW.0>
-7.40469

>  <SCORE.INTRA.norm>
-0.159121

>  <SCORE.RESTR>
0

>  <SCORE.RESTR.CAVITY>
0

>  <SCORE.RESTR.norm>
0

>  <SCORE.SYSTEM>
0

>  <SCORE.SYSTEM.CONST>
0

>  <SCORE.SYSTEM.DIHEDRAL>
0

>  <SCORE.SYSTEM.SOLV>
0

>  <SCORE.SYSTEM.norm>
0

>  <SCORE.heavy>
49

>  <SCORE.norm>
-0.346454

>  <RMSD>
8.916

$$$$
2bee_lig
 OpenBabel11021811423D
libRbt.so/2013.1/901 2013/11/27
 49 52  0  0  0  0  0  0  0  0999 V2000
   42.1637    8.8525   -2.6498 C   0  0  2  0  0  0  0  0  0  0  0  0
   42.7338    7.5543   -2.7581 O   0  0  0  0  0  0  0  0  0  0  0  0
   39.4694    5.3850   -4.7611 C   0  0  2  0  0  0  0  0  0  0  0  0
   38.7593    4.3038   -5.4970 N   0  0  0  0  0  0  0  0  0  0  0  0
   40.7016    5.2025   -0.2499 C   0  0  1  0  0  0  0  0  0  0  0  0
   37.7361    1.8093   -0.2203 C   0  0  1  0  0  0  0  0  0  0  0  0
   39.2631    2.7557    6.2674 C   0  0  0  0  0  0  0  0  0  0  0  0
   43.0679    9.7741   -1.7430 C   0  0  2  0  0  0  0  0  0  0  0  0
   44.4340    9.7934   -2.2549 N   0  0  0  0  0  0  0  0  0  0  0  0
   40.7408    5.8524   -5.6055 C   0  0  0  0  0  0  0  0  0  0  0  0
   39.5097    4.8681    0.5869 C   0  0  2  0  0  0  0  0  0  0  0  0
   39.4982    5.5760    1.8788 O   0  0  0  0  0  0  0  0  0  0  0  0
   37.2770    0.4029    0.4446 C   0  0  2  0  0  0  0  0  0  0  0  0
   38.4193   -0.5638    0.3264 N   0  0  0  0  0  0  0  0  0  0  0  0
   40.1761    1.8344    5.7031 C   0  0  0  0  0  0  0  0  0  0  0  0
   39.9992    0.4678    5.9076 N   0  0  0  0  0  0  0  0  0  0  0  0
   43.0122    9.2509   -0.2413 C   0  0  1  0  0  0  0  0  0  0  0  0
   43.8248   10.0888    0.5678 O   0  0  0  0  0  0  0  0  0  0  0  0
   41.5569    7.0325   -4.8227 C   0  0  2  0  0  0  0  0  0  0  0  0
   42.6880    7.4626   -5.5724 N   0  0  0  0  0  0  0  0  0  0  0  0
   39.6551    3.3678    0.5034 C   0  0  2  0  0  0  0  0  0  0  0  0
   38.9228    2.2022    0.5100 O   0  0  0  0  0  0  0  0  0  0  0  0
   36.0181   -0.1257   -0.3311 C   0  0  1  0  0  0  0  0  0  0  0  0
   34.9459    0.8647   -0.1544 O   0  0  0  0  0  0  0  0  0  0  0  0
   41.5435    9.2589    0.2425 C   0  0  2  0  0  0  0  0  0  0  0  0
   41.4441    8.7616    1.6384 O   0  0  0  0  0  0  0  0  0  0  0  0
   42.0251    6.5117   -3.4083 C   0  0  2  0  0  0  0  0  0  0  0  0
   41.2505    3.1630    0.5197 C   0  0  2  0  0  0  0  0  0  0  0  0
   41.6731    4.1957   -0.2477 O   0  0  0  0  0  0  0  0  0  0  0  0
   36.4022   -0.3208   -1.9053 C   0  0  2  0  0  0  0  0  0  0  0  0
   37.4839   -1.3178   -2.0704 O   0  0  0  0  0  0  0  0  0  0  0  0
   40.6559    8.3463   -0.6681 C   0  0  2  0  0  0  0  0  0  0  0  0
   40.8091    8.8819   -2.0075 O   0  0  0  0  0  0  0  0  0  0  0  0
   40.7451    6.0642   -2.6248 C   0  0  2  0  0  0  0  0  0  0  0  0
   41.2701    5.6464   -1.3880 O   0  0  0  0  0  0  0  0  0  0  0  0
   41.8334    1.8577   -0.1377 C   0  0  0  0  0  0  0  0  0  0  0  0
   43.2931    1.8775   -0.0459 O   0  0  0  0  0  0  0  0  0  0  0  0
   36.8927    1.0631   -2.5245 C   0  0  1  0  0  0  0  0  0  0  0  0
   38.0696    1.5269   -1.6919 O   0  0  0  0  0  0  0  0  0  0  0  0
   39.2775    8.4335   -0.1503 C   0  0  0  0  0  0  0  0  0  0  0  0
   38.7900    9.6697   -0.3218 O   0  0  0  0  0  0  0  0  0  0  0  0
   39.9903    4.8958   -3.3913 C   0  0  1  0  0  0  0  0  0  0  0  0
   38.8478    4.5121   -2.6886 O   0  0  0  0  0  0  0  0  0  0  0  0
   40.6695    5.7720    2.7486 C   0  0  0  0  0  0  0  0  0  0  0  0
   37.2500    0.7510   -4.0171 C   0  0  0  0  0  0  0  0  0  0  0  0
   38.4264   -0.0592   -4.1530 N   0  0  0  0  0  0  0  0  0  0  0  0
   40.2014    5.9389    4.1950 C   0  0  0  0  0  0  0  0  0  0  0  0
   39.6062    4.6508    4.6007 N   0  0  0  0  0  0  0  0  0  0  0  0
   39.5536    4.3178    6.0933 C   0  0  0  0  0  0  0  0  0  0  0  0
  1  2  1  1  0  0  0
  1  8  1  0  0  0  0
  1 33  1  0  0  0  0
  3  4  1  6  0  0  0
  3 10  1  0  0  0  0
  3 42  1  0  0  0  0
  5 11  1  0  0  0  0
  5 29  1  0  0  0  0
  5 35  1  6  0  0  0
  6 13  1  0  0  0  0
  6 39  1  0  0  0  0
  6 22  1  1  0  0  0
  7 15  1  0  0  0  0
  8  9  1  6  0  0  0
  8 17  1  0  0  0  0
 10 19  1  0  0  0  0
 11 12  1  1  0  0  0
 11 21  1  0  0  0  0
 12 44  1  0  0  0  0
 13 14  1  6  0  0  0
 13 23  1  0  0  0  0
 15 16  1  0  0  0  0
 17 18  1  1  0  0  0
 17 25  1  0  0  0  0
 19 20  1  6  0  0  0
 19 27  1  0  0  0  0
 21 22  1  1  0  0  0
 21 28  1  0  0  0  0
 23 24  1  6  0  0  0
 23 30  1  0  0  0  0
 25 26  1  1  0  0  0
 25 32  1  0  0  0  0
 27  2  1  1  0  0  0
 27 34  1  0  0  0  0
 28 29  1  0  0  0  0
 28 36  1  6  0  0  0
 30 31  1  1  0  0  0
 30 38  1  0  0  0  0
 32 33  1  0  0  0  0
 32 40  1  1  0  0  0
 34 35  1  1  0  0  0
 34 42  1  0  0  0  0
 36 37  1  0  0  0  0
 38 39  1  0  0  0  0
 38 45  1  6  0  0  0
 40 41  1  0  0  0  0
 42 43  1  1  0  0  0
 44 47  1  0  0  0  0
 45 46  1  0  0  0  0
 47 48  1  0  0  0  0
 48 49  1  0  0  0  0
 49  7  1  0  0  0  0
M  END
>  <CHROM.1>
173.31293238,-2.75270141,-171.19917386,175.97302849,-42.15794432,-154.09916721
48.25014227,51.27630871,178.72812413,66.38695727,176.77333067,-69.85701971
65.85512204,156.33875337,-164.33497917,59.33016206,40.05692579,4.66614304
-0.54113473,0.33693992,-1.07341368,-1.46694053

>  <Name>
2bee_lig

>  <RI>
0

>  <Rbt.Current_Directory>
/home/itssahil/PROJECTS/Mol_Feturizer/New_Systems/rnas/2bee

>  <Rbt.Executable>
rbdock ($Id: //depot/dev/client3/rdock/2013.1/src/exe/rbdock.cxx#4 $)

>  <Rbt.Library>
libRbt.so (2013.1, Build901 2013/11/27)

>  <Rbt.Parameter_File>
/export/apps/rDock/src/rDock_2013.1_src/data/scripts/dock_solv.prm

>  <Rbt.Receptor>
prm/pocket_docking_8.prm

>  <SCORE>
-15.2367

>  <SCORE.INTER>
-6.19195

>  <SCORE.INTER.CONST>
1

>  <SCORE.INTER.POLAR>
-0.979796

>  <SCORE.INTER.ROT>
16

>  <SCORE.INTER.SOLV>
18.8565

>  <SCORE.INTER.VDW>
-21.4141

>  <SCORE.INTER.norm>
-0.126366

>  <SCORE.INTRA>
-9.04476

>  <SCORE.INTRA.DIHEDRAL>
-18.4691

>  <SCORE.INTRA.DIHEDRAL.0>
36.0842

>  <SCORE.INTRA.POLAR>
0

>  <SCORE.INTRA.POLAR.0>
0

>  <SCORE.INTRA.REPUL>
0

>  <SCORE.INTRA.REPUL.0>
0

>  <SCORE.INTRA.SOLV>
0.0217547

>  <SCORE.INTRA.SOLV.lig_0>
-126.444

>  <SCORE.INTRA.VDW>
0.178928

>  <SCORE.INTRA.VDW.0>
-7.40469

>  <SCORE.INTRA.norm>
-0.184587

>  <SCORE.RESTR>
0

>  <SCORE.RESTR.CAVITY>
0

>  <SCORE.RESTR.norm>
0

>  <SCORE.SYSTEM>
0

>  <SCORE.SYSTEM.CONST>
0

>  <SCORE.SYSTEM.DIHEDRAL>
0

>  <SCORE.SYSTEM.SOLV>
0

>  <SCORE.SYSTEM.norm>
0

>  <SCORE.heavy>
49

>  <SCORE.norm>
-0.310953

>  <RMSD>
8.925

$$$$
2bee_lig
 OpenBabel11021811423D
libRbt.so/2013.1/901 2013/11/27
 49 52  0  0  0  0  0  0  0  0999 V2000
   41.8065    7.9534   -2.6041 C   0  0  2  0  0  0  0  0  0  0  0  0
   42.6822    7.1870   -1.7869 O   0  0  0  0  0  0  0  0  0  0  0  0
   44.1433    3.0533   -2.1765 C   0  0  2  0  0  0  0  0  0  0  0  0
   44.1300    1.5652   -2.1913 N   0  0  0  0  0  0  0  0  0  0  0  0
   42.1737    5.6030   -5.4826 C   0  0  1  0  0  0  0  0  0  0  0  0
   40.0006    1.8815   -6.6466 C   0  0  1  0  0  0  0  0  0  0  0  0
   45.4718   10.7001   -8.7809 C   0  0  0  0  0  0  0  0  0  0  0  0
   42.2508    9.4672   -2.6141 C   0  0  2  0  0  0  0  0  0  0  0  0
   43.6481    9.5754   -3.0198 N   0  0  0  0  0  0  0  0  0  0  0  0
   43.6127    3.5727   -0.7635 C   0  0  0  0  0  0  0  0  0  0  0  0
   42.3737    4.8225   -6.7409 C   0  0  2  0  0  0  0  0  0  0  0  0
   42.9484    5.6289   -7.8317 O   0  0  0  0  0  0  0  0  0  0  0  0
   39.2975    0.9945   -7.8084 C   0  0  2  0  0  0  0  0  0  0  0  0
   38.0679    1.7212   -8.2702 N   0  0  0  0  0  0  0  0  0  0  0  0
   46.8709   10.5566   -8.9318 C   0  0  0  0  0  0  0  0  0  0  0  0
   47.6688   11.6839   -9.1145 N   0  0  0  0  0  0  0  0  0  0  0  0
   42.0090   10.0955   -1.1723 C   0  0  1  0  0  0  0  0  0  0  0  0
   42.4073   11.4586   -1.1923 O   0  0  0  0  0  0  0  0  0  0  0  0
   43.5995    5.2063   -0.7120 C   0  0  2  0  0  0  0  0  0  0  0  0
   43.1361    5.6794    0.5481 N   0  0  0  0  0  0  0  0  0  0  0  0
   40.9752    4.2597   -6.8196 C   0  0  2  0  0  0  0  0  0  0  0  0
   40.2667    3.1651   -7.2610 O   0  0  0  0  0  0  0  0  0  0  0  0
   38.9226   -0.4062   -7.2054 C   0  0  1  0  0  0  0  0  0  0  0  0
   40.1754   -1.0561   -6.7933 O   0  0  0  0  0  0  0  0  0  0  0  0
   40.5138    9.9543   -0.8040 C   0  0  2  0  0  0  0  0  0  0  0  0
   40.2465   10.5158    0.5448 O   0  0  0  0  0  0  0  0  0  0  0  0
   42.6774    5.7706   -1.8620 C   0  0  2  0  0  0  0  0  0  0  0  0
   40.0719    5.4715   -6.2691 C   0  0  2  0  0  0  0  0  0  0  0  0
   40.8380    5.9571   -5.2634 O   0  0  0  0  0  0  0  0  0  0  0  0
   37.9128   -0.1920   -5.9413 C   0  0  2  0  0  0  0  0  0  0  0  0
   36.6568    0.4651   -6.3678 O   0  0  0  0  0  0  0  0  0  0  0  0
   40.0838    8.4494   -0.8032 C   0  0  2  0  0  0  0  0  0  0  0  0
   40.3810    7.9684   -2.1391 O   0  0  0  0  0  0  0  0  0  0  0  0
   43.2375    5.2305   -3.2211 C   0  0  2  0  0  0  0  0  0  0  0  0
   42.3669    5.8064   -4.1647 O   0  0  0  0  0  0  0  0  0  0  0  0
   38.6770    5.1212   -5.6311 C   0  0  0  0  0  0  0  0  0  0  0  0
   38.8833    4.4923   -4.3267 O   0  0  0  0  0  0  0  0  0  0  0  0
   38.6079    0.7188   -4.8339 C   0  0  1  0  0  0  0  0  0  0  0  0
   38.9826    2.0230   -5.5064 O   0  0  0  0  0  0  0  0  0  0  0  0
   38.6480    8.4130   -0.4673 C   0  0  0  0  0  0  0  0  0  0  0  0
   38.1500    7.1860   -0.6718 O   0  0  0  0  0  0  0  0  0  0  0  0
   43.2086    3.6430   -3.2560 C   0  0  1  0  0  0  0  0  0  0  0  0
   43.7177    3.1741   -4.4673 O   0  0  0  0  0  0  0  0  0  0  0  0
   44.2286    6.3525   -7.7673 C   0  0  0  0  0  0  0  0  0  0  0  0
   37.5479    0.8712   -3.6910 C   0  0  0  0  0  0  0  0  0  0  0  0
   37.3187   -0.3503   -2.9741 N   0  0  0  0  0  0  0  0  0  0  0  0
   44.0659    7.5877   -6.8804 C   0  0  0  0  0  0  0  0  0  0  0  0
   44.9902    8.6121   -7.4041 N   0  0  0  0  0  0  0  0  0  0  0  0
   44.5802    9.3787   -8.6633 C   0  0  0  0  0  0  0  0  0  0  0  0
  1  2  1  1  0  0  0
  1  8  1  0  0  0  0
  1 33  1  0  0  0  0
  3  4  1  1  0  0  0
  3 10  1  0  0  0  0
  3 42  1  0  0  0  0
  5 11  1  0  0  0  0
  5 29  1  0  0  0  0
  5 35  1  1  0  0  0
  6 13  1  0  0  0  0
  6 39  1  0  0  0  0
  6 22  1  6  0  0  0
  7 15  1  0  0  0  0
  8  9  1  1  0  0  0
  8 17  1  0  0  0  0
 10 19  1  0  0  0  0
 11 12  1  6  0  0  0
 11 21  1  0  0  0  0
 12 44  1  0  0  0  0
 13 14  1  1  0  0  0
 13 23  1  0  0  0  0
 15 16  1  0  0  0  0
 17 18  1  6  0  0  0
 17 25  1  0  0  0  0
 19 20  1  1  0  0  0
 19 27  1  0  0  0  0
 21 22  1  6  0  0  0
 21 28  1  0  0  0  0
 23 24  1  1  0  0  0
 23 30  1  0  0  0  0
 25 26  1  1  0  0  0
 25 32  1  0  0  0  0
 27  2  1  6  0  0  0
 27 34  1  0  0  0  0
 28 29  1  0  0  0  0
 28 36  1  1  0  0  0
 30 31  1  6  0  0  0
 30 38  1  0  0  0  0
 32 33  1  0  0  0  0
 32 40  1  6  0  0  0
 34 35  1  6  0  0  0
 34 42  1  0  0  0  0
 36 37  1  0  0  0  0
 38 39  1  0  0  0  0
 38 45  1  1  0  0  0
 40 41  1  0  0  0  0
 42 43  1  6  0  0  0
 44 47  1  0  0  0  0
 45 46  1  0  0  0  0
 47 48  1  0  0  0  0
 48 49  1  0  0  0  0
 49  7  1  0  0  0  0
M  END
>  <CHROM.1>
-165.46536290,11.91576141,-171.69319569,176.30351354,57.75071780,-73.53103143
84.31046454,-172.38767805,72.27023004,169.30560040,-169.01584021,69.32145607
-149.06306875,77.68133695,162.66141483,62.60198072,41.50650614,5.45892616
-4.44964459,0.70097996,0.90959025,0.94141391

>  <Name>
2bee_lig

>  <RI>
0

>  <Rbt.Current_Directory>
/home/itssahil/PROJECTS/Mol_Feturizer/New_Systems/rnas/2bee

>  <Rbt.Executable>
rbdock ($Id: //depot/dev/client3/rdock/2013.1/src/exe/rbdock.cxx#4 $)

>  <Rbt.Library>
libRbt.so (2013.1, Build901 2013/11/27)

>  <Rbt.Parameter_File>
/export/apps/rDock/src/rDock_2013.1_src/data/scripts/dock_solv.prm

>  <Rbt.Receptor>
prm/pocket_docking_6.prm

>  <SCORE>
-26.7254

>  <SCORE.INTER>
-18.1725

>  <SCORE.INTER.CONST>
1

>  <SCORE.INTER.POLAR>
-2.78966

>  <SCORE.INTER.ROT>
16

>  <SCORE.INTER.SOLV>
21.1049

>  <SCORE.INTER.VDW>
-24.1178

>  <SCORE.INTER.norm>
-0.370868

>  <SCORE.INTRA>
-8.55292

>  <SCORE.INTRA.DIHEDRAL>
-18.3034

>  <SCORE.INTRA.DIHEDRAL.0>
36.0842

>  <SCORE.INTRA.POLAR>
0

>  <SCORE.INTRA.POLAR.0>
0

>  <SCORE.INTRA.REPUL>
0.104024

>  <SCORE.INTRA.REPUL.0>
0

>  <SCORE.INTRA.SOLV>
-3.09191

>  <SCORE.INTRA.SOLV.lig_0>
-126.444

>  <SCORE.INTRA.VDW>
1.62461

>  <SCORE.INTRA.VDW.0>
-7.40469

>  <SCORE.INTRA.norm>
-0.174549

>  <SCORE.RESTR>
0

>  <SCORE.RESTR.CAVITY>
0

>  <SCORE.RESTR.norm>
0

>  <SCORE.SYSTEM>
0

>  <SCORE.SYSTEM.CONST>
0

>  <SCORE.SYSTEM.DIHEDRAL>
0

>  <SCORE.SYSTEM.SOLV>
0

>  <SCORE.SYSTEM.norm>
0

>  <SCORE.heavy>
49

>  <SCORE.norm>
-0.545417

>  <RMSD>
8.926

$$$$
2bee_lig
 OpenBabel11021811423D
libRbt.so/2013.1/901 2013/11/27
 49 52  0  0  0  0  0  0  0  0999 V2000
   41.2839    8.7697   -2.2624 C   0  0  2  0  0  0  0  0  0  0  0  0
   42.2312    8.1483   -1.4030 O   0  0  0  0  0  0  0  0  0  0  0  0
   43.9343    4.0989   -1.1271 C   0  0  2  0  0  0  0  0  0  0  0  0
   43.9962    2.6193   -0.9802 N   0  0  0  0  0  0  0  0  0  0  0  0
   42.3264    6.1453   -4.9308 C   0  0  1  0  0  0  0  0  0  0  0  0
   40.9441    2.1016   -6.4493 C   0  0  1  0  0  0  0  0  0  0  0  0
   45.2638   10.1660  -10.7038 C   0  0  0  0  0  0  0  0  0  0  0  0
   40.7823   10.1273   -1.6345 C   0  0  2  0  0  0  0  0  0  0  0  0
   41.9205   10.9865   -1.3264 N   0  0  0  0  0  0  0  0  0  0  0  0
   43.1775    4.7240    0.1316 C   0  0  0  0  0  0  0  0  0  0  0  0
   42.6858    5.2091   -6.0385 C   0  0  2  0  0  0  0  0  0  0  0  0
   43.4253    5.8673   -7.1295 O   0  0  0  0  0  0  0  0  0  0  0  0
   39.5050    1.3788   -6.2554 C   0  0  2  0  0  0  0  0  0  0  0  0
   38.8139    2.0213   -5.0881 N   0  0  0  0  0  0  0  0  0  0  0  0
   44.5016   10.7859  -11.7214 C   0  0  0  0  0  0  0  0  0  0  0  0
   43.4138   10.1176  -12.2789 N   0  0  0  0  0  0  0  0  0  0  0  0
   39.9141    9.8174   -0.3375 C   0  0  1  0  0  0  0  0  0  0  0  0
   39.4633   11.0444    0.2178 O   0  0  0  0  0  0  0  0  0  0  0  0
   43.0770    6.3502    0.0010 C   0  0  2  0  0  0  0  0  0  0  0  0
   42.4113    6.9181    1.1238 N   0  0  0  0  0  0  0  0  0  0  0  0
   41.3010    4.6444   -6.2439 C   0  0  2  0  0  0  0  0  0  0  0  0
   40.6392    3.5040   -6.6396 O   0  0  0  0  0  0  0  0  0  0  0  0
   39.7489   -0.1489   -5.9859 C   0  0  1  0  0  0  0  0  0  0  0  0
   40.4118   -0.7040   -7.1751 O   0  0  0  0  0  0  0  0  0  0  0  0
   38.7250    8.9102   -0.7302 C   0  0  2  0  0  0  0  0  0  0  0  0
   37.8952    8.5829    0.4573 O   0  0  0  0  0  0  0  0  0  0  0  0
   42.3068    6.7342   -1.3220 C   0  0  2  0  0  0  0  0  0  0  0  0
   40.3544    5.9192   -5.9861 C   0  0  2  0  0  0  0  0  0  0  0  0
   40.9808    6.5280   -4.9511 O   0  0  0  0  0  0  0  0  0  0  0  0
   40.6720   -0.3163   -4.6505 C   0  0  2  0  0  0  0  0  0  0  0  0
   39.9957    0.2482   -3.4608 O   0  0  0  0  0  0  0  0  0  0  0  0
   39.2351    7.5698   -1.3571 C   0  0  2  0  0  0  0  0  0  0  0  0
   40.0403    7.9655   -2.4970 O   0  0  0  0  0  0  0  0  0  0  0  0
   43.0858    6.0960   -2.5214 C   0  0  2  0  0  0  0  0  0  0  0  0
   42.3357    6.5159   -3.6354 O   0  0  0  0  0  0  0  0  0  0  0  0
   38.8763    5.6573   -5.5145 C   0  0  0  0  0  0  0  0  0  0  0  0
   38.1619    4.9086   -6.5481 O   0  0  0  0  0  0  0  0  0  0  0  0
   42.0611    0.4393   -4.8472 C   0  0  1  0  0  0  0  0  0  0  0  0
   41.7370    1.8869   -5.1524 O   0  0  0  0  0  0  0  0  0  0  0  0
   38.0411    6.7837   -1.7206 C   0  0  0  0  0  0  0  0  0  0  0  0
   38.3963    5.5703   -2.1641 O   0  0  0  0  0  0  0  0  0  0  0  0
   43.1401    4.5146   -2.3854 C   0  0  1  0  0  0  0  0  0  0  0  0
   43.8436    3.9587   -3.4543 O   0  0  0  0  0  0  0  0  0  0  0  0
   42.9148    6.9771   -7.9508 C   0  0  0  0  0  0  0  0  0  0  0  0
   42.8456    0.2294   -3.5079 C   0  0  0  0  0  0  0  0  0  0  0  0
   44.0856    0.9501   -3.4672 N   0  0  0  0  0  0  0  0  0  0  0  0
   43.9286    7.2993   -9.0497 C   0  0  0  0  0  0  0  0  0  0  0  0
   43.5713    8.6288   -9.5814 N   0  0  0  0  0  0  0  0  0  0  0  0
   44.5363    9.7897   -9.3312 C   0  0  0  0  0  0  0  0  0  0  0  0
  1  2  1  1  0  0  0
  1  8  1  0  0  0  0
  1 33  1  0  0  0  0
  3  4  1  1  0  0  0
  3 10  1  0  0  0  0
  3 42  1  0  0  0  0
  5 11  1  0  0  0  0
  5 29  1  0  0  0  0
  5 35  1  1  0  0  0
  6 13  1  0  0  0  0
  6 39  1  0  0  0  0
  6 22  1  1  0  0  0
  7 15  1  0  0  0  0
  8  9  1  1  0  0  0
  8 17  1  0  0  0  0
 10 19  1  0  0  0  0
 11 12  1  6  0  0  0
 11 21  1  0  0  0  0
 12 44  1  0  0  0  0
 13 14  1  1  0  0  0
 13 23  1  0  0  0  0
 15 16  1  0  0  0  0
 17 18  1  6  0  0  0
 17 25  1  0  0  0  0
 19 20  1  1  0  0  0
 19 27  1  0  0  0  0
 21 22  1  6  0  0  0
 21 28  1  0  0  0  0
 23 24  1  6  0  0  0
 23 30  1  0  0  0  0
 25 26  1  1  0  0  0
 25 32  1  0  0  0  0
 27  2  1  6  0  0  0
 27 34  1  0  0  0  0
 28 29  1  0  0  0  0
 28 36  1  1  0  0  0
 30 31  1  1  0  0  0
 30 38  1  0  0  0  0
 32 33  1  0  0  0  0
 32 40  1  6  0  0  0
 34 35  1  6  0  0  0
 34 42  1  0  0  0  0
 36 37  1  0  0  0  0
 38 39  1  0  0  0  0
 38 45  1  1  0  0  0
 40 41  1  0  0  0  0
 42 43  1  6  0  0  0
 44 47  1  0  0  0  0
 45 46  1  0  0  0  0
 47 48  1  0  0  0  0
 48 49  1  0  0  0  0
 49  7  1  0  0  0  0
M  END
>  <CHROM.1>
146.74182201,14.56408908,144.54879085,-61.67794485,-60.84946177,-175.14886947
35.63001398,-161.92305817,-62.29721673,-174.87767314,-167.17525652,-174.86615363
-164.03644765,112.59234751,108.01438468,70.35480704,41.54161250,5.65238405
-4.28229735,-2.57076746,-1.27621520,-2.81722565

>  <Name>
2bee_lig

>  <RI>
0

>  <Rbt.Current_Directory>
/home/itssahil/PROJECTS/Mol_Feturizer/New_Systems/rnas/2bee

>  <Rbt.Executable>
rbdock ($Id: //depot/dev/client3/rdock/2013.1/src/exe/rbdock.cxx#4 $)

>  <Rbt.Library>
libRbt.so (2013.1, Build901 2013/11/27)

>  <Rbt.Parameter_File>
/export/apps/rDock/src/rDock_2013.1_src/data/scripts/dock_solv.prm

>  <Rbt.Receptor>
prm/pocket_docking_6.prm

>  <SCORE>
-10.7592

>  <SCORE.INTER>
-10.0756

>  <SCORE.INTER.CONST>
1

>  <SCORE.INTER.POLAR>
-0.584487

>  <SCORE.INTER.ROT>
16

>  <SCORE.INTER.SOLV>
20.3159

>  <SCORE.INTER.VDW>
-25.8074

>  <SCORE.INTER.norm>
-0.205624

>  <SCORE.INTRA>
-0.683635

>  <SCORE.INTRA.DIHEDRAL>
-11.3802

>  <SCORE.INTRA.DIHEDRAL.0>
36.0842

>  <SCORE.INTRA.POLAR>
0

>  <SCORE.INTRA.POLAR.0>
0

>  <SCORE.INTRA.REPUL>
0.739286

>  <SCORE.INTRA.REPUL.0>
0

>  <SCORE.INTRA.SOLV>
4.5256

>  <SCORE.INTRA.SOLV.lig_0>
-126.444

>  <SCORE.INTRA.VDW>
-0.952741

>  <SCORE.INTRA.VDW.0>
-7.40469

>  <SCORE.INTRA.norm>
-0.0139517

>  <SCORE.RESTR>
0

>  <SCORE.RESTR.CAVITY>
0

>  <SCORE.RESTR.norm>
0

>  <SCORE.SYSTEM>
0

>  <SCORE.SYSTEM.CONST>
0

>  <SCORE.SYSTEM.DIHEDRAL>
0

>  <SCORE.SYSTEM.SOLV>
0

>  <SCORE.SYSTEM.norm>
0

>  <SCORE.heavy>
49

>  <SCORE.norm>
-0.219576

>  <RMSD>
8.929

$$$$
2bee_lig
 OpenBabel11021811423D
libRbt.so/2013.1/901 2013/11/27
 49 52  0  0  0  0  0  0  0  0999 V2000
   41.5797    2.6592   -5.9542 C   0  0  2  0  0  0  0  0  0  0  0  0
   41.6635    1.6114   -4.9965 O   0  0  0  0  0  0  0  0  0  0  0  0
   44.8480    0.3748   -2.2209 C   0  0  2  0  0  0  0  0  0  0  0  0
   46.1579   -0.1474   -1.7452 N   0  0  0  0  0  0  0  0  0  0  0  0
   44.3331    4.5361   -4.1868 C   0  0  1  0  0  0  0  0  0  0  0  0
   48.7748    4.7594   -4.6753 C   0  0  1  0  0  0  0  0  0  0  0  0
   43.6087   10.4796    1.0340 C   0  0  0  0  0  0  0  0  0  0  0  0
   40.0789    3.1044   -6.1496 C   0  0  2  0  0  0  0  0  0  0  0  0
   39.4917    3.4617   -4.8626 N   0  0  0  0  0  0  0  0  0  0  0  0
   44.1560   -0.7125   -3.1627 C   0  0  0  0  0  0  0  0  0  0  0  0
   45.3189    5.4252   -3.5010 C   0  0  2  0  0  0  0  0  0  0  0  0
   44.7014    6.6349   -2.9305 O   0  0  0  0  0  0  0  0  0  0  0  0
   49.9786    5.3638   -5.5790 C   0  0  2  0  0  0  0  0  0  0  0  0
   49.5144    5.4067   -7.0058 N   0  0  0  0  0  0  0  0  0  0  0  0
   44.4723   11.1182    0.1136 C   0  0  0  0  0  0  0  0  0  0  0  0
   43.9601   12.0469   -0.7896 N   0  0  0  0  0  0  0  0  0  0  0  0
   39.2703    1.9306   -6.8568 C   0  0  1  0  0  0  0  0  0  0  0  0
   37.9223    2.3420   -7.0326 O   0  0  0  0  0  0  0  0  0  0  0  0
   42.7175   -0.1700   -3.7177 C   0  0  2  0  0  0  0  0  0  0  0  0
   42.0881   -1.1367   -4.5517 N   0  0  0  0  0  0  0  0  0  0  0  0
   46.3074    5.4982   -4.6396 C   0  0  2  0  0  0  0  0  0  0  0  0
   47.6503    5.6413   -4.9064 O   0  0  0  0  0  0  0  0  0  0  0  0
   51.2305    4.4277   -5.4288 C   0  0  1  0  0  0  0  0  0  0  0  0
   51.6297    4.4522   -4.0140 O   0  0  0  0  0  0  0  0  0  0  0  0
   39.9372    1.6033   -8.2130 C   0  0  2  0  0  0  0  0  0  0  0  0
   39.2211    0.4991   -8.9013 O   0  0  0  0  0  0  0  0  0  0  0  0
   42.9262    1.1706   -4.5242 C   0  0  2  0  0  0  0  0  0  0  0  0
   45.3565    5.5070   -5.9370 C   0  0  2  0  0  0  0  0  0  0  0  0
   44.3903    4.6271   -5.5818 O   0  0  0  0  0  0  0  0  0  0  0  0
   50.8339    2.9212   -5.9152 C   0  0  2  0  0  0  0  0  0  0  0  0
   50.4315    2.9095   -7.3397 O   0  0  0  0  0  0  0  0  0  0  0  0
   41.4267    1.1689   -8.0066 C   0  0  2  0  0  0  0  0  0  0  0  0
   42.0568    2.2839   -7.3253 O   0  0  0  0  0  0  0  0  0  0  0  0
   43.6085    2.1982   -3.5593 C   0  0  2  0  0  0  0  0  0  0  0  0
   43.7239    3.3473   -4.3631 O   0  0  0  0  0  0  0  0  0  0  0  0
   45.9549    4.9809   -7.2938 C   0  0  0  0  0  0  0  0  0  0  0  0
   44.9983    5.2236   -8.3733 O   0  0  0  0  0  0  0  0  0  0  0  0
   49.6207    2.3664   -5.0436 C   0  0  1  0  0  0  0  0  0  0  0  0
   48.4784    3.3480   -5.2016 O   0  0  0  0  0  0  0  0  0  0  0  0
   41.9856    0.9015   -9.3452 C   0  0  0  0  0  0  0  0  0  0  0  0
   42.1224    2.0436  -10.0325 O   0  0  0  0  0  0  0  0  0  0  0  0
   45.0174    1.6600   -3.0615 C   0  0  1  0  0  0  0  0  0  0  0  0
   45.6109    2.5795   -2.1963 O   0  0  0  0  0  0  0  0  0  0  0  0
   43.7739    6.6549   -1.7876 C   0  0  0  0  0  0  0  0  0  0  0  0
   49.3175    0.9376   -5.6091 C   0  0  0  0  0  0  0  0  0  0  0  0
   50.4359    0.0451   -5.5028 N   0  0  0  0  0  0  0  0  0  0  0  0
   43.3237    8.0934   -1.5284 C   0  0  0  0  0  0  0  0  0  0  0  0
   43.1537    8.2293   -0.0687 N   0  0  0  0  0  0  0  0  0  0  0  0
   42.4836    9.4970    0.4653 C   0  0  0  0  0  0  0  0  0  0  0  0
  1  2  1  1  0  0  0
  1  8  1  0  0  0  0
  1 33  1  0  0  0  0
  3  4  1  6  0  0  0
  3 10  1  0  0  0  0
  3 42  1  0  0  0  0
  5 11  1  0  0  0  0
  5 29  1  0  0  0  0
  5 35  1  6  0  0  0
  6 13  1  0  0  0  0
  6 39  1  0  0  0  0
  6 22  1  6  0  0  0
  7 15  1  0  0  0  0
  8  9  1  1  0  0  0
  8 17  1  0  0  0  0
 10 19  1  0  0  0  0
 11 12  1  6  0  0  0
 11 21  1  0  0  0  0
 12 44  1  0  0  0  0
 13 14  1  6  0  0  0
 13 23  1  0  0  0  0
 15 16  1  0  0  0  0
 17 18  1  6  0  0  0
 17 25  1  0  0  0  0
 19 20  1  6  0  0  0
 19 27  1  0  0  0  0
 21 22  1  1  0  0  0
 21 28  1  0  0  0  0
 23 24  1  1  0  0  0
 23 30  1  0  0  0  0
 25 26  1  1  0  0  0
 25 32  1  0  0  0  0
 27  2  1  1  0  0  0
 27 34  1  0  0  0  0
 28 29  1  0  0  0  0
 28 36  1  6  0  0  0
 30 31  1  6  0  0  0
 30 38  1  0  0  0  0
 32 33  1  0  0  0  0
 32 40  1  6  0  0  0
 34 35  1  6  0  0  0
 34 42  1  0  0  0  0
 36 37  1  0  0  0  0
 38 39  1  0  0  0  0
 38 45  1  6  0  0  0
 40 41  1  0  0  0  0
 42 43  1  1  0  0  0
 44 47  1  0  0  0  0
 45 46  1  0  0  0  0
 47 48  1  0  0  0  0
 48 49  1  0  0  0  0
 49  7  1  0  0  0  0
M  END
>  <CHROM.1>
-171.54253174,18.15020697,165.02557163,65.45300493,68.50905908,-178.30755688
68.87549017,-168.58032367,-173.08265428,69.84397433,-172.47652591,60.22869455
-145.68954923,-169.95749676,-102.04523116,70.68479193,44.71804417,3.76037791
-4.77255518,2.33220893,-0.00469691,-2.49827181

>  <Name>
2bee_lig

>  <RI>
0

>  <Rbt.Current_Directory>
/home/itssahil/PROJECTS/Mol_Feturizer/New_Systems/rnas/2bee

>  <Rbt.Executable>
rbdock ($Id: //depot/dev/client3/rdock/2013.1/src/exe/rbdock.cxx#4 $)

>  <Rbt.Library>
libRbt.so (2013.1, Build901 2013/11/27)

>  <Rbt.Parameter_File>
/export/apps/rDock/src/rDock_2013.1_src/data/scripts/dock_solv.prm

>  <Rbt.Receptor>
prm/pocket_docking_5.prm

>  <SCORE>
-16.4653

>  <SCORE.INTER>
-8.17136

>  <SCORE.INTER.CONST>
1

>  <SCORE.INTER.POLAR>
-2.04262

>  <SCORE.INTER.ROT>
16

>  <SCORE.INTER.SOLV>
17.7891

>  <SCORE.INTER.VDW>
-18.8352

>  <SCORE.INTER.norm>
-0.166762

>  <SCORE.INTRA>
-8.31459

>  <SCORE.INTRA.DIHEDRAL>
-17.9473

>  <SCORE.INTRA.DIHEDRAL.0>
36.0842

>  <SCORE.INTRA.POLAR>
0

>  <SCORE.INTRA.POLAR.0>
0

>  <SCORE.INTRA.REPUL>
0.0971821

>  <SCORE.INTRA.REPUL.0>
0

>  <SCORE.INTRA.SOLV>
-2.05917

>  <SCORE.INTRA.SOLV.lig_0>
-126.444

>  <SCORE.INTRA.VDW>
1.20272

>  <SCORE.INTRA.VDW.0>
-7.40469

>  <SCORE.INTRA.norm>
-0.169686

>  <SCORE.RESTR>
0.0206095

>  <SCORE.RESTR.CAVITY>
0.0206095

>  <SCORE.RESTR.norm>
0.000420601

>  <SCORE.SYSTEM>
0

>  <SCORE.SYSTEM.CONST>
0

>  <SCORE.SYSTEM.DIHEDRAL>
0

>  <SCORE.SYSTEM.SOLV>
0

>  <SCORE.SYSTEM.norm>
0

>  <SCORE.heavy>
49

>  <SCORE.norm>
-0.336027

>  <RMSD>
8.956

$$$$
2bee_lig
 OpenBabel11021811423D
libRbt.so/2013.1/901 2013/11/27
 49 52  0  0  0  0  0  0  0  0999 V2000
   40.2306    0.2184   -5.0017 C   0  0  2  0  0  0  0  0  0  0  0  0
   40.6145    1.5875   -5.0218 O   0  0  0  0  0  0  0  0  0  0  0  0
   43.7476    1.6104   -1.9302 C   0  0  2  0  0  0  0  0  0  0  0  0
   44.8919    2.0895   -1.1083 N   0  0  0  0  0  0  0  0  0  0  0  0
   39.9774    4.1413   -2.8463 C   0  0  1  0  0  0  0  0  0  0  0  0
   42.2513    5.8915   -6.2658 C   0  0  1  0  0  0  0  0  0  0  0  0
   38.4380    8.4534    2.5733 C   0  0  0  0  0  0  0  0  0  0  0  0
   39.0298   -0.0287   -5.9947 C   0  0  2  0  0  0  0  0  0  0  0  0
   39.3795    0.4446   -7.3297 N   0  0  0  0  0  0  0  0  0  0  0  0
   44.1603    1.6274   -3.4721 C   0  0  0  0  0  0  0  0  0  0  0  0
   40.4571    5.5519   -2.9584 C   0  0  2  0  0  0  0  0  0  0  0  0
   39.6878    6.4884   -2.1208 O   0  0  0  0  0  0  0  0  0  0  0  0
   43.4630    6.1397   -5.2164 C   0  0  2  0  0  0  0  0  0  0  0  0
   43.4001    7.5685   -4.7608 N   0  0  0  0  0  0  0  0  0  0  0  0
   39.7339    8.7933    3.0270 C   0  0  0  0  0  0  0  0  0  0  0  0
   40.8531    8.2376    2.4112 N   0  0  0  0  0  0  0  0  0  0  0  0
   37.7288    0.6985   -5.4373 C   0  0  1  0  0  0  0  0  0  0  0  0
   36.6528    0.4667   -6.3348 O   0  0  0  0  0  0  0  0  0  0  0  0
   42.9227    1.1194   -4.4111 C   0  0  2  0  0  0  0  0  0  0  0  0
   43.2843    1.1224   -5.7879 N   0  0  0  0  0  0  0  0  0  0  0  0
   40.4280    5.6253   -4.4659 C   0  0  2  0  0  0  0  0  0  0  0  0
   41.0465    6.2288   -5.5374 O   0  0  0  0  0  0  0  0  0  0  0  0
   44.8215    5.8482   -5.9483 C   0  0  1  0  0  0  0  0  0  0  0  0
   44.8103    4.4331   -6.3471 O   0  0  0  0  0  0  0  0  0  0  0  0
   37.4093    0.1513   -4.0267 C   0  0  2  0  0  0  0  0  0  0  0  0
   36.2075    0.8164   -3.4616 O   0  0  0  0  0  0  0  0  0  0  0  0
   41.6669    2.0496   -4.1906 C   0  0  2  0  0  0  0  0  0  0  0  0
   39.1343    4.7458   -4.8405 C   0  0  2  0  0  0  0  0  0  0  0  0
   39.2172    3.7315   -3.9470 O   0  0  0  0  0  0  0  0  0  0  0  0
   44.9558    6.8355   -7.2409 C   0  0  2  0  0  0  0  0  0  0  0  0
   44.9634    8.2569   -6.8274 O   0  0  0  0  0  0  0  0  0  0  0  0
   38.6097    0.3969   -3.0529 C   0  0  2  0  0  0  0  0  0  0  0  0
   39.7419   -0.2677   -3.6700 O   0  0  0  0  0  0  0  0  0  0  0  0
   41.3068    2.0000   -2.6673 C   0  0  2  0  0  0  0  0  0  0  0  0
   40.1758    2.8335   -2.5898 O   0  0  0  0  0  0  0  0  0  0  0  0
   39.0841    4.0767   -6.2637 C   0  0  0  0  0  0  0  0  0  0  0  0
   37.7688    3.4707   -6.4697 O   0  0  0  0  0  0  0  0  0  0  0  0
   43.7316    6.6057   -8.2347 C   0  0  1  0  0  0  0  0  0  0  0  0
   42.4660    6.8553   -7.4413 O   0  0  0  0  0  0  0  0  0  0  0  0
   38.2279   -0.1744   -1.7477 C   0  0  0  0  0  0  0  0  0  0  0  0
   39.2581   -0.1191   -0.8928 O   0  0  0  0  0  0  0  0  0  0  0  0
   42.5142    2.5289   -1.7814 C   0  0  1  0  0  0  0  0  0  0  0  0
   42.1849    2.4715   -0.4269 O   0  0  0  0  0  0  0  0  0  0  0  0
   39.8568    7.9507   -2.1093 C   0  0  0  0  0  0  0  0  0  0  0  0
   43.9547    7.6119   -9.4140 C   0  0  0  0  0  0  0  0  0  0  0  0
   43.8750    8.9838   -9.0015 N   0  0  0  0  0  0  0  0  0  0  0  0
   38.6944    8.5869   -1.3458 C   0  0  0  0  0  0  0  0  0  0  0  0
   38.8665    8.2204    0.0735 N   0  0  0  0  0  0  0  0  0  0  0  0
   37.9948    8.9284    1.1128 C   0  0  0  0  0  0  0  0  0  0  0  0
  1  2  1  1  0  0  0
  1  8  1  0  0  0  0
  1 33  1  0  0  0  0
  3  4  1  1  0  0  0
  3 10  1  0  0  0  0
  3 42  1  0  0  0  0
  5 11  1  0  0  0  0
  5 29  1  0  0  0  0
  5 35  1  6  0  0  0
  6 13  1  0  0  0  0
  6 39  1  0  0  0  0
  6 22  1  1  0  0  0
  7 15  1  0  0  0  0
  8  9  1  6  0  0  0
  8 17  1  0  0  0  0
 10 19  1  0  0  0  0
 11 12  1  1  0  0  0
 11 21  1  0  0  0  0
 12 44  1  0  0  0  0
 13 14  1  6  0  0  0
 13 23  1  0  0  0  0
 15 16  1  0  0  0  0
 17 18  1  6  0  0  0
 17 25  1  0  0  0  0
 19 20  1  6  0  0  0
 19 27  1  0  0  0  0
 21 22  1  1  0  0  0
 21 28  1  0  0  0  0
 23 24  1  6  0  0  0
 23 30  1  0  0  0  0
 25 26  1  1  0  0  0
 25 32  1  0  0  0  0
 27  2  1  6  0  0  0
 27 34  1  0  0  0  0
 28 29  1  0  0  0  0
 28 36  1  6  0  0  0
 30 31  1  1  0  0  0
 30 38  1  0  0  0  0
 32 33  1  0  0  0  0
 32 40  1  1  0  0  0
 34 35  1  6  0  0  0
 34 42  1  0  0  0  0
 36 37  1  0  0  0  0
 38 39  1  0  0  0  0
 38 45  1  6  0  0  0
 40 41  1  0  0  0  0
 42 43  1  1  0  0  0
 44 47  1  0  0  0  0
 45 46  1  0  0  0  0
 47 48  1  0  0  0  0
 48 49  1  0  0  0  0
 49  7  1  0  0  0  0
M  END
>  <CHROM.1>
179.13072550,-26.62163168,-67.72751169,-66.85559920,-174.67415673,168.11213486
83.85912476,51.38947744,-172.89472299,173.99666933,-62.23990416,-64.72646580
69.21246812,168.94513839,-175.61380213,65.30421872,40.86257546,4.11409108
-3.89326207,-2.47471529,0.93643405,0.63373010

>  <Name>
2bee_lig

>  <RI>
0

>  <Rbt.Current_Directory>
/home/itssahil/PROJECTS/Mol_Feturizer/New_Systems/rnas/2bee

>  <Rbt.Executable>
rbdock ($Id: //depot/dev/client3/rdock/2013.1/src/exe/rbdock.cxx#4 $)

>  <Rbt.Library>
libRbt.so (2013.1, Build901 2013/11/27)

>  <Rbt.Parameter_File>
/export/apps/rDock/src/rDock_2013.1_src/data/scripts/dock_solv.prm

>  <Rbt.Receptor>
prm/pocket_docking_6.prm

>  <SCORE>
-15.8168

>  <SCORE.INTER>
-4.20141

>  <SCORE.INTER.CONST>
1

>  <SCORE.INTER.POLAR>
-0.938083

>  <SCORE.INTER.ROT>
16

>  <SCORE.INTER.SOLV>
17.2418

>  <SCORE.INTER.VDW>
-19.6879

>  <SCORE.INTER.norm>
-0.085743

>  <SCORE.INTRA>
-11.6154

>  <SCORE.INTRA.DIHEDRAL>
-25.1424

>  <SCORE.INTRA.DIHEDRAL.0>
36.0842

>  <SCORE.INTRA.POLAR>
0

>  <SCORE.INTRA.POLAR.0>
0

>  <SCORE.INTRA.REPUL>
0.000127724

>  <SCORE.INTRA.REPUL.0>
0

>  <SCORE.INTRA.SOLV>
3.88529

>  <SCORE.INTRA.SOLV.lig_0>
-126.444

>  <SCORE.INTRA.VDW>
-0.987511

>  <SCORE.INTRA.VDW.0>
-7.40469

>  <SCORE.INTRA.norm>
-0.23705

>  <SCORE.RESTR>
0

>  <SCORE.RESTR.CAVITY>
0

>  <SCORE.RESTR.norm>
0

>  <SCORE.SYSTEM>
0

>  <SCORE.SYSTEM.CONST>
0

>  <SCORE.SYSTEM.DIHEDRAL>
0

>  <SCORE.SYSTEM.SOLV>
0

>  <SCORE.SYSTEM.norm>
0

>  <SCORE.heavy>
49

>  <SCORE.norm>
-0.322793

>  <RMSD>
8.956

$$$$
2bee_lig
 OpenBabel11021811423D
libRbt.so/2013.1/901 2013/11/27
 49 52  0  0  0  0  0  0  0  0999 V2000
   43.2803    4.7590   -3.0168 C   0  0  2  0  0  0  0  0  0  0  0  0
   42.6573    4.6872   -1.7405 O   0  0  0  0  0  0  0  0  0  0  0  0
   40.5812    1.3519    0.2443 C   0  0  2  0  0  0  0  0  0  0  0  0
   39.5217    0.3519    0.5480 N   0  0  0  0  0  0  0  0  0  0  0  0
   43.3909    1.1211   -3.4548 C   0  0  1  0  0  0  0  0  0  0  0  0
   46.9196    0.5257   -6.5283 C   0  0  1  0  0  0  0  0  0  0  0  0
   41.7124   -6.0093   -6.6939 C   0  0  0  0  0  0  0  0  0  0  0  0
   44.0652    6.1192   -3.1676 C   0  0  2  0  0  0  0  0  0  0  0  0
   45.0073    6.2778   -2.0649 N   0  0  0  0  0  0  0  0  0  0  0  0
   39.9569    2.8195    0.3079 C   0  0  0  0  0  0  0  0  0  0  0  0
   43.8506    0.4652   -4.7162 C   0  0  2  0  0  0  0  0  0  0  0  0
   43.3105   -0.8949   -4.8861 O   0  0  0  0  0  0  0  0  0  0  0  0
   46.9587   -1.0952   -6.4817 C   0  0  2  0  0  0  0  0  0  0  0  0
   47.8959   -1.5078   -5.3842 N   0  0  0  0  0  0  0  0  0  0  0  0
   41.5044   -7.3848   -6.4380 C   0  0  0  0  0  0  0  0  0  0  0  0
   41.9089   -7.9340   -5.2233 N   0  0  0  0  0  0  0  0  0  0  0  0
   43.0254    7.3222   -3.2276 C   0  0  1  0  0  0  0  0  0  0  0  0
   43.7405    8.5412   -3.3680 O   0  0  0  0  0  0  0  0  0  0  0  0
   41.0887    3.9482   -0.0337 C   0  0  2  0  0  0  0  0  0  0  0  0
   40.5434    5.2616    0.0293 N   0  0  0  0  0  0  0  0  0  0  0  0
   45.3254    0.7156   -4.5139 C   0  0  2  0  0  0  0  0  0  0  0  0
   46.4967    0.9310   -5.2044 O   0  0  0  0  0  0  0  0  0  0  0  0
   47.4651   -1.6200   -7.8725 C   0  0  1  0  0  0  0  0  0  0  0  0
   46.4902   -1.1894   -8.8854 O   0  0  0  0  0  0  0  0  0  0  0  0
   42.0616    7.0983   -4.4160 C   0  0  2  0  0  0  0  0  0  0  0  0
   41.0620    8.1936   -4.4993 O   0  0  0  0  0  0  0  0  0  0  0  0
   41.6848    3.6901   -1.4721 C   0  0  2  0  0  0  0  0  0  0  0  0
   45.4997    0.5523   -2.9232 C   0  0  2  0  0  0  0  0  0  0  0  0
   44.3710    1.1373   -2.4565 O   0  0  0  0  0  0  0  0  0  0  0  0
   48.9487   -1.0074   -8.1680 C   0  0  2  0  0  0  0  0  0  0  0  0
   49.9205   -1.4454   -7.1408 O   0  0  0  0  0  0  0  0  0  0  0  0
   41.2936    5.7437   -4.2579 C   0  0  2  0  0  0  0  0  0  0  0  0
   42.3266    4.7287   -4.1735 O   0  0  0  0  0  0  0  0  0  0  0  0
   42.2791    2.2412   -1.4815 C   0  0  2  0  0  0  0  0  0  0  0  0
   42.7970    2.1281   -2.7850 O   0  0  0  0  0  0  0  0  0  0  0  0
   46.7008    1.2978   -2.2322 C   0  0  0  0  0  0  0  0  0  0  0  0
   47.9616    0.7040   -2.6765 O   0  0  0  0  0  0  0  0  0  0  0  0
   48.8939    0.5851   -8.1643 C   0  0  1  0  0  0  0  0  0  0  0  0
   48.3496    1.0050   -6.8148 O   0  0  0  0  0  0  0  0  0  0  0  0
   40.4220    5.6037   -5.4396 C   0  0  0  0  0  0  0  0  0  0  0  0
   39.3556    6.4079   -5.3330 O   0  0  0  0  0  0  0  0  0  0  0  0
   41.1522    1.1638   -1.1789 C   0  0  1  0  0  0  0  0  0  0  0  0
   41.6952   -0.1213   -1.1812 O   0  0  0  0  0  0  0  0  0  0  0  0
   43.6450   -1.8080   -5.9911 C   0  0  0  0  0  0  0  0  0  0  0  0
   50.3632    1.0556   -8.4345 C   0  0  0  0  0  0  0  0  0  0  0  0
   50.5040    2.4834   -8.4248 N   0  0  0  0  0  0  0  0  0  0  0  0
   42.8274   -3.0927   -5.8491 C   0  0  0  0  0  0  0  0  0  0  0  0
   43.1883   -3.9550   -6.9911 N   0  0  0  0  0  0  0  0  0  0  0  0
   43.2147   -5.4692   -6.7726 C   0  0  0  0  0  0  0  0  0  0  0  0
  1  2  1  1  0  0  0
  1  8  1  0  0  0  0
  1 33  1  0  0  0  0
  3  4  1  6  0  0  0
  3 10  1  0  0  0  0
  3 42  1  0  0  0  0
  5 11  1  0  0  0  0
  5 29  1  0  0  0  0
  5 35  1  6  0  0  0
  6 13  1  0  0  0  0
  6 39  1  0  0  0  0
  6 22  1  1  0  0  0
  7 15  1  0  0  0  0
  8  9  1  1  0  0  0
  8 17  1  0  0  0  0
 10 19  1  0  0  0  0
 11 12  1  1  0  0  0
 11 21  1  0  0  0  0
 12 44  1  0  0  0  0
 13 14  1  1  0  0  0
 13 23  1  0  0  0  0
 15 16  1  0  0  0  0
 17 18  1  6  0  0  0
 17 25  1  0  0  0  0
 19 20  1  6  0  0  0
 19 27  1  0  0  0  0
 21 22  1  6  0  0  0
 21 28  1  0  0  0  0
 23 24  1  6  0  0  0
 23 30  1  0  0  0  0
 25 26  1  1  0  0  0
 25 32  1  0  0  0  0
 27  2  1  1  0  0  0
 27 34  1  0  0  0  0
 28 29  1  0  0  0  0
 28 36  1  1  0  0  0
 30 31  1  1  0  0  0
 30 38  1  0  0  0  0
 32 33  1  0  0  0  0
 32 40  1  6  0  0  0
 34 35  1  6  0  0  0
 34 42  1  0  0  0  0
 36 37  1  0  0  0  0
 38 39  1  0  0  0  0
 38 45  1  1  0  0  0
 40 41  1  0  0  0  0
 42 43  1  1  0  0  0
 44 47  1  0  0  0  0
 45 46  1  0  0  0  0
 47 48  1  0  0  0  0
 48 49  1  0  0  0  0
 49  7  1  0  0  0  0
M  END
>  <CHROM.1>
167.43606422,162.92812585,-63.43114784,64.03530917,-176.52667053,-177.14621940
-27.28013901,-174.90673329,-67.29426038,-75.61004729,-176.97625603,-178.24579007
179.11786279,145.92293551,74.41679035,-177.39025935,44.03479773,1.37597686
-4.31936620,-2.10919729,-0.57058911,-2.94182181

>  <Name>
2bee_lig

>  <RI>
0

>  <Rbt.Current_Directory>
/home/itssahil/PROJECTS/Mol_Feturizer/New_Systems/rnas/2bee

>  <Rbt.Executable>
rbdock ($Id: //depot/dev/client3/rdock/2013.1/src/exe/rbdock.cxx#4 $)

>  <Rbt.Library>
libRbt.so (2013.1, Build901 2013/11/27)

>  <Rbt.Parameter_File>
/export/apps/rDock/src/rDock_2013.1_src/data/scripts/dock_solv.prm

>  <Rbt.Receptor>
prm/pocket_docking_7.prm

>  <SCORE>
-14.1675

>  <SCORE.INTER>
-2.30435

>  <SCORE.INTER.CONST>
1

>  <SCORE.INTER.POLAR>
-1.62031

>  <SCORE.INTER.ROT>
16

>  <SCORE.INTER.SOLV>
14.9433

>  <SCORE.INTER.VDW>
-15.383

>  <SCORE.INTER.norm>
-0.0470275

>  <SCORE.INTRA>
-11.8632

>  <SCORE.INTRA.DIHEDRAL>
-27.2445

>  <SCORE.INTRA.DIHEDRAL.0>
36.0842

>  <SCORE.INTRA.POLAR>
0

>  <SCORE.INTRA.POLAR.0>
0

>  <SCORE.INTRA.REPUL>
0

>  <SCORE.INTRA.REPUL.0>
0

>  <SCORE.INTRA.SOLV>
-3.11835

>  <SCORE.INTRA.SOLV.lig_0>
-126.444

>  <SCORE.INTRA.VDW>
3.31828

>  <SCORE.INTRA.VDW.0>
-7.40469

>  <SCORE.INTRA.norm>
-0.242105

>  <SCORE.RESTR>
0

>  <SCORE.RESTR.CAVITY>
0

>  <SCORE.RESTR.norm>
0

>  <SCORE.SYSTEM>
0

>  <SCORE.SYSTEM.CONST>
0

>  <SCORE.SYSTEM.DIHEDRAL>
0

>  <SCORE.SYSTEM.SOLV>
0

>  <SCORE.SYSTEM.norm>
0

>  <SCORE.heavy>
49

>  <SCORE.norm>
-0.289133

>  <RMSD>
8.956

$$$$
2bee_lig
 OpenBabel11021811423D
libRbt.so/2013.1/901 2013/11/27
 49 52  0  0  0  0  0  0  0  0999 V2000
   40.1641    9.1702   -0.8952 C   0  0  2  0  0  0  0  0  0  0  0  0
   41.4136    8.6726   -0.4333 O   0  0  0  0  0  0  0  0  0  0  0  0
   43.5594    4.8498   -0.0384 C   0  0  2  0  0  0  0  0  0  0  0  0
   43.7862    3.3834    0.0750 N   0  0  0  0  0  0  0  0  0  0  0  0
   41.1800    6.5196   -3.5110 C   0  0  1  0  0  0  0  0  0  0  0  0
   39.0041    2.4233   -3.3013 C   0  0  1  0  0  0  0  0  0  0  0  0
   45.2421    6.8837   -6.9564 C   0  0  0  0  0  0  0  0  0  0  0  0
   40.2433   10.7304   -1.1156 C   0  0  2  0  0  0  0  0  0  0  0  0
   41.3500   11.0535   -2.0097 N   0  0  0  0  0  0  0  0  0  0  0  0
   42.5704    5.3230    1.1217 C   0  0  0  0  0  0  0  0  0  0  0  0
   40.7674    5.3184   -4.2980 C   0  0  2  0  0  0  0  0  0  0  0  0
   40.5918    5.6042   -5.7325 O   0  0  0  0  0  0  0  0  0  0  0  0
   37.7796    1.7124   -2.5099 C   0  0  2  0  0  0  0  0  0  0  0  0
   37.9234    2.0269   -1.0492 N   0  0  0  0  0  0  0  0  0  0  0  0
   45.1493    7.9139   -7.9213 C   0  0  0  0  0  0  0  0  0  0  0  0
   45.2666    9.2454   -7.5288 N   0  0  0  0  0  0  0  0  0  0  0  0
   40.3983   11.4531    0.2935 C   0  0  1  0  0  0  0  0  0  0  0  0
   40.4640   12.8565    0.0855 O   0  0  0  0  0  0  0  0  0  0  0  0
   42.2849    6.9294    1.0233 C   0  0  2  0  0  0  0  0  0  0  0  0
   41.4106    7.3628    2.0597 N   0  0  0  0  0  0  0  0  0  0  0  0
   39.6060    4.9252   -3.4174 C   0  0  2  0  0  0  0  0  0  0  0  0
   38.8911    3.8314   -2.9844 O   0  0  0  0  0  0  0  0  0  0  0  0
   37.8615    0.1637   -2.7564 C   0  0  1  0  0  0  0  0  0  0  0  0
   37.6977   -0.0601   -4.2003 O   0  0  0  0  0  0  0  0  0  0  0  0
   39.1961   11.0756    1.1899 C   0  0  2  0  0  0  0  0  0  0  0  0
   39.3093   11.7183    2.5241 O   0  0  0  0  0  0  0  0  0  0  0  0
   41.6545    7.2758   -0.3816 C   0  0  2  0  0  0  0  0  0  0  0  0
   39.0071    6.3468   -2.9617 C   0  0  2  0  0  0  0  0  0  0  0  0
   40.1321    7.0757   -2.7693 O   0  0  0  0  0  0  0  0  0  0  0  0
   39.3016   -0.3880   -2.2225 C   0  0  2  0  0  0  0  0  0  0  0  0
   39.4561   -0.1550   -0.7688 O   0  0  0  0  0  0  0  0  0  0  0  0
   39.1248    9.5257    1.3962 C   0  0  2  0  0  0  0  0  0  0  0  0
   39.0263    8.9686    0.0604 O   0  0  0  0  0  0  0  0  0  0  0  0
   42.6591    6.7896   -1.4802 C   0  0  2  0  0  0  0  0  0  0  0  0
   42.0163    7.1648   -2.6744 O   0  0  0  0  0  0  0  0  0  0  0  0
   38.2042    6.4099   -1.6100 C   0  0  0  0  0  0  0  0  0  0  0  0
   36.9587    5.6557   -1.7488 O   0  0  0  0  0  0  0  0  0  0  0  0
   40.4885    0.3564   -2.9818 C   0  0  1  0  0  0  0  0  0  0  0  0
   40.3072    1.8399   -2.7372 O   0  0  0  0  0  0  0  0  0  0  0  0
   37.9431    9.2581    2.2373 C   0  0  0  0  0  0  0  0  0  0  0  0
   37.7664    7.9388    2.3909 O   0  0  0  0  0  0  0  0  0  0  0  0
   42.8928    5.2218   -1.3816 C   0  0  1  0  0  0  0  0  0  0  0  0
   43.7956    4.8025   -2.3590 O   0  0  0  0  0  0  0  0  0  0  0  0
   41.6702    5.9853   -6.6592 C   0  0  0  0  0  0  0  0  0  0  0  0
   41.8076   -0.2338   -2.3777 C   0  0  0  0  0  0  0  0  0  0  0  0
   41.9410   -1.6453   -2.5979 N   0  0  0  0  0  0  0  0  0  0  0  0
   42.5797    4.7792   -6.8982 C   0  0  0  0  0  0  0  0  0  0  0  0
   43.5837    5.1948   -7.8968 N   0  0  0  0  0  0  0  0  0  0  0  0
   45.0314    5.3730   -7.4343 C   0  0  0  0  0  0  0  0  0  0  0  0
  1  2  1  1  0  0  0
  1  8  1  0  0  0  0
  1 33  1  0  0  0  0
  3  4  1  6  0  0  0
  3 10  1  0  0  0  0
  3 42  1  0  0  0  0
  5 11  1  0  0  0  0
  5 29  1  0  0  0  0
  5 35  1  1  0  0  0
  6 13  1  0  0  0  0
  6 39  1  0  0  0  0
  6 22  1  1  0  0  0
  7 15  1  0  0  0  0
  8  9  1  6  0  0  0
  8 17  1  0  0  0  0
 10 19  1  0  0  0  0
 11 12  1  6  0  0  0
 11 21  1  0  0  0  0
 12 44  1  0  0  0  0
 13 14  1  1  0  0  0
 13 23  1  0  0  0  0
 15 16  1  0  0  0  0
 17 18  1  6  0  0  0
 17 25  1  0  0  0  0
 19 20  1  1  0  0  0
 19 27  1  0  0  0  0
 21 22  1  6  0  0  0
 21 28  1  0  0  0  0
 23 24  1  6  0  0  0
 23 30  1  0  0  0  0
 25 26  1  1  0  0  0
 25 32  1  0  0  0  0
 27  2  1  1  0  0  0
 27 34  1  0  0  0  0
 28 29  1  0  0  0  0
 28 36  1  1  0  0  0
 30 31  1  1  0  0  0
 30 38  1  0  0  0  0
 32 33  1  0  0  0  0
 32 40  1  1  0  0  0
 34 35  1  6  0  0  0
 34 42  1  0  0  0  0
 36 37  1  0  0  0  0
 38 39  1  0  0  0  0
 38 45  1  1  0  0  0
 40 41  1  0  0  0  0
 42 43  1  6  0  0  0
 44 47  1  0  0  0  0
 45 46  1  0  0  0  0
 47 48  1  0  0  0  0
 48 49  1  0  0  0  0
 49  7  1  0  0  0  0
M  END
>  <CHROM.1>
-169.24893754,-44.47481090,-176.31233900,177.05885948,66.23862215,70.17873243
-1.89577283,-132.87580965,-67.30950784,176.18193146,-92.90468338,61.64122423
176.41180185,109.91327749,-90.00970359,-66.00969613,40.79879901,5.82179479
-2.15770477,1.66420933,0.93172503,0.37522285

>  <Name>
2bee_lig

>  <RI>
0

>  <Rbt.Current_Directory>
/home/itssahil/PROJECTS/Mol_Feturizer/New_Systems/rnas/2bee

>  <Rbt.Executable>
rbdock ($Id: //depot/dev/client3/rdock/2013.1/src/exe/rbdock.cxx#4 $)

>  <Rbt.Library>
libRbt.so (2013.1, Build901 2013/11/27)

>  <Rbt.Parameter_File>
/export/apps/rDock/src/rDock_2013.1_src/data/scripts/dock_solv.prm

>  <Rbt.Receptor>
prm/pocket_docking_5.prm

>  <SCORE>
-12.5029

>  <SCORE.INTER>
-3.38281

>  <SCORE.INTER.CONST>
1

>  <SCORE.INTER.POLAR>
-1.17364

>  <SCORE.INTER.ROT>
16

>  <SCORE.INTER.SOLV>
22.2207

>  <SCORE.INTER.VDW>
-20.0166

>  <SCORE.INTER.norm>
-0.0690369

>  <SCORE.INTRA>
-9.12013

>  <SCORE.INTRA.DIHEDRAL>
-17.3717

>  <SCORE.INTRA.DIHEDRAL.0>
36.0842

>  <SCORE.INTRA.POLAR>
0

>  <SCORE.INTRA.POLAR.0>
0

>  <SCORE.INTRA.REPUL>
0

>  <SCORE.INTRA.REPUL.0>
0

>  <SCORE.INTRA.SOLV>
-0.987784

>  <SCORE.INTRA.SOLV.lig_0>
-126.444

>  <SCORE.INTRA.VDW>
0.059604

>  <SCORE.INTRA.VDW.0>
-7.40469

>  <SCORE.INTRA.norm>
-0.186125

>  <SCORE.RESTR>
0

>  <SCORE.RESTR.CAVITY>
0

>  <SCORE.RESTR.norm>
0

>  <SCORE.SYSTEM>
0

>  <SCORE.SYSTEM.CONST>
0

>  <SCORE.SYSTEM.DIHEDRAL>
0

>  <SCORE.SYSTEM.SOLV>
0

>  <SCORE.SYSTEM.norm>
0

>  <SCORE.heavy>
49

>  <SCORE.norm>
-0.255162

>  <RMSD>
8.977

$$$$
2bee_lig
 OpenBabel11021811423D
libRbt.so/2013.1/901 2013/11/27
 49 52  0  0  0  0  0  0  0  0999 V2000
   41.8688    7.7581   -0.3695 C   0  0  2  0  0  0  0  0  0  0  0  0
   41.4962    7.1762    0.8733 O   0  0  0  0  0  0  0  0  0  0  0  0
   39.9416    3.2820    2.2123 C   0  0  2  0  0  0  0  0  0  0  0  0
   39.0833    2.0674    2.2672 N   0  0  0  0  0  0  0  0  0  0  0  0
   43.2112    4.1092   -1.0295 C   0  0  1  0  0  0  0  0  0  0  0  0
   43.0874    2.5326   -5.3177 C   0  0  1  0  0  0  0  0  0  0  0  0
   47.1619    3.8558   -4.9931 C   0  0  0  0  0  0  0  0  0  0  0  0
   42.9960    8.8402   -0.1519 C   0  0  2  0  0  0  0  0  0  0  0  0
   44.1241    8.2507    0.5613 N   0  0  0  0  0  0  0  0  0  0  0  0
   39.0254    4.5830    2.3383 C   0  0  0  0  0  0  0  0  0  0  0  0
   43.6383    2.9204   -1.8276 C   0  0  2  0  0  0  0  0  0  0  0  0
   44.7169    2.1524   -1.1817 O   0  0  0  0  0  0  0  0  0  0  0  0
   43.5159    2.8862   -6.8417 C   0  0  2  0  0  0  0  0  0  0  0  0
   43.1559    4.3191   -7.1068 N   0  0  0  0  0  0  0  0  0  0  0  0
   46.8431    4.1326   -6.3432 C   0  0  0  0  0  0  0  0  0  0  0  0
   47.7052    3.7235   -7.3581 N   0  0  0  0  0  0  0  0  0  0  0  0
   42.3880   10.0812    0.6370 C   0  0  1  0  0  0  0  0  0  0  0  0
   43.4081   11.0515    0.8239 O   0  0  0  0  0  0  0  0  0  0  0  0
   39.9315    5.9415    2.2687 C   0  0  2  0  0  0  0  0  0  0  0  0
   39.1240    7.1075    2.3895 N   0  0  0  0  0  0  0  0  0  0  0  0
   43.8539    3.6541   -3.1291 C   0  0  2  0  0  0  0  0  0  0  0  0
   43.8018    3.4852   -4.4943 O   0  0  0  0  0  0  0  0  0  0  0  0
   42.7368    1.9280   -7.8117 C   0  0  1  0  0  0  0  0  0  0  0  0
   43.1542    0.5532   -7.4994 O   0  0  0  0  0  0  0  0  0  0  0  0
   41.2039   10.6621   -0.1703 C   0  0  2  0  0  0  0  0  0  0  0  0
   40.5957   11.8161    0.5399 O   0  0  0  0  0  0  0  0  0  0  0  0
   40.7260    5.9855    0.9057 C   0  0  2  0  0  0  0  0  0  0  0  0
   44.4418    5.0713   -2.6461 C   0  0  2  0  0  0  0  0  0  0  0  0
   43.7054    5.3161   -1.5362 O   0  0  0  0  0  0  0  0  0  0  0  0
   41.1326    2.1331   -7.5927 C   0  0  2  0  0  0  0  0  0  0  0  0
   40.7248    3.5209   -7.9076 O   0  0  0  0  0  0  0  0  0  0  0  0
   40.0955    9.5780   -0.3847 C   0  0  2  0  0  0  0  0  0  0  0  0
   40.7599    8.4853   -1.0695 O   0  0  0  0  0  0  0  0  0  0  0  0
   41.6031    4.6903    0.8308 C   0  0  2  0  0  0  0  0  0  0  0  0
   42.2764    4.8435   -0.3952 O   0  0  0  0  0  0  0  0  0  0  0  0
   44.2417    6.3136   -3.5908 C   0  0  0  0  0  0  0  0  0  0  0  0
   44.9310    6.0760   -4.8588 O   0  0  0  0  0  0  0  0  0  0  0  0
   40.7430    1.8239   -6.0788 C   0  0  1  0  0  0  0  0  0  0  0  0
   41.5712    2.7491   -5.2119 O   0  0  0  0  0  0  0  0  0  0  0  0
   39.0246   10.2096   -1.1784 C   0  0  0  0  0  0  0  0  0  0  0  0
   38.2528   10.9770   -0.3970 O   0  0  0  0  0  0  0  0  0  0  0  0
   40.6955    3.3875    0.8679 C   0  0  1  0  0  0  0  0  0  0  0  0
   41.4882    2.2410    0.8095 O   0  0  0  0  0  0  0  0  0  0  0  0
   45.2853    0.8944   -1.6930 C   0  0  0  0  0  0  0  0  0  0  0  0
   39.1994    2.0722   -5.9843 C   0  0  0  0  0  0  0  0  0  0  0  0
   38.4319    1.1090   -6.7204 N   0  0  0  0  0  0  0  0  0  0  0  0
   46.6072    1.1901   -2.4030 C   0  0  0  0  0  0  0  0  0  0  0  0
   46.2680    1.8744   -3.6658 N   0  0  0  0  0  0  0  0  0  0  0  0
   47.4147    2.3360   -4.5677 C   0  0  0  0  0  0  0  0  0  0  0  0
  1  2  1  1  0  0  0
  1  8  1  0  0  0  0
  1 33  1  0  0  0  0
  3  4  1  6  0  0  0
  3 10  1  0  0  0  0
  3 42  1  0  0  0  0
  5 11  1  0  0  0  0
  5 29  1  0  0  0  0
  5 35  1  6  0  0  0
  6 13  1  0  0  0  0
  6 39  1  0  0  0  0
  6 22  1  1  0  0  0
  7 15  1  0  0  0  0
  8  9  1  1  0  0  0
  8 17  1  0  0  0  0
 10 19  1  0  0  0  0
 11 12  1  1  0  0  0
 11 21  1  0  0  0  0
 12 44  1  0  0  0  0
 13 14  1  6  0  0  0
 13 23  1  0  0  0  0
 15 16  1  0  0  0  0
 17 18  1  6  0  0  0
 17 25  1  0  0  0  0
 19 20  1  6  0  0  0
 19 27  1  0  0  0  0
 21 22  1  6  0  0  0
 21 28  1  0  0  0  0
 23 24  1  1  0  0  0
 23 30  1  0  0  0  0
 25 26  1  1  0  0  0
 25 32  1  0  0  0  0
 27  2  1  1  0  0  0
 27 34  1  0  0  0  0
 28 29  1  0  0  0  0
 28 36  1  6  0  0  0
 30 31  1  1  0  0  0
 30 38  1  0  0  0  0
 32 33  1  0  0  0  0
 32 40  1  6  0  0  0
 34 35  1  6  0  0  0
 34 42  1  0  0  0  0
 36 37  1  0  0  0  0
 38 39  1  0  0  0  0
 38 45  1  6  0  0  0
 40 41  1  0  0  0  0
 42 43  1  1  0  0  0
 44 47  1  0  0  0  0
 45 46  1  0  0  0  0
 47 48  1  0  0  0  0
 48 49  1  0  0  0  0
 49  7  1  0  0  0  0
M  END
>  <CHROM.1>
-165.99110875,75.16850541,-178.53673992,-56.55596769,176.30928754,100.34084687
22.41805400,-154.41169655,-62.31445291,-79.03328009,177.17812558,68.12401030
-71.76202355,177.94750953,-131.42013274,-110.98810010,42.47995883,4.96094603
-2.35967434,-2.06540857,-0.78806471,-2.67011339

>  <Name>
2bee_lig

>  <RI>
0

>  <Rbt.Current_Directory>
/home/itssahil/PROJECTS/Mol_Feturizer/New_Systems/rnas/2bee

>  <Rbt.Executable>
rbdock ($Id: //depot/dev/client3/rdock/2013.1/src/exe/rbdock.cxx#4 $)

>  <Rbt.Library>
libRbt.so (2013.1, Build901 2013/11/27)

>  <Rbt.Parameter_File>
/export/apps/rDock/src/rDock_2013.1_src/data/scripts/dock_solv.prm

>  <Rbt.Receptor>
prm/pocket_docking_7.prm

>  <SCORE>
-6.52767

>  <SCORE.INTER>
0.762581

>  <SCORE.INTER.CONST>
1

>  <SCORE.INTER.POLAR>
0

>  <SCORE.INTER.ROT>
16

>  <SCORE.INTER.SOLV>
10.17

>  <SCORE.INTER.VDW>
-17.1483

>  <SCORE.INTER.norm>
0.0155629

>  <SCORE.INTRA>
-7.29025

>  <SCORE.INTRA.DIHEDRAL>
-13.2042

>  <SCORE.INTRA.DIHEDRAL.0>
36.0842

>  <SCORE.INTRA.POLAR>
0

>  <SCORE.INTRA.POLAR.0>
0

>  <SCORE.INTRA.REPUL>
0

>  <SCORE.INTRA.REPUL.0>
0

>  <SCORE.INTRA.SOLV>
2.01276

>  <SCORE.INTRA.SOLV.lig_0>
-126.444

>  <SCORE.INTRA.VDW>
-1.69454

>  <SCORE.INTRA.VDW.0>
-7.40469

>  <SCORE.INTRA.norm>
-0.148781

>  <SCORE.RESTR>
0

>  <SCORE.RESTR.CAVITY>
0

>  <SCORE.RESTR.norm>
0

>  <SCORE.SYSTEM>
0

>  <SCORE.SYSTEM.CONST>
0

>  <SCORE.SYSTEM.DIHEDRAL>
0

>  <SCORE.SYSTEM.SOLV>
0

>  <SCORE.SYSTEM.norm>
0

>  <SCORE.heavy>
49

>  <SCORE.norm>
-0.133218

>  <RMSD>
8.991

$$$$
2bee_lig
 OpenBabel11021811423D
libRbt.so/2013.1/901 2013/11/27
 49 52  0  0  0  0  0  0  0  0999 V2000
   42.4520   -1.0070   -4.7743 C   0  0  2  0  0  0  0  0  0  0  0  0
   41.3875   -0.3091   -5.4083 O   0  0  0  0  0  0  0  0  0  0  0  0
   39.7390    3.7650   -5.6493 C   0  0  2  0  0  0  0  0  0  0  0  0
   39.4227    5.1665   -5.2611 N   0  0  0  0  0  0  0  0  0  0  0  0
   44.0454    2.4299   -5.8421 C   0  0  1  0  0  0  0  0  0  0  0  0
   43.6665    4.1749   -1.7336 C   0  0  1  0  0  0  0  0  0  0  0  0
   50.6216    4.8316   -5.2606 C   0  0  0  0  0  0  0  0  0  0  0  0
   42.6401   -2.4304   -5.4280 C   0  0  2  0  0  0  0  0  0  0  0  0
   42.8250   -2.2984   -6.8692 N   0  0  0  0  0  0  0  0  0  0  0  0
   39.2253    2.7721   -4.5099 C   0  0  0  0  0  0  0  0  0  0  0  0
   44.7775    3.6711   -5.4470 C   0  0  2  0  0  0  0  0  0  0  0  0
   46.0507    3.8411   -6.1682 O   0  0  0  0  0  0  0  0  0  0  0  0
   42.4391    4.9683   -2.4371 C   0  0  2  0  0  0  0  0  0  0  0  0
   42.9509    6.3000   -2.9036 N   0  0  0  0  0  0  0  0  0  0  0  0
   51.2768    4.4893   -6.4666 C   0  0  0  0  0  0  0  0  0  0  0  0
   52.5264    3.8748   -6.4277 N   0  0  0  0  0  0  0  0  0  0  0  0
   41.3813   -3.3393   -5.0796 C   0  0  1  0  0  0  0  0  0  0  0  0
   41.5617   -4.6193   -5.6678 O   0  0  0  0  0  0  0  0  0  0  0  0
   39.5666    1.2204   -4.8936 C   0  0  2  0  0  0  0  0  0  0  0  0
   39.1041    0.3260   -3.8873 N   0  0  0  0  0  0  0  0  0  0  0  0
   44.7332    3.4313   -3.9572 C   0  0  2  0  0  0  0  0  0  0  0  0
   44.6940    4.0919   -2.7501 O   0  0  0  0  0  0  0  0  0  0  0  0
   41.2944    5.1519   -1.3779 C   0  0  1  0  0  0  0  0  0  0  0  0
   40.8401    3.8098   -0.9855 O   0  0  0  0  0  0  0  0  0  0  0  0
   41.2433   -3.4437   -3.5429 C   0  0  2  0  0  0  0  0  0  0  0  0
   40.0680   -4.2730   -3.1729 O   0  0  0  0  0  0  0  0  0  0  0  0
   41.1239    1.0461   -5.0828 C   0  0  2  0  0  0  0  0  0  0  0  0
   44.8963    1.8348   -3.8483 C   0  0  2  0  0  0  0  0  0  0  0  0
   44.1522    1.4054   -4.8953 O   0  0  0  0  0  0  0  0  0  0  0  0
   41.8751    5.9867   -0.1014 C   0  0  2  0  0  0  0  0  0  0  0  0
   42.3315    7.3346   -0.5089 O   0  0  0  0  0  0  0  0  0  0  0  0
   41.0633   -2.0254   -2.9059 C   0  0  2  0  0  0  0  0  0  0  0  0
   42.2346   -1.2736   -3.3149 O   0  0  0  0  0  0  0  0  0  0  0  0
   41.5753    2.0411   -6.2047 C   0  0  2  0  0  0  0  0  0  0  0  0
   42.9556    1.7874   -6.3057 O   0  0  0  0  0  0  0  0  0  0  0  0
   44.3165    1.1193   -2.5725 C   0  0  0  0  0  0  0  0  0  0  0  0
   44.7944   -0.2625   -2.5309 O   0  0  0  0  0  0  0  0  0  0  0  0
   43.1075    5.2106    0.5451 C   0  0  1  0  0  0  0  0  0  0  0  0
   44.1387    5.0300   -0.5492 O   0  0  0  0  0  0  0  0  0  0  0  0
   40.9646   -2.2191   -1.4469 C   0  0  0  0  0  0  0  0  0  0  0  0
   40.7488   -1.0481   -0.8325 O   0  0  0  0  0  0  0  0  0  0  0  0
   41.2611    3.5422   -5.7918 C   0  0  1  0  0  0  0  0  0  0  0  0
   41.6594    4.4178   -6.8021 O   0  0  0  0  0  0  0  0  0  0  0  0
   47.1937    2.9160   -6.1002 C   0  0  0  0  0  0  0  0  0  0  0  0
   43.5899    6.1076    1.7350 C   0  0  0  0  0  0  0  0  0  0  0  0
   42.5923    6.2696    2.7535 N   0  0  0  0  0  0  0  0  0  0  0  0
   47.8253    2.9958   -4.7096 C   0  0  0  0  0  0  0  0  0  0  0  0
   49.2635    2.7110   -4.8788 N   0  0  0  0  0  0  0  0  0  0  0  0
   50.2695    3.6631   -4.2284 C   0  0  0  0  0  0  0  0  0  0  0  0
  1  2  1  6  0  0  0
  1  8  1  0  0  0  0
  1 33  1  0  0  0  0
  3  4  1  1  0  0  0
  3 10  1  0  0  0  0
  3 42  1  0  0  0  0
  5 11  1  0  0  0  0
  5 29  1  0  0  0  0
  5 35  1  1  0  0  0
  6 13  1  0  0  0  0
  6 39  1  0  0  0  0
  6 22  1  6  0  0  0
  7 15  1  0  0  0  0
  8  9  1  6  0  0  0
  8 17  1  0  0  0  0
 10 19  1  0  0  0  0
 11 12  1  6  0  0  0
 11 21  1  0  0  0  0
 12 44  1  0  0  0  0
 13 14  1  1  0  0  0
 13 23  1  0  0  0  0
 15 16  1  0  0  0  0
 17 18  1  6  0  0  0
 17 25  1  0  0  0  0
 19 20  1  1  0  0  0
 19 27  1  0  0  0  0
 21 22  1  1  0  0  0
 21 28  1  0  0  0  0
 23 24  1  1  0  0  0
 23 30  1  0  0  0  0
 25 26  1  6  0  0  0
 25 32  1  0  0  0  0
 27  2  1  6  0  0  0
 27 34  1  0  0  0  0
 28 29  1  0  0  0  0
 28 36  1  1  0  0  0
 30 31  1  6  0  0  0
 30 38  1  0  0  0  0
 32 33  1  0  0  0  0
 32 40  1  1  0  0  0
 34 35  1  1  0  0  0
 34 42  1  0  0  0  0
 36 37  1  0  0  0  0
 38 39  1  0  0  0  0
 38 45  1  1  0  0  0
 40 41  1  0  0  0  0
 42 43  1  6  0  0  0
 44 47  1  0  0  0  0
 45 46  1  0  0  0  0
 47 48  1  0  0  0  0
 48 49  1  0  0  0  0
 49  7  1  0  0  0  0
M  END
>  <CHROM.1>
-173.40051604,-31.70593350,-65.72287719,-60.10860937,-61.94971377,-69.35152181
113.17262843,-135.06024497,-168.69227811,-177.27298190,-101.30355669,62.54827859
-149.33386865,131.05262800,-89.59748871,-64.11567880,43.35999045,2.12434960
-3.75392121,-2.47941820,0.40821235,0.52259350

>  <Name>
2bee_lig

>  <RI>
0

>  <Rbt.Current_Directory>
/home/itssahil/PROJECTS/Mol_Feturizer/New_Systems/rnas/2bee

>  <Rbt.Executable>
rbdock ($Id: //depot/dev/client3/rdock/2013.1/src/exe/rbdock.cxx#4 $)

>  <Rbt.Library>
libRbt.so (2013.1, Build901 2013/11/27)

>  <Rbt.Parameter_File>
/export/apps/rDock/src/rDock_2013.1_src/data/scripts/dock_solv.prm

>  <Rbt.Receptor>
prm/pocket_docking_5.prm

>  <SCORE>
-3.38584

>  <SCORE.INTER>
3.09937

>  <SCORE.INTER.CONST>
1

>  <SCORE.INTER.POLAR>
0

>  <SCORE.INTER.ROT>
16

>  <SCORE.INTER.SOLV>
11.6207

>  <SCORE.INTER.VDW>
-16.074

>  <SCORE.INTER.norm>
0.0632525

>  <SCORE.INTRA>
-6.48521

>  <SCORE.INTRA.DIHEDRAL>
-12.1426

>  <SCORE.INTRA.DIHEDRAL.0>
36.0842

>  <SCORE.INTRA.POLAR>
0

>  <SCORE.INTRA.POLAR.0>
0

>  <SCORE.INTRA.REPUL>
0

>  <SCORE.INTRA.REPUL.0>
0

>  <SCORE.INTRA.SOLV>
1.30901

>  <SCORE.INTRA.SOLV.lig_0>
-126.444

>  <SCORE.INTRA.VDW>
-1.06839

>  <SCORE.INTRA.VDW.0>
-7.40469

>  <SCORE.INTRA.norm>
-0.132351

>  <SCORE.RESTR>
0

>  <SCORE.RESTR.CAVITY>
0

>  <SCORE.RESTR.norm>
0

>  <SCORE.SYSTEM>
0

>  <SCORE.SYSTEM.CONST>
0

>  <SCORE.SYSTEM.DIHEDRAL>
0

>  <SCORE.SYSTEM.SOLV>
0

>  <SCORE.SYSTEM.norm>
0

>  <SCORE.heavy>
49

>  <SCORE.norm>
-0.0690987

>  <RMSD>
8.993

$$$$
2bee_lig
 OpenBabel11021811423D
libRbt.so/2013.1/901 2013/11/27
 49 52  0  0  0  0  0  0  0  0999 V2000
   42.8594    1.8092   -5.9818 C   0  0  2  0  0  0  0  0  0  0  0  0
   42.1345    0.6714   -5.5320 O   0  0  0  0  0  0  0  0  0  0  0  0
   37.9340   -0.0087   -4.4062 C   0  0  2  0  0  0  0  0  0  0  0  0
   36.6478    0.1288   -3.6702 N   0  0  0  0  0  0  0  0  0  0  0  0
   40.3797    3.5769   -6.0119 C   0  0  1  0  0  0  0  0  0  0  0  0
   44.5074    5.3409   -6.1914 C   0  0  1  0  0  0  0  0  0  0  0  0
   40.7249    9.8392   -0.3219 C   0  0  0  0  0  0  0  0  0  0  0  0
   44.2223    1.3652   -6.6407 C   0  0  2  0  0  0  0  0  0  0  0  0
   43.9724    0.3943   -7.7006 N   0  0  0  0  0  0  0  0  0  0  0  0
   39.0964   -0.3750   -3.3754 C   0  0  0  0  0  0  0  0  0  0  0  0
   41.1064    4.5333   -5.1232 C   0  0  2  0  0  0  0  0  0  0  0  0
   40.2032    5.3193   -4.2649 O   0  0  0  0  0  0  0  0  0  0  0  0
   45.2445    6.5910   -5.4668 C   0  0  2  0  0  0  0  0  0  0  0  0
   45.1398    7.7831   -6.3729 N   0  0  0  0  0  0  0  0  0  0  0  0
   40.7778   11.0423   -1.0639 C   0  0  0  0  0  0  0  0  0  0  0  0
   40.5674   12.2621   -0.4246 N   0  0  0  0  0  0  0  0  0  0  0  0
   45.1807    0.7724   -5.5172 C   0  0  1  0  0  0  0  0  0  0  0  0
   46.4061    0.3801   -6.1186 O   0  0  0  0  0  0  0  0  0  0  0  0
   40.5310   -0.5219   -4.1448 C   0  0  2  0  0  0  0  0  0  0  0  0
   41.5729   -0.8576   -3.2348 N   0  0  0  0  0  0  0  0  0  0  0  0
   41.9366    5.1790   -6.2060 C   0  0  2  0  0  0  0  0  0  0  0  0
   43.1510    5.7883   -6.4278 O   0  0  0  0  0  0  0  0  0  0  0  0
   46.7477    6.2077   -5.2228 C   0  0  1  0  0  0  0  0  0  0  0  0
   46.7637    5.0480   -4.3192 O   0  0  0  0  0  0  0  0  0  0  0  0
   45.4098    1.8476   -4.4297 C   0  0  2  0  0  0  0  0  0  0  0  0
   46.2890    1.3291   -3.3508 O   0  0  0  0  0  0  0  0  0  0  0  0
   40.8844    0.8289   -4.8806 C   0  0  2  0  0  0  0  0  0  0  0  0
   40.9283    5.2073   -7.4590 C   0  0  2  0  0  0  0  0  0  0  0  0
   40.2985    4.0145   -7.3383 O   0  0  0  0  0  0  0  0  0  0  0  0
   47.4516    5.8636   -6.6544 C   0  0  2  0  0  0  0  0  0  0  0  0
   47.4272    7.0373   -7.5562 O   0  0  0  0  0  0  0  0  0  0  0  0
   44.0505    2.2840   -3.7880 C   0  0  2  0  0  0  0  0  0  0  0  0
   43.2455    2.7664   -4.8941 O   0  0  0  0  0  0  0  0  0  0  0  0
   39.7150    1.1430   -5.8738 C   0  0  2  0  0  0  0  0  0  0  0  0
   40.1401    2.3377   -6.4836 O   0  0  0  0  0  0  0  0  0  0  0  0
   41.5486    5.2342   -8.9048 C   0  0  0  0  0  0  0  0  0  0  0  0
   42.2477    6.5025   -9.1101 O   0  0  0  0  0  0  0  0  0  0  0  0
   46.6835    4.6633   -7.3675 C   0  0  1  0  0  0  0  0  0  0  0  0
   45.2386    5.0913   -7.5180 O   0  0  0  0  0  0  0  0  0  0  0  0
   44.3616    3.3211   -2.7863 C   0  0  0  0  0  0  0  0  0  0  0  0
   43.2418    3.7373   -2.1796 O   0  0  0  0  0  0  0  0  0  0  0  0
   38.3404    1.3124   -5.0964 C   0  0  1  0  0  0  0  0  0  0  0  0
   37.3056    1.5830   -5.9921 O   0  0  0  0  0  0  0  0  0  0  0  0
   40.5794    6.5381   -3.5300 C   0  0  0  0  0  0  0  0  0  0  0  0
   47.4277    4.4386   -8.7272 C   0  0  0  0  0  0  0  0  0  0  0  0
   48.7463    3.8984   -8.5605 N   0  0  0  0  0  0  0  0  0  0  0  0
   39.4526    6.9143   -2.5668 C   0  0  0  0  0  0  0  0  0  0  0  0
   39.7472    8.2756   -2.0786 N   0  0  0  0  0  0  0  0  0  0  0  0
   40.9108    8.4562   -1.1015 C   0  0  0  0  0  0  0  0  0  0  0  0
  1  2  1  1  0  0  0
  1  8  1  0  0  0  0
  1 33  1  0  0  0  0
  3  4  1  1  0  0  0
  3 10  1  0  0  0  0
  3 42  1  0  0  0  0
  5 11  1  0  0  0  0
  5 29  1  0  0  0  0
  5 35  1  6  0  0  0
  6 13  1  0  0  0  0
  6 39  1  0  0  0  0
  6 22  1  6  0  0  0
  7 15  1  0  0  0  0
  8  9  1  6  0  0  0
  8 17  1  0  0  0  0
 10 19  1  0  0  0  0
 11 12  1  6  0  0  0
 11 21  1  0  0  0  0
 12 44  1  0  0  0  0
 13 14  1  6  0  0  0
 13 23  1  0  0  0  0
 15 16  1  0  0  0  0
 17 18  1  6  0  0  0
 17 25  1  0  0  0  0
 19 20  1  1  0  0  0
 19 27  1  0  0  0  0
 21 22  1  1  0  0  0
 21 28  1  0  0  0  0
 23 24  1  1  0  0  0
 23 30  1  0  0  0  0
 25 26  1  1  0  0  0
 25 32  1  0  0  0  0
 27  2  1  6  0  0  0
 27 34  1  0  0  0  0
 28 29  1  0  0  0  0
 28 36  1  6  0  0  0
 30 31  1  6  0  0  0
 30 38  1  0  0  0  0
 32 33  1  0  0  0  0
 32 40  1  1  0  0  0
 34 35  1  1  0  0  0
 34 42  1  0  0  0  0
 36 37  1  0  0  0  0
 38 39  1  0  0  0  0
 38 45  1  6  0  0  0
 40 41  1  0  0  0  0
 42 43  1  6  0  0  0
 44 47  1  0  0  0  0
 45 46  1  0  0  0  0
 47 48  1  0  0  0  0
 48 49  1  0  0  0  0
 49  7  1  0  0  0  0
M  END
>  <CHROM.1>
178.79011607,60.11743435,-133.48634507,177.48279325,-164.84053926,-169.96029339
55.74903916,-163.91291368,-66.60680582,-179.33525012,-63.29936300,69.15876451
-168.15332458,-71.70496512,-159.84921848,-64.29313319,42.65696754,4.03155763
-5.15540991,-2.45968406,0.41989214,0.31002173

>  <Name>
2bee_lig

>  <RI>
3.46266e+07

>  <Rbt.Current_Directory>
/home/itssahil/PROJECTS/Mol_Feturizer/New_Systems/rnas/2bee

>  <Rbt.Executable>
rbdock ($Id: //depot/dev/client3/rdock/2013.1/src/exe/rbdock.cxx#4 $)

>  <Rbt.Library>
libRbt.so (2013.1, Build901 2013/11/27)

>  <Rbt.Parameter_File>
/export/apps/rDock/src/rDock_2013.1_src/data/scripts/dock_solv.prm

>  <Rbt.Receptor>
prm/pocket_docking_4.prm

>  <SCORE>
-9.08561

>  <SCORE.INTER>
3.26183

>  <SCORE.INTER.CONST>
1

>  <SCORE.INTER.POLAR>
-0.811196

>  <SCORE.INTER.ROT>
16

>  <SCORE.INTER.SOLV>
12.7855

>  <SCORE.INTER.VDW>
-13.65

>  <SCORE.INTER.norm>
0.066568

>  <SCORE.INTRA>
-12.3474

>  <SCORE.INTRA.DIHEDRAL>
-19.6572

>  <SCORE.INTRA.DIHEDRAL.0>
36.0842

>  <SCORE.INTRA.POLAR>
0

>  <SCORE.INTRA.POLAR.0>
0

>  <SCORE.INTRA.REPUL>
0

>  <SCORE.INTRA.REPUL.0>
0

>  <SCORE.INTRA.SOLV>
-3.13122

>  <SCORE.INTRA.SOLV.lig_0>
-126.444

>  <SCORE.INTRA.VDW>
-0.953223

>  <SCORE.INTRA.VDW.0>
-7.40469

>  <SCORE.INTRA.norm>
-0.251989

>  <SCORE.RESTR>
0

>  <SCORE.RESTR.CAVITY>
0

>  <SCORE.RESTR.norm>
0

>  <SCORE.SYSTEM>
0

>  <SCORE.SYSTEM.CONST>
0

>  <SCORE.SYSTEM.DIHEDRAL>
0

>  <SCORE.SYSTEM.SOLV>
0

>  <SCORE.SYSTEM.norm>
0

>  <SCORE.heavy>
49

>  <SCORE.norm>
-0.185421

>  <RMSD>
8.996

$$$$
2bee_lig
 OpenBabel11021811423D
libRbt.so/2013.1/901 2013/11/27
 49 52  0  0  0  0  0  0  0  0999 V2000
   41.4633    4.7738   -0.4666 C   0  0  2  0  0  0  0  0  0  0  0  0
   41.3351    5.0602    0.9204 O   0  0  0  0  0  0  0  0  0  0  0  0
   38.5761    3.8040    4.1116 C   0  0  2  0  0  0  0  0  0  0  0  0
   37.2983    3.5662    4.8365 N   0  0  0  0  0  0  0  0  0  0  0  0
   39.1896    2.3173   -0.1545 C   0  0  1  0  0  0  0  0  0  0  0  0
   39.7724    4.4124   -4.0527 C   0  0  1  0  0  0  0  0  0  0  0  0
   35.1288   -2.3658    0.3356 C   0  0  0  0  0  0  0  0  0  0  0  0
   42.9718    4.8918   -0.9134 C   0  0  2  0  0  0  0  0  0  0  0  0
   43.8093    4.0393   -0.0765 N   0  0  0  0  0  0  0  0  0  0  0  0
   38.6855    5.3491    3.7262 C   0  0  0  0  0  0  0  0  0  0  0  0
   38.0862    2.7152   -1.0802 C   0  0  2  0  0  0  0  0  0  0  0  0
   36.8762    1.8904   -0.9194 O   0  0  0  0  0  0  0  0  0  0  0  0
   39.3163    4.6279   -5.5943 C   0  0  2  0  0  0  0  0  0  0  0  0
   39.5919    3.3572   -6.3442 N   0  0  0  0  0  0  0  0  0  0  0  0
   34.5117   -3.4762    0.9577 C   0  0  0  0  0  0  0  0  0  0  0  0
   34.1150   -4.5696    0.1911 N   0  0  0  0  0  0  0  0  0  0  0  0
   43.4249    6.4152   -0.8365 C   0  0  1  0  0  0  0  0  0  0  0  0
   44.7818    6.5122   -1.2447 O   0  0  0  0  0  0  0  0  0  0  0  0
   40.0724    5.6493    2.9150 C   0  0  2  0  0  0  0  0  0  0  0  0
   40.1835    7.0270    2.5745 N   0  0  0  0  0  0  0  0  0  0  0  0
   38.9052    2.6870   -2.3479 C   0  0  2  0  0  0  0  0  0  0  0  0
   39.0086    3.2733   -3.5891 O   0  0  0  0  0  0  0  0  0  0  0  0
   40.1442    5.8195   -6.1952 C   0  0  1  0  0  0  0  0  0  0  0  0
   39.8082    7.0224   -5.4195 O   0  0  0  0  0  0  0  0  0  0  0  0
   42.5048    7.2626   -1.7457 C   0  0  2  0  0  0  0  0  0  0  0  0
   42.8843    8.6975   -1.6913 O   0  0  0  0  0  0  0  0  0  0  0  0
   40.1255    4.7731    1.6033 C   0  0  2  0  0  0  0  0  0  0  0  0
   39.9005    1.4475   -2.1017 C   0  0  2  0  0  0  0  0  0  0  0  0
   40.2000    1.5858   -0.7882 O   0  0  0  0  0  0  0  0  0  0  0  0
   41.7350    5.4679   -6.0996 C   0  0  2  0  0  0  0  0  0  0  0  0
   42.0607    4.2541   -6.8819 O   0  0  0  0  0  0  0  0  0  0  0  0
   41.0111    7.1326   -1.2963 C   0  0  2  0  0  0  0  0  0  0  0  0
   40.7159    5.7139   -1.3643 O   0  0  0  0  0  0  0  0  0  0  0  0
   40.0114    3.2723    2.0357 C   0  0  2  0  0  0  0  0  0  0  0  0
   40.0924    2.5899    0.8078 O   0  0  0  0  0  0  0  0  0  0  0  0
   41.2742    1.4407   -2.8689 C   0  0  0  0  0  0  0  0  0  0  0  0
   41.9908    0.2007   -2.5716 O   0  0  0  0  0  0  0  0  0  0  0  0
   42.1497    5.2163   -4.5818 C   0  0  1  0  0  0  0  0  0  0  0  0
   41.2741    4.0938   -4.0651 O   0  0  0  0  0  0  0  0  0  0  0  0
   40.2097    7.9488   -2.2276 C   0  0  0  0  0  0  0  0  0  0  0  0
   40.3517    9.2518   -1.9496 O   0  0  0  0  0  0  0  0  0  0  0  0
   38.6415    3.0024    2.7925 C   0  0  1  0  0  0  0  0  0  0  0  0
   38.5555    1.6650    3.1802 O   0  0  0  0  0  0  0  0  0  0  0  0
   35.7056    1.9196   -1.8114 C   0  0  0  0  0  0  0  0  0  0  0  0
   43.6769    4.8704   -4.6164 C   0  0  0  0  0  0  0  0  0  0  0  0
   44.4821    5.9440   -5.1239 N   0  0  0  0  0  0  0  0  0  0  0  0
   34.6052    1.0314   -1.2288 C   0  0  0  0  0  0  0  0  0  0  0  0
   35.1328   -0.3468   -1.2171 N   0  0  0  0  0  0  0  0  0  0  0  0
   34.2488   -1.4535   -0.6380 C   0  0  0  0  0  0  0  0  0  0  0  0
  1  2  1  1  0  0  0
  1  8  1  0  0  0  0
  1 33  1  0  0  0  0
  3  4  1  6  0  0  0
  3 10  1  0  0  0  0
  3 42  1  0  0  0  0
  5 11  1  0  0  0  0
  5 29  1  0  0  0  0
  5 35  1  6  0  0  0
  6 13  1  0  0  0  0
  6 39  1  0  0  0  0
  6 22  1  6  0  0  0
  7 15  1  0  0  0  0
  8  9  1  1  0  0  0
  8 17  1  0  0  0  0
 10 19  1  0  0  0  0
 11 12  1  6  0  0  0
 11 21  1  0  0  0  0
 12 44  1  0  0  0  0
 13 14  1  6  0  0  0
 13 23  1  0  0  0  0
 15 16  1  0  0  0  0
 17 18  1  6  0  0  0
 17 25  1  0  0  0  0
 19 20  1  6  0  0  0
 19 27  1  0  0  0  0
 21 22  1  6  0  0  0
 21 28  1  0  0  0  0
 23 24  1  1  0  0  0
 23 30  1  0  0  0  0
 25 26  1  1  0  0  0
 25 32  1  0  0  0  0
 27  2  1  1  0  0  0
 27 34  1  0  0  0  0
 28 29  1  0  0  0  0
 28 36  1  6  0  0  0
 30 31  1  6  0  0  0
 30 38  1  0  0  0  0
 32 33  1  0  0  0  0
 32 40  1  6  0  0  0
 34 35  1  6  0  0  0
 34 42  1  0  0  0  0
 36 37  1  0  0  0  0
 38 39  1  0  0  0  0
 38 45  1  6  0  0  0
 40 41  1  0  0  0  0
 42 43  1  1  0  0  0
 44 47  1  0  0  0  0
 45 46  1  0  0  0  0
 47 48  1  0  0  0  0
 48 49  1  0  0  0  0
 49  7  1  0  0  0  0
M  END
>  <CHROM.1>
-167.96197162,46.83898210,-174.93669636,68.36846185,-170.93052466,-174.13214105
92.04015049,-159.27534657,-176.66426199,-75.51703200,-81.57486311,62.23809590
-63.54525970,178.14321561,-134.20049677,-178.50523610,39.82712670,3.71598755
-1.31025468,-0.24735354,0.87404804,1.34985571

>  <Name>
2bee_lig

>  <RI>
0

>  <Rbt.Current_Directory>
/home/itssahil/PROJECTS/Mol_Feturizer/New_Systems/rnas/2bee

>  <Rbt.Executable>
rbdock ($Id: //depot/dev/client3/rdock/2013.1/src/exe/rbdock.cxx#4 $)

>  <Rbt.Library>
libRbt.so (2013.1, Build901 2013/11/27)

>  <Rbt.Parameter_File>
/export/apps/rDock/src/rDock_2013.1_src/data/scripts/dock_solv.prm

>  <Rbt.Receptor>
prm/pocket_docking_8.prm

>  <SCORE>
-19.4756

>  <SCORE.INTER>
-5.2651

>  <SCORE.INTER.CONST>
1

>  <SCORE.INTER.POLAR>
-0.959166

>  <SCORE.INTER.ROT>
16

>  <SCORE.INTER.SOLV>
11.3791

>  <SCORE.INTER.VDW>
-18.3725

>  <SCORE.INTER.norm>
-0.107451

>  <SCORE.INTRA>
-14.2105

>  <SCORE.INTRA.DIHEDRAL>
-23.1125

>  <SCORE.INTRA.DIHEDRAL.0>
36.0842

>  <SCORE.INTRA.POLAR>
0

>  <SCORE.INTRA.POLAR.0>
0

>  <SCORE.INTRA.REPUL>
0

>  <SCORE.INTRA.REPUL.0>
0

>  <SCORE.INTRA.SOLV>
-1.02643

>  <SCORE.INTRA.SOLV.lig_0>
-126.444

>  <SCORE.INTRA.VDW>
-2.14103

>  <SCORE.INTRA.VDW.0>
-7.40469

>  <SCORE.INTRA.norm>
-0.29001

>  <SCORE.RESTR>
0

>  <SCORE.RESTR.CAVITY>
0

>  <SCORE.RESTR.norm>
0

>  <SCORE.SYSTEM>
0

>  <SCORE.SYSTEM.CONST>
0

>  <SCORE.SYSTEM.DIHEDRAL>
0

>  <SCORE.SYSTEM.SOLV>
0

>  <SCORE.SYSTEM.norm>
0

>  <SCORE.heavy>
49

>  <SCORE.norm>
-0.397461

>  <RMSD>
9.003

$$$$
2bee_lig
 OpenBabel11021811423D
libRbt.so/2013.1/901 2013/11/27
 49 52  0  0  0  0  0  0  0  0999 V2000
   40.7580    6.2524   -0.1385 C   0  0  2  0  0  0  0  0  0  0  0  0
   41.0591    5.6357    1.1070 O   0  0  0  0  0  0  0  0  0  0  0  0
   39.8137    2.0816    3.3854 C   0  0  2  0  0  0  0  0  0  0  0  0
   38.9302    1.0216    3.9428 N   0  0  0  0  0  0  0  0  0  0  0  0
   41.1883    2.2370   -1.0508 C   0  0  1  0  0  0  0  0  0  0  0  0
   44.0650    2.8540   -4.5097 C   0  0  1  0  0  0  0  0  0  0  0  0
   42.7320   -3.5325   -6.9600 C   0  0  0  0  0  0  0  0  0  0  0  0
   41.8398    7.3478   -0.4833 C   0  0  2  0  0  0  0  0  0  0  0  0
   43.1750    6.7608   -0.4471 N   0  0  0  0  0  0  0  0  0  0  0  0
   39.2333    3.5152    3.7802 C   0  0  0  0  0  0  0  0  0  0  0  0
   41.3389    1.7659   -2.4608 C   0  0  2  0  0  0  0  0  0  0  0  0
   40.5884    0.5286   -2.7362 O   0  0  0  0  0  0  0  0  0  0  0  0
   45.4377    2.3577   -5.2172 C   0  0  2  0  0  0  0  0  0  0  0  0
   46.5488    2.4783   -4.2153 N   0  0  0  0  0  0  0  0  0  0  0  0
   43.6310   -4.5510   -7.3541 C   0  0  0  0  0  0  0  0  0  0  0  0
   43.8589   -5.6390   -6.5145 N   0  0  0  0  0  0  0  0  0  0  0  0
   41.7047    8.5599    0.5388 C   0  0  1  0  0  0  0  0  0  0  0  0
   42.6787    9.5424    0.2179 O   0  0  0  0  0  0  0  0  0  0  0  0
   40.1706    4.7091    3.1738 C   0  0  2  0  0  0  0  0  0  0  0  0
   39.6660    5.9920    3.5283 N   0  0  0  0  0  0  0  0  0  0  0  0
   42.8476    1.8056   -2.4963 C   0  0  2  0  0  0  0  0  0  0  0  0
   43.9105    2.0037   -3.3483 O   0  0  0  0  0  0  0  0  0  0  0  0
   45.7117    3.2711   -6.4649 C   0  0  1  0  0  0  0  0  0  0  0  0
   44.5921    3.0849   -7.3995 O   0  0  0  0  0  0  0  0  0  0  0  0
   40.2739    9.1395    0.4489 C   0  0  2  0  0  0  0  0  0  0  0  0
   40.0995   10.2664    1.4005 O   0  0  0  0  0  0  0  0  0  0  0  0
   40.2456    4.5846    1.6022 C   0  0  2  0  0  0  0  0  0  0  0  0
   43.2512    1.3447   -1.0089 C   0  0  2  0  0  0  0  0  0  0  0  0
   42.3088    1.9637   -0.2588 O   0  0  0  0  0  0  0  0  0  0  0  0
   45.8340    4.8232   -5.9755 C   0  0  2  0  0  0  0  0  0  0  0  0
   46.9625    4.9978   -5.0335 O   0  0  0  0  0  0  0  0  0  0  0  0
   39.2101    8.0424    0.7871 C   0  0  2  0  0  0  0  0  0  0  0  0
   39.4457    6.9771   -0.1689 O   0  0  0  0  0  0  0  0  0  0  0  0
   40.8159    3.1644    1.2699 C   0  0  2  0  0  0  0  0  0  0  0  0
   40.8616    3.1711   -0.1365 O   0  0  0  0  0  0  0  0  0  0  0  0
   44.6427    1.8133   -0.4435 C   0  0  0  0  0  0  0  0  0  0  0  0
   45.7139    1.2766   -1.2825 O   0  0  0  0  0  0  0  0  0  0  0  0
   44.4919    5.2739   -5.2442 C   0  0  1  0  0  0  0  0  0  0  0  0
   44.2743    4.3161   -4.0914 O   0  0  0  0  0  0  0  0  0  0  0  0
   37.8840    8.6742    0.6537 C   0  0  0  0  0  0  0  0  0  0  0  0
   37.6412    9.4786    1.6975 O   0  0  0  0  0  0  0  0  0  0  0  0
   39.8695    2.0248    1.8425 C   0  0  1  0  0  0  0  0  0  0  0  0
   40.3923    0.7653    1.5480 O   0  0  0  0  0  0  0  0  0  0  0  0
   40.6290   -0.2240   -4.0007 C   0  0  0  0  0  0  0  0  0  0  0  0
   44.7322    6.7579   -4.8047 C   0  0  0  0  0  0  0  0  0  0  0  0
   44.8138    7.6636   -5.9145 N   0  0  0  0  0  0  0  0  0  0  0  0
   41.9682   -0.9542   -4.1104 C   0  0  0  0  0  0  0  0  0  0  0  0
   41.9529   -1.6801   -5.3953 N   0  0  0  0  0  0  0  0  0  0  0  0
   43.1219   -2.6160   -5.7099 C   0  0  0  0  0  0  0  0  0  0  0  0
  1  2  1  1  0  0  0
  1  8  1  0  0  0  0
  1 33  1  0  0  0  0
  3  4  1  6  0  0  0
  3 10  1  0  0  0  0
  3 42  1  0  0  0  0
  5 11  1  0  0  0  0
  5 29  1  0  0  0  0
  5 35  1  6  0  0  0
  6 13  1  0  0  0  0
  6 39  1  0  0  0  0
  6 22  1  1  0  0  0
  7 15  1  0  0  0  0
  8  9  1  1  0  0  0
  8 17  1  0  0  0  0
 10 19  1  0  0  0  0
 11 12  1  1  0  0  0
 11 21  1  0  0  0  0
 12 44  1  0  0  0  0
 13 14  1  1  0  0  0
 13 23  1  0  0  0  0
 15 16  1  0  0  0  0
 17 18  1  6  0  0  0
 17 25  1  0  0  0  0
 19 20  1  6  0  0  0
 19 27  1  0  0  0  0
 21 22  1  6  0  0  0
 21 28  1  0  0  0  0
 23 24  1  6  0  0  0
 23 30  1  0  0  0  0
 25 26  1  1  0  0  0
 25 32  1  0  0  0  0
 27  2  1  1  0  0  0
 27 34  1  0  0  0  0
 28 29  1  0  0  0  0
 28 36  1  1  0  0  0
 30 31  1  1  0  0  0
 30 38  1  0  0  0  0
 32 33  1  0  0  0  0
 32 40  1  6  0  0  0
 34 35  1  6  0  0  0
 34 42  1  0  0  0  0
 36 37  1  0  0  0  0
 38 39  1  0  0  0  0
 38 45  1  1  0  0  0
 40 41  1  0  0  0  0
 42 43  1  1  0  0  0
 44 47  1  0  0  0  0
 45 46  1  0  0  0  0
 47 48  1  0  0  0  0
 48 49  1  0  0  0  0
 49  7  1  0  0  0  0
M  END
>  <CHROM.1>
-177.88887304,176.38042027,-167.97403481,66.78700759,-175.04957727,73.30924931
33.34835026,-144.69308072,-61.51515543,-75.05300889,-176.08056744,68.26585405
-179.65654271,-174.11568615,166.89729754,-174.92408186,42.18556080,3.51334293
-1.72297181,-2.22497912,-0.94170648,-2.94725166

>  <Name>
2bee_lig

>  <RI>
0

>  <Rbt.Current_Directory>
/home/itssahil/PROJECTS/Mol_Feturizer/New_Systems/rnas/2bee

>  <Rbt.Executable>
rbdock ($Id: //depot/dev/client3/rdock/2013.1/src/exe/rbdock.cxx#4 $)

>  <Rbt.Library>
libRbt.so (2013.1, Build901 2013/11/27)

>  <Rbt.Parameter_File>
/export/apps/rDock/src/rDock_2013.1_src/data/scripts/dock_solv.prm

>  <Rbt.Receptor>
prm/pocket_docking_6.prm

>  <SCORE>
-9.29352

>  <SCORE.INTER>
-0.689014

>  <SCORE.INTER.CONST>
1

>  <SCORE.INTER.POLAR>
-0.572641

>  <SCORE.INTER.ROT>
16

>  <SCORE.INTER.SOLV>
14.7395

>  <SCORE.INTER.VDW>
-17.7304

>  <SCORE.INTER.norm>
-0.0140615

>  <SCORE.INTRA>
-8.60451

>  <SCORE.INTRA.DIHEDRAL>
-23.1742

>  <SCORE.INTRA.DIHEDRAL.0>
36.0842

>  <SCORE.INTRA.POLAR>
0

>  <SCORE.INTRA.POLAR.0>
0

>  <SCORE.INTRA.REPUL>
0

>  <SCORE.INTRA.REPUL.0>
0

>  <SCORE.INTRA.SOLV>
-1.86489

>  <SCORE.INTRA.SOLV.lig_0>
-126.444

>  <SCORE.INTRA.VDW>
3.91506

>  <SCORE.INTRA.VDW.0>
-7.40469

>  <SCORE.INTRA.norm>
-0.175602

>  <SCORE.RESTR>
0

>  <SCORE.RESTR.CAVITY>
0

>  <SCORE.RESTR.norm>
0

>  <SCORE.SYSTEM>
0

>  <SCORE.SYSTEM.CONST>
0

>  <SCORE.SYSTEM.DIHEDRAL>
0

>  <SCORE.SYSTEM.SOLV>
0

>  <SCORE.SYSTEM.norm>
0

>  <SCORE.heavy>
49

>  <SCORE.norm>
-0.189664

>  <RMSD>
9.011

$$$$
2bee_lig
 OpenBabel11021811423D
libRbt.so/2013.1/901 2013/11/27
 49 52  0  0  0  0  0  0  0  0999 V2000
   41.5366    6.3839   -0.5717 C   0  0  2  0  0  0  0  0  0  0  0  0
   42.4758    5.5015   -1.1728 O   0  0  0  0  0  0  0  0  0  0  0  0
   42.8666    7.3190   -5.1626 C   0  0  2  0  0  0  0  0  0  0  0  0
   43.3944    7.5835   -6.5287 N   0  0  0  0  0  0  0  0  0  0  0  0
   40.7862    3.3866   -4.2189 C   0  0  1  0  0  0  0  0  0  0  0  0
   40.5089   -1.3862   -4.7149 C   0  0  1  0  0  0  0  0  0  0  0  0
   34.5580   -0.4758   -6.9378 C   0  0  0  0  0  0  0  0  0  0  0  0
   41.2561    5.9525    0.9196 C   0  0  2  0  0  0  0  0  0  0  0  0
   42.5105    5.8665    1.6597 N   0  0  0  0  0  0  0  0  0  0  0  0
   44.0441    7.4906   -4.0986 C   0  0  0  0  0  0  0  0  0  0  0  0
   40.8723    2.4269   -5.3609 C   0  0  2  0  0  0  0  0  0  0  0  0
   39.8939    2.7112   -6.4250 O   0  0  0  0  0  0  0  0  0  0  0  0
   41.5285   -2.5471   -4.2210 C   0  0  2  0  0  0  0  0  0  0  0  0
   42.7934   -2.4279   -5.0203 N   0  0  0  0  0  0  0  0  0  0  0  0
   34.2964   -0.0938   -8.2744 C   0  0  0  0  0  0  0  0  0  0  0  0
   34.7337    1.1438   -8.7410 N   0  0  0  0  0  0  0  0  0  0  0  0
   40.4749    4.5662    0.9276 C   0  0  1  0  0  0  0  0  0  0  0  0
   40.2229    4.1884    2.2732 O   0  0  0  0  0  0  0  0  0  0  0  0
   43.5066    7.1947   -2.5836 C   0  0  2  0  0  0  0  0  0  0  0  0
   44.5478    7.3542   -1.6261 N   0  0  0  0  0  0  0  0  0  0  0  0
   40.8034    1.1664   -4.5333 C   0  0  2  0  0  0  0  0  0  0  0  0
   41.2242   -0.1442   -4.5108 O   0  0  0  0  0  0  0  0  0  0  0  0
   40.8474   -3.9415   -4.4614 C   0  0  1  0  0  0  0  0  0  0  0  0
   39.6311   -3.9839   -3.6365 O   0  0  0  0  0  0  0  0  0  0  0  0
   39.1571    4.7242    0.1341 C   0  0  2  0  0  0  0  0  0  0  0  0
   38.4022    3.4455    0.1033 O   0  0  0  0  0  0  0  0  0  0  0  0
   42.9274    5.7290   -2.4981 C   0  0  2  0  0  0  0  0  0  0  0  0
   39.7847    1.5688   -3.3552 C   0  0  2  0  0  0  0  0  0  0  0  0
   40.1468    2.8480   -3.0971 O   0  0  0  0  0  0  0  0  0  0  0  0
   40.5027   -4.1023   -6.0485 C   0  0  2  0  0  0  0  0  0  0  0  0
   41.7341   -4.0555   -6.8689 O   0  0  0  0  0  0  0  0  0  0  0  0
   39.4482    5.1580   -1.3413 C   0  0  2  0  0  0  0  0  0  0  0  0
   40.1910    6.3993   -1.2330 O   0  0  0  0  0  0  0  0  0  0  0  0
   41.7825    5.6133   -3.5603 C   0  0  2  0  0  0  0  0  0  0  0  0
   41.3285    4.2933   -3.3827 O   0  0  0  0  0  0  0  0  0  0  0  0
   39.8939    0.7954   -1.9893 C   0  0  0  0  0  0  0  0  0  0  0  0
   41.2042    1.0488   -1.3907 O   0  0  0  0  0  0  0  0  0  0  0  0
   39.5368   -2.9262   -6.5208 C   0  0  1  0  0  0  0  0  0  0  0  0
   40.2423   -1.6231   -6.2081 O   0  0  0  0  0  0  0  0  0  0  0  0
   38.1424    5.3066   -2.0110 C   0  0  0  0  0  0  0  0  0  0  0  0
   38.3115    5.6001   -3.3074 O   0  0  0  0  0  0  0  0  0  0  0  0
   42.3389    5.8735   -5.0249 C   0  0  1  0  0  0  0  0  0  0  0  0
   41.3087    5.7764   -5.9606 O   0  0  0  0  0  0  0  0  0  0  0  0
   38.4402    2.5056   -6.3170 C   0  0  0  0  0  0  0  0  0  0  0  0
   39.2950   -3.1706   -8.0488 C   0  0  0  0  0  0  0  0  0  0  0  0
   38.5649   -2.1070   -8.6767 N   0  0  0  0  0  0  0  0  0  0  0  0
   38.1412    1.0058   -6.3211 C   0  0  0  0  0  0  0  0  0  0  0  0
   36.6904    0.8620   -6.5505 N   0  0  0  0  0  0  0  0  0  0  0  0
   36.0783   -0.5367   -6.4481 C   0  0  0  0  0  0  0  0  0  0  0  0
  1  2  1  6  0  0  0
  1  8  1  0  0  0  0
  1 33  1  0  0  0  0
  3  4  1  6  0  0  0
  3 10  1  0  0  0  0
  3 42  1  0  0  0  0
  5 11  1  0  0  0  0
  5 29  1  0  0  0  0
  5 35  1  1  0  0  0
  6 13  1  0  0  0  0
  6 39  1  0  0  0  0
  6 22  1  6  0  0  0
  7 15  1  0  0  0  0
  8  9  1  1  0  0  0
  8 17  1  0  0  0  0
 10 19  1  0  0  0  0
 11 12  1  6  0  0  0
 11 21  1  0  0  0  0
 12 44  1  0  0  0  0
 13 14  1  6  0  0  0
 13 23  1  0  0  0  0
 15 16  1  0  0  0  0
 17 18  1  1  0  0  0
 17 25  1  0  0  0  0
 19 20  1  1  0  0  0
 19 27  1  0  0  0  0
 21 22  1  6  0  0  0
 21 28  1  0  0  0  0
 23 24  1  1  0  0  0
 23 30  1  0  0  0  0
 25 26  1  6  0  0  0
 25 32  1  0  0  0  0
 27  2  1  1  0  0  0
 27 34  1  0  0  0  0
 28 29  1  0  0  0  0
 28 36  1  1  0  0  0
 30 31  1  6  0  0  0
 30 38  1  0  0  0  0
 32 33  1  0  0  0  0
 32 40  1  6  0  0  0
 34 35  1  6  0  0  0
 34 42  1  0  0  0  0
 36 37  1  0  0  0  0
 38 39  1  0  0  0  0
 38 45  1  6  0  0  0
 40 41  1  0  0  0  0
 42 43  1  6  0  0  0
 44 47  1  0  0  0  0
 45 46  1  0  0  0  0
 47 48  1  0  0  0  0
 48 49  1  0  0  0  0
 49  7  1  0  0  0  0
M  END
>  <CHROM.1>
-177.18187197,70.24484464,-167.61520170,-58.42820040,-70.78540931,-71.29989999
-107.44390085,54.86153773,62.85817313,-176.27749939,-149.63156017,-173.15058243
-166.19943009,-173.28330882,-171.91841365,61.97528730,40.24843048,2.33890126
-3.92642328,-0.96803980,1.01301926,-3.11493584

>  <Name>
2bee_lig

>  <RI>
0

>  <Rbt.Current_Directory>
/home/itssahil/PROJECTS/Mol_Feturizer/New_Systems/rnas/2bee

>  <Rbt.Executable>
rbdock ($Id: //depot/dev/client3/rdock/2013.1/src/exe/rbdock.cxx#4 $)

>  <Rbt.Library>
libRbt.so (2013.1, Build901 2013/11/27)

>  <Rbt.Parameter_File>
/export/apps/rDock/src/rDock_2013.1_src/data/scripts/dock_solv.prm

>  <Rbt.Receptor>
prm/pocket_docking_7.prm

>  <SCORE>
-11.0338

>  <SCORE.INTER>
1.82125

>  <SCORE.INTER.CONST>
1

>  <SCORE.INTER.POLAR>
-0.959166

>  <SCORE.INTER.ROT>
16

>  <SCORE.INTER.SOLV>
17.5313

>  <SCORE.INTER.VDW>
-15.6991

>  <SCORE.INTER.norm>
0.0371683

>  <SCORE.INTRA>
-12.855

>  <SCORE.INTRA.DIHEDRAL>
-24.9217

>  <SCORE.INTRA.DIHEDRAL.0>
36.0842

>  <SCORE.INTRA.POLAR>
0

>  <SCORE.INTRA.POLAR.0>
0

>  <SCORE.INTRA.REPUL>
0

>  <SCORE.INTRA.REPUL.0>
0

>  <SCORE.INTRA.SOLV>
1.92941

>  <SCORE.INTRA.SOLV.lig_0>
-126.444

>  <SCORE.INTRA.VDW>
-1.35884

>  <SCORE.INTRA.VDW.0>
-7.40469

>  <SCORE.INTRA.norm>
-0.262347

>  <SCORE.RESTR>
0

>  <SCORE.RESTR.CAVITY>
0

>  <SCORE.RESTR.norm>
0

>  <SCORE.SYSTEM>
0

>  <SCORE.SYSTEM.CONST>
0

>  <SCORE.SYSTEM.DIHEDRAL>
0

>  <SCORE.SYSTEM.SOLV>
0

>  <SCORE.SYSTEM.norm>
0

>  <SCORE.heavy>
49

>  <SCORE.norm>
-0.225179

>  <RMSD>
9.049

$$$$
2bee_lig
 OpenBabel11021811423D
libRbt.so/2013.1/901 2013/11/27
 49 52  0  0  0  0  0  0  0  0999 V2000
   44.2356    3.9387   -5.2545 C   0  0  2  0  0  0  0  0  0  0  0  0
   44.9124    2.9193   -4.5300 O   0  0  0  0  0  0  0  0  0  0  0  0
   43.3365   -1.1396   -3.8851 C   0  0  2  0  0  0  0  0  0  0  0  0
   42.6182   -2.2697   -3.2356 N   0  0  0  0  0  0  0  0  0  0  0  0
   41.3779    2.4710   -6.2149 C   0  0  1  0  0  0  0  0  0  0  0  0
   38.7042   -0.9787   -7.1672 C   0  0  1  0  0  0  0  0  0  0  0  0
   43.6643    7.8297  -10.4871 C   0  0  0  0  0  0  0  0  0  0  0  0
   45.2340    5.1027   -5.6251 C   0  0  2  0  0  0  0  0  0  0  0  0
   46.3856    4.5645   -6.3413 N   0  0  0  0  0  0  0  0  0  0  0  0
   44.4067   -0.5375   -2.8654 C   0  0  0  0  0  0  0  0  0  0  0  0
   40.7407    2.1444   -7.5263 C   0  0  2  0  0  0  0  0  0  0  0  0
   40.6271    3.3128   -8.4165 O   0  0  0  0  0  0  0  0  0  0  0  0
   37.2947   -1.5248   -7.7555 C   0  0  2  0  0  0  0  0  0  0  0  0
   36.1866   -0.9432   -6.9267 N   0  0  0  0  0  0  0  0  0  0  0  0
   44.2895    8.8104   -9.6821 C   0  0  0  0  0  0  0  0  0  0  0  0
   45.3055    9.6011  -10.2144 N   0  0  0  0  0  0  0  0  0  0  0  0
   45.6724    5.8618   -4.2972 C   0  0  1  0  0  0  0  0  0  0  0  0
   46.5668    6.9101   -4.6410 O   0  0  0  0  0  0  0  0  0  0  0  0
   45.2092    0.7175   -3.5383 C   0  0  2  0  0  0  0  0  0  0  0  0
   46.1727    1.2558   -2.6393 N   0  0  0  0  0  0  0  0  0  0  0  0
   39.5231    1.4548   -6.9601 C   0  0  2  0  0  0  0  0  0  0  0  0
   38.6078    0.4642   -7.2355 O   0  0  0  0  0  0  0  0  0  0  0  0
   37.2930   -3.0926   -7.6655 C   0  0  1  0  0  0  0  0  0  0  0  0
   38.3915   -3.5820   -8.5114 O   0  0  0  0  0  0  0  0  0  0  0  0
   44.4118    6.4109   -3.5895 C   0  0  2  0  0  0  0  0  0  0  0  0
   44.7754    7.1154   -2.3336 O   0  0  0  0  0  0  0  0  0  0  0  0
   44.1862    1.8444   -3.9562 C   0  0  2  0  0  0  0  0  0  0  0  0
   39.2119    2.3122   -5.6351 C   0  0  2  0  0  0  0  0  0  0  0  0
   40.4570    2.5637   -5.1657 O   0  0  0  0  0  0  0  0  0  0  0  0
   37.4892   -3.5396   -6.1081 C   0  0  2  0  0  0  0  0  0  0  0  0
   36.3792   -3.0393   -5.2661 O   0  0  0  0  0  0  0  0  0  0  0  0
   43.4269    5.2480   -3.2325 C   0  0  2  0  0  0  0  0  0  0  0  0
   43.1256    4.6035   -4.4967 O   0  0  0  0  0  0  0  0  0  0  0  0
   43.1603    1.2028   -4.9504 C   0  0  2  0  0  0  0  0  0  0  0  0
   42.3222    2.2864   -5.2717 O   0  0  0  0  0  0  0  0  0  0  0  0
   38.4339    1.6049   -4.4645 C   0  0  0  0  0  0  0  0  0  0  0  0
   39.2634    0.5383   -3.9044 O   0  0  0  0  0  0  0  0  0  0  0  0
   38.8577   -2.9544   -5.5390 C   0  0  1  0  0  0  0  0  0  0  0  0
   38.7996   -1.4507   -5.7095 O   0  0  0  0  0  0  0  0  0  0  0  0
   42.2517    5.8632   -2.5873 C   0  0  0  0  0  0  0  0  0  0  0  0
   41.5834    6.6270   -3.4620 O   0  0  0  0  0  0  0  0  0  0  0  0
   42.3730    0.0083   -4.2607 C   0  0  1  0  0  0  0  0  0  0  0  0
   41.4691   -0.5605   -5.1583 O   0  0  0  0  0  0  0  0  0  0  0  0
   41.7609    4.0835   -8.9526 C   0  0  0  0  0  0  0  0  0  0  0  0
   38.9265   -3.4256   -4.0469 C   0  0  0  0  0  0  0  0  0  0  0  0
   39.0492   -4.8490   -3.9150 N   0  0  0  0  0  0  0  0  0  0  0  0
   42.0900    5.2293   -7.9947 C   0  0  0  0  0  0  0  0  0  0  0  0
   43.0217    6.1251   -8.7072 N   0  0  0  0  0  0  0  0  0  0  0  0
   42.4712    6.9744   -9.8548 C   0  0  0  0  0  0  0  0  0  0  0  0
  1  2  1  1  0  0  0
  1  8  1  0  0  0  0
  1 33  1  0  0  0  0
  3  4  1  1  0  0  0
  3 10  1  0  0  0  0
  3 42  1  0  0  0  0
  5 11  1  0  0  0  0
  5 29  1  0  0  0  0
  5 35  1  1  0  0  0
  6 13  1  0  0  0  0
  6 39  1  0  0  0  0
  6 22  1  1  0  0  0
  7 15  1  0  0  0  0
  8  9  1  1  0  0  0
  8 17  1  0  0  0  0
 10 19  1  0  0  0  0
 11 12  1  1  0  0  0
 11 21  1  0  0  0  0
 12 44  1  0  0  0  0
 13 14  1  1  0  0  0
 13 23  1  0  0  0  0
 15 16  1  0  0  0  0
 17 18  1  6  0  0  0
 17 25  1  0  0  0  0
 19 20  1  1  0  0  0
 19 27  1  0  0  0  0
 21 22  1  6  0  0  0
 21 28  1  0  0  0  0
 23 24  1  6  0  0  0
 23 30  1  0  0  0  0
 25 26  1  1  0  0  0
 25 32  1  0  0  0  0
 27  2  1  6  0  0  0
 27 34  1  0  0  0  0
 28 29  1  0  0  0  0
 28 36  1  1  0  0  0
 30 31  1  1  0  0  0
 30 38  1  0  0  0  0
 32 33  1  0  0  0  0
 32 40  1  6  0  0  0
 34 35  1  1  0  0  0
 34 42  1  0  0  0  0
 36 37  1  0  0  0  0
 38 39  1  0  0  0  0
 38 45  1  1  0  0  0
 40 41  1  0  0  0  0
 42 43  1  6  0  0  0
 44 47  1  0  0  0  0
 45 46  1  0  0  0  0
 47 48  1  0  0  0  0
 48 49  1  0  0  0  0
 49  7  1  0  0  0  0
M  END
>  <CHROM.1>
172.70728707,-22.19163576,-175.15367462,-178.07855079,62.48607849,-90.67861453
76.79264156,166.33763905,66.00372831,66.29043287,168.08723557,65.89838232
-168.16964145,71.53833238,-178.72569195,-64.68368886,41.73763774,2.14341536
-5.70893632,-0.72535932,0.72266794,2.44780063

>  <Name>
2bee_lig

>  <RI>
3.46266e+07

>  <Rbt.Current_Directory>
/home/itssahil/PROJECTS/Mol_Feturizer/New_Systems/rnas/2bee

>  <Rbt.Executable>
rbdock ($Id: //depot/dev/client3/rdock/2013.1/src/exe/rbdock.cxx#4 $)

>  <Rbt.Library>
libRbt.so (2013.1, Build901 2013/11/27)

>  <Rbt.Parameter_File>
/export/apps/rDock/src/rDock_2013.1_src/data/scripts/dock_solv.prm

>  <Rbt.Receptor>
prm/pocket_docking_4.prm

>  <SCORE>
-11.0644

>  <SCORE.INTER>
-2.07087

>  <SCORE.INTER.CONST>
1

>  <SCORE.INTER.POLAR>
-1.09782

>  <SCORE.INTER.ROT>
16

>  <SCORE.INTER.SOLV>
13.888

>  <SCORE.INTER.VDW>
-16.6172

>  <SCORE.INTER.norm>
-0.0422626

>  <SCORE.INTRA>
-9.01471

>  <SCORE.INTRA.DIHEDRAL>
-19.9888

>  <SCORE.INTRA.DIHEDRAL.0>
36.0842

>  <SCORE.INTRA.POLAR>
0

>  <SCORE.INTRA.POLAR.0>
0

>  <SCORE.INTRA.REPUL>
0

>  <SCORE.INTRA.REPUL.0>
0

>  <SCORE.INTRA.SOLV>
-0.658759

>  <SCORE.INTRA.SOLV.lig_0>
-126.444

>  <SCORE.INTRA.VDW>
1.30906

>  <SCORE.INTRA.VDW.0>
-7.40469

>  <SCORE.INTRA.norm>
-0.183974

>  <SCORE.RESTR>
0.0211974

>  <SCORE.RESTR.CAVITY>
0.0211974

>  <SCORE.RESTR.norm>
0.000432599

>  <SCORE.SYSTEM>
0

>  <SCORE.SYSTEM.CONST>
0

>  <SCORE.SYSTEM.DIHEDRAL>
0

>  <SCORE.SYSTEM.SOLV>
0

>  <SCORE.SYSTEM.norm>
0

>  <SCORE.heavy>
49

>  <SCORE.norm>
-0.225804

>  <RMSD>
9.068

$$$$
2bee_lig
 OpenBabel11021811423D
libRbt.so/2013.1/901 2013/11/27
 49 52  0  0  0  0  0  0  0  0999 V2000
   46.5302   12.0292  -10.7877 C   0  0  2  0  0  0  0  0  0  0  0  0
   46.5045   12.7690  -12.0019 O   0  0  0  0  0  0  0  0  0  0  0  0
   43.1388   12.2044  -14.7818 C   0  0  2  0  0  0  0  0  0  0  0  0
   42.3818   11.7561  -15.9821 N   0  0  0  0  0  0  0  0  0  0  0  0
   44.4565    9.5711  -11.0635 C   0  0  1  0  0  0  0  0  0  0  0  0
   46.9299    7.0955   -8.2127 C   0  0  1  0  0  0  0  0  0  0  0  0
   43.6487    7.5613   -5.4820 C   0  0  0  0  0  0  0  0  0  0  0  0
   47.0346   12.9395   -9.6020 C   0  0  2  0  0  0  0  0  0  0  0  0
   46.2188   14.1461   -9.5160 N   0  0  0  0  0  0  0  0  0  0  0  0
   44.4109   13.0504  -15.2444 C   0  0  0  0  0  0  0  0  0  0  0  0
   44.3323    8.2063  -10.4680 C   0  0  2  0  0  0  0  0  0  0  0  0
   42.9583    7.6781  -10.5241 O   0  0  0  0  0  0  0  0  0  0  0  0
   46.3319    5.6078   -8.4581 C   0  0  2  0  0  0  0  0  0  0  0  0
   45.3809    5.2970   -7.3391 N   0  0  0  0  0  0  0  0  0  0  0  0
   44.6794    6.8762   -4.7971 C   0  0  0  0  0  0  0  0  0  0  0  0
   44.7017    6.8688   -3.4042 N   0  0  0  0  0  0  0  0  0  0  0  0
   48.5718   13.2861   -9.8228 C   0  0  1  0  0  0  0  0  0  0  0  0
   49.0179   14.1014   -8.7488 O   0  0  0  0  0  0  0  0  0  0  0  0
   45.2778   13.5508  -13.9523 C   0  0  2  0  0  0  0  0  0  0  0  0
   46.4100   14.3141  -14.3544 N   0  0  0  0  0  0  0  0  0  0  0  0
   45.0080    8.5274   -9.1569 C   0  0  2  0  0  0  0  0  0  0  0  0
   45.7723    7.9634   -8.1605 O   0  0  0  0  0  0  0  0  0  0  0  0
   47.5265    4.5886   -8.4726 C   0  0  1  0  0  0  0  0  0  0  0  0
   48.3985    4.9504   -9.5997 O   0  0  0  0  0  0  0  0  0  0  0  0
   49.3804   11.9703   -9.9002 C   0  0  2  0  0  0  0  0  0  0  0  0
   50.8224   12.2483  -10.1219 O   0  0  0  0  0  0  0  0  0  0  0  0
   45.7516   12.3029  -13.1100 C   0  0  2  0  0  0  0  0  0  0  0  0
   44.5212   10.0324   -8.8643 C   0  0  2  0  0  0  0  0  0  0  0  0
   44.5533   10.5823  -10.1015 O   0  0  0  0  0  0  0  0  0  0  0  0
   48.3193    4.6727   -7.0485 C   0  0  2  0  0  0  0  0  0  0  0  0
   47.4310    4.3089   -5.9216 O   0  0  0  0  0  0  0  0  0  0  0  0
   48.8670   11.0737  -11.0760 C   0  0  2  0  0  0  0  0  0  0  0  0
   47.4602   10.8531  -10.7994 O   0  0  0  0  0  0  0  0  0  0  0  0
   44.4706   11.5084  -12.6855 C   0  0  2  0  0  0  0  0  0  0  0  0
   45.0017   10.4460  -11.9311 O   0  0  0  0  0  0  0  0  0  0  0  0
   45.4311   10.9386   -7.9552 C   0  0  0  0  0  0  0  0  0  0  0  0
   46.8374   10.6328   -8.2167 O   0  0  0  0  0  0  0  0  0  0  0  0
   48.8581    6.1530   -6.8087 C   0  0  1  0  0  0  0  0  0  0  0  0
   47.6570    7.0739   -6.8608 O   0  0  0  0  0  0  0  0  0  0  0  0
   49.6739    9.8391  -11.0587 C   0  0  0  0  0  0  0  0  0  0  0  0
   50.9172   10.0860  -11.4928 O   0  0  0  0  0  0  0  0  0  0  0  0
   43.6656   11.0072  -13.9596 C   0  0  1  0  0  0  0  0  0  0  0  0
   42.5228   10.3090  -13.5688 O   0  0  0  0  0  0  0  0  0  0  0  0
   42.5175    6.3986   -9.9449 C   0  0  0  0  0  0  0  0  0  0  0  0
   49.5754    6.1175   -5.4168 C   0  0  0  0  0  0  0  0  0  0  0  0
   48.7311    5.6286   -4.3648 N   0  0  0  0  0  0  0  0  0  0  0  0
   43.1600    6.2200   -8.5686 C   0  0  0  0  0  0  0  0  0  0  0  0
   42.3732    7.0353   -7.6229 N   0  0  0  0  0  0  0  0  0  0  0  0
   42.4669    6.7036   -6.1321 C   0  0  0  0  0  0  0  0  0  0  0  0
  1  2  1  6  0  0  0
  1  8  1  0  0  0  0
  1 33  1  0  0  0  0
  3  4  1  6  0  0  0
  3 10  1  0  0  0  0
  3 42  1  0  0  0  0
  5 11  1  0  0  0  0
  5 29  1  0  0  0  0
  5 35  1  6  0  0  0
  6 13  1  0  0  0  0
  6 39  1  0  0  0  0
  6 22  1  1  0  0  0
  7 15  1  0  0  0  0
  8  9  1  6  0  0  0
  8 17  1  0  0  0  0
 10 19  1  0  0  0  0
 11 12  1  1  0  0  0
 11 21  1  0  0  0  0
 12 44  1  0  0  0  0
 13 14  1  1  0  0  0
 13 23  1  0  0  0  0
 15 16  1  0  0  0  0
 17 18  1  1  0  0  0
 17 25  1  0  0  0  0
 19 20  1  6  0  0  0
 19 27  1  0  0  0  0
 21 22  1  1  0  0  0
 21 28  1  0  0  0  0
 23 24  1  6  0  0  0
 23 30  1  0  0  0  0
 25 26  1  6  0  0  0
 25 32  1  0  0  0  0
 27  2  1  1  0  0  0
 27 34  1  0  0  0  0
 28 29  1  0  0  0  0
 28 36  1  1  0  0  0
 30 31  1  1  0  0  0
 30 38  1  0  0  0  0
 32 33  1  0  0  0  0
 32 40  1  1  0  0  0
 34 35  1  1  0  0  0
 34 42  1  0  0  0  0
 36 37  1  0  0  0  0
 38 39  1  0  0  0  0
 38 45  1  1  0  0  0
 40 41  1  0  0  0  0
 42 43  1  1  0  0  0
 44 47  1  0  0  0  0
 45 46  1  0  0  0  0
 47 48  1  0  0  0  0
 48 49  1  0  0  0  0
 49  7  1  0  0  0  0
M  END
>  <CHROM.1>
-162.32271478,141.70690880,-81.14047072,-103.54133808,-176.12587203,41.92334685
44.86879778,150.50919331,35.89317426,-72.57476419,163.95477035,-54.96119205
79.58031654,159.70806411,90.65215193,-124.12900213,46.07876356,9.36501317
-9.64933537,-1.66483047,0.36757279,2.39072714

>  <Name>
2bee_lig

>  <RI>
0

>  <Rbt.Current_Directory>
/home/itssahil/PROJECTS/Mol_Feturizer/New_Systems/rnas/2bee

>  <Rbt.Executable>
rbdock ($Id: //depot/dev/client3/rdock/2013.1/src/exe/rbdock.cxx#4 $)

>  <Rbt.Library>
libRbt.so (2013.1, Build901 2013/11/27)

>  <Rbt.Parameter_File>
/export/apps/rDock/src/rDock_2013.1_src/data/scripts/dock_solv.prm

>  <Rbt.Receptor>
prm/blind_docking_60.prm

>  <SCORE>
25.8547

>  <SCORE.INTER>
-3.68293

>  <SCORE.INTER.CONST>
1

>  <SCORE.INTER.POLAR>
-0.713644

>  <SCORE.INTER.ROT>
16

>  <SCORE.INTER.SOLV>
32.7087

>  <SCORE.INTER.VDW>
-25.246

>  <SCORE.INTER.norm>
-0.0751618

>  <SCORE.INTRA>
9.21226

>  <SCORE.INTRA.DIHEDRAL>
-2.25999

>  <SCORE.INTRA.DIHEDRAL.0>
36.0842

>  <SCORE.INTRA.POLAR>
0

>  <SCORE.INTRA.POLAR.0>
0

>  <SCORE.INTRA.REPUL>
0

>  <SCORE.INTRA.REPUL.0>
0

>  <SCORE.INTRA.SOLV>
7.46472

>  <SCORE.INTRA.SOLV.lig_0>
-126.444

>  <SCORE.INTRA.VDW>
6.60989

>  <SCORE.INTRA.VDW.0>
-7.40469

>  <SCORE.INTRA.norm>
0.188005

>  <SCORE.RESTR>
20.3254

>  <SCORE.RESTR.CAVITY>
20.3254

>  <SCORE.RESTR.norm>
0.414804

>  <SCORE.SYSTEM>
0

>  <SCORE.SYSTEM.CONST>
0

>  <SCORE.SYSTEM.DIHEDRAL>
0

>  <SCORE.SYSTEM.SOLV>
0

>  <SCORE.SYSTEM.norm>
0

>  <SCORE.heavy>
49

>  <SCORE.norm>
0.527648

>  <RMSD>
9.075

$$$$
2bee_lig
 OpenBabel11021811423D
libRbt.so/2013.1/901 2013/11/27
 49 52  0  0  0  0  0  0  0  0999 V2000
   41.9432    6.3763    0.2958 C   0  0  2  0  0  0  0  0  0  0  0  0
   43.0305    6.4759   -0.6152 O   0  0  0  0  0  0  0  0  0  0  0  0
   44.9091    3.1204   -2.7567 C   0  0  2  0  0  0  0  0  0  0  0  0
   45.0900    2.0253   -3.7480 N   0  0  0  0  0  0  0  0  0  0  0  0
   44.1737    7.3203   -4.2191 C   0  0  1  0  0  0  0  0  0  0  0  0
   42.3597    5.2524   -7.9748 C   0  0  1  0  0  0  0  0  0  0  0  0
   43.6129   10.4180  -11.9816 C   0  0  0  0  0  0  0  0  0  0  0  0
   40.5708    6.4703   -0.4765 C   0  0  2  0  0  0  0  0  0  0  0  0
   40.5217    5.4653   -1.5331 N   0  0  0  0  0  0  0  0  0  0  0  0
   43.5567    2.8794   -1.9437 C   0  0  0  0  0  0  0  0  0  0  0  0
   44.2752    7.1650   -5.7018 C   0  0  2  0  0  0  0  0  0  0  0  0
   44.8498    8.3482   -6.3652 O   0  0  0  0  0  0  0  0  0  0  0  0
   41.4213    3.9303   -7.9250 C   0  0  2  0  0  0  0  0  0  0  0  0
   41.7409    3.1788   -6.6656 N   0  0  0  0  0  0  0  0  0  0  0  0
   44.8371   10.6541  -12.6496 C   0  0  0  0  0  0  0  0  0  0  0  0
   45.0153   11.8278  -13.3784 N   0  0  0  0  0  0  0  0  0  0  0  0
   40.3947    7.9409   -1.0581 C   0  0  1  0  0  0  0  0  0  0  0  0
   39.1552    8.0172   -1.7472 O   0  0  0  0  0  0  0  0  0  0  0  0
   43.3147    4.0711   -0.8514 C   0  0  2  0  0  0  0  0  0  0  0  0
   42.1151    3.8602   -0.1146 N   0  0  0  0  0  0  0  0  0  0  0  0
   42.8442    6.7419   -5.9298 C   0  0  2  0  0  0  0  0  0  0  0  0
   42.0553    5.9770   -6.7590 O   0  0  0  0  0  0  0  0  0  0  0  0
   41.7314    3.0533   -9.1903 C   0  0  1  0  0  0  0  0  0  0  0  0
   41.3793    3.8510  -10.3741 O   0  0  0  0  0  0  0  0  0  0  0  0
   40.4506    8.9554    0.1076 C   0  0  2  0  0  0  0  0  0  0  0  0
   40.3054   10.3457   -0.3942 O   0  0  0  0  0  0  0  0  0  0  0  0
   43.2468    5.4657   -1.5872 C   0  0  2  0  0  0  0  0  0  0  0  0
   42.0369    7.6191   -4.8499 C   0  0  2  0  0  0  0  0  0  0  0  0
   42.8713    7.5875   -3.7837 O   0  0  0  0  0  0  0  0  0  0  0  0
   43.3125    2.6488   -9.1870 C   0  0  2  0  0  0  0  0  0  0  0  0
   43.6555    1.8486   -7.9898 O   0  0  0  0  0  0  0  0  0  0  0  0
   41.8138    8.8484    0.8694 C   0  0  2  0  0  0  0  0  0  0  0  0
   41.8909    7.4713    1.3189 O   0  0  0  0  0  0  0  0  0  0  0  0
   44.5909    5.6504   -2.3693 C   0  0  2  0  0  0  0  0  0  0  0  0
   44.4332    6.9179   -2.9597 O   0  0  0  0  0  0  0  0  0  0  0  0
   40.6517    7.0720   -4.3422 C   0  0  0  0  0  0  0  0  0  0  0  0
   40.7491    5.6288   -4.1255 O   0  0  0  0  0  0  0  0  0  0  0  0
   44.2136    3.9630   -9.1906 C   0  0  1  0  0  0  0  0  0  0  0  0
   43.8180    4.7729   -7.9736 O   0  0  0  0  0  0  0  0  0  0  0  0
   41.7685    9.8284    1.9708 C   0  0  0  0  0  0  0  0  0  0  0  0
   41.9481   11.0702    1.5006 O   0  0  0  0  0  0  0  0  0  0  0  0
   44.7845    4.4980   -3.4449 C   0  0  1  0  0  0  0  0  0  0  0  0
   45.9886    4.6684   -4.1285 O   0  0  0  0  0  0  0  0  0  0  0  0
   45.2666    8.4106   -7.7756 C   0  0  0  0  0  0  0  0  0  0  0  0
   45.6951    3.4553   -9.1657 C   0  0  0  0  0  0  0  0  0  0  0  0
   46.0563    2.8452   -7.9183 N   0  0  0  0  0  0  0  0  0  0  0  0
   44.0254    8.4040   -8.6692 C   0  0  0  0  0  0  0  0  0  0  0  0
   44.3373    9.2512   -9.8366 N   0  0  0  0  0  0  0  0  0  0  0  0
   43.4747    9.0978  -11.0912 C   0  0  0  0  0  0  0  0  0  0  0  0
  1  2  1  6  0  0  0
  1  8  1  0  0  0  0
  1 33  1  0  0  0  0
  3  4  1  6  0  0  0
  3 10  1  0  0  0  0
  3 42  1  0  0  0  0
  5 11  1  0  0  0  0
  5 29  1  0  0  0  0
  5 35  1  1  0  0  0
  6 13  1  0  0  0  0
  6 39  1  0  0  0  0
  6 22  1  1  0  0  0
  7 15  1  0  0  0  0
  8  9  1  6  0  0  0
  8 17  1  0  0  0  0
 10 19  1  0  0  0  0
 11 12  1  6  0  0  0
 11 21  1  0  0  0  0
 12 44  1  0  0  0  0
 13 14  1  1  0  0  0
 13 23  1  0  0  0  0
 15 16  1  0  0  0  0
 17 18  1  1  0  0  0
 17 25  1  0  0  0  0
 19 20  1  6  0  0  0
 19 27  1  0  0  0  0
 21 22  1  6  0  0  0
 21 28  1  0  0  0  0
 23 24  1  6  0  0  0
 23 30  1  0  0  0  0
 25 26  1  6  0  0  0
 25 32  1  0  0  0  0
 27  2  1  1  0  0  0
 27 34  1  0  0  0  0
 28 29  1  0  0  0  0
 28 36  1  1  0  0  0
 30 31  1  1  0  0  0
 30 38  1  0  0  0  0
 32 33  1  0  0  0  0
 32 40  1  1  0  0  0
 34 35  1  6  0  0  0
 34 42  1  0  0  0  0
 36 37  1  0  0  0  0
 38 39  1  0  0  0  0
 38 45  1  1  0  0  0
 40 41  1  0  0  0  0
 42 43  1  1  0  0  0
 44 47  1  0  0  0  0
 45 46  1  0  0  0  0
 47 48  1  0  0  0  0
 48 49  1  0  0  0  0
 49  7  1  0  0  0  0
M  END
>  <CHROM.1>
-65.45702221,-32.72842155,145.18520353,-176.73950709,169.85120669,71.34150495
-5.89426668,-53.42045770,41.09711155,-75.84100943,-105.19181803,-69.23729138
145.73312493,161.56788429,159.24673638,70.90397093,42.97546808,6.37033390
-4.85638284,-2.63984494,1.32506585,-0.58869261

>  <Name>
2bee_lig

>  <RI>
3.46266e+07

>  <Rbt.Current_Directory>
/home/itssahil/PROJECTS/Mol_Feturizer/New_Systems/rnas/2bee

>  <Rbt.Executable>
rbdock ($Id: //depot/dev/client3/rdock/2013.1/src/exe/rbdock.cxx#4 $)

>  <Rbt.Library>
libRbt.so (2013.1, Build901 2013/11/27)

>  <Rbt.Parameter_File>
/export/apps/rDock/src/rDock_2013.1_src/data/scripts/dock_solv.prm

>  <Rbt.Receptor>
prm/pocket_docking_4.prm

>  <SCORE>
-13.0312

>  <SCORE.INTER>
-13.465

>  <SCORE.INTER.CONST>
1

>  <SCORE.INTER.POLAR>
-1.71693

>  <SCORE.INTER.ROT>
16

>  <SCORE.INTER.SOLV>
11.771

>  <SCORE.INTER.VDW>
-21.4439

>  <SCORE.INTER.norm>
-0.274797

>  <SCORE.INTRA>
0.381512

>  <SCORE.INTRA.DIHEDRAL>
-11.1229

>  <SCORE.INTRA.DIHEDRAL.0>
36.0842

>  <SCORE.INTRA.POLAR>
0

>  <SCORE.INTRA.POLAR.0>
0

>  <SCORE.INTRA.REPUL>
0.00920534

>  <SCORE.INTRA.REPUL.0>
0

>  <SCORE.INTRA.SOLV>
7.22725

>  <SCORE.INTRA.SOLV.lig_0>
-126.444

>  <SCORE.INTRA.VDW>
2.28333

>  <SCORE.INTRA.VDW.0>
-7.40469

>  <SCORE.INTRA.norm>
0.00778595

>  <SCORE.RESTR>
0.0523646

>  <SCORE.RESTR.CAVITY>
0.0523646

>  <SCORE.RESTR.norm>
0.00106867

>  <SCORE.SYSTEM>
0

>  <SCORE.SYSTEM.CONST>
0

>  <SCORE.SYSTEM.DIHEDRAL>
0

>  <SCORE.SYSTEM.SOLV>
0

>  <SCORE.SYSTEM.norm>
0

>  <SCORE.heavy>
49

>  <SCORE.norm>
-0.265942

>  <RMSD>
9.093

$$$$
2bee_lig
 OpenBabel11021811423D
libRbt.so/2013.1/901 2013/11/27
 49 52  0  0  0  0  0  0  0  0999 V2000
   40.7341    7.4133   -1.3612 C   0  0  2  0  0  0  0  0  0  0  0  0
   40.6160    6.2640   -2.1902 O   0  0  0  0  0  0  0  0  0  0  0  0
   40.4355    3.0543    0.8164 C   0  0  2  0  0  0  0  0  0  0  0  0
   40.1650    1.7197    1.4168 N   0  0  0  0  0  0  0  0  0  0  0  0
   42.7227    3.5236   -3.1218 C   0  0  1  0  0  0  0  0  0  0  0  0
   40.1961    0.5268   -5.8879 C   0  0  1  0  0  0  0  0  0  0  0  0
   47.8240    4.5211   -6.6720 C   0  0  0  0  0  0  0  0  0  0  0  0
   41.5403    8.5461   -2.1067 C   0  0  2  0  0  0  0  0  0  0  0  0
   40.9207    8.8354   -3.3955 N   0  0  0  0  0  0  0  0  0  0  0  0
   39.0820    3.6463    0.2120 C   0  0  0  0  0  0  0  0  0  0  0  0
   42.7266    2.1640   -3.7415 C   0  0  2  0  0  0  0  0  0  0  0  0
   43.9680    1.8728   -4.4795 O   0  0  0  0  0  0  0  0  0  0  0  0
   38.7224   -0.1149   -5.6703 C   0  0  2  0  0  0  0  0  0  0  0  0
   38.6437   -0.6365   -4.2650 N   0  0  0  0  0  0  0  0  0  0  0  0
   48.1248    5.8205   -7.1429 C   0  0  0  0  0  0  0  0  0  0  0  0
   47.1154    6.7761   -7.2363 N   0  0  0  0  0  0  0  0  0  0  0  0
   43.0554    8.0895   -2.2743 C   0  0  1  0  0  0  0  0  0  0  0  0
   43.7738    9.1168   -2.9418 O   0  0  0  0  0  0  0  0  0  0  0  0
   39.3404    5.1090   -0.4701 C   0  0  2  0  0  0  0  0  0  0  0  0
   38.1368    5.6495   -1.0042 N   0  0  0  0  0  0  0  0  0  0  0  0
   41.3956    2.2895   -4.4425 C   0  0  2  0  0  0  0  0  0  0  0  0
   40.3170    1.5482   -4.8691 O   0  0  0  0  0  0  0  0  0  0  0  0
   38.5291   -1.2782   -6.7074 C   0  0  1  0  0  0  0  0  0  0  0  0
   38.6041   -0.6854   -8.0507 O   0  0  0  0  0  0  0  0  0  0  0  0
   43.6545    7.8037   -0.8776 C   0  0  2  0  0  0  0  0  0  0  0  0
   45.0669    7.3584   -0.9895 O   0  0  0  0  0  0  0  0  0  0  0  0
   40.4189    4.9822   -1.6155 C   0  0  2  0  0  0  0  0  0  0  0  0
   41.3747    3.8333   -4.8939 C   0  0  2  0  0  0  0  0  0  0  0  0
   41.9396    4.4448   -3.8257 O   0  0  0  0  0  0  0  0  0  0  0  0
   39.6942   -2.3980   -6.4790 C   0  0  2  0  0  0  0  0  0  0  0  0
   39.6103   -2.9856   -5.1229 O   0  0  0  0  0  0  0  0  0  0  0  0
   42.8429    6.6830   -0.1461 C   0  0  2  0  0  0  0  0  0  0  0  0
   41.4814    7.1797   -0.0824 O   0  0  0  0  0  0  0  0  0  0  0  0
   41.7209    4.3960   -0.9724 C   0  0  2  0  0  0  0  0  0  0  0  0
   42.6095    4.3485   -2.0624 O   0  0  0  0  0  0  0  0  0  0  0  0
   39.9756    4.5209   -5.1068 C   0  0  0  0  0  0  0  0  0  0  0  0
   40.1727    5.8714   -5.6329 O   0  0  0  0  0  0  0  0  0  0  0  0
   41.1325   -1.7348   -6.6534 C   0  0  1  0  0  0  0  0  0  0  0  0
   41.2173   -0.5962   -5.6584 O   0  0  0  0  0  0  0  0  0  0  0  0
   43.4665    6.4953    1.1773 C   0  0  0  0  0  0  0  0  0  0  0  0
   42.8035    5.5669    1.8801 O   0  0  0  0  0  0  0  0  0  0  0  0
   41.4485    2.9620   -0.3465 C   0  0  1  0  0  0  0  0  0  0  0  0
   42.6128    2.4545    0.2307 O   0  0  0  0  0  0  0  0  0  0  0  0
   44.4709    2.6418   -5.6295 C   0  0  0  0  0  0  0  0  0  0  0  0
   42.1600   -2.8879   -6.3932 C   0  0  0  0  0  0  0  0  0  0  0  0
   43.5216   -2.4357   -6.3988 N   0  0  0  0  0  0  0  0  0  0  0  0
   45.8972    2.1934   -5.9513 C   0  0  0  0  0  0  0  0  0  0  0  0
   46.7873    2.8964   -5.0069 N   0  0  0  0  0  0  0  0  0  0  0  0
   47.0866    4.3752   -5.2613 C   0  0  0  0  0  0  0  0  0  0  0  0
  1  2  1  6  0  0  0
  1  8  1  0  0  0  0
  1 33  1  0  0  0  0
  3  4  1  6  0  0  0
  3 10  1  0  0  0  0
  3 42  1  0  0  0  0
  5 11  1  0  0  0  0
  5 29  1  0  0  0  0
  5 35  1  1  0  0  0
  6 13  1  0  0  0  0
  6 39  1  0  0  0  0
  6 22  1  1  0  0  0
  7 15  1  0  0  0  0
  8  9  1  6  0  0  0
  8 17  1  0  0  0  0
 10 19  1  0  0  0  0
 11 12  1  6  0  0  0
 11 21  1  0  0  0  0
 12 44  1  0  0  0  0
 13 14  1  1  0  0  0
 13 23  1  0  0  0  0
 15 16  1  0  0  0  0
 17 18  1  1  0  0  0
 17 25  1  0  0  0  0
 19 20  1  6  0  0  0
 19 27  1  0  0  0  0
 21 22  1  6  0  0  0
 21 28  1  0  0  0  0
 23 24  1  6  0  0  0
 23 30  1  0  0  0  0
 25 26  1  6  0  0  0
 25 32  1  0  0  0  0
 27  2  1  1  0  0  0
 27 34  1  0  0  0  0
 28 29  1  0  0  0  0
 28 36  1  1  0  0  0
 30 31  1  1  0  0  0
 30 38  1  0  0  0  0
 32 33  1  0  0  0  0
 32 40  1  1  0  0  0
 34 35  1  6  0  0  0
 34 42  1  0  0  0  0
 36 37  1  0  0  0  0
 38 39  1  0  0  0  0
 38 45  1  1  0  0  0
 40 41  1  0  0  0  0
 42 43  1  1  0  0  0
 44 47  1  0  0  0  0
 45 46  1  0  0  0  0
 47 48  1  0  0  0  0
 48 49  1  0  0  0  0
 49  7  1  0  0  0  0
M  END
>  <CHROM.1>
155.41307007,-43.23387460,169.60282208,-53.87508705,-60.12517863,169.66541178
-66.56847934,43.74115167,-174.68719881,178.55862889,-75.88899562,-175.01698164
-81.08486018,-76.16433691,-61.60330865,176.38119269,42.05193687,3.51366715
-3.41643750,1.31896879,0.59311746,0.68876875

>  <Name>
2bee_lig

>  <RI>
2.18182e+07

>  <Rbt.Current_Directory>
/home/itssahil/PROJECTS/Mol_Feturizer/New_Systems/rnas/2bee

>  <Rbt.Executable>
rbdock ($Id: //depot/dev/client3/rdock/2013.1/src/exe/rbdock.cxx#4 $)

>  <Rbt.Library>
libRbt.so (2013.1, Build901 2013/11/27)

>  <Rbt.Parameter_File>
/export/apps/rDock/src/rDock_2013.1_src/data/scripts/dock_solv.prm

>  <Rbt.Receptor>
prm/pocket_docking_3.prm

>  <SCORE>
-2.00508

>  <SCORE.INTER>
3.31442

>  <SCORE.INTER.CONST>
1

>  <SCORE.INTER.POLAR>
-1.74318

>  <SCORE.INTER.ROT>
16

>  <SCORE.INTER.SOLV>
17.1077

>  <SCORE.INTER.VDW>
-11.949

>  <SCORE.INTER.norm>
0.0676413

>  <SCORE.INTRA>
-7.34357

>  <SCORE.INTRA.DIHEDRAL>
-21.1091

>  <SCORE.INTRA.DIHEDRAL.0>
36.0842

>  <SCORE.INTRA.POLAR>
0

>  <SCORE.INTRA.POLAR.0>
0

>  <SCORE.INTRA.REPUL>
0.0973924

>  <SCORE.INTRA.REPUL.0>
0

>  <SCORE.INTRA.SOLV>
-1.76201

>  <SCORE.INTRA.SOLV.lig_0>
-126.444

>  <SCORE.INTRA.VDW>
3.60504

>  <SCORE.INTRA.VDW.0>
-7.40469

>  <SCORE.INTRA.norm>
-0.149869

>  <SCORE.RESTR>
2.02407

>  <SCORE.RESTR.CAVITY>
2.02407

>  <SCORE.RESTR.norm>
0.0413075

>  <SCORE.SYSTEM>
0

>  <SCORE.SYSTEM.CONST>
0

>  <SCORE.SYSTEM.DIHEDRAL>
0

>  <SCORE.SYSTEM.SOLV>
0

>  <SCORE.SYSTEM.norm>
0

>  <SCORE.heavy>
49

>  <SCORE.norm>
-0.04092

>  <RMSD>
9.094

$$$$
2bee_lig
 OpenBabel11021811423D
libRbt.so/2013.1/901 2013/11/27
 49 52  0  0  0  0  0  0  0  0999 V2000
   41.2629    8.1837   -0.2283 C   0  0  2  0  0  0  0  0  0  0  0  0
   41.9108    6.9425    0.0207 O   0  0  0  0  0  0  0  0  0  0  0  0
   40.8115    2.7920    0.9893 C   0  0  2  0  0  0  0  0  0  0  0  0
   39.9855    1.5597    1.1079 N   0  0  0  0  0  0  0  0  0  0  0  0
   43.1205    5.1234   -2.7085 C   0  0  1  0  0  0  0  0  0  0  0  0
   45.2133    1.4334   -4.1108 C   0  0  1  0  0  0  0  0  0  0  0  0
   48.9595    6.0951   -6.9823 C   0  0  0  0  0  0  0  0  0  0  0  0
   41.5090    8.6411   -1.7180 C   0  0  2  0  0  0  0  0  0  0  0  0
   41.0950    7.5883   -2.6393 N   0  0  0  0  0  0  0  0  0  0  0  0
   40.0719    3.9973    1.7296 C   0  0  0  0  0  0  0  0  0  0  0  0
   44.5740    4.9509   -3.0091 C   0  0  2  0  0  0  0  0  0  0  0  0
   45.2553    6.2241   -3.3006 O   0  0  0  0  0  0  0  0  0  0  0  0
   46.2607    1.5666   -2.8795 C   0  0  2  0  0  0  0  0  0  0  0  0
   47.5177    2.1985   -3.4027 N   0  0  0  0  0  0  0  0  0  0  0  0
   49.5004    5.1785   -6.0506 C   0  0  0  0  0  0  0  0  0  0  0  0
   50.8807    5.0127   -5.9609 N   0  0  0  0  0  0  0  0  0  0  0  0
   43.0444    9.0142   -1.9064 C   0  0  1  0  0  0  0  0  0  0  0  0
   43.2552    9.4290   -3.2483 O   0  0  0  0  0  0  0  0  0  0  0  0
   40.9430    5.3752    1.6102 C   0  0  2  0  0  0  0  0  0  0  0  0
   40.2958    6.4545    2.2754 N   0  0  0  0  0  0  0  0  0  0  0  0
   44.4074    3.8794   -4.0594 C   0  0  2  0  0  0  0  0  0  0  0  0
   45.0371    2.7831   -4.6039 O   0  0  0  0  0  0  0  0  0  0  0  0
   46.5524    0.1294   -2.3178 C   0  0  1  0  0  0  0  0  0  0  0  0
   45.2813   -0.4113   -1.8142 O   0  0  0  0  0  0  0  0  0  0  0  0
   43.4182   10.1348   -0.9086 C   0  0  2  0  0  0  0  0  0  0  0  0
   44.8509   10.5035   -1.0404 O   0  0  0  0  0  0  0  0  0  0  0  0
   41.1586    5.7420    0.0903 C   0  0  2  0  0  0  0  0  0  0  0  0
   43.0534    4.3209   -4.8072 C   0  0  2  0  0  0  0  0  0  0  0  0
   42.2926    4.7560   -3.7748 O   0  0  0  0  0  0  0  0  0  0  0  0
   47.1683   -0.7971   -3.5119 C   0  0  2  0  0  0  0  0  0  0  0  0
   48.4459   -0.2418   -4.0125 O   0  0  0  0  0  0  0  0  0  0  0  0
   43.1642    9.6713    0.5647 C   0  0  2  0  0  0  0  0  0  0  0  0
   41.7576    9.3202    0.6155 O   0  0  0  0  0  0  0  0  0  0  0  0
   41.8818    4.5297   -0.5878 C   0  0  2  0  0  0  0  0  0  0  0  0
   42.0427    4.9688   -1.9149 O   0  0  0  0  0  0  0  0  0  0  0  0
   42.2145    3.2055   -5.5338 C   0  0  0  0  0  0  0  0  0  0  0  0
   41.7960    2.1992   -4.5582 O   0  0  0  0  0  0  0  0  0  0  0  0
   46.1417   -0.8764   -4.7280 C   0  0  1  0  0  0  0  0  0  0  0  0
   45.8753    0.5461   -5.1744 O   0  0  0  0  0  0  0  0  0  0  0  0
   43.5231   10.8036    1.4392 C   0  0  0  0  0  0  0  0  0  0  0  0
   44.8537   10.8910    1.5700 O   0  0  0  0  0  0  0  0  0  0  0  0
   40.9995    3.2131   -0.4852 C   0  0  1  0  0  0  0  0  0  0  0  0
   41.6577    2.1389   -1.0846 O   0  0  0  0  0  0  0  0  0  0  0  0
   44.8972    7.1473   -4.3898 C   0  0  0  0  0  0  0  0  0  0  0  0
   46.8426   -1.7647   -5.8109 C   0  0  0  0  0  0  0  0  0  0  0  0
   46.0540   -1.9251   -6.9987 N   0  0  0  0  0  0  0  0  0  0  0  0
   45.2576    6.5082   -5.7317 C   0  0  0  0  0  0  0  0  0  0  0  0
   46.7306    6.5116   -5.8224 N   0  0  0  0  0  0  0  0  0  0  0  0
   47.3723    6.1482   -7.1632 C   0  0  0  0  0  0  0  0  0  0  0  0
  1  2  1  1  0  0  0
  1  8  1  0  0  0  0
  1 33  1  0  0  0  0
  3  4  1  6  0  0  0
  3 10  1  0  0  0  0
  3 42  1  0  0  0  0
  5 11  1  0  0  0  0
  5 29  1  0  0  0  0
  5 35  1  1  0  0  0
  6 13  1  0  0  0  0
  6 39  1  0  0  0  0
  6 22  1  6  0  0  0
  7 15  1  0  0  0  0
  8  9  1  6  0  0  0
  8 17  1  0  0  0  0
 10 19  1  0  0  0  0
 11 12  1  6  0  0  0
 11 21  1  0  0  0  0
 12 44  1  0  0  0  0
 13 14  1  6  0  0  0
 13 23  1  0  0  0  0
 15 16  1  0  0  0  0
 17 18  1  6  0  0  0
 17 25  1  0  0  0  0
 19 20  1  1  0  0  0
 19 27  1  0  0  0  0
 21 22  1  6  0  0  0
 21 28  1  0  0  0  0
 23 24  1  6  0  0  0
 23 30  1  0  0  0  0
 25 26  1  1  0  0  0
 25 32  1  0  0  0  0
 27  2  1  1  0  0  0
 27 34  1  0  0  0  0
 28 29  1  0  0  0  0
 28 36  1  1  0  0  0
 30 31  1  6  0  0  0
 30 38  1  0  0  0  0
 32 33  1  0  0  0  0
 32 40  1  1  0  0  0
 34 35  1  6  0  0  0
 34 42  1  0  0  0  0
 36 37  1  0  0  0  0
 38 39  1  0  0  0  0
 38 45  1  6  0  0  0
 40 41  1  0  0  0  0
 42 43  1  6  0  0  0
 44 47  1  0  0  0  0
 45 46  1  0  0  0  0
 47 48  1  0  0  0  0
 48 49  1  0  0  0  0
 49  7  1  0  0  0  0
M  END
>  <CHROM.1>
-104.22977145,8.97954557,-70.32778659,173.74522668,-59.27036226,-69.63252235
75.76444303,-100.50327818,60.21190250,-77.73274132,122.75343413,-179.10049375
-71.22831909,-169.78082521,-175.07533218,59.86284656,44.09607621,4.74566458
-2.60087973,2.24509578,0.73132355,0.12714234

>  <Name>
2bee_lig

>  <RI>
0

>  <Rbt.Current_Directory>
/home/itssahil/PROJECTS/Mol_Feturizer/New_Systems/rnas/2bee

>  <Rbt.Executable>
rbdock ($Id: //depot/dev/client3/rdock/2013.1/src/exe/rbdock.cxx#4 $)

>  <Rbt.Library>
libRbt.so (2013.1, Build901 2013/11/27)

>  <Rbt.Parameter_File>
/export/apps/rDock/src/rDock_2013.1_src/data/scripts/dock_solv.prm

>  <Rbt.Receptor>
prm/pocket_docking_7.prm

>  <SCORE>
-11.6693

>  <SCORE.INTER>
-10.3965

>  <SCORE.INTER.CONST>
1

>  <SCORE.INTER.POLAR>
-1.49847

>  <SCORE.INTER.ROT>
16

>  <SCORE.INTER.SOLV>
16.6328

>  <SCORE.INTER.VDW>
-21.747

>  <SCORE.INTER.norm>
-0.212173

>  <SCORE.INTRA>
-1.27281

>  <SCORE.INTRA.DIHEDRAL>
-4.00426

>  <SCORE.INTRA.DIHEDRAL.0>
36.0842

>  <SCORE.INTRA.POLAR>
0

>  <SCORE.INTRA.POLAR.0>
0

>  <SCORE.INTRA.REPUL>
0

>  <SCORE.INTRA.REPUL.0>
0

>  <SCORE.INTRA.SOLV>
1.72252

>  <SCORE.INTRA.SOLV.lig_0>
-126.444

>  <SCORE.INTRA.VDW>
-0.131946

>  <SCORE.INTRA.VDW.0>
-7.40469

>  <SCORE.INTRA.norm>
-0.0259758

>  <SCORE.RESTR>
0

>  <SCORE.RESTR.CAVITY>
0

>  <SCORE.RESTR.norm>
0

>  <SCORE.SYSTEM>
0

>  <SCORE.SYSTEM.CONST>
0

>  <SCORE.SYSTEM.DIHEDRAL>
0

>  <SCORE.SYSTEM.SOLV>
0

>  <SCORE.SYSTEM.norm>
0

>  <SCORE.heavy>
49

>  <SCORE.norm>
-0.238149

>  <RMSD>
9.098

$$$$
2bee_lig
 OpenBabel11021811423D
libRbt.so/2013.1/901 2013/11/27
 49 52  0  0  0  0  0  0  0  0999 V2000
   46.1032    1.4937   -4.1575 C   0  0  2  0  0  0  0  0  0  0  0  0
   45.1091    0.8650   -4.9567 O   0  0  0  0  0  0  0  0  0  0  0  0
   43.2473    4.3525   -6.8920 C   0  0  2  0  0  0  0  0  0  0  0  0
   42.4536    5.1466   -7.8689 N   0  0  0  0  0  0  0  0  0  0  0  0
   41.3981    1.5973   -3.6168 C   0  0  1  0  0  0  0  0  0  0  0  0
   37.1999   -0.1319   -4.2580 C   0  0  1  0  0  0  0  0  0  0  0  0
   39.0931    5.3305    2.9222 C   0  0  0  0  0  0  0  0  0  0  0  0
   46.7213    0.4602   -3.1383 C   0  0  2  0  0  0  0  0  0  0  0  0
   47.2217   -0.7090   -3.8534 N   0  0  0  0  0  0  0  0  0  0  0  0
   44.3659    3.5217   -7.6707 C   0  0  0  0  0  0  0  0  0  0  0  0
   39.9589    1.9070   -3.3609 C   0  0  2  0  0  0  0  0  0  0  0  0
   39.7653    2.8739   -2.2664 O   0  0  0  0  0  0  0  0  0  0  0  0
   36.3658   -1.5158   -4.1160 C   0  0  2  0  0  0  0  0  0  0  0  0
   37.2389   -2.6381   -4.5967 N   0  0  0  0  0  0  0  0  0  0  0  0
   40.2802    5.6702    3.6123 C   0  0  0  0  0  0  0  0  0  0  0  0
   40.5908    7.0086    3.8425 N   0  0  0  0  0  0  0  0  0  0  0  0
   45.6199    0.0613   -2.0613 C   0  0  1  0  0  0  0  0  0  0  0  0
   46.1865   -0.8652   -1.1460 O   0  0  0  0  0  0  0  0  0  0  0  0
   45.2524    2.6240   -6.6316 C   0  0  2  0  0  0  0  0  0  0  0  0
   46.2591    1.8861   -7.3159 N   0  0  0  0  0  0  0  0  0  0  0  0
   39.4911    0.4760   -3.2499 C   0  0  2  0  0  0  0  0  0  0  0  0
   38.3974   -0.3307   -3.4691 O   0  0  0  0  0  0  0  0  0  0  0  0
   35.0678   -1.4055   -4.9932 C   0  0  1  0  0  0  0  0  0  0  0  0
   34.2646   -0.2997   -4.4513 O   0  0  0  0  0  0  0  0  0  0  0  0
   45.1353    1.3388   -1.3372 C   0  0  2  0  0  0  0  0  0  0  0  0
   44.0924    1.0126   -0.3313 O   0  0  0  0  0  0  0  0  0  0  0  0
   44.3110    1.6320   -5.8437 C   0  0  2  0  0  0  0  0  0  0  0  0
   40.7290   -0.2481   -2.5213 C   0  0  2  0  0  0  0  0  0  0  0  0
   41.7904    0.3544   -3.1082 O   0  0  0  0  0  0  0  0  0  0  0  0
   35.4923   -1.1351   -6.5457 C   0  0  2  0  0  0  0  0  0  0  0  0
   36.3024   -2.2533   -7.0793 O   0  0  0  0  0  0  0  0  0  0  0  0
   44.5300    2.3582   -2.3590 C   0  0  2  0  0  0  0  0  0  0  0  0
   45.5939    2.6207   -3.3096 O   0  0  0  0  0  0  0  0  0  0  0  0
   43.2340    2.4946   -5.1030 C   0  0  2  0  0  0  0  0  0  0  0  0
   42.4745    1.5241   -4.4239 O   0  0  0  0  0  0  0  0  0  0  0  0
   40.9177   -1.7935   -2.7490 C   0  0  0  0  0  0  0  0  0  0  0  0
   41.8007   -2.3328   -1.7151 O   0  0  0  0  0  0  0  0  0  0  0  0
   36.3483    0.2046   -6.6537 C   0  0  1  0  0  0  0  0  0  0  0  0
   37.5473    0.0370   -5.7438 O   0  0  0  0  0  0  0  0  0  0  0  0
   44.1192    3.5467   -1.5880 C   0  0  0  0  0  0  0  0  0  0  0  0
   43.5648    4.4605   -2.3960 O   0  0  0  0  0  0  0  0  0  0  0  0
   42.3670    3.3309   -6.1381 C   0  0  1  0  0  0  0  0  0  0  0  0
   41.4176    4.1013   -5.4663 O   0  0  0  0  0  0  0  0  0  0  0  0
   40.1540    2.6554   -0.8635 C   0  0  0  0  0  0  0  0  0  0  0  0
   36.7127    0.3479   -8.1702 C   0  0  0  0  0  0  0  0  0  0  0  0
   37.6151    1.4331   -8.4284 N   0  0  0  0  0  0  0  0  0  0  0  0
   39.6347    3.8134   -0.0100 C   0  0  0  0  0  0  0  0  0  0  0  0
   39.9356    3.4749    1.3946 N   0  0  0  0  0  0  0  0  0  0  0  0
   38.8902    3.8142    2.4591 C   0  0  0  0  0  0  0  0  0  0  0  0
  1  2  1  1  0  0  0
  1  8  1  0  0  0  0
  1 33  1  0  0  0  0
  3  4  1  6  0  0  0
  3 10  1  0  0  0  0
  3 42  1  0  0  0  0
  5 11  1  0  0  0  0
  5 29  1  0  0  0  0
  5 35  1  6  0  0  0
  6 13  1  0  0  0  0
  6 39  1  0  0  0  0
  6 22  1  1  0  0  0
  7 15  1  0  0  0  0
  8  9  1  6  0  0  0
  8 17  1  0  0  0  0
 10 19  1  0  0  0  0
 11 12  1  1  0  0  0
 11 21  1  0  0  0  0
 12 44  1  0  0  0  0
 13 14  1  6  0  0  0
 13 23  1  0  0  0  0
 15 16  1  0  0  0  0
 17 18  1  1  0  0  0
 17 25  1  0  0  0  0
 19 20  1  6  0  0  0
 19 27  1  0  0  0  0
 21 22  1  1  0  0  0
 21 28  1  0  0  0  0
 23 24  1  1  0  0  0
 23 30  1  0  0  0  0
 25 26  1  1  0  0  0
 25 32  1  0  0  0  0
 27  2  1  1  0  0  0
 27 34  1  0  0  0  0
 28 29  1  0  0  0  0
 28 36  1  6  0  0  0
 30 31  1  1  0  0  0
 30 38  1  0  0  0  0
 32 33  1  0  0  0  0
 32 40  1  1  0  0  0
 34 35  1  6  0  0  0
 34 42  1  0  0  0  0
 36 37  1  0  0  0  0
 38 39  1  0  0  0  0
 38 45  1  6  0  0  0
 40 41  1  0  0  0  0
 42 43  1  1  0  0  0
 44 47  1  0  0  0  0
 45 46  1  0  0  0  0
 47 48  1  0  0  0  0
 48 49  1  0  0  0  0
 49  7  1  0  0  0  0
M  END
>  <CHROM.1>
173.01896981,65.21380211,177.65473182,169.78026616,-62.61092835,-173.12995501
17.26863641,45.43558596,-162.58617742,-178.83910723,-179.47067054,-173.51481007
174.52324282,-140.57424193,-85.22312498,-66.21793876,41.26765572,1.49966912
-3.48302346,-0.47363575,-0.18574202,-1.96905399

>  <Name>
2bee_lig

>  <RI>
0

>  <Rbt.Current_Directory>
/home/itssahil/PROJECTS/Mol_Feturizer/New_Systems/rnas/2bee

>  <Rbt.Executable>
rbdock ($Id: //depot/dev/client3/rdock/2013.1/src/exe/rbdock.cxx#4 $)

>  <Rbt.Library>
libRbt.so (2013.1, Build901 2013/11/27)

>  <Rbt.Parameter_File>
/export/apps/rDock/src/rDock_2013.1_src/data/scripts/dock_solv.prm

>  <Rbt.Receptor>
prm/pocket_docking_5.prm

>  <SCORE>
-12.1955

>  <SCORE.INTER>
2.99585

>  <SCORE.INTER.CONST>
1

>  <SCORE.INTER.POLAR>
0

>  <SCORE.INTER.ROT>
16

>  <SCORE.INTER.SOLV>
11.4878

>  <SCORE.INTER.VDW>
-16.0987

>  <SCORE.INTER.norm>
0.0611398

>  <SCORE.INTRA>
-15.1914

>  <SCORE.INTRA.DIHEDRAL>
-27.1495

>  <SCORE.INTRA.DIHEDRAL.0>
36.0842

>  <SCORE.INTRA.POLAR>
0

>  <SCORE.INTRA.POLAR.0>
0

>  <SCORE.INTRA.REPUL>
0

>  <SCORE.INTRA.REPUL.0>
0

>  <SCORE.INTRA.SOLV>
-3.43938

>  <SCORE.INTRA.SOLV.lig_0>
-126.444

>  <SCORE.INTRA.VDW>
0.103048

>  <SCORE.INTRA.VDW.0>
-7.40469

>  <SCORE.INTRA.norm>
-0.310028

>  <SCORE.RESTR>
0

>  <SCORE.RESTR.CAVITY>
0

>  <SCORE.RESTR.norm>
0

>  <SCORE.SYSTEM>
0

>  <SCORE.SYSTEM.CONST>
0

>  <SCORE.SYSTEM.DIHEDRAL>
0

>  <SCORE.SYSTEM.SOLV>
0

>  <SCORE.SYSTEM.norm>
0

>  <SCORE.heavy>
49

>  <SCORE.norm>
-0.248888

>  <RMSD>
9.101

$$$$
2bee_lig
 OpenBabel11021811423D
libRbt.so/2013.1/901 2013/11/27
 49 52  0  0  0  0  0  0  0  0999 V2000
   46.9626    5.2850   -5.4333 C   0  0  2  0  0  0  0  0  0  0  0  0
   46.7555    6.6843   -5.2872 O   0  0  0  0  0  0  0  0  0  0  0  0
   42.4626    6.8313   -4.3263 C   0  0  2  0  0  0  0  0  0  0  0  0
   41.1670    7.3466   -3.8060 N   0  0  0  0  0  0  0  0  0  0  0  0
   44.7989    8.1032   -8.2945 C   0  0  1  0  0  0  0  0  0  0  0  0
   45.2394   11.1985  -11.9493 C   0  0  1  0  0  0  0  0  0  0  0  0
   41.7750    4.8557   -6.3654 C   0  0  0  0  0  0  0  0  0  0  0  0
   48.5017    4.9713   -5.5807 C   0  0  2  0  0  0  0  0  0  0  0  0
   49.2380    5.5412   -4.4574 N   0  0  0  0  0  0  0  0  0  0  0  0
   43.5354    6.8083   -3.1445 C   0  0  0  0  0  0  0  0  0  0  0  0
   44.0569    8.6176   -9.4850 C   0  0  2  0  0  0  0  0  0  0  0  0
   43.5933    7.5439  -10.3809 O   0  0  0  0  0  0  0  0  0  0  0  0
   45.7819   12.7266  -11.9920 C   0  0  2  0  0  0  0  0  0  0  0  0
   44.8772   13.5667  -11.1382 N   0  0  0  0  0  0  0  0  0  0  0  0
   40.6327    4.3435   -7.0238 C   0  0  0  0  0  0  0  0  0  0  0  0
   40.6091    3.0143   -7.4404 N   0  0  0  0  0  0  0  0  0  0  0  0
   49.0233    5.5403   -6.9722 C   0  0  1  0  0  0  0  0  0  0  0  0
   50.4076    5.2493   -7.0979 O   0  0  0  0  0  0  0  0  0  0  0  0
   44.9789    6.2597   -3.6800 C   0  0  2  0  0  0  0  0  0  0  0  0
   45.9403    6.2269   -2.6308 N   0  0  0  0  0  0  0  0  0  0  0  0
   45.0988    9.6204   -9.9182 C   0  0  2  0  0  0  0  0  0  0  0  0
   45.2426   10.8362  -10.5476 O   0  0  0  0  0  0  0  0  0  0  0  0
   45.7575   13.2206  -13.4825 C   0  0  1  0  0  0  0  0  0  0  0  0
   46.6749   12.3611  -14.2448 O   0  0  0  0  0  0  0  0  0  0  0  0
   48.2093    4.8962   -8.1184 C   0  0  2  0  0  0  0  0  0  0  0  0
   48.6545    5.4128   -9.4378 O   0  0  0  0  0  0  0  0  0  0  0  0
   45.5015    7.1819   -4.8494 C   0  0  2  0  0  0  0  0  0  0  0  0
   46.4797    8.8703   -9.5749 C   0  0  2  0  0  0  0  0  0  0  0  0
   46.1846    8.2646   -8.4001 O   0  0  0  0  0  0  0  0  0  0  0  0
   44.2315   13.1256  -14.0531 C   0  0  2  0  0  0  0  0  0  0  0  0
   43.3170   13.9928  -13.2766 O   0  0  0  0  0  0  0  0  0  0  0  0
   46.6842    5.2094   -7.9579 C   0  0  2  0  0  0  0  0  0  0  0  0
   46.3246    4.6891   -6.6524 O   0  0  0  0  0  0  0  0  0  0  0  0
   44.4148    7.1723   -5.9770 C   0  0  2  0  0  0  0  0  0  0  0  0
   44.9871    7.9951   -6.9647 O   0  0  0  0  0  0  0  0  0  0  0  0
   47.7531    9.7550   -9.3072 C   0  0  0  0  0  0  0  0  0  0  0  0
   47.3672   10.9456   -8.5501 O   0  0  0  0  0  0  0  0  0  0  0  0
   43.7046   11.6247  -13.9593 C   0  0  1  0  0  0  0  0  0  0  0  0
   43.8090   11.2101  -12.5065 O   0  0  0  0  0  0  0  0  0  0  0  0
   45.9885    4.5404   -9.0734 C   0  0  0  0  0  0  0  0  0  0  0  0
   44.9942    5.3109   -9.5348 O   0  0  0  0  0  0  0  0  0  0  0  0
   43.0329    7.7399   -5.4381 C   0  0  1  0  0  0  0  0  0  0  0  0
   42.0712    7.7181   -6.4485 O   0  0  0  0  0  0  0  0  0  0  0  0
   42.2378    6.9699  -10.3856 C   0  0  0  0  0  0  0  0  0  0  0  0
   42.2385   11.6601  -14.5094 C   0  0  0  0  0  0  0  0  0  0  0  0
   41.9043   10.5009  -15.2860 N   0  0  0  0  0  0  0  0  0  0  0  0
   42.2117    5.7307   -9.4897 C   0  0  0  0  0  0  0  0  0  0  0  0
   42.9559    6.0768   -8.2632 N   0  0  0  0  0  0  0  0  0  0  0  0
   43.1334    4.9943   -7.1964 C   0  0  0  0  0  0  0  0  0  0  0  0
  1  2  1  6  0  0  0
  1  8  1  0  0  0  0
  1 33  1  0  0  0  0
  3  4  1  1  0  0  0
  3 10  1  0  0  0  0
  3 42  1  0  0  0  0
  5 11  1  0  0  0  0
  5 29  1  0  0  0  0
  5 35  1  1  0  0  0
  6 13  1  0  0  0  0
  6 39  1  0  0  0  0
  6 22  1  1  0  0  0
  7 15  1  0  0  0  0
  8  9  1  1  0  0  0
  8 17  1  0  0  0  0
 10 19  1  0  0  0  0
 11 12  1  6  0  0  0
 11 21  1  0  0  0  0
 12 44  1  0  0  0  0
 13 14  1  1  0  0  0
 13 23  1  0  0  0  0
 15 16  1  0  0  0  0
 17 18  1  6  0  0  0
 17 25  1  0  0  0  0
 19 20  1  1  0  0  0
 19 27  1  0  0  0  0
 21 22  1  6  0  0  0
 21 28  1  0  0  0  0
 23 24  1  6  0  0  0
 23 30  1  0  0  0  0
 25 26  1  6  0  0  0
 25 32  1  0  0  0  0
 27  2  1  6  0  0  0
 27 34  1  0  0  0  0
 28 29  1  0  0  0  0
 28 36  1  1  0  0  0
 30 31  1  1  0  0  0
 30 38  1  0  0  0  0
 32 33  1  0  0  0  0
 32 40  1  6  0  0  0
 34 35  1  6  0  0  0
 34 42  1  0  0  0  0
 36 37  1  0  0  0  0
 38 39  1  0  0  0  0
 38 45  1  1  0  0  0
 40 41  1  0  0  0  0
 42 43  1  6  0  0  0
 44 47  1  0  0  0  0
 45 46  1  0  0  0  0
 47 48  1  0  0  0  0
 48 49  1  0  0  0  0
 49  7  1  0  0  0  0
M  END
>  <CHROM.1>
-166.14081708,82.52461111,-167.83693366,67.20241194,97.71211331,-93.69227937
-79.75334727,41.74248078,38.57083736,-141.45772309,157.21633138,142.28041068
43.69978267,-177.89381534,-78.21417823,67.62505636,44.94478515,7.93495929
-8.59849143,-1.48017496,-0.06577696,-0.85454492

>  <Name>
2bee_lig

>  <RI>
0

>  <Rbt.Current_Directory>
/home/itssahil/PROJECTS/Mol_Feturizer/New_Systems/rnas/2bee

>  <Rbt.Executable>
rbdock ($Id: //depot/dev/client3/rdock/2013.1/src/exe/rbdock.cxx#4 $)

>  <Rbt.Library>
libRbt.so (2013.1, Build901 2013/11/27)

>  <Rbt.Parameter_File>
/export/apps/rDock/src/rDock_2013.1_src/data/scripts/dock_solv.prm

>  <Rbt.Receptor>
prm/blind_docking_60.prm

>  <SCORE>
35.4019

>  <SCORE.INTER>
7.52553

>  <SCORE.INTER.CONST>
1

>  <SCORE.INTER.POLAR>
-1.11994

>  <SCORE.INTER.ROT>
16

>  <SCORE.INTER.SOLV>
33.1197

>  <SCORE.INTER.VDW>
-16.5564

>  <SCORE.INTER.norm>
0.153582

>  <SCORE.INTRA>
2.75207

>  <SCORE.INTRA.DIHEDRAL>
-4.04686

>  <SCORE.INTRA.DIHEDRAL.0>
36.0842

>  <SCORE.INTRA.POLAR>
0

>  <SCORE.INTRA.POLAR.0>
0

>  <SCORE.INTRA.REPUL>
0

>  <SCORE.INTRA.REPUL.0>
0

>  <SCORE.INTRA.SOLV>
6.30448

>  <SCORE.INTRA.SOLV.lig_0>
-126.444

>  <SCORE.INTRA.VDW>
1.62326

>  <SCORE.INTRA.VDW.0>
-7.40469

>  <SCORE.INTRA.norm>
0.0561647

>  <SCORE.RESTR>
25.1243

>  <SCORE.RESTR.CAVITY>
25.1243

>  <SCORE.RESTR.norm>
0.51274

>  <SCORE.SYSTEM>
0

>  <SCORE.SYSTEM.CONST>
0

>  <SCORE.SYSTEM.DIHEDRAL>
0

>  <SCORE.SYSTEM.SOLV>
0

>  <SCORE.SYSTEM.norm>
0

>  <SCORE.heavy>
49

>  <SCORE.norm>
0.722487

>  <RMSD>
9.122

$$$$
2bee_lig
 OpenBabel11021811423D
libRbt.so/2013.1/901 2013/11/27
 49 52  0  0  0  0  0  0  0  0999 V2000
   41.6042   -0.9837   -3.1210 C   0  0  2  0  0  0  0  0  0  0  0  0
   42.1908    0.2718   -2.8019 O   0  0  0  0  0  0  0  0  0  0  0  0
   46.3007    1.7979   -3.1936 C   0  0  2  0  0  0  0  0  0  0  0  0
   47.6063    2.1429   -3.8190 N   0  0  0  0  0  0  0  0  0  0  0  0
   42.2811    4.1114   -3.8688 C   0  0  1  0  0  0  0  0  0  0  0  0
   43.2482    6.5222   -7.5335 C   0  0  1  0  0  0  0  0  0  0  0  0
   38.1813    9.2041    0.4127 C   0  0  0  0  0  0  0  0  0  0  0  0
   40.8622   -0.9043   -4.5110 C   0  0  2  0  0  0  0  0  0  0  0  0
   41.7787   -0.4264   -5.5406 N   0  0  0  0  0  0  0  0  0  0  0  0
   46.0155    0.2398   -3.3906 C   0  0  0  0  0  0  0  0  0  0  0  0
   42.5826    5.5611   -4.0691 C   0  0  2  0  0  0  0  0  0  0  0  0
   42.1153    6.4042   -2.9551 O   0  0  0  0  0  0  0  0  0  0  0  0
   44.5083    6.8496   -6.5660 C   0  0  2  0  0  0  0  0  0  0  0  0
   44.1740    8.0726   -5.7626 N   0  0  0  0  0  0  0  0  0  0  0  0
   38.0007   10.0441    1.5363 C   0  0  0  0  0  0  0  0  0  0  0  0
   39.1042   10.4530    2.2819 N   0  0  0  0  0  0  0  0  0  0  0  0
   39.5899    0.0416   -4.3743 C   0  0  1  0  0  0  0  0  0  0  0  0
   38.9261    0.1032   -5.6284 O   0  0  0  0  0  0  0  0  0  0  0  0
   44.5809   -0.1772   -2.7275 C   0  0  2  0  0  0  0  0  0  0  0  0
   44.3216   -1.5674   -2.8901 N   0  0  0  0  0  0  0  0  0  0  0  0
   41.9899    5.6715   -5.4531 C   0  0  2  0  0  0  0  0  0  0  0  0
   42.1208    6.3548   -6.6409 O   0  0  0  0  0  0  0  0  0  0  0  0
   45.7716    7.1018   -7.4642 C   0  0  1  0  0  0  0  0  0  0  0  0
   46.0401    5.8593   -8.2028 O   0  0  0  0  0  0  0  0  0  0  0  0
   38.6587   -0.5198   -3.2748 C   0  0  2  0  0  0  0  0  0  0  0  0
   37.4627    0.3441   -3.1033 O   0  0  0  0  0  0  0  0  0  0  0  0
   43.4203    0.6601   -3.3931 C   0  0  2  0  0  0  0  0  0  0  0  0
   40.7161    4.6924   -5.3743 C   0  0  2  0  0  0  0  0  0  0  0  0
   41.1975    3.6659   -4.6335 O   0  0  0  0  0  0  0  0  0  0  0  0
   45.4703    8.3480   -8.4740 C   0  0  2  0  0  0  0  0  0  0  0  0
   45.1991    9.5922   -7.7193 O   0  0  0  0  0  0  0  0  0  0  0  0
   39.4076   -0.5993   -1.9028 C   0  0  2  0  0  0  0  0  0  0  0  0
   40.5609   -1.4445   -2.1477 O   0  0  0  0  0  0  0  0  0  0  0  0
   43.7494    2.1756   -3.1751 C   0  0  2  0  0  0  0  0  0  0  0  0
   42.6534    2.8197   -3.7785 O   0  0  0  0  0  0  0  0  0  0  0  0
   40.1881    4.0594   -6.7145 C   0  0  0  0  0  0  0  0  0  0  0  0
   41.2886    3.3798   -7.3976 O   0  0  0  0  0  0  0  0  0  0  0  0
   44.2022    8.0221   -9.3822 C   0  0  1  0  0  0  0  0  0  0  0  0
   43.0472    7.7420   -8.4436 O   0  0  0  0  0  0  0  0  0  0  0  0
   38.4570   -1.1640   -0.9265 C   0  0  0  0  0  0  0  0  0  0  0  0
   38.1494   -2.4276   -1.2492 O   0  0  0  0  0  0  0  0  0  0  0  0
   45.1315    2.5597   -3.8566 C   0  0  1  0  0  0  0  0  0  0  0  0
   45.4178    3.9092   -3.6482 O   0  0  0  0  0  0  0  0  0  0  0  0
   40.7064    6.6129   -2.5830 C   0  0  0  0  0  0  0  0  0  0  0  0
   43.9985    9.2850  -10.2861 C   0  0  0  0  0  0  0  0  0  0  0  0
   45.1528    9.5972  -11.0791 N   0  0  0  0  0  0  0  0  0  0  0  0
   40.6420    7.3510   -1.2451 C   0  0  0  0  0  0  0  0  0  0  0  0
   39.2599    7.2096   -0.7474 N   0  0  0  0  0  0  0  0  0  0  0  0
   38.9212    7.8028    0.6218 C   0  0  0  0  0  0  0  0  0  0  0  0
  1  2  1  1  0  0  0
  1  8  1  0  0  0  0
  1 33  1  0  0  0  0
  3  4  1  6  0  0  0
  3 10  1  0  0  0  0
  3 42  1  0  0  0  0
  5 11  1  0  0  0  0
  5 29  1  0  0  0  0
  5 35  1  6  0  0  0
  6 13  1  0  0  0  0
  6 39  1  0  0  0  0
  6 22  1  1  0  0  0
  7 15  1  0  0  0  0
  8  9  1  6  0  0  0
  8 17  1  0  0  0  0
 10 19  1  0  0  0  0
 11 12  1  1  0  0  0
 11 21  1  0  0  0  0
 12 44  1  0  0  0  0
 13 14  1  6  0  0  0
 13 23  1  0  0  0  0
 15 16  1  0  0  0  0
 17 18  1  6  0  0  0
 17 25  1  0  0  0  0
 19 20  1  6  0  0  0
 19 27  1  0  0  0  0
 21 22  1  1  0  0  0
 21 28  1  0  0  0  0
 23 24  1  6  0  0  0
 23 30  1  0  0  0  0
 25 26  1  1  0  0  0
 25 32  1  0  0  0  0
 27  2  1  1  0  0  0
 27 34  1  0  0  0  0
 28 29  1  0  0  0  0
 28 36  1  6  0  0  0
 30 31  1  1  0  0  0
 30 38  1  0  0  0  0
 32 33  1  0  0  0  0
 32 40  1  1  0  0  0
 34 35  1  6  0  0  0
 34 42  1  0  0  0  0
 36 37  1  0  0  0  0
 38 39  1  0  0  0  0
 38 45  1  6  0  0  0
 40 41  1  0  0  0  0
 42 43  1  1  0  0  0
 44 47  1  0  0  0  0
 45 46  1  0  0  0  0
 47 48  1  0  0  0  0
 48 49  1  0  0  0  0
 49  7  1  0  0  0  0
M  END
>  <CHROM.1>
-79.39011411,40.91068915,-44.70362151,56.89542230,-65.34480160,170.47600533
56.04927063,-73.65012213,53.82868752,65.27039593,175.34972929,57.70867218
-164.94483511,177.19033225,100.50341044,-168.33455336,42.15241406,4.00338519
-4.29852969,-2.12953437,0.86241469,-0.07161423

>  <Name>
2bee_lig

>  <RI>
3.46266e+07

>  <Rbt.Current_Directory>
/home/itssahil/PROJECTS/Mol_Feturizer/New_Systems/rnas/2bee

>  <Rbt.Executable>
rbdock ($Id: //depot/dev/client3/rdock/2013.1/src/exe/rbdock.cxx#4 $)

>  <Rbt.Library>
libRbt.so (2013.1, Build901 2013/11/27)

>  <Rbt.Parameter_File>
/export/apps/rDock/src/rDock_2013.1_src/data/scripts/dock_solv.prm

>  <Rbt.Receptor>
prm/pocket_docking_4.prm

>  <SCORE>
-15.0606

>  <SCORE.INTER>
-6.79975

>  <SCORE.INTER.CONST>
1

>  <SCORE.INTER.POLAR>
-1.38974

>  <SCORE.INTER.ROT>
16

>  <SCORE.INTER.SOLV>
17.2424

>  <SCORE.INTER.VDW>
-19.9148

>  <SCORE.INTER.norm>
-0.13877

>  <SCORE.INTRA>
-8.26082

>  <SCORE.INTRA.DIHEDRAL>
-22.0688

>  <SCORE.INTRA.DIHEDRAL.0>
36.0842

>  <SCORE.INTRA.POLAR>
0

>  <SCORE.INTRA.POLAR.0>
0

>  <SCORE.INTRA.REPUL>
0

>  <SCORE.INTRA.REPUL.0>
0

>  <SCORE.INTRA.SOLV>
1.46093

>  <SCORE.INTRA.SOLV.lig_0>
-126.444

>  <SCORE.INTRA.VDW>
2.04311

>  <SCORE.INTRA.VDW.0>
-7.40469

>  <SCORE.INTRA.norm>
-0.168588

>  <SCORE.RESTR>
0

>  <SCORE.RESTR.CAVITY>
0

>  <SCORE.RESTR.norm>
0

>  <SCORE.SYSTEM>
0

>  <SCORE.SYSTEM.CONST>
0

>  <SCORE.SYSTEM.DIHEDRAL>
0

>  <SCORE.SYSTEM.SOLV>
0

>  <SCORE.SYSTEM.norm>
0

>  <SCORE.heavy>
49

>  <SCORE.norm>
-0.307358

>  <RMSD>
9.123

$$$$
2bee_lig
 OpenBabel11021811423D
libRbt.so/2013.1/901 2013/11/27
 49 52  0  0  0  0  0  0  0  0999 V2000
   41.8421    5.7065    0.7366 C   0  0  2  0  0  0  0  0  0  0  0  0
   42.6576    5.9188   -0.4089 O   0  0  0  0  0  0  0  0  0  0  0  0
   42.9366   10.3114   -0.4472 C   0  0  2  0  0  0  0  0  0  0  0  0
   43.4409   11.6738   -0.7703 N   0  0  0  0  0  0  0  0  0  0  0  0
   42.1832    7.0094   -3.6083 C   0  0  1  0  0  0  0  0  0  0  0  0
   42.4696    2.9894   -5.9016 C   0  0  1  0  0  0  0  0  0  0  0  0
   46.9354    9.5763   -8.2805 C   0  0  0  0  0  0  0  0  0  0  0  0
   41.0752    4.3330    0.6162 C   0  0  2  0  0  0  0  0  0  0  0  0
   42.0240    3.2492    0.3845 N   0  0  0  0  0  0  0  0  0  0  0  0
   44.1149    9.4516    0.2012 C   0  0  0  0  0  0  0  0  0  0  0  0
   43.1008    6.1113   -4.3724 C   0  0  2  0  0  0  0  0  0  0  0  0
   44.2166    6.8349   -5.0061 O   0  0  0  0  0  0  0  0  0  0  0  0
   41.8218    2.0236   -4.7709 C   0  0  2  0  0  0  0  0  0  0  0  0
   41.9484    2.7107   -3.4424 N   0  0  0  0  0  0  0  0  0  0  0  0
   46.7583   10.7023   -9.1182 C   0  0  0  0  0  0  0  0  0  0  0  0
   45.4880   11.0219   -9.5924 N   0  0  0  0  0  0  0  0  0  0  0  0
   40.0011    4.4315   -0.5536 C   0  0  1  0  0  0  0  0  0  0  0  0
   39.3130    3.1929   -0.6513 O   0  0  0  0  0  0  0  0  0  0  0  0
   43.6035    7.9409    0.5588 C   0  0  2  0  0  0  0  0  0  0  0  0
   44.6452    7.1687    1.1461 N   0  0  0  0  0  0  0  0  0  0  0  0
   42.0319    5.4256   -5.1885 C   0  0  2  0  0  0  0  0  0  0  0  0
   41.7323    4.2314   -5.8043 O   0  0  0  0  0  0  0  0  0  0  0  0
   42.6064    0.6632   -4.7709 C   0  0  1  0  0  0  0  0  0  0  0  0
   42.4208    0.0495   -6.0940 O   0  0  0  0  0  0  0  0  0  0  0  0
   39.0254    5.5915   -0.2474 C   0  0  2  0  0  0  0  0  0  0  0  0
   38.0127    5.7288   -1.3252 O   0  0  0  0  0  0  0  0  0  0  0  0
   43.0877    7.2265   -0.7507 C   0  0  2  0  0  0  0  0  0  0  0  0
   40.9793    6.6102   -5.4642 C   0  0  2  0  0  0  0  0  0  0  0  0
   40.9850    7.2705   -4.2818 O   0  0  0  0  0  0  0  0  0  0  0  0
   44.1817    0.9538   -4.4591 C   0  0  2  0  0  0  0  0  0  0  0  0
   44.3558    1.5736   -3.1261 O   0  0  0  0  0  0  0  0  0  0  0  0
   39.7984    6.9469   -0.1245 C   0  0  2  0  0  0  0  0  0  0  0  0
   40.7697    6.7361    0.9321 O   0  0  0  0  0  0  0  0  0  0  0  0
   41.9396    8.1093   -1.3466 C   0  0  2  0  0  0  0  0  0  0  0  0
   41.5435    7.3767   -2.4807 O   0  0  0  0  0  0  0  0  0  0  0  0
   39.4815    6.2164   -5.7422 C   0  0  0  0  0  0  0  0  0  0  0  0
   39.4106    5.3992   -6.9532 O   0  0  0  0  0  0  0  0  0  0  0  0
   44.7841    1.9397   -5.5565 C   0  0  1  0  0  0  0  0  0  0  0  0
   43.9436    3.1992   -5.5274 O   0  0  0  0  0  0  0  0  0  0  0  0
   38.7984    7.9847    0.1897 C   0  0  0  0  0  0  0  0  0  0  0  0
   38.4848    7.9540    1.4920 O   0  0  0  0  0  0  0  0  0  0  0  0
   42.4718    9.5597   -1.7144 C   0  0  1  0  0  0  0  0  0  0  0  0
   41.4386   10.3389   -2.2356 O   0  0  0  0  0  0  0  0  0  0  0  0
   45.0219    6.3334   -6.1317 C   0  0  0  0  0  0  0  0  0  0  0  0
   46.2794    2.1603   -5.1460 C   0  0  0  0  0  0  0  0  0  0  0  0
   46.4204    2.8762   -3.9105 N   0  0  0  0  0  0  0  0  0  0  0  0
   46.2535    7.2231   -6.3066 C   0  0  0  0  0  0  0  0  0  0  0  0
   46.6651    7.1067   -7.7191 N   0  0  0  0  0  0  0  0  0  0  0  0
   46.2269    8.2037   -8.6916 C   0  0  0  0  0  0  0  0  0  0  0  0
  1  2  1  6  0  0  0
  1  8  1  0  0  0  0
  1 33  1  0  0  0  0
  3  4  1  6  0  0  0
  3 10  1  0  0  0  0
  3 42  1  0  0  0  0
  5 11  1  0  0  0  0
  5 29  1  0  0  0  0
  5 35  1  1  0  0  0
  6 13  1  0  0  0  0
  6 39  1  0  0  0  0
  6 22  1  1  0  0  0
  7 15  1  0  0  0  0
  8  9  1  6  0  0  0
  8 17  1  0  0  0  0
 10 19  1  0  0  0  0
 11 12  1  6  0  0  0
 11 21  1  0  0  0  0
 12 44  1  0  0  0  0
 13 14  1  1  0  0  0
 13 23  1  0  0  0  0
 15 16  1  0  0  0  0
 17 18  1  1  0  0  0
 17 25  1  0  0  0  0
 19 20  1  6  0  0  0
 19 27  1  0  0  0  0
 21 22  1  6  0  0  0
 21 28  1  0  0  0  0
 23 24  1  6  0  0  0
 23 30  1  0  0  0  0
 25 26  1  6  0  0  0
 25 32  1  0  0  0  0
 27  2  1  1  0  0  0
 27 34  1  0  0  0  0
 28 29  1  0  0  0  0
 28 36  1  1  0  0  0
 30 31  1  1  0  0  0
 30 38  1  0  0  0  0
 32 33  1  0  0  0  0
 32 40  1  1  0  0  0
 34 35  1  6  0  0  0
 34 42  1  0  0  0  0
 36 37  1  0  0  0  0
 38 39  1  0  0  0  0
 38 45  1  1  0  0  0
 40 41  1  0  0  0  0
 42 43  1  1  0  0  0
 44 47  1  0  0  0  0
 45 46  1  0  0  0  0
 47 48  1  0  0  0  0
 48 49  1  0  0  0  0
 49  7  1  0  0  0  0
M  END
>  <CHROM.1>
159.14285727,81.44830607,99.46105537,45.77658591,-159.96147056,-168.01016999
0.09694909,45.53214916,-61.80522602,79.65402812,-62.12327640,-66.66554706
-154.53804788,98.38318728,65.65416130,174.70607144,42.61172121,5.97814021
-3.31010231,2.81006371,0.98200249,0.29487231

>  <Name>
2bee_lig

>  <RI>
2.18182e+07

>  <Rbt.Current_Directory>
/home/itssahil/PROJECTS/Mol_Feturizer/New_Systems/rnas/2bee

>  <Rbt.Executable>
rbdock ($Id: //depot/dev/client3/rdock/2013.1/src/exe/rbdock.cxx#4 $)

>  <Rbt.Library>
libRbt.so (2013.1, Build901 2013/11/27)

>  <Rbt.Parameter_File>
/export/apps/rDock/src/rDock_2013.1_src/data/scripts/dock_solv.prm

>  <Rbt.Receptor>
prm/pocket_docking_3.prm

>  <SCORE>
-2.82717

>  <SCORE.INTER>
-1.73637

>  <SCORE.INTER.CONST>
1

>  <SCORE.INTER.POLAR>
-0.710053

>  <SCORE.INTER.ROT>
16

>  <SCORE.INTER.SOLV>
22.6829

>  <SCORE.INTER.VDW>
-20.6184

>  <SCORE.INTER.norm>
-0.0354361

>  <SCORE.INTRA>
-3.62324

>  <SCORE.INTRA.DIHEDRAL>
-14.9339

>  <SCORE.INTRA.DIHEDRAL.0>
36.0842

>  <SCORE.INTRA.POLAR>
0

>  <SCORE.INTRA.POLAR.0>
0

>  <SCORE.INTRA.REPUL>
0

>  <SCORE.INTRA.REPUL.0>
0

>  <SCORE.INTRA.SOLV>
1.26405

>  <SCORE.INTRA.SOLV.lig_0>
-126.444

>  <SCORE.INTRA.VDW>
3.21171

>  <SCORE.INTRA.VDW.0>
-7.40469

>  <SCORE.INTRA.norm>
-0.0739436

>  <SCORE.RESTR>
2.53244

>  <SCORE.RESTR.CAVITY>
2.53244

>  <SCORE.RESTR.norm>
0.0516824

>  <SCORE.SYSTEM>
0

>  <SCORE.SYSTEM.CONST>
0

>  <SCORE.SYSTEM.DIHEDRAL>
0

>  <SCORE.SYSTEM.SOLV>
0

>  <SCORE.SYSTEM.norm>
0

>  <SCORE.heavy>
49

>  <SCORE.norm>
-0.0576973

>  <RMSD>
9.128

$$$$
2bee_lig
 OpenBabel11021811423D
libRbt.so/2013.1/901 2013/11/27
 49 52  0  0  0  0  0  0  0  0999 V2000
   41.0084    5.0991    1.0208 C   0  0  2  0  0  0  0  0  0  0  0  0
   40.2470    5.9323    0.1558 O   0  0  0  0  0  0  0  0  0  0  0  0
   38.0941    9.6973    0.9066 C   0  0  2  0  0  0  0  0  0  0  0  0
   37.8504   11.1049    1.3239 N   0  0  0  0  0  0  0  0  0  0  0  0
   40.5109    7.0736   -2.6772 C   0  0  1  0  0  0  0  0  0  0  0  0
   43.5539    7.3001   -6.2502 C   0  0  1  0  0  0  0  0  0  0  0  0
   40.1498   -0.1758   -6.0682 C   0  0  0  0  0  0  0  0  0  0  0  0
   42.4173    5.7486    1.3071 C   0  0  2  0  0  0  0  0  0  0  0  0
   42.2480    7.1022    1.8246 N   0  0  0  0  0  0  0  0  0  0  0  0
   38.7072    8.8808    2.1335 C   0  0  0  0  0  0  0  0  0  0  0  0
   40.2481    6.5272   -4.0429 C   0  0  2  0  0  0  0  0  0  0  0  0
   39.7857    5.1287   -4.0227 O   0  0  0  0  0  0  0  0  0  0  0  0
   43.5256    7.8232   -7.7852 C   0  0  2  0  0  0  0  0  0  0  0  0
   42.6564    6.8921   -8.5794 N   0  0  0  0  0  0  0  0  0  0  0  0
   41.1556   -0.0049   -5.0886 C   0  0  0  0  0  0  0  0  0  0  0  0
   42.4264   -0.5358   -5.2982 N   0  0  0  0  0  0  0  0  0  0  0  0
   43.2830    5.7359   -0.0280 C   0  0  1  0  0  0  0  0  0  0  0  0
   44.5504    6.3179    0.2405 O   0  0  0  0  0  0  0  0  0  0  0  0
   39.0021    7.3298    1.7105 C   0  0  2  0  0  0  0  0  0  0  0  0
   39.5409    6.5907    2.8013 N   0  0  0  0  0  0  0  0  0  0  0  0
   41.5770    6.9168   -4.6438 C   0  0  2  0  0  0  0  0  0  0  0  0
   42.1679    7.2822   -5.8322 O   0  0  0  0  0  0  0  0  0  0  0  0
   44.9955    7.8200   -8.3382 C   0  0  1  0  0  0  0  0  0  0  0  0
   45.7738    8.7624   -7.5211 O   0  0  0  0  0  0  0  0  0  0  0  0
   43.4297    4.2776   -0.5211 C   0  0  2  0  0  0  0  0  0  0  0  0
   44.2202    4.2215   -1.7773 O   0  0  0  0  0  0  0  0  0  0  0  0
   40.0072    7.2887    0.4943 C   0  0  2  0  0  0  0  0  0  0  0  0
   42.5988    6.6984   -3.4208 C   0  0  2  0  0  0  0  0  0  0  0  0
   41.8734    7.1431   -2.3672 O   0  0  0  0  0  0  0  0  0  0  0  0
   45.5983    6.3061   -8.2472 C   0  0  2  0  0  0  0  0  0  0  0  0
   44.8053    5.3662   -9.0714 O   0  0  0  0  0  0  0  0  0  0  0  0
   42.0258    3.6425   -0.7959 C   0  0  2  0  0  0  0  0  0  0  0  0
   41.3114    3.7407    0.4628 O   0  0  0  0  0  0  0  0  0  0  0  0
   39.3616    8.1039   -0.6767 C   0  0  2  0  0  0  0  0  0  0  0  0
   40.3181    7.9827   -1.7016 O   0  0  0  0  0  0  0  0  0  0  0  0
   43.9350    7.5293   -3.4184 C   0  0  0  0  0  0  0  0  0  0  0  0
   44.8724    6.9394   -2.4630 O   0  0  0  0  0  0  0  0  0  0  0  0
   45.5742    5.7972   -6.7374 C   0  0  1  0  0  0  0  0  0  0  0  0
   44.1372    5.8802   -6.2664 O   0  0  0  0  0  0  0  0  0  0  0  0
   42.2609    2.2544   -1.2359 C   0  0  0  0  0  0  0  0  0  0  0  0
   41.1323    1.7191   -1.7206 O   0  0  0  0  0  0  0  0  0  0  0  0
   39.1161    9.6136   -0.2490 C   0  0  1  0  0  0  0  0  0  0  0  0
   38.5330   10.3269   -1.2967 O   0  0  0  0  0  0  0  0  0  0  0  0
   39.5444    4.2982   -5.2140 C   0  0  0  0  0  0  0  0  0  0  0  0
   46.1500    4.3412   -6.7767 C   0  0  0  0  0  0  0  0  0  0  0  0
   47.5449    4.3002   -7.1103 N   0  0  0  0  0  0  0  0  0  0  0  0
   39.3472    2.8439   -4.7835 C   0  0  0  0  0  0  0  0  0  0  0  0
   38.9829    2.0870   -5.9969 N   0  0  0  0  0  0  0  0  0  0  0  0
   38.7556    0.5794   -5.8665 C   0  0  0  0  0  0  0  0  0  0  0  0
  1  2  1  6  0  0  0
  1  8  1  0  0  0  0
  1 33  1  0  0  0  0
  3  4  1  1  0  0  0
  3 10  1  0  0  0  0
  3 42  1  0  0  0  0
  5 11  1  0  0  0  0
  5 29  1  0  0  0  0
  5 35  1  6  0  0  0
  6 13  1  0  0  0  0
  6 39  1  0  0  0  0
  6 22  1  6  0  0  0
  7 15  1  0  0  0  0
  8  9  1  6  0  0  0
  8 17  1  0  0  0  0
 10 19  1  0  0  0  0
 11 12  1  1  0  0  0
 11 21  1  0  0  0  0
 12 44  1  0  0  0  0
 13 14  1  6  0  0  0
 13 23  1  0  0  0  0
 15 16  1  0  0  0  0
 17 18  1  1  0  0  0
 17 25  1  0  0  0  0
 19 20  1  1  0  0  0
 19 27  1  0  0  0  0
 21 22  1  6  0  0  0
 21 28  1  0  0  0  0
 23 24  1  1  0  0  0
 23 30  1  0  0  0  0
 25 26  1  6  0  0  0
 25 32  1  0  0  0  0
 27  2  1  6  0  0  0
 27 34  1  0  0  0  0
 28 29  1  0  0  0  0
 28 36  1  6  0  0  0
 30 31  1  6  0  0  0
 30 38  1  0  0  0  0
 32 33  1  0  0  0  0
 32 40  1  1  0  0  0
 34 35  1  6  0  0  0
 34 42  1  0  0  0  0
 36 37  1  0  0  0  0
 38 39  1  0  0  0  0
 38 45  1  6  0  0  0
 40 41  1  0  0  0  0
 42 43  1  6  0  0  0
 44 47  1  0  0  0  0
 45 46  1  0  0  0  0
 47 48  1  0  0  0  0
 48 49  1  0  0  0  0
 49  7  1  0  0  0  0
M  END
>  <CHROM.1>
-55.19628709,85.73549940,179.20898890,-173.48280364,-175.24469885,168.81709957
-162.18419995,-70.55189914,-164.47273818,-168.84120986,88.49224125,68.15506505
174.69132689,178.57676308,-88.44579803,67.34631841,41.87639711,5.77738133
-3.06556190,2.49580753,0.99279062,0.38854132

>  <Name>
2bee_lig

>  <RI>
3.46266e+07

>  <Rbt.Current_Directory>
/home/itssahil/PROJECTS/Mol_Feturizer/New_Systems/rnas/2bee

>  <Rbt.Executable>
rbdock ($Id: //depot/dev/client3/rdock/2013.1/src/exe/rbdock.cxx#4 $)

>  <Rbt.Library>
libRbt.so (2013.1, Build901 2013/11/27)

>  <Rbt.Parameter_File>
/export/apps/rDock/src/rDock_2013.1_src/data/scripts/dock_solv.prm

>  <Rbt.Receptor>
prm/pocket_docking_4.prm

>  <SCORE>
-18.9956

>  <SCORE.INTER>
-12.2608

>  <SCORE.INTER.CONST>
1

>  <SCORE.INTER.POLAR>
-1.89595

>  <SCORE.INTER.ROT>
16

>  <SCORE.INTER.SOLV>
15.3074

>  <SCORE.INTER.VDW>
-21.2232

>  <SCORE.INTER.norm>
-0.25022

>  <SCORE.INTRA>
-6.7926

>  <SCORE.INTRA.DIHEDRAL>
-21.3583

>  <SCORE.INTRA.DIHEDRAL.0>
36.0842

>  <SCORE.INTRA.POLAR>
0

>  <SCORE.INTRA.POLAR.0>
0

>  <SCORE.INTRA.REPUL>
0.0982483

>  <SCORE.INTRA.REPUL.0>
0

>  <SCORE.INTRA.SOLV>
2.78449

>  <SCORE.INTRA.SOLV.lig_0>
-126.444

>  <SCORE.INTRA.VDW>
2.00308

>  <SCORE.INTRA.VDW.0>
-7.40469

>  <SCORE.INTRA.norm>
-0.138625

>  <SCORE.RESTR>
0.0577789

>  <SCORE.RESTR.CAVITY>
0.0577789

>  <SCORE.RESTR.norm>
0.00117916

>  <SCORE.SYSTEM>
0

>  <SCORE.SYSTEM.CONST>
0

>  <SCORE.SYSTEM.DIHEDRAL>
0

>  <SCORE.SYSTEM.SOLV>
0

>  <SCORE.SYSTEM.norm>
0

>  <SCORE.heavy>
49

>  <SCORE.norm>
-0.387665

>  <RMSD>
9.141

$$$$
2bee_lig
 OpenBabel11021811423D
libRbt.so/2013.1/901 2013/11/27
 49 52  0  0  0  0  0  0  0  0999 V2000
   42.2652    4.4765   -5.8384 C   0  0  2  0  0  0  0  0  0  0  0  0
   41.2271    4.1300   -4.9304 O   0  0  0  0  0  0  0  0  0  0  0  0
   37.9714    1.1943   -5.3259 C   0  0  2  0  0  0  0  0  0  0  0  0
   37.2900   -0.1161   -5.5086 N   0  0  0  0  0  0  0  0  0  0  0  0
   40.6872    1.7628   -1.7823 C   0  0  1  0  0  0  0  0  0  0  0  0
   40.8562   -2.8911   -1.6178 C   0  0  1  0  0  0  0  0  0  0  0  0
   38.8563    5.0182    4.4960 C   0  0  0  0  0  0  0  0  0  0  0  0
   43.5745    3.6594   -5.5114 C   0  0  2  0  0  0  0  0  0  0  0  0
   43.2822    2.2301   -5.5000 N   0  0  0  0  0  0  0  0  0  0  0  0
   38.9508    1.4573   -6.5586 C   0  0  0  0  0  0  0  0  0  0  0  0
   40.3752    0.5505   -0.9664 C   0  0  2  0  0  0  0  0  0  0  0  0
   40.4072    0.8101    0.4834 O   0  0  0  0  0  0  0  0  0  0  0  0
   41.0901   -3.8953   -2.8699 C   0  0  2  0  0  0  0  0  0  0  0  0
   40.6014   -3.2117   -4.1137 N   0  0  0  0  0  0  0  0  0  0  0  0
   39.2587    5.8840    3.4523 C   0  0  0  0  0  0  0  0  0  0  0  0
   40.5805    6.3183    3.3812 N   0  0  0  0  0  0  0  0  0  0  0  0
   44.1644    4.1479   -4.1167 C   0  0  1  0  0  0  0  0  0  0  0  0
   45.3446    3.4105   -3.8332 O   0  0  0  0  0  0  0  0  0  0  0  0
   39.7298    2.8840   -6.3883 C   0  0  2  0  0  0  0  0  0  0  0  0
   40.5993    3.1319   -7.4878 N   0  0  0  0  0  0  0  0  0  0  0  0
   41.3717   -0.3673   -1.6322 C   0  0  2  0  0  0  0  0  0  0  0  0
   41.5854   -1.6876   -1.9580 O   0  0  0  0  0  0  0  0  0  0  0  0
   40.2813   -5.2152   -2.6058 C   0  0  1  0  0  0  0  0  0  0  0  0
   40.8279   -5.8284   -1.3864 O   0  0  0  0  0  0  0  0  0  0  0  0
   44.4568    5.6644   -4.1950 C   0  0  2  0  0  0  0  0  0  0  0  0
   44.9958    6.1660   -2.9052 O   0  0  0  0  0  0  0  0  0  0  0  0
   40.5596    2.8838   -5.0457 C   0  0  2  0  0  0  0  0  0  0  0  0
   42.6121    0.6116   -1.9331 C   0  0  2  0  0  0  0  0  0  0  0  0
   41.9844    1.7521   -2.3064 O   0  0  0  0  0  0  0  0  0  0  0  0
   38.6998   -4.8493   -2.4372 C   0  0  2  0  0  0  0  0  0  0  0  0
   38.1615   -4.2305   -3.6696 O   0  0  0  0  0  0  0  0  0  0  0  0
   43.1520    6.4632   -4.5256 C   0  0  2  0  0  0  0  0  0  0  0  0
   42.6801    5.9164   -5.7836 O   0  0  0  0  0  0  0  0  0  0  0  0
   39.5559    2.6193   -3.8730 C   0  0  2  0  0  0  0  0  0  0  0  0
   40.3875    2.6632   -2.7388 O   0  0  0  0  0  0  0  0  0  0  0  0
   43.5802    0.2341   -3.1147 C   0  0  0  0  0  0  0  0  0  0  0  0
   44.3163   -0.9820   -2.7702 O   0  0  0  0  0  0  0  0  0  0  0  0
   38.5000   -3.8275   -1.2309 C   0  0  1  0  0  0  0  0  0  0  0  0
   39.3489   -2.6112   -1.5374 O   0  0  0  0  0  0  0  0  0  0  0  0
   43.5283    7.8873   -4.6037 C   0  0  0  0  0  0  0  0  0  0  0  0
   44.2971    8.1103   -5.6782 O   0  0  0  0  0  0  0  0  0  0  0  0
   38.8378    1.2134   -4.0469 C   0  0  1  0  0  0  0  0  0  0  0  0
   37.9404    0.9934   -3.0017 O   0  0  0  0  0  0  0  0  0  0  0  0
   39.5043    1.7247    1.2010 C   0  0  0  0  0  0  0  0  0  0  0  0
   36.9620   -3.5360   -1.1790 C   0  0  0  0  0  0  0  0  0  0  0  0
   36.6070   -2.5845   -0.1654 N   0  0  0  0  0  0  0  0  0  0  0  0
   40.0003    1.8995    2.6371 C   0  0  0  0  0  0  0  0  0  0  0  0
   39.0200    2.7630    3.3236 N   0  0  0  0  0  0  0  0  0  0  0  0
   39.4853    3.5497    4.5508 C   0  0  0  0  0  0  0  0  0  0  0  0
  1  2  1  1  0  0  0
  1  8  1  0  0  0  0
  1 33  1  0  0  0  0
  3  4  1  6  0  0  0
  3 10  1  0  0  0  0
  3 42  1  0  0  0  0
  5 11  1  0  0  0  0
  5 29  1  0  0  0  0
  5 35  1  6  0  0  0
  6 13  1  0  0  0  0
  6 39  1  0  0  0  0
  6 22  1  6  0  0  0
  7 15  1  0  0  0  0
  8  9  1  1  0  0  0
  8 17  1  0  0  0  0
 10 19  1  0  0  0  0
 11 12  1  1  0  0  0
 11 21  1  0  0  0  0
 12 44  1  0  0  0  0
 13 14  1  6  0  0  0
 13 23  1  0  0  0  0
 15 16  1  0  0  0  0
 17 18  1  6  0  0  0
 17 25  1  0  0  0  0
 19 20  1  6  0  0  0
 19 27  1  0  0  0  0
 21 22  1  1  0  0  0
 21 28  1  0  0  0  0
 23 24  1  1  0  0  0
 23 30  1  0  0  0  0
 25 26  1  1  0  0  0
 25 32  1  0  0  0  0
 27  2  1  1  0  0  0
 27 34  1  0  0  0  0
 28 29  1  0  0  0  0
 28 36  1  6  0  0  0
 30 31  1  6  0  0  0
 30 38  1  0  0  0  0
 32 33  1  0  0  0  0
 32 40  1  6  0  0  0
 34 35  1  1  0  0  0
 34 42  1  0  0  0  0
 36 37  1  0  0  0  0
 38 39  1  0  0  0  0
 38 45  1  6  0  0  0
 40 41  1  0  0  0  0
 42 43  1  1  0  0  0
 44 47  1  0  0  0  0
 45 46  1  0  0  0  0
 47 48  1  0  0  0  0
 48 49  1  0  0  0  0
 49  7  1  0  0  0  0
M  END
>  <CHROM.1>
-73.97913677,-24.43428066,150.06652577,-64.99571486,63.63277315,-170.56822079
-7.38687818,-67.02244965,-67.57716926,68.68734391,-119.58856256,-177.91492901
-176.99810804,-156.53896775,139.03163365,-65.48127499,40.85321014,1.40592978
-2.50627390,-0.42325770,-1.12880787,-2.30922826

>  <Name>
2bee_lig

>  <RI>
0

>  <Rbt.Current_Directory>
/home/itssahil/PROJECTS/Mol_Feturizer/New_Systems/rnas/2bee

>  <Rbt.Executable>
rbdock ($Id: //depot/dev/client3/rdock/2013.1/src/exe/rbdock.cxx#4 $)

>  <Rbt.Library>
libRbt.so (2013.1, Build901 2013/11/27)

>  <Rbt.Parameter_File>
/export/apps/rDock/src/rDock_2013.1_src/data/scripts/dock_solv.prm

>  <Rbt.Receptor>
prm/pocket_docking_6.prm

>  <SCORE>
-10.1026

>  <SCORE.INTER>
-5.65992

>  <SCORE.INTER.CONST>
1

>  <SCORE.INTER.POLAR>
-1.35185

>  <SCORE.INTER.ROT>
16

>  <SCORE.INTER.SOLV>
9.10079

>  <SCORE.INTER.VDW>
-16.5674

>  <SCORE.INTER.norm>
-0.115509

>  <SCORE.INTRA>
-4.44285

>  <SCORE.INTRA.DIHEDRAL>
-14.3209

>  <SCORE.INTRA.DIHEDRAL.0>
36.0842

>  <SCORE.INTRA.POLAR>
0

>  <SCORE.INTRA.POLAR.0>
0

>  <SCORE.INTRA.REPUL>
0

>  <SCORE.INTRA.REPUL.0>
0

>  <SCORE.INTRA.SOLV>
2.63926

>  <SCORE.INTRA.SOLV.lig_0>
-126.444

>  <SCORE.INTRA.VDW>
1.39798

>  <SCORE.INTRA.VDW.0>
-7.40469

>  <SCORE.INTRA.norm>
-0.0906703

>  <SCORE.RESTR>
0.000136808

>  <SCORE.RESTR.CAVITY>
0.000136808

>  <SCORE.RESTR.norm>
2.79199e-06

>  <SCORE.SYSTEM>
0

>  <SCORE.SYSTEM.CONST>
0

>  <SCORE.SYSTEM.DIHEDRAL>
0

>  <SCORE.SYSTEM.SOLV>
0

>  <SCORE.SYSTEM.norm>
0

>  <SCORE.heavy>
49

>  <SCORE.norm>
-0.206176

>  <RMSD>
9.151

$$$$
2bee_lig
 OpenBabel11021811423D
libRbt.so/2013.1/901 2013/11/27
 49 52  0  0  0  0  0  0  0  0999 V2000
   43.4328    4.7824   -0.4232 C   0  0  2  0  0  0  0  0  0  0  0  0
   43.4674    4.8734   -1.8418 O   0  0  0  0  0  0  0  0  0  0  0  0
   41.6247    8.8001   -2.5897 C   0  0  2  0  0  0  0  0  0  0  0  0
   41.3310   10.0987   -3.2547 N   0  0  0  0  0  0  0  0  0  0  0  0
   41.8522    4.6717   -4.7456 C   0  0  1  0  0  0  0  0  0  0  0  0
   46.1089    5.4388   -6.1050 C   0  0  1  0  0  0  0  0  0  0  0  0
   43.9851    8.4221   -9.4432 C   0  0  0  0  0  0  0  0  0  0  0  0
   43.1919    3.2889    0.0244 C   0  0  2  0  0  0  0  0  0  0  0  0
   44.1962    2.4183   -0.5773 N   0  0  0  0  0  0  0  0  0  0  0  0
   43.1868    8.7088   -2.2747 C   0  0  0  0  0  0  0  0  0  0  0  0
   42.5635    4.8947   -6.0405 C   0  0  2  0  0  0  0  0  0  0  0  0
   41.7978    4.4190   -7.2057 O   0  0  0  0  0  0  0  0  0  0  0  0
   45.6747    6.0031   -7.5624 C   0  0  2  0  0  0  0  0  0  0  0  0
   45.8074    4.8842   -8.5542 N   0  0  0  0  0  0  0  0  0  0  0  0
   44.6129    9.6705   -9.6623 C   0  0  0  0  0  0  0  0  0  0  0  0
   44.3619   10.3773  -10.8362 N   0  0  0  0  0  0  0  0  0  0  0  0
   41.7172    2.8500   -0.3814 C   0  0  1  0  0  0  0  0  0  0  0  0
   41.5081    1.5066    0.0294 O   0  0  0  0  0  0  0  0  0  0  0  0
   43.5527    7.2879   -1.5544 C   0  0  2  0  0  0  0  0  0  0  0  0
   44.9429    7.2007   -1.2612 N   0  0  0  0  0  0  0  0  0  0  0  0
   43.8694    4.2568   -5.6327 C   0  0  2  0  0  0  0  0  0  0  0  0
   45.2264    4.3184   -5.8560 O   0  0  0  0  0  0  0  0  0  0  0  0
   46.6262    7.1948   -7.9371 C   0  0  1  0  0  0  0  0  0  0  0  0
   46.4261    8.2490   -6.9320 O   0  0  0  0  0  0  0  0  0  0  0  0
   40.7030    3.8051    0.2896 C   0  0  2  0  0  0  0  0  0  0  0  0
   39.3108    3.4396   -0.0763 O   0  0  0  0  0  0  0  0  0  0  0  0
   43.1321    6.0892   -2.4910 C   0  0  2  0  0  0  0  0  0  0  0  0
   43.3936    3.0361   -4.6994 C   0  0  2  0  0  0  0  0  0  0  0  0
   42.3614    3.5896   -4.0195 O   0  0  0  0  0  0  0  0  0  0  0  0
   48.1693    6.6636   -7.9516 C   0  0  2  0  0  0  0  0  0  0  0  0
   48.3579    5.6013   -8.9652 O   0  0  0  0  0  0  0  0  0  0  0  0
   40.9560    5.2837   -0.1574 C   0  0  2  0  0  0  0  0  0  0  0  0
   42.3279    5.5655    0.2204 O   0  0  0  0  0  0  0  0  0  0  0  0
   41.5975    6.2274   -2.7709 C   0  0  2  0  0  0  0  0  0  0  0  0
   41.3298    5.1105   -3.5836 O   0  0  0  0  0  0  0  0  0  0  0  0
   44.3998    2.5011   -3.6146 C   0  0  0  0  0  0  0  0  0  0  0  0
   45.5687    1.9243   -4.2783 O   0  0  0  0  0  0  0  0  0  0  0  0
   48.5583    6.0733   -6.5236 C   0  0  1  0  0  0  0  0  0  0  0  0
   47.5667    4.9706   -6.2166 O   0  0  0  0  0  0  0  0  0  0  0  0
   39.9651    6.1204    0.5453 C   0  0  0  0  0  0  0  0  0  0  0  0
   40.0971    7.4044    0.1857 O   0  0  0  0  0  0  0  0  0  0  0  0
   41.2752    7.6014   -3.4994 C   0  0  1  0  0  0  0  0  0  0  0  0
   39.9050    7.7167   -3.7353 O   0  0  0  0  0  0  0  0  0  0  0  0
   42.1546    4.6649   -8.6125 C   0  0  0  0  0  0  0  0  0  0  0  0
   50.0384    5.5803   -6.6630 C   0  0  0  0  0  0  0  0  0  0  0  0
   50.5636    5.0354   -5.4440 N   0  0  0  0  0  0  0  0  0  0  0  0
   42.1440    6.1708   -8.8798 C   0  0  0  0  0  0  0  0  0  0  0  0
   42.7037    6.3668  -10.2312 N   0  0  0  0  0  0  0  0  0  0  0  0
   43.1378    7.7773  -10.6354 C   0  0  0  0  0  0  0  0  0  0  0  0
  1  2  1  6  0  0  0
  1  8  1  0  0  0  0
  1 33  1  0  0  0  0
  3  4  1  6  0  0  0
  3 10  1  0  0  0  0
  3 42  1  0  0  0  0
  5 11  1  0  0  0  0
  5 29  1  0  0  0  0
  5 35  1  1  0  0  0
  6 13  1  0  0  0  0
  6 39  1  0  0  0  0
  6 22  1  6  0  0  0
  7 15  1  0  0  0  0
  8  9  1  6  0  0  0
  8 17  1  0  0  0  0
 10 19  1  0  0  0  0
 11 12  1  6  0  0  0
 11 21  1  0  0  0  0
 12 44  1  0  0  0  0
 13 14  1  6  0  0  0
 13 23  1  0  0  0  0
 15 16  1  0  0  0  0
 17 18  1  1  0  0  0
 17 25  1  0  0  0  0
 19 20  1  6  0  0  0
 19 27  1  0  0  0  0
 21 22  1  6  0  0  0
 21 28  1  0  0  0  0
 23 24  1  1  0  0  0
 23 30  1  0  0  0  0
 25 26  1  6  0  0  0
 25 32  1  0  0  0  0
 27  2  1  1  0  0  0
 27 34  1  0  0  0  0
 28 29  1  0  0  0  0
 28 36  1  1  0  0  0
 30 31  1  6  0  0  0
 30 38  1  0  0  0  0
 32 33  1  0  0  0  0
 32 40  1  1  0  0  0
 34 35  1  6  0  0  0
 34 42  1  0  0  0  0
 36 37  1  0  0  0  0
 38 39  1  0  0  0  0
 38 45  1  6  0  0  0
 40 41  1  0  0  0  0
 42 43  1  1  0  0  0
 44 47  1  0  0  0  0
 45 46  1  0  0  0  0
 47 48  1  0  0  0  0
 48 49  1  0  0  0  0
 49  7  1  0  0  0  0
M  END
>  <CHROM.1>
154.38924893,-24.50148042,-67.58933918,7.24273833,171.24918269,-61.67583455
36.17515245,31.61110908,-64.68303826,-178.42857085,-55.41971544,178.86022045
171.55860275,-165.08947005,45.73895423,173.08903183,43.67407092,5.66682197
-4.52952242,-2.16123776,0.50505714,-1.01421305

>  <Name>
2bee_lig

>  <RI>
2.18182e+07

>  <Rbt.Current_Directory>
/home/itssahil/PROJECTS/Mol_Feturizer/New_Systems/rnas/2bee

>  <Rbt.Executable>
rbdock ($Id: //depot/dev/client3/rdock/2013.1/src/exe/rbdock.cxx#4 $)

>  <Rbt.Library>
libRbt.so (2013.1, Build901 2013/11/27)

>  <Rbt.Parameter_File>
/export/apps/rDock/src/rDock_2013.1_src/data/scripts/dock_solv.prm

>  <Rbt.Receptor>
prm/pocket_docking_3.prm

>  <SCORE>
-15.1863

>  <SCORE.INTER>
-12.4197

>  <SCORE.INTER.CONST>
1

>  <SCORE.INTER.POLAR>
-2.08903

>  <SCORE.INTER.ROT>
16

>  <SCORE.INTER.SOLV>
29.4563

>  <SCORE.INTER.VDW>
-25.4018

>  <SCORE.INTER.norm>
-0.253464

>  <SCORE.INTRA>
-4.1103

>  <SCORE.INTRA.DIHEDRAL>
-14.3997

>  <SCORE.INTRA.DIHEDRAL.0>
36.0842

>  <SCORE.INTRA.POLAR>
0

>  <SCORE.INTRA.POLAR.0>
0

>  <SCORE.INTRA.REPUL>
0

>  <SCORE.INTRA.REPUL.0>
0

>  <SCORE.INTRA.SOLV>
2.43959

>  <SCORE.INTRA.SOLV.lig_0>
-126.444

>  <SCORE.INTRA.VDW>
1.86974

>  <SCORE.INTRA.VDW.0>
-7.40469

>  <SCORE.INTRA.norm>
-0.0838836

>  <SCORE.RESTR>
1.3437

>  <SCORE.RESTR.CAVITY>
1.3437

>  <SCORE.RESTR.norm>
0.0274224

>  <SCORE.SYSTEM>
0

>  <SCORE.SYSTEM.CONST>
0

>  <SCORE.SYSTEM.DIHEDRAL>
0

>  <SCORE.SYSTEM.SOLV>
0

>  <SCORE.SYSTEM.norm>
0

>  <SCORE.heavy>
49

>  <SCORE.norm>
-0.309925

>  <RMSD>
9.152

$$$$
2bee_lig
 OpenBabel11021811423D
libRbt.so/2013.1/901 2013/11/27
 49 52  0  0  0  0  0  0  0  0999 V2000
   41.2012    3.6411   -1.5829 C   0  0  2  0  0  0  0  0  0  0  0  0
   41.3707    3.0244   -2.8530 O   0  0  0  0  0  0  0  0  0  0  0  0
   45.5819    1.7578   -2.6654 C   0  0  2  0  0  0  0  0  0  0  0  0
   46.8221    0.9914   -2.9642 N   0  0  0  0  0  0  0  0  0  0  0  0
   42.9670    3.5938   -5.9615 C   0  0  1  0  0  0  0  0  0  0  0  0
   42.9055   -0.5445   -8.0609 C   0  0  1  0  0  0  0  0  0  0  0  0
   43.8612    8.4410   -9.7841 C   0  0  0  0  0  0  0  0  0  0  0  0
   39.9711    4.6285   -1.6130 C   0  0  2  0  0  0  0  0  0  0  0  0
   38.7765    3.9254   -2.0681 N   0  0  0  0  0  0  0  0  0  0  0  0
   44.4331    0.7476   -2.2098 C   0  0  0  0  0  0  0  0  0  0  0  0
   43.3345    2.8575   -7.2086 C   0  0  2  0  0  0  0  0  0  0  0  0
   43.3801    3.7272   -8.3968 O   0  0  0  0  0  0  0  0  0  0  0  0
   42.1327   -1.9569   -7.8635 C   0  0  2  0  0  0  0  0  0  0  0  0
   41.9932   -2.2104   -6.3907 N   0  0  0  0  0  0  0  0  0  0  0  0
   44.0908    9.2184  -10.9432 C   0  0  0  0  0  0  0  0  0  0  0  0
   45.0129   10.2620  -10.9080 N   0  0  0  0  0  0  0  0  0  0  0  0
   40.3146    5.8675   -2.5505 C   0  0  1  0  0  0  0  0  0  0  0  0
   39.2040    6.7527   -2.5676 O   0  0  0  0  0  0  0  0  0  0  0  0
   43.0474    1.5511   -1.8846 C   0  0  2  0  0  0  0  0  0  0  0  0
   42.0189    0.6593   -1.4685 N   0  0  0  0  0  0  0  0  0  0  0  0
   42.3112    1.7567   -7.0675 C   0  0  2  0  0  0  0  0  0  0  0  0
   42.0919    0.4309   -7.3662 O   0  0  0  0  0  0  0  0  0  0  0  0
   42.9831   -3.0877   -8.5448 C   0  0  1  0  0  0  0  0  0  0  0  0
   43.0594   -2.7754   -9.9795 O   0  0  0  0  0  0  0  0  0  0  0  0
   41.5830    6.5708   -2.0140 C   0  0  2  0  0  0  0  0  0  0  0  0
   41.9488    7.7272   -2.8713 O   0  0  0  0  0  0  0  0  0  0  0  0
   42.5756    2.3442   -3.1651 C   0  0  2  0  0  0  0  0  0  0  0  0
   41.0472    2.5242   -6.4344 C   0  0  2  0  0  0  0  0  0  0  0  0
   41.6431    3.3751   -5.5655 O   0  0  0  0  0  0  0  0  0  0  0  0
   44.4637   -3.1305   -7.8597 C   0  0  2  0  0  0  0  0  0  0  0  0
   44.3740   -3.4431   -6.4156 O   0  0  0  0  0  0  0  0  0  0  0  0
   42.7941    5.5799   -1.9834 C   0  0  2  0  0  0  0  0  0  0  0  0
   42.3636    4.4794   -1.1420 O   0  0  0  0  0  0  0  0  0  0  0  0
   43.7357    3.3148   -3.5707 C   0  0  2  0  0  0  0  0  0  0  0  0
   43.2053    3.9785   -4.6924 O   0  0  0  0  0  0  0  0  0  0  0  0
   40.0190    1.6822   -5.5920 C   0  0  0  0  0  0  0  0  0  0  0  0
   38.9913    2.5709   -5.0503 O   0  0  0  0  0  0  0  0  0  0  0  0
   45.1850   -1.7194   -8.0267 C   0  0  1  0  0  0  0  0  0  0  0  0
   44.2804   -0.6835   -7.3924 O   0  0  0  0  0  0  0  0  0  0  0  0
   43.9452    6.3250   -1.4396 C   0  0  0  0  0  0  0  0  0  0  0  0
   44.4936    7.0968   -2.3876 O   0  0  0  0  0  0  0  0  0  0  0  0
   45.0591    2.5057   -3.9120 C   0  0  1  0  0  0  0  0  0  0  0  0
   46.0871    3.3811   -4.2632 O   0  0  0  0  0  0  0  0  0  0  0  0
   42.2042    4.2840   -9.0855 C   0  0  0  0  0  0  0  0  0  0  0  0
   46.5741   -1.8727   -7.3197 C   0  0  0  0  0  0  0  0  0  0  0  0
   46.4768   -1.8673   -5.8882 N   0  0  0  0  0  0  0  0  0  0  0  0
   41.7007    5.5061   -8.3161 C   0  0  0  0  0  0  0  0  0  0  0  0
   42.7087    6.5685   -8.4986 N   0  0  0  0  0  0  0  0  0  0  0  0
   42.8094    7.2404   -9.8696 C   0  0  0  0  0  0  0  0  0  0  0  0
  1  2  1  6  0  0  0
  1  8  1  0  0  0  0
  1 33  1  0  0  0  0
  3  4  1  6  0  0  0
  3 10  1  0  0  0  0
  3 42  1  0  0  0  0
  5 11  1  0  0  0  0
  5 29  1  0  0  0  0
  5 35  1  1  0  0  0
  6 13  1  0  0  0  0
  6 39  1  0  0  0  0
  6 22  1  1  0  0  0
  7 15  1  0  0  0  0
  8  9  1  6  0  0  0
  8 17  1  0  0  0  0
 10 19  1  0  0  0  0
 11 12  1  6  0  0  0
 11 21  1  0  0  0  0
 12 44  1  0  0  0  0
 13 14  1  1  0  0  0
 13 23  1  0  0  0  0
 15 16  1  0  0  0  0
 17 18  1  1  0  0  0
 17 25  1  0  0  0  0
 19 20  1  6  0  0  0
 19 27  1  0  0  0  0
 21 22  1  6  0  0  0
 21 28  1  0  0  0  0
 23 24  1  6  0  0  0
 23 30  1  0  0  0  0
 25 26  1  6  0  0  0
 25 32  1  0  0  0  0
 27  2  1  1  0  0  0
 27 34  1  0  0  0  0
 28 29  1  0  0  0  0
 28 36  1  1  0  0  0
 30 31  1  1  0  0  0
 30 38  1  0  0  0  0
 32 33  1  0  0  0  0
 32 40  1  1  0  0  0
 34 35  1  6  0  0  0
 34 42  1  0  0  0  0
 36 37  1  0  0  0  0
 38 39  1  0  0  0  0
 38 45  1  1  0  0  0
 40 41  1  0  0  0  0
 42 43  1  1  0  0  0
 44 47  1  0  0  0  0
 45 46  1  0  0  0  0
 47 48  1  0  0  0  0
 48 49  1  0  0  0  0
 49  7  1  0  0  0  0
M  END
>  <CHROM.1>
165.33312152,-39.81050643,171.95766662,-179.22019026,-73.25232220,79.98932058
-1.11930556,39.54361899,177.03899119,-79.48108314,-72.53414815,-74.56160765
69.91322415,72.23934137,174.60708899,-178.85039972,42.91186047,2.83126389
-5.42352910,2.53356569,1.32627184,-0.61112503

>  <Name>
2bee_lig

>  <RI>
0

>  <Rbt.Current_Directory>
/home/itssahil/PROJECTS/Mol_Feturizer/New_Systems/rnas/2bee

>  <Rbt.Executable>
rbdock ($Id: //depot/dev/client3/rdock/2013.1/src/exe/rbdock.cxx#4 $)

>  <Rbt.Library>
libRbt.so (2013.1, Build901 2013/11/27)

>  <Rbt.Parameter_File>
/export/apps/rDock/src/rDock_2013.1_src/data/scripts/dock_solv.prm

>  <Rbt.Receptor>
prm/pocket_docking_8.prm

>  <SCORE>
-13.7231

>  <SCORE.INTER>
-5.57211

>  <SCORE.INTER.CONST>
1

>  <SCORE.INTER.POLAR>
-0.959166

>  <SCORE.INTER.ROT>
16

>  <SCORE.INTER.SOLV>
13.9549

>  <SCORE.INTER.VDW>
-19.4358

>  <SCORE.INTER.norm>
-0.113717

>  <SCORE.INTRA>
-8.15101

>  <SCORE.INTRA.DIHEDRAL>
-21.8408

>  <SCORE.INTRA.DIHEDRAL.0>
36.0842

>  <SCORE.INTRA.POLAR>
0

>  <SCORE.INTRA.POLAR.0>
0

>  <SCORE.INTRA.REPUL>
0.166346

>  <SCORE.INTRA.REPUL.0>
0

>  <SCORE.INTRA.SOLV>
0.687579

>  <SCORE.INTRA.SOLV.lig_0>
-126.444

>  <SCORE.INTRA.VDW>
1.59388

>  <SCORE.INTRA.VDW.0>
-7.40469

>  <SCORE.INTRA.norm>
-0.166347

>  <SCORE.RESTR>
0

>  <SCORE.RESTR.CAVITY>
0

>  <SCORE.RESTR.norm>
0

>  <SCORE.SYSTEM>
0

>  <SCORE.SYSTEM.CONST>
0

>  <SCORE.SYSTEM.DIHEDRAL>
0

>  <SCORE.SYSTEM.SOLV>
0

>  <SCORE.SYSTEM.norm>
0

>  <SCORE.heavy>
49

>  <SCORE.norm>
-0.280064

>  <RMSD>
9.164

$$$$
2bee_lig
 OpenBabel11021811423D
libRbt.so/2013.1/901 2013/11/27
 49 52  0  0  0  0  0  0  0  0999 V2000
   39.3838    0.8880   -4.9946 C   0  0  2  0  0  0  0  0  0  0  0  0
   40.0867   -0.3345   -4.8111 O   0  0  0  0  0  0  0  0  0  0  0  0
   44.3942   -1.1754   -5.1472 C   0  0  2  0  0  0  0  0  0  0  0  0
   45.7218   -1.4240   -5.7721 N   0  0  0  0  0  0  0  0  0  0  0  0
   42.2182    2.9915   -4.7777 C   0  0  1  0  0  0  0  0  0  0  0  0
   43.6505    6.3612   -7.5049 C   0  0  1  0  0  0  0  0  0  0  0  0
   43.4548    9.3751    0.1107 C   0  0  0  0  0  0  0  0  0  0  0  0
   38.1079    0.9309   -4.0677 C   0  0  2  0  0  0  0  0  0  0  0  0
   38.4903    0.6974   -2.6793 N   0  0  0  0  0  0  0  0  0  0  0  0
   43.3379   -2.2301   -5.7127 C   0  0  0  0  0  0  0  0  0  0  0  0
   43.1477    4.1611   -4.7542 C   0  0  2  0  0  0  0  0  0  0  0  0
   43.4647    4.6154   -3.3891 O   0  0  0  0  0  0  0  0  0  0  0  0
   44.8248    6.7814   -6.4679 C   0  0  2  0  0  0  0  0  0  0  0  0
   44.3117    7.9025   -5.6117 N   0  0  0  0  0  0  0  0  0  0  0  0
   44.2889   10.3529   -0.4801 C   0  0  0  0  0  0  0  0  0  0  0  0
   43.7806   11.6178   -0.7667 N   0  0  0  0  0  0  0  0  0  0  0  0
   37.0537   -0.1480   -4.5744 C   0  0  1  0  0  0  0  0  0  0  0  0
   35.9074   -0.0988   -3.7374 O   0  0  0  0  0  0  0  0  0  0  0  0
   41.8606   -1.9812   -5.0590 C   0  0  2  0  0  0  0  0  0  0  0  0
   40.9132   -2.9231   -5.5505 N   0  0  0  0  0  0  0  0  0  0  0  0
   42.3670    5.0220   -5.7176 C   0  0  2  0  0  0  0  0  0  0  0  0
   42.5223    6.0020   -6.6718 O   0  0  0  0  0  0  0  0  0  0  0  0
   46.0772    7.2418   -7.2959 C   0  0  1  0  0  0  0  0  0  0  0  0
   46.5252    6.0893   -8.0914 O   0  0  0  0  0  0  0  0  0  0  0  0
   36.6865    0.1564   -6.0454 C   0  0  2  0  0  0  0  0  0  0  0  0
   35.7138   -0.8390   -6.5641 O   0  0  0  0  0  0  0  0  0  0  0  0
   41.3708   -0.5168   -5.3854 C   0  0  2  0  0  0  0  0  0  0  0  0
   40.8402    4.6725   -5.3510 C   0  0  2  0  0  0  0  0  0  0  0  0
   40.9065    3.3401   -5.1174 O   0  0  0  0  0  0  0  0  0  0  0  0
   45.6577    8.5008   -8.2458 C   0  0  2  0  0  0  0  0  0  0  0  0
   45.2062    9.6537   -7.4343 O   0  0  0  0  0  0  0  0  0  0  0  0
   37.9608    0.1168   -6.9534 C   0  0  2  0  0  0  0  0  0  0  0  0
   38.8634    1.0998   -6.3848 O   0  0  0  0  0  0  0  0  0  0  0  0
   42.4401    0.4747   -4.8144 C   0  0  2  0  0  0  0  0  0  0  0  0
   41.8980    1.7327   -5.1362 O   0  0  0  0  0  0  0  0  0  0  0  0
   39.7495    4.8706   -6.4677 C   0  0  0  0  0  0  0  0  0  0  0  0
   39.5216    6.3003   -6.6762 O   0  0  0  0  0  0  0  0  0  0  0  0
   44.4731    8.0775   -9.2240 C   0  0  1  0  0  0  0  0  0  0  0  0
   43.3301    7.6004   -8.3525 O   0  0  0  0  0  0  0  0  0  0  0  0
   37.5218    0.4398   -8.3240 C   0  0  0  0  0  0  0  0  0  0  0  0
   38.5612    0.4063   -9.1689 O   0  0  0  0  0  0  0  0  0  0  0  0
   43.8569    0.2319   -5.4898 C   0  0  1  0  0  0  0  0  0  0  0  0
   44.8023    1.1146   -4.9670 O   0  0  0  0  0  0  0  0  0  0  0  0
   44.2311    5.8270   -3.0552 C   0  0  0  0  0  0  0  0  0  0  0  0
   44.1445    9.3586  -10.0630 C   0  0  0  0  0  0  0  0  0  0  0  0
   43.2252    9.1046  -11.1349 N   0  0  0  0  0  0  0  0  0  0  0  0
   44.3207    5.9643   -1.5347 C   0  0  0  0  0  0  0  0  0  0  0  0
   44.3507    7.4099   -1.2392 N   0  0  0  0  0  0  0  0  0  0  0  0
   43.9782    7.8661    0.1731 C   0  0  0  0  0  0  0  0  0  0  0  0
  1  2  1  6  0  0  0
  1  8  1  0  0  0  0
  1 33  1  0  0  0  0
  3  4  1  6  0  0  0
  3 10  1  0  0  0  0
  3 42  1  0  0  0  0
  5 11  1  0  0  0  0
  5 29  1  0  0  0  0
  5 35  1  6  0  0  0
  6 13  1  0  0  0  0
  6 39  1  0  0  0  0
  6 22  1  1  0  0  0
  7 15  1  0  0  0  0
  8  9  1  1  0  0  0
  8 17  1  0  0  0  0
 10 19  1  0  0  0  0
 11 12  1  1  0  0  0
 11 21  1  0  0  0  0
 12 44  1  0  0  0  0
 13 14  1  1  0  0  0
 13 23  1  0  0  0  0
 15 16  1  0  0  0  0
 17 18  1  1  0  0  0
 17 25  1  0  0  0  0
 19 20  1  6  0  0  0
 19 27  1  0  0  0  0
 21 22  1  1  0  0  0
 21 28  1  0  0  0  0
 23 24  1  6  0  0  0
 23 30  1  0  0  0  0
 25 26  1  6  0  0  0
 25 32  1  0  0  0  0
 27  2  1  1  0  0  0
 27 34  1  0  0  0  0
 28 29  1  0  0  0  0
 28 36  1  6  0  0  0
 30 31  1  1  0  0  0
 30 38  1  0  0  0  0
 32 33  1  0  0  0  0
 32 40  1  6  0  0  0
 34 35  1  6  0  0  0
 34 42  1  0  0  0  0
 36 37  1  0  0  0  0
 38 39  1  0  0  0  0
 38 45  1  1  0  0  0
 40 41  1  0  0  0  0
 42 43  1  1  0  0  0
 44 47  1  0  0  0  0
 45 46  1  0  0  0  0
 47 48  1  0  0  0  0
 48 49  1  0  0  0  0
 49  7  1  0  0  0  0
M  END
>  <CHROM.1>
-170.49875412,64.65269732,-61.02905727,168.64959504,-173.03937683,178.90076228
24.20742368,-177.68038065,-72.33500251,-179.09607144,169.49169547,171.52655949
-148.06865133,160.16127194,-155.19564573,-54.95183678,42.00212402,3.75863939
-5.45555241,3.09138361,-1.04178129,-1.57949171

>  <Name>
2bee_lig

>  <RI>
0

>  <Rbt.Current_Directory>
/home/itssahil/PROJECTS/Mol_Feturizer/New_Systems/rnas/2bee

>  <Rbt.Executable>
rbdock ($Id: //depot/dev/client3/rdock/2013.1/src/exe/rbdock.cxx#4 $)

>  <Rbt.Library>
libRbt.so (2013.1, Build901 2013/11/27)

>  <Rbt.Parameter_File>
/export/apps/rDock/src/rDock_2013.1_src/data/scripts/dock_solv.prm

>  <Rbt.Receptor>
prm/pocket_docking_5.prm

>  <SCORE>
-30.6078

>  <SCORE.INTER>
-17.6545

>  <SCORE.INTER.CONST>
1

>  <SCORE.INTER.POLAR>
-3.06741

>  <SCORE.INTER.ROT>
16

>  <SCORE.INTER.SOLV>
24.8599

>  <SCORE.INTER.VDW>
-24.0982

>  <SCORE.INTER.norm>
-0.360295

>  <SCORE.INTRA>
-12.9557

>  <SCORE.INTRA.DIHEDRAL>
-25.0838

>  <SCORE.INTRA.DIHEDRAL.0>
36.0842

>  <SCORE.INTRA.POLAR>
0

>  <SCORE.INTRA.POLAR.0>
0

>  <SCORE.INTRA.REPUL>
0

>  <SCORE.INTRA.REPUL.0>
0

>  <SCORE.INTRA.SOLV>
-3.79335

>  <SCORE.INTRA.SOLV.lig_0>
-126.444

>  <SCORE.INTRA.VDW>
1.48291

>  <SCORE.INTRA.VDW.0>
-7.40469

>  <SCORE.INTRA.norm>
-0.264402

>  <SCORE.RESTR>
0.00235331

>  <SCORE.RESTR.CAVITY>
0.00235331

>  <SCORE.RESTR.norm>
4.80267e-05

>  <SCORE.SYSTEM>
0

>  <SCORE.SYSTEM.CONST>
0

>  <SCORE.SYSTEM.DIHEDRAL>
0

>  <SCORE.SYSTEM.SOLV>
0

>  <SCORE.SYSTEM.norm>
0

>  <SCORE.heavy>
49

>  <SCORE.norm>
-0.624648

>  <RMSD>
9.172

$$$$
2bee_lig
 OpenBabel11021811423D
libRbt.so/2013.1/901 2013/11/27
 49 52  0  0  0  0  0  0  0  0999 V2000
   42.3499    0.4685   -4.0114 C   0  0  2  0  0  0  0  0  0  0  0  0
   42.2588    1.8851   -4.0949 O   0  0  0  0  0  0  0  0  0  0  0  0
   41.3167    3.4127   -0.0758 C   0  0  2  0  0  0  0  0  0  0  0  0
   41.4309    4.2124    1.1741 N   0  0  0  0  0  0  0  0  0  0  0  0
   41.3101    5.4260   -4.1597 C   0  0  1  0  0  0  0  0  0  0  0  0
   44.9801    6.9300   -6.6450 C   0  0  1  0  0  0  0  0  0  0  0  0
   38.6827    8.6068    0.7625 C   0  0  0  0  0  0  0  0  0  0  0  0
   42.5967   -0.1501   -5.4416 C   0  0  2  0  0  0  0  0  0  0  0  0
   43.7714    0.4604   -6.0545 N   0  0  0  0  0  0  0  0  0  0  0  0
   42.6761    2.6115   -0.3168 C   0  0  0  0  0  0  0  0  0  0  0  0
   42.4149    6.4274   -4.2548 C   0  0  2  0  0  0  0  0  0  0  0  0
   42.0645    7.7276   -3.6572 O   0  0  0  0  0  0  0  0  0  0  0  0
   45.2800    7.4174   -8.1627 C   0  0  2  0  0  0  0  0  0  0  0  0
   45.1540    6.2270   -9.0683 N   0  0  0  0  0  0  0  0  0  0  0  0
   39.6679    8.0700    1.6240 C   0  0  0  0  0  0  0  0  0  0  0  0
   40.3865    6.9405    1.2386 N   0  0  0  0  0  0  0  0  0  0  0  0
   41.2960    0.0558   -6.3348 C   0  0  1  0  0  0  0  0  0  0  0  0
   41.5257   -0.5079   -7.6179 O   0  0  0  0  0  0  0  0  0  0  0  0
   42.5955    1.7292   -1.6903 C   0  0  2  0  0  0  0  0  0  0  0  0
   43.8004    1.0036   -1.9093 N   0  0  0  0  0  0  0  0  0  0  0  0
   42.6610    6.2735   -5.7362 C   0  0  2  0  0  0  0  0  0  0  0  0
   43.6515    6.3565   -6.6885 O   0  0  0  0  0  0  0  0  0  0  0  0
   46.7347    8.0064   -8.2169 C   0  0  1  0  0  0  0  0  0  0  0  0
   46.7704    9.1708   -7.3198 O   0  0  0  0  0  0  0  0  0  0  0  0
   40.0913   -0.6159   -5.6355 C   0  0  2  0  0  0  0  0  0  0  0  0
   38.8499   -0.4336   -6.4303 O   0  0  0  0  0  0  0  0  0  0  0  0
   42.3170    2.6782   -2.9204 C   0  0  2  0  0  0  0  0  0  0  0  0
   41.1814    6.0337   -6.3201 C   0  0  2  0  0  0  0  0  0  0  0  0
   40.6297    5.2436   -5.3685 O   0  0  0  0  0  0  0  0  0  0  0  0
   47.7955    6.8568   -7.7515 C   0  0  2  0  0  0  0  0  0  0  0  0
   47.7487    5.6891   -8.6601 O   0  0  0  0  0  0  0  0  0  0  0  0
   39.8605    0.0018   -4.2161 C   0  0  2  0  0  0  0  0  0  0  0  0
   41.1083   -0.2027   -3.5051 O   0  0  0  0  0  0  0  0  0  0  0  0
   40.9794    3.4402   -2.6327 C   0  0  2  0  0  0  0  0  0  0  0  0
   40.8182    4.2281   -3.7873 O   0  0  0  0  0  0  0  0  0  0  0  0
   41.0421    5.2512   -7.6781 C   0  0  0  0  0  0  0  0  0  0  0  0
   41.7986    4.0019   -7.5989 O   0  0  0  0  0  0  0  0  0  0  0  0
   47.4537    6.3619   -6.2758 C   0  0  1  0  0  0  0  0  0  0  0  0
   46.0250    5.8601   -6.2982 O   0  0  0  0  0  0  0  0  0  0  0  0
   38.7155   -0.7107   -3.6185 C   0  0  0  0  0  0  0  0  0  0  0  0
   39.0185   -2.0007   -3.4199 O   0  0  0  0  0  0  0  0  0  0  0  0
   41.0968    4.3136   -1.3115 C   0  0  1  0  0  0  0  0  0  0  0  0
   39.8971    4.9802   -1.0612 O   0  0  0  0  0  0  0  0  0  0  0  0
   41.5857    7.9259   -2.2794 C   0  0  0  0  0  0  0  0  0  0  0  0
   48.5137    5.2563   -5.9487 C   0  0  0  0  0  0  0  0  0  0  0  0
   49.8234    5.7907   -5.7080 N   0  0  0  0  0  0  0  0  0  0  0  0
   41.2367    9.4007   -2.0741 C   0  0  0  0  0  0  0  0  0  0  0  0
   40.4849    9.4874   -0.8070 N   0  0  0  0  0  0  0  0  0  0  0  0
   39.0770    8.8900   -0.7604 C   0  0  0  0  0  0  0  0  0  0  0  0
  1  2  1  6  0  0  0
  1  8  1  0  0  0  0
  1 33  1  0  0  0  0
  3  4  1  1  0  0  0
  3 10  1  0  0  0  0
  3 42  1  0  0  0  0
  5 11  1  0  0  0  0
  5 29  1  0  0  0  0
  5 35  1  6  0  0  0
  6 13  1  0  0  0  0
  6 39  1  0  0  0  0
  6 22  1  6  0  0  0
  7 15  1  0  0  0  0
  8  9  1  6  0  0  0
  8 17  1  0  0  0  0
 10 19  1  0  0  0  0
 11 12  1  6  0  0  0
 11 21  1  0  0  0  0
 12 44  1  0  0  0  0
 13 14  1  6  0  0  0
 13 23  1  0  0  0  0
 15 16  1  0  0  0  0
 17 18  1  6  0  0  0
 17 25  1  0  0  0  0
 19 20  1  6  0  0  0
 19 27  1  0  0  0  0
 21 22  1  6  0  0  0
 21 28  1  0  0  0  0
 23 24  1  1  0  0  0
 23 30  1  0  0  0  0
 25 26  1  6  0  0  0
 25 32  1  0  0  0  0
 27  2  1  6  0  0  0
 27 34  1  0  0  0  0
 28 29  1  0  0  0  0
 28 36  1  6  0  0  0
 30 31  1  6  0  0  0
 30 38  1  0  0  0  0
 32 33  1  0  0  0  0
 32 40  1  1  0  0  0
 34 35  1  6  0  0  0
 34 42  1  0  0  0  0
 36 37  1  0  0  0  0
 38 39  1  0  0  0  0
 38 45  1  6  0  0  0
 40 41  1  0  0  0  0
 42 43  1  1  0  0  0
 44 47  1  0  0  0  0
 45 46  1  0  0  0  0
 47 48  1  0  0  0  0
 48 49  1  0  0  0  0
 49  7  1  0  0  0  0
M  END
>  <CHROM.1>
-166.86360124,40.51622224,-149.99790580,-50.57708341,54.76791195,-175.96027463
-14.32625553,4.28272642,51.04341071,64.86258370,-83.56175362,72.93450285
167.37110704,-69.30065615,159.27063660,-40.88631048,42.48238661,4.40296138
-4.28922077,-2.89422062,0.80690335,0.45122644

>  <Name>
2bee_lig

>  <RI>
3.71943e+07

>  <Rbt.Current_Directory>
/home/itssahil/PROJECTS/Mol_Feturizer/New_Systems/rnas/2bee

>  <Rbt.Executable>
rbdock ($Id: //depot/dev/client3/rdock/2013.1/src/exe/rbdock.cxx#4 $)

>  <Rbt.Library>
libRbt.so (2013.1, Build901 2013/11/27)

>  <Rbt.Parameter_File>
/export/apps/rDock/src/rDock_2013.1_src/data/scripts/dock_solv.prm

>  <Rbt.Receptor>
prm/pocket_docking_2.prm

>  <SCORE>
12.3954

>  <SCORE.INTER>
3.97112

>  <SCORE.INTER.CONST>
1

>  <SCORE.INTER.POLAR>
-0.604379

>  <SCORE.INTER.ROT>
16

>  <SCORE.INTER.SOLV>
12.6444

>  <SCORE.INTER.VDW>
-13.8195

>  <SCORE.INTER.norm>
0.0810432

>  <SCORE.INTRA>
0.943771

>  <SCORE.INTRA.DIHEDRAL>
-13.1049

>  <SCORE.INTRA.DIHEDRAL.0>
36.0842

>  <SCORE.INTRA.POLAR>
0

>  <SCORE.INTRA.POLAR.0>
0

>  <SCORE.INTRA.REPUL>
0.0315456

>  <SCORE.INTRA.REPUL.0>
0

>  <SCORE.INTRA.SOLV>
4.52224

>  <SCORE.INTRA.SOLV.lig_0>
-126.444

>  <SCORE.INTRA.VDW>
5.07736

>  <SCORE.INTRA.VDW.0>
-7.40469

>  <SCORE.INTRA.norm>
0.0192606

>  <SCORE.RESTR>
7.48055

>  <SCORE.RESTR.CAVITY>
7.48055

>  <SCORE.RESTR.norm>
0.152664

>  <SCORE.SYSTEM>
0

>  <SCORE.SYSTEM.CONST>
0

>  <SCORE.SYSTEM.DIHEDRAL>
0

>  <SCORE.SYSTEM.SOLV>
0

>  <SCORE.SYSTEM.norm>
0

>  <SCORE.heavy>
49

>  <SCORE.norm>
0.252968

>  <RMSD>
9.175

$$$$
2bee_lig
 OpenBabel11021811423D
libRbt.so/2013.1/901 2013/11/27
 49 52  0  0  0  0  0  0  0  0999 V2000
   40.2548    0.5728   -4.2435 C   0  0  2  0  0  0  0  0  0  0  0  0
   41.1902    1.5303   -3.7635 O   0  0  0  0  0  0  0  0  0  0  0  0
   39.0351    3.0865   -0.2552 C   0  0  2  0  0  0  0  0  0  0  0  0
   38.7741    3.8503    0.9951 N   0  0  0  0  0  0  0  0  0  0  0  0
   40.8418    5.0126   -4.0225 C   0  0  1  0  0  0  0  0  0  0  0  0
   44.9205    5.1433   -6.1750 C   0  0  1  0  0  0  0  0  0  0  0  0
   40.0362   10.7682   -1.3977 C   0  0  0  0  0  0  0  0  0  0  0  0
   40.9184   -0.3344   -5.3505 C   0  0  2  0  0  0  0  0  0  0  0  0
   42.1398   -0.9420   -4.8330 N   0  0  0  0  0  0  0  0  0  0  0  0
   40.3107    2.1500   -0.0462 C   0  0  0  0  0  0  0  0  0  0  0  0
   42.2184    5.5872   -3.9381 C   0  0  2  0  0  0  0  0  0  0  0  0
   42.2770    6.8227   -3.1379 O   0  0  0  0  0  0  0  0  0  0  0  0
   45.5806    6.4331   -5.4460 C   0  0  2  0  0  0  0  0  0  0  0  0
   45.3302    7.6355   -6.3089 N   0  0  0  0  0  0  0  0  0  0  0  0
   39.1511    9.6933   -1.1487 C   0  0  0  0  0  0  0  0  0  0  0  0
   39.1054    9.1102    0.1157 N   0  0  0  0  0  0  0  0  0  0  0  0
   41.2042    0.5427   -6.6470 C   0  0  1  0  0  0  0  0  0  0  0  0
   41.7969   -0.2830   -7.6390 O   0  0  0  0  0  0  0  0  0  0  0  0
   40.6388    1.3025   -1.4047 C   0  0  2  0  0  0  0  0  0  0  0  0
   41.7700    0.4571   -1.2253 N   0  0  0  0  0  0  0  0  0  0  0  0
   42.4974    5.5867   -5.4217 C   0  0  2  0  0  0  0  0  0  0  0  0
   43.5207    5.4761   -6.3358 O   0  0  0  0  0  0  0  0  0  0  0  0
   47.1212    6.1767   -5.2822 C   0  0  1  0  0  0  0  0  0  0  0  0
   47.2805    4.9988   -4.4168 O   0  0  0  0  0  0  0  0  0  0  0  0
   39.8743    1.1526   -7.1476 C   0  0  2  0  0  0  0  0  0  0  0  0
   40.0986    1.9939   -8.3509 O   0  0  0  0  0  0  0  0  0  0  0  0
   40.9031    2.2945   -2.6036 C   0  0  2  0  0  0  0  0  0  0  0  0
   41.0634    5.9490   -6.0540 C   0  0  2  0  0  0  0  0  0  0  0  0
   40.2208    5.2550   -5.2525 O   0  0  0  0  0  0  0  0  0  0  0  0
   47.7830    5.9345   -6.7543 C   0  0  2  0  0  0  0  0  0  0  0  0
   47.6143    7.1255   -7.6171 O   0  0  0  0  0  0  0  0  0  0  0  0
   39.2230    2.0452   -6.0391 C   0  0  2  0  0  0  0  0  0  0  0  0
   39.0438    1.1657   -4.8995 O   0  0  0  0  0  0  0  0  0  0  0  0
   39.6277    3.1891   -2.7634 C   0  0  2  0  0  0  0  0  0  0  0  0
   39.9595    4.0074   -3.8589 O   0  0  0  0  0  0  0  0  0  0  0  0
   40.7643    5.4746   -7.5242 C   0  0  0  0  0  0  0  0  0  0  0  0
   41.6970    6.1254   -8.4440 O   0  0  0  0  0  0  0  0  0  0  0  0
   47.0882    4.6912   -7.4689 C   0  0  1  0  0  0  0  0  0  0  0  0
   45.6062    4.9947   -7.5404 O   0  0  0  0  0  0  0  0  0  0  0  0
   37.9570    2.5618   -6.5923 C   0  0  0  0  0  0  0  0  0  0  0  0
   37.1072    1.5551   -6.8368 O   0  0  0  0  0  0  0  0  0  0  0  0
   39.3514    4.0247   -1.4413 C   0  0  1  0  0  0  0  0  0  0  0  0
   38.2086    4.8103   -1.5927 O   0  0  0  0  0  0  0  0  0  0  0  0
   43.4803    7.6464   -2.9367 C   0  0  0  0  0  0  0  0  0  0  0  0
   47.7832    4.5695   -8.8672 C   0  0  0  0  0  0  0  0  0  0  0  0
   49.1549    4.1585   -8.7762 N   0  0  0  0  0  0  0  0  0  0  0  0
   43.2365    8.6231   -1.7854 C   0  0  0  0  0  0  0  0  0  0  0  0
   42.0745    9.4490   -2.1672 N   0  0  0  0  0  0  0  0  0  0  0  0
   41.6026   10.5273   -1.1895 C   0  0  0  0  0  0  0  0  0  0  0  0
  1  2  1  6  0  0  0
  1  8  1  0  0  0  0
  1 33  1  0  0  0  0
  3  4  1  1  0  0  0
  3 10  1  0  0  0  0
  3 42  1  0  0  0  0
  5 11  1  0  0  0  0
  5 29  1  0  0  0  0
  5 35  1  6  0  0  0
  6 13  1  0  0  0  0
  6 39  1  0  0  0  0
  6 22  1  6  0  0  0
  7 15  1  0  0  0  0
  8  9  1  1  0  0  0
  8 17  1  0  0  0  0
 10 19  1  0  0  0  0
 11 12  1  6  0  0  0
 11 21  1  0  0  0  0
 12 44  1  0  0  0  0
 13 14  1  6  0  0  0
 13 23  1  0  0  0  0
 15 16  1  0  0  0  0
 17 18  1  6  0  0  0
 17 25  1  0  0  0  0
 19 20  1  1  0  0  0
 19 27  1  0  0  0  0
 21 22  1  1  0  0  0
 21 28  1  0  0  0  0
 23 24  1  1  0  0  0
 23 30  1  0  0  0  0
 25 26  1  6  0  0  0
 25 32  1  0  0  0  0
 27  2  1  6  0  0  0
 27 34  1  0  0  0  0
 28 29  1  0  0  0  0
 28 36  1  6  0  0  0
 30 31  1  6  0  0  0
 30 38  1  0  0  0  0
 32 33  1  0  0  0  0
 32 40  1  6  0  0  0
 34 35  1  6  0  0  0
 34 42  1  0  0  0  0
 36 37  1  0  0  0  0
 38 39  1  0  0  0  0
 38 45  1  6  0  0  0
 40 41  1  0  0  0  0
 42 43  1  6  0  0  0
 44 47  1  0  0  0  0
 45 46  1  0  0  0  0
 47 48  1  0  0  0  0
 48 49  1  0  0  0  0
 49  7  1  0  0  0  0
M  END
>  <CHROM.1>
-168.62852014,52.97920239,-71.21232931,59.56589977,-176.70945883,-165.81845161
7.77731336,57.72209001,-63.10923156,63.80977893,-69.91792489,68.44012487
-59.34517048,-179.89039158,-151.99913877,62.44847621,41.99883986,4.48757473
-4.57015913,3.12258315,0.61344990,0.57203672

>  <Name>
2bee_lig

>  <RI>
0

>  <Rbt.Current_Directory>
/home/itssahil/PROJECTS/Mol_Feturizer/New_Systems/rnas/2bee

>  <Rbt.Executable>
rbdock ($Id: //depot/dev/client3/rdock/2013.1/src/exe/rbdock.cxx#4 $)

>  <Rbt.Library>
libRbt.so (2013.1, Build901 2013/11/27)

>  <Rbt.Parameter_File>
/export/apps/rDock/src/rDock_2013.1_src/data/scripts/dock_solv.prm

>  <Rbt.Receptor>
prm/pocket_docking_5.prm

>  <SCORE>
-15.0779

>  <SCORE.INTER>
-1.14685

>  <SCORE.INTER.CONST>
1

>  <SCORE.INTER.POLAR>
-0.747994

>  <SCORE.INTER.ROT>
16

>  <SCORE.INTER.SOLV>
16.9018

>  <SCORE.INTER.VDW>
-18.1719

>  <SCORE.INTER.norm>
-0.023405

>  <SCORE.INTRA>
-13.9311

>  <SCORE.INTRA.DIHEDRAL>
-28.3884

>  <SCORE.INTRA.DIHEDRAL.0>
36.0842

>  <SCORE.INTRA.POLAR>
0

>  <SCORE.INTRA.POLAR.0>
0

>  <SCORE.INTRA.REPUL>
0

>  <SCORE.INTRA.REPUL.0>
0

>  <SCORE.INTRA.SOLV>
-0.349239

>  <SCORE.INTRA.SOLV.lig_0>
-126.444

>  <SCORE.INTRA.VDW>
0.437747

>  <SCORE.INTRA.VDW.0>
-7.40469

>  <SCORE.INTRA.norm>
-0.284307

>  <SCORE.RESTR>
0

>  <SCORE.RESTR.CAVITY>
0

>  <SCORE.RESTR.norm>
0

>  <SCORE.SYSTEM>
0

>  <SCORE.SYSTEM.CONST>
0

>  <SCORE.SYSTEM.DIHEDRAL>
0

>  <SCORE.SYSTEM.SOLV>
0

>  <SCORE.SYSTEM.norm>
0

>  <SCORE.heavy>
49

>  <SCORE.norm>
-0.307712

>  <RMSD>
9.180

$$$$
2bee_lig
 OpenBabel11021811423D
libRbt.so/2013.1/901 2013/11/27
 49 52  0  0  0  0  0  0  0  0999 V2000
   41.0358    5.6800   -2.9568 C   0  0  2  0  0  0  0  0  0  0  0  0
   40.9720    4.7245   -1.9056 O   0  0  0  0  0  0  0  0  0  0  0  0
   38.1744    1.4162   -1.1293 C   0  0  2  0  0  0  0  0  0  0  0  0
   36.9096    0.7111   -0.7857 N   0  0  0  0  0  0  0  0  0  0  0  0
   39.7207    3.6998   -5.1652 C   0  0  1  0  0  0  0  0  0  0  0  0
   41.8286    0.0608   -6.8966 C   0  0  1  0  0  0  0  0  0  0  0  0
   39.6245    1.5047  -10.1067 C   0  0  0  0  0  0  0  0  0  0  0  0
   42.5154    6.1960   -3.1393 C   0  0  2  0  0  0  0  0  0  0  0  0
   43.4174    5.0671   -3.3411 N   0  0  0  0  0  0  0  0  0  0  0  0
   38.5591    2.4179    0.0524 C   0  0  0  0  0  0  0  0  0  0  0  0
   40.7895    3.3999   -6.1653 C   0  0  2  0  0  0  0  0  0  0  0  0
   41.0151    4.5045   -7.1135 O   0  0  0  0  0  0  0  0  0  0  0  0
   41.5675   -1.3339   -7.6825 C   0  0  2  0  0  0  0  0  0  0  0  0
   40.3268   -1.9623   -7.1177 N   0  0  0  0  0  0  0  0  0  0  0  0
   39.2802    0.3245  -10.8062 C   0  0  0  0  0  0  0  0  0  0  0  0
   38.4901    0.4015  -11.9510 N   0  0  0  0  0  0  0  0  0  0  0  0
   42.9317    7.0587   -1.8687 C   0  0  1  0  0  0  0  0  0  0  0  0
   44.2626    7.5225   -2.0440 O   0  0  0  0  0  0  0  0  0  0  0  0
   39.9387    3.2231   -0.2938 C   0  0  2  0  0  0  0  0  0  0  0  0
   40.2952    4.1128    0.7587 N   0  0  0  0  0  0  0  0  0  0  0  0
   40.2387    2.0676   -6.6129 C   0  0  2  0  0  0  0  0  0  0  0  0
   40.6249    0.8392   -7.0996 O   0  0  0  0  0  0  0  0  0  0  0  0
   42.8121   -2.2667   -7.4655 C   0  0  1  0  0  0  0  0  0  0  0  0
   43.9760   -1.5900   -8.0564 O   0  0  0  0  0  0  0  0  0  0  0  0
   41.9437    8.2380   -1.7130 C   0  0  2  0  0  0  0  0  0  0  0  0
   42.2875    9.0624   -0.5263 O   0  0  0  0  0  0  0  0  0  0  0  0
   39.7627    4.0337   -1.6366 C   0  0  2  0  0  0  0  0  0  0  0  0
   38.6485    2.3050   -6.5645 C   0  0  2  0  0  0  0  0  0  0  0  0
   38.5114    3.0542   -5.4446 O   0  0  0  0  0  0  0  0  0  0  0  0
   43.0151   -2.5253   -5.8670 C   0  0  2  0  0  0  0  0  0  0  0  0
   41.8365   -3.2044   -5.2829 O   0  0  0  0  0  0  0  0  0  0  0  0
   40.4792    7.7137   -1.5388 C   0  0  2  0  0  0  0  0  0  0  0  0
   40.2184    6.9148   -2.7211 O   0  0  0  0  0  0  0  0  0  0  0  0
   39.3841    3.0085   -2.7583 C   0  0  2  0  0  0  0  0  0  0  0  0
   39.2764    3.8248   -3.8993 O   0  0  0  0  0  0  0  0  0  0  0  0
   37.7206    1.0491   -6.3711 C   0  0  0  0  0  0  0  0  0  0  0  0
   37.9164    0.1238   -7.4869 O   0  0  0  0  0  0  0  0  0  0  0  0
   43.2247   -1.1386   -5.1105 C   0  0  1  0  0  0  0  0  0  0  0  0
   42.0115   -0.2836   -5.4117 O   0  0  0  0  0  0  0  0  0  0  0  0
   39.6095    8.8993   -1.4223 C   0  0  0  0  0  0  0  0  0  0  0  0
   39.6960    9.4249   -0.1928 O   0  0  0  0  0  0  0  0  0  0  0  0
   38.0243    2.2648   -2.4116 C   0  0  1  0  0  0  0  0  0  0  0  0
   37.7024    1.3485   -3.4132 O   0  0  0  0  0  0  0  0  0  0  0  0
   42.1536    4.6065   -8.0411 C   0  0  0  0  0  0  0  0  0  0  0  0
   43.3860   -1.5072   -3.5968 C   0  0  0  0  0  0  0  0  0  0  0  0
   43.6421   -0.3650   -2.7672 N   0  0  0  0  0  0  0  0  0  0  0  0
   42.0776    3.4684   -9.0600 C   0  0  0  0  0  0  0  0  0  0  0  0
   40.8754    3.7118   -9.8806 N   0  0  0  0  0  0  0  0  0  0  0  0
   40.4523    2.6327  -10.8796 C   0  0  0  0  0  0  0  0  0  0  0  0
  1  2  1  1  0  0  0
  1  8  1  0  0  0  0
  1 33  1  0  0  0  0
  3  4  1  1  0  0  0
  3 10  1  0  0  0  0
  3 42  1  0  0  0  0
  5 11  1  0  0  0  0
  5 29  1  0  0  0  0
  5 35  1  1  0  0  0
  6 13  1  0  0  0  0
  6 39  1  0  0  0  0
  6 22  1  1  0  0  0
  7 15  1  0  0  0  0
  8  9  1  1  0  0  0
  8 17  1  0  0  0  0
 10 19  1  0  0  0  0
 11 12  1  6  0  0  0
 11 21  1  0  0  0  0
 12 44  1  0  0  0  0
 13 14  1  1  0  0  0
 13 23  1  0  0  0  0
 15 16  1  0  0  0  0
 17 18  1  6  0  0  0
 17 25  1  0  0  0  0
 19 20  1  1  0  0  0
 19 27  1  0  0  0  0
 21 22  1  6  0  0  0
 21 28  1  0  0  0  0
 23 24  1  1  0  0  0
 23 30  1  0  0  0  0
 25 26  1  1  0  0  0
 25 32  1  0  0  0  0
 27  2  1  6  0  0  0
 27 34  1  0  0  0  0
 28 29  1  0  0  0  0
 28 36  1  1  0  0  0
 30 31  1  1  0  0  0
 30 38  1  0  0  0  0
 32 33  1  0  0  0  0
 32 40  1  6  0  0  0
 34 35  1  6  0  0  0
 34 42  1  0  0  0  0
 36 37  1  0  0  0  0
 38 39  1  0  0  0  0
 38 45  1  1  0  0  0
 40 41  1  0  0  0  0
 42 43  1  6  0  0  0
 44 47  1  0  0  0  0
 45 46  1  0  0  0  0
 47 48  1  0  0  0  0
 48 49  1  0  0  0  0
 49  7  1  0  0  0  0
M  END
>  <CHROM.1>
-174.42976307,-47.44188422,175.95096275,-60.13595024,168.07756883,64.95118710
30.67385842,-171.31818299,-60.95169520,-77.66298004,134.99481689,177.53925360
66.30683808,-172.72279924,81.94378271,-172.09980513,40.67456085,2.76476040
-4.75527562,-1.73011659,-1.50516313,-2.53172662

>  <Name>
2bee_lig

>  <RI>
0

>  <Rbt.Current_Directory>
/home/itssahil/PROJECTS/Mol_Feturizer/New_Systems/rnas/2bee

>  <Rbt.Executable>
rbdock ($Id: //depot/dev/client3/rdock/2013.1/src/exe/rbdock.cxx#4 $)

>  <Rbt.Library>
libRbt.so (2013.1, Build901 2013/11/27)

>  <Rbt.Parameter_File>
/export/apps/rDock/src/rDock_2013.1_src/data/scripts/dock_solv.prm

>  <Rbt.Receptor>
prm/pocket_docking_7.prm

>  <SCORE>
-13.328

>  <SCORE.INTER>
-1.92579

>  <SCORE.INTER.CONST>
1

>  <SCORE.INTER.POLAR>
-0.918217

>  <SCORE.INTER.ROT>
16

>  <SCORE.INTER.SOLV>
8.59476

>  <SCORE.INTER.VDW>
-15.3547

>  <SCORE.INTER.norm>
-0.0393018

>  <SCORE.INTRA>
-11.4023

>  <SCORE.INTRA.DIHEDRAL>
-21.2278

>  <SCORE.INTRA.DIHEDRAL.0>
36.0842

>  <SCORE.INTRA.POLAR>
0

>  <SCORE.INTRA.POLAR.0>
0

>  <SCORE.INTRA.REPUL>
0

>  <SCORE.INTRA.REPUL.0>
0

>  <SCORE.INTRA.SOLV>
-0.941669

>  <SCORE.INTRA.SOLV.lig_0>
-126.444

>  <SCORE.INTRA.VDW>
-0.317545

>  <SCORE.INTRA.VDW.0>
-7.40469

>  <SCORE.INTRA.norm>
-0.232699

>  <SCORE.RESTR>
0

>  <SCORE.RESTR.CAVITY>
0

>  <SCORE.RESTR.norm>
0

>  <SCORE.SYSTEM>
0

>  <SCORE.SYSTEM.CONST>
0

>  <SCORE.SYSTEM.DIHEDRAL>
0

>  <SCORE.SYSTEM.SOLV>
0

>  <SCORE.SYSTEM.norm>
0

>  <SCORE.heavy>
49

>  <SCORE.norm>
-0.272001

>  <RMSD>
9.181

$$$$
2bee_lig
 OpenBabel11021811423D
libRbt.so/2013.1/901 2013/11/27
 49 52  0  0  0  0  0  0  0  0999 V2000
   41.7609    5.9123    0.1713 C   0  0  2  0  0  0  0  0  0  0  0  0
   41.3190    4.6361    0.6163 O   0  0  0  0  0  0  0  0  0  0  0  0
   41.9597    0.6424   -1.1199 C   0  0  2  0  0  0  0  0  0  0  0  0
   41.8238   -0.5124   -2.0487 N   0  0  0  0  0  0  0  0  0  0  0  0
   43.9509    4.5002   -2.4929 C   0  0  1  0  0  0  0  0  0  0  0  0
   43.1563    5.5746   -6.9183 C   0  0  1  0  0  0  0  0  0  0  0  0
   47.6092    4.1124   -7.9722 C   0  0  0  0  0  0  0  0  0  0  0  0
   42.3640    6.7340    1.3755 C   0  0  2  0  0  0  0  0  0  0  0  0
   43.4164    5.9636    2.0292 N   0  0  0  0  0  0  0  0  0  0  0  0
   40.5216    1.0325   -0.5474 C   0  0  0  0  0  0  0  0  0  0  0  0
   44.4136    4.2518   -3.8918 C   0  0  2  0  0  0  0  0  0  0  0  0
   45.8243    3.8337   -3.9644 O   0  0  0  0  0  0  0  0  0  0  0  0
   41.6338    6.0478   -7.2171 C   0  0  2  0  0  0  0  0  0  0  0  0
   40.7650    5.5599   -6.0945 N   0  0  0  0  0  0  0  0  0  0  0  0
   48.6099    5.0858   -8.1998 C   0  0  0  0  0  0  0  0  0  0  0  0
   48.3581    6.4232   -7.9017 N   0  0  0  0  0  0  0  0  0  0  0  0
   41.1980    7.1117    2.3902 C   0  0  1  0  0  0  0  0  0  0  0  0
   41.7492    7.8547    3.4678 O   0  0  0  0  0  0  0  0  0  0  0  0
   40.6267    2.3082    0.4689 C   0  0  2  0  0  0  0  0  0  0  0  0
   39.3499    2.6581    0.9921 N   0  0  0  0  0  0  0  0  0  0  0  0
   43.9432    5.5665   -4.4656 C   0  0  2  0  0  0  0  0  0  0  0  0
   43.4814    6.1430   -5.6272 O   0  0  0  0  0  0  0  0  0  0  0  0
   41.1791    5.4237   -8.5845 C   0  0  1  0  0  0  0  0  0  0  0  0
   42.0651    5.9602   -9.6280 O   0  0  0  0  0  0  0  0  0  0  0  0
   40.1203    7.9287    1.6402 C   0  0  2  0  0  0  0  0  0  0  0  0
   39.0028    8.2897    2.5494 O   0  0  0  0  0  0  0  0  0  0  0  0
   41.2468    3.5463   -0.2887 C   0  0  2  0  0  0  0  0  0  0  0  0
   44.2100    6.5973   -3.2599 C   0  0  2  0  0  0  0  0  0  0  0  0
   43.8592    5.8605   -2.1791 O   0  0  0  0  0  0  0  0  0  0  0  0
   41.2782    3.7974   -8.4901 C   0  0  2  0  0  0  0  0  0  0  0  0
   40.3842    3.2693   -7.4350 O   0  0  0  0  0  0  0  0  0  0  0  0
   39.5343    7.1056    0.4449 C   0  0  2  0  0  0  0  0  0  0  0  0
   40.6758    6.7819   -0.3897 O   0  0  0  0  0  0  0  0  0  0  0  0
   42.6498    3.1108   -0.8312 C   0  0  2  0  0  0  0  0  0  0  0  0
   43.1151    4.2809   -1.4591 O   0  0  0  0  0  0  0  0  0  0  0  0
   43.3393    7.9066   -3.2024 C   0  0  0  0  0  0  0  0  0  0  0  0
   43.8790    8.8048   -2.1819 O   0  0  0  0  0  0  0  0  0  0  0  0
   42.7722    3.3589   -8.1516 C   0  0  1  0  0  0  0  0  0  0  0  0
   43.1491    4.0408   -6.8530 O   0  0  0  0  0  0  0  0  0  0  0  0
   38.5390    7.9659   -0.2221 C   0  0  0  0  0  0  0  0  0  0  0  0
   37.5012    8.2000    0.5925 O   0  0  0  0  0  0  0  0  0  0  0  0
   42.5145    1.8916   -1.8400 C   0  0  1  0  0  0  0  0  0  0  0  0
   43.7709    1.5074   -2.3094 O   0  0  0  0  0  0  0  0  0  0  0  0
   46.2976    2.4399   -3.9444 C   0  0  0  0  0  0  0  0  0  0  0  0
   42.7408    1.7953   -8.0660 C   0  0  0  0  0  0  0  0  0  0  0  0
   44.0231    1.2257   -7.7665 N   0  0  0  0  0  0  0  0  0  0  0  0
   47.7266    2.3845   -4.4865 C   0  0  0  0  0  0  0  0  0  0  0  0
   47.6343    2.5666   -5.9482 N   0  0  0  0  0  0  0  0  0  0  0  0
   47.0869    3.8938   -6.4775 C   0  0  0  0  0  0  0  0  0  0  0  0
  1  2  1  1  0  0  0
  1  8  1  0  0  0  0
  1 33  1  0  0  0  0
  3  4  1  6  0  0  0
  3 10  1  0  0  0  0
  3 42  1  0  0  0  0
  5 11  1  0  0  0  0
  5 29  1  0  0  0  0
  5 35  1  6  0  0  0
  6 13  1  0  0  0  0
  6 39  1  0  0  0  0
  6 22  1  1  0  0  0
  7 15  1  0  0  0  0
  8  9  1  1  0  0  0
  8 17  1  0  0  0  0
 10 19  1  0  0  0  0
 11 12  1  1  0  0  0
 11 21  1  0  0  0  0
 12 44  1  0  0  0  0
 13 14  1  1  0  0  0
 13 23  1  0  0  0  0
 15 16  1  0  0  0  0
 17 18  1  1  0  0  0
 17 25  1  0  0  0  0
 19 20  1  6  0  0  0
 19 27  1  0  0  0  0
 21 22  1  6  0  0  0
 21 28  1  0  0  0  0
 23 24  1  6  0  0  0
 23 30  1  0  0  0  0
 25 26  1  1  0  0  0
 25 32  1  0  0  0  0
 27  2  1  1  0  0  0
 27 34  1  0  0  0  0
 28 29  1  0  0  0  0
 28 36  1  6  0  0  0
 30 31  1  1  0  0  0
 30 38  1  0  0  0  0
 32 33  1  0  0  0  0
 32 40  1  6  0  0  0
 34 35  1  6  0  0  0
 34 42  1  0  0  0  0
 36 37  1  0  0  0  0
 38 39  1  0  0  0  0
 38 45  1  1  0  0  0
 40 41  1  0  0  0  0
 42 43  1  1  0  0  0
 44 47  1  0  0  0  0
 45 46  1  0  0  0  0
 47 48  1  0  0  0  0
 48 49  1  0  0  0  0
 49  7  1  0  0  0  0
M  END
>  <CHROM.1>
-154.63205378,49.75018643,125.51339608,-61.40826439,91.50012851,161.65717482
4.78994397,-175.88741976,-170.58510977,-65.76025349,-151.50399162,179.89931206
-74.25210673,63.31842234,157.30328204,-107.11172738,42.81023933,4.75761790
-3.16381376,2.55684327,-1.00486577,2.21192810

>  <Name>
2bee_lig

>  <RI>
3.46266e+07

>  <Rbt.Current_Directory>
/home/itssahil/PROJECTS/Mol_Feturizer/New_Systems/rnas/2bee

>  <Rbt.Executable>
rbdock ($Id: //depot/dev/client3/rdock/2013.1/src/exe/rbdock.cxx#4 $)

>  <Rbt.Library>
libRbt.so (2013.1, Build901 2013/11/27)

>  <Rbt.Parameter_File>
/export/apps/rDock/src/rDock_2013.1_src/data/scripts/dock_solv.prm

>  <Rbt.Receptor>
prm/pocket_docking_4.prm

>  <SCORE>
-0.0118051

>  <SCORE.INTER>
1.91491

>  <SCORE.INTER.CONST>
1

>  <SCORE.INTER.POLAR>
0

>  <SCORE.INTER.ROT>
16

>  <SCORE.INTER.SOLV>
18.0176

>  <SCORE.INTER.VDW>
-18.9959

>  <SCORE.INTER.norm>
0.0390798

>  <SCORE.INTRA>
-1.93703

>  <SCORE.INTRA.DIHEDRAL>
-7.07044

>  <SCORE.INTRA.DIHEDRAL.0>
36.0842

>  <SCORE.INTRA.POLAR>
0

>  <SCORE.INTRA.POLAR.0>
0

>  <SCORE.INTRA.REPUL>
0

>  <SCORE.INTRA.REPUL.0>
0

>  <SCORE.INTRA.SOLV>
-2.19829

>  <SCORE.INTRA.SOLV.lig_0>
-126.444

>  <SCORE.INTRA.VDW>
2.69734

>  <SCORE.INTRA.VDW.0>
-7.40469

>  <SCORE.INTRA.norm>
-0.0395311

>  <SCORE.RESTR>
0.0103088

>  <SCORE.RESTR.CAVITY>
0.0103088

>  <SCORE.RESTR.norm>
0.000210384

>  <SCORE.SYSTEM>
0

>  <SCORE.SYSTEM.CONST>
0

>  <SCORE.SYSTEM.DIHEDRAL>
0

>  <SCORE.SYSTEM.SOLV>
0

>  <SCORE.SYSTEM.norm>
0

>  <SCORE.heavy>
49

>  <SCORE.norm>
-0.00024092

>  <RMSD>
9.194

$$$$
2bee_lig
 OpenBabel11021811423D
libRbt.so/2013.1/901 2013/11/27
 49 52  0  0  0  0  0  0  0  0999 V2000
   41.9308    9.7571    0.5290 C   0  0  2  0  0  0  0  0  0  0  0  0
   42.0028    9.8460    1.9464 O   0  0  0  0  0  0  0  0  0  0  0  0
   40.9404    6.7864    4.9270 C   0  0  2  0  0  0  0  0  0  0  0  0
   40.1012    5.9394    5.8177 N   0  0  0  0  0  0  0  0  0  0  0  0
   41.0970    6.2494    0.3334 C   0  0  1  0  0  0  0  0  0  0  0  0
   40.7455    5.3741   -4.3709 C   0  0  1  0  0  0  0  0  0  0  0  0
   35.4827    1.7191   -1.8399 C   0  0  0  0  0  0  0  0  0  0  0  0
   42.8501   10.8531   -0.1362 C   0  0  2  0  0  0  0  0  0  0  0  0
   44.2127   10.7388    0.3725 N   0  0  0  0  0  0  0  0  0  0  0  0
   40.6578    8.3256    5.2412 C   0  0  0  0  0  0  0  0  0  0  0  0
   40.3012    5.2790   -0.4777 C   0  0  2  0  0  0  0  0  0  0  0  0
   40.5299    3.8780   -0.0838 O   0  0  0  0  0  0  0  0  0  0  0  0
   39.7034    5.8983   -5.4980 C   0  0  2  0  0  0  0  0  0  0  0  0
   38.3257    5.4523   -5.1028 N   0  0  0  0  0  0  0  0  0  0  0  0
   34.7336    0.7217   -1.1730 C   0  0  0  0  0  0  0  0  0  0  0  0
   34.5941   -0.5408   -1.7452 N   0  0  0  0  0  0  0  0  0  0  0  0
   42.2382   12.2945    0.1465 C   0  0  1  0  0  0  0  0  0  0  0  0
   43.0693   13.2737   -0.4596 O   0  0  0  0  0  0  0  0  0  0  0  0
   41.5528    9.2908    4.2721 C   0  0  2  0  0  0  0  0  0  0  0  0
   41.3144   10.6662    4.5510 N   0  0  0  0  0  0  0  0  0  0  0  0
   40.7171    5.8027   -1.8310 C   0  0  2  0  0  0  0  0  0  0  0  0
   40.2727    5.9429   -3.1264 O   0  0  0  0  0  0  0  0  0  0  0  0
   40.1140    5.2779   -6.8809 C   0  0  1  0  0  0  0  0  0  0  0  0
   41.4609    5.7726   -7.2013 O   0  0  0  0  0  0  0  0  0  0  0  0
   40.8002   12.3528   -0.4191 C   0  0  2  0  0  0  0  0  0  0  0  0
   40.1845   13.6798   -0.1622 O   0  0  0  0  0  0  0  0  0  0  0  0
   41.2164    8.9904    2.7596 C   0  0  2  0  0  0  0  0  0  0  0  0
   42.2522    6.2212   -1.5948 C   0  0  2  0  0  0  0  0  0  0  0  0
   42.2088    6.7533   -0.3502 O   0  0  0  0  0  0  0  0  0  0  0  0
   40.0830    3.6501   -6.7677 C   0  0  2  0  0  0  0  0  0  0  0  0
   38.7231    3.1641   -6.4424 O   0  0  0  0  0  0  0  0  0  0  0  0
   39.8999   11.2574    0.2438 C   0  0  2  0  0  0  0  0  0  0  0  0
   40.5636    9.9986   -0.0375 O   0  0  0  0  0  0  0  0  0  0  0  0
   41.5066    7.4725    2.5061 C   0  0  2  0  0  0  0  0  0  0  0  0
   41.1995    7.3229    1.1411 O   0  0  0  0  0  0  0  0  0  0  0  0
   42.8664    7.3299   -2.5272 C   0  0  0  0  0  0  0  0  0  0  0  0
   44.3165    7.3734   -2.3404 O   0  0  0  0  0  0  0  0  0  0  0  0
   41.0801    3.1619   -5.6246 C   0  0  1  0  0  0  0  0  0  0  0  0
   40.6487    3.8423   -4.3422 O   0  0  0  0  0  0  0  0  0  0  0  0
   38.5631   11.3712   -0.3692 C   0  0  0  0  0  0  0  0  0  0  0  0
   37.7022   10.5345    0.2259 O   0  0  0  0  0  0  0  0  0  0  0  0
   40.6011    6.5584    3.4372 C   0  0  1  0  0  0  0  0  0  0  0  0
   40.8749    5.2097    3.2085 O   0  0  0  0  0  0  0  0  0  0  0  0
   39.7860    2.7189   -0.6038 C   0  0  0  0  0  0  0  0  0  0  0  0
   40.9508    1.6013   -5.5941 C   0  0  0  0  0  0  0  0  0  0  0  0
   41.4104    0.9783   -6.8020 N   0  0  0  0  0  0  0  0  0  0  0  0
   38.3405    2.7838   -0.1085 C   0  0  0  0  0  0  0  0  0  0  0  0
   37.6794    1.5450   -0.5627 N   0  0  0  0  0  0  0  0  0  0  0  0
   37.0646    1.5265   -1.9638 C   0  0  0  0  0  0  0  0  0  0  0  0
  1  2  1  1  0  0  0
  1  8  1  0  0  0  0
  1 33  1  0  0  0  0
  3  4  1  1  0  0  0
  3 10  1  0  0  0  0
  3 42  1  0  0  0  0
  5 11  1  0  0  0  0
  5 29  1  0  0  0  0
  5 35  1  6  0  0  0
  6 13  1  0  0  0  0
  6 39  1  0  0  0  0
  6 22  1  1  0  0  0
  7 15  1  0  0  0  0
  8  9  1  1  0  0  0
  8 17  1  0  0  0  0
 10 19  1  0  0  0  0
 11 12  1  6  0  0  0
 11 21  1  0  0  0  0
 12 44  1  0  0  0  0
 13 14  1  1  0  0  0
 13 23  1  0  0  0  0
 15 16  1  0  0  0  0
 17 18  1  6  0  0  0
 17 25  1  0  0  0  0
 19 20  1  1  0  0  0
 19 27  1  0  0  0  0
 21 22  1  6  0  0  0
 21 28  1  0  0  0  0
 23 24  1  1  0  0  0
 23 30  1  0  0  0  0
 25 26  1  1  0  0  0
 25 32  1  0  0  0  0
 27  2  1  6  0  0  0
 27 34  1  0  0  0  0
 28 29  1  0  0  0  0
 28 36  1  6  0  0  0
 30 31  1  1  0  0  0
 30 38  1  0  0  0  0
 32 33  1  0  0  0  0
 32 40  1  6  0  0  0
 34 35  1  6  0  0  0
 34 42  1  0  0  0  0
 36 37  1  0  0  0  0
 38 39  1  0  0  0  0
 38 45  1  1  0  0  0
 40 41  1  0  0  0  0
 42 43  1  6  0  0  0
 44 47  1  0  0  0  0
 45 46  1  0  0  0  0
 47 48  1  0  0  0  0
 48 49  1  0  0  0  0
 49  7  1  0  0  0  0
M  END
>  <CHROM.1>
177.54758145,108.49555925,176.84436461,-68.53702775,173.26420659,-67.89413618
-115.88192433,177.96783896,-168.64746475,-174.98640681,-171.68770959,65.01797431
-175.27709423,-86.38082024,-101.40866381,-63.96029772,40.40324397,6.58746622
-0.93504849,-0.98094714,-1.10198829,-1.94097561

>  <Name>
2bee_lig

>  <RI>
0

>  <Rbt.Current_Directory>
/home/itssahil/PROJECTS/Mol_Feturizer/New_Systems/rnas/2bee

>  <Rbt.Executable>
rbdock ($Id: //depot/dev/client3/rdock/2013.1/src/exe/rbdock.cxx#4 $)

>  <Rbt.Library>
libRbt.so (2013.1, Build901 2013/11/27)

>  <Rbt.Parameter_File>
/export/apps/rDock/src/rDock_2013.1_src/data/scripts/dock_solv.prm

>  <Rbt.Receptor>
prm/pocket_docking_8.prm

>  <SCORE>
-18.6961

>  <SCORE.INTER>
-6.86088

>  <SCORE.INTER.CONST>
1

>  <SCORE.INTER.POLAR>
-0.953288

>  <SCORE.INTER.ROT>
16

>  <SCORE.INTER.SOLV>
19.1824

>  <SCORE.INTER.VDW>
-22.0571

>  <SCORE.INTER.norm>
-0.140018

>  <SCORE.INTRA>
-11.8352

>  <SCORE.INTRA.DIHEDRAL>
-23.9706

>  <SCORE.INTRA.DIHEDRAL.0>
36.0842

>  <SCORE.INTRA.POLAR>
0

>  <SCORE.INTRA.POLAR.0>
0

>  <SCORE.INTRA.REPUL>
0

>  <SCORE.INTRA.REPUL.0>
0

>  <SCORE.INTRA.SOLV>
-3.9735

>  <SCORE.INTRA.SOLV.lig_0>
-126.444

>  <SCORE.INTRA.VDW>
2.13685

>  <SCORE.INTRA.VDW.0>
-7.40469

>  <SCORE.INTRA.norm>
-0.241535

>  <SCORE.RESTR>
0

>  <SCORE.RESTR.CAVITY>
0

>  <SCORE.RESTR.norm>
0

>  <SCORE.SYSTEM>
0

>  <SCORE.SYSTEM.CONST>
0

>  <SCORE.SYSTEM.DIHEDRAL>
0

>  <SCORE.SYSTEM.SOLV>
0

>  <SCORE.SYSTEM.norm>
0

>  <SCORE.heavy>
49

>  <SCORE.norm>
-0.381553

>  <RMSD>
9.197

$$$$
2bee_lig
 OpenBabel11021811423D
libRbt.so/2013.1/901 2013/11/27
 49 52  0  0  0  0  0  0  0  0999 V2000
   40.1391    5.7084    1.6895 C   0  0  2  0  0  0  0  0  0  0  0  0
   41.5017    5.4061    1.9618 O   0  0  0  0  0  0  0  0  0  0  0  0
   43.3982    6.6135   -1.8223 C   0  0  2  0  0  0  0  0  0  0  0  0
   44.4641    6.9951   -2.7883 N   0  0  0  0  0  0  0  0  0  0  0  0
   42.5087    2.2695   -0.2190 C   0  0  1  0  0  0  0  0  0  0  0  0
   43.7211    1.7635   -4.4849 C   0  0  1  0  0  0  0  0  0  0  0  0
   40.5925   -4.4411   -0.7773 C   0  0  0  0  0  0  0  0  0  0  0  0
   39.2506    5.4278    2.9626 C   0  0  2  0  0  0  0  0  0  0  0  0
   39.7770    6.1582    4.1106 N   0  0  0  0  0  0  0  0  0  0  0  0
   43.4456    7.5979   -0.5667 C   0  0  0  0  0  0  0  0  0  0  0  0
   41.9033    1.2868   -1.1680 C   0  0  2  0  0  0  0  0  0  0  0  0
   41.2973    0.1294   -0.4871 O   0  0  0  0  0  0  0  0  0  0  0  0
   43.9074    0.7801   -5.7613 C   0  0  2  0  0  0  0  0  0  0  0  0
   45.0373   -0.1620   -5.4633 N   0  0  0  0  0  0  0  0  0  0  0  0
   40.8720   -5.7025   -0.2017 C   0  0  0  0  0  0  0  0  0  0  0  0
   40.1707   -6.8295   -0.6246 N   0  0  0  0  0  0  0  0  0  0  0  0
   39.2042    3.8610    3.2361 C   0  0  1  0  0  0  0  0  0  0  0  0
   38.3988    3.6179    4.3804 O   0  0  0  0  0  0  0  0  0  0  0  0
   42.2962    7.2025    0.5260 C   0  0  2  0  0  0  0  0  0  0  0  0
   42.3245    8.0808    1.6459 N   0  0  0  0  0  0  0  0  0  0  0  0
   43.1119    1.1412   -2.0607 C   0  0  2  0  0  0  0  0  0  0  0  0
   43.4776    0.8824   -3.3623 O   0  0  0  0  0  0  0  0  0  0  0  0
   44.2329    1.6585   -7.0217 C   0  0  1  0  0  0  0  0  0  0  0  0
   43.0776    2.5377   -7.2540 O   0  0  0  0  0  0  0  0  0  0  0  0
   38.6344    3.1469    1.9884 C   0  0  2  0  0  0  0  0  0  0  0  0
   38.5882    1.6769    2.1958 O   0  0  0  0  0  0  0  0  0  0  0  0
   42.5088    5.7161    1.0123 C   0  0  2  0  0  0  0  0  0  0  0  0
   44.3360    1.2348   -1.0213 C   0  0  2  0  0  0  0  0  0  0  0  0
   43.9046    2.1926   -0.1665 O   0  0  0  0  0  0  0  0  0  0  0  0
   45.5930    2.5154   -6.7402 C   0  0  2  0  0  0  0  0  0  0  0  0
   46.7482    1.6200   -6.5053 O   0  0  0  0  0  0  0  0  0  0  0  0
   39.5207    3.4376    0.7315 C   0  0  2  0  0  0  0  0  0  0  0  0
   39.5282    4.8820    0.5976 O   0  0  0  0  0  0  0  0  0  0  0  0
   42.4570    4.7955   -0.2535 C   0  0  2  0  0  0  0  0  0  0  0  0
   42.6315    3.5102    0.2919 O   0  0  0  0  0  0  0  0  0  0  0  0
   45.7294    1.7236   -1.5646 C   0  0  0  0  0  0  0  0  0  0  0  0
   46.2576    0.7363   -2.5056 O   0  0  0  0  0  0  0  0  0  0  0  0
   45.4017    3.4397   -5.4563 C   0  0  1  0  0  0  0  0  0  0  0  0
   45.0415    2.5254   -4.3039 O   0  0  0  0  0  0  0  0  0  0  0  0
   38.8929    2.7413   -0.4072 C   0  0  0  0  0  0  0  0  0  0  0  0
   39.5298    3.0398   -1.5476 O   0  0  0  0  0  0  0  0  0  0  0  0
   43.6038    5.1806   -1.2825 C   0  0  1  0  0  0  0  0  0  0  0  0
   43.5419    4.3599   -2.4090 O   0  0  0  0  0  0  0  0  0  0  0  0
   40.5172   -0.9299   -1.1476 C   0  0  0  0  0  0  0  0  0  0  0  0
   46.7641    4.1905   -5.2738 C   0  0  0  0  0  0  0  0  0  0  0  0
   47.0438    5.1089   -6.3402 N   0  0  0  0  0  0  0  0  0  0  0  0
   41.4212   -1.6917   -2.1179 C   0  0  0  0  0  0  0  0  0  0  0  0
   40.6033   -2.7726   -2.7016 N   0  0  0  0  0  0  0  0  0  0  0  0
   40.9377   -4.2166   -2.3218 C   0  0  0  0  0  0  0  0  0  0  0  0
  1  2  1  1  0  0  0
  1  8  1  0  0  0  0
  1 33  1  0  0  0  0
  3  4  1  6  0  0  0
  3 10  1  0  0  0  0
  3 42  1  0  0  0  0
  5 11  1  0  0  0  0
  5 29  1  0  0  0  0
  5 35  1  6  0  0  0
  6 13  1  0  0  0  0
  6 39  1  0  0  0  0
  6 22  1  1  0  0  0
  7 15  1  0  0  0  0
  8  9  1  1  0  0  0
  8 17  1  0  0  0  0
 10 19  1  0  0  0  0
 11 12  1  1  0  0  0
 11 21  1  0  0  0  0
 12 44  1  0  0  0  0
 13 14  1  1  0  0  0
 13 23  1  0  0  0  0
 15 16  1  0  0  0  0
 17 18  1  1  0  0  0
 17 25  1  0  0  0  0
 19 20  1  1  0  0  0
 19 27  1  0  0  0  0
 21 22  1  1  0  0  0
 21 28  1  0  0  0  0
 23 24  1  1  0  0  0
 23 30  1  0  0  0  0
 25 26  1  1  0  0  0
 25 32  1  0  0  0  0
 27  2  1  1  0  0  0
 27 34  1  0  0  0  0
 28 29  1  0  0  0  0
 28 36  1  6  0  0  0
 30 31  1  1  0  0  0
 30 38  1  0  0  0  0
 32 33  1  0  0  0  0
 32 40  1  6  0  0  0
 34 35  1  1  0  0  0
 34 42  1  0  0  0  0
 36 37  1  0  0  0  0
 38 39  1  0  0  0  0
 38 45  1  1  0  0  0
 40 41  1  0  0  0  0
 42 43  1  6  0  0  0
 44 47  1  0  0  0  0
 45 46  1  0  0  0  0
 47 48  1  0  0  0  0
 48 49  1  0  0  0  0
 49  7  1  0  0  0  0
M  END
>  <CHROM.1>
-173.18834267,-29.23300952,-172.22052925,-66.16986514,173.79562086,64.27645905
91.30098027,47.93132111,-66.21849338,174.53406195,169.53494522,66.39786732
177.54322088,-111.23267277,67.94247424,-177.75144869,42.40450718,2.43006060
-1.44501303,-2.40695102,-0.87406092,-2.81157188

>  <Name>
2bee_lig

>  <RI>
0

>  <Rbt.Current_Directory>
/home/itssahil/PROJECTS/Mol_Feturizer/New_Systems/rnas/2bee

>  <Rbt.Executable>
rbdock ($Id: //depot/dev/client3/rdock/2013.1/src/exe/rbdock.cxx#4 $)

>  <Rbt.Library>
libRbt.so (2013.1, Build901 2013/11/27)

>  <Rbt.Parameter_File>
/export/apps/rDock/src/rDock_2013.1_src/data/scripts/dock_solv.prm

>  <Rbt.Receptor>
prm/pocket_docking_7.prm

>  <SCORE>
-20.35

>  <SCORE.INTER>
-6.93409

>  <SCORE.INTER.CONST>
1

>  <SCORE.INTER.POLAR>
-0.959166

>  <SCORE.INTER.ROT>
16

>  <SCORE.INTER.SOLV>
12.1365

>  <SCORE.INTER.VDW>
-19.7377

>  <SCORE.INTER.norm>
-0.141512

>  <SCORE.INTRA>
-13.4367

>  <SCORE.INTRA.DIHEDRAL>
-24.688

>  <SCORE.INTRA.DIHEDRAL.0>
36.0842

>  <SCORE.INTRA.POLAR>
0

>  <SCORE.INTRA.POLAR.0>
0

>  <SCORE.INTRA.REPUL>
0

>  <SCORE.INTRA.REPUL.0>
0

>  <SCORE.INTRA.SOLV>
0.627253

>  <SCORE.INTRA.SOLV.lig_0>
-126.444

>  <SCORE.INTRA.VDW>
-1.40635

>  <SCORE.INTRA.VDW.0>
-7.40469

>  <SCORE.INTRA.norm>
-0.274219

>  <SCORE.RESTR>
0.020825

>  <SCORE.RESTR.CAVITY>
0.020825

>  <SCORE.RESTR.norm>
0.000425001

>  <SCORE.SYSTEM>
0

>  <SCORE.SYSTEM.CONST>
0

>  <SCORE.SYSTEM.DIHEDRAL>
0

>  <SCORE.SYSTEM.SOLV>
0

>  <SCORE.SYSTEM.norm>
0

>  <SCORE.heavy>
49

>  <SCORE.norm>
-0.415306

>  <RMSD>
9.205

$$$$
2bee_lig
 OpenBabel11021811423D
libRbt.so/2013.1/901 2013/11/27
 49 52  0  0  0  0  0  0  0  0999 V2000
   39.8555    1.8133   -5.8077 C   0  0  2  0  0  0  0  0  0  0  0  0
   39.5557    0.9608   -4.7098 O   0  0  0  0  0  0  0  0  0  0  0  0
   40.6968    1.0831   -0.4604 C   0  0  2  0  0  0  0  0  0  0  0  0
   41.5551    1.0412    0.7547 N   0  0  0  0  0  0  0  0  0  0  0  0
   40.5697    4.6413   -3.4683 C   0  0  1  0  0  0  0  0  0  0  0  0
   42.7012    6.8051   -6.7392 C   0  0  1  0  0  0  0  0  0  0  0  0
   40.4792   11.9857   -0.3443 C   0  0  0  0  0  0  0  0  0  0  0  0
   38.8003    1.6108   -6.9629 C   0  0  2  0  0  0  0  0  0  0  0  0
   37.4497    1.8028   -6.4457 N   0  0  0  0  0  0  0  0  0  0  0  0
   40.8894   -0.2665   -1.2906 C   0  0  0  0  0  0  0  0  0  0  0  0
   41.3226    5.9201   -3.2939 C   0  0  2  0  0  0  0  0  0  0  0  0
   40.8545    6.7096   -2.1416 O   0  0  0  0  0  0  0  0  0  0  0  0
   44.1274    6.5705   -6.0030 C   0  0  2  0  0  0  0  0  0  0  0  0
   44.4925    7.8343   -5.2800 N   0  0  0  0  0  0  0  0  0  0  0  0
   41.2796   13.1207   -0.6130 C   0  0  0  0  0  0  0  0  0  0  0  0
   42.5999   12.9571   -1.0260 N   0  0  0  0  0  0  0  0  0  0  0  0
   38.9851    0.1624   -7.5955 C   0  0  1  0  0  0  0  0  0  0  0  0
   38.0347   -0.0089   -8.6368 O   0  0  0  0  0  0  0  0  0  0  0  0
   39.9714   -0.2536   -2.6428 C   0  0  2  0  0  0  0  0  0  0  0  0
   40.1294   -1.4576   -3.3857 N   0  0  0  0  0  0  0  0  0  0  0  0
   41.1613    6.4107   -4.7123 C   0  0  2  0  0  0  0  0  0  0  0  0
   41.7844    7.1672   -5.6789 O   0  0  0  0  0  0  0  0  0  0  0  0
   45.2001    6.2252   -7.0967 C   0  0  1  0  0  0  0  0  0  0  0  0
   44.7794    4.9741   -7.7444 O   0  0  0  0  0  0  0  0  0  0  0  0
   40.4303    0.0243   -8.1280 C   0  0  2  0  0  0  0  0  0  0  0  0
   40.6509   -1.3222   -8.7147 O   0  0  0  0  0  0  0  0  0  0  0  0
   40.3639    0.9811   -3.5443 C   0  0  2  0  0  0  0  0  0  0  0  0
   39.6808    5.9119   -5.0956 C   0  0  2  0  0  0  0  0  0  0  0  0
   39.6356    4.6924   -4.5086 O   0  0  0  0  0  0  0  0  0  0  0  0
   45.2892    7.4548   -8.1661 C   0  0  2  0  0  0  0  0  0  0  0  0
   45.7109    8.7090   -7.5024 O   0  0  0  0  0  0  0  0  0  0  0  0
   41.4674    0.2331   -6.9745 C   0  0  2  0  0  0  0  0  0  0  0  0
   41.1873    1.5548   -6.4462 O   0  0  0  0  0  0  0  0  0  0  0  0
   40.1609    2.2742   -2.6845 C   0  0  2  0  0  0  0  0  0  0  0  0
   40.5122    3.2999   -3.5814 O   0  0  0  0  0  0  0  0  0  0  0  0
   39.3506    5.6816   -6.6167 C   0  0  0  0  0  0  0  0  0  0  0  0
   40.1722    4.5866   -7.1320 O   0  0  0  0  0  0  0  0  0  0  0  0
   43.8669    7.6957   -8.8430 C   0  0  1  0  0  0  0  0  0  0  0  0
   42.8855    7.9695   -7.7225 O   0  0  0  0  0  0  0  0  0  0  0  0
   42.8088    0.1082   -7.5751 C   0  0  0  0  0  0  0  0  0  0  0  0
   43.7567    0.3282   -6.6540 O   0  0  0  0  0  0  0  0  0  0  0  0
   41.0879    2.2495   -1.3951 C   0  0  1  0  0  0  0  0  0  0  0  0
   40.8917    3.4017   -0.6334 O   0  0  0  0  0  0  0  0  0  0  0  0
   41.4744    7.9544   -1.6587 C   0  0  0  0  0  0  0  0  0  0  0  0
   44.0682    8.9000   -9.8239 C   0  0  0  0  0  0  0  0  0  0  0  0
   44.7540    8.5312  -11.0290 N   0  0  0  0  0  0  0  0  0  0  0  0
   41.3323    9.0370   -2.7295 C   0  0  0  0  0  0  0  0  0  0  0  0
   41.4298   10.3363   -2.0363 N   0  0  0  0  0  0  0  0  0  0  0  0
   40.1366   10.9942   -1.5503 C   0  0  0  0  0  0  0  0  0  0  0  0
  1  2  1  1  0  0  0
  1  8  1  0  0  0  0
  1 33  1  0  0  0  0
  3  4  1  1  0  0  0
  3 10  1  0  0  0  0
  3 42  1  0  0  0  0
  5 11  1  0  0  0  0
  5 29  1  0  0  0  0
  5 35  1  6  0  0  0
  6 13  1  0  0  0  0
  6 39  1  0  0  0  0
  6 22  1  1  0  0  0
  7 15  1  0  0  0  0
  8  9  1  1  0  0  0
  8 17  1  0  0  0  0
 10 19  1  0  0  0  0
 11 12  1  1  0  0  0
 11 21  1  0  0  0  0
 12 44  1  0  0  0  0
 13 14  1  6  0  0  0
 13 23  1  0  0  0  0
 15 16  1  0  0  0  0
 17 18  1  6  0  0  0
 17 25  1  0  0  0  0
 19 20  1  6  0  0  0
 19 27  1  0  0  0  0
 21 22  1  1  0  0  0
 21 28  1  0  0  0  0
 23 24  1  6  0  0  0
 23 30  1  0  0  0  0
 25 26  1  1  0  0  0
 25 32  1  0  0  0  0
 27  2  1  6  0  0  0
 27 34  1  0  0  0  0
 28 29  1  0  0  0  0
 28 36  1  6  0  0  0
 30 31  1  1  0  0  0
 30 38  1  0  0  0  0
 32 33  1  0  0  0  0
 32 40  1  6  0  0  0
 34 35  1  6  0  0  0
 34 42  1  0  0  0  0
 36 37  1  0  0  0  0
 38 39  1  0  0  0  0
 38 45  1  6  0  0  0
 40 41  1  0  0  0  0
 42 43  1  1  0  0  0
 44 47  1  0  0  0  0
 45 46  1  0  0  0  0
 47 48  1  0  0  0  0
 48 49  1  0  0  0  0
 49  7  1  0  0  0  0
M  END
>  <CHROM.1>
-179.27301551,102.15558800,-76.14123624,-64.32029899,174.76380928,64.78849854
91.88203434,-168.65544331,64.64947778,177.56326563,-179.14933116,76.10943886
156.86065038,-91.66215933,155.92241463,65.25023671,41.43936585,4.67645064
-4.96792048,-2.12368369,1.13806103,0.67462161

>  <Name>
2bee_lig

>  <RI>
0

>  <Rbt.Current_Directory>
/home/itssahil/PROJECTS/Mol_Feturizer/New_Systems/rnas/2bee

>  <Rbt.Executable>
rbdock ($Id: //depot/dev/client3/rdock/2013.1/src/exe/rbdock.cxx#4 $)

>  <Rbt.Library>
libRbt.so (2013.1, Build901 2013/11/27)

>  <Rbt.Parameter_File>
/export/apps/rDock/src/rDock_2013.1_src/data/scripts/dock_solv.prm

>  <Rbt.Receptor>
prm/pocket_docking_7.prm

>  <SCORE>
-16.6381

>  <SCORE.INTER>
-6.4121

>  <SCORE.INTER.CONST>
1

>  <SCORE.INTER.POLAR>
-2.05924

>  <SCORE.INTER.ROT>
16

>  <SCORE.INTER.SOLV>
26.6089

>  <SCORE.INTER.VDW>
-20.5469

>  <SCORE.INTER.norm>
-0.130859

>  <SCORE.INTRA>
-10.226

>  <SCORE.INTRA.DIHEDRAL>
-20.9588

>  <SCORE.INTRA.DIHEDRAL.0>
36.0842

>  <SCORE.INTRA.POLAR>
0

>  <SCORE.INTRA.POLAR.0>
0

>  <SCORE.INTRA.REPUL>
0.000232101

>  <SCORE.INTRA.REPUL.0>
0

>  <SCORE.INTRA.SOLV>
-0.541501

>  <SCORE.INTRA.SOLV.lig_0>
-126.444

>  <SCORE.INTRA.VDW>
0.522945

>  <SCORE.INTRA.VDW.0>
-7.40469

>  <SCORE.INTRA.norm>
-0.208694

>  <SCORE.RESTR>
0

>  <SCORE.RESTR.CAVITY>
0

>  <SCORE.RESTR.norm>
0

>  <SCORE.SYSTEM>
0

>  <SCORE.SYSTEM.CONST>
0

>  <SCORE.SYSTEM.DIHEDRAL>
0

>  <SCORE.SYSTEM.SOLV>
0

>  <SCORE.SYSTEM.norm>
0

>  <SCORE.heavy>
49

>  <SCORE.norm>
-0.339553

>  <RMSD>
9.243

$$$$
2bee_lig
 OpenBabel11021811423D
libRbt.so/2013.1/901 2013/11/27
 49 52  0  0  0  0  0  0  0  0999 V2000
   42.8533    8.9028   -1.1243 C   0  0  2  0  0  0  0  0  0  0  0  0
   43.5914    7.7618   -0.7053 O   0  0  0  0  0  0  0  0  0  0  0  0
   43.9377    3.5843   -2.0478 C   0  0  2  0  0  0  0  0  0  0  0  0
   43.5304    2.2104   -2.4496 N   0  0  0  0  0  0  0  0  0  0  0  0
   43.3232    7.3502   -4.7021 C   0  0  1  0  0  0  0  0  0  0  0  0
   42.9856    3.7635   -7.3395 C   0  0  1  0  0  0  0  0  0  0  0  0
   44.2224   10.7469  -11.2321 C   0  0  0  0  0  0  0  0  0  0  0  0
   43.7968   10.1642   -1.2113 C   0  0  2  0  0  0  0  0  0  0  0  0
   44.9379    9.8765   -2.0737 N   0  0  0  0  0  0  0  0  0  0  0  0
   43.3671    3.9001   -0.5909 C   0  0  0  0  0  0  0  0  0  0  0  0
   43.9837    7.2262   -6.0366 C   0  0  2  0  0  0  0  0  0  0  0  0
   44.2445    8.5297   -6.6716 O   0  0  0  0  0  0  0  0  0  0  0  0
   43.0810    3.1522   -8.8389 C   0  0  2  0  0  0  0  0  0  0  0  0
   41.8789    3.6160   -9.6090 N   0  0  0  0  0  0  0  0  0  0  0  0
   43.6939   11.7014  -12.1323 C   0  0  0  0  0  0  0  0  0  0  0  0
   44.1558   11.7473  -13.4458 N   0  0  0  0  0  0  0  0  0  0  0  0
   44.2593   10.5766    0.2543 C   0  0  1  0  0  0  0  0  0  0  0  0
   45.1039   11.7150    0.1664 O   0  0  0  0  0  0  0  0  0  0  0  0
   43.7827    5.4084   -0.1180 C   0  0  2  0  0  0  0  0  0  0  0  0
   43.2858    5.6964    1.1845 N   0  0  0  0  0  0  0  0  0  0  0  0
   43.0049    6.2377   -6.6229 C   0  0  2  0  0  0  0  0  0  0  0  0
   42.9154    5.1981   -7.5208 O   0  0  0  0  0  0  0  0  0  0  0  0
   43.1053    1.5854   -8.7357 C   0  0  1  0  0  0  0  0  0  0  0  0
   44.3136    1.2137   -7.9850 O   0  0  0  0  0  0  0  0  0  0  0  0
   43.0087   10.8724    1.1144 C   0  0  2  0  0  0  0  0  0  0  0  0
   43.3956   11.2473    2.4984 O   0  0  0  0  0  0  0  0  0  0  0  0
   43.2199    6.4657   -1.1459 C   0  0  2  0  0  0  0  0  0  0  0  0
   41.6008    6.7135   -5.9987 C   0  0  2  0  0  0  0  0  0  0  0  0
   41.9564    7.0535   -4.7369 O   0  0  0  0  0  0  0  0  0  0  0  0
   41.7498    1.0773   -7.9821 C   0  0  2  0  0  0  0  0  0  0  0  0
   40.5404    1.4593   -8.7456 O   0  0  0  0  0  0  0  0  0  0  0  0
   42.0781    9.6160    1.1881 C   0  0  2  0  0  0  0  0  0  0  0  0
   41.7510    9.3039   -0.1903 O   0  0  0  0  0  0  0  0  0  0  0  0
   43.8054    6.1098   -2.5541 C   0  0  2  0  0  0  0  0  0  0  0  0
   43.2651    7.1157   -3.3765 O   0  0  0  0  0  0  0  0  0  0  0  0
   40.4546    5.6444   -5.8608 C   0  0  0  0  0  0  0  0  0  0  0  0
   39.2869    6.2621   -5.2330 O   0  0  0  0  0  0  0  0  0  0  0  0
   41.6553    1.7258   -6.5296 C   0  0  1  0  0  0  0  0  0  0  0  0
   41.6897    3.2286   -6.7140 O   0  0  0  0  0  0  0  0  0  0  0  0
   40.9081    9.9952    2.0024 C   0  0  0  0  0  0  0  0  0  0  0  0
   40.2015   10.9543    1.3891 O   0  0  0  0  0  0  0  0  0  0  0  0
   43.3595    4.6528   -3.0022 C   0  0  1  0  0  0  0  0  0  0  0  0
   43.8941    4.3442   -4.2533 O   0  0  0  0  0  0  0  0  0  0  0  0
   44.8417    8.7195   -8.0036 C   0  0  0  0  0  0  0  0  0  0  0  0
   40.3179    1.1882   -5.9169 C   0  0  0  0  0  0  0  0  0  0  0  0
   39.1545    1.8105   -6.4806 N   0  0  0  0  0  0  0  0  0  0  0  0
   43.8468    8.2641   -9.0721 C   0  0  0  0  0  0  0  0  0  0  0  0
   44.5392    8.3709  -10.3711 N   0  0  0  0  0  0  0  0  0  0  0  0
   43.8818    9.2039  -11.4734 C   0  0  0  0  0  0  0  0  0  0  0  0
  1  2  1  1  0  0  0
  1  8  1  0  0  0  0
  1 33  1  0  0  0  0
  3  4  1  6  0  0  0
  3 10  1  0  0  0  0
  3 42  1  0  0  0  0
  5 11  1  0  0  0  0
  5 29  1  0  0  0  0
  5 35  1  1  0  0  0
  6 13  1  0  0  0  0
  6 39  1  0  0  0  0
  6 22  1  6  0  0  0
  7 15  1  0  0  0  0
  8  9  1  6  0  0  0
  8 17  1  0  0  0  0
 10 19  1  0  0  0  0
 11 12  1  6  0  0  0
 11 21  1  0  0  0  0
 12 44  1  0  0  0  0
 13 14  1  6  0  0  0
 13 23  1  0  0  0  0
 15 16  1  0  0  0  0
 17 18  1  6  0  0  0
 17 25  1  0  0  0  0
 19 20  1  1  0  0  0
 19 27  1  0  0  0  0
 21 22  1  6  0  0  0
 21 28  1  0  0  0  0
 23 24  1  1  0  0  0
 23 30  1  0  0  0  0
 25 26  1  1  0  0  0
 25 32  1  0  0  0  0
 27  2  1  1  0  0  0
 27 34  1  0  0  0  0
 28 29  1  0  0  0  0
 28 36  1  1  0  0  0
 30 31  1  6  0  0  0
 30 38  1  0  0  0  0
 32 33  1  0  0  0  0
 32 40  1  1  0  0  0
 34 35  1  6  0  0  0
 34 42  1  0  0  0  0
 36 37  1  0  0  0  0
 38 39  1  0  0  0  0
 38 45  1  6  0  0  0
 40 41  1  0  0  0  0
 42 43  1  6  0  0  0
 44 47  1  0  0  0  0
 45 46  1  0  0  0  0
 47 48  1  0  0  0  0
 48 49  1  0  0  0  0
 49  7  1  0  0  0  0
M  END
>  <CHROM.1>
-149.13423273,-25.08268905,-169.78159899,-68.70098014,-177.88203582,69.72118751
95.59184403,-157.19799965,178.01743750,64.60284114,-176.34679068,-74.45516770
-175.36269349,-125.04135461,81.96626774,-179.13073864,42.87537946,6.62060884
-4.66119074,-1.45409276,-1.35509461,-1.87951814

>  <Name>
2bee_lig

>  <RI>
0

>  <Rbt.Current_Directory>
/home/itssahil/PROJECTS/Mol_Feturizer/New_Systems/rnas/2bee

>  <Rbt.Executable>
rbdock ($Id: //depot/dev/client3/rdock/2013.1/src/exe/rbdock.cxx#4 $)

>  <Rbt.Library>
libRbt.so (2013.1, Build901 2013/11/27)

>  <Rbt.Parameter_File>
/export/apps/rDock/src/rDock_2013.1_src/data/scripts/dock_solv.prm

>  <Rbt.Receptor>
prm/pocket_docking_6.prm

>  <SCORE>
-26.8942

>  <SCORE.INTER>
-18.3405

>  <SCORE.INTER.CONST>
1

>  <SCORE.INTER.POLAR>
-1.86084

>  <SCORE.INTER.ROT>
16

>  <SCORE.INTER.SOLV>
23.6008

>  <SCORE.INTER.VDW>
-28.1578

>  <SCORE.INTER.norm>
-0.374296

>  <SCORE.INTRA>
-8.55762

>  <SCORE.INTRA.DIHEDRAL>
-18.3914

>  <SCORE.INTRA.DIHEDRAL.0>
36.0842

>  <SCORE.INTRA.POLAR>
0

>  <SCORE.INTRA.POLAR.0>
0

>  <SCORE.INTRA.REPUL>
0

>  <SCORE.INTRA.REPUL.0>
0

>  <SCORE.INTRA.SOLV>
0.047207

>  <SCORE.INTRA.SOLV.lig_0>
-126.444

>  <SCORE.INTRA.VDW>
0.614469

>  <SCORE.INTRA.VDW.0>
-7.40469

>  <SCORE.INTRA.norm>
-0.174645

>  <SCORE.RESTR>
0.00393187

>  <SCORE.RESTR.CAVITY>
0.00393187

>  <SCORE.RESTR.norm>
8.02422e-05

>  <SCORE.SYSTEM>
0

>  <SCORE.SYSTEM.CONST>
0

>  <SCORE.SYSTEM.DIHEDRAL>
0

>  <SCORE.SYSTEM.SOLV>
0

>  <SCORE.SYSTEM.norm>
0

>  <SCORE.heavy>
49

>  <SCORE.norm>
-0.548861

>  <RMSD>
9.262

$$$$
2bee_lig
 OpenBabel11021811423D
libRbt.so/2013.1/901 2013/11/27
 49 52  0  0  0  0  0  0  0  0999 V2000
   42.8124    8.9969   -0.9728 C   0  0  2  0  0  0  0  0  0  0  0  0
   43.5175    7.8350   -0.5544 O   0  0  0  0  0  0  0  0  0  0  0  0
   43.7723    3.6500   -1.8942 C   0  0  2  0  0  0  0  0  0  0  0  0
   43.3341    2.2900   -2.3106 N   0  0  0  0  0  0  0  0  0  0  0  0
   43.2619    7.3814   -4.5708 C   0  0  1  0  0  0  0  0  0  0  0  0
   42.1278    3.8098   -7.0123 C   0  0  1  0  0  0  0  0  0  0  0  0
   44.5797   10.4522  -12.0372 C   0  0  0  0  0  0  0  0  0  0  0  0
   43.7990   10.2216   -1.0969 C   0  0  2  0  0  0  0  0  0  0  0  0
   44.9097    9.8815   -1.9797 N   0  0  0  0  0  0  0  0  0  0  0  0
   43.1687    3.9821   -0.4543 C   0  0  0  0  0  0  0  0  0  0  0  0
   43.8253    7.1298   -5.9316 C   0  0  2  0  0  0  0  0  0  0  0  0
   44.2077    8.3677   -6.6328 O   0  0  0  0  0  0  0  0  0  0  0  0
   42.6169    3.0139   -8.3383 C   0  0  2  0  0  0  0  0  0  0  0  0
   41.8948    3.5906   -9.5212 N   0  0  0  0  0  0  0  0  0  0  0  0
   43.3093   10.7356  -12.5909 C   0  0  0  0  0  0  0  0  0  0  0  0
   43.2096   11.1852  -13.9056 N   0  0  0  0  0  0  0  0  0  0  0  0
   44.3083   10.6353    0.3527 C   0  0  1  0  0  0  0  0  0  0  0  0
   45.1916   11.7408    0.2314 O   0  0  0  0  0  0  0  0  0  0  0  0
   43.6172    5.4762    0.0337 C   0  0  2  0  0  0  0  0  0  0  0  0
   43.0910    5.7783    1.3215 N   0  0  0  0  0  0  0  0  0  0  0  0
   42.7009    6.2514   -6.4246 C   0  0  2  0  0  0  0  0  0  0  0  0
   42.4336    5.2006   -7.2728 O   0  0  0  0  0  0  0  0  0  0  0  0
   42.2690    1.4928   -8.1612 C   0  0  1  0  0  0  0  0  0  0  0  0
   43.0232    1.0026   -6.9982 O   0  0  0  0  0  0  0  0  0  0  0  0
   43.0884   10.9876    1.2354 C   0  0  2  0  0  0  0  0  0  0  0  0
   43.5190   11.3655    2.6057 O   0  0  0  0  0  0  0  0  0  0  0  0
   43.1188    6.5517   -1.0084 C   0  0  2  0  0  0  0  0  0  0  0  0
   41.4036    6.9201   -5.7485 C   0  0  2  0  0  0  0  0  0  0  0  0
   41.8693    7.2567   -4.5221 O   0  0  0  0  0  0  0  0  0  0  0  0
   40.6593    1.3336   -7.9440 C   0  0  2  0  0  0  0  0  0  0  0  0
   39.9108    1.8325   -9.1196 O   0  0  0  0  0  0  0  0  0  0  0  0
   42.1145    9.7672    1.3460 C   0  0  2  0  0  0  0  0  0  0  0  0
   41.7461    9.4499   -0.0208 O   0  0  0  0  0  0  0  0  0  0  0  0
   43.7344    6.1790   -2.3993 C   0  0  2  0  0  0  0  0  0  0  0  0
   43.2507    7.2021   -3.2354 O   0  0  0  0  0  0  0  0  0  0  0  0
   40.1445    6.0079   -5.5070 C   0  0  0  0  0  0  0  0  0  0  0  0
   40.4702    4.9824   -4.5162 O   0  0  0  0  0  0  0  0  0  0  0  0
   40.1956    2.1598   -6.6628 C   0  0  1  0  0  0  0  0  0  0  0  0
   40.6122    3.5980   -6.8903 O   0  0  0  0  0  0  0  0  0  0  0  0
   40.9773   10.1993    2.1800 C   0  0  0  0  0  0  0  0  0  0  0  0
   40.3170   11.2036    1.5878 O   0  0  0  0  0  0  0  0  0  0  0  0
   43.2566    4.7372   -2.8632 C   0  0  1  0  0  0  0  0  0  0  0  0
   43.8182    4.4131   -4.0985 O   0  0  0  0  0  0  0  0  0  0  0  0
   44.7831    8.4323   -7.9862 C   0  0  0  0  0  0  0  0  0  0  0  0
   38.6462    1.9513   -6.5679 C   0  0  0  0  0  0  0  0  0  0  0  0
   38.2796    0.5861   -6.3220 N   0  0  0  0  0  0  0  0  0  0  0  0
   43.6799    8.1835   -9.0158 C   0  0  0  0  0  0  0  0  0  0  0  0
   44.2177    8.6018  -10.3249 N   0  0  0  0  0  0  0  0  0  0  0  0
   44.6641   10.0559  -10.4910 C   0  0  0  0  0  0  0  0  0  0  0  0
  1  2  1  1  0  0  0
  1  8  1  0  0  0  0
  1 33  1  0  0  0  0
  3  4  1  6  0  0  0
  3 10  1  0  0  0  0
  3 42  1  0  0  0  0
  5 11  1  0  0  0  0
  5 29  1  0  0  0  0
  5 35  1  1  0  0  0
  6 13  1  0  0  0  0
  6 39  1  0  0  0  0
  6 22  1  6  0  0  0
  7 15  1  0  0  0  0
  8  9  1  6  0  0  0
  8 17  1  0  0  0  0
 10 19  1  0  0  0  0
 11 12  1  6  0  0  0
 11 21  1  0  0  0  0
 12 44  1  0  0  0  0
 13 14  1  6  0  0  0
 13 23  1  0  0  0  0
 15 16  1  0  0  0  0
 17 18  1  6  0  0  0
 17 25  1  0  0  0  0
 19 20  1  1  0  0  0
 19 27  1  0  0  0  0
 21 22  1  6  0  0  0
 21 28  1  0  0  0  0
 23 24  1  1  0  0  0
 23 30  1  0  0  0  0
 25 26  1  1  0  0  0
 25 32  1  0  0  0  0
 27  2  1  1  0  0  0
 27 34  1  0  0  0  0
 28 29  1  0  0  0  0
 28 36  1  1  0  0  0
 30 31  1  6  0  0  0
 30 38  1  0  0  0  0
 32 33  1  0  0  0  0
 32 40  1  1  0  0  0
 34 35  1  6  0  0  0
 34 42  1  0  0  0  0
 36 37  1  0  0  0  0
 38 39  1  0  0  0  0
 38 45  1  6  0  0  0
 40 41  1  0  0  0  0
 42 43  1  6  0  0  0
 44 47  1  0  0  0  0
 45 46  1  0  0  0  0
 47 48  1  0  0  0  0
 48 49  1  0  0  0  0
 49  7  1  0  0  0  0
M  END
>  <CHROM.1>
-146.84866921,-23.49881024,-153.56222419,174.98737834,-179.73450195,75.48095292
106.91080488,-155.98946514,65.75054885,62.71883187,-169.98222467,64.25069390
165.54804704,-59.53911374,-155.00784648,77.23125315,42.62960487,6.63467727
-4.53708598,-1.27375159,-1.26039038,-1.71570079

>  <Name>
2bee_lig

>  <RI>
0

>  <Rbt.Current_Directory>
/home/itssahil/PROJECTS/Mol_Feturizer/New_Systems/rnas/2bee

>  <Rbt.Executable>
rbdock ($Id: //depot/dev/client3/rdock/2013.1/src/exe/rbdock.cxx#4 $)

>  <Rbt.Library>
libRbt.so (2013.1, Build901 2013/11/27)

>  <Rbt.Parameter_File>
/export/apps/rDock/src/rDock_2013.1_src/data/scripts/dock_solv.prm

>  <Rbt.Receptor>
prm/pocket_docking_7.prm

>  <SCORE>
-26.5531

>  <SCORE.INTER>
-20.2751

>  <SCORE.INTER.CONST>
1

>  <SCORE.INTER.POLAR>
-1.8354

>  <SCORE.INTER.ROT>
16

>  <SCORE.INTER.SOLV>
25.1632

>  <SCORE.INTER.VDW>
-30.0532

>  <SCORE.INTER.norm>
-0.413778

>  <SCORE.INTRA>
-6.28259

>  <SCORE.INTRA.DIHEDRAL>
-14.7679

>  <SCORE.INTRA.DIHEDRAL.0>
36.0842

>  <SCORE.INTRA.POLAR>
0

>  <SCORE.INTRA.POLAR.0>
0

>  <SCORE.INTRA.REPUL>
0

>  <SCORE.INTRA.REPUL.0>
0

>  <SCORE.INTRA.SOLV>
-0.672225

>  <SCORE.INTRA.SOLV.lig_0>
-126.444

>  <SCORE.INTRA.VDW>
1.43745

>  <SCORE.INTRA.VDW.0>
-7.40469

>  <SCORE.INTRA.norm>
-0.128216

>  <SCORE.RESTR>
0.0045862

>  <SCORE.RESTR.CAVITY>
0.0045862

>  <SCORE.RESTR.norm>
9.35959e-05

>  <SCORE.SYSTEM>
0

>  <SCORE.SYSTEM.CONST>
0

>  <SCORE.SYSTEM.DIHEDRAL>
0

>  <SCORE.SYSTEM.SOLV>
0

>  <SCORE.SYSTEM.norm>
0

>  <SCORE.heavy>
49

>  <SCORE.norm>
-0.541901

>  <RMSD>
9.266

$$$$
2bee_lig
 OpenBabel11021811423D
libRbt.so/2013.1/901 2013/11/27
 49 52  0  0  0  0  0  0  0  0999 V2000
   38.2903    2.8758   -2.0096 C   0  0  2  0  0  0  0  0  0  0  0  0
   39.5147    2.6249   -2.6878 O   0  0  0  0  0  0  0  0  0  0  0  0
   39.4144   -1.7666   -2.9686 C   0  0  2  0  0  0  0  0  0  0  0  0
   39.7763   -3.1451   -3.3972 N   0  0  0  0  0  0  0  0  0  0  0  0
   42.5502    1.1863   -1.4248 C   0  0  1  0  0  0  0  0  0  0  0  0
   44.4590    4.4419   -3.9480 C   0  0  1  0  0  0  0  0  0  0  0  0
   50.2484    2.4632   -3.9704 C   0  0  0  0  0  0  0  0  0  0  0  0
   38.2048    4.3900   -1.5753 C   0  0  2  0  0  0  0  0  0  0  0  0
   38.4008    5.2545   -2.7341 N   0  0  0  0  0  0  0  0  0  0  0  0
   39.0723   -0.8857   -4.2550 C   0  0  0  0  0  0  0  0  0  0  0  0
   43.7015    1.3190   -2.3681 C   0  0  2  0  0  0  0  0  0  0  0  0
   44.6999    0.2473   -2.2101 O   0  0  0  0  0  0  0  0  0  0  0  0
   45.5157    5.6722   -3.9751 C   0  0  2  0  0  0  0  0  0  0  0  0
   45.1234    6.6476   -2.9037 N   0  0  0  0  0  0  0  0  0  0  0  0
   50.8619    1.3743   -4.6328 C   0  0  0  0  0  0  0  0  0  0  0  0
   52.2397    1.3740   -4.8387 N   0  0  0  0  0  0  0  0  0  0  0  0
   39.2862    4.6739   -0.4430 C   0  0  1  0  0  0  0  0  0  0  0  0
   39.1986    6.0373   -0.0552 O   0  0  0  0  0  0  0  0  0  0  0  0
   38.6819    0.6425   -3.8263 C   0  0  2  0  0  0  0  0  0  0  0  0
   38.3661    1.4339   -4.9666 N   0  0  0  0  0  0  0  0  0  0  0  0
   44.0227    2.7587   -2.0475 C   0  0  2  0  0  0  0  0  0  0  0  0
   44.5355    3.9085   -2.6043 O   0  0  0  0  0  0  0  0  0  0  0  0
   45.4555    6.3475   -5.3916 C   0  0  1  0  0  0  0  0  0  0  0  0
   45.8659    5.3368   -6.3774 O   0  0  0  0  0  0  0  0  0  0  0  0
   39.0219    3.7329    0.7554 C   0  0  2  0  0  0  0  0  0  0  0  0
   40.0211    3.9544    1.8317 O   0  0  0  0  0  0  0  0  0  0  0  0
   39.8815    1.3006   -3.0398 C   0  0  2  0  0  0  0  0  0  0  0  0
   43.7254    2.8473   -0.4692 C   0  0  2  0  0  0  0  0  0  0  0  0
   42.6164    2.0792   -0.3498 O   0  0  0  0  0  0  0  0  0  0  0  0
   43.9362    6.8752   -5.6690 C   0  0  2  0  0  0  0  0  0  0  0  0
   43.5335    7.8899   -4.6693 O   0  0  0  0  0  0  0  0  0  0  0  0
   39.1036    2.2344    0.3107 C   0  0  2  0  0  0  0  0  0  0  0  0
   38.1144    2.0956   -0.7412 O   0  0  0  0  0  0  0  0  0  0  0  0
   40.1778    0.3990   -1.7941 C   0  0  2  0  0  0  0  0  0  0  0  0
   41.2329    1.0825   -1.1618 O   0  0  0  0  0  0  0  0  0  0  0  0
   43.3556    4.2526    0.1342 C   0  0  0  0  0  0  0  0  0  0  0  0
   42.1510    4.7611   -0.5213 O   0  0  0  0  0  0  0  0  0  0  0  0
   42.9115    5.6573   -5.5929 C   0  0  1  0  0  0  0  0  0  0  0  0
   43.0689    5.0328   -4.2222 O   0  0  0  0  0  0  0  0  0  0  0  0
   38.8168    1.4160    1.5039 C   0  0  0  0  0  0  0  0  0  0  0  0
   39.9513    1.1193    2.1521 O   0  0  0  0  0  0  0  0  0  0  0  0
   40.5854   -1.0696   -2.2407 C   0  0  1  0  0  0  0  0  0  0  0  0
   40.8381   -1.8651   -1.1229 O   0  0  0  0  0  0  0  0  0  0  0  0
   45.9779    0.1655   -2.9360 C   0  0  0  0  0  0  0  0  0  0  0  0
   41.4986    6.2818   -5.8514 C   0  0  0  0  0  0  0  0  0  0  0  0
   40.4605    5.2960   -5.9477 N   0  0  0  0  0  0  0  0  0  0  0  0
   46.8253    1.3950   -2.6057 C   0  0  0  0  0  0  0  0  0  0  0  0
   48.0614    1.2867   -3.4046 N   0  0  0  0  0  0  0  0  0  0  0  0
   48.6536    2.5678   -3.9958 C   0  0  0  0  0  0  0  0  0  0  0  0
  1  2  1  1  0  0  0
  1  8  1  0  0  0  0
  1 33  1  0  0  0  0
  3  4  1  6  0  0  0
  3 10  1  0  0  0  0
  3 42  1  0  0  0  0
  5 11  1  0  0  0  0
  5 29  1  0  0  0  0
  5 35  1  6  0  0  0
  6 13  1  0  0  0  0
  6 39  1  0  0  0  0
  6 22  1  1  0  0  0
  7 15  1  0  0  0  0
  8  9  1  6  0  0  0
  8 17  1  0  0  0  0
 10 19  1  0  0  0  0
 11 12  1  1  0  0  0
 11 21  1  0  0  0  0
 12 44  1  0  0  0  0
 13 14  1  1  0  0  0
 13 23  1  0  0  0  0
 15 16  1  0  0  0  0
 17 18  1  1  0  0  0
 17 25  1  0  0  0  0
 19 20  1  6  0  0  0
 19 27  1  0  0  0  0
 21 22  1  1  0  0  0
 21 28  1  0  0  0  0
 23 24  1  6  0  0  0
 23 30  1  0  0  0  0
 25 26  1  1  0  0  0
 25 32  1  0  0  0  0
 27  2  1  1  0  0  0
 27 34  1  0  0  0  0
 28 29  1  0  0  0  0
 28 36  1  6  0  0  0
 30 31  1  1  0  0  0
 30 38  1  0  0  0  0
 32 33  1  0  0  0  0
 32 40  1  1  0  0  0
 34 35  1  6  0  0  0
 34 42  1  0  0  0  0
 36 37  1  0  0  0  0
 38 39  1  0  0  0  0
 38 45  1  1  0  0  0
 40 41  1  0  0  0  0
 42 43  1  1  0  0  0
 44 47  1  0  0  0  0
 45 46  1  0  0  0  0
 47 48  1  0  0  0  0
 48 49  1  0  0  0  0
 49  7  1  0  0  0  0
M  END
>  <CHROM.1>
172.87614975,39.03707862,-169.42864667,168.52669676,-175.73495553,60.82935326
33.82628886,52.05564394,59.38794040,-91.07935422,-76.65250389,174.27393814
-177.54569134,142.30946242,144.46194463,57.21637021,42.48942390,2.78842717
-2.52022701,2.88462551,-0.29679126,2.85445868

>  <Name>
2bee_lig

>  <RI>
0

>  <Rbt.Current_Directory>
/home/itssahil/PROJECTS/Mol_Feturizer/New_Systems/rnas/2bee

>  <Rbt.Executable>
rbdock ($Id: //depot/dev/client3/rdock/2013.1/src/exe/rbdock.cxx#4 $)

>  <Rbt.Library>
libRbt.so (2013.1, Build901 2013/11/27)

>  <Rbt.Parameter_File>
/export/apps/rDock/src/rDock_2013.1_src/data/scripts/dock_solv.prm

>  <Rbt.Receptor>
prm/pocket_docking_5.prm

>  <SCORE>
-17.6863

>  <SCORE.INTER>
-6.0724

>  <SCORE.INTER.CONST>
1

>  <SCORE.INTER.POLAR>
-0.907901

>  <SCORE.INTER.ROT>
16

>  <SCORE.INTER.SOLV>
15.8591

>  <SCORE.INTER.VDW>
-20.5749

>  <SCORE.INTER.norm>
-0.123927

>  <SCORE.INTRA>
-11.666

>  <SCORE.INTRA.DIHEDRAL>
-22.0497

>  <SCORE.INTRA.DIHEDRAL.0>
36.0842

>  <SCORE.INTRA.POLAR>
0

>  <SCORE.INTRA.POLAR.0>
0

>  <SCORE.INTRA.REPUL>
0.0483732

>  <SCORE.INTRA.REPUL.0>
0

>  <SCORE.INTRA.SOLV>
-1.52043

>  <SCORE.INTRA.SOLV.lig_0>
-126.444

>  <SCORE.INTRA.VDW>
-0.122833

>  <SCORE.INTRA.VDW.0>
-7.40469

>  <SCORE.INTRA.norm>
-0.238083

>  <SCORE.RESTR>
0.052148

>  <SCORE.RESTR.CAVITY>
0.052148

>  <SCORE.RESTR.norm>
0.00106425

>  <SCORE.SYSTEM>
0

>  <SCORE.SYSTEM.CONST>
0

>  <SCORE.SYSTEM.DIHEDRAL>
0

>  <SCORE.SYSTEM.SOLV>
0

>  <SCORE.SYSTEM.norm>
0

>  <SCORE.heavy>
49

>  <SCORE.norm>
-0.360945

>  <RMSD>
9.267

$$$$
2bee_lig
 OpenBabel11021811423D
libRbt.so/2013.1/901 2013/11/27
 49 52  0  0  0  0  0  0  0  0999 V2000
   40.0551    4.6008   -3.1188 C   0  0  2  0  0  0  0  0  0  0  0  0
   40.4259    5.7419   -3.8820 O   0  0  0  0  0  0  0  0  0  0  0  0
   42.0739    6.2133   -7.9362 C   0  0  2  0  0  0  0  0  0  0  0  0
   43.0295    6.1164   -9.0729 N   0  0  0  0  0  0  0  0  0  0  0  0
   39.4770    2.6871   -6.2448 C   0  0  1  0  0  0  0  0  0  0  0  0
   41.3638   -1.3782   -6.0836 C   0  0  1  0  0  0  0  0  0  0  0  0
   32.8707    0.8005   -6.9057 C   0  0  0  0  0  0  0  0  0  0  0  0
   39.1079    5.0213   -1.9293 C   0  0  2  0  0  0  0  0  0  0  0  0
   37.9594    5.7606   -2.4421 N   0  0  0  0  0  0  0  0  0  0  0  0
   42.7881    6.9361   -6.7052 C   0  0  0  0  0  0  0  0  0  0  0  0
   39.1969    1.6599   -7.2931 C   0  0  2  0  0  0  0  0  0  0  0  0
   37.8487    1.7847   -7.8737 O   0  0  0  0  0  0  0  0  0  0  0  0
   42.5402   -0.4327   -6.6777 C   0  0  2  0  0  0  0  0  0  0  0  0
   42.4260   -0.4309   -8.1744 N   0  0  0  0  0  0  0  0  0  0  0  0
   31.4715    0.5992   -6.8556 C   0  0  0  0  0  0  0  0  0  0  0  0
   30.9271   -0.6052   -7.2957 N   0  0  0  0  0  0  0  0  0  0  0  0
   39.9357    5.8811   -0.8770 C   0  0  1  0  0  0  0  0  0  0  0  0
   39.0765    6.2508    0.1917 O   0  0  0  0  0  0  0  0  0  0  0  0
   41.7731    7.0502   -5.4292 C   0  0  2  0  0  0  0  0  0  0  0  0
   42.3983    7.7018   -4.3288 N   0  0  0  0  0  0  0  0  0  0  0  0
   39.6011    0.4596   -6.4717 C   0  0  2  0  0  0  0  0  0  0  0  0
   40.1314   -0.8058   -6.5832 O   0  0  0  0  0  0  0  0  0  0  0  0
   43.9249   -1.0197   -6.2259 C   0  0  1  0  0  0  0  0  0  0  0  0
   43.9632   -0.9727   -4.7569 O   0  0  0  0  0  0  0  0  0  0  0  0
   41.1320    5.0430   -0.3693 C   0  0  2  0  0  0  0  0  0  0  0  0
   41.9426    5.8158    0.6063 O   0  0  0  0  0  0  0  0  0  0  0  0
   41.2986    5.6096   -4.9924 C   0  0  2  0  0  0  0  0  0  0  0  0
   39.1068    0.8567   -4.9934 C   0  0  2  0  0  0  0  0  0  0  0  0
   39.4045    2.1770   -4.9440 O   0  0  0  0  0  0  0  0  0  0  0  0
   44.0657   -2.5476   -6.7819 C   0  0  2  0  0  0  0  0  0  0  0  0
   44.0233   -2.5826   -8.2612 O   0  0  0  0  0  0  0  0  0  0  0  0
   42.0606    4.6271   -1.5587 C   0  0  2  0  0  0  0  0  0  0  0  0
   41.2049    3.8905   -2.4694 O   0  0  0  0  0  0  0  0  0  0  0  0
   40.6103    4.9454   -6.2325 C   0  0  2  0  0  0  0  0  0  0  0  0
   40.2108    3.6932   -5.7302 O   0  0  0  0  0  0  0  0  0  0  0  0
   39.8381    0.1937   -3.7681 C   0  0  0  0  0  0  0  0  0  0  0  0
   39.2959    0.7406   -2.5245 O   0  0  0  0  0  0  0  0  0  0  0  0
   42.8748   -3.4459   -6.2216 C   0  0  1  0  0  0  0  0  0  0  0  0
   41.5824   -2.7861   -6.6552 O   0  0  0  0  0  0  0  0  0  0  0  0
   43.1531    3.8170   -0.9878 C   0  0  0  0  0  0  0  0  0  0  0  0
   42.6886    2.6314   -0.5709 O   0  0  0  0  0  0  0  0  0  0  0  0
   41.6277    4.8180   -7.4454 C   0  0  1  0  0  0  0  0  0  0  0  0
   41.0009    4.2334   -8.5461 O   0  0  0  0  0  0  0  0  0  0  0  0
   37.3327    0.9872   -8.9983 C   0  0  0  0  0  0  0  0  0  0  0  0
   43.1008   -4.8702   -6.8328 C   0  0  0  0  0  0  0  0  0  0  0  0
   42.0888   -5.8113   -6.4472 N   0  0  0  0  0  0  0  0  0  0  0  0
   35.9037    1.4295   -9.3166 C   0  0  0  0  0  0  0  0  0  0  0  0
   35.0789    1.0792   -8.1440 N   0  0  0  0  0  0  0  0  0  0  0  0
   33.5661    0.9538   -8.3368 C   0  0  0  0  0  0  0  0  0  0  0  0
  1  2  1  1  0  0  0
  1  8  1  0  0  0  0
  1 33  1  0  0  0  0
  3  4  1  6  0  0  0
  3 10  1  0  0  0  0
  3 42  1  0  0  0  0
  5 11  1  0  0  0  0
  5 29  1  0  0  0  0
  5 35  1  6  0  0  0
  6 13  1  0  0  0  0
  6 39  1  0  0  0  0
  6 22  1  6  0  0  0
  7 15  1  0  0  0  0
  8  9  1  6  0  0  0
  8 17  1  0  0  0  0
 10 19  1  0  0  0  0
 11 12  1  1  0  0  0
 11 21  1  0  0  0  0
 12 44  1  0  0  0  0
 13 14  1  6  0  0  0
 13 23  1  0  0  0  0
 15 16  1  0  0  0  0
 17 18  1  1  0  0  0
 17 25  1  0  0  0  0
 19 20  1  1  0  0  0
 19 27  1  0  0  0  0
 21 22  1  6  0  0  0
 21 28  1  0  0  0  0
 23 24  1  1  0  0  0
 23 30  1  0  0  0  0
 25 26  1  1  0  0  0
 25 32  1  0  0  0  0
 27  2  1  1  0  0  0
 27 34  1  0  0  0  0
 28 29  1  0  0  0  0
 28 36  1  1  0  0  0
 30 31  1  6  0  0  0
 30 38  1  0  0  0  0
 32 33  1  0  0  0  0
 32 40  1  1  0  0  0
 34 35  1  1  0  0  0
 34 42  1  0  0  0  0
 36 37  1  0  0  0  0
 38 39  1  0  0  0  0
 38 45  1  6  0  0  0
 40 41  1  0  0  0  0
 42 43  1  6  0  0  0
 44 47  1  0  0  0  0
 45 46  1  0  0  0  0
 47 48  1  0  0  0  0
 48 49  1  0  0  0  0
 49  7  1  0  0  0  0
M  END
>  <CHROM.1>
178.80268511,56.57867069,-56.41417430,69.50219548,174.72915177,-179.13331916
116.67494037,-167.60759207,176.77197705,69.84255024,173.72809297,-178.82711586
-65.31006089,-159.40358559,-171.14505372,-176.75293271,40.17742961,2.13036117
-5.34717787,1.30126403,-0.27214939,0.52017366

>  <Name>
2bee_lig

>  <RI>
0

>  <Rbt.Current_Directory>
/home/itssahil/PROJECTS/Mol_Feturizer/New_Systems/rnas/2bee

>  <Rbt.Executable>
rbdock ($Id: //depot/dev/client3/rdock/2013.1/src/exe/rbdock.cxx#4 $)

>  <Rbt.Library>
libRbt.so (2013.1, Build901 2013/11/27)

>  <Rbt.Parameter_File>
/export/apps/rDock/src/rDock_2013.1_src/data/scripts/dock_solv.prm

>  <Rbt.Receptor>
prm/pocket_docking_8.prm

>  <SCORE>
-13.8318

>  <SCORE.INTER>
1.63585

>  <SCORE.INTER.CONST>
1

>  <SCORE.INTER.POLAR>
0

>  <SCORE.INTER.ROT>
16

>  <SCORE.INTER.SOLV>
11.3565

>  <SCORE.INTER.VDW>
-16.9616

>  <SCORE.INTER.norm>
0.0333846

>  <SCORE.INTRA>
-15.4677

>  <SCORE.INTRA.DIHEDRAL>
-29.8518

>  <SCORE.INTRA.DIHEDRAL.0>
36.0842

>  <SCORE.INTRA.POLAR>
0

>  <SCORE.INTRA.POLAR.0>
0

>  <SCORE.INTRA.REPUL>
0

>  <SCORE.INTRA.REPUL.0>
0

>  <SCORE.INTRA.SOLV>
-3.58579

>  <SCORE.INTRA.SOLV.lig_0>
-126.444

>  <SCORE.INTRA.VDW>
1.2511

>  <SCORE.INTRA.VDW.0>
-7.40469

>  <SCORE.INTRA.norm>
-0.315667

>  <SCORE.RESTR>
0

>  <SCORE.RESTR.CAVITY>
0

>  <SCORE.RESTR.norm>
0

>  <SCORE.SYSTEM>
0

>  <SCORE.SYSTEM.CONST>
0

>  <SCORE.SYSTEM.DIHEDRAL>
0

>  <SCORE.SYSTEM.SOLV>
0

>  <SCORE.SYSTEM.norm>
0

>  <SCORE.heavy>
49

>  <SCORE.norm>
-0.282283

>  <RMSD>
9.276

$$$$
2bee_lig
 OpenBabel11021811423D
libRbt.so/2013.1/901 2013/11/27
 49 52  0  0  0  0  0  0  0  0999 V2000
   41.6606    9.6137    1.0758 C   0  0  2  0  0  0  0  0  0  0  0  0
   41.9244    8.5653    1.9997 O   0  0  0  0  0  0  0  0  0  0  0  0
   40.0336    4.9277    3.6019 C   0  0  2  0  0  0  0  0  0  0  0  0
   38.9793    3.9222    3.9054 N   0  0  0  0  0  0  0  0  0  0  0  0
   42.1063    5.5289   -0.5653 C   0  0  1  0  0  0  0  0  0  0  0  0
   41.9911    5.2717   -5.3557 C   0  0  1  0  0  0  0  0  0  0  0  0
   45.2099   -0.8101   -3.1579 C   0  0  0  0  0  0  0  0  0  0  0  0
   40.7216   10.6987    1.7317 C   0  0  2  0  0  0  0  0  0  0  0  0
   41.3046   11.1749    2.9815 N   0  0  0  0  0  0  0  0  0  0  0  0
   39.5682    6.3588    4.1341 C   0  0  0  0  0  0  0  0  0  0  0  0
   41.9810    4.4006   -1.5367 C   0  0  2  0  0  0  0  0  0  0  0  0
   43.0226    3.3736   -1.3616 O   0  0  0  0  0  0  0  0  0  0  0  0
   40.7756    5.5030   -6.4045 C   0  0  2  0  0  0  0  0  0  0  0  0
   39.7676    4.4100   -6.1988 N   0  0  0  0  0  0  0  0  0  0  0  0
   43.9022   -1.3157   -3.3454 C   0  0  0  0  0  0  0  0  0  0  0  0
   43.5528   -1.9043   -4.5588 N   0  0  0  0  0  0  0  0  0  0  0  0
   39.2761   10.0738    1.9601 C   0  0  1  0  0  0  0  0  0  0  0  0
   38.4371   11.0585    2.5462 O   0  0  0  0  0  0  0  0  0  0  0  0
   40.6960    7.4958    3.8072 C   0  0  2  0  0  0  0  0  0  0  0  0
   40.2939    8.7745    4.2863 N   0  0  0  0  0  0  0  0  0  0  0  0
   41.9043    5.2514   -2.7813 C   0  0  2  0  0  0  0  0  0  0  0  0
   41.3681    5.2784   -4.0489 O   0  0  0  0  0  0  0  0  0  0  0  0
   41.3604    5.4539   -7.8611 C   0  0  1  0  0  0  0  0  0  0  0  0
   42.3223    6.5588   -7.9854 O   0  0  0  0  0  0  0  0  0  0  0  0
   38.7127    9.5941    0.6023 C   0  0  2  0  0  0  0  0  0  0  0  0
   37.3674    8.9882    0.7727 O   0  0  0  0  0  0  0  0  0  0  0  0
   40.9476    7.5679    2.2507 C   0  0  2  0  0  0  0  0  0  0  0  0
   42.9068    6.4640   -2.4463 C   0  0  2  0  0  0  0  0  0  0  0  0
   42.6499    6.6853   -1.1352 O   0  0  0  0  0  0  0  0  0  0  0  0
   42.0740    4.0061   -8.1029 C   0  0  2  0  0  0  0  0  0  0  0  0
   41.0968    2.9018   -7.9729 O   0  0  0  0  0  0  0  0  0  0  0  0
   39.6555    8.5231   -0.0408 C   0  0  2  0  0  0  0  0  0  0  0  0
   40.9440    9.1776   -0.1670 O   0  0  0  0  0  0  0  0  0  0  0  0
   41.3969    6.1431    1.7808 C   0  0  2  0  0  0  0  0  0  0  0  0
   41.6138    6.3265    0.4026 O   0  0  0  0  0  0  0  0  0  0  0  0
   42.6747    7.8370   -3.1790 C   0  0  0  0  0  0  0  0  0  0  0  0
   43.8762    8.6622   -3.0569 O   0  0  0  0  0  0  0  0  0  0  0  0
   43.2338    3.7822   -7.0334 C   0  0  1  0  0  0  0  0  0  0  0  0
   42.5988    3.8959   -5.6632 O   0  0  0  0  0  0  0  0  0  0  0  0
   39.0557    8.1437   -1.3339 C   0  0  0  0  0  0  0  0  0  0  0  0
   39.8571    7.2943   -1.9908 O   0  0  0  0  0  0  0  0  0  0  0  0
   40.2701    5.0650    2.0813 C   0  0  1  0  0  0  0  0  0  0  0  0
   40.6853    3.7994    1.6665 O   0  0  0  0  0  0  0  0  0  0  0  0
   43.1741    2.5130   -0.1770 C   0  0  0  0  0  0  0  0  0  0  0  0
   43.8256    2.3665   -7.3474 C   0  0  0  0  0  0  0  0  0  0  0  0
   44.3913    2.2759   -8.6628 N   0  0  0  0  0  0  0  0  0  0  0  0
   44.4987    1.7543   -0.2707 C   0  0  0  0  0  0  0  0  0  0  0  0
   44.4885    1.0384   -1.5612 N   0  0  0  0  0  0  0  0  0  0  0  0
   45.5417   -0.0471   -1.7931 C   0  0  0  0  0  0  0  0  0  0  0  0
  1  2  1  1  0  0  0
  1  8  1  0  0  0  0
  1 33  1  0  0  0  0
  3  4  1  6  0  0  0
  3 10  1  0  0  0  0
  3 42  1  0  0  0  0
  5 11  1  0  0  0  0
  5 29  1  0  0  0  0
  5 35  1  6  0  0  0
  6 13  1  0  0  0  0
  6 39  1  0  0  0  0
  6 22  1  1  0  0  0
  7 15  1  0  0  0  0
  8  9  1  1  0  0  0
  8 17  1  0  0  0  0
 10 19  1  0  0  0  0
 11 12  1  6  0  0  0
 11 21  1  0  0  0  0
 12 44  1  0  0  0  0
 13 14  1  6  0  0  0
 13 23  1  0  0  0  0
 15 16  1  0  0  0  0
 17 18  1  6  0  0  0
 17 25  1  0  0  0  0
 19 20  1  6  0  0  0
 19 27  1  0  0  0  0
 21 22  1  6  0  0  0
 21 28  1  0  0  0  0
 23 24  1  1  0  0  0
 23 30  1  0  0  0  0
 25 26  1  1  0  0  0
 25 32  1  0  0  0  0
 27  2  1  1  0  0  0
 27 34  1  0  0  0  0
 28 29  1  0  0  0  0
 28 36  1  6  0  0  0
 30 31  1  1  0  0  0
 30 38  1  0  0  0  0
 32 33  1  0  0  0  0
 32 40  1  6  0  0  0
 34 35  1  6  0  0  0
 34 42  1  0  0  0  0
 36 37  1  0  0  0  0
 38 39  1  0  0  0  0
 38 45  1  6  0  0  0
 40 41  1  0  0  0  0
 42 43  1  1  0  0  0
 44 47  1  0  0  0  0
 45 46  1  0  0  0  0
 47 48  1  0  0  0  0
 48 49  1  0  0  0  0
 49  7  1  0  0  0  0
M  END
>  <CHROM.1>
77.47227047,76.88263840,-173.16964213,175.59935511,65.27998620,-170.41032953
-115.23458086,-126.31874625,-163.50272695,175.69425111,174.08259700,61.46986078
-55.20703021,-166.62451778,172.27935237,-51.53961017,41.62554992,5.61342558
-1.56231674,2.44925288,-1.18065066,1.75700594

>  <Name>
2bee_lig

>  <RI>
0

>  <Rbt.Current_Directory>
/home/itssahil/PROJECTS/Mol_Feturizer/New_Systems/rnas/2bee

>  <Rbt.Executable>
rbdock ($Id: //depot/dev/client3/rdock/2013.1/src/exe/rbdock.cxx#4 $)

>  <Rbt.Library>
libRbt.so (2013.1, Build901 2013/11/27)

>  <Rbt.Parameter_File>
/export/apps/rDock/src/rDock_2013.1_src/data/scripts/dock_solv.prm

>  <Rbt.Receptor>
prm/pocket_docking_6.prm

>  <SCORE>
-19.4857

>  <SCORE.INTER>
-10.7398

>  <SCORE.INTER.CONST>
1

>  <SCORE.INTER.POLAR>
-0.874721

>  <SCORE.INTER.ROT>
16

>  <SCORE.INTER.SOLV>
12.5255

>  <SCORE.INTER.VDW>
-22.686

>  <SCORE.INTER.norm>
-0.21918

>  <SCORE.INTRA>
-8.74593

>  <SCORE.INTRA.DIHEDRAL>
-20.3314

>  <SCORE.INTRA.DIHEDRAL.0>
36.0842

>  <SCORE.INTRA.POLAR>
0

>  <SCORE.INTRA.POLAR.0>
0

>  <SCORE.INTRA.REPUL>
0.0190323

>  <SCORE.INTRA.REPUL.0>
0

>  <SCORE.INTRA.SOLV>
3.37693

>  <SCORE.INTRA.SOLV.lig_0>
-126.444

>  <SCORE.INTRA.VDW>
-0.363859

>  <SCORE.INTRA.VDW.0>
-7.40469

>  <SCORE.INTRA.norm>
-0.178488

>  <SCORE.RESTR>
0

>  <SCORE.RESTR.CAVITY>
0

>  <SCORE.RESTR.norm>
0

>  <SCORE.SYSTEM>
0

>  <SCORE.SYSTEM.CONST>
0

>  <SCORE.SYSTEM.DIHEDRAL>
0

>  <SCORE.SYSTEM.SOLV>
0

>  <SCORE.SYSTEM.norm>
0

>  <SCORE.heavy>
49

>  <SCORE.norm>
-0.397668

>  <RMSD>
9.280

$$$$
2bee_lig
 OpenBabel11021811423D
libRbt.so/2013.1/901 2013/11/27
 49 52  0  0  0  0  0  0  0  0999 V2000
   40.1891    3.8526   -1.6864 C   0  0  2  0  0  0  0  0  0  0  0  0
   41.4094    3.6020   -1.0007 O   0  0  0  0  0  0  0  0  0  0  0  0
   43.4285    7.4828   -1.4869 C   0  0  2  0  0  0  0  0  0  0  0  0
   44.4478    8.5547   -1.3223 N   0  0  0  0  0  0  0  0  0  0  0  0
   44.1858    3.6412   -3.9457 C   0  0  1  0  0  0  0  0  0  0  0  0
   47.4029    0.3340   -5.2099 C   0  0  1  0  0  0  0  0  0  0  0  0
   44.8698    4.0774  -10.9901 C   0  0  0  0  0  0  0  0  0  0  0  0
   39.2122    2.6232   -1.5336 C   0  0  2  0  0  0  0  0  0  0  0  0
   39.0179    2.3114   -0.1216 N   0  0  0  0  0  0  0  0  0  0  0  0
   42.8733    7.0565   -0.0523 C   0  0  0  0  0  0  0  0  0  0  0  0
   45.4456    3.7406   -4.7431 C   0  0  2  0  0  0  0  0  0  0  0  0
   45.2342    4.3196   -6.0811 O   0  0  0  0  0  0  0  0  0  0  0  0
   49.0208    0.2946   -5.1013 C   0  0  2  0  0  0  0  0  0  0  0  0
   49.5573    1.5794   -5.6621 N   0  0  0  0  0  0  0  0  0  0  0  0
   44.5610    3.9840  -12.3674 C   0  0  0  0  0  0  0  0  0  0  0  0
   45.5589    3.6541  -13.2818 N   0  0  0  0  0  0  0  0  0  0  0  0
   39.8029    1.3801   -2.3322 C   0  0  1  0  0  0  0  0  0  0  0  0
   38.9151    0.2804   -2.1928 O   0  0  0  0  0  0  0  0  0  0  0  0
   41.7584    5.8691   -0.1896 C   0  0  2  0  0  0  0  0  0  0  0  0
   41.2504    5.4881    1.0844 N   0  0  0  0  0  0  0  0  0  0  0  0
   45.8819    2.3076   -4.5565 C   0  0  2  0  0  0  0  0  0  0  0  0
   47.0040    1.5145   -4.4729 O   0  0  0  0  0  0  0  0  0  0  0  0
   49.5442   -0.9345   -5.9268 C   0  0  1  0  0  0  0  0  0  0  0  0
   48.9891   -2.1472   -5.3080 O   0  0  0  0  0  0  0  0  0  0  0  0
   39.9803    1.7719   -3.8176 C   0  0  2  0  0  0  0  0  0  0  0  0
   40.5456    0.6419   -4.5983 O   0  0  0  0  0  0  0  0  0  0  0  0
   42.3979    4.6144   -0.9023 C   0  0  2  0  0  0  0  0  0  0  0  0
   44.4880    1.5051   -4.5772 C   0  0  2  0  0  0  0  0  0  0  0  0
   43.6740    2.3404   -3.8889 O   0  0  0  0  0  0  0  0  0  0  0  0
   49.0659   -0.7794   -7.4794 C   0  0  2  0  0  0  0  0  0  0  0  0
   49.6286    0.4458   -8.0907 O   0  0  0  0  0  0  0  0  0  0  0  0
   40.9463    2.9957   -3.9555 C   0  0  2  0  0  0  0  0  0  0  0  0
   40.3394    4.0499   -3.1652 O   0  0  0  0  0  0  0  0  0  0  0  0
   42.9279    5.0863   -2.2983 C   0  0  2  0  0  0  0  0  0  0  0  0
   43.4483    3.9003   -2.8483 O   0  0  0  0  0  0  0  0  0  0  0  0
   44.4242    0.1181   -3.8370 C   0  0  0  0  0  0  0  0  0  0  0  0
   44.4255    0.3383   -2.3910 O   0  0  0  0  0  0  0  0  0  0  0  0
   47.4764   -0.6976   -7.5568 C   0  0  1  0  0  0  0  0  0  0  0  0
   47.0523    0.4753   -6.6978 O   0  0  0  0  0  0  0  0  0  0  0  0
   41.0365    3.3118   -5.3935 C   0  0  0  0  0  0  0  0  0  0  0  0
   41.5448    4.5385   -5.5724 O   0  0  0  0  0  0  0  0  0  0  0  0
   44.0319    6.2162   -2.1338 C   0  0  1  0  0  0  0  0  0  0  0  0
   44.4896    6.6343   -3.3836 O   0  0  0  0  0  0  0  0  0  0  0  0
   44.1903    3.9011   -7.0308 C   0  0  0  0  0  0  0  0  0  0  0  0
   47.1390   -0.5304   -9.0772 C   0  0  0  0  0  0  0  0  0  0  0  0
   45.7292   -0.5520   -9.3429 N   0  0  0  0  0  0  0  0  0  0  0  0
   44.6628    2.6565   -7.7837 C   0  0  0  0  0  0  0  0  0  0  0  0
   45.6615    3.1104   -8.7709 N   0  0  0  0  0  0  0  0  0  0  0  0
   45.4233    2.7762  -10.2450 C   0  0  0  0  0  0  0  0  0  0  0  0
  1  2  1  6  0  0  0
  1  8  1  0  0  0  0
  1 33  1  0  0  0  0
  3  4  1  1  0  0  0
  3 10  1  0  0  0  0
  3 42  1  0  0  0  0
  5 11  1  0  0  0  0
  5 29  1  0  0  0  0
  5 35  1  1  0  0  0
  6 13  1  0  0  0  0
  6 39  1  0  0  0  0
  6 22  1  1  0  0  0
  7 15  1  0  0  0  0
  8  9  1  1  0  0  0
  8 17  1  0  0  0  0
 10 19  1  0  0  0  0
 11 12  1  6  0  0  0
 11 21  1  0  0  0  0
 12 44  1  0  0  0  0
 13 14  1  6  0  0  0
 13 23  1  0  0  0  0
 15 16  1  0  0  0  0
 17 18  1  6  0  0  0
 17 25  1  0  0  0  0
 19 20  1  1  0  0  0
 19 27  1  0  0  0  0
 21 22  1  6  0  0  0
 21 28  1  0  0  0  0
 23 24  1  1  0  0  0
 23 30  1  0  0  0  0
 25 26  1  6  0  0  0
 25 32  1  0  0  0  0
 27  2  1  6  0  0  0
 27 34  1  0  0  0  0
 28 29  1  0  0  0  0
 28 36  1  1  0  0  0
 30 31  1  1  0  0  0
 30 38  1  0  0  0  0
 32 33  1  0  0  0  0
 32 40  1  6  0  0  0
 34 35  1  1  0  0  0
 34 42  1  0  0  0  0
 36 37  1  0  0  0  0
 38 39  1  0  0  0  0
 38 45  1  6  0  0  0
 40 41  1  0  0  0  0
 42 43  1  6  0  0  0
 44 47  1  0  0  0  0
 45 46  1  0  0  0  0
 47 48  1  0  0  0  0
 48 49  1  0  0  0  0
 49  7  1  0  0  0  0
M  END
>  <CHROM.1>
-174.57583546,66.07440419,155.67450975,-60.80647817,-48.67538286,-82.02966131
-125.54817353,58.29366653,72.93948922,163.63063558,-170.73882742,175.08912249
-75.20430415,-123.65605621,102.07182335,-179.06449201,44.16733357,2.70930964
-4.77220240,2.55729922,-0.73039057,1.89690970

>  <Name>
2bee_lig

>  <RI>
0

>  <Rbt.Current_Directory>
/home/itssahil/PROJECTS/Mol_Feturizer/New_Systems/rnas/2bee

>  <Rbt.Executable>
rbdock ($Id: //depot/dev/client3/rdock/2013.1/src/exe/rbdock.cxx#4 $)

>  <Rbt.Library>
libRbt.so (2013.1, Build901 2013/11/27)

>  <Rbt.Parameter_File>
/export/apps/rDock/src/rDock_2013.1_src/data/scripts/dock_solv.prm

>  <Rbt.Receptor>
prm/pocket_docking_7.prm

>  <SCORE>
-1.64197

>  <SCORE.INTER>
9.76076

>  <SCORE.INTER.CONST>
1

>  <SCORE.INTER.POLAR>
-0.201685

>  <SCORE.INTER.ROT>
16

>  <SCORE.INTER.SOLV>
12.1754

>  <SCORE.INTER.VDW>
-11.1457

>  <SCORE.INTER.norm>
0.199199

>  <SCORE.INTRA>
-11.4027

>  <SCORE.INTRA.DIHEDRAL>
-21.7736

>  <SCORE.INTRA.DIHEDRAL.0>
36.0842

>  <SCORE.INTRA.POLAR>
0

>  <SCORE.INTRA.POLAR.0>
0

>  <SCORE.INTRA.REPUL>
0

>  <SCORE.INTRA.REPUL.0>
0

>  <SCORE.INTRA.SOLV>
1.85503

>  <SCORE.INTRA.SOLV.lig_0>
-126.444

>  <SCORE.INTRA.VDW>
-1.44346

>  <SCORE.INTRA.VDW.0>
-7.40469

>  <SCORE.INTRA.norm>
-0.232709

>  <SCORE.RESTR>
0

>  <SCORE.RESTR.CAVITY>
0

>  <SCORE.RESTR.norm>
0

>  <SCORE.SYSTEM>
0

>  <SCORE.SYSTEM.CONST>
0

>  <SCORE.SYSTEM.DIHEDRAL>
0

>  <SCORE.SYSTEM.SOLV>
0

>  <SCORE.SYSTEM.norm>
0

>  <SCORE.heavy>
49

>  <SCORE.norm>
-0.0335095

>  <RMSD>
9.292

$$$$
2bee_lig
 OpenBabel11021811423D
libRbt.so/2013.1/901 2013/11/27
 49 52  0  0  0  0  0  0  0  0999 V2000
   45.0476    1.0178   -3.2737 C   0  0  2  0  0  0  0  0  0  0  0  0
   44.7229    1.6882   -2.0624 O   0  0  0  0  0  0  0  0  0  0  0  0
   41.0038    2.2976    0.2117 C   0  0  2  0  0  0  0  0  0  0  0  0
   39.6090    2.7172    0.5171 N   0  0  0  0  0  0  0  0  0  0  0  0
   42.1859   -1.3726   -2.4412 C   0  0  1  0  0  0  0  0  0  0  0  0
   38.3691   -2.8670   -4.5058 C   0  0  1  0  0  0  0  0  0  0  0  0
   36.3044   -5.4748   -1.2073 C   0  0  0  0  0  0  0  0  0  0  0  0
   46.4846    0.3741   -3.1755 C   0  0  2  0  0  0  0  0  0  0  0  0
   46.5648   -0.4939   -2.0056 N   0  0  0  0  0  0  0  0  0  0  0  0
   41.8389    3.5625   -0.2888 C   0  0  0  0  0  0  0  0  0  0  0  0
   41.1289   -2.4226   -2.3273 C   0  0  2  0  0  0  0  0  0  0  0  0
   41.5639   -3.5929   -1.5454 O   0  0  0  0  0  0  0  0  0  0  0  0
   37.7698   -3.1333   -5.9893 C   0  0  2  0  0  0  0  0  0  0  0  0
   38.2245   -2.0167   -6.8834 N   0  0  0  0  0  0  0  0  0  0  0  0
   34.9123   -5.3294   -1.0029 C   0  0  0  0  0  0  0  0  0  0  0  0
   34.0620   -5.1785   -2.0960 N   0  0  0  0  0  0  0  0  0  0  0  0
   47.5761    1.5308   -3.1228 C   0  0  1  0  0  0  0  0  0  0  0  0
   48.8659    0.9421   -3.0393 O   0  0  0  0  0  0  0  0  0  0  0  0
   43.3762    3.1393   -0.6479 C   0  0  2  0  0  0  0  0  0  0  0  0
   44.1319    4.2630   -1.0868 N   0  0  0  0  0  0  0  0  0  0  0  0
   40.8228   -2.5206   -3.8022 C   0  0  2  0  0  0  0  0  0  0  0  0
   39.8040   -2.7986   -4.6853 O   0  0  0  0  0  0  0  0  0  0  0  0
   36.2027   -3.1664   -5.8932 C   0  0  1  0  0  0  0  0  0  0  0  0
   35.8403   -4.2902   -5.0171 O   0  0  0  0  0  0  0  0  0  0  0  0
   47.4425    2.4096   -4.3881 C   0  0  2  0  0  0  0  0  0  0  0  0
   48.4355    3.5140   -4.3717 O   0  0  0  0  0  0  0  0  0  0  0  0
   43.3774    2.0288   -1.7695 C   0  0  2  0  0  0  0  0  0  0  0  0
   42.2669   -2.3153   -4.4803 C   0  0  2  0  0  0  0  0  0  0  0  0
   42.8129   -1.3591   -3.6919 O   0  0  0  0  0  0  0  0  0  0  0  0
   35.6728   -1.7434   -5.2952 C   0  0  2  0  0  0  0  0  0  0  0  0
   36.0455   -0.6197   -6.1839 O   0  0  0  0  0  0  0  0  0  0  0  0
   46.0115    3.0374   -4.4773 C   0  0  2  0  0  0  0  0  0  0  0  0
   45.1006    1.9084   -4.4788 O   0  0  0  0  0  0  0  0  0  0  0  0
   42.5453    0.8163   -1.2312 C   0  0  2  0  0  0  0  0  0  0  0  0
   42.6314   -0.1104   -2.2865 O   0  0  0  0  0  0  0  0  0  0  0  0
   42.3190   -1.7572   -5.9506 C   0  0  0  0  0  0  0  0  0  0  0  0
   41.6976   -0.4337   -5.9903 O   0  0  0  0  0  0  0  0  0  0  0  0
   36.3097   -1.4826   -3.8579 C   0  0  1  0  0  0  0  0  0  0  0  0
   37.8141   -1.5176   -4.0287 O   0  0  0  0  0  0  0  0  0  0  0  0
   45.9684    3.8338   -5.7181 C   0  0  0  0  0  0  0  0  0  0  0  0
   44.7572    4.3836   -5.8799 O   0  0  0  0  0  0  0  0  0  0  0  0
   41.0487    1.2482   -0.9213 C   0  0  1  0  0  0  0  0  0  0  0  0
   40.3203    0.1624   -0.4345 O   0  0  0  0  0  0  0  0  0  0  0  0
   40.7608   -4.8051   -1.3157 C   0  0  0  0  0  0  0  0  0  0  0  0
   35.7514   -0.0933   -3.3981 C   0  0  0  0  0  0  0  0  0  0  0  0
   34.3437   -0.1197   -3.1223 N   0  0  0  0  0  0  0  0  0  0  0  0
   39.4578   -4.4212   -0.6129 C   0  0  0  0  0  0  0  0  0  0  0  0
   38.7090   -5.6736   -0.3917 N   0  0  0  0  0  0  0  0  0  0  0  0
   37.2549   -5.5728    0.0740 C   0  0  0  0  0  0  0  0  0  0  0  0
  1  2  1  1  0  0  0
  1  8  1  0  0  0  0
  1 33  1  0  0  0  0
  3  4  1  6  0  0  0
  3 10  1  0  0  0  0
  3 42  1  0  0  0  0
  5 11  1  0  0  0  0
  5 29  1  0  0  0  0
  5 35  1  6  0  0  0
  6 13  1  0  0  0  0
  6 39  1  0  0  0  0
  6 22  1  6  0  0  0
  7 15  1  0  0  0  0
  8  9  1  1  0  0  0
  8 17  1  0  0  0  0
 10 19  1  0  0  0  0
 11 12  1  6  0  0  0
 11 21  1  0  0  0  0
 12 44  1  0  0  0  0
 13 14  1  6  0  0  0
 13 23  1  0  0  0  0
 15 16  1  0  0  0  0
 17 18  1  6  0  0  0
 17 25  1  0  0  0  0
 19 20  1  6  0  0  0
 19 27  1  0  0  0  0
 21 22  1  1  0  0  0
 21 28  1  0  0  0  0
 23 24  1  1  0  0  0
 23 30  1  0  0  0  0
 25 26  1  1  0  0  0
 25 32  1  0  0  0  0
 27  2  1  1  0  0  0
 27 34  1  0  0  0  0
 28 29  1  0  0  0  0
 28 36  1  6  0  0  0
 30 31  1  6  0  0  0
 30 38  1  0  0  0  0
 32 33  1  0  0  0  0
 32 40  1  6  0  0  0
 34 35  1  6  0  0  0
 34 42  1  0  0  0  0
 36 37  1  0  0  0  0
 38 39  1  0  0  0  0
 38 45  1  6  0  0  0
 40 41  1  0  0  0  0
 42 43  1  1  0  0  0
 44 47  1  0  0  0  0
 45 46  1  0  0  0  0
 47 48  1  0  0  0  0
 48 49  1  0  0  0  0
 49  7  1  0  0  0  0
M  END
>  <CHROM.1>
-162.95209974,45.29790837,175.86791858,177.01788535,-177.16895996,-59.03988080
15.85797904,-161.73762047,60.50146654,178.68942444,176.68759018,68.43948045
-179.13115735,-169.45792300,88.35595336,-177.97885029,41.15057687,-0.64265986
-3.07885740,-0.20985084,0.51773438,1.95140431

>  <Name>
2bee_lig

>  <RI>
0

>  <Rbt.Current_Directory>
/home/itssahil/PROJECTS/Mol_Feturizer/New_Systems/rnas/2bee

>  <Rbt.Executable>
rbdock ($Id: //depot/dev/client3/rdock/2013.1/src/exe/rbdock.cxx#4 $)

>  <Rbt.Library>
libRbt.so (2013.1, Build901 2013/11/27)

>  <Rbt.Parameter_File>
/export/apps/rDock/src/rDock_2013.1_src/data/scripts/dock_solv.prm

>  <Rbt.Receptor>
prm/pocket_docking_6.prm

>  <SCORE>
-8.85421

>  <SCORE.INTER>
5.51311

>  <SCORE.INTER.CONST>
1

>  <SCORE.INTER.POLAR>
0

>  <SCORE.INTER.ROT>
16

>  <SCORE.INTER.SOLV>
12.768

>  <SCORE.INTER.VDW>
-14.8473

>  <SCORE.INTER.norm>
0.112513

>  <SCORE.INTRA>
-14.3673

>  <SCORE.INTRA.DIHEDRAL>
-27.1701

>  <SCORE.INTRA.DIHEDRAL.0>
36.0842

>  <SCORE.INTRA.POLAR>
0

>  <SCORE.INTRA.POLAR.0>
0

>  <SCORE.INTRA.REPUL>
0

>  <SCORE.INTRA.REPUL.0>
0

>  <SCORE.INTRA.SOLV>
-2.87852

>  <SCORE.INTRA.SOLV.lig_0>
-126.444

>  <SCORE.INTRA.VDW>
0.657008

>  <SCORE.INTRA.VDW.0>
-7.40469

>  <SCORE.INTRA.norm>
-0.293211

>  <SCORE.RESTR>
0

>  <SCORE.RESTR.CAVITY>
0

>  <SCORE.RESTR.norm>
0

>  <SCORE.SYSTEM>
0

>  <SCORE.SYSTEM.CONST>
0

>  <SCORE.SYSTEM.DIHEDRAL>
0

>  <SCORE.SYSTEM.SOLV>
0

>  <SCORE.SYSTEM.norm>
0

>  <SCORE.heavy>
49

>  <SCORE.norm>
-0.180698

>  <RMSD>
9.293

$$$$
2bee_lig
 OpenBabel11021811423D
libRbt.so/2013.1/901 2013/11/27
 49 52  0  0  0  0  0  0  0  0999 V2000
   41.8223    9.2335   -0.5515 C   0  0  2  0  0  0  0  0  0  0  0  0
   42.9454    8.3635   -0.4889 O   0  0  0  0  0  0  0  0  0  0  0  0
   44.0719    4.2271   -1.4865 C   0  0  2  0  0  0  0  0  0  0  0  0
   43.9329    2.8090   -1.9163 N   0  0  0  0  0  0  0  0  0  0  0  0
   43.4514    7.6119   -4.4623 C   0  0  1  0  0  0  0  0  0  0  0  0
   43.0824    4.0695   -7.3776 C   0  0  1  0  0  0  0  0  0  0  0  0
   49.6980    6.0312   -7.1857 C   0  0  0  0  0  0  0  0  0  0  0  0
   42.2243   10.6825   -0.0744 C   0  0  2  0  0  0  0  0  0  0  0  0
   43.3624   11.1660   -0.8487 N   0  0  0  0  0  0  0  0  0  0  0  0
   43.0970    4.5037   -0.2533 C   0  0  0  0  0  0  0  0  0  0  0  0
   43.9688    7.0918   -5.7640 C   0  0  2  0  0  0  0  0  0  0  0  0
   44.5007    8.1533   -6.6360 O   0  0  0  0  0  0  0  0  0  0  0  0
   42.0078    3.2337   -8.2594 C   0  0  2  0  0  0  0  0  0  0  0  0
   40.8821    2.8224   -7.3556 N   0  0  0  0  0  0  0  0  0  0  0  0
   50.6301    4.9867   -6.9833 C   0  0  0  0  0  0  0  0  0  0  0  0
   50.2116    3.7811   -6.4247 N   0  0  0  0  0  0  0  0  0  0  0  0
   42.5459   10.6525    1.4837 C   0  0  1  0  0  0  0  0  0  0  0  0
   42.9020   11.9613    1.9047 O   0  0  0  0  0  0  0  0  0  0  0  0
   43.2107    6.0576    0.2407 C   0  0  2  0  0  0  0  0  0  0  0  0
   42.3512    6.3120    1.3466 N   0  0  0  0  0  0  0  0  0  0  0  0
   42.7386    6.2996   -6.1351 C   0  0  2  0  0  0  0  0  0  0  0  0
   42.3340    5.1770   -6.8215 O   0  0  0  0  0  0  0  0  0  0  0  0
   42.7294    1.9740   -8.8583 C   0  0  1  0  0  0  0  0  0  0  0  0
   43.8024    2.4599   -9.7382 O   0  0  0  0  0  0  0  0  0  0  0  0
   41.3031   10.1376    2.2463 C   0  0  2  0  0  0  0  0  0  0  0  0
   41.5661   10.0790    3.7069 O   0  0  0  0  0  0  0  0  0  0  0  0
   42.8433    7.0260   -0.9502 C   0  0  2  0  0  0  0  0  0  0  0  0
   41.5414    7.2203   -5.5812 C   0  0  2  0  0  0  0  0  0  0  0  0
   42.0546    7.6733   -4.4127 O   0  0  0  0  0  0  0  0  0  0  0  0
   43.3187    1.0642   -7.6383 C   0  0  2  0  0  0  0  0  0  0  0  0
   42.2300    0.5831   -6.7581 O   0  0  0  0  0  0  0  0  0  0  0  0
   40.9108    8.7025    1.7602 C   0  0  2  0  0  0  0  0  0  0  0  0
   40.6801    8.8341    0.3341 O   0  0  0  0  0  0  0  0  0  0  0  0
   43.8232    6.7121   -2.1307 C   0  0  2  0  0  0  0  0  0  0  0  0
   43.4267    7.6357   -3.1154 O   0  0  0  0  0  0  0  0  0  0  0  0
   40.1783    6.5211   -5.2226 C   0  0  0  0  0  0  0  0  0  0  0  0
   39.5372    6.0481   -6.4493 O   0  0  0  0  0  0  0  0  0  0  0  0
   44.3368    1.9194   -6.7601 C   0  0  1  0  0  0  0  0  0  0  0  0
   43.5806    3.1350   -6.2662 O   0  0  0  0  0  0  0  0  0  0  0  0
   39.7102    8.3050    2.5194 C   0  0  0  0  0  0  0  0  0  0  0  0
   38.6863    9.1222    2.2381 O   0  0  0  0  0  0  0  0  0  0  0  0
   43.6686    5.2063   -2.6113 C   0  0  1  0  0  0  0  0  0  0  0  0
   44.5523    4.9365   -3.6566 O   0  0  0  0  0  0  0  0  0  0  0  0
   45.4745    7.9506   -7.7212 C   0  0  0  0  0  0  0  0  0  0  0  0
   44.8160    0.9587   -5.6197 C   0  0  0  0  0  0  0  0  0  0  0  0
   43.7729    0.6280   -4.6918 N   0  0  0  0  0  0  0  0  0  0  0  0
   46.7576    7.3527   -7.1423 C   0  0  0  0  0  0  0  0  0  0  0  0
   47.6431    7.0581   -8.2856 N   0  0  0  0  0  0  0  0  0  0  0  0
   48.5059    5.7959   -8.2242 C   0  0  0  0  0  0  0  0  0  0  0  0
  1  2  1  1  0  0  0
  1  8  1  0  0  0  0
  1 33  1  0  0  0  0
  3  4  1  6  0  0  0
  3 10  1  0  0  0  0
  3 42  1  0  0  0  0
  5 11  1  0  0  0  0
  5 29  1  0  0  0  0
  5 35  1  1  0  0  0
  6 13  1  0  0  0  0
  6 39  1  0  0  0  0
  6 22  1  1  0  0  0
  7 15  1  0  0  0  0
  8  9  1  6  0  0  0
  8 17  1  0  0  0  0
 10 19  1  0  0  0  0
 11 12  1  6  0  0  0
 11 21  1  0  0  0  0
 12 44  1  0  0  0  0
 13 14  1  1  0  0  0
 13 23  1  0  0  0  0
 15 16  1  0  0  0  0
 17 18  1  1  0  0  0
 17 25  1  0  0  0  0
 19 20  1  1  0  0  0
 19 27  1  0  0  0  0
 21 22  1  6  0  0  0
 21 28  1  0  0  0  0
 23 24  1  6  0  0  0
 23 30  1  0  0  0  0
 25 26  1  1  0  0  0
 25 32  1  0  0  0  0
 27  2  1  1  0  0  0
 27 34  1  0  0  0  0
 28 29  1  0  0  0  0
 28 36  1  1  0  0  0
 30 31  1  1  0  0  0
 30 38  1  0  0  0  0
 32 33  1  0  0  0  0
 32 40  1  1  0  0  0
 34 35  1  6  0  0  0
 34 42  1  0  0  0  0
 36 37  1  0  0  0  0
 38 39  1  0  0  0  0
 38 45  1  1  0  0  0
 40 41  1  0  0  0  0
 42 43  1  6  0  0  0
 44 47  1  0  0  0  0
 45 46  1  0  0  0  0
 47 48  1  0  0  0  0
 48 49  1  0  0  0  0
 49  7  1  0  0  0  0
M  END
>  <CHROM.1>
-176.05025209,-21.01515959,-170.82492899,-64.52274492,157.33558790,-59.40109194
11.47033950,-121.89782472,-68.63722582,63.18763682,-150.22355115,-67.73855034
174.91612700,-143.05724930,-73.35931355,-179.39566260,43.39028774,6.14796355
-3.73049451,-1.94494295,-0.52219589,-2.34044186

>  <Name>
2bee_lig

>  <RI>
0

>  <Rbt.Current_Directory>
/home/itssahil/PROJECTS/Mol_Feturizer/New_Systems/rnas/2bee

>  <Rbt.Executable>
rbdock ($Id: //depot/dev/client3/rdock/2013.1/src/exe/rbdock.cxx#4 $)

>  <Rbt.Library>
libRbt.so (2013.1, Build901 2013/11/27)

>  <Rbt.Parameter_File>
/export/apps/rDock/src/rDock_2013.1_src/data/scripts/dock_solv.prm

>  <Rbt.Receptor>
prm/pocket_docking_7.prm

>  <SCORE>
-15.5356

>  <SCORE.INTER>
-11.6269

>  <SCORE.INTER.CONST>
1

>  <SCORE.INTER.POLAR>
-1.77165

>  <SCORE.INTER.ROT>
16

>  <SCORE.INTER.SOLV>
13.5624

>  <SCORE.INTER.VDW>
-20.6332

>  <SCORE.INTER.norm>
-0.237283

>  <SCORE.INTRA>
-3.90876

>  <SCORE.INTRA.DIHEDRAL>
-13.1532

>  <SCORE.INTRA.DIHEDRAL.0>
36.0842

>  <SCORE.INTRA.POLAR>
0

>  <SCORE.INTRA.POLAR.0>
0

>  <SCORE.INTRA.REPUL>
0.0161699

>  <SCORE.INTRA.REPUL.0>
0

>  <SCORE.INTRA.SOLV>
2.79559

>  <SCORE.INTRA.SOLV.lig_0>
-126.444

>  <SCORE.INTRA.VDW>
1.18918

>  <SCORE.INTRA.VDW.0>
-7.40469

>  <SCORE.INTRA.norm>
-0.0797707

>  <SCORE.RESTR>
0

>  <SCORE.RESTR.CAVITY>
0

>  <SCORE.RESTR.norm>
0

>  <SCORE.SYSTEM>
0

>  <SCORE.SYSTEM.CONST>
0

>  <SCORE.SYSTEM.DIHEDRAL>
0

>  <SCORE.SYSTEM.SOLV>
0

>  <SCORE.SYSTEM.norm>
0

>  <SCORE.heavy>
49

>  <SCORE.norm>
-0.317053

>  <RMSD>
9.300

$$$$
2bee_lig
 OpenBabel11021811423D
libRbt.so/2013.1/901 2013/11/27
 49 52  0  0  0  0  0  0  0  0999 V2000
   40.0848    6.3981   -1.3691 C   0  0  2  0  0  0  0  0  0  0  0  0
   41.4433    6.0049   -1.5172 O   0  0  0  0  0  0  0  0  0  0  0  0
   43.7634    2.2655   -1.4264 C   0  0  2  0  0  0  0  0  0  0  0  0
   44.0792    0.8169   -1.5559 N   0  0  0  0  0  0  0  0  0  0  0  0
   43.0913    4.9849   -5.0838 C   0  0  1  0  0  0  0  0  0  0  0  0
   46.8053    2.8766   -6.8207 C   0  0  1  0  0  0  0  0  0  0  0  0
   44.8724    9.7455  -10.5124 C   0  0  0  0  0  0  0  0  0  0  0  0
   39.9245    7.9388   -1.6681 C   0  0  2  0  0  0  0  0  0  0  0  0
   40.4669    8.2515   -2.9859 N   0  0  0  0  0  0  0  0  0  0  0  0
   42.5255    2.4503   -0.4358 C   0  0  0  0  0  0  0  0  0  0  0  0
   44.1964    5.1453   -6.0765 C   0  0  2  0  0  0  0  0  0  0  0  0
   43.8661    6.0924   -7.1555 O   0  0  0  0  0  0  0  0  0  0  0  0
   47.3871    2.5362   -5.3454 C   0  0  2  0  0  0  0  0  0  0  0  0
   46.7734    3.4970   -4.3690 N   0  0  0  0  0  0  0  0  0  0  0  0
   43.7999    9.9521  -11.4111 C   0  0  0  0  0  0  0  0  0  0  0  0
   43.9504   10.8309  -12.4815 N   0  0  0  0  0  0  0  0  0  0  0  0
   40.6480    8.7744   -0.5234 C   0  0  1  0  0  0  0  0  0  0  0  0
   40.4945   10.1593   -0.7984 O   0  0  0  0  0  0  0  0  0  0  0  0
   42.1383    4.0303   -0.2772 C   0  0  2  0  0  0  0  0  0  0  0  0
   41.0407    4.2061    0.6119 N   0  0  0  0  0  0  0  0  0  0  0  0
   44.4026    3.6742   -6.3451 C   0  0  2  0  0  0  0  0  0  0  0  0
   45.3679    2.7577   -6.6961 O   0  0  0  0  0  0  0  0  0  0  0  0
   48.9488    2.6973   -5.3780 C   0  0  1  0  0  0  0  0  0  0  0  0
   49.4711    1.7167   -6.3411 O   0  0  0  0  0  0  0  0  0  0  0  0
   40.0267    8.4026    0.8430 C   0  0  2  0  0  0  0  0  0  0  0  0
   40.6855    9.1506    1.9442 O   0  0  0  0  0  0  0  0  0  0  0  0
   41.7797    4.6377   -1.6891 C   0  0  2  0  0  0  0  0  0  0  0  0
   42.9074    3.0856   -6.2722 C   0  0  2  0  0  0  0  0  0  0  0  0
   42.3786    3.7917   -5.2446 O   0  0  0  0  0  0  0  0  0  0  0  0
   49.3204    4.2252   -5.8150 C   0  0  2  0  0  0  0  0  0  0  0  0
   48.7874    5.2031   -4.8397 O   0  0  0  0  0  0  0  0  0  0  0  0
   40.1866    6.8714    1.1253 C   0  0  2  0  0  0  0  0  0  0  0  0
   39.5330    6.2094    0.0123 O   0  0  0  0  0  0  0  0  0  0  0  0
   43.0214    4.4281   -2.6201 C   0  0  2  0  0  0  0  0  0  0  0  0
   42.6057    5.0193   -3.8274 O   0  0  0  0  0  0  0  0  0  0  0  0
   42.7297    1.5669   -5.9012 C   0  0  0  0  0  0  0  0  0  0  0  0
   43.0694    0.7407   -7.0594 O   0  0  0  0  0  0  0  0  0  0  0  0
   48.7007    4.5511   -7.2464 C   0  0  1  0  0  0  0  0  0  0  0  0
   47.2072    4.3227   -7.1433 O   0  0  0  0  0  0  0  0  0  0  0  0
   39.5489    6.6060    2.4286 C   0  0  0  0  0  0  0  0  0  0  0  0
   40.3098    7.0752    3.4267 O   0  0  0  0  0  0  0  0  0  0  0  0
   43.3549    2.8838   -2.7820 C   0  0  1  0  0  0  0  0  0  0  0  0
   44.4674    2.7105   -3.6058 O   0  0  0  0  0  0  0  0  0  0  0  0
   42.9706    5.8079   -8.2887 C   0  0  0  0  0  0  0  0  0  0  0  0
   49.1003    6.0352   -7.5479 C   0  0  0  0  0  0  0  0  0  0  0  0
   48.5921    6.5071   -8.8039 N   0  0  0  0  0  0  0  0  0  0  0  0
   42.7678    7.0856   -9.1044 C   0  0  0  0  0  0  0  0  0  0  0  0
   44.1019    7.5062   -9.5748 N   0  0  0  0  0  0  0  0  0  0  0  0
   44.5992    8.8995   -9.1840 C   0  0  0  0  0  0  0  0  0  0  0  0
  1  2  1  1  0  0  0
  1  8  1  0  0  0  0
  1 33  1  0  0  0  0
  3  4  1  6  0  0  0
  3 10  1  0  0  0  0
  3 42  1  0  0  0  0
  5 11  1  0  0  0  0
  5 29  1  0  0  0  0
  5 35  1  1  0  0  0
  6 13  1  0  0  0  0
  6 39  1  0  0  0  0
  6 22  1  1  0  0  0
  7 15  1  0  0  0  0
  8  9  1  6  0  0  0
  8 17  1  0  0  0  0
 10 19  1  0  0  0  0
 11 12  1  6  0  0  0
 11 21  1  0  0  0  0
 12 44  1  0  0  0  0
 13 14  1  1  0  0  0
 13 23  1  0  0  0  0
 15 16  1  0  0  0  0
 17 18  1  6  0  0  0
 17 25  1  0  0  0  0
 19 20  1  1  0  0  0
 19 27  1  0  0  0  0
 21 22  1  6  0  0  0
 21 28  1  0  0  0  0
 23 24  1  6  0  0  0
 23 30  1  0  0  0  0
 25 26  1  1  0  0  0
 25 32  1  0  0  0  0
 27  2  1  1  0  0  0
 27 34  1  0  0  0  0
 28 29  1  0  0  0  0
 28 36  1  1  0  0  0
 30 31  1  1  0  0  0
 30 38  1  0  0  0  0
 32 33  1  0  0  0  0
 32 40  1  1  0  0  0
 34 35  1  6  0  0  0
 34 42  1  0  0  0  0
 36 37  1  0  0  0  0
 38 39  1  0  0  0  0
 38 45  1  1  0  0  0
 40 41  1  0  0  0  0
 42 43  1  6  0  0  0
 44 47  1  0  0  0  0
 45 46  1  0  0  0  0
 47 48  1  0  0  0  0
 48 49  1  0  0  0  0
 49  7  1  0  0  0  0
M  END
>  <CHROM.1>
-161.41496313,-52.91601928,88.92541842,171.29774447,-75.87465853,173.99486485
8.86301533,-94.93148015,-76.04391713,-73.67077669,-166.67803194,-178.75422438
59.80152225,-121.83860437,-119.99452808,58.83683725,43.71340509,5.33433447
-4.33302631,2.53439499,-0.82476107,2.25785069

>  <Name>
2bee_lig

>  <RI>
2.18182e+07

>  <Rbt.Current_Directory>
/home/itssahil/PROJECTS/Mol_Feturizer/New_Systems/rnas/2bee

>  <Rbt.Executable>
rbdock ($Id: //depot/dev/client3/rdock/2013.1/src/exe/rbdock.cxx#4 $)

>  <Rbt.Library>
libRbt.so (2013.1, Build901 2013/11/27)

>  <Rbt.Parameter_File>
/export/apps/rDock/src/rDock_2013.1_src/data/scripts/dock_solv.prm

>  <Rbt.Receptor>
prm/pocket_docking_3.prm

>  <SCORE>
-2.73065

>  <SCORE.INTER>
2.15877

>  <SCORE.INTER.CONST>
1

>  <SCORE.INTER.POLAR>
0

>  <SCORE.INTER.ROT>
16

>  <SCORE.INTER.SOLV>
18.9284

>  <SCORE.INTER.VDW>
-19.137

>  <SCORE.INTER.norm>
0.0440565

>  <SCORE.INTRA>
-4.94666

>  <SCORE.INTRA.DIHEDRAL>
-16.1856

>  <SCORE.INTRA.DIHEDRAL.0>
36.0842

>  <SCORE.INTRA.POLAR>
0

>  <SCORE.INTRA.POLAR.0>
0

>  <SCORE.INTRA.REPUL>
0

>  <SCORE.INTRA.REPUL.0>
0

>  <SCORE.INTRA.SOLV>
3.5088

>  <SCORE.INTRA.SOLV.lig_0>
-126.444

>  <SCORE.INTRA.VDW>
1.39174

>  <SCORE.INTRA.VDW.0>
-7.40469

>  <SCORE.INTRA.norm>
-0.100952

>  <SCORE.RESTR>
0.0572386

>  <SCORE.RESTR.CAVITY>
0.0572386

>  <SCORE.RESTR.norm>
0.00116813

>  <SCORE.SYSTEM>
0

>  <SCORE.SYSTEM.CONST>
0

>  <SCORE.SYSTEM.DIHEDRAL>
0

>  <SCORE.SYSTEM.SOLV>
0

>  <SCORE.SYSTEM.norm>
0

>  <SCORE.heavy>
49

>  <SCORE.norm>
-0.0557276

>  <RMSD>
9.303

$$$$
2bee_lig
 OpenBabel11021811423D
libRbt.so/2013.1/901 2013/11/27
 49 52  0  0  0  0  0  0  0  0999 V2000
   47.0875    5.9628   -5.9312 C   0  0  2  0  0  0  0  0  0  0  0  0
   46.7231    6.8457   -4.8777 O   0  0  0  0  0  0  0  0  0  0  0  0
   42.3274    6.6458   -4.7715 C   0  0  2  0  0  0  0  0  0  0  0  0
   40.9181    7.0598   -4.5321 N   0  0  0  0  0  0  0  0  0  0  0  0
   45.1079    8.1901   -8.2386 C   0  0  1  0  0  0  0  0  0  0  0  0
   44.1028   11.7016  -11.3731 C   0  0  1  0  0  0  0  0  0  0  0  0
   43.3733    4.7108   -7.3929 C   0  0  0  0  0  0  0  0  0  0  0  0
   47.0771    4.4693   -5.4229 C   0  0  2  0  0  0  0  0  0  0  0  0
   45.7802    4.1500   -4.8359 N   0  0  0  0  0  0  0  0  0  0  0  0
   43.1461    6.7420   -3.4046 C   0  0  0  0  0  0  0  0  0  0  0  0
   44.3011    8.4066   -9.4775 C   0  0  2  0  0  0  0  0  0  0  0  0
   44.6258    7.4491  -10.5489 O   0  0  0  0  0  0  0  0  0  0  0  0
   43.8387   10.5152  -12.4472 C   0  0  2  0  0  0  0  0  0  0  0  0
   44.8815    9.4560  -12.2379 N   0  0  0  0  0  0  0  0  0  0  0  0
   43.1778    4.2468   -6.0711 C   0  0  0  0  0  0  0  0  0  0  0  0
   41.8867    4.0290   -5.5955 N   0  0  0  0  0  0  0  0  0  0  0  0
   48.2599    4.2612   -4.3791 C   0  0  1  0  0  0  0  0  0  0  0  0
   48.2455    2.9136   -3.9309 O   0  0  0  0  0  0  0  0  0  0  0  0
   44.7056    6.3071   -3.6290 C   0  0  2  0  0  0  0  0  0  0  0  0
   45.4422    6.3809   -2.4132 N   0  0  0  0  0  0  0  0  0  0  0  0
   44.5886    9.8822   -9.6155 C   0  0  2  0  0  0  0  0  0  0  0  0
   44.0420   11.0580  -10.0777 O   0  0  0  0  0  0  0  0  0  0  0  0
   43.9432   11.1212  -13.8922 C   0  0  1  0  0  0  0  0  0  0  0  0
   42.8849   12.1336  -14.0210 O   0  0  0  0  0  0  0  0  0  0  0  0
   49.6031    4.6100   -5.0614 C   0  0  2  0  0  0  0  0  0  0  0  0
   50.7355    4.4438   -4.1148 O   0  0  0  0  0  0  0  0  0  0  0  0
   45.3720    7.2438   -4.7105 C   0  0  2  0  0  0  0  0  0  0  0  0
   46.1151    9.9955   -9.1213 C   0  0  2  0  0  0  0  0  0  0  0  0
   46.1397    9.1226   -8.0862 O   0  0  0  0  0  0  0  0  0  0  0  0
   45.4258   11.7730  -14.0934 C   0  0  2  0  0  0  0  0  0  0  0  0
   46.4827   10.7453  -13.9590 O   0  0  0  0  0  0  0  0  0  0  0  0
   49.5989    6.0915   -5.5664 C   0  0  2  0  0  0  0  0  0  0  0  0
   48.4690    6.1813   -6.4717 O   0  0  0  0  0  0  0  0  0  0  0  0
   44.5317    7.1153   -6.0257 C   0  0  2  0  0  0  0  0  0  0  0  0
   45.2190    7.9613   -6.9154 O   0  0  0  0  0  0  0  0  0  0  0  0
   46.6036   11.3760   -8.5457 C   0  0  0  0  0  0  0  0  0  0  0  0
   45.6173   11.8808   -7.5908 O   0  0  0  0  0  0  0  0  0  0  0  0
   45.6796   12.9038  -12.9997 C   0  0  1  0  0  0  0  0  0  0  0  0
   45.5102   12.2520  -11.6433 O   0  0  0  0  0  0  0  0  0  0  0  0
   50.9004    6.3264   -6.2196 C   0  0  0  0  0  0  0  0  0  0  0  0
   50.7372    6.5082   -7.5370 O   0  0  0  0  0  0  0  0  0  0  0  0
   43.0302    7.5744   -5.7867 C   0  0  1  0  0  0  0  0  0  0  0  0
   42.2900    7.4471   -6.9624 O   0  0  0  0  0  0  0  0  0  0  0  0
   43.6993    6.4461  -11.0991 C   0  0  0  0  0  0  0  0  0  0  0  0
   47.1263   13.4366  -13.2758 C   0  0  0  0  0  0  0  0  0  0  0  0
   47.2696   14.0155  -14.5808 N   0  0  0  0  0  0  0  0  0  0  0  0
   43.5084    5.3227  -10.0791 C   0  0  0  0  0  0  0  0  0  0  0  0
   44.8238    5.0895   -9.4519 N   0  0  0  0  0  0  0  0  0  0  0  0
   44.8688    4.8242   -7.9456 C   0  0  0  0  0  0  0  0  0  0  0  0
  1  2  1  1  0  0  0
  1  8  1  0  0  0  0
  1 33  1  0  0  0  0
  3  4  1  1  0  0  0
  3 10  1  0  0  0  0
  3 42  1  0  0  0  0
  5 11  1  0  0  0  0
  5 29  1  0  0  0  0
  5 35  1  1  0  0  0
  6 13  1  0  0  0  0
  6 39  1  0  0  0  0
  6 22  1  1  0  0  0
  7 15  1  0  0  0  0
  8  9  1  1  0  0  0
  8 17  1  0  0  0  0
 10 19  1  0  0  0  0
 11 12  1  6  0  0  0
 11 21  1  0  0  0  0
 12 44  1  0  0  0  0
 13 14  1  6  0  0  0
 13 23  1  0  0  0  0
 15 16  1  0  0  0  0
 17 18  1  6  0  0  0
 17 25  1  0  0  0  0
 19 20  1  1  0  0  0
 19 27  1  0  0  0  0
 21 22  1  6  0  0  0
 21 28  1  0  0  0  0
 23 24  1  1  0  0  0
 23 30  1  0  0  0  0
 25 26  1  1  0  0  0
 25 32  1  0  0  0  0
 27  2  1  6  0  0  0
 27 34  1  0  0  0  0
 28 29  1  0  0  0  0
 28 36  1  1  0  0  0
 30 31  1  1  0  0  0
 30 38  1  0  0  0  0
 32 33  1  0  0  0  0
 32 40  1  6  0  0  0
 34 35  1  6  0  0  0
 34 42  1  0  0  0  0
 36 37  1  0  0  0  0
 38 39  1  0  0  0  0
 38 45  1  1  0  0  0
 40 41  1  0  0  0  0
 42 43  1  6  0  0  0
 44 47  1  0  0  0  0
 45 46  1  0  0  0  0
 47 48  1  0  0  0  0
 48 49  1  0  0  0  0
 49  7  1  0  0  0  0
M  END
>  <CHROM.1>
-93.24277561,41.75016824,45.01359003,-174.61911704,115.69670006,-73.04125136
-90.02304735,96.12494223,46.74655158,112.58169176,171.58594125,61.28191485
-38.53075243,139.73672196,5.93257548,169.57196511,45.53688069,7.87558417
-8.11273999,-1.44499438,-0.02091071,-0.87657522

>  <Name>
2bee_lig

>  <RI>
0

>  <Rbt.Current_Directory>
/home/itssahil/PROJECTS/Mol_Feturizer/New_Systems/rnas/2bee

>  <Rbt.Executable>
rbdock ($Id: //depot/dev/client3/rdock/2013.1/src/exe/rbdock.cxx#4 $)

>  <Rbt.Library>
libRbt.so (2013.1, Build901 2013/11/27)

>  <Rbt.Parameter_File>
/export/apps/rDock/src/rDock_2013.1_src/data/scripts/dock_solv.prm

>  <Rbt.Receptor>
prm/blind_docking_60.prm

>  <SCORE>
37.6467

>  <SCORE.INTER>
0.9582

>  <SCORE.INTER.CONST>
1

>  <SCORE.INTER.POLAR>
-2.31006

>  <SCORE.INTER.ROT>
16

>  <SCORE.INTER.SOLV>
35.0185

>  <SCORE.INTER.VDW>
-17.6005

>  <SCORE.INTER.norm>
0.0195551

>  <SCORE.INTRA>
13.0752

>  <SCORE.INTRA.DIHEDRAL>
-2.31282

>  <SCORE.INTRA.DIHEDRAL.0>
36.0842

>  <SCORE.INTRA.POLAR>
0

>  <SCORE.INTRA.POLAR.0>
0

>  <SCORE.INTRA.REPUL>
0

>  <SCORE.INTRA.REPUL.0>
0

>  <SCORE.INTRA.SOLV>
15.3759

>  <SCORE.INTRA.SOLV.lig_0>
-126.444

>  <SCORE.INTRA.VDW>
6.54366

>  <SCORE.INTRA.VDW.0>
-7.40469

>  <SCORE.INTRA.norm>
0.266841

>  <SCORE.RESTR>
23.6133

>  <SCORE.RESTR.CAVITY>
23.6133

>  <SCORE.RESTR.norm>
0.481904

>  <SCORE.SYSTEM>
0

>  <SCORE.SYSTEM.CONST>
0

>  <SCORE.SYSTEM.DIHEDRAL>
0

>  <SCORE.SYSTEM.SOLV>
0

>  <SCORE.SYSTEM.norm>
0

>  <SCORE.heavy>
49

>  <SCORE.norm>
0.7683

>  <RMSD>
9.306

$$$$
2bee_lig
 OpenBabel11021811423D
libRbt.so/2013.1/901 2013/11/27
 49 52  0  0  0  0  0  0  0  0999 V2000
   39.3358   -0.6626   -6.5458 C   0  0  2  0  0  0  0  0  0  0  0  0
   39.8140    0.0429   -5.4075 O   0  0  0  0  0  0  0  0  0  0  0  0
   43.4908   -0.4149   -3.0313 C   0  0  2  0  0  0  0  0  0  0  0  0
   44.9411   -0.5029   -2.7095 N   0  0  0  0  0  0  0  0  0  0  0  0
   41.3938    3.5510   -4.1506 C   0  0  1  0  0  0  0  0  0  0  0  0
   43.1763    6.4697   -7.0537 C   0  0  1  0  0  0  0  0  0  0  0  0
   40.0644    9.7730   -1.3265 C   0  0  0  0  0  0  0  0  0  0  0  0
   38.4276    0.2761   -7.4306 C   0  0  2  0  0  0  0  0  0  0  0  0
   39.1550    1.4919   -7.7789 N   0  0  0  0  0  0  0  0  0  0  0  0
   43.1288   -1.5023   -4.1423 C   0  0  0  0  0  0  0  0  0  0  0  0
   42.2685    4.7445   -3.9429 C   0  0  2  0  0  0  0  0  0  0  0  0
   42.2121    5.2652   -2.5660 O   0  0  0  0  0  0  0  0  0  0  0  0
   44.5713    6.5158   -6.2273 C   0  0  2  0  0  0  0  0  0  0  0  0
   44.5653    7.7482   -5.3704 N   0  0  0  0  0  0  0  0  0  0  0  0
   41.3212   10.0010   -1.9341 C   0  0  0  0  0  0  0  0  0  0  0  0
   41.4287   10.0139   -3.3230 N   0  0  0  0  0  0  0  0  0  0  0  0
   37.0843    0.6026   -6.6426 C   0  0  1  0  0  0  0  0  0  0  0  0
   36.2716    1.4437   -7.4483 O   0  0  0  0  0  0  0  0  0  0  0  0
   41.5436   -1.4285   -4.5337 C   0  0  2  0  0  0  0  0  0  0  0  0
   41.2089   -2.4010   -5.5178 N   0  0  0  0  0  0  0  0  0  0  0  0
   41.7540    5.5424   -5.1166 C   0  0  2  0  0  0  0  0  0  0  0  0
   42.1391    6.4842   -6.0439 O   0  0  0  0  0  0  0  0  0  0  0  0
   45.7569    6.5593   -7.2563 C   0  0  1  0  0  0  0  0  0  0  0  0
   45.7018    5.3177   -8.0419 O   0  0  0  0  0  0  0  0  0  0  0  0
   36.3601   -0.7222   -6.3081 C   0  0  2  0  0  0  0  0  0  0  0  0
   35.1053   -0.4634   -5.5567 O   0  0  0  0  0  0  0  0  0  0  0  0
   41.1918    0.0130   -5.0717 C   0  0  2  0  0  0  0  0  0  0  0  0
   40.1896    5.1693   -5.1428 C   0  0  2  0  0  0  0  0  0  0  0  0
   40.2113    3.8504   -4.8359 O   0  0  0  0  0  0  0  0  0  0  0  0
   45.5949    7.8778   -8.2043 C   0  0  2  0  0  0  0  0  0  0  0  0
   45.6493    9.1209   -7.4024 O   0  0  0  0  0  0  0  0  0  0  0  0
   37.2729   -1.6468   -5.4355 C   0  0  2  0  0  0  0  0  0  0  0  0
   38.4747   -1.8469   -6.2229 O   0  0  0  0  0  0  0  0  0  0  0  0
   41.5678    1.0383   -3.9492 C   0  0  2  0  0  0  0  0  0  0  0  0
   41.1957    2.2701   -4.5187 O   0  0  0  0  0  0  0  0  0  0  0  0
   39.4251    5.2906   -6.5127 C   0  0  0  0  0  0  0  0  0  0  0  0
   38.0004    5.0383   -6.2982 O   0  0  0  0  0  0  0  0  0  0  0  0
   44.1986    7.8325   -8.9709 C   0  0  1  0  0  0  0  0  0  0  0  0
   43.1177    7.7397   -7.9142 O   0  0  0  0  0  0  0  0  0  0  0  0
   36.5151   -2.8877   -5.1870 C   0  0  0  0  0  0  0  0  0  0  0  0
   35.5145   -2.6609   -4.3253 O   0  0  0  0  0  0  0  0  0  0  0  0
   43.1182    0.9674   -3.6122 C   0  0  1  0  0  0  0  0  0  0  0  0
   43.4389    1.8785   -2.6055 O   0  0  0  0  0  0  0  0  0  0  0  0
   41.0751    5.1051   -1.6449 C   0  0  0  0  0  0  0  0  0  0  0  0
   44.1463    9.1448   -9.8242 C   0  0  0  0  0  0  0  0  0  0  0  0
   43.1422    9.1064  -10.8483 N   0  0  0  0  0  0  0  0  0  0  0  0
   39.8988    5.9450   -2.1449 C   0  0  0  0  0  0  0  0  0  0  0  0
   40.3276    7.3558   -2.0847 N   0  0  0  0  0  0  0  0  0  0  0  0
   39.3034    8.4038   -1.6441 C   0  0  0  0  0  0  0  0  0  0  0  0
  1  2  1  1  0  0  0
  1  8  1  0  0  0  0
  1 33  1  0  0  0  0
  3  4  1  6  0  0  0
  3 10  1  0  0  0  0
  3 42  1  0  0  0  0
  5 11  1  0  0  0  0
  5 29  1  0  0  0  0
  5 35  1  6  0  0  0
  6 13  1  0  0  0  0
  6 39  1  0  0  0  0
  6 22  1  1  0  0  0
  7 15  1  0  0  0  0
  8  9  1  1  0  0  0
  8 17  1  0  0  0  0
 10 19  1  0  0  0  0
 11 12  1  1  0  0  0
 11 21  1  0  0  0  0
 12 44  1  0  0  0  0
 13 14  1  1  0  0  0
 13 23  1  0  0  0  0
 15 16  1  0  0  0  0
 17 18  1  6  0  0  0
 17 25  1  0  0  0  0
 19 20  1  6  0  0  0
 19 27  1  0  0  0  0
 21 22  1  1  0  0  0
 21 28  1  0  0  0  0
 23 24  1  6  0  0  0
 23 30  1  0  0  0  0
 25 26  1  1  0  0  0
 25 32  1  0  0  0  0
 27  2  1  1  0  0  0
 27 34  1  0  0  0  0
 28 29  1  0  0  0  0
 28 36  1  6  0  0  0
 30 31  1  1  0  0  0
 30 38  1  0  0  0  0
 32 33  1  0  0  0  0
 32 40  1  6  0  0  0
 34 35  1  6  0  0  0
 34 42  1  0  0  0  0
 36 37  1  0  0  0  0
 38 39  1  0  0  0  0
 38 45  1  1  0  0  0
 40 41  1  0  0  0  0
 42 43  1  1  0  0  0
 44 47  1  0  0  0  0
 45 46  1  0  0  0  0
 47 48  1  0  0  0  0
 48 49  1  0  0  0  0
 49  7  1  0  0  0  0
M  END
>  <CHROM.1>
-130.81909836,70.37466168,-69.23974827,59.18942198,-26.00565069,-69.36188581
59.72514364,-71.08250814,-174.43340752,-71.87212109,-170.77328964,164.02825532
-63.88047011,-141.51073758,166.86560113,23.50504066,41.08276864,3.63275907
-5.30479472,-2.17162516,0.58531198,0.28006511

>  <Name>
2bee_lig

>  <RI>
0

>  <Rbt.Current_Directory>
/home/itssahil/PROJECTS/Mol_Feturizer/New_Systems/rnas/2bee

>  <Rbt.Executable>
rbdock ($Id: //depot/dev/client3/rdock/2013.1/src/exe/rbdock.cxx#4 $)

>  <Rbt.Library>
libRbt.so (2013.1, Build901 2013/11/27)

>  <Rbt.Parameter_File>
/export/apps/rDock/src/rDock_2013.1_src/data/scripts/dock_solv.prm

>  <Rbt.Receptor>
prm/pocket_docking_5.prm

>  <SCORE>
-7.04868

>  <SCORE.INTER>
-5.38413

>  <SCORE.INTER.CONST>
1

>  <SCORE.INTER.POLAR>
-1.63096

>  <SCORE.INTER.ROT>
16

>  <SCORE.INTER.SOLV>
27.3378

>  <SCORE.INTER.VDW>
-21.5321

>  <SCORE.INTER.norm>
-0.10988

>  <SCORE.INTRA>
-1.66456

>  <SCORE.INTRA.DIHEDRAL>
-10.9037

>  <SCORE.INTRA.DIHEDRAL.0>
36.0842

>  <SCORE.INTRA.POLAR>
0

>  <SCORE.INTRA.POLAR.0>
0

>  <SCORE.INTRA.REPUL>
0.027858

>  <SCORE.INTRA.REPUL.0>
0

>  <SCORE.INTRA.SOLV>
1.68077

>  <SCORE.INTRA.SOLV.lig_0>
-126.444

>  <SCORE.INTRA.VDW>
2.8076

>  <SCORE.INTRA.VDW.0>
-7.40469

>  <SCORE.INTRA.norm>
-0.0339705

>  <SCORE.RESTR>
0

>  <SCORE.RESTR.CAVITY>
0

>  <SCORE.RESTR.norm>
0

>  <SCORE.SYSTEM>
0

>  <SCORE.SYSTEM.CONST>
0

>  <SCORE.SYSTEM.DIHEDRAL>
0

>  <SCORE.SYSTEM.SOLV>
0

>  <SCORE.SYSTEM.norm>
0

>  <SCORE.heavy>
49

>  <SCORE.norm>
-0.143851

>  <RMSD>
9.311

$$$$
2bee_lig
 OpenBabel11021811423D
libRbt.so/2013.1/901 2013/11/27
 49 52  0  0  0  0  0  0  0  0999 V2000
   43.8555    6.6389   -2.5001 C   0  0  2  0  0  0  0  0  0  0  0  0
   42.5661    6.7445   -3.0904 O   0  0  0  0  0  0  0  0  0  0  0  0
   40.5920    9.6342   -0.4209 C   0  0  2  0  0  0  0  0  0  0  0  0
   39.6453   10.6863    0.0393 N   0  0  0  0  0  0  0  0  0  0  0  0
   39.8777    4.9267   -1.1204 C   0  0  1  0  0  0  0  0  0  0  0  0
   36.8703    1.3333   -2.0589 C   0  0  1  0  0  0  0  0  0  0  0  0
   39.6356    2.8873    5.1099 C   0  0  0  0  0  0  0  0  0  0  0  0
   44.5556    5.2984   -2.9492 C   0  0  2  0  0  0  0  0  0  0  0  0
   44.5880    5.2146   -4.4054 N   0  0  0  0  0  0  0  0  0  0  0  0
   41.3808   10.1583   -1.7058 C   0  0  0  0  0  0  0  0  0  0  0  0
   38.9719    4.1508   -0.2203 C   0  0  2  0  0  0  0  0  0  0  0  0
   39.6812    3.5306    0.9121 O   0  0  0  0  0  0  0  0  0  0  0  0
   35.2532    1.2329   -2.1353 C   0  0  2  0  0  0  0  0  0  0  0  0
   34.7006    1.5676   -0.7804 N   0  0  0  0  0  0  0  0  0  0  0  0
   39.3972    1.9191    6.1132 C   0  0  0  0  0  0  0  0  0  0  0  0
   39.9103    2.1064    7.3948 N   0  0  0  0  0  0  0  0  0  0  0  0
   43.7850    4.0626   -2.3082 C   0  0  1  0  0  0  0  0  0  0  0  0
   44.4248    2.8613   -2.7139 O   0  0  0  0  0  0  0  0  0  0  0  0
   42.4234    9.0237   -2.2509 C   0  0  2  0  0  0  0  0  0  0  0  0
   43.1386    9.4853   -3.3919 N   0  0  0  0  0  0  0  0  0  0  0  0
   38.3219    3.3220   -1.3017 C   0  0  2  0  0  0  0  0  0  0  0  0
   37.1441    2.6872   -1.6253 O   0  0  0  0  0  0  0  0  0  0  0  0
   34.8655   -0.2319   -2.5480 C   0  0  1  0  0  0  0  0  0  0  0  0
   35.4280   -0.4746   -3.8846 O   0  0  0  0  0  0  0  0  0  0  0  0
   43.7901    4.2074   -0.7686 C   0  0  2  0  0  0  0  0  0  0  0  0
   43.0655    3.0795   -0.1293 O   0  0  0  0  0  0  0  0  0  0  0  0
   41.6365    7.7051   -2.6161 C   0  0  2  0  0  0  0  0  0  0  0  0
   39.5330    3.0623   -2.3281 C   0  0  2  0  0  0  0  0  0  0  0  0
   40.1747    4.2548   -2.3111 O   0  0  0  0  0  0  0  0  0  0  0  0
   35.4649   -1.2752   -1.4454 C   0  0  2  0  0  0  0  0  0  0  0  0
   34.8935   -1.0196   -0.1039 O   0  0  0  0  0  0  0  0  0  0  0  0
   43.0985    5.5432   -0.3361 C   0  0  2  0  0  0  0  0  0  0  0  0
   43.8479    6.5920   -1.0014 O   0  0  0  0  0  0  0  0  0  0  0  0
   40.8804    7.2368   -1.3271 C   0  0  2  0  0  0  0  0  0  0  0  0
   40.2412    6.0585   -1.7548 O   0  0  0  0  0  0  0  0  0  0  0  0
   39.1756    2.7752   -3.8333 C   0  0  0  0  0  0  0  0  0  0  0  0
   38.8692    1.3544   -3.9976 O   0  0  0  0  0  0  0  0  0  0  0  0
   37.0489   -1.1267   -1.3559 C   0  0  1  0  0  0  0  0  0  0  0  0
   37.3378    0.3183   -1.0063 O   0  0  0  0  0  0  0  0  0  0  0  0
   43.1706    5.6073    1.1358 C   0  0  0  0  0  0  0  0  0  0  0  0
   42.5491    6.7049    1.5878 O   0  0  0  0  0  0  0  0  0  0  0  0
   39.8519    8.3440   -0.8388 C   0  0  1  0  0  0  0  0  0  0  0  0
   39.1914    7.9192    0.3143 O   0  0  0  0  0  0  0  0  0  0  0  0
   40.2039    4.2531    2.0834 C   0  0  0  0  0  0  0  0  0  0  0  0
   37.5047   -2.1514   -0.2626 C   0  0  0  0  0  0  0  0  0  0  0  0
   37.2815   -3.5156   -0.6470 N   0  0  0  0  0  0  0  0  0  0  0  0
   39.0368    4.8572    2.8656 C   0  0  0  0  0  0  0  0  0  0  0  0
   39.5694    5.2583    4.1822 N   0  0  0  0  0  0  0  0  0  0  0  0
   39.2108    4.4011    5.3978 C   0  0  0  0  0  0  0  0  0  0  0  0
  1  2  1  6  0  0  0
  1  8  1  0  0  0  0
  1 33  1  0  0  0  0
  3  4  1  6  0  0  0
  3 10  1  0  0  0  0
  3 42  1  0  0  0  0
  5 11  1  0  0  0  0
  5 29  1  0  0  0  0
  5 35  1  6  0  0  0
  6 13  1  0  0  0  0
  6 39  1  0  0  0  0
  6 22  1  1  0  0  0
  7 15  1  0  0  0  0
  8  9  1  6  0  0  0
  8 17  1  0  0  0  0
 10 19  1  0  0  0  0
 11 12  1  1  0  0  0
 11 21  1  0  0  0  0
 12 44  1  0  0  0  0
 13 14  1  1  0  0  0
 13 23  1  0  0  0  0
 15 16  1  0  0  0  0
 17 18  1  1  0  0  0
 17 25  1  0  0  0  0
 19 20  1  6  0  0  0
 19 27  1  0  0  0  0
 21 22  1  1  0  0  0
 21 28  1  0  0  0  0
 23 24  1  6  0  0  0
 23 30  1  0  0  0  0
 25 26  1  1  0  0  0
 25 32  1  0  0  0  0
 27  2  1  1  0  0  0
 27 34  1  0  0  0  0
 28 29  1  0  0  0  0
 28 36  1  6  0  0  0
 30 31  1  1  0  0  0
 30 38  1  0  0  0  0
 32 33  1  0  0  0  0
 32 40  1  1  0  0  0
 34 35  1  6  0  0  0
 34 42  1  0  0  0  0
 36 37  1  0  0  0  0
 38 39  1  0  0  0  0
 38 45  1  1  0  0  0
 40 41  1  0  0  0  0
 42 43  1  1  0  0  0
 44 47  1  0  0  0  0
 45 46  1  0  0  0  0
 47 48  1  0  0  0  0
 48 49  1  0  0  0  0
 49  7  1  0  0  0  0
M  END
>  <CHROM.1>
166.26592734,77.16887976,175.15368058,-55.47070987,73.37815597,64.64026363
-128.45782203,37.86117363,-84.14041617,-177.58756928,150.29047122,65.87939392
165.77869896,-105.66166021,55.21773259,179.75163503,39.94981496,4.03907967
-0.62048045,-0.04834450,-0.91361753,-1.71306891

>  <Name>
2bee_lig

>  <RI>
0

>  <Rbt.Current_Directory>
/home/itssahil/PROJECTS/Mol_Feturizer/New_Systems/rnas/2bee

>  <Rbt.Executable>
rbdock ($Id: //depot/dev/client3/rdock/2013.1/src/exe/rbdock.cxx#4 $)

>  <Rbt.Library>
libRbt.so (2013.1, Build901 2013/11/27)

>  <Rbt.Parameter_File>
/export/apps/rDock/src/rDock_2013.1_src/data/scripts/dock_solv.prm

>  <Rbt.Receptor>
prm/pocket_docking_8.prm

>  <SCORE>
-15.0008

>  <SCORE.INTER>
-5.39152

>  <SCORE.INTER.CONST>
1

>  <SCORE.INTER.POLAR>
-0.815191

>  <SCORE.INTER.ROT>
16

>  <SCORE.INTER.SOLV>
15.4367

>  <SCORE.INTER.VDW>
-20.2893

>  <SCORE.INTER.norm>
-0.110031

>  <SCORE.INTRA>
-9.60928

>  <SCORE.INTRA.DIHEDRAL>
-19.7043

>  <SCORE.INTRA.DIHEDRAL.0>
36.0842

>  <SCORE.INTRA.POLAR>
0

>  <SCORE.INTRA.POLAR.0>
0

>  <SCORE.INTRA.REPUL>
0

>  <SCORE.INTRA.REPUL.0>
0

>  <SCORE.INTRA.SOLV>
-1.19436

>  <SCORE.INTRA.SOLV.lig_0>
-126.444

>  <SCORE.INTRA.VDW>
0.840037

>  <SCORE.INTRA.VDW.0>
-7.40469

>  <SCORE.INTRA.norm>
-0.196108

>  <SCORE.RESTR>
0

>  <SCORE.RESTR.CAVITY>
0

>  <SCORE.RESTR.norm>
0

>  <SCORE.SYSTEM>
0

>  <SCORE.SYSTEM.CONST>
0

>  <SCORE.SYSTEM.DIHEDRAL>
0

>  <SCORE.SYSTEM.SOLV>
0

>  <SCORE.SYSTEM.norm>
0

>  <SCORE.heavy>
49

>  <SCORE.norm>
-0.306139

>  <RMSD>
9.315

$$$$
2bee_lig
 OpenBabel11021811423D
libRbt.so/2013.1/901 2013/11/27
 49 52  0  0  0  0  0  0  0  0999 V2000
   48.3130    4.8644   -5.7389 C   0  0  2  0  0  0  0  0  0  0  0  0
   47.4868    5.9560   -6.1237 O   0  0  0  0  0  0  0  0  0  0  0  0
   43.7160    6.5542   -3.9334 C   0  0  2  0  0  0  0  0  0  0  0  0
   42.7558    7.0906   -2.9309 N   0  0  0  0  0  0  0  0  0  0  0  0
   45.6323    8.3567   -8.0703 C   0  0  1  0  0  0  0  0  0  0  0  0
   44.6450   12.0712  -10.8478 C   0  0  1  0  0  0  0  0  0  0  0  0
   41.4155    5.4607   -7.5906 C   0  0  0  0  0  0  0  0  0  0  0  0
   49.8352    5.2437   -5.9059 C   0  0  2  0  0  0  0  0  0  0  0  0
   50.1294    6.4676   -5.1682 N   0  0  0  0  0  0  0  0  0  0  0  0
   44.9775    5.9332   -3.1778 C   0  0  0  0  0  0  0  0  0  0  0  0
   44.8152    8.8843   -9.2046 C   0  0  2  0  0  0  0  0  0  0  0  0
   44.6497    7.9085  -10.2958 O   0  0  0  0  0  0  0  0  0  0  0  0
   43.7620   10.8522  -11.4524 C   0  0  2  0  0  0  0  0  0  0  0  0
   44.7044    9.7873  -11.9329 N   0  0  0  0  0  0  0  0  0  0  0  0
   42.5634    6.1566   -7.1447 C   0  0  0  0  0  0  0  0  0  0  0  0
   43.8029    5.8944   -7.7240 N   0  0  0  0  0  0  0  0  0  0  0  0
   50.1719    5.3971   -7.4535 C   0  0  1  0  0  0  0  0  0  0  0  0
   51.5444    5.7338   -7.5941 O   0  0  0  0  0  0  0  0  0  0  0  0
   46.0640    5.3441   -4.2473 C   0  0  2  0  0  0  0  0  0  0  0  0
   47.1890    4.7796   -3.5824 N   0  0  0  0  0  0  0  0  0  0  0  0
   45.5900   10.1659   -9.3945 C   0  0  2  0  0  0  0  0  0  0  0  0
   45.4468   11.4732   -9.8012 O   0  0  0  0  0  0  0  0  0  0  0  0
   42.8970   11.4070  -12.6399 C   0  0  1  0  0  0  0  0  0  0  0  0
   41.9955   12.4281  -12.0865 O   0  0  0  0  0  0  0  0  0  0  0  0
   49.8441    4.0697   -8.1760 C   0  0  2  0  0  0  0  0  0  0  0  0
   50.1299    4.1747   -9.6297 O   0  0  0  0  0  0  0  0  0  0  0  0
   46.5425    6.4965   -5.2138 C   0  0  2  0  0  0  0  0  0  0  0  0
   47.1040    9.7153   -9.0908 C   0  0  2  0  0  0  0  0  0  0  0  0
   46.9384    8.8577   -8.0557 O   0  0  0  0  0  0  0  0  0  0  0  0
   43.8868   12.0321  -13.7769 C   0  0  2  0  0  0  0  0  0  0  0  0
   44.7910   10.9958  -14.3246 O   0  0  0  0  0  0  0  0  0  0  0  0
   48.3333    3.7013   -7.9981 C   0  0  2  0  0  0  0  0  0  0  0  0
   48.1266    3.6264   -6.5642 O   0  0  0  0  0  0  0  0  0  0  0  0
   45.2712    7.0716   -5.9249 C   0  0  2  0  0  0  0  0  0  0  0  0
   45.8098    8.0613   -6.7677 O   0  0  0  0  0  0  0  0  0  0  0  0
   48.1155   10.8141   -8.5956 C   0  0  0  0  0  0  0  0  0  0  0  0
   47.6088   12.1383   -8.9547 O   0  0  0  0  0  0  0  0  0  0  0  0
   44.7754   13.1963  -13.1489 C   0  0  1  0  0  0  0  0  0  0  0  0
   45.5342   12.5936  -11.9850 O   0  0  0  0  0  0  0  0  0  0  0  0
   48.1189    2.4188   -8.6944 C   0  0  0  0  0  0  0  0  0  0  0  0
   46.8092    2.1572   -8.8016 O   0  0  0  0  0  0  0  0  0  0  0  0
   44.2483    7.6657   -4.8652 C   0  0  1  0  0  0  0  0  0  0  0  0
   43.1169    8.1667   -5.5097 O   0  0  0  0  0  0  0  0  0  0  0  0
   43.4253    7.7275  -11.0928 C   0  0  0  0  0  0  0  0  0  0  0  0
   45.6908   13.7004  -14.3155 C   0  0  0  0  0  0  0  0  0  0  0  0
   46.7357   12.7745  -14.6466 N   0  0  0  0  0  0  0  0  0  0  0  0
   42.2690    7.3553  -10.1636 C   0  0  0  0  0  0  0  0  0  0  0  0
   42.3806    5.9066   -9.9050 N   0  0  0  0  0  0  0  0  0  0  0  0
   41.2365    5.2158   -9.1600 C   0  0  0  0  0  0  0  0  0  0  0  0
  1  2  1  6  0  0  0
  1  8  1  0  0  0  0
  1 33  1  0  0  0  0
  3  4  1  1  0  0  0
  3 10  1  0  0  0  0
  3 42  1  0  0  0  0
  5 11  1  0  0  0  0
  5 29  1  0  0  0  0
  5 35  1  1  0  0  0
  6 13  1  0  0  0  0
  6 39  1  0  0  0  0
  6 22  1  1  0  0  0
  7 15  1  0  0  0  0
  8  9  1  1  0  0  0
  8 17  1  0  0  0  0
 10 19  1  0  0  0  0
 11 12  1  6  0  0  0
 11 21  1  0  0  0  0
 12 44  1  0  0  0  0
 13 14  1  6  0  0  0
 13 23  1  0  0  0  0
 15 16  1  0  0  0  0
 17 18  1  1  0  0  0
 17 25  1  0  0  0  0
 19 20  1  1  0  0  0
 19 27  1  0  0  0  0
 21 22  1  6  0  0  0
 21 28  1  0  0  0  0
 23 24  1  1  0  0  0
 23 30  1  0  0  0  0
 25 26  1  6  0  0  0
 25 32  1  0  0  0  0
 27  2  1  6  0  0  0
 27 34  1  0  0  0  0
 28 29  1  0  0  0  0
 28 36  1  1  0  0  0
 30 31  1  1  0  0  0
 30 38  1  0  0  0  0
 32 33  1  0  0  0  0
 32 40  1  6  0  0  0
 34 35  1  6  0  0  0
 34 42  1  0  0  0  0
 36 37  1  0  0  0  0
 38 39  1  0  0  0  0
 38 45  1  6  0  0  0
 40 41  1  0  0  0  0
 42 43  1  6  0  0  0
 44 47  1  0  0  0  0
 45 46  1  0  0  0  0
 47 48  1  0  0  0  0
 48 49  1  0  0  0  0
 49  7  1  0  0  0  0
M  END
>  <CHROM.1>
-123.20464376,71.37260067,4.83737172,-41.11510636,142.57529722,-59.31615892
-36.91049484,-29.80788511,-20.19851364,-168.58073138,131.95525051,-72.92029637
-81.59788698,-171.53770269,-81.49367275,-3.60757523,45.75178062,7.86065096
-8.58627553,-1.27813351,0.21322790,-0.82047503

>  <Name>
2bee_lig

>  <RI>
0

>  <Rbt.Current_Directory>
/home/itssahil/PROJECTS/Mol_Feturizer/New_Systems/rnas/2bee

>  <Rbt.Executable>
rbdock ($Id: //depot/dev/client3/rdock/2013.1/src/exe/rbdock.cxx#4 $)

>  <Rbt.Library>
libRbt.so (2013.1, Build901 2013/11/27)

>  <Rbt.Parameter_File>
/export/apps/rDock/src/rDock_2013.1_src/data/scripts/dock_solv.prm

>  <Rbt.Receptor>
prm/blind_docking_60.prm

>  <SCORE>
71.3357

>  <SCORE.INTER>
21.7688

>  <SCORE.INTER.CONST>
1

>  <SCORE.INTER.POLAR>
-2.10247

>  <SCORE.INTER.ROT>
16

>  <SCORE.INTER.SOLV>
35.6121

>  <SCORE.INTER.VDW>
-4.61659

>  <SCORE.INTER.norm>
0.444262

>  <SCORE.INTRA>
29.3173

>  <SCORE.INTRA.DIHEDRAL>
12.1228

>  <SCORE.INTRA.DIHEDRAL.0>
36.0842

>  <SCORE.INTRA.POLAR>
0

>  <SCORE.INTRA.POLAR.0>
0

>  <SCORE.INTRA.REPUL>
0.298449

>  <SCORE.INTRA.REPUL.0>
0

>  <SCORE.INTRA.SOLV>
15.4646

>  <SCORE.INTRA.SOLV.lig_0>
-126.444

>  <SCORE.INTRA.VDW>
14.0313

>  <SCORE.INTRA.VDW.0>
-7.40469

>  <SCORE.INTRA.norm>
0.598311

>  <SCORE.RESTR>
20.2496

>  <SCORE.RESTR.CAVITY>
20.2496

>  <SCORE.RESTR.norm>
0.413258

>  <SCORE.SYSTEM>
0

>  <SCORE.SYSTEM.CONST>
0

>  <SCORE.SYSTEM.DIHEDRAL>
0

>  <SCORE.SYSTEM.SOLV>
0

>  <SCORE.SYSTEM.norm>
0

>  <SCORE.heavy>
49

>  <SCORE.norm>
1.45583

>  <RMSD>
9.316

$$$$
2bee_lig
 OpenBabel11021811423D
libRbt.so/2013.1/901 2013/11/27
 49 52  0  0  0  0  0  0  0  0999 V2000
   38.6850    3.7526   -0.8735 C   0  0  2  0  0  0  0  0  0  0  0  0
   39.8795    3.5163   -1.6079 O   0  0  0  0  0  0  0  0  0  0  0  0
   38.8644    5.3624   -5.4726 C   0  0  2  0  0  0  0  0  0  0  0  0
   39.0462    5.9495   -6.8280 N   0  0  0  0  0  0  0  0  0  0  0  0
   40.4637    1.2286   -4.5753 C   0  0  1  0  0  0  0  0  0  0  0  0
   42.9848    3.4298   -7.5302 C   0  0  1  0  0  0  0  0  0  0  0  0
   44.1884   -3.7540   -8.3687 C   0  0  0  0  0  0  0  0  0  0  0  0
   38.7933    3.1195    0.5675 C   0  0  2  0  0  0  0  0  0  0  0  0
   39.9855    3.6183    1.2445 N   0  0  0  0  0  0  0  0  0  0  0  0
   39.7568    6.1688   -4.4232 C   0  0  0  0  0  0  0  0  0  0  0  0
   41.0075    0.6908   -5.8590 C   0  0  2  0  0  0  0  0  0  0  0  0
   41.1093   -0.7788   -5.8687 O   0  0  0  0  0  0  0  0  0  0  0  0
   44.1411    3.3478   -8.6649 C   0  0  2  0  0  0  0  0  0  0  0  0
   45.4596    3.1547   -7.9740 N   0  0  0  0  0  0  0  0  0  0  0  0
   44.6196   -2.4487   -8.7022 C   0  0  0  0  0  0  0  0  0  0  0  0
   45.6844   -1.8721   -8.0135 N   0  0  0  0  0  0  0  0  0  0  0  0
   38.8098    1.5331    0.4446 C   0  0  1  0  0  0  0  0  0  0  0  0
   38.9028    0.9723    1.7461 O   0  0  0  0  0  0  0  0  0  0  0  0
   39.5948    5.5446   -2.9213 C   0  0  2  0  0  0  0  0  0  0  0  0
   40.3802    6.2630   -1.9761 N   0  0  0  0  0  0  0  0  0  0  0  0
   42.2312    1.5732   -5.9115 C   0  0  2  0  0  0  0  0  0  0  0  0
   43.0912    2.1885   -6.7929 O   0  0  0  0  0  0  0  0  0  0  0  0
   44.1317    4.6893   -9.4813 C   0  0  1  0  0  0  0  0  0  0  0  0
   42.8195    4.7955  -10.1359 O   0  0  0  0  0  0  0  0  0  0  0  0
   37.5221    1.0686   -0.2747 C   0  0  2  0  0  0  0  0  0  0  0  0
   37.5042   -0.4090   -0.4246 O   0  0  0  0  0  0  0  0  0  0  0  0
   40.0254    4.0262   -2.9235 C   0  0  2  0  0  0  0  0  0  0  0  0
   42.6537    1.6891   -4.3638 C   0  0  2  0  0  0  0  0  0  0  0  0
   41.4495    1.7821   -3.7512 O   0  0  0  0  0  0  0  0  0  0  0  0
   44.3983    5.9371   -8.4638 C   0  0  2  0  0  0  0  0  0  0  0  0
   45.7206    5.8180   -7.8091 O   0  0  0  0  0  0  0  0  0  0  0  0
   37.4232    1.7078   -1.7000 C   0  0  2  0  0  0  0  0  0  0  0  0
   37.4563    3.1408   -1.4770 O   0  0  0  0  0  0  0  0  0  0  0  0
   39.1252    3.2838   -3.9680 C   0  0  2  0  0  0  0  0  0  0  0  0
   39.5724    1.9532   -3.8710 O   0  0  0  0  0  0  0  0  0  0  0  0
   43.4751    2.9542   -3.9160 C   0  0  0  0  0  0  0  0  0  0  0  0
   42.6640    4.1552   -4.1139 O   0  0  0  0  0  0  0  0  0  0  0  0
   43.2764    5.9702   -7.3327 C   0  0  1  0  0  0  0  0  0  0  0  0
   43.3172    4.6288   -6.6309 O   0  0  0  0  0  0  0  0  0  0  0  0
   36.1618    1.2312   -2.2979 C   0  0  0  0  0  0  0  0  0  0  0  0
   36.3023   -0.0219   -2.7511 O   0  0  0  0  0  0  0  0  0  0  0  0
   39.3266    3.8890   -5.4224 C   0  0  1  0  0  0  0  0  0  0  0  0
   38.5135    3.2258   -6.3418 O   0  0  0  0  0  0  0  0  0  0  0  0
   41.9290   -1.5780   -4.9432 C   0  0  0  0  0  0  0  0  0  0  0  0
   43.6444    7.1834   -6.4129 C   0  0  0  0  0  0  0  0  0  0  0  0
   42.7948    7.2904   -5.2617 N   0  0  0  0  0  0  0  0  0  0  0  0
   41.8222   -3.0558   -5.3224 C   0  0  0  0  0  0  0  0  0  0  0  0
   42.3586   -3.1834   -6.6914 N   0  0  0  0  0  0  0  0  0  0  0  0
   43.6262   -4.0159   -6.8955 C   0  0  0  0  0  0  0  0  0  0  0  0
  1  2  1  6  0  0  0
  1  8  1  0  0  0  0
  1 33  1  0  0  0  0
  3  4  1  6  0  0  0
  3 10  1  0  0  0  0
  3 42  1  0  0  0  0
  5 11  1  0  0  0  0
  5 29  1  0  0  0  0
  5 35  1  6  0  0  0
  6 13  1  0  0  0  0
  6 39  1  0  0  0  0
  6 22  1  1  0  0  0
  7 15  1  0  0  0  0
  8  9  1  6  0  0  0
  8 17  1  0  0  0  0
 10 19  1  0  0  0  0
 11 12  1  1  0  0  0
 11 21  1  0  0  0  0
 12 44  1  0  0  0  0
 13 14  1  1  0  0  0
 13 23  1  0  0  0  0
 15 16  1  0  0  0  0
 17 18  1  1  0  0  0
 17 25  1  0  0  0  0
 19 20  1  1  0  0  0
 19 27  1  0  0  0  0
 21 22  1  6  0  0  0
 21 28  1  0  0  0  0
 23 24  1  1  0  0  0
 23 30  1  0  0  0  0
 25 26  1  6  0  0  0
 25 32  1  0  0  0  0
 27  2  1  1  0  0  0
 27 34  1  0  0  0  0
 28 29  1  0  0  0  0
 28 36  1  6  0  0  0
 30 31  1  1  0  0  0
 30 38  1  0  0  0  0
 32 33  1  0  0  0  0
 32 40  1  1  0  0  0
 34 35  1  6  0  0  0
 34 42  1  0  0  0  0
 36 37  1  0  0  0  0
 38 39  1  0  0  0  0
 38 45  1  1  0  0  0
 40 41  1  0  0  0  0
 42 43  1  6  0  0  0
 44 47  1  0  0  0  0
 45 46  1  0  0  0  0
 47 48  1  0  0  0  0
 48 49  1  0  0  0  0
 49  7  1  0  0  0  0
M  END
>  <CHROM.1>
-178.34552271,-52.94938895,-164.98593901,62.16404137,-60.86359751,-177.11460528
81.87846328,47.79165701,63.44510322,-78.26041150,-95.90848374,-174.83880391
61.68056978,115.60881527,-167.87096468,63.37858377,41.14674972,2.44303894
-4.71055574,3.12250194,-0.88256595,3.11888405

>  <Name>
2bee_lig

>  <RI>
0

>  <Rbt.Current_Directory>
/home/itssahil/PROJECTS/Mol_Feturizer/New_Systems/rnas/2bee

>  <Rbt.Executable>
rbdock ($Id: //depot/dev/client3/rdock/2013.1/src/exe/rbdock.cxx#4 $)

>  <Rbt.Library>
libRbt.so (2013.1, Build901 2013/11/27)

>  <Rbt.Parameter_File>
/export/apps/rDock/src/rDock_2013.1_src/data/scripts/dock_solv.prm

>  <Rbt.Receptor>
prm/pocket_docking_6.prm

>  <SCORE>
-8.16144

>  <SCORE.INTER>
1.49959

>  <SCORE.INTER.CONST>
1

>  <SCORE.INTER.POLAR>
0

>  <SCORE.INTER.ROT>
16

>  <SCORE.INTER.SOLV>
13.1714

>  <SCORE.INTER.VDW>
-17.6574

>  <SCORE.INTER.norm>
0.0306038

>  <SCORE.INTRA>
-9.66103

>  <SCORE.INTRA.DIHEDRAL>
-21.4532

>  <SCORE.INTRA.DIHEDRAL.0>
36.0842

>  <SCORE.INTRA.POLAR>
0

>  <SCORE.INTRA.POLAR.0>
0

>  <SCORE.INTRA.REPUL>
0

>  <SCORE.INTRA.REPUL.0>
0

>  <SCORE.INTRA.SOLV>
2.86893

>  <SCORE.INTRA.SOLV.lig_0>
-126.444

>  <SCORE.INTRA.VDW>
-0.368874

>  <SCORE.INTRA.VDW.0>
-7.40469

>  <SCORE.INTRA.norm>
-0.197164

>  <SCORE.RESTR>
0

>  <SCORE.RESTR.CAVITY>
0

>  <SCORE.RESTR.norm>
0

>  <SCORE.SYSTEM>
0

>  <SCORE.SYSTEM.CONST>
0

>  <SCORE.SYSTEM.DIHEDRAL>
0

>  <SCORE.SYSTEM.SOLV>
0

>  <SCORE.SYSTEM.norm>
0

>  <SCORE.heavy>
49

>  <SCORE.norm>
-0.16656

>  <RMSD>
9.320

$$$$
2bee_lig
 OpenBabel11021811423D
libRbt.so/2013.1/901 2013/11/27
 49 52  0  0  0  0  0  0  0  0999 V2000
   40.5902   -0.1766   -5.5151 C   0  0  2  0  0  0  0  0  0  0  0  0
   41.0384    0.7066   -4.4948 O   0  0  0  0  0  0  0  0  0  0  0  0
   44.9500    1.2867   -2.5616 C   0  0  2  0  0  0  0  0  0  0  0  0
   46.4145    1.5084   -2.4164 N   0  0  0  0  0  0  0  0  0  0  0  0
   42.4632    4.4273   -4.6142 C   0  0  1  0  0  0  0  0  0  0  0  0
   46.8144    4.7311   -5.5611 C   0  0  1  0  0  0  0  0  0  0  0  0
   39.2318    7.1765    0.5726 C   0  0  0  0  0  0  0  0  0  0  0  0
   39.0986    0.1533   -5.9091 C   0  0  2  0  0  0  0  0  0  0  0  0
   38.9787    1.5591   -6.2804 N   0  0  0  0  0  0  0  0  0  0  0  0
   44.6979   -0.0089   -3.4592 C   0  0  0  0  0  0  0  0  0  0  0  0
   43.2722    5.6820   -4.5516 C   0  0  2  0  0  0  0  0  0  0  0  0
   42.4565    6.8994   -4.7026 O   0  0  0  0  0  0  0  0  0  0  0  0
   47.9746    5.8594   -5.4526 C   0  0  2  0  0  0  0  0  0  0  0  0
   48.0672    6.5620   -6.7759 N   0  0  0  0  0  0  0  0  0  0  0  0
   40.2504    6.5398    1.3196 C   0  0  0  0  0  0  0  0  0  0  0  0
   40.4425    6.8752    2.6580 N   0  0  0  0  0  0  0  0  0  0  0  0
   38.1401   -0.2154   -4.6936 C   0  0  1  0  0  0  0  0  0  0  0  0
   36.7999    0.0803   -5.0590 O   0  0  0  0  0  0  0  0  0  0  0  0
   43.0977   -0.2792   -3.6537 C   0  0  2  0  0  0  0  0  0  0  0  0
   42.8625   -1.4384   -4.4457 N   0  0  0  0  0  0  0  0  0  0  0  0
   44.2975    5.2785   -5.5835 C   0  0  2  0  0  0  0  0  0  0  0  0
   45.6173    5.4556   -5.9324 O   0  0  0  0  0  0  0  0  0  0  0  0
   49.3300    5.1464   -5.1050 C   0  0  1  0  0  0  0  0  0  0  0  0
   49.1621    4.4990   -3.7957 O   0  0  0  0  0  0  0  0  0  0  0  0
   38.3098   -1.7143   -4.3530 C   0  0  2  0  0  0  0  0  0  0  0  0
   37.4421   -2.0981   -3.2104 O   0  0  0  0  0  0  0  0  0  0  0  0
   42.4222    0.9742   -4.3347 C   0  0  2  0  0  0  0  0  0  0  0  0
   43.4242    4.4446   -6.6463 C   0  0  2  0  0  0  0  0  0  0  0  0
   42.5790    3.7607   -5.8388 O   0  0  0  0  0  0  0  0  0  0  0  0
   49.6780    4.0600   -6.2722 C   0  0  2  0  0  0  0  0  0  0  0  0
   49.8421    4.7228   -7.5856 O   0  0  0  0  0  0  0  0  0  0  0  0
   39.7942   -2.0300   -3.9698 C   0  0  2  0  0  0  0  0  0  0  0  0
   40.5785   -1.6231   -5.1202 O   0  0  0  0  0  0  0  0  0  0  0  0
   42.7011    2.2138   -3.4191 C   0  0  2  0  0  0  0  0  0  0  0  0
   42.0433    3.2549   -4.0998 O   0  0  0  0  0  0  0  0  0  0  0  0
   44.1625    3.3681   -7.5249 C   0  0  0  0  0  0  0  0  0  0  0  0
   45.0787    4.0387   -8.4470 O   0  0  0  0  0  0  0  0  0  0  0  0
   48.5040    2.9890   -6.3906 C   0  0  1  0  0  0  0  0  0  0  0  0
   47.2309    3.7589   -6.6738 O   0  0  0  0  0  0  0  0  0  0  0  0
   39.8664   -3.4757   -3.6860 C   0  0  0  0  0  0  0  0  0  0  0  0
   41.0237   -3.7772   -3.0818 O   0  0  0  0  0  0  0  0  0  0  0  0
   44.2614    2.4722   -3.2739 C   0  0  1  0  0  0  0  0  0  0  0  0
   44.4972    3.5727   -2.4496 O   0  0  0  0  0  0  0  0  0  0  0  0
   41.8061    7.6263   -3.6002 C   0  0  0  0  0  0  0  0  0  0  0  0
   48.9347    2.0211   -7.5442 C   0  0  0  0  0  0  0  0  0  0  0  0
   50.2638    1.5073   -7.3763 N   0  0  0  0  0  0  0  0  0  0  0  0
   40.7325    6.7359   -2.9729 C   0  0  0  0  0  0  0  0  0  0  0  0
   40.3031    7.4007   -1.7272 N   0  0  0  0  0  0  0  0  0  0  0  0
   39.0967    6.8266   -0.9812 C   0  0  0  0  0  0  0  0  0  0  0  0
  1  2  1  1  0  0  0
  1  8  1  0  0  0  0
  1 33  1  0  0  0  0
  3  4  1  6  0  0  0
  3 10  1  0  0  0  0
  3 42  1  0  0  0  0
  5 11  1  0  0  0  0
  5 29  1  0  0  0  0
  5 35  1  1  0  0  0
  6 13  1  0  0  0  0
  6 39  1  0  0  0  0
  6 22  1  6  0  0  0
  7 15  1  0  0  0  0
  8  9  1  1  0  0  0
  8 17  1  0  0  0  0
 10 19  1  0  0  0  0
 11 12  1  6  0  0  0
 11 21  1  0  0  0  0
 12 44  1  0  0  0  0
 13 14  1  6  0  0  0
 13 23  1  0  0  0  0
 15 16  1  0  0  0  0
 17 18  1  6  0  0  0
 17 25  1  0  0  0  0
 19 20  1  6  0  0  0
 19 27  1  0  0  0  0
 21 22  1  6  0  0  0
 21 28  1  0  0  0  0
 23 24  1  1  0  0  0
 23 30  1  0  0  0  0
 25 26  1  1  0  0  0
 25 32  1  0  0  0  0
 27  2  1  1  0  0  0
 27 34  1  0  0  0  0
 28 29  1  0  0  0  0
 28 36  1  1  0  0  0
 30 31  1  6  0  0  0
 30 38  1  0  0  0  0
 32 33  1  0  0  0  0
 32 40  1  6  0  0  0
 34 35  1  6  0  0  0
 34 42  1  0  0  0  0
 36 37  1  0  0  0  0
 38 39  1  0  0  0  0
 38 45  1  6  0  0  0
 40 41  1  0  0  0  0
 42 43  1  1  0  0  0
 44 47  1  0  0  0  0
 45 46  1  0  0  0  0
 47 48  1  0  0  0  0
 48 49  1  0  0  0  0
 49  7  1  0  0  0  0
M  END
>  <CHROM.1>
-155.37679116,-41.80240187,-144.14332218,176.53594852,88.65266860,-65.13622976
89.49142219,-75.21783383,-67.63764881,-166.93585731,-121.37190944,51.30031367
169.24135596,171.91229891,152.72614671,-69.15197856,43.26658282,2.83756276
-4.43338613,-2.83611462,0.42775830,0.37155735

>  <Name>
2bee_lig

>  <RI>
2.18182e+07

>  <Rbt.Current_Directory>
/home/itssahil/PROJECTS/Mol_Feturizer/New_Systems/rnas/2bee

>  <Rbt.Executable>
rbdock ($Id: //depot/dev/client3/rdock/2013.1/src/exe/rbdock.cxx#4 $)

>  <Rbt.Library>
libRbt.so (2013.1, Build901 2013/11/27)

>  <Rbt.Parameter_File>
/export/apps/rDock/src/rDock_2013.1_src/data/scripts/dock_solv.prm

>  <Rbt.Receptor>
prm/pocket_docking_3.prm

>  <SCORE>
11.8942

>  <SCORE.INTER>
11.8596

>  <SCORE.INTER.CONST>
1

>  <SCORE.INTER.POLAR>
0

>  <SCORE.INTER.ROT>
16

>  <SCORE.INTER.SOLV>
10.8796

>  <SCORE.INTER.VDW>
-9.98681

>  <SCORE.INTER.norm>
0.242032

>  <SCORE.INTRA>
-2.07008

>  <SCORE.INTRA.DIHEDRAL>
-8.82068

>  <SCORE.INTRA.DIHEDRAL.0>
36.0842

>  <SCORE.INTRA.POLAR>
0

>  <SCORE.INTRA.POLAR.0>
0

>  <SCORE.INTRA.REPUL>
0.0364155

>  <SCORE.INTRA.REPUL.0>
0

>  <SCORE.INTRA.SOLV>
0.708233

>  <SCORE.INTRA.SOLV.lig_0>
-126.444

>  <SCORE.INTRA.VDW>
1.80406

>  <SCORE.INTRA.VDW.0>
-7.40469

>  <SCORE.INTRA.norm>
-0.0422466

>  <SCORE.RESTR>
2.1047

>  <SCORE.RESTR.CAVITY>
2.1047

>  <SCORE.RESTR.norm>
0.042953

>  <SCORE.SYSTEM>
0

>  <SCORE.SYSTEM.CONST>
0

>  <SCORE.SYSTEM.DIHEDRAL>
0

>  <SCORE.SYSTEM.SOLV>
0

>  <SCORE.SYSTEM.norm>
0

>  <SCORE.heavy>
49

>  <SCORE.norm>
0.242739

>  <RMSD>
9.338

$$$$
2bee_lig
 OpenBabel11021811423D
libRbt.so/2013.1/901 2013/11/27
 49 52  0  0  0  0  0  0  0  0999 V2000
   39.5776    1.3448   -3.8669 C   0  0  2  0  0  0  0  0  0  0  0  0
   40.2784    0.3601   -3.1175 O   0  0  0  0  0  0  0  0  0  0  0  0
   44.5538   -0.6053   -2.7140 C   0  0  2  0  0  0  0  0  0  0  0  0
   45.9260   -1.0425   -3.0890 N   0  0  0  0  0  0  0  0  0  0  0  0
   42.6574    3.4852   -3.9180 C   0  0  1  0  0  0  0  0  0  0  0  0
   46.0804    5.2069   -6.4659 C   0  0  1  0  0  0  0  0  0  0  0  0
   43.0357    6.0866    0.7738 C   0  0  0  0  0  0  0  0  0  0  0  0
   38.2326    1.7328   -3.1393 C   0  0  2  0  0  0  0  0  0  0  0  0
   38.5080    2.1501   -1.7687 N   0  0  0  0  0  0  0  0  0  0  0  0
   43.5140   -1.7623   -3.0718 C   0  0  0  0  0  0  0  0  0  0  0  0
   43.7504    4.5038   -3.8963 C   0  0  2  0  0  0  0  0  0  0  0  0
   43.5018    5.5926   -2.9356 O   0  0  0  0  0  0  0  0  0  0  0  0
   46.4104    5.6758   -7.9832 C   0  0  2  0  0  0  0  0  0  0  0  0
   45.8285    4.6597   -8.9224 N   0  0  0  0  0  0  0  0  0  0  0  0
   43.1743    4.7709    0.2731 C   0  0  0  0  0  0  0  0  0  0  0  0
   42.0979    3.8886    0.3325 N   0  0  0  0  0  0  0  0  0  0  0  0
   37.2341    0.4947   -3.1854 C   0  0  1  0  0  0  0  0  0  0  0  0
   36.0253    0.8547   -2.5326 O   0  0  0  0  0  0  0  0  0  0  0  0
   41.9901   -1.3143   -2.6863 C   0  0  2  0  0  0  0  0  0  0  0  0
   41.0561   -2.3437   -2.9934 N   0  0  0  0  0  0  0  0  0  0  0  0
   43.7873    4.7499   -5.3852 C   0  0  2  0  0  0  0  0  0  0  0  0
   44.6375    5.1044   -6.4082 O   0  0  0  0  0  0  0  0  0  0  0  0
   47.9697    5.7587   -8.1494 C   0  0  1  0  0  0  0  0  0  0  0  0
   48.4574    6.7804   -7.2114 O   0  0  0  0  0  0  0  0  0  0  0  0
   36.9797    0.1054   -4.6602 C   0  0  2  0  0  0  0  0  0  0  0  0
   36.0623   -1.0594   -4.7486 O   0  0  0  0  0  0  0  0  0  0  0  0
   41.6052    0.0016   -3.4682 C   0  0  2  0  0  0  0  0  0  0  0  0
   42.2384    4.6348   -5.8038 C   0  0  2  0  0  0  0  0  0  0  0  0
   41.8142    3.6094   -5.0275 O   0  0  0  0  0  0  0  0  0  0  0  0
   48.6201    4.2952   -7.8350 C   0  0  2  0  0  0  0  0  0  0  0  0
   48.1201    3.2747   -8.7837 O   0  0  0  0  0  0  0  0  0  0  0  0
   38.3215   -0.2715   -5.3725 C   0  0  2  0  0  0  0  0  0  0  0  0
   39.1652    0.9010   -5.2385 O   0  0  0  0  0  0  0  0  0  0  0  0
   42.6544    1.0995   -3.0857 C   0  0  2  0  0  0  0  0  0  0  0  0
   42.2074    2.2198   -3.8104 O   0  0  0  0  0  0  0  0  0  0  0  0
   41.9031    4.2326   -7.2876 C   0  0  0  0  0  0  0  0  0  0  0  0
   40.4539    4.2631   -7.4837 O   0  0  0  0  0  0  0  0  0  0  0  0
   48.2451    3.8360   -6.3560 C   0  0  1  0  0  0  0  0  0  0  0  0
   46.7335    3.8322   -6.2647 O   0  0  0  0  0  0  0  0  0  0  0  0
   37.9874   -0.6032   -6.7703 C   0  0  0  0  0  0  0  0  0  0  0  0
   39.0719   -1.0504   -7.4177 O   0  0  0  0  0  0  0  0  0  0  0  0
   44.1207    0.6520   -3.5004 C   0  0  1  0  0  0  0  0  0  0  0  0
   45.0468    1.6337   -3.1469 O   0  0  0  0  0  0  0  0  0  0  0  0
   43.8901    6.9992   -3.1292 C   0  0  0  0  0  0  0  0  0  0  0  0
   48.8991    2.4240   -6.1772 C   0  0  0  0  0  0  0  0  0  0  0  0
   48.7317    1.8935   -4.8546 N   0  0  0  0  0  0  0  0  0  0  0  0
   43.7200    7.7556   -1.8109 C   0  0  0  0  0  0  0  0  0  0  0  0
   44.6735    7.1616   -0.8537 N   0  0  0  0  0  0  0  0  0  0  0  0
   44.2685    7.0924    0.6202 C   0  0  0  0  0  0  0  0  0  0  0  0
  1  2  1  1  0  0  0
  1  8  1  0  0  0  0
  1 33  1  0  0  0  0
  3  4  1  6  0  0  0
  3 10  1  0  0  0  0
  3 42  1  0  0  0  0
  5 11  1  0  0  0  0
  5 29  1  0  0  0  0
  5 35  1  6  0  0  0
  6 13  1  0  0  0  0
  6 39  1  0  0  0  0
  6 22  1  6  0  0  0
  7 15  1  0  0  0  0
  8  9  1  1  0  0  0
  8 17  1  0  0  0  0
 10 19  1  0  0  0  0
 11 12  1  1  0  0  0
 11 21  1  0  0  0  0
 12 44  1  0  0  0  0
 13 14  1  6  0  0  0
 13 23  1  0  0  0  0
 15 16  1  0  0  0  0
 17 18  1  6  0  0  0
 17 25  1  0  0  0  0
 19 20  1  6  0  0  0
 19 27  1  0  0  0  0
 21 22  1  1  0  0  0
 21 28  1  0  0  0  0
 23 24  1  1  0  0  0
 23 30  1  0  0  0  0
 25 26  1  1  0  0  0
 25 32  1  0  0  0  0
 27  2  1  1  0  0  0
 27 34  1  0  0  0  0
 28 29  1  0  0  0  0
 28 36  1  6  0  0  0
 30 31  1  6  0  0  0
 30 38  1  0  0  0  0
 32 33  1  0  0  0  0
 32 40  1  6  0  0  0
 34 35  1  6  0  0  0
 34 42  1  0  0  0  0
 36 37  1  0  0  0  0
 38 39  1  0  0  0  0
 38 45  1  6  0  0  0
 40 41  1  0  0  0  0
 42 43  1  1  0  0  0
 44 47  1  0  0  0  0
 45 46  1  0  0  0  0
 47 48  1  0  0  0  0
 48 49  1  0  0  0  0
 49  7  1  0  0  0  0
M  END
>  <CHROM.1>
-170.54129521,28.71818015,179.93691123,-176.91804833,-145.16324117,-168.57334829
11.86465346,-167.35554878,-176.58242556,-174.60802046,179.57647356,176.15747390
64.12481605,-146.18056346,66.21603184,54.80131177,42.90896500,2.76019604
-4.39872615,3.02353467,-0.54812651,-2.21629443

>  <Name>
2bee_lig

>  <RI>
0

>  <Rbt.Current_Directory>
/home/itssahil/PROJECTS/Mol_Feturizer/New_Systems/rnas/2bee

>  <Rbt.Executable>
rbdock ($Id: //depot/dev/client3/rdock/2013.1/src/exe/rbdock.cxx#4 $)

>  <Rbt.Library>
libRbt.so (2013.1, Build901 2013/11/27)

>  <Rbt.Parameter_File>
/export/apps/rDock/src/rDock_2013.1_src/data/scripts/dock_solv.prm

>  <Rbt.Receptor>
prm/pocket_docking_5.prm

>  <SCORE>
-12.9704

>  <SCORE.INTER>
-1.05285

>  <SCORE.INTER.CONST>
1

>  <SCORE.INTER.POLAR>
-0.877162

>  <SCORE.INTER.ROT>
16

>  <SCORE.INTER.SOLV>
13.1847

>  <SCORE.INTER.VDW>
-16.4396

>  <SCORE.INTER.norm>
-0.0214868

>  <SCORE.INTRA>
-11.9175

>  <SCORE.INTRA.DIHEDRAL>
-21.8979

>  <SCORE.INTRA.DIHEDRAL.0>
36.0842

>  <SCORE.INTRA.POLAR>
0

>  <SCORE.INTRA.POLAR.0>
0

>  <SCORE.INTRA.REPUL>
0.00407252

>  <SCORE.INTRA.REPUL.0>
0

>  <SCORE.INTRA.SOLV>
-3.81307

>  <SCORE.INTRA.SOLV.lig_0>
-126.444

>  <SCORE.INTRA.VDW>
0.917581

>  <SCORE.INTRA.VDW.0>
-7.40469

>  <SCORE.INTRA.norm>
-0.243215

>  <SCORE.RESTR>
0

>  <SCORE.RESTR.CAVITY>
0

>  <SCORE.RESTR.norm>
0

>  <SCORE.SYSTEM>
0

>  <SCORE.SYSTEM.CONST>
0

>  <SCORE.SYSTEM.DIHEDRAL>
0

>  <SCORE.SYSTEM.SOLV>
0

>  <SCORE.SYSTEM.norm>
0

>  <SCORE.heavy>
49

>  <SCORE.norm>
-0.264702

>  <RMSD>
9.340

$$$$
2bee_lig
 OpenBabel11021811423D
libRbt.so/2013.1/901 2013/11/27
 49 52  0  0  0  0  0  0  0  0999 V2000
   41.6146    7.5328    0.8825 C   0  0  2  0  0  0  0  0  0  0  0  0
   40.5489    7.1673    0.0149 O   0  0  0  0  0  0  0  0  0  0  0  0
   41.1835    2.8235   -0.3055 C   0  0  2  0  0  0  0  0  0  0  0  0
   40.9030    1.3909   -0.5953 N   0  0  0  0  0  0  0  0  0  0  0  0
   41.8015    5.9264   -3.6455 C   0  0  1  0  0  0  0  0  0  0  0  0
   41.4044    2.9997   -7.4391 C   0  0  1  0  0  0  0  0  0  0  0  0
   47.2877    5.6648   -6.8305 C   0  0  0  0  0  0  0  0  0  0  0  0
   41.2171    8.7990    1.7355 C   0  0  2  0  0  0  0  0  0  0  0  0
   39.9658    8.5520    2.4440 N   0  0  0  0  0  0  0  0  0  0  0  0
   40.0752    3.3873    0.6953 C   0  0  0  0  0  0  0  0  0  0  0  0
   42.7363    5.3517   -4.6596 C   0  0  2  0  0  0  0  0  0  0  0  0
   43.4912    6.3820   -5.3937 O   0  0  0  0  0  0  0  0  0  0  0  0
   41.2745    1.3857   -7.5340 C   0  0  2  0  0  0  0  0  0  0  0  0
   42.5236    0.7827   -6.9600 N   0  0  0  0  0  0  0  0  0  0  0  0
   48.0698    5.9754   -7.9674 C   0  0  0  0  0  0  0  0  0  0  0  0
   48.9232    5.0153   -8.5065 N   0  0  0  0  0  0  0  0  0  0  0  0
   41.1079   10.0649    0.7775 C   0  0  1  0  0  0  0  0  0  0  0  0
   40.7545   11.2000    1.5544 O   0  0  0  0  0  0  0  0  0  0  0  0
   40.3411    4.9652    1.0285 C   0  0  2  0  0  0  0  0  0  0  0  0
   39.3627    5.4750    1.9279 N   0  0  0  0  0  0  0  0  0  0  0  0
   41.7240    4.4670   -5.3463 C   0  0  2  0  0  0  0  0  0  0  0  0
   41.6057    3.2799   -6.0331 O   0  0  0  0  0  0  0  0  0  0  0  0
   41.1081    0.9887   -9.0443 C   0  0  1  0  0  0  0  0  0  0  0  0
   39.8614    1.6025   -9.5245 O   0  0  0  0  0  0  0  0  0  0  0  0
   42.4627   10.2756    0.0623 C   0  0  2  0  0  0  0  0  0  0  0  0
   42.3998   11.4412   -0.8561 O   0  0  0  0  0  0  0  0  0  0  0  0
   40.3217    5.8049   -0.3078 C   0  0  2  0  0  0  0  0  0  0  0  0
   40.3818    5.3518   -5.2909 C   0  0  2  0  0  0  0  0  0  0  0  0
   40.4653    5.9102   -4.0600 O   0  0  0  0  0  0  0  0  0  0  0  0
   42.4023    1.5217   -9.8836 C   0  0  2  0  0  0  0  0  0  0  0  0
   43.6513    0.8990   -9.3897 O   0  0  0  0  0  0  0  0  0  0  0  0
   42.8487    9.0110   -0.7754 C   0  0  2  0  0  0  0  0  0  0  0  0
   42.8811    7.9186    0.1785 O   0  0  0  0  0  0  0  0  0  0  0  0
   41.4207    5.2109   -1.2522 C   0  0  2  0  0  0  0  0  0  0  0  0
   41.3327    6.0380   -2.3872 O   0  0  0  0  0  0  0  0  0  0  0  0
   39.0003    4.6004   -5.3415 C   0  0  0  0  0  0  0  0  0  0  0  0
   37.9905    5.4789   -5.9314 O   0  0  0  0  0  0  0  0  0  0  0  0
   42.5353    3.1030   -9.7387 C   0  0  1  0  0  0  0  0  0  0  0  0
   42.6386    3.4035   -8.2580 O   0  0  0  0  0  0  0  0  0  0  0  0
   44.1560    9.2911   -1.3984 C   0  0  0  0  0  0  0  0  0  0  0  0
   43.9905    9.8909   -2.5851 O   0  0  0  0  0  0  0  0  0  0  0  0
   41.1200    3.6873   -1.5848 C   0  0  1  0  0  0  0  0  0  0  0  0
   42.1099    3.1674   -2.4191 O   0  0  0  0  0  0  0  0  0  0  0  0
   42.9613    7.1926   -6.5024 C   0  0  0  0  0  0  0  0  0  0  0  0
   43.8107    3.4932  -10.5599 C   0  0  0  0  0  0  0  0  0  0  0  0
   43.9960    4.9121  -10.6645 N   0  0  0  0  0  0  0  0  0  0  0  0
   44.1103    7.9553   -7.1636 C   0  0  0  0  0  0  0  0  0  0  0  0
   45.1827    6.9735   -7.4165 N   0  0  0  0  0  0  0  0  0  0  0  0
   46.2253    6.7446   -6.3202 C   0  0  0  0  0  0  0  0  0  0  0  0
  1  2  1  6  0  0  0
  1  8  1  0  0  0  0
  1 33  1  0  0  0  0
  3  4  1  6  0  0  0
  3 10  1  0  0  0  0
  3 42  1  0  0  0  0
  5 11  1  0  0  0  0
  5 29  1  0  0  0  0
  5 35  1  1  0  0  0
  6 13  1  0  0  0  0
  6 39  1  0  0  0  0
  6 22  1  1  0  0  0
  7 15  1  0  0  0  0
  8  9  1  6  0  0  0
  8 17  1  0  0  0  0
 10 19  1  0  0  0  0
 11 12  1  6  0  0  0
 11 21  1  0  0  0  0
 12 44  1  0  0  0  0
 13 14  1  6  0  0  0
 13 23  1  0  0  0  0
 15 16  1  0  0  0  0
 17 18  1  1  0  0  0
 17 25  1  0  0  0  0
 19 20  1  1  0  0  0
 19 27  1  0  0  0  0
 21 22  1  6  0  0  0
 21 28  1  0  0  0  0
 23 24  1  6  0  0  0
 23 30  1  0  0  0  0
 25 26  1  6  0  0  0
 25 32  1  0  0  0  0
 27  2  1  1  0  0  0
 27 34  1  0  0  0  0
 28 29  1  0  0  0  0
 28 36  1  1  0  0  0
 30 31  1  1  0  0  0
 30 38  1  0  0  0  0
 32 33  1  0  0  0  0
 32 40  1  1  0  0  0
 34 35  1  6  0  0  0
 34 42  1  0  0  0  0
 36 37  1  0  0  0  0
 38 39  1  0  0  0  0
 38 45  1  6  0  0  0
 40 41  1  0  0  0  0
 42 43  1  6  0  0  0
 44 47  1  0  0  0  0
 45 46  1  0  0  0  0
 47 48  1  0  0  0  0
 48 49  1  0  0  0  0
 49  7  1  0  0  0  0
M  END
>  <CHROM.1>
-146.92749883,-20.43952317,-176.88822975,-174.58792402,-78.48630686,-169.66180803
-105.71912734,47.85838978,-152.17296690,-88.72209344,-165.09209989,173.28592479
48.93082719,-89.42605993,-179.08834797,62.30192643,42.22817000,5.54624588
-4.06903153,1.84654377,0.78916566,0.88904287

>  <Name>
2bee_lig

>  <RI>
0

>  <Rbt.Current_Directory>
/home/itssahil/PROJECTS/Mol_Feturizer/New_Systems/rnas/2bee

>  <Rbt.Executable>
rbdock ($Id: //depot/dev/client3/rdock/2013.1/src/exe/rbdock.cxx#4 $)

>  <Rbt.Library>
libRbt.so (2013.1, Build901 2013/11/27)

>  <Rbt.Parameter_File>
/export/apps/rDock/src/rDock_2013.1_src/data/scripts/dock_solv.prm

>  <Rbt.Receptor>
prm/pocket_docking_6.prm

>  <SCORE>
-13.0915

>  <SCORE.INTER>
-6.85914

>  <SCORE.INTER.CONST>
1

>  <SCORE.INTER.POLAR>
-1.85059

>  <SCORE.INTER.ROT>
16

>  <SCORE.INTER.SOLV>
13.4378

>  <SCORE.INTER.VDW>
-17.15

>  <SCORE.INTER.norm>
-0.139982

>  <SCORE.INTRA>
-6.23234

>  <SCORE.INTRA.DIHEDRAL>
-14.0597

>  <SCORE.INTRA.DIHEDRAL.0>
36.0842

>  <SCORE.INTRA.POLAR>
0

>  <SCORE.INTRA.POLAR.0>
0

>  <SCORE.INTRA.REPUL>
0

>  <SCORE.INTRA.REPUL.0>
0

>  <SCORE.INTRA.SOLV>
-1.10309

>  <SCORE.INTRA.SOLV.lig_0>
-126.444

>  <SCORE.INTRA.VDW>
1.34905

>  <SCORE.INTRA.VDW.0>
-7.40469

>  <SCORE.INTRA.norm>
-0.127191

>  <SCORE.RESTR>
0

>  <SCORE.RESTR.CAVITY>
0

>  <SCORE.RESTR.norm>
0

>  <SCORE.SYSTEM>
0

>  <SCORE.SYSTEM.CONST>
0

>  <SCORE.SYSTEM.DIHEDRAL>
0

>  <SCORE.SYSTEM.SOLV>
0

>  <SCORE.SYSTEM.norm>
0

>  <SCORE.heavy>
49

>  <SCORE.norm>
-0.267173

>  <RMSD>
9.363

$$$$
2bee_lig
 OpenBabel11021811423D
libRbt.so/2013.1/901 2013/11/27
 49 52  0  0  0  0  0  0  0  0999 V2000
   41.6659   -0.4563   -5.1554 C   0  0  2  0  0  0  0  0  0  0  0  0
   42.4238    0.6559   -4.6965 O   0  0  0  0  0  0  0  0  0  0  0  0
   39.5398    2.5294   -1.9494 C   0  0  2  0  0  0  0  0  0  0  0  0
   38.9953    3.4505   -0.9149 N   0  0  0  0  0  0  0  0  0  0  0  0
   41.8026    4.0857   -5.6043 C   0  0  1  0  0  0  0  0  0  0  0  0
   46.0508    4.5227   -7.2629 C   0  0  1  0  0  0  0  0  0  0  0  0
   41.6368    9.2489   -0.5477 C   0  0  0  0  0  0  0  0  0  0  0  0
   42.5492   -1.3752   -6.0852 C   0  0  2  0  0  0  0  0  0  0  0  0
   43.7691   -1.7669   -5.3875 N   0  0  0  0  0  0  0  0  0  0  0  0
   40.8079    1.7610   -1.3582 C   0  0  0  0  0  0  0  0  0  0  0  0
   43.0421    4.8995   -5.4204 C   0  0  2  0  0  0  0  0  0  0  0  0
   42.7862    6.1971   -4.7716 O   0  0  0  0  0  0  0  0  0  0  0  0
   46.5951    5.9013   -6.6039 C   0  0  2  0  0  0  0  0  0  0  0  0
   46.4158    7.0014   -7.6092 N   0  0  0  0  0  0  0  0  0  0  0  0
   42.7650   10.0840   -0.3734 C   0  0  0  0  0  0  0  0  0  0  0  0
   43.0344   10.6349    0.8774 N   0  0  0  0  0  0  0  0  0  0  0  0
   42.8706   -0.6003   -7.4373 C   0  0  1  0  0  0  0  0  0  0  0  0
   43.6615   -1.4365   -8.2693 O   0  0  0  0  0  0  0  0  0  0  0  0
   41.4443    0.7471   -2.4712 C   0  0  2  0  0  0  0  0  0  0  0  0
   42.5708    0.0501   -1.9502 N   0  0  0  0  0  0  0  0  0  0  0  0
   43.5243    4.8054   -6.8478 C   0  0  2  0  0  0  0  0  0  0  0  0
   44.6707    4.7895   -7.6096 O   0  0  0  0  0  0  0  0  0  0  0  0
   48.1130    5.7156   -6.2467 C   0  0  1  0  0  0  0  0  0  0  0  0
   48.2009    4.6370   -5.2514 O   0  0  0  0  0  0  0  0  0  0  0  0
   41.5413   -0.2184   -8.1291 C   0  0  2  0  0  0  0  0  0  0  0  0
   41.7960    0.5223   -9.3910 O   0  0  0  0  0  0  0  0  0  0  0  0
   41.8712    1.5609   -3.7543 C   0  0  2  0  0  0  0  0  0  0  0  0
   42.1545    4.8466   -7.6901 C   0  0  2  0  0  0  0  0  0  0  0  0
   41.3306    4.0953   -6.9213 O   0  0  0  0  0  0  0  0  0  0  0  0
   48.9415    5.3493   -7.6043 C   0  0  2  0  0  0  0  0  0  0  0  0
   48.8436    6.4410   -8.5994 O   0  0  0  0  0  0  0  0  0  0  0  0
   40.6718    0.6877   -7.1949 C   0  0  2  0  0  0  0  0  0  0  0  0
   40.4731   -0.0912   -5.9874 O   0  0  0  0  0  0  0  0  0  0  0  0
   40.5965    2.2957   -4.2906 C   0  0  2  0  0  0  0  0  0  0  0  0
   41.0806    2.9612   -5.4319 O   0  0  0  0  0  0  0  0  0  0  0  0
   42.1469    4.1877   -9.1189 C   0  0  0  0  0  0  0  0  0  0  0  0
   40.8992    4.5258   -9.8033 O   0  0  0  0  0  0  0  0  0  0  0  0
   48.3600    4.0174   -8.2577 C   0  0  1  0  0  0  0  0  0  0  0  0
   46.8889    4.2611   -8.5221 O   0  0  0  0  0  0  0  0  0  0  0  0
   39.4223    0.9806   -7.9222 C   0  0  0  0  0  0  0  0  0  0  0  0
   39.6280    1.9329   -8.8420 O   0  0  0  0  0  0  0  0  0  0  0  0
   40.0187    3.2971   -3.2017 C   0  0  1  0  0  0  0  0  0  0  0  0
   38.8790    3.9387   -3.6874 O   0  0  0  0  0  0  0  0  0  0  0  0
   43.8166    7.1897   -4.4252 C   0  0  0  0  0  0  0  0  0  0  0  0
   49.2104    3.7794   -9.5512 C   0  0  0  0  0  0  0  0  0  0  0  0
   50.4905    3.1915   -9.2788 N   0  0  0  0  0  0  0  0  0  0  0  0
   43.1490    8.4072   -3.7843 C   0  0  0  0  0  0  0  0  0  0  0  0
   42.4861    7.9308   -2.5548 N   0  0  0  0  0  0  0  0  0  0  0  0
   41.2954    8.7295   -2.0204 C   0  0  0  0  0  0  0  0  0  0  0  0
  1  2  1  6  0  0  0
  1  8  1  0  0  0  0
  1 33  1  0  0  0  0
  3  4  1  1  0  0  0
  3 10  1  0  0  0  0
  3 42  1  0  0  0  0
  5 11  1  0  0  0  0
  5 29  1  0  0  0  0
  5 35  1  6  0  0  0
  6 13  1  0  0  0  0
  6 39  1  0  0  0  0
  6 22  1  6  0  0  0
  7 15  1  0  0  0  0
  8  9  1  1  0  0  0
  8 17  1  0  0  0  0
 10 19  1  0  0  0  0
 11 12  1  6  0  0  0
 11 21  1  0  0  0  0
 12 44  1  0  0  0  0
 13 14  1  6  0  0  0
 13 23  1  0  0  0  0
 15 16  1  0  0  0  0
 17 18  1  6  0  0  0
 17 25  1  0  0  0  0
 19 20  1  1  0  0  0
 19 27  1  0  0  0  0
 21 22  1  6  0  0  0
 21 28  1  0  0  0  0
 23 24  1  1  0  0  0
 23 30  1  0  0  0  0
 25 26  1  6  0  0  0
 25 32  1  0  0  0  0
 27  2  1  6  0  0  0
 27 34  1  0  0  0  0
 28 29  1  0  0  0  0
 28 36  1  6  0  0  0
 30 31  1  6  0  0  0
 30 38  1  0  0  0  0
 32 33  1  0  0  0  0
 32 40  1  6  0  0  0
 34 35  1  6  0  0  0
 34 42  1  0  0  0  0
 36 37  1  0  0  0  0
 38 39  1  0  0  0  0
 38 45  1  6  0  0  0
 40 41  1  0  0  0  0
 42 43  1  6  0  0  0
 44 47  1  0  0  0  0
 45 46  1  0  0  0  0
 47 48  1  0  0  0  0
 48 49  1  0  0  0  0
 49  7  1  0  0  0  0
M  END
>  <CHROM.1>
-174.68166753,62.14440516,-79.79235646,175.24029397,178.06049020,179.28847638
18.64298513,57.05156195,-170.45352311,-78.06925185,-77.78894145,79.27304700
61.51668073,-155.08003144,-119.71388696,59.34242331,43.15210437,3.69372883
-5.65866220,2.65180819,0.59802480,0.62296933

>  <Name>
2bee_lig

>  <RI>
0

>  <Rbt.Current_Directory>
/home/itssahil/PROJECTS/Mol_Feturizer/New_Systems/rnas/2bee

>  <Rbt.Executable>
rbdock ($Id: //depot/dev/client3/rdock/2013.1/src/exe/rbdock.cxx#4 $)

>  <Rbt.Library>
libRbt.so (2013.1, Build901 2013/11/27)

>  <Rbt.Parameter_File>
/export/apps/rDock/src/rDock_2013.1_src/data/scripts/dock_solv.prm

>  <Rbt.Receptor>
prm/pocket_docking_5.prm

>  <SCORE>
-4.89216

>  <SCORE.INTER>
7.80345

>  <SCORE.INTER.CONST>
1

>  <SCORE.INTER.POLAR>
0

>  <SCORE.INTER.ROT>
16

>  <SCORE.INTER.SOLV>
12.7639

>  <SCORE.INTER.VDW>
-13.319

>  <SCORE.INTER.norm>
0.159254

>  <SCORE.INTRA>
-12.6956

>  <SCORE.INTRA.DIHEDRAL>
-24.031

>  <SCORE.INTRA.DIHEDRAL.0>
36.0842

>  <SCORE.INTRA.POLAR>
0

>  <SCORE.INTRA.POLAR.0>
0

>  <SCORE.INTRA.REPUL>
0

>  <SCORE.INTRA.REPUL.0>
0

>  <SCORE.INTRA.SOLV>
-2.11232

>  <SCORE.INTRA.SOLV.lig_0>
-126.444

>  <SCORE.INTRA.VDW>
0.376035

>  <SCORE.INTRA.VDW.0>
-7.40469

>  <SCORE.INTRA.norm>
-0.259094

>  <SCORE.RESTR>
0

>  <SCORE.RESTR.CAVITY>
0

>  <SCORE.RESTR.norm>
0

>  <SCORE.SYSTEM>
0

>  <SCORE.SYSTEM.CONST>
0

>  <SCORE.SYSTEM.DIHEDRAL>
0

>  <SCORE.SYSTEM.SOLV>
0

>  <SCORE.SYSTEM.norm>
0

>  <SCORE.heavy>
49

>  <SCORE.norm>
-0.09984

>  <RMSD>
9.368

$$$$
2bee_lig
 OpenBabel11021811423D
libRbt.so/2013.1/901 2013/11/27
 49 52  0  0  0  0  0  0  0  0999 V2000
   41.0986    7.6567    0.7558 C   0  0  2  0  0  0  0  0  0  0  0  0
   40.7892    6.2892    0.9936 O   0  0  0  0  0  0  0  0  0  0  0  0
   39.5403    4.1056    4.6056 C   0  0  2  0  0  0  0  0  0  0  0  0
   38.7666    3.7620    5.8296 N   0  0  0  0  0  0  0  0  0  0  0  0
   38.9676    4.1328   -0.4023 C   0  0  1  0  0  0  0  0  0  0  0  0
   40.6388    0.0689   -2.0813 C   0  0  1  0  0  0  0  0  0  0  0  0
   37.4698    1.9055   -7.2706 C   0  0  0  0  0  0  0  0  0  0  0  0
   39.8638    8.3929    0.1061 C   0  0  2  0  0  0  0  0  0  0  0  0
   38.6797    8.2141    0.9395 N   0  0  0  0  0  0  0  0  0  0  0  0
   40.1078    5.5915    4.7386 C   0  0  0  0  0  0  0  0  0  0  0  0
   39.8815    4.0122   -1.5783 C   0  0  2  0  0  0  0  0  0  0  0  0
   39.3867    4.7296   -2.7661 O   0  0  0  0  0  0  0  0  0  0  0  0
   42.1122   -0.5618   -2.3310 C   0  0  2  0  0  0  0  0  0  0  0  0
   42.7367    0.1569   -3.4914 N   0  0  0  0  0  0  0  0  0  0  0  0
   36.8466    0.8124   -7.9168 C   0  0  0  0  0  0  0  0  0  0  0  0
   35.5681    0.9583   -8.4505 N   0  0  0  0  0  0  0  0  0  0  0  0
   39.6340    7.8344   -1.3661 C   0  0  1  0  0  0  0  0  0  0  0  0
   38.5241    8.5059   -1.9443 O   0  0  0  0  0  0  0  0  0  0  0  0
   40.9543    6.0123    3.4052 C   0  0  2  0  0  0  0  0  0  0  0  0
   41.4725    7.3333    3.5182 N   0  0  0  0  0  0  0  0  0  0  0  0
   40.0015    2.5077   -1.5506 C   0  0  2  0  0  0  0  0  0  0  0  0
   40.8666    1.4800   -1.8513 O   0  0  0  0  0  0  0  0  0  0  0  0
   41.9506   -2.0918   -2.6456 C   0  0  1  0  0  0  0  0  0  0  0  0
   41.3499   -2.7224   -1.4610 O   0  0  0  0  0  0  0  0  0  0  0  0
   40.9186    8.0574   -2.1974 C   0  0  2  0  0  0  0  0  0  0  0  0
   40.7522    7.5349   -3.5777 O   0  0  0  0  0  0  0  0  0  0  0  0
   40.0290    5.9130    2.1305 C   0  0  2  0  0  0  0  0  0  0  0  0
   38.5297    2.0411   -1.0995 C   0  0  2  0  0  0  0  0  0  0  0  0
   38.2095    2.9788   -0.1764 O   0  0  0  0  0  0  0  0  0  0  0  0
   41.0068   -2.2703   -3.9650 C   0  0  2  0  0  0  0  0  0  0  0  0
   41.6204   -1.6296   -5.1500 O   0  0  0  0  0  0  0  0  0  0  0  0
   42.1370    7.3275   -1.5398 C   0  0  2  0  0  0  0  0  0  0  0  0
   42.2320    7.8774   -0.2008 O   0  0  0  0  0  0  0  0  0  0  0  0
   39.4979    4.4420    2.0487 C   0  0  2  0  0  0  0  0  0  0  0  0
   38.7148    4.4608    0.8798 O   0  0  0  0  0  0  0  0  0  0  0  0
   38.3849    0.6483   -0.3818 C   0  0  0  0  0  0  0  0  0  0  0  0
   36.9668    0.3448   -0.1914 O   0  0  0  0  0  0  0  0  0  0  0  0
   39.5815   -1.6041   -3.7125 C   0  0  1  0  0  0  0  0  0  0  0  0
   39.8287   -0.1505   -3.3667 O   0  0  0  0  0  0  0  0  0  0  0  0
   43.3143    7.6132   -2.3814 C   0  0  0  0  0  0  0  0  0  0  0  0
   44.4117    7.0498   -1.8585 O   0  0  0  0  0  0  0  0  0  0  0  0
   38.6529    4.0712    3.3414 C   0  0  1  0  0  0  0  0  0  0  0  0
   38.1929    2.7566    3.2608 O   0  0  0  0  0  0  0  0  0  0  0  0
   39.7944    4.4546   -4.1536 C   0  0  0  0  0  0  0  0  0  0  0  0
   38.7784   -1.8168   -5.0402 C   0  0  0  0  0  0  0  0  0  0  0  0
   37.4408   -1.3019   -4.9734 N   0  0  0  0  0  0  0  0  0  0  0  0
   39.2272    3.1021   -4.5873 C   0  0  0  0  0  0  0  0  0  0  0  0
   39.4110    3.0129   -6.0490 N   0  0  0  0  0  0  0  0  0  0  0  0
   38.9722    1.7281   -6.7548 C   0  0  0  0  0  0  0  0  0  0  0  0
  1  2  1  6  0  0  0
  1  8  1  0  0  0  0
  1 33  1  0  0  0  0
  3  4  1  1  0  0  0
  3 10  1  0  0  0  0
  3 42  1  0  0  0  0
  5 11  1  0  0  0  0
  5 29  1  0  0  0  0
  5 35  1  1  0  0  0
  6 13  1  0  0  0  0
  6 39  1  0  0  0  0
  6 22  1  6  0  0  0
  7 15  1  0  0  0  0
  8  9  1  1  0  0  0
  8 17  1  0  0  0  0
 10 19  1  0  0  0  0
 11 12  1  6  0  0  0
 11 21  1  0  0  0  0
 12 44  1  0  0  0  0
 13 14  1  6  0  0  0
 13 23  1  0  0  0  0
 15 16  1  0  0  0  0
 17 18  1  6  0  0  0
 17 25  1  0  0  0  0
 19 20  1  1  0  0  0
 19 27  1  0  0  0  0
 21 22  1  6  0  0  0
 21 28  1  0  0  0  0
 23 24  1  1  0  0  0
 23 30  1  0  0  0  0
 25 26  1  6  0  0  0
 25 32  1  0  0  0  0
 27  2  1  6  0  0  0
 27 34  1  0  0  0  0
 28 29  1  0  0  0  0
 28 36  1  1  0  0  0
 30 31  1  6  0  0  0
 30 38  1  0  0  0  0
 32 33  1  0  0  0  0
 32 40  1  6  0  0  0
 34 35  1  6  0  0  0
 34 42  1  0  0  0  0
 36 37  1  0  0  0  0
 38 39  1  0  0  0  0
 38 45  1  6  0  0  0
 40 41  1  0  0  0  0
 42 43  1  6  0  0  0
 44 47  1  0  0  0  0
 45 46  1  0  0  0  0
 47 48  1  0  0  0  0
 48 49  1  0  0  0  0
 49  7  1  0  0  0  0
M  END
>  <CHROM.1>
-79.94733998,-31.86156094,-177.98118676,-176.11021140,-158.77597499,69.72806699
-160.29969419,-74.90857217,-173.67889967,178.23734308,95.20967297,178.40525694
167.99044636,177.91835144,92.91148468,-177.90683859,39.87341538,3.37996217
-1.48731105,-0.58219079,-1.43539964,-1.40479064

>  <Name>
2bee_lig

>  <RI>
0

>  <Rbt.Current_Directory>
/home/itssahil/PROJECTS/Mol_Feturizer/New_Systems/rnas/2bee

>  <Rbt.Executable>
rbdock ($Id: //depot/dev/client3/rdock/2013.1/src/exe/rbdock.cxx#4 $)

>  <Rbt.Library>
libRbt.so (2013.1, Build901 2013/11/27)

>  <Rbt.Parameter_File>
/export/apps/rDock/src/rDock_2013.1_src/data/scripts/dock_solv.prm

>  <Rbt.Receptor>
prm/pocket_docking_8.prm

>  <SCORE>
-14.3791

>  <SCORE.INTER>
-6.76399

>  <SCORE.INTER.CONST>
1

>  <SCORE.INTER.POLAR>
-0.959166

>  <SCORE.INTER.ROT>
16

>  <SCORE.INTER.SOLV>
12.151

>  <SCORE.INTER.VDW>
-19.6291

>  <SCORE.INTER.norm>
-0.138041

>  <SCORE.INTRA>
-7.61513

>  <SCORE.INTRA.DIHEDRAL>
-16.9726

>  <SCORE.INTRA.DIHEDRAL.0>
36.0842

>  <SCORE.INTRA.POLAR>
0

>  <SCORE.INTRA.POLAR.0>
0

>  <SCORE.INTRA.REPUL>
0

>  <SCORE.INTRA.REPUL.0>
0

>  <SCORE.INTRA.SOLV>
0.711507

>  <SCORE.INTRA.SOLV.lig_0>
-126.444

>  <SCORE.INTRA.VDW>
0.515408

>  <SCORE.INTRA.VDW.0>
-7.40469

>  <SCORE.INTRA.norm>
-0.155411

>  <SCORE.RESTR>
0

>  <SCORE.RESTR.CAVITY>
0

>  <SCORE.RESTR.norm>
0

>  <SCORE.SYSTEM>
0

>  <SCORE.SYSTEM.CONST>
0

>  <SCORE.SYSTEM.DIHEDRAL>
0

>  <SCORE.SYSTEM.SOLV>
0

>  <SCORE.SYSTEM.norm>
0

>  <SCORE.heavy>
49

>  <SCORE.norm>
-0.293451

>  <RMSD>
9.370

$$$$
2bee_lig
 OpenBabel11021811423D
libRbt.so/2013.1/901 2013/11/27
 49 52  0  0  0  0  0  0  0  0999 V2000
   38.6751    4.3953   -0.5285 C   0  0  2  0  0  0  0  0  0  0  0  0
   39.5266    3.4072   -1.0947 O   0  0  0  0  0  0  0  0  0  0  0  0
   39.3609    0.2940    2.0126 C   0  0  2  0  0  0  0  0  0  0  0  0
   39.5207   -1.0332    2.6666 N   0  0  0  0  0  0  0  0  0  0  0  0
   42.6433    2.5077   -0.4681 C   0  0  1  0  0  0  0  0  0  0  0  0
   42.7487    2.8867   -5.0961 C   0  0  1  0  0  0  0  0  0  0  0  0
   48.3131   -0.4690   -4.2899 C   0  0  0  0  0  0  0  0  0  0  0  0
   38.6793    5.6977   -1.4189 C   0  0  2  0  0  0  0  0  0  0  0  0
   38.3272    5.3638   -2.7948 N   0  0  0  0  0  0  0  0  0  0  0  0
   38.4968    0.1265    0.6810 C   0  0  0  0  0  0  0  0  0  0  0  0
   43.0205    1.8184   -1.7390 C   0  0  2  0  0  0  0  0  0  0  0  0
   44.1087    0.8415   -1.5614 O   0  0  0  0  0  0  0  0  0  0  0  0
   43.9531    1.8349   -5.3683 C   0  0  2  0  0  0  0  0  0  0  0  0
   45.2412    2.6038   -5.4193 N   0  0  0  0  0  0  0  0  0  0  0  0
   49.5638   -0.7741   -4.8760 C   0  0  0  0  0  0  0  0  0  0  0  0
   49.6137   -1.3963   -6.1214 N   0  0  0  0  0  0  0  0  0  0  0  0
   40.1096    6.3895   -1.3315 C   0  0  1  0  0  0  0  0  0  0  0  0
   40.1024    7.5627   -2.1319 O   0  0  0  0  0  0  0  0  0  0  0  0
   38.3096    1.5633   -0.0754 C   0  0  2  0  0  0  0  0  0  0  0  0
   37.5322    1.4258   -1.2599 N   0  0  0  0  0  0  0  0  0  0  0  0
   43.2007    3.0679   -2.5666 C   0  0  2  0  0  0  0  0  0  0  0  0
   43.0958    3.5443   -3.8539 O   0  0  0  0  0  0  0  0  0  0  0  0
   43.6817    1.1123   -6.7360 C   0  0  1  0  0  0  0  0  0  0  0  0
   42.4177    0.3741   -6.5991 O   0  0  0  0  0  0  0  0  0  0  0  0
   40.4207    6.7218    0.1464 C   0  0  2  0  0  0  0  0  0  0  0  0
   41.7572    7.3566    0.2753 O   0  0  0  0  0  0  0  0  0  0  0  0
   39.7229    2.1665   -0.4357 C   0  0  2  0  0  0  0  0  0  0  0  0
   43.8301    4.1064   -1.5117 C   0  0  2  0  0  0  0  0  0  0  0  0
   43.1392    3.8133   -0.3843 O   0  0  0  0  0  0  0  0  0  0  0  0
   43.6001    2.2283   -7.9241 C   0  0  2  0  0  0  0  0  0  0  0  0
   44.8769    2.9665   -8.0507 O   0  0  0  0  0  0  0  0  0  0  0  0
   40.4078    5.4232    1.0201 C   0  0  2  0  0  0  0  0  0  0  0  0
   39.0851    4.8560    0.8383 O   0  0  0  0  0  0  0  0  0  0  0  0
   40.5285    2.3067    0.8999 C   0  0  2  0  0  0  0  0  0  0  0  0
   41.7451    2.8676    0.4695 O   0  0  0  0  0  0  0  0  0  0  0  0
   43.6168    5.6434   -1.7725 C   0  0  0  0  0  0  0  0  0  0  0  0
   44.8846    6.3485   -1.5860 O   0  0  0  0  0  0  0  0  0  0  0  0
   42.4404    3.2757   -7.6123 C   0  0  1  0  0  0  0  0  0  0  0  0
   42.7486    3.8864   -6.2611 O   0  0  0  0  0  0  0  0  0  0  0  0
   40.6885    5.8364    2.4079 C   0  0  0  0  0  0  0  0  0  0  0  0
   40.6210    4.7829    3.2331 O   0  0  0  0  0  0  0  0  0  0  0  0
   40.7229    0.8927    1.5963 C   0  0  1  0  0  0  0  0  0  0  0  0
   41.4338    1.0317    2.7886 O   0  0  0  0  0  0  0  0  0  0  0  0
   44.5566   -0.1232   -2.5792 C   0  0  0  0  0  0  0  0  0  0  0  0
   42.4706    4.2993   -8.7974 C   0  0  0  0  0  0  0  0  0  0  0  0
   41.4418    5.2949   -8.7029 N   0  0  0  0  0  0  0  0  0  0  0  0
   46.0014   -0.5306   -2.2869 C   0  0  0  0  0  0  0  0  0  0  0  0
   46.8387    0.6570   -2.5449 N   0  0  0  0  0  0  0  0  0  0  0  0
   48.2911    0.4373   -2.9735 C   0  0  0  0  0  0  0  0  0  0  0  0
  1  2  1  6  0  0  0
  1  8  1  0  0  0  0
  1 33  1  0  0  0  0
  3  4  1  6  0  0  0
  3 10  1  0  0  0  0
  3 42  1  0  0  0  0
  5 11  1  0  0  0  0
  5 29  1  0  0  0  0
  5 35  1  6  0  0  0
  6 13  1  0  0  0  0
  6 39  1  0  0  0  0
  6 22  1  1  0  0  0
  7 15  1  0  0  0  0
  8  9  1  6  0  0  0
  8 17  1  0  0  0  0
 10 19  1  0  0  0  0
 11 12  1  1  0  0  0
 11 21  1  0  0  0  0
 12 44  1  0  0  0  0
 13 14  1  6  0  0  0
 13 23  1  0  0  0  0
 15 16  1  0  0  0  0
 17 18  1  6  0  0  0
 17 25  1  0  0  0  0
 19 20  1  6  0  0  0
 19 27  1  0  0  0  0
 21 22  1  6  0  0  0
 21 28  1  0  0  0  0
 23 24  1  1  0  0  0
 23 30  1  0  0  0  0
 25 26  1  6  0  0  0
 25 32  1  0  0  0  0
 27  2  1  1  0  0  0
 27 34  1  0  0  0  0
 28 29  1  0  0  0  0
 28 36  1  6  0  0  0
 30 31  1  1  0  0  0
 30 38  1  0  0  0  0
 32 33  1  0  0  0  0
 32 40  1  1  0  0  0
 34 35  1  6  0  0  0
 34 42  1  0  0  0  0
 36 37  1  0  0  0  0
 38 39  1  0  0  0  0
 38 45  1  6  0  0  0
 40 41  1  0  0  0  0
 42 43  1  1  0  0  0
 44 47  1  0  0  0  0
 45 46  1  0  0  0  0
 47 48  1  0  0  0  0
 48 49  1  0  0  0  0
 49  7  1  0  0  0  0
M  END
>  <CHROM.1>
177.47904008,25.66149518,-65.73236446,-170.88943281,170.57701176,156.47719110
-2.40087441,50.40901750,-133.94736113,176.58818999,-53.45570020,177.63164816
-68.66410403,-152.00113451,56.68606438,178.72475764,42.38676647,2.88339550
-2.22566468,2.59739408,-0.72053554,2.04384008

>  <Name>
2bee_lig

>  <RI>
0

>  <Rbt.Current_Directory>
/home/itssahil/PROJECTS/Mol_Feturizer/New_Systems/rnas/2bee

>  <Rbt.Executable>
rbdock ($Id: //depot/dev/client3/rdock/2013.1/src/exe/rbdock.cxx#4 $)

>  <Rbt.Library>
libRbt.so (2013.1, Build901 2013/11/27)

>  <Rbt.Parameter_File>
/export/apps/rDock/src/rDock_2013.1_src/data/scripts/dock_solv.prm

>  <Rbt.Receptor>
prm/pocket_docking_8.prm

>  <SCORE>
-17.534

>  <SCORE.INTER>
-6.71348

>  <SCORE.INTER.CONST>
1

>  <SCORE.INTER.POLAR>
-0.959166

>  <SCORE.INTER.ROT>
16

>  <SCORE.INTER.SOLV>
15.4227

>  <SCORE.INTER.VDW>
-20.686

>  <SCORE.INTER.norm>
-0.13701

>  <SCORE.INTRA>
-10.8206

>  <SCORE.INTRA.DIHEDRAL>
-19.7096

>  <SCORE.INTRA.DIHEDRAL.0>
36.0842

>  <SCORE.INTRA.POLAR>
0

>  <SCORE.INTRA.POLAR.0>
0

>  <SCORE.INTRA.REPUL>
0

>  <SCORE.INTRA.REPUL.0>
0

>  <SCORE.INTRA.SOLV>
-1.85249

>  <SCORE.INTRA.SOLV.lig_0>
-126.444

>  <SCORE.INTRA.VDW>
-0.0395056

>  <SCORE.INTRA.VDW.0>
-7.40469

>  <SCORE.INTRA.norm>
-0.220828

>  <SCORE.RESTR>
0

>  <SCORE.RESTR.CAVITY>
0

>  <SCORE.RESTR.norm>
0

>  <SCORE.SYSTEM>
0

>  <SCORE.SYSTEM.CONST>
0

>  <SCORE.SYSTEM.DIHEDRAL>
0

>  <SCORE.SYSTEM.SOLV>
0

>  <SCORE.SYSTEM.norm>
0

>  <SCORE.heavy>
49

>  <SCORE.norm>
-0.357838

>  <RMSD>
9.400

$$$$
2bee_lig
 OpenBabel11021811423D
libRbt.so/2013.1/901 2013/11/27
 49 52  0  0  0  0  0  0  0  0999 V2000
   41.6945    4.8551   -0.3525 C   0  0  2  0  0  0  0  0  0  0  0  0
   43.0364    5.2797   -0.5554 O   0  0  0  0  0  0  0  0  0  0  0  0
   42.5533    9.6390   -0.9260 C   0  0  2  0  0  0  0  0  0  0  0  0
   42.8908   11.0879   -0.8843 N   0  0  0  0  0  0  0  0  0  0  0  0
   44.1847    6.7329   -4.1453 C   0  0  1  0  0  0  0  0  0  0  0  0
   47.2907    4.9316   -7.1815 C   0  0  1  0  0  0  0  0  0  0  0  0
   43.4524    9.3853  -11.1285 C   0  0  0  0  0  0  0  0  0  0  0  0
   41.5311    3.3405   -0.7626 C   0  0  2  0  0  0  0  0  0  0  0  0
   42.5018    2.5208   -0.0454 N   0  0  0  0  0  0  0  0  0  0  0  0
   42.8160    8.9936    0.5101 C   0  0  0  0  0  0  0  0  0  0  0  0
   45.1495    7.0100   -5.2522 C   0  0  2  0  0  0  0  0  0  0  0  0
   44.7175    8.1131   -6.1279 O   0  0  0  0  0  0  0  0  0  0  0  0
   47.7659    3.4522   -7.6467 C   0  0  2  0  0  0  0  0  0  0  0  0
   48.0203    2.6348   -6.4137 N   0  0  0  0  0  0  0  0  0  0  0  0
   44.2845   10.1198  -12.0054 C   0  0  0  0  0  0  0  0  0  0  0  0
   45.5204   10.5856  -11.5625 N   0  0  0  0  0  0  0  0  0  0  0  0
   41.6980    3.2018   -2.3390 C   0  0  1  0  0  0  0  0  0  0  0  0
   41.5448    1.8366   -2.6990 O   0  0  0  0  0  0  0  0  0  0  0  0
   42.4690    7.3963    0.5020 C   0  0  2  0  0  0  0  0  0  0  0  0
   42.6916    6.8132    1.7814 N   0  0  0  0  0  0  0  0  0  0  0  0
   45.2505    5.5896   -5.7532 C   0  0  2  0  0  0  0  0  0  0  0  0
   46.1163    4.7109   -6.3642 O   0  0  0  0  0  0  0  0  0  0  0  0
   49.0771    3.5969   -8.4989 C   0  0  1  0  0  0  0  0  0  0  0  0
   48.7416    4.3926   -9.6888 O   0  0  0  0  0  0  0  0  0  0  0  0
   40.6411    4.0875   -3.0388 C   0  0  2  0  0  0  0  0  0  0  0  0
   40.7720    3.9995   -4.5157 O   0  0  0  0  0  0  0  0  0  0  0  0
   43.3559    6.6615   -0.5772 C   0  0  2  0  0  0  0  0  0  0  0  0
   43.7544    5.0338   -5.5528 C   0  0  2  0  0  0  0  0  0  0  0  0
   43.4036    5.5943   -4.3709 O   0  0  0  0  0  0  0  0  0  0  0  0
   50.2257    4.3228   -7.5949 C   0  0  2  0  0  0  0  0  0  0  0  0
   50.5531    3.5140   -6.3991 O   0  0  0  0  0  0  0  0  0  0  0  0
   40.8097    5.5861   -2.6196 C   0  0  2  0  0  0  0  0  0  0  0  0
   40.6809    5.5933   -1.1747 O   0  0  0  0  0  0  0  0  0  0  0  0
   43.0639    7.3327   -1.9616 C   0  0  2  0  0  0  0  0  0  0  0  0
   43.8778    6.5946   -2.8407 O   0  0  0  0  0  0  0  0  0  0  0  0
   43.5609    3.4819   -5.3795 C   0  0  0  0  0  0  0  0  0  0  0  0
   44.0304    2.7962   -6.5832 O   0  0  0  0  0  0  0  0  0  0  0  0
   49.7188    5.7544   -7.1125 C   0  0  1  0  0  0  0  0  0  0  0  0
   48.4310    5.5320   -6.3473 O   0  0  0  0  0  0  0  0  0  0  0  0
   39.7525    6.3472   -3.3115 C   0  0  0  0  0  0  0  0  0  0  0  0
   39.9203    7.6626   -3.1193 O   0  0  0  0  0  0  0  0  0  0  0  0
   43.4400    8.8755   -1.9348 C   0  0  1  0  0  0  0  0  0  0  0  0
   43.1673    9.4639   -3.1700 O   0  0  0  0  0  0  0  0  0  0  0  0
   44.2696    7.9631   -7.5221 C   0  0  0  0  0  0  0  0  0  0  0  0
   50.8837    6.3409   -6.2451 C   0  0  0  0  0  0  0  0  0  0  0  0
   52.0762    6.5879   -7.0037 N   0  0  0  0  0  0  0  0  0  0  0  0
   45.4733    7.6328   -8.4059 C   0  0  0  0  0  0  0  0  0  0  0  0
   45.2736    8.3480   -9.6813 N   0  0  0  0  0  0  0  0  0  0  0  0
   44.0198    8.0301  -10.4987 C   0  0  0  0  0  0  0  0  0  0  0  0
  1  2  1  6  0  0  0
  1  8  1  0  0  0  0
  1 33  1  0  0  0  0
  3  4  1  1  0  0  0
  3 10  1  0  0  0  0
  3 42  1  0  0  0  0
  5 11  1  0  0  0  0
  5 29  1  0  0  0  0
  5 35  1  1  0  0  0
  6 13  1  0  0  0  0
  6 39  1  0  0  0  0
  6 22  1  1  0  0  0
  7 15  1  0  0  0  0
  8  9  1  1  0  0  0
  8 17  1  0  0  0  0
 10 19  1  0  0  0  0
 11 12  1  6  0  0  0
 11 21  1  0  0  0  0
 12 44  1  0  0  0  0
 13 14  1  1  0  0  0
 13 23  1  0  0  0  0
 15 16  1  0  0  0  0
 17 18  1  6  0  0  0
 17 25  1  0  0  0  0
 19 20  1  1  0  0  0
 19 27  1  0  0  0  0
 21 22  1  6  0  0  0
 21 28  1  0  0  0  0
 23 24  1  6  0  0  0
 23 30  1  0  0  0  0
 25 26  1  6  0  0  0
 25 32  1  0  0  0  0
 27  2  1  6  0  0  0
 27 34  1  0  0  0  0
 28 29  1  0  0  0  0
 28 36  1  1  0  0  0
 30 31  1  1  0  0  0
 30 38  1  0  0  0  0
 32 33  1  0  0  0  0
 32 40  1  6  0  0  0
 34 35  1  6  0  0  0
 34 42  1  0  0  0  0
 36 37  1  0  0  0  0
 38 39  1  0  0  0  0
 38 45  1  1  0  0  0
 40 41  1  0  0  0  0
 42 43  1  6  0  0  0
 44 47  1  0  0  0  0
 45 46  1  0  0  0  0
 47 48  1  0  0  0  0
 48 49  1  0  0  0  0
 49  7  1  0  0  0  0
M  END
>  <CHROM.1>
164.33485729,113.36692114,-176.34153253,-58.90506942,-110.34352483,-71.96407988
-21.80665144,37.55524694,-61.70601981,-173.20829365,-173.09207653,65.06535302
-142.29787249,-59.59114063,140.78371534,60.19930754,44.48409266,6.09209724
-4.80342658,-2.51218944,0.67987399,-0.85229896

>  <Name>
2bee_lig

>  <RI>
2.18182e+07

>  <Rbt.Current_Directory>
/home/itssahil/PROJECTS/Mol_Feturizer/New_Systems/rnas/2bee

>  <Rbt.Executable>
rbdock ($Id: //depot/dev/client3/rdock/2013.1/src/exe/rbdock.cxx#4 $)

>  <Rbt.Library>
libRbt.so (2013.1, Build901 2013/11/27)

>  <Rbt.Parameter_File>
/export/apps/rDock/src/rDock_2013.1_src/data/scripts/dock_solv.prm

>  <Rbt.Receptor>
prm/pocket_docking_3.prm

>  <SCORE>
-17.6512

>  <SCORE.INTER>
-14.664

>  <SCORE.INTER.CONST>
1

>  <SCORE.INTER.POLAR>
-1.64064

>  <SCORE.INTER.ROT>
16

>  <SCORE.INTER.SOLV>
23.5429

>  <SCORE.INTER.VDW>
-26.4215

>  <SCORE.INTER.norm>
-0.299266

>  <SCORE.INTRA>
-3.69937

>  <SCORE.INTRA.DIHEDRAL>
-10.5762

>  <SCORE.INTRA.DIHEDRAL.0>
36.0842

>  <SCORE.INTRA.POLAR>
0

>  <SCORE.INTRA.POLAR.0>
0

>  <SCORE.INTRA.REPUL>
0

>  <SCORE.INTRA.REPUL.0>
0

>  <SCORE.INTRA.SOLV>
1.01074

>  <SCORE.INTRA.SOLV.lig_0>
-126.444

>  <SCORE.INTRA.VDW>
1.08337

>  <SCORE.INTRA.VDW.0>
-7.40469

>  <SCORE.INTRA.norm>
-0.0754974

>  <SCORE.RESTR>
0.712169

>  <SCORE.RESTR.CAVITY>
0.712169

>  <SCORE.RESTR.norm>
0.0145341

>  <SCORE.SYSTEM>
0

>  <SCORE.SYSTEM.CONST>
0

>  <SCORE.SYSTEM.DIHEDRAL>
0

>  <SCORE.SYSTEM.SOLV>
0

>  <SCORE.SYSTEM.norm>
0

>  <SCORE.heavy>
49

>  <SCORE.norm>
-0.360229

>  <RMSD>
9.418

$$$$
2bee_lig
 OpenBabel11021811423D
libRbt.so/2013.1/901 2013/11/27
 49 52  0  0  0  0  0  0  0  0999 V2000
   39.0591   10.1994   -0.3145 C   0  0  2  0  0  0  0  0  0  0  0  0
   40.0266    9.6583    0.5762 O   0  0  0  0  0  0  0  0  0  0  0  0
   40.5362    6.0208    3.0016 C   0  0  2  0  0  0  0  0  0  0  0  0
   40.1947    4.8854    3.9012 N   0  0  0  0  0  0  0  0  0  0  0  0
   39.5731    6.5581   -1.6541 C   0  0  1  0  0  0  0  0  0  0  0  0
   41.6000    2.5594   -2.8196 C   0  0  1  0  0  0  0  0  0  0  0  0
   42.5032    6.7254   -8.9368 C   0  0  0  0  0  0  0  0  0  0  0  0
   39.7633   11.0730   -1.4235 C   0  0  2  0  0  0  0  0  0  0  0  0
   40.7866   10.2869   -2.1042 N   0  0  0  0  0  0  0  0  0  0  0  0
   40.1453    7.3951    3.7131 C   0  0  0  0  0  0  0  0  0  0  0  0
   40.4327    5.8914   -2.6784 C   0  0  2  0  0  0  0  0  0  0  0  0
   40.3434    6.5265   -4.0046 O   0  0  0  0  0  0  0  0  0  0  0  0
   42.5659    2.8649   -1.5528 C   0  0  2  0  0  0  0  0  0  0  0  0
   42.6305    4.3525   -1.3637 N   0  0  0  0  0  0  0  0  0  0  0  0
   43.3650    6.7340  -10.0584 C   0  0  0  0  0  0  0  0  0  0  0  0
   44.1661    5.6263  -10.3269 N   0  0  0  0  0  0  0  0  0  0  0  0
   40.3773   12.3788   -0.7527 C   0  0  1  0  0  0  0  0  0  0  0  0
   41.0046   13.1607   -1.7588 O   0  0  0  0  0  0  0  0  0  0  0  0
   40.4934    8.6685    2.7493 C   0  0  2  0  0  0  0  0  0  0  0  0
   40.1566    9.8999    3.3790 N   0  0  0  0  0  0  0  0  0  0  0  0
   39.9355    4.4871   -2.4340 C   0  0  2  0  0  0  0  0  0  0  0  0
   40.3312    3.1695   -2.4823 O   0  0  0  0  0  0  0  0  0  0  0  0
   43.9904    2.2808   -1.8622 C   0  0  1  0  0  0  0  0  0  0  0  0
   43.8439    0.8261   -2.0180 O   0  0  0  0  0  0  0  0  0  0  0  0
   39.2456   13.1681   -0.0545 C   0  0  2  0  0  0  0  0  0  0  0  0
   39.7792   14.3900    0.5997 O   0  0  0  0  0  0  0  0  0  0  0  0
   39.7087    8.5380    1.3861 C   0  0  2  0  0  0  0  0  0  0  0  0
   38.3753    4.7123   -2.1137 C   0  0  2  0  0  0  0  0  0  0  0  0
   38.4024    5.8455   -1.3728 O   0  0  0  0  0  0  0  0  0  0  0  0
   44.5702    2.9751   -3.2206 C   0  0  2  0  0  0  0  0  0  0  0  0
   44.7109    4.4391   -3.0527 O   0  0  0  0  0  0  0  0  0  0  0  0
   38.5511   12.2893    1.0388 C   0  0  2  0  0  0  0  0  0  0  0  0
   38.0667   11.1178    0.3336 O   0  0  0  0  0  0  0  0  0  0  0  0
   40.1242    7.1766    0.7330 C   0  0  2  0  0  0  0  0  0  0  0  0
   39.3941    7.1753   -0.4698 O   0  0  0  0  0  0  0  0  0  0  0  0
   37.6381    3.6314   -1.2395 C   0  0  0  0  0  0  0  0  0  0  0  0
   38.3873    3.4137   -0.0023 O   0  0  0  0  0  0  0  0  0  0  0  0
   43.5826    2.6997   -4.4405 C   0  0  1  0  0  0  0  0  0  0  0  0
   42.2267    3.2442   -4.0423 O   0  0  0  0  0  0  0  0  0  0  0  0
   37.4775   13.1093    1.6309 C   0  0  0  0  0  0  0  0  0  0  0  0
   37.9951   14.0557    2.4256 O   0  0  0  0  0  0  0  0  0  0  0  0
   39.7454    5.9560    1.6760 C   0  0  1  0  0  0  0  0  0  0  0  0
   40.1282    4.7503    1.0877 O   0  0  0  0  0  0  0  0  0  0  0  0
   41.0856    7.7276   -4.4211 C   0  0  0  0  0  0  0  0  0  0  0  0
   44.2251    3.4241   -5.6715 C   0  0  0  0  0  0  0  0  0  0  0  0
   45.3793    2.7418   -6.1823 N   0  0  0  0  0  0  0  0  0  0  0  0
   42.3940    7.3051   -5.0908 C   0  0  0  0  0  0  0  0  0  0  0  0
   42.0419    6.8029   -6.4332 N   0  0  0  0  0  0  0  0  0  0  0  0
   43.1547    6.6922   -7.4776 C   0  0  0  0  0  0  0  0  0  0  0  0
  1  2  1  1  0  0  0
  1  8  1  0  0  0  0
  1 33  1  0  0  0  0
  3  4  1  1  0  0  0
  3 10  1  0  0  0  0
  3 42  1  0  0  0  0
  5 11  1  0  0  0  0
  5 29  1  0  0  0  0
  5 35  1  1  0  0  0
  6 13  1  0  0  0  0
  6 39  1  0  0  0  0
  6 22  1  1  0  0  0
  7 15  1  0  0  0  0
  8  9  1  1  0  0  0
  8 17  1  0  0  0  0
 10 19  1  0  0  0  0
 11 12  1  6  0  0  0
 11 21  1  0  0  0  0
 12 44  1  0  0  0  0
 13 14  1  6  0  0  0
 13 23  1  0  0  0  0
 15 16  1  0  0  0  0
 17 18  1  6  0  0  0
 17 25  1  0  0  0  0
 19 20  1  1  0  0  0
 19 27  1  0  0  0  0
 21 22  1  6  0  0  0
 21 28  1  0  0  0  0
 23 24  1  6  0  0  0
 23 30  1  0  0  0  0
 25 26  1  1  0  0  0
 25 32  1  0  0  0  0
 27  2  1  6  0  0  0
 27 34  1  0  0  0  0
 28 29  1  0  0  0  0
 28 36  1  1  0  0  0
 30 31  1  1  0  0  0
 30 38  1  0  0  0  0
 32 33  1  0  0  0  0
 32 40  1  6  0  0  0
 34 35  1  6  0  0  0
 34 42  1  0  0  0  0
 36 37  1  0  0  0  0
 38 39  1  0  0  0  0
 38 45  1  6  0  0  0
 40 41  1  0  0  0  0
 42 43  1  6  0  0  0
 44 47  1  0  0  0  0
 45 46  1  0  0  0  0
 47 48  1  0  0  0  0
 48 49  1  0  0  0  0
 49  7  1  0  0  0  0
M  END
>  <CHROM.1>
-160.59966633,-22.97595954,73.15355974,65.84091976,82.01559481,92.46924719
1.73551319,-147.18147469,52.68932739,-73.43623348,155.78484756,73.75750533
74.89279016,162.47697838,-156.93298209,175.45085233,40.88652698,6.94610131
-1.74431542,-2.85012439,-1.16467768,2.62184902

>  <Name>
2bee_lig

>  <RI>
0

>  <Rbt.Current_Directory>
/home/itssahil/PROJECTS/Mol_Feturizer/New_Systems/rnas/2bee

>  <Rbt.Executable>
rbdock ($Id: //depot/dev/client3/rdock/2013.1/src/exe/rbdock.cxx#4 $)

>  <Rbt.Library>
libRbt.so (2013.1, Build901 2013/11/27)

>  <Rbt.Parameter_File>
/export/apps/rDock/src/rDock_2013.1_src/data/scripts/dock_solv.prm

>  <Rbt.Receptor>
prm/pocket_docking_8.prm

>  <SCORE>
-13.3305

>  <SCORE.INTER>
-9.74921

>  <SCORE.INTER.CONST>
1

>  <SCORE.INTER.POLAR>
-0.962851

>  <SCORE.INTER.ROT>
16

>  <SCORE.INTER.SOLV>
19.2519

>  <SCORE.INTER.VDW>
-23.9739

>  <SCORE.INTER.norm>
-0.198964

>  <SCORE.INTRA>
-3.58133

>  <SCORE.INTRA.DIHEDRAL>
-10.2075

>  <SCORE.INTRA.DIHEDRAL.0>
36.0842

>  <SCORE.INTRA.POLAR>
0

>  <SCORE.INTRA.POLAR.0>
0

>  <SCORE.INTRA.REPUL>
0

>  <SCORE.INTRA.REPUL.0>
0

>  <SCORE.INTRA.SOLV>
3.14064

>  <SCORE.INTRA.SOLV.lig_0>
-126.444

>  <SCORE.INTRA.VDW>
-0.0478715

>  <SCORE.INTRA.VDW.0>
-7.40469

>  <SCORE.INTRA.norm>
-0.0730883

>  <SCORE.RESTR>
0

>  <SCORE.RESTR.CAVITY>
0

>  <SCORE.RESTR.norm>
0

>  <SCORE.SYSTEM>
0

>  <SCORE.SYSTEM.CONST>
0

>  <SCORE.SYSTEM.DIHEDRAL>
0

>  <SCORE.SYSTEM.SOLV>
0

>  <SCORE.SYSTEM.norm>
0

>  <SCORE.heavy>
49

>  <SCORE.norm>
-0.272052

>  <RMSD>
9.430

$$$$
2bee_lig
 OpenBabel11021811423D
libRbt.so/2013.1/901 2013/11/27
 49 52  0  0  0  0  0  0  0  0999 V2000
   42.0607   -1.8901   -6.2534 C   0  0  2  0  0  0  0  0  0  0  0  0
   41.9084   -0.9614   -5.1874 O   0  0  0  0  0  0  0  0  0  0  0  0
   40.0239   -3.5183   -2.1402 C   0  0  2  0  0  0  0  0  0  0  0  0
   39.4451   -3.9357   -0.8342 N   0  0  0  0  0  0  0  0  0  0  0  0
   39.0033    0.4345   -4.4021 C   0  0  1  0  0  0  0  0  0  0  0  0
   40.9128    4.4292   -5.8105 C   0  0  1  0  0  0  0  0  0  0  0  0
   39.7851    4.8105    2.5664 C   0  0  0  0  0  0  0  0  0  0  0  0
   42.8997   -1.2471   -7.4246 C   0  0  2  0  0  0  0  0  0  0  0  0
   44.1740   -0.7530   -6.9141 N   0  0  0  0  0  0  0  0  0  0  0  0
   41.5114   -2.9857   -1.9131 C   0  0  0  0  0  0  0  0  0  0  0  0
   39.5246    1.7616   -3.9552 C   0  0  2  0  0  0  0  0  0  0  0  0
   38.8995    2.2335   -2.7074 O   0  0  0  0  0  0  0  0  0  0  0  0
   41.0035    5.3161   -7.1656 C   0  0  2  0  0  0  0  0  0  0  0  0
   41.2354    4.3835   -8.3187 N   0  0  0  0  0  0  0  0  0  0  0  0
   39.8095    6.2146    2.7361 C   0  0  0  0  0  0  0  0  0  0  0  0
   38.9456    7.0184    1.9957 N   0  0  0  0  0  0  0  0  0  0  0  0
   42.0502   -0.0853   -8.1033 C   0  0  1  0  0  0  0  0  0  0  0  0
   42.8111    0.4840   -9.1587 O   0  0  0  0  0  0  0  0  0  0  0  0
   42.1786   -2.5040   -3.3253 C   0  0  2  0  0  0  0  0  0  0  0  0
   43.5092   -2.0356   -3.1345 N   0  0  0  0  0  0  0  0  0  0  0  0
   39.3203    2.4787   -5.2677 C   0  0  2  0  0  0  0  0  0  0  0  0
   39.8321    3.4944   -6.0432 O   0  0  0  0  0  0  0  0  0  0  0  0
   42.1964    6.3268   -7.0187 C   0  0  1  0  0  0  0  0  0  0  0  0
   41.8868    7.2091   -5.8840 O   0  0  0  0  0  0  0  0  0  0  0  0
   40.7187   -0.6724   -8.6264 C   0  0  2  0  0  0  0  0  0  0  0  0
   39.8860    0.3845   -9.2554 O   0  0  0  0  0  0  0  0  0  0  0  0
   41.3013   -1.3609   -3.9693 C   0  0  2  0  0  0  0  0  0  0  0  0
   37.9559    1.8297   -5.8198 C   0  0  2  0  0  0  0  0  0  0  0  0
   38.1018    0.5301   -5.4678 O   0  0  0  0  0  0  0  0  0  0  0  0
   43.5774    5.4929   -6.7720 C   0  0  2  0  0  0  0  0  0  0  0  0
   43.8772    4.6067   -7.9193 O   0  0  0  0  0  0  0  0  0  0  0  0
   39.8986   -1.3123   -7.4569 C   0  0  2  0  0  0  0  0  0  0  0  0
   40.7721   -2.3209   -6.8876 O   0  0  0  0  0  0  0  0  0  0  0  0
   39.8566   -1.9322   -4.1672 C   0  0  2  0  0  0  0  0  0  0  0  0
   39.1761   -0.8528   -4.7604 O   0  0  0  0  0  0  0  0  0  0  0  0
   37.7097    1.8406   -7.3738 C   0  0  0  0  0  0  0  0  0  0  0  0
   36.3943    1.2694   -7.6615 O   0  0  0  0  0  0  0  0  0  0  0  0
   43.4482    4.5956   -5.4615 C   0  0  1  0  0  0  0  0  0  0  0  0
   42.2505    3.6907   -5.6624 O   0  0  0  0  0  0  0  0  0  0  0  0
   38.6651   -1.8637   -8.0486 C   0  0  0  0  0  0  0  0  0  0  0  0
   38.9440   -2.9434   -8.7913 O   0  0  0  0  0  0  0  0  0  0  0  0
   39.2210   -2.3619   -2.7766 C   0  0  1  0  0  0  0  0  0  0  0  0
   37.9385   -2.8769   -2.9668 O   0  0  0  0  0  0  0  0  0  0  0  0
   39.3063    3.4322   -1.9560 C   0  0  0  0  0  0  0  0  0  0  0  0
   44.8110    3.8333   -5.3397 C   0  0  0  0  0  0  0  0  0  0  0  0
   44.9201    3.0729   -4.1279 N   0  0  0  0  0  0  0  0  0  0  0  0
   38.4497    3.5517   -0.6947 C   0  0  0  0  0  0  0  0  0  0  0  0
   39.0578    4.6109    0.1337 N   0  0  0  0  0  0  0  0  0  0  0  0
   40.1487    4.2117    1.1297 C   0  0  0  0  0  0  0  0  0  0  0  0
  1  2  1  1  0  0  0
  1  8  1  0  0  0  0
  1 33  1  0  0  0  0
  3  4  1  1  0  0  0
  3 10  1  0  0  0  0
  3 42  1  0  0  0  0
  5 11  1  0  0  0  0
  5 29  1  0  0  0  0
  5 35  1  6  0  0  0
  6 13  1  0  0  0  0
  6 39  1  0  0  0  0
  6 22  1  6  0  0  0
  7 15  1  0  0  0  0
  8  9  1  1  0  0  0
  8 17  1  0  0  0  0
 10 19  1  0  0  0  0
 11 12  1  1  0  0  0
 11 21  1  0  0  0  0
 12 44  1  0  0  0  0
 13 14  1  6  0  0  0
 13 23  1  0  0  0  0
 15 16  1  0  0  0  0
 17 18  1  6  0  0  0
 17 25  1  0  0  0  0
 19 20  1  1  0  0  0
 19 27  1  0  0  0  0
 21 22  1  1  0  0  0
 21 28  1  0  0  0  0
 23 24  1  1  0  0  0
 23 30  1  0  0  0  0
 25 26  1  1  0  0  0
 25 32  1  0  0  0  0
 27  2  1  6  0  0  0
 27 34  1  0  0  0  0
 28 29  1  0  0  0  0
 28 36  1  6  0  0  0
 30 31  1  6  0  0  0
 30 38  1  0  0  0  0
 32 33  1  0  0  0  0
 32 40  1  6  0  0  0
 34 35  1  1  0  0  0
 34 42  1  0  0  0  0
 36 37  1  0  0  0  0
 38 39  1  0  0  0  0
 38 45  1  6  0  0  0
 40 41  1  0  0  0  0
 42 43  1  6  0  0  0
 44 47  1  0  0  0  0
 45 46  1  0  0  0  0
 47 48  1  0  0  0  0
 48 49  1  0  0  0  0
 49  7  1  0  0  0  0
M  END
>  <CHROM.1>
-173.80424241,50.73382607,178.09990458,62.03468979,173.37790682,-177.92058303
-2.90868353,61.80287337,-177.19300604,70.73920335,-54.51635049,174.06973383
169.82541101,-88.71818103,-129.13303164,-67.12497724,40.61383180,1.32969411
-4.82215764,1.43922954,-1.22178156,-2.50686953

>  <Name>
2bee_lig

>  <RI>
0

>  <Rbt.Current_Directory>
/home/itssahil/PROJECTS/Mol_Feturizer/New_Systems/rnas/2bee

>  <Rbt.Executable>
rbdock ($Id: //depot/dev/client3/rdock/2013.1/src/exe/rbdock.cxx#4 $)

>  <Rbt.Library>
libRbt.so (2013.1, Build901 2013/11/27)

>  <Rbt.Parameter_File>
/export/apps/rDock/src/rDock_2013.1_src/data/scripts/dock_solv.prm

>  <Rbt.Receptor>
prm/pocket_docking_7.prm

>  <SCORE>
-10.9102

>  <SCORE.INTER>
3.73886

>  <SCORE.INTER.CONST>
1

>  <SCORE.INTER.POLAR>
0

>  <SCORE.INTER.ROT>
16

>  <SCORE.INTER.SOLV>
12.3068

>  <SCORE.INTER.VDW>
-15.8764

>  <SCORE.INTER.norm>
0.0763033

>  <SCORE.INTRA>
-14.6491

>  <SCORE.INTRA.DIHEDRAL>
-28.546

>  <SCORE.INTRA.DIHEDRAL.0>
36.0842

>  <SCORE.INTRA.POLAR>
0

>  <SCORE.INTRA.POLAR.0>
0

>  <SCORE.INTRA.REPUL>
0

>  <SCORE.INTRA.REPUL.0>
0

>  <SCORE.INTRA.SOLV>
-1.54998

>  <SCORE.INTRA.SOLV.lig_0>
-126.444

>  <SCORE.INTRA.VDW>
0.398895

>  <SCORE.INTRA.VDW.0>
-7.40469

>  <SCORE.INTRA.norm>
-0.298961

>  <SCORE.RESTR>
0

>  <SCORE.RESTR.CAVITY>
0

>  <SCORE.RESTR.norm>
0

>  <SCORE.SYSTEM>
0

>  <SCORE.SYSTEM.CONST>
0

>  <SCORE.SYSTEM.DIHEDRAL>
0

>  <SCORE.SYSTEM.SOLV>
0

>  <SCORE.SYSTEM.norm>
0

>  <SCORE.heavy>
49

>  <SCORE.norm>
-0.222658

>  <RMSD>
9.434

$$$$
2bee_lig
 OpenBabel11021811423D
libRbt.so/2013.1/901 2013/11/27
 49 52  0  0  0  0  0  0  0  0999 V2000
   41.4209    3.8317   -0.5214 C   0  0  2  0  0  0  0  0  0  0  0  0
   40.4462    4.5225   -1.2928 O   0  0  0  0  0  0  0  0  0  0  0  0
   39.6691    4.9974   -5.5991 C   0  0  2  0  0  0  0  0  0  0  0  0
   39.9059    5.3283   -7.0306 N   0  0  0  0  0  0  0  0  0  0  0  0
   41.3668    1.2443   -3.3456 C   0  0  1  0  0  0  0  0  0  0  0  0
   44.3451   -0.9369   -6.1016 C   0  0  1  0  0  0  0  0  0  0  0  0
   41.6513   -5.3518   -0.0806 C   0  0  0  0  0  0  0  0  0  0  0  0
   40.8830    3.5761    0.9395 C   0  0  2  0  0  0  0  0  0  0  0  0
   39.6019    2.8800    0.8860 N   0  0  0  0  0  0  0  0  0  0  0  0
   39.9611    6.2858   -4.7033 C   0  0  0  0  0  0  0  0  0  0  0  0
   41.4862    0.0930   -4.2905 C   0  0  2  0  0  0  0  0  0  0  0  0
   40.4794   -0.9550   -4.0489 O   0  0  0  0  0  0  0  0  0  0  0  0
   45.7670   -1.7173   -6.0999 C   0  0  2  0  0  0  0  0  0  0  0  0
   46.7934   -0.8153   -5.4786 N   0  0  0  0  0  0  0  0  0  0  0  0
   40.7341   -6.4042   -0.3086 C   0  0  0  0  0  0  0  0  0  0  0  0
   39.4252   -6.2974    0.1563 N   0  0  0  0  0  0  0  0  0  0  0  0
   40.7634    4.9653    1.7061 C   0  0  1  0  0  0  0  0  0  0  0  0
   40.2832    4.7249    3.0209 O   0  0  0  0  0  0  0  0  0  0  0  0
   39.7246    5.9586   -3.1195 C   0  0  2  0  0  0  0  0  0  0  0  0
   39.9739    7.1046   -2.3127 N   0  0  0  0  0  0  0  0  0  0  0  0
   42.9597   -0.1551   -4.0756 C   0  0  2  0  0  0  0  0  0  0  0  0
   44.0892   -0.6161   -4.7133 O   0  0  0  0  0  0  0  0  0  0  0  0
   46.1496   -2.0559   -7.5849 C   0  0  1  0  0  0  0  0  0  0  0  0
   45.1088   -2.9498   -8.1133 O   0  0  0  0  0  0  0  0  0  0  0  0
   42.1503    5.6488    1.7327 C   0  0  2  0  0  0  0  0  0  0  0  0
   42.0802    6.9596    2.4275 O   0  0  0  0  0  0  0  0  0  0  0  0
   40.6705    4.7778   -2.6699 C   0  0  2  0  0  0  0  0  0  0  0  0
   43.1493    0.1595   -2.5095 C   0  0  2  0  0  0  0  0  0  0  0  0
   42.3386    1.2308   -2.3392 O   0  0  0  0  0  0  0  0  0  0  0  0
   46.2437   -0.6705   -8.4425 C   0  0  2  0  0  0  0  0  0  0  0  0
   47.2927    0.2221   -7.8999 O   0  0  0  0  0  0  0  0  0  0  0  0
   42.6755    5.8915    0.2784 C   0  0  2  0  0  0  0  0  0  0  0  0
   42.7080    4.5788   -0.3380 O   0  0  0  0  0  0  0  0  0  0  0  0
   40.3468    3.5443   -3.5789 C   0  0  2  0  0  0  0  0  0  0  0  0
   41.2181    2.5573   -3.0821 O   0  0  0  0  0  0  0  0  0  0  0  0
   44.5753    0.6024   -2.0134 C   0  0  0  0  0  0  0  0  0  0  0  0
   45.5270   -0.4859   -2.2360 O   0  0  0  0  0  0  0  0  0  0  0  0
   44.8499    0.1001   -8.3923 C   0  0  1  0  0  0  0  0  0  0  0  0
   44.5310    0.3410   -6.9316 O   0  0  0  0  0  0  0  0  0  0  0  0
   44.0041    6.5204    0.4009 C   0  0  0  0  0  0  0  0  0  0  0  0
   43.8826    7.8067    0.7560 O   0  0  0  0  0  0  0  0  0  0  0  0
   40.6159    3.8799   -5.1077 C   0  0  1  0  0  0  0  0  0  0  0  0
   40.3158    2.7770   -5.9076 O   0  0  0  0  0  0  0  0  0  0  0  0
   40.4784   -1.8823   -2.9056 C   0  0  0  0  0  0  0  0  0  0  0  0
   45.0652    1.4101   -9.2234 C   0  0  0  0  0  0  0  0  0  0  0  0
   45.3240    1.1557  -10.6115 N   0  0  0  0  0  0  0  0  0  0  0  0
   41.6454   -2.8604   -3.0484 C   0  0  0  0  0  0  0  0  0  0  0  0
   41.3057   -4.0484   -2.2413 N   0  0  0  0  0  0  0  0  0  0  0  0
   41.3385   -3.9193   -0.7170 C   0  0  0  0  0  0  0  0  0  0  0  0
  1  2  1  6  0  0  0
  1  8  1  0  0  0  0
  1 33  1  0  0  0  0
  3  4  1  6  0  0  0
  3 10  1  0  0  0  0
  3 42  1  0  0  0  0
  5 11  1  0  0  0  0
  5 29  1  0  0  0  0
  5 35  1  6  0  0  0
  6 13  1  0  0  0  0
  6 39  1  0  0  0  0
  6 22  1  1  0  0  0
  7 15  1  0  0  0  0
  8  9  1  6  0  0  0
  8 17  1  0  0  0  0
 10 19  1  0  0  0  0
 11 12  1  1  0  0  0
 11 21  1  0  0  0  0
 12 44  1  0  0  0  0
 13 14  1  6  0  0  0
 13 23  1  0  0  0  0
 15 16  1  0  0  0  0
 17 18  1  1  0  0  0
 17 25  1  0  0  0  0
 19 20  1  1  0  0  0
 19 27  1  0  0  0  0
 21 22  1  1  0  0  0
 21 28  1  0  0  0  0
 23 24  1  6  0  0  0
 23 30  1  0  0  0  0
 25 26  1  6  0  0  0
 25 32  1  0  0  0  0
 27  2  1  1  0  0  0
 27 34  1  0  0  0  0
 28 29  1  0  0  0  0
 28 36  1  6  0  0  0
 30 31  1  1  0  0  0
 30 38  1  0  0  0  0
 32 33  1  0  0  0  0
 32 40  1  1  0  0  0
 34 35  1  1  0  0  0
 34 42  1  0  0  0  0
 36 37  1  0  0  0  0
 38 39  1  0  0  0  0
 38 45  1  6  0  0  0
 40 41  1  0  0  0  0
 42 43  1  6  0  0  0
 44 47  1  0  0  0  0
 45 46  1  0  0  0  0
 47 48  1  0  0  0  0
 48 49  1  0  0  0  0
 49  7  1  0  0  0  0
M  END
>  <CHROM.1>
-175.47135984,46.33012660,-168.19255809,-62.10413561,-72.18625772,-69.37774694
10.03192467,-159.92509748,-63.42226873,-75.15409756,173.57564814,64.76504370
-157.78774089,-71.59154682,-152.67040381,-61.88491090,42.41404226,1.50760145
-3.17781192,2.43322555,1.15216916,-0.12714257

>  <Name>
2bee_lig

>  <RI>
0

>  <Rbt.Current_Directory>
/home/itssahil/PROJECTS/Mol_Feturizer/New_Systems/rnas/2bee

>  <Rbt.Executable>
rbdock ($Id: //depot/dev/client3/rdock/2013.1/src/exe/rbdock.cxx#4 $)

>  <Rbt.Library>
libRbt.so (2013.1, Build901 2013/11/27)

>  <Rbt.Parameter_File>
/export/apps/rDock/src/rDock_2013.1_src/data/scripts/dock_solv.prm

>  <Rbt.Receptor>
prm/pocket_docking_8.prm

>  <SCORE>
-12.0026

>  <SCORE.INTER>
-0.743047

>  <SCORE.INTER.CONST>
1

>  <SCORE.INTER.POLAR>
0

>  <SCORE.INTER.ROT>
16

>  <SCORE.INTER.SOLV>
11.044

>  <SCORE.INTER.VDW>
-18.4434

>  <SCORE.INTER.norm>
-0.0151642

>  <SCORE.INTRA>
-11.2595

>  <SCORE.INTRA.DIHEDRAL>
-24.344

>  <SCORE.INTRA.DIHEDRAL.0>
36.0842

>  <SCORE.INTRA.POLAR>
0

>  <SCORE.INTRA.POLAR.0>
0

>  <SCORE.INTRA.REPUL>
0

>  <SCORE.INTRA.REPUL.0>
0

>  <SCORE.INTRA.SOLV>
-2.05273

>  <SCORE.INTRA.SOLV.lig_0>
-126.444

>  <SCORE.INTRA.VDW>
1.93888

>  <SCORE.INTRA.VDW.0>
-7.40469

>  <SCORE.INTRA.norm>
-0.229786

>  <SCORE.RESTR>
0

>  <SCORE.RESTR.CAVITY>
0

>  <SCORE.RESTR.norm>
0

>  <SCORE.SYSTEM>
0

>  <SCORE.SYSTEM.CONST>
0

>  <SCORE.SYSTEM.DIHEDRAL>
0

>  <SCORE.SYSTEM.SOLV>
0

>  <SCORE.SYSTEM.norm>
0

>  <SCORE.heavy>
49

>  <SCORE.norm>
-0.24495

>  <RMSD>
9.441

$$$$
2bee_lig
 OpenBabel11021811423D
libRbt.so/2013.1/901 2013/11/27
 49 52  0  0  0  0  0  0  0  0999 V2000
   41.7568    8.7188   -2.1041 C   0  0  2  0  0  0  0  0  0  0  0  0
   41.5214    7.6632   -1.1808 O   0  0  0  0  0  0  0  0  0  0  0  0
   39.3930    3.8434   -1.6843 C   0  0  2  0  0  0  0  0  0  0  0  0
   38.2650    2.8874   -1.8525 N   0  0  0  0  0  0  0  0  0  0  0  0
   41.0804    6.6986   -5.0104 C   0  0  1  0  0  0  0  0  0  0  0  0
   41.4308    3.3822   -8.3602 C   0  0  1  0  0  0  0  0  0  0  0  0
   48.1070    6.3485   -7.2111 C   0  0  0  0  0  0  0  0  0  0  0  0
   43.2233    9.2759   -1.9373 C   0  0  2  0  0  0  0  0  0  0  0  0
   44.1882    8.1883   -2.0586 N   0  0  0  0  0  0  0  0  0  0  0  0
   39.1608    4.7079   -0.3626 C   0  0  0  0  0  0  0  0  0  0  0  0
   41.8842    6.1471   -6.1428 C   0  0  2  0  0  0  0  0  0  0  0  0
   42.5199    7.1953   -6.9598 O   0  0  0  0  0  0  0  0  0  0  0  0
   40.5324    2.1237   -8.8500 C   0  0  2  0  0  0  0  0  0  0  0  0
   40.1984    1.2923   -7.6457 N   0  0  0  0  0  0  0  0  0  0  0  0
   49.3440    5.9091   -6.6843 C   0  0  0  0  0  0  0  0  0  0  0  0
   50.1766    5.0978   -7.4520 N   0  0  0  0  0  0  0  0  0  0  0  0
   43.3480   10.0160   -0.5342 C   0  0  1  0  0  0  0  0  0  0  0  0
   44.6693   10.5179   -0.3952 O   0  0  0  0  0  0  0  0  0  0  0  0
   40.3745    5.7816   -0.1493 C   0  0  2  0  0  0  0  0  0  0  0  0
   40.1809    6.5515    1.0323 N   0  0  0  0  0  0  0  0  0  0  0  0
   40.8058    5.2495   -6.6995 C   0  0  2  0  0  0  0  0  0  0  0  0
   40.6184    4.0651   -7.3756 O   0  0  0  0  0  0  0  0  0  0  0  0
   41.3676    1.2910   -9.8870 C   0  0  1  0  0  0  0  0  0  0  0  0
   41.6390    2.1668  -11.0363 O   0  0  0  0  0  0  0  0  0  0  0  0
   42.3061   11.1569   -0.4703 C   0  0  2  0  0  0  0  0  0  0  0  0
   42.3779   11.8659    0.8328 O   0  0  0  0  0  0  0  0  0  0  0  0
   40.4654    6.7417   -1.3987 C   0  0  2  0  0  0  0  0  0  0  0  0
   39.4678    6.1103   -6.4619 C   0  0  2  0  0  0  0  0  0  0  0  0
   39.7020    6.6619   -5.2474 O   0  0  0  0  0  0  0  0  0  0  0  0
   42.7478    0.7839   -9.1789 C   0  0  2  0  0  0  0  0  0  0  0  0
   42.4619   -0.0946   -8.0222 O   0  0  0  0  0  0  0  0  0  0  0  0
   40.8564   10.5926   -0.6429 C   0  0  2  0  0  0  0  0  0  0  0  0
   40.8641    9.9099   -1.9228 O   0  0  0  0  0  0  0  0  0  0  0  0
   40.6892    5.8465   -2.6641 C   0  0  2  0  0  0  0  0  0  0  0  0
   40.7780    6.7937   -3.7008 O   0  0  0  0  0  0  0  0  0  0  0  0
   38.1041    5.3353   -6.3387 C   0  0  0  0  0  0  0  0  0  0  0  0
   38.3709    3.9178   -6.0954 O   0  0  0  0  0  0  0  0  0  0  0  0
   43.5914    2.0347   -8.6662 C   0  0  1  0  0  0  0  0  0  0  0  0
   42.7009    2.8086   -7.7166 O   0  0  0  0  0  0  0  0  0  0  0  0
   39.9378   11.7456   -0.5931 C   0  0  0  0  0  0  0  0  0  0  0  0
   40.1777   12.5801   -1.6136 O   0  0  0  0  0  0  0  0  0  0  0  0
   39.4806    4.8359   -2.8650 C   0  0  1  0  0  0  0  0  0  0  0  0
   39.6956    4.0386   -3.9895 O   0  0  0  0  0  0  0  0  0  0  0  0
   43.6203    6.9766   -7.9129 C   0  0  0  0  0  0  0  0  0  0  0  0
   44.8699    1.4303   -7.9930 C   0  0  0  0  0  0  0  0  0  0  0  0
   45.7642    0.8224   -8.9360 N   0  0  0  0  0  0  0  0  0  0  0  0
   44.8354    6.4282   -7.1633 C   0  0  0  0  0  0  0  0  0  0  0  0
   45.7874    5.9535   -8.1862 N   0  0  0  0  0  0  0  0  0  0  0  0
   47.0617    5.2493   -7.7152 C   0  0  0  0  0  0  0  0  0  0  0  0
  1  2  1  1  0  0  0
  1  8  1  0  0  0  0
  1 33  1  0  0  0  0
  3  4  1  6  0  0  0
  3 10  1  0  0  0  0
  3 42  1  0  0  0  0
  5 11  1  0  0  0  0
  5 29  1  0  0  0  0
  5 35  1  1  0  0  0
  6 13  1  0  0  0  0
  6 39  1  0  0  0  0
  6 22  1  1  0  0  0
  7 15  1  0  0  0  0
  8  9  1  1  0  0  0
  8 17  1  0  0  0  0
 10 19  1  0  0  0  0
 11 12  1  6  0  0  0
 11 21  1  0  0  0  0
 12 44  1  0  0  0  0
 13 14  1  1  0  0  0
 13 23  1  0  0  0  0
 15 16  1  0  0  0  0
 17 18  1  6  0  0  0
 17 25  1  0  0  0  0
 19 20  1  1  0  0  0
 19 27  1  0  0  0  0
 21 22  1  6  0  0  0
 21 28  1  0  0  0  0
 23 24  1  6  0  0  0
 23 30  1  0  0  0  0
 25 26  1  1  0  0  0
 25 32  1  0  0  0  0
 27  2  1  1  0  0  0
 27 34  1  0  0  0  0
 28 29  1  0  0  0  0
 28 36  1  1  0  0  0
 30 31  1  1  0  0  0
 30 38  1  0  0  0  0
 32 33  1  0  0  0  0
 32 40  1  6  0  0  0
 34 35  1  6  0  0  0
 34 42  1  0  0  0  0
 36 37  1  0  0  0  0
 38 39  1  0  0  0  0
 38 45  1  1  0  0  0
 40 41  1  0  0  0  0
 42 43  1  6  0  0  0
 44 47  1  0  0  0  0
 45 46  1  0  0  0  0
 47 48  1  0  0  0  0
 48 49  1  0  0  0  0
 49  7  1  0  0  0  0
M  END
>  <CHROM.1>
-160.39917504,-40.78736511,-174.01447294,56.53388303,163.85085600,-61.00452445
-30.87256842,-174.82965690,15.82075223,62.90766195,173.21686081,68.97602753
167.83257055,-175.37232730,-78.13853296,177.77009874,42.08147869,5.85399685
-4.80300334,-1.77734850,-0.38387345,-2.37639364

>  <Name>
2bee_lig

>  <RI>
0

>  <Rbt.Current_Directory>
/home/itssahil/PROJECTS/Mol_Feturizer/New_Systems/rnas/2bee

>  <Rbt.Executable>
rbdock ($Id: //depot/dev/client3/rdock/2013.1/src/exe/rbdock.cxx#4 $)

>  <Rbt.Library>
libRbt.so (2013.1, Build901 2013/11/27)

>  <Rbt.Parameter_File>
/export/apps/rDock/src/rDock_2013.1_src/data/scripts/dock_solv.prm

>  <Rbt.Receptor>
prm/pocket_docking_6.prm

>  <SCORE>
-19.2967

>  <SCORE.INTER>
-10.3511

>  <SCORE.INTER.CONST>
1

>  <SCORE.INTER.POLAR>
-0.948151

>  <SCORE.INTER.ROT>
16

>  <SCORE.INTER.SOLV>
15.2676

>  <SCORE.INTER.VDW>
-23.0961

>  <SCORE.INTER.norm>
-0.211246

>  <SCORE.INTRA>
-8.94558

>  <SCORE.INTRA.DIHEDRAL>
-20.9941

>  <SCORE.INTRA.DIHEDRAL.0>
36.0842

>  <SCORE.INTRA.POLAR>
0

>  <SCORE.INTRA.POLAR.0>
0

>  <SCORE.INTRA.REPUL>
0

>  <SCORE.INTRA.REPUL.0>
0

>  <SCORE.INTRA.SOLV>
-1.63906

>  <SCORE.INTRA.SOLV.lig_0>
-126.444

>  <SCORE.INTRA.VDW>
2.37102

>  <SCORE.INTRA.VDW.0>
-7.40469

>  <SCORE.INTRA.norm>
-0.182563

>  <SCORE.RESTR>
0

>  <SCORE.RESTR.CAVITY>
0

>  <SCORE.RESTR.norm>
0

>  <SCORE.SYSTEM>
0

>  <SCORE.SYSTEM.CONST>
0

>  <SCORE.SYSTEM.DIHEDRAL>
0

>  <SCORE.SYSTEM.SOLV>
0

>  <SCORE.SYSTEM.norm>
0

>  <SCORE.heavy>
49

>  <SCORE.norm>
-0.393809

>  <RMSD>
9.451

$$$$
2bee_lig
 OpenBabel11021811423D
libRbt.so/2013.1/901 2013/11/27
 49 52  0  0  0  0  0  0  0  0999 V2000
   41.5350    4.7890   -0.1294 C   0  0  2  0  0  0  0  0  0  0  0  0
   42.0098    3.4501   -0.1926 O   0  0  0  0  0  0  0  0  0  0  0  0
   40.0513   -0.4871   -0.0005 C   0  0  2  0  0  0  0  0  0  0  0  0
   39.0702   -1.5715   -0.2770 N   0  0  0  0  0  0  0  0  0  0  0  0
   43.0771    0.8753   -3.1603 C   0  0  1  0  0  0  0  0  0  0  0  0
   47.3379    0.0272   -5.2298 C   0  0  1  0  0  0  0  0  0  0  0  0
   42.5349   -5.8582   -6.5847 C   0  0  0  0  0  0  0  0  0  0  0  0
   41.2759    5.3476   -1.5819 C   0  0  2  0  0  0  0  0  0  0  0  0
   40.3747    4.4580   -2.3065 N   0  0  0  0  0  0  0  0  0  0  0  0
   39.2762    0.8061    0.5237 C   0  0  0  0  0  0  0  0  0  0  0  0
   43.6488    0.8471   -4.5406 C   0  0  2  0  0  0  0  0  0  0  0  0
   42.9310   -0.0718   -5.4409 O   0  0  0  0  0  0  0  0  0  0  0  0
   47.9330   -0.9945   -4.1194 C   0  0  2  0  0  0  0  0  0  0  0  0
   48.5277   -0.1802   -3.0075 N   0  0  0  0  0  0  0  0  0  0  0  0
   43.1100   -6.8183   -7.4497 C   0  0  0  0  0  0  0  0  0  0  0  0
   44.4033   -6.6315   -7.9325 N   0  0  0  0  0  0  0  0  0  0  0  0
   42.6667    5.5144   -2.3368 C   0  0  1  0  0  0  0  0  0  0  0  0
   42.4239    6.0218   -3.6408 O   0  0  0  0  0  0  0  0  0  0  0  0
   40.3201    2.0267    0.8267 C   0  0  2  0  0  0  0  0  0  0  0  0
   39.6390    3.1822    1.3035 N   0  0  0  0  0  0  0  0  0  0  0  0
   45.0805    0.6013   -4.1298 C   0  0  2  0  0  0  0  0  0  0  0  0
   46.3795    0.8440   -4.5155 O   0  0  0  0  0  0  0  0  0  0  0  0
   49.0292   -1.8874   -4.8031 C   0  0  1  0  0  0  0  0  0  0  0  0
   48.3668   -2.6599   -5.8643 O   0  0  0  0  0  0  0  0  0  0  0  0
   43.5715    6.4692   -1.5238 C   0  0  2  0  0  0  0  0  0  0  0  0
   44.8894    6.6409   -2.1869 O   0  0  0  0  0  0  0  0  0  0  0  0
   41.1188    2.3862   -0.4863 C   0  0  2  0  0  0  0  0  0  0  0  0
   44.9244   -0.3692   -2.8566 C   0  0  2  0  0  0  0  0  0  0  0  0
   43.8418    0.1563   -2.2353 O   0  0  0  0  0  0  0  0  0  0  0  0
   50.2042   -0.9269   -5.4034 C   0  0  2  0  0  0  0  0  0  0  0  0
   50.8618   -0.1526   -4.3265 O   0  0  0  0  0  0  0  0  0  0  0  0
   43.8162    5.9073   -0.0836 C   0  0  2  0  0  0  0  0  0  0  0  0
   42.4946    5.7570    0.4953 O   0  0  0  0  0  0  0  0  0  0  0  0
   41.8554    1.0874   -0.9588 C   0  0  2  0  0  0  0  0  0  0  0  0
   42.5447    1.5229   -2.1056 O   0  0  0  0  0  0  0  0  0  0  0  0
   46.0821   -0.3804   -1.7911 C   0  0  0  0  0  0  0  0  0  0  0  0
   45.9486   -1.5631   -0.9408 O   0  0  0  0  0  0  0  0  0  0  0  0
   49.5886    0.0973   -6.4575 C   0  0  1  0  0  0  0  0  0  0  0  0
   48.5106    0.8789   -5.7360 O   0  0  0  0  0  0  0  0  0  0  0  0
   44.6630    6.8876    0.6219 C   0  0  0  0  0  0  0  0  0  0  0  0
   44.0910    8.0991    0.6043 O   0  0  0  0  0  0  0  0  0  0  0  0
   40.8160   -0.0706   -1.2767 C   0  0  1  0  0  0  0  0  0  0  0  0
   41.4842   -1.2242   -1.6878 O   0  0  0  0  0  0  0  0  0  0  0  0
   42.7506   -1.5147   -5.2116 C   0  0  0  0  0  0  0  0  0  0  0  0
   50.7932    0.9716   -6.9449 C   0  0  0  0  0  0  0  0  0  0  0  0
   51.2606    1.8875   -5.9442 N   0  0  0  0  0  0  0  0  0  0  0  0
   41.6925   -2.0505   -6.1771 C   0  0  0  0  0  0  0  0  0  0  0  0
   41.6905   -3.5193   -6.0336 N   0  0  0  0  0  0  0  0  0  0  0  0
   42.4096   -4.3499   -7.0987 C   0  0  0  0  0  0  0  0  0  0  0  0
  1  2  1  6  0  0  0
  1  8  1  0  0  0  0
  1 33  1  0  0  0  0
  3  4  1  6  0  0  0
  3 10  1  0  0  0  0
  3 42  1  0  0  0  0
  5 11  1  0  0  0  0
  5 29  1  0  0  0  0
  5 35  1  1  0  0  0
  6 13  1  0  0  0  0
  6 39  1  0  0  0  0
  6 22  1  1  0  0  0
  7 15  1  0  0  0  0
  8  9  1  6  0  0  0
  8 17  1  0  0  0  0
 10 19  1  0  0  0  0
 11 12  1  6  0  0  0
 11 21  1  0  0  0  0
 12 44  1  0  0  0  0
 13 14  1  1  0  0  0
 13 23  1  0  0  0  0
 15 16  1  0  0  0  0
 17 18  1  6  0  0  0
 17 25  1  0  0  0  0
 19 20  1  6  0  0  0
 19 27  1  0  0  0  0
 21 22  1  6  0  0  0
 21 28  1  0  0  0  0
 23 24  1  6  0  0  0
 23 30  1  0  0  0  0
 25 26  1  6  0  0  0
 25 32  1  0  0  0  0
 27  2  1  1  0  0  0
 27 34  1  0  0  0  0
 28 29  1  0  0  0  0
 28 36  1  1  0  0  0
 30 31  1  1  0  0  0
 30 38  1  0  0  0  0
 32 33  1  0  0  0  0
 32 40  1  1  0  0  0
 34 35  1  6  0  0  0
 34 42  1  0  0  0  0
 36 37  1  0  0  0  0
 38 39  1  0  0  0  0
 38 45  1  1  0  0  0
 40 41  1  0  0  0  0
 42 43  1  1  0  0  0
 44 47  1  0  0  0  0
 45 46  1  0  0  0  0
 47 48  1  0  0  0  0
 48 49  1  0  0  0  0
 49  7  1  0  0  0  0
M  END
>  <CHROM.1>
-75.40750039,165.33129045,-79.67547139,58.15733689,-58.18813472,166.84932842
-97.68247327,-79.32925197,-164.05738272,55.69048457,-160.22394837,-71.51797610
172.26789630,-101.51346644,168.45688355,176.78111654,44.16723291,0.92577454
-3.06784683,-2.10087497,-0.35316850,-2.66831962

>  <Name>
2bee_lig

>  <RI>
0

>  <Rbt.Current_Directory>
/home/itssahil/PROJECTS/Mol_Feturizer/New_Systems/rnas/2bee

>  <Rbt.Executable>
rbdock ($Id: //depot/dev/client3/rdock/2013.1/src/exe/rbdock.cxx#4 $)

>  <Rbt.Library>
libRbt.so (2013.1, Build901 2013/11/27)

>  <Rbt.Parameter_File>
/export/apps/rDock/src/rDock_2013.1_src/data/scripts/dock_solv.prm

>  <Rbt.Receptor>
prm/pocket_docking_7.prm

>  <SCORE>
-13.7296

>  <SCORE.INTER>
-10.0828

>  <SCORE.INTER.CONST>
1

>  <SCORE.INTER.POLAR>
-1.9632

>  <SCORE.INTER.ROT>
16

>  <SCORE.INTER.SOLV>
15.8248

>  <SCORE.INTER.VDW>
-19.7194

>  <SCORE.INTER.norm>
-0.20577

>  <SCORE.INTRA>
-3.64686

>  <SCORE.INTRA.DIHEDRAL>
-21.1083

>  <SCORE.INTRA.DIHEDRAL.0>
36.0842

>  <SCORE.INTRA.POLAR>
0

>  <SCORE.INTRA.POLAR.0>
0

>  <SCORE.INTRA.REPUL>
0

>  <SCORE.INTRA.REPUL.0>
0

>  <SCORE.INTRA.SOLV>
3.18842

>  <SCORE.INTRA.SOLV.lig_0>
-126.444

>  <SCORE.INTRA.VDW>
5.31309

>  <SCORE.INTRA.VDW.0>
-7.40469

>  <SCORE.INTRA.norm>
-0.0744256

>  <SCORE.RESTR>
0

>  <SCORE.RESTR.CAVITY>
0

>  <SCORE.RESTR.norm>
0

>  <SCORE.SYSTEM>
0

>  <SCORE.SYSTEM.CONST>
0

>  <SCORE.SYSTEM.DIHEDRAL>
0

>  <SCORE.SYSTEM.SOLV>
0

>  <SCORE.SYSTEM.norm>
0

>  <SCORE.heavy>
49

>  <SCORE.norm>
-0.280196

>  <RMSD>
9.451

$$$$
2bee_lig
 OpenBabel11021811423D
libRbt.so/2013.1/901 2013/11/27
 49 52  0  0  0  0  0  0  0  0999 V2000
   42.0971    7.7709   -2.5741 C   0  0  2  0  0  0  0  0  0  0  0  0
   42.9979    6.9558   -1.8351 O   0  0  0  0  0  0  0  0  0  0  0  0
   44.1273    2.7075   -2.0601 C   0  0  2  0  0  0  0  0  0  0  0  0
   43.9930    1.2256   -2.0323 N   0  0  0  0  0  0  0  0  0  0  0  0
   42.7820    5.6885   -5.5111 C   0  0  1  0  0  0  0  0  0  0  0  0
   41.7075    3.3014   -9.4179 C   0  0  1  0  0  0  0  0  0  0  0  0
   44.8022   10.2233  -11.1915 C   0  0  0  0  0  0  0  0  0  0  0  0
   42.5417    9.2830   -2.5027 C   0  0  2  0  0  0  0  0  0  0  0  0
   43.9254    9.4187   -2.9448 N   0  0  0  0  0  0  0  0  0  0  0  0
   43.6011    3.3120   -0.6797 C   0  0  0  0  0  0  0  0  0  0  0  0
   43.2447    5.2216   -6.8529 C   0  0  2  0  0  0  0  0  0  0  0  0
   44.1439    6.1817   -7.5164 O   0  0  0  0  0  0  0  0  0  0  0  0
   40.4238    2.4531   -9.9313 C   0  0  2  0  0  0  0  0  0  0  0  0
   39.9358    1.6090   -8.7901 N   0  0  0  0  0  0  0  0  0  0  0  0
   44.0811   10.7147  -12.3048 C   0  0  0  0  0  0  0  0  0  0  0  0
   42.6977   10.8592  -12.2270 N   0  0  0  0  0  0  0  0  0  0  0  0
   42.3461    9.8187   -1.0172 C   0  0  1  0  0  0  0  0  0  0  0  0
   42.7442   11.1809   -0.9638 O   0  0  0  0  0  0  0  0  0  0  0  0
   43.7198    4.9421   -0.6758 C   0  0  2  0  0  0  0  0  0  0  0  0
   43.2611    5.4902    0.5553 N   0  0  0  0  0  0  0  0  0  0  0  0
   41.8772    4.9003   -7.4054 C   0  0  2  0  0  0  0  0  0  0  0  0
   41.2283    4.0604   -8.2821 O   0  0  0  0  0  0  0  0  0  0  0  0
   40.8734    1.5529  -11.1370 C   0  0  1  0  0  0  0  0  0  0  0  0
   41.3203    2.4506  -12.2122 O   0  0  0  0  0  0  0  0  0  0  0  0
   40.8632    9.6523   -0.6113 C   0  0  2  0  0  0  0  0  0  0  0  0
   40.6391   10.1272    0.7781 O   0  0  0  0  0  0  0  0  0  0  0  0
   42.8797    5.5427   -1.8694 C   0  0  2  0  0  0  0  0  0  0  0  0
   40.9555    6.0549   -6.7692 C   0  0  2  0  0  0  0  0  0  0  0  0
   41.4662    6.1639   -5.5197 O   0  0  0  0  0  0  0  0  0  0  0  0
   42.0721    0.5601  -10.6461 C   0  0  2  0  0  0  0  0  0  0  0  0
   41.6112   -0.3367   -9.5622 O   0  0  0  0  0  0  0  0  0  0  0  0
   40.4327    8.1497   -0.6918 C   0  0  2  0  0  0  0  0  0  0  0  0
   40.6871    7.7545   -2.0642 O   0  0  0  0  0  0  0  0  0  0  0  0
   43.4321    4.9170   -3.1945 C   0  0  2  0  0  0  0  0  0  0  0  0
   42.6384    5.5315   -4.1806 O   0  0  0  0  0  0  0  0  0  0  0  0
   39.4198    5.7603   -6.5938 C   0  0  0  0  0  0  0  0  0  0  0  0
   39.2439    4.6080   -5.7102 O   0  0  0  0  0  0  0  0  0  0  0  0
   43.3032    1.4147  -10.1046 C   0  0  1  0  0  0  0  0  0  0  0  0
   42.7762    2.2879   -8.9851 O   0  0  0  0  0  0  0  0  0  0  0  0
   39.0082    8.0901   -0.3135 C   0  0  0  0  0  0  0  0  0  0  0  0
   38.2532    8.7063   -1.2330 O   0  0  0  0  0  0  0  0  0  0  0  0
   43.2747    3.3367   -3.1844 C   0  0  1  0  0  0  0  0  0  0  0  0
   43.7780    2.7905   -4.3654 O   0  0  0  0  0  0  0  0  0  0  0  0
   43.7539    7.5189   -7.9924 C   0  0  0  0  0  0  0  0  0  0  0  0
   44.3724    0.3657   -9.6468 C   0  0  0  0  0  0  0  0  0  0  0  0
   45.5889    0.9713   -9.1865 N   0  0  0  0  0  0  0  0  0  0  0  0
   42.9293    7.3780   -9.2727 C   0  0  0  0  0  0  0  0  0  0  0  0
   43.2019    8.5773  -10.0884 N   0  0  0  0  0  0  0  0  0  0  0  0
   44.5761    8.7039  -10.7495 C   0  0  0  0  0  0  0  0  0  0  0  0
  1  2  1  1  0  0  0
  1  8  1  0  0  0  0
  1 33  1  0  0  0  0
  3  4  1  1  0  0  0
  3 10  1  0  0  0  0
  3 42  1  0  0  0  0
  5 11  1  0  0  0  0
  5 29  1  0  0  0  0
  5 35  1  1  0  0  0
  6 13  1  0  0  0  0
  6 39  1  0  0  0  0
  6 22  1  1  0  0  0
  7 15  1  0  0  0  0
  8  9  1  1  0  0  0
  8 17  1  0  0  0  0
 10 19  1  0  0  0  0
 11 12  1  6  0  0  0
 11 21  1  0  0  0  0
 12 44  1  0  0  0  0
 13 14  1  1  0  0  0
 13 23  1  0  0  0  0
 15 16  1  0  0  0  0
 17 18  1  6  0  0  0
 17 25  1  0  0  0  0
 19 20  1  1  0  0  0
 19 27  1  0  0  0  0
 21 22  1  6  0  0  0
 21 28  1  0  0  0  0
 23 24  1  6  0  0  0
 23 30  1  0  0  0  0
 25 26  1  1  0  0  0
 25 32  1  0  0  0  0
 27  2  1  6  0  0  0
 27 34  1  0  0  0  0
 28 29  1  0  0  0  0
 28 36  1  1  0  0  0
 30 31  1  1  0  0  0
 30 38  1  0  0  0  0
 32 33  1  0  0  0  0
 32 40  1  6  0  0  0
 34 35  1  6  0  0  0
 34 42  1  0  0  0  0
 36 37  1  0  0  0  0
 38 39  1  0  0  0  0
 38 45  1  1  0  0  0
 40 41  1  0  0  0  0
 42 43  1  6  0  0  0
 44 47  1  0  0  0  0
 45 46  1  0  0  0  0
 47 48  1  0  0  0  0
 48 49  1  0  0  0  0
 49  7  1  0  0  0  0
M  END
>  <CHROM.1>
-173.45262054,33.68472562,176.27933188,67.28640078,-66.51539862,-74.81814456
-22.02091530,-164.42207587,60.25019032,66.80469096,161.67715000,177.09517894
-148.76992840,71.62705482,-163.16032597,-72.96037167,42.33537104,5.64466948
-5.73401610,-2.71938355,-1.48623005,3.10817072

>  <Name>
2bee_lig

>  <RI>
0

>  <Rbt.Current_Directory>
/home/itssahil/PROJECTS/Mol_Feturizer/New_Systems/rnas/2bee

>  <Rbt.Executable>
rbdock ($Id: //depot/dev/client3/rdock/2013.1/src/exe/rbdock.cxx#4 $)

>  <Rbt.Library>
libRbt.so (2013.1, Build901 2013/11/27)

>  <Rbt.Parameter_File>
/export/apps/rDock/src/rDock_2013.1_src/data/scripts/dock_solv.prm

>  <Rbt.Receptor>
prm/pocket_docking_7.prm

>  <SCORE>
-22.973

>  <SCORE.INTER>
-12.7521

>  <SCORE.INTER.CONST>
1

>  <SCORE.INTER.POLAR>
-1.8506

>  <SCORE.INTER.ROT>
16

>  <SCORE.INTER.SOLV>
25.3454

>  <SCORE.INTER.VDW>
-25.0479

>  <SCORE.INTER.norm>
-0.260247

>  <SCORE.INTRA>
-10.2209

>  <SCORE.INTRA.DIHEDRAL>
-21.0395

>  <SCORE.INTRA.DIHEDRAL.0>
36.0842

>  <SCORE.INTRA.POLAR>
0

>  <SCORE.INTRA.POLAR.0>
0

>  <SCORE.INTRA.REPUL>
0

>  <SCORE.INTRA.REPUL.0>
0

>  <SCORE.INTRA.SOLV>
-2.68787

>  <SCORE.INTRA.SOLV.lig_0>
-126.444

>  <SCORE.INTRA.VDW>
1.64276

>  <SCORE.INTRA.VDW.0>
-7.40469

>  <SCORE.INTRA.norm>
-0.20859

>  <SCORE.RESTR>
0

>  <SCORE.RESTR.CAVITY>
0

>  <SCORE.RESTR.norm>
0

>  <SCORE.SYSTEM>
0

>  <SCORE.SYSTEM.CONST>
0

>  <SCORE.SYSTEM.DIHEDRAL>
0

>  <SCORE.SYSTEM.SOLV>
0

>  <SCORE.SYSTEM.norm>
0

>  <SCORE.heavy>
49

>  <SCORE.norm>
-0.468838

>  <RMSD>
9.452

$$$$
2bee_lig
 OpenBabel11021811423D
libRbt.so/2013.1/901 2013/11/27
 49 52  0  0  0  0  0  0  0  0999 V2000
   42.4060    3.0247   -3.0075 C   0  0  2  0  0  0  0  0  0  0  0  0
   42.6596    4.4193   -2.8936 O   0  0  0  0  0  0  0  0  0  0  0  0
   43.6338    7.6475   -5.7226 C   0  0  2  0  0  0  0  0  0  0  0  0
   44.3472    8.3946   -6.7940 N   0  0  0  0  0  0  0  0  0  0  0  0
   42.3207    3.2658   -6.1966 C   0  0  1  0  0  0  0  0  0  0  0  0
   41.8870   -1.5098   -6.5690 C   0  0  1  0  0  0  0  0  0  0  0  0
   49.9809    1.1697   -7.4225 C   0  0  0  0  0  0  0  0  0  0  0  0
   41.5468    2.5222   -1.7835 C   0  0  2  0  0  0  0  0  0  0  0  0
   40.3272    3.3148   -1.6697 N   0  0  0  0  0  0  0  0  0  0  0  0
   44.6626    7.2815   -4.5585 C   0  0  0  0  0  0  0  0  0  0  0  0
   43.2466    2.0986   -6.3102 C   0  0  2  0  0  0  0  0  0  0  0  0
   44.1687    2.2062   -7.4541 O   0  0  0  0  0  0  0  0  0  0  0  0
   41.8738   -2.6737   -5.4394 C   0  0  2  0  0  0  0  0  0  0  0  0
   43.1182   -2.5346   -4.6117 N   0  0  0  0  0  0  0  0  0  0  0  0
   49.8665    2.2728   -8.3005 C   0  0  0  0  0  0  0  0  0  0  0  0
   50.8191    2.4679   -9.2981 N   0  0  0  0  0  0  0  0  0  0  0  0
   42.4233    2.6023   -0.4579 C   0  0  1  0  0  0  0  0  0  0  0  0
   41.6436    2.1438    0.6371 O   0  0  0  0  0  0  0  0  0  0  0  0
   43.9188    6.4468   -3.3661 C   0  0  2  0  0  0  0  0  0  0  0  0
   44.8265    6.1234   -2.3185 N   0  0  0  0  0  0  0  0  0  0  0  0
   42.1846    1.0280   -6.2427 C   0  0  2  0  0  0  0  0  0  0  0  0
   41.9713   -0.2678   -5.8299 O   0  0  0  0  0  0  0  0  0  0  0  0
   41.8393   -4.0673   -6.1626 C   0  0  1  0  0  0  0  0  0  0  0  0
   40.5900   -4.1299   -6.9352 O   0  0  0  0  0  0  0  0  0  0  0  0
   43.6944    1.7406   -0.6398 C   0  0  2  0  0  0  0  0  0  0  0  0
   44.5510    1.7998    0.5721 O   0  0  0  0  0  0  0  0  0  0  0  0
   43.2909    5.1223   -3.9514 C   0  0  2  0  0  0  0  0  0  0  0  0
   40.9581    1.6917   -7.0444 C   0  0  2  0  0  0  0  0  0  0  0  0
   41.0238    2.9820   -6.6383 O   0  0  0  0  0  0  0  0  0  0  0  0
   43.1492   -4.2027   -7.1265 C   0  0  2  0  0  0  0  0  0  0  0  0
   44.4004   -4.1357   -6.3382 O   0  0  0  0  0  0  0  0  0  0  0  0
   44.5349    2.2449   -1.8600 C   0  0  2  0  0  0  0  0  0  0  0  0
   43.6373    2.1691   -2.9971 O   0  0  0  0  0  0  0  0  0  0  0  0
   42.2957    5.5360   -5.0876 C   0  0  2  0  0  0  0  0  0  0  0  0
   41.7838    4.2974   -5.5161 O   0  0  0  0  0  0  0  0  0  0  0  0
   39.5028    1.1971   -6.7079 C   0  0  0  0  0  0  0  0  0  0  0  0
   39.3470   -0.1893   -7.1473 O   0  0  0  0  0  0  0  0  0  0  0  0
   43.1643   -3.0236   -8.1983 C   0  0  1  0  0  0  0  0  0  0  0  0
   43.1445   -1.7225   -7.4235 O   0  0  0  0  0  0  0  0  0  0  0  0
   45.7068    1.3562   -1.9712 C   0  0  0  0  0  0  0  0  0  0  0  0
   46.5295    1.7845   -2.9382 O   0  0  0  0  0  0  0  0  0  0  0  0
   43.0505    6.3164   -6.2467 C   0  0  1  0  0  0  0  0  0  0  0  0
   42.1525    6.6870   -7.2480 O   0  0  0  0  0  0  0  0  0  0  0  0
   45.3060    1.3083   -7.7136 C   0  0  0  0  0  0  0  0  0  0  0  0
   44.4639   -3.2431   -9.0444 C   0  0  0  0  0  0  0  0  0  0  0  0
   44.6390   -2.2528  -10.0678 N   0  0  0  0  0  0  0  0  0  0  0  0
   46.3435    1.4742   -6.6023 C   0  0  0  0  0  0  0  0  0  0  0  0
   47.5195    0.6738   -6.9955 N   0  0  0  0  0  0  0  0  0  0  0  0
   48.8545    0.9656   -6.3070 C   0  0  0  0  0  0  0  0  0  0  0  0
  1  2  1  1  0  0  0
  1  8  1  0  0  0  0
  1 33  1  0  0  0  0
  3  4  1  6  0  0  0
  3 10  1  0  0  0  0
  3 42  1  0  0  0  0
  5 11  1  0  0  0  0
  5 29  1  0  0  0  0
  5 35  1  1  0  0  0
  6 13  1  0  0  0  0
  6 39  1  0  0  0  0
  6 22  1  1  0  0  0
  7 15  1  0  0  0  0
  8  9  1  1  0  0  0
  8 17  1  0  0  0  0
 10 19  1  0  0  0  0
 11 12  1  6  0  0  0
 11 21  1  0  0  0  0
 12 44  1  0  0  0  0
 13 14  1  6  0  0  0
 13 23  1  0  0  0  0
 15 16  1  0  0  0  0
 17 18  1  1  0  0  0
 17 25  1  0  0  0  0
 19 20  1  1  0  0  0
 19 27  1  0  0  0  0
 21 22  1  6  0  0  0
 21 28  1  0  0  0  0
 23 24  1  6  0  0  0
 23 30  1  0  0  0  0
 25 26  1  1  0  0  0
 25 32  1  0  0  0  0
 27  2  1  1  0  0  0
 27 34  1  0  0  0  0
 28 29  1  0  0  0  0
 28 36  1  1  0  0  0
 30 31  1  1  0  0  0
 30 38  1  0  0  0  0
 32 33  1  0  0  0  0
 32 40  1  6  0  0  0
 34 35  1  6  0  0  0
 34 42  1  0  0  0  0
 36 37  1  0  0  0  0
 38 39  1  0  0  0  0
 38 45  1  1  0  0  0
 40 41  1  0  0  0  0
 42 43  1  6  0  0  0
 44 47  1  0  0  0  0
 45 46  1  0  0  0  0
 47 48  1  0  0  0  0
 48 49  1  0  0  0  0
 49  7  1  0  0  0  0
M  END
>  <CHROM.1>
-173.17607397,69.87286535,170.62744061,-178.96042250,171.27352265,-65.36629558
-102.90234917,-158.92049015,-67.71407733,-175.51120094,-70.40396716,-179.80093742
-173.57675937,162.12850479,-129.00707775,64.67824765,43.64660834,1.68902550
-5.30113531,1.59325262,0.62630082,0.45497572

>  <Name>
2bee_lig

>  <RI>
0

>  <Rbt.Current_Directory>
/home/itssahil/PROJECTS/Mol_Feturizer/New_Systems/rnas/2bee

>  <Rbt.Executable>
rbdock ($Id: //depot/dev/client3/rdock/2013.1/src/exe/rbdock.cxx#4 $)

>  <Rbt.Library>
libRbt.so (2013.1, Build901 2013/11/27)

>  <Rbt.Parameter_File>
/export/apps/rDock/src/rDock_2013.1_src/data/scripts/dock_solv.prm

>  <Rbt.Receptor>
prm/pocket_docking_8.prm

>  <SCORE>
-12.7971

>  <SCORE.INTER>
1.84868

>  <SCORE.INTER.CONST>
1

>  <SCORE.INTER.POLAR>
-1.18449

>  <SCORE.INTER.ROT>
16

>  <SCORE.INTER.SOLV>
17.0262

>  <SCORE.INTER.VDW>
-14.7613

>  <SCORE.INTER.norm>
0.0377282

>  <SCORE.INTRA>
-14.6457

>  <SCORE.INTRA.DIHEDRAL>
-25.9742

>  <SCORE.INTRA.DIHEDRAL.0>
36.0842

>  <SCORE.INTRA.POLAR>
0

>  <SCORE.INTRA.POLAR.0>
0

>  <SCORE.INTRA.REPUL>
0.0737317

>  <SCORE.INTRA.REPUL.0>
0

>  <SCORE.INTRA.SOLV>
-4.09524

>  <SCORE.INTRA.SOLV.lig_0>
-126.444

>  <SCORE.INTRA.VDW>
0.0203297

>  <SCORE.INTRA.VDW.0>
-7.40469

>  <SCORE.INTRA.norm>
-0.298893

>  <SCORE.RESTR>
0

>  <SCORE.RESTR.CAVITY>
0

>  <SCORE.RESTR.norm>
0

>  <SCORE.SYSTEM>
0

>  <SCORE.SYSTEM.CONST>
0

>  <SCORE.SYSTEM.DIHEDRAL>
0

>  <SCORE.SYSTEM.SOLV>
0

>  <SCORE.SYSTEM.norm>
0

>  <SCORE.heavy>
49

>  <SCORE.norm>
-0.261164

>  <RMSD>
9.454

$$$$
2bee_lig
 OpenBabel11021811423D
libRbt.so/2013.1/901 2013/11/27
 49 52  0  0  0  0  0  0  0  0999 V2000
   40.7357   -0.9094   -1.5132 C   0  0  2  0  0  0  0  0  0  0  0  0
   41.1030   -0.1807   -2.6779 O   0  0  0  0  0  0  0  0  0  0  0  0
   45.4674    0.0499   -2.1555 C   0  0  2  0  0  0  0  0  0  0  0  0
   46.8923    0.3627   -2.4496 N   0  0  0  0  0  0  0  0  0  0  0  0
   42.1570    3.2089   -2.4523 C   0  0  1  0  0  0  0  0  0  0  0  0
   43.3664    4.6694   -6.7862 C   0  0  1  0  0  0  0  0  0  0  0  0
   42.1571    6.9794    1.6968 C   0  0  0  0  0  0  0  0  0  0  0  0
   39.1923   -1.2354   -1.5349 C   0  0  2  0  0  0  0  0  0  0  0  0
   38.8445   -1.9267   -2.7717 N   0  0  0  0  0  0  0  0  0  0  0  0
   44.8603   -0.8209   -3.3476 C   0  0  0  0  0  0  0  0  0  0  0  0
   42.7372    4.3064   -3.2838 C   0  0  2  0  0  0  0  0  0  0  0  0
   42.3267    5.6473   -2.8324 O   0  0  0  0  0  0  0  0  0  0  0  0
   42.3133    5.8872   -6.9832 C   0  0  2  0  0  0  0  0  0  0  0  0
   41.0602    5.3265   -7.5902 N   0  0  0  0  0  0  0  0  0  0  0  0
   43.1848    6.0291    1.4930 C   0  0  0  0  0  0  0  0  0  0  0  0
   44.3875    6.4214    0.9096 N   0  0  0  0  0  0  0  0  0  0  0  0
   38.3674    0.1149   -1.3665 C   0  0  1  0  0  0  0  0  0  0  0  0
   36.9802   -0.1890   -1.3825 O   0  0  0  0  0  0  0  0  0  0  0  0
   43.2893   -1.1746   -3.0679 C   0  0  2  0  0  0  0  0  0  0  0  0
   42.7411   -1.9591   -4.1217 N   0  0  0  0  0  0  0  0  0  0  0  0
   42.3117    3.7529   -4.6222 C   0  0  2  0  0  0  0  0  0  0  0  0
   42.6802    3.7092   -5.9478 O   0  0  0  0  0  0  0  0  0  0  0  0
   42.9620    6.9561   -7.9334 C   0  0  1  0  0  0  0  0  0  0  0  0
   44.1681    7.4643   -7.2635 O   0  0  0  0  0  0  0  0  0  0  0  0
   38.7765    0.7948   -0.0392 C   0  0  2  0  0  0  0  0  0  0  0  0
   38.0395    2.0702    0.1504 O   0  0  0  0  0  0  0  0  0  0  0  0
   42.4598    0.1592   -2.9131 C   0  0  2  0  0  0  0  0  0  0  0  0
   40.8784    3.0987   -4.2979 C   0  0  2  0  0  0  0  0  0  0  0  0
   41.0894    2.5542   -3.0760 O   0  0  0  0  0  0  0  0  0  0  0  0
   43.3193    6.2547   -9.3631 C   0  0  2  0  0  0  0  0  0  0  0  0
   42.0982    5.7449  -10.0267 O   0  0  0  0  0  0  0  0  0  0  0  0
   40.3101    1.1076   -0.0275 C   0  0  2  0  0  0  0  0  0  0  0  0
   40.9609   -0.1735   -0.2263 O   0  0  0  0  0  0  0  0  0  0  0  0
   43.0963    0.9748   -1.7374 C   0  0  2  0  0  0  0  0  0  0  0  0
   42.2756    2.1160   -1.6732 O   0  0  0  0  0  0  0  0  0  0  0  0
   40.3757    1.9282   -5.2214 C   0  0  0  0  0  0  0  0  0  0  0  0
   41.4329    0.9263   -5.3551 O   0  0  0  0  0  0  0  0  0  0  0  0
   44.3190    5.0342   -9.1393 C   0  0  1  0  0  0  0  0  0  0  0  0
   43.6428    4.0805   -8.1767 O   0  0  0  0  0  0  0  0  0  0  0  0
   40.6119    1.7284    1.2761 C   0  0  0  0  0  0  0  0  0  0  0  0
   40.0658    2.9497    1.3510 O   0  0  0  0  0  0  0  0  0  0  0  0
   44.6119    1.3320   -2.0500 C   0  0  1  0  0  0  0  0  0  0  0  0
   45.1701    2.0504   -0.9923 O   0  0  0  0  0  0  0  0  0  0  0  0
   40.9569    6.1822   -2.9001 C   0  0  0  0  0  0  0  0  0  0  0  0
   44.5708    4.4323  -10.5632 C   0  0  0  0  0  0  0  0  0  0  0  0
   43.4772    3.6312  -11.0332 N   0  0  0  0  0  0  0  0  0  0  0  0
   40.8385    7.3858   -1.9641 C   0  0  0  0  0  0  0  0  0  0  0  0
   41.0465    6.8805   -0.5931 N   0  0  0  0  0  0  0  0  0  0  0  0
   41.6496    7.8312    0.4431 C   0  0  0  0  0  0  0  0  0  0  0  0
  1  2  1  6  0  0  0
  1  8  1  0  0  0  0
  1 33  1  0  0  0  0
  3  4  1  6  0  0  0
  3 10  1  0  0  0  0
  3 42  1  0  0  0  0
  5 11  1  0  0  0  0
  5 29  1  0  0  0  0
  5 35  1  6  0  0  0
  6 13  1  0  0  0  0
  6 39  1  0  0  0  0
  6 22  1  1  0  0  0
  7 15  1  0  0  0  0
  8  9  1  6  0  0  0
  8 17  1  0  0  0  0
 10 19  1  0  0  0  0
 11 12  1  1  0  0  0
 11 21  1  0  0  0  0
 12 44  1  0  0  0  0
 13 14  1  6  0  0  0
 13 23  1  0  0  0  0
 15 16  1  0  0  0  0
 17 18  1  1  0  0  0
 17 25  1  0  0  0  0
 19 20  1  6  0  0  0
 19 27  1  0  0  0  0
 21 22  1  6  0  0  0
 21 28  1  0  0  0  0
 23 24  1  1  0  0  0
 23 30  1  0  0  0  0
 25 26  1  6  0  0  0
 25 32  1  0  0  0  0
 27  2  1  1  0  0  0
 27 34  1  0  0  0  0
 28 29  1  0  0  0  0
 28 36  1  6  0  0  0
 30 31  1  1  0  0  0
 30 38  1  0  0  0  0
 32 33  1  0  0  0  0
 32 40  1  1  0  0  0
 34 35  1  6  0  0  0
 34 42  1  0  0  0  0
 36 37  1  0  0  0  0
 38 39  1  0  0  0  0
 38 45  1  6  0  0  0
 40 41  1  0  0  0  0
 42 43  1  1  0  0  0
 44 47  1  0  0  0  0
 45 46  1  0  0  0  0
 47 48  1  0  0  0  0
 48 49  1  0  0  0  0
 49  7  1  0  0  0  0
M  END
>  <CHROM.1>
-176.45352993,-40.77069017,-69.45426079,54.61710699,-67.06151808,162.36418054
-32.34701333,62.56947405,49.62142692,-69.18207165,-73.92080148,-76.92229702
-64.20927308,150.80212528,-164.22929824,62.56056235,42.02664823,2.93991810
-3.38231035,3.08310376,1.28640899,0.54030181

>  <Name>
2bee_lig

>  <RI>
0

>  <Rbt.Current_Directory>
/home/itssahil/PROJECTS/Mol_Feturizer/New_Systems/rnas/2bee

>  <Rbt.Executable>
rbdock ($Id: //depot/dev/client3/rdock/2013.1/src/exe/rbdock.cxx#4 $)

>  <Rbt.Library>
libRbt.so (2013.1, Build901 2013/11/27)

>  <Rbt.Parameter_File>
/export/apps/rDock/src/rDock_2013.1_src/data/scripts/dock_solv.prm

>  <Rbt.Receptor>
prm/pocket_docking_6.prm

>  <SCORE>
-10.0908

>  <SCORE.INTER>
-0.165564

>  <SCORE.INTER.CONST>
1

>  <SCORE.INTER.POLAR>
0

>  <SCORE.INTER.ROT>
16

>  <SCORE.INTER.SOLV>
18.0937

>  <SCORE.INTER.VDW>
-20.4083

>  <SCORE.INTER.norm>
-0.00337885

>  <SCORE.INTRA>
-9.92521

>  <SCORE.INTRA.DIHEDRAL>
-24.1132

>  <SCORE.INTRA.DIHEDRAL.0>
36.0842

>  <SCORE.INTRA.POLAR>
0

>  <SCORE.INTRA.POLAR.0>
0

>  <SCORE.INTRA.REPUL>
0

>  <SCORE.INTRA.REPUL.0>
0

>  <SCORE.INTRA.SOLV>
3.0137

>  <SCORE.INTRA.SOLV.lig_0>
-126.444

>  <SCORE.INTRA.VDW>
0.624535

>  <SCORE.INTRA.VDW.0>
-7.40469

>  <SCORE.INTRA.norm>
-0.202555

>  <SCORE.RESTR>
0

>  <SCORE.RESTR.CAVITY>
0

>  <SCORE.RESTR.norm>
0

>  <SCORE.SYSTEM>
0

>  <SCORE.SYSTEM.CONST>
0

>  <SCORE.SYSTEM.DIHEDRAL>
0

>  <SCORE.SYSTEM.SOLV>
0

>  <SCORE.SYSTEM.norm>
0

>  <SCORE.heavy>
49

>  <SCORE.norm>
-0.205934

>  <RMSD>
9.463

$$$$
2bee_lig
 OpenBabel11021811423D
libRbt.so/2013.1/901 2013/11/27
 49 52  0  0  0  0  0  0  0  0999 V2000
   39.8163   -2.7314   -6.7004 C   0  0  2  0  0  0  0  0  0  0  0  0
   39.9458   -1.3232   -6.5516 O   0  0  0  0  0  0  0  0  0  0  0  0
   43.2057   -1.1113   -3.6016 C   0  0  2  0  0  0  0  0  0  0  0  0
   44.2438   -0.5259   -2.7102 N   0  0  0  0  0  0  0  0  0  0  0  0
   38.8561    0.3942   -3.7043 C   0  0  1  0  0  0  0  0  0  0  0  0
   40.2001    4.7486   -4.6924 C   0  0  1  0  0  0  0  0  0  0  0  0
   38.7118    7.2398   -1.7949 C   0  0  0  0  0  0  0  0  0  0  0  0
   38.8296   -3.0690   -7.8842 C   0  0  2  0  0  0  0  0  0  0  0  0
   39.2700   -2.4057   -9.1068 N   0  0  0  0  0  0  0  0  0  0  0  0
   43.4673   -0.6344   -5.1022 C   0  0  0  0  0  0  0  0  0  0  0  0
   38.9176    1.8039   -3.2128 C   0  0  2  0  0  0  0  0  0  0  0  0
   37.8243    2.1362   -2.2831 O   0  0  0  0  0  0  0  0  0  0  0  0
   40.5917    5.6175   -6.0049 C   0  0  2  0  0  0  0  0  0  0  0  0
   41.4794    4.7752   -6.8741 N   0  0  0  0  0  0  0  0  0  0  0  0
   39.3520    7.5391   -0.5696 C   0  0  0  0  0  0  0  0  0  0  0  0
   39.9465    6.5194    0.1704 N   0  0  0  0  0  0  0  0  0  0  0  0
   37.3541   -2.6318   -7.4794 C   0  0  1  0  0  0  0  0  0  0  0  0
   36.4727   -2.9436   -8.5485 O   0  0  0  0  0  0  0  0  0  0  0  0
   42.3377   -1.2468   -6.1124 C   0  0  2  0  0  0  0  0  0  0  0  0
   42.5679   -0.8344   -7.4552 N   0  0  0  0  0  0  0  0  0  0  0  0
   39.0334    2.4553   -4.5697 C   0  0  2  0  0  0  0  0  0  0  0  0
   39.5647    3.5538   -5.2069 O   0  0  0  0  0  0  0  0  0  0  0  0
   41.3413    6.9153   -5.5358 C   0  0  1  0  0  0  0  0  0  0  0  0
   40.4044    7.6879   -4.7070 O   0  0  0  0  0  0  0  0  0  0  0  0
   36.9458   -3.3703   -6.1836 C   0  0  2  0  0  0  0  0  0  0  0  0
   35.5771   -2.9783   -5.7606 O   0  0  0  0  0  0  0  0  0  0  0  0
   40.9010   -0.7816   -5.6537 C   0  0  2  0  0  0  0  0  0  0  0  0
   38.0975    1.5270   -5.4916 C   0  0  2  0  0  0  0  0  0  0  0  0
   38.3715    0.2903   -5.0127 O   0  0  0  0  0  0  0  0  0  0  0  0
   42.6750    6.4895   -4.6970 C   0  0  2  0  0  0  0  0  0  0  0  0
   43.6091    5.7103   -5.5405 O   0  0  0  0  0  0  0  0  0  0  0  0
   37.9352   -3.0323   -5.0188 C   0  0  2  0  0  0  0  0  0  0  0  0
   39.2433   -3.4300   -5.5037 O   0  0  0  0  0  0  0  0  0  0  0  0
   40.6971   -1.2699   -4.1797 C   0  0  2  0  0  0  0  0  0  0  0  0
   39.3941   -0.8278   -3.8852 O   0  0  0  0  0  0  0  0  0  0  0  0
   38.3982    1.4787   -7.0353 C   0  0  0  0  0  0  0  0  0  0  0  0
   37.3978    0.6433   -7.6993 O   0  0  0  0  0  0  0  0  0  0  0  0
   42.2693    5.5997   -3.4388 C   0  0  1  0  0  0  0  0  0  0  0  0
   41.5103    4.4022   -3.9712 O   0  0  0  0  0  0  0  0  0  0  0  0
   37.4854   -3.7938   -3.8384 C   0  0  0  0  0  0  0  0  0  0  0  0
   38.2766   -3.5394   -2.7874 O   0  0  0  0  0  0  0  0  0  0  0  0
   41.7877   -0.6347   -3.2156 C   0  0  1  0  0  0  0  0  0  0  0  0
   41.6011   -1.0838   -1.9080 O   0  0  0  0  0  0  0  0  0  0  0  0
   37.9979    2.7338   -0.9491 C   0  0  0  0  0  0  0  0  0  0  0  0
   43.6180    5.2371   -2.7298 C   0  0  0  0  0  0  0  0  0  0  0  0
   43.4304    4.4882   -1.5204 N   0  0  0  0  0  0  0  0  0  0  0  0
   38.6678    4.1012   -1.0922 C   0  0  0  0  0  0  0  0  0  0  0  0
   37.9010    4.8460   -2.1098 N   0  0  0  0  0  0  0  0  0  0  0  0
   37.4439    6.2668   -1.7727 C   0  0  0  0  0  0  0  0  0  0  0  0
  1  2  1  1  0  0  0
  1  8  1  0  0  0  0
  1 33  1  0  0  0  0
  3  4  1  1  0  0  0
  3 10  1  0  0  0  0
  3 42  1  0  0  0  0
  5 11  1  0  0  0  0
  5 29  1  0  0  0  0
  5 35  1  6  0  0  0
  6 13  1  0  0  0  0
  6 39  1  0  0  0  0
  6 22  1  6  0  0  0
  7 15  1  0  0  0  0
  8  9  1  6  0  0  0
  8 17  1  0  0  0  0
 10 19  1  0  0  0  0
 11 12  1  6  0  0  0
 11 21  1  0  0  0  0
 12 44  1  0  0  0  0
 13 14  1  6  0  0  0
 13 23  1  0  0  0  0
 15 16  1  0  0  0  0
 17 18  1  6  0  0  0
 17 25  1  0  0  0  0
 19 20  1  6  0  0  0
 19 27  1  0  0  0  0
 21 22  1  1  0  0  0
 21 28  1  0  0  0  0
 23 24  1  1  0  0  0
 23 30  1  0  0  0  0
 25 26  1  1  0  0  0
 25 32  1  0  0  0  0
 27  2  1  6  0  0  0
 27 34  1  0  0  0  0
 28 29  1  0  0  0  0
 28 36  1  6  0  0  0
 30 31  1  6  0  0  0
 30 38  1  0  0  0  0
 32 33  1  0  0  0  0
 32 40  1  1  0  0  0
 34 35  1  1  0  0  0
 34 42  1  0  0  0  0
 36 37  1  0  0  0  0
 38 39  1  0  0  0  0
 38 45  1  6  0  0  0
 40 41  1  0  0  0  0
 42 43  1  1  0  0  0
 44 47  1  0  0  0  0
 45 46  1  0  0  0  0
 47 48  1  0  0  0  0
 48 49  1  0  0  0  0
 49  7  1  0  0  0  0
M  END
>  <CHROM.1>
-172.58340642,-36.28265862,179.67649740,62.54800555,127.80408671,61.14809996
-8.42912560,60.78160051,-176.91791889,-179.07239819,-69.08732584,176.82816751
50.39217511,130.00890314,72.63646248,-96.72367473,39.86499735,1.43199752
-4.51567332,-1.80289959,0.29508945,0.42166635

>  <Name>
2bee_lig

>  <RI>
0

>  <Rbt.Current_Directory>
/home/itssahil/PROJECTS/Mol_Feturizer/New_Systems/rnas/2bee

>  <Rbt.Executable>
rbdock ($Id: //depot/dev/client3/rdock/2013.1/src/exe/rbdock.cxx#4 $)

>  <Rbt.Library>
libRbt.so (2013.1, Build901 2013/11/27)

>  <Rbt.Parameter_File>
/export/apps/rDock/src/rDock_2013.1_src/data/scripts/dock_solv.prm

>  <Rbt.Receptor>
prm/pocket_docking_5.prm

>  <SCORE>
-7.38189

>  <SCORE.INTER>
1.91463

>  <SCORE.INTER.CONST>
1

>  <SCORE.INTER.POLAR>
0

>  <SCORE.INTER.ROT>
16

>  <SCORE.INTER.SOLV>
9.62125

>  <SCORE.INTER.VDW>
-16.1973

>  <SCORE.INTER.norm>
0.039074

>  <SCORE.INTRA>
-9.29986

>  <SCORE.INTRA.DIHEDRAL>
-17.6008

>  <SCORE.INTRA.DIHEDRAL.0>
36.0842

>  <SCORE.INTRA.POLAR>
0

>  <SCORE.INTRA.POLAR.0>
0

>  <SCORE.INTRA.REPUL>
0

>  <SCORE.INTRA.REPUL.0>
0

>  <SCORE.INTRA.SOLV>
2.51929

>  <SCORE.INTRA.SOLV.lig_0>
-126.444

>  <SCORE.INTRA.VDW>
-1.75911

>  <SCORE.INTRA.VDW.0>
-7.40469

>  <SCORE.INTRA.norm>
-0.189793

>  <SCORE.RESTR>
0.00333965

>  <SCORE.RESTR.CAVITY>
0.00333965

>  <SCORE.RESTR.norm>
6.81562e-05

>  <SCORE.SYSTEM>
0

>  <SCORE.SYSTEM.CONST>
0

>  <SCORE.SYSTEM.DIHEDRAL>
0

>  <SCORE.SYSTEM.SOLV>
0

>  <SCORE.SYSTEM.norm>
0

>  <SCORE.heavy>
49

>  <SCORE.norm>
-0.150651

>  <RMSD>
9.464

$$$$
2bee_lig
 OpenBabel11021811423D
libRbt.so/2013.1/901 2013/11/27
 49 52  0  0  0  0  0  0  0  0999 V2000
   40.9425    7.6391   -0.2994 C   0  0  2  0  0  0  0  0  0  0  0  0
   41.0951    6.4750    0.5029 O   0  0  0  0  0  0  0  0  0  0  0  0
   40.9786    2.1475   -0.2928 C   0  0  2  0  0  0  0  0  0  0  0  0
   40.4612    0.8250   -0.7379 N   0  0  0  0  0  0  0  0  0  0  0  0
   42.4338    5.5550   -3.1483 C   0  0  1  0  0  0  0  0  0  0  0  0
   43.3859    1.6159   -5.0511 C   0  0  1  0  0  0  0  0  0  0  0  0
   47.6286    4.6151   -7.1164 C   0  0  0  0  0  0  0  0  0  0  0  0
   41.9933    8.7374    0.1232 C   0  0  2  0  0  0  0  0  0  0  0  0
   43.3424    8.1844    0.0727 N   0  0  0  0  0  0  0  0  0  0  0  0
   39.9656    2.7828    0.7646 C   0  0  0  0  0  0  0  0  0  0  0  0
   43.6874    5.3391   -3.9322 C   0  0  2  0  0  0  0  0  0  0  0  0
   44.1811    6.5688   -4.5759 O   0  0  0  0  0  0  0  0  0  0  0  0
   44.3099    1.3149   -3.7524 C   0  0  2  0  0  0  0  0  0  0  0  0
   45.7314    1.6438   -4.1051 N   0  0  0  0  0  0  0  0  0  0  0  0
   48.5475    4.1145   -8.0681 C   0  0  0  0  0  0  0  0  0  0  0  0
   49.9113    4.1153   -7.7837 N   0  0  0  0  0  0  0  0  0  0  0  0
   41.6348    9.2759    1.5770 C   0  0  1  0  0  0  0  0  0  0  0  0
   42.5827   10.2668    1.9468 O   0  0  0  0  0  0  0  0  0  0  0  0
   40.4929    4.2455    1.2688 C   0  0  2  0  0  0  0  0  0  0  0  0
   39.6004    4.8165    2.2194 N   0  0  0  0  0  0  0  0  0  0  0  0
   43.1872    4.1650   -4.7386 C   0  0  2  0  0  0  0  0  0  0  0  0
   43.6120    3.0122   -5.3594 O   0  0  0  0  0  0  0  0  0  0  0  0
   44.1657   -0.2043   -3.3816 C   0  0  1  0  0  0  0  0  0  0  0  0
   42.7562   -0.4399   -3.0363 O   0  0  0  0  0  0  0  0  0  0  0  0
   40.1996    9.8514    1.5630 C   0  0  2  0  0  0  0  0  0  0  0  0
   39.8179   10.3524    2.9082 O   0  0  0  0  0  0  0  0  0  0  0  0
   40.6428    5.2155    0.0328 C   0  0  2  0  0  0  0  0  0  0  0  0
   41.6427    4.5377   -4.9902 C   0  0  2  0  0  0  0  0  0  0  0  0
   41.2900    5.0852   -3.8029 O   0  0  0  0  0  0  0  0  0  0  0  0
   44.6323   -1.1127   -4.6547 C   0  0  2  0  0  0  0  0  0  0  0  0
   46.0517   -0.8652   -4.9945 O   0  0  0  0  0  0  0  0  0  0  0  0
   39.1677    8.7545    1.1367 C   0  0  2  0  0  0  0  0  0  0  0  0
   39.6065    8.3078   -0.1718 O   0  0  0  0  0  0  0  0  0  0  0  0
   41.6405    4.5461   -0.9718 C   0  0  2  0  0  0  0  0  0  0  0  0
   41.7170    5.4938   -2.0090 O   0  0  0  0  0  0  0  0  0  0  0  0
   40.6325    3.3597   -5.2501 C   0  0  0  0  0  0  0  0  0  0  0  0
   39.3941    3.8969   -5.8134 O   0  0  0  0  0  0  0  0  0  0  0  0
   43.7407   -0.7674   -5.9294 C   0  0  1  0  0  0  0  0  0  0  0  0
   43.8945    0.7170   -6.1869 O   0  0  0  0  0  0  0  0  0  0  0  0
   37.8389    9.3949    1.1282 C   0  0  0  0  0  0  0  0  0  0  0  0
   36.8882    8.4971    0.8361 O   0  0  0  0  0  0  0  0  0  0  0  0
   41.0882    3.1426   -1.4695 C   0  0  1  0  0  0  0  0  0  0  0  0
   41.9891    2.5525   -2.3564 O   0  0  0  0  0  0  0  0  0  0  0  0
   45.3424    6.6463   -5.4773 C   0  0  0  0  0  0  0  0  0  0  0  0
   44.2883   -1.6754   -7.0822 C   0  0  0  0  0  0  0  0  0  0  0  0
   43.5171   -1.5748   -8.2878 N   0  0  0  0  0  0  0  0  0  0  0  0
   46.5884    6.1569   -4.7379 C   0  0  0  0  0  0  0  0  0  0  0  0
   46.5689    4.6825   -4.8014 N   0  0  0  0  0  0  0  0  0  0  0  0
   47.6332    3.9821   -5.6488 C   0  0  0  0  0  0  0  0  0  0  0  0
  1  2  1  1  0  0  0
  1  8  1  0  0  0  0
  1 33  1  0  0  0  0
  3  4  1  6  0  0  0
  3 10  1  0  0  0  0
  3 42  1  0  0  0  0
  5 11  1  0  0  0  0
  5 29  1  0  0  0  0
  5 35  1  1  0  0  0
  6 13  1  0  0  0  0
  6 39  1  0  0  0  0
  6 22  1  6  0  0  0
  7 15  1  0  0  0  0
  8  9  1  1  0  0  0
  8 17  1  0  0  0  0
 10 19  1  0  0  0  0
 11 12  1  6  0  0  0
 11 21  1  0  0  0  0
 12 44  1  0  0  0  0
 13 14  1  6  0  0  0
 13 23  1  0  0  0  0
 15 16  1  0  0  0  0
 17 18  1  6  0  0  0
 17 25  1  0  0  0  0
 19 20  1  1  0  0  0
 19 27  1  0  0  0  0
 21 22  1  6  0  0  0
 21 28  1  0  0  0  0
 23 24  1  6  0  0  0
 23 30  1  0  0  0  0
 25 26  1  1  0  0  0
 25 32  1  0  0  0  0
 27  2  1  1  0  0  0
 27 34  1  0  0  0  0
 28 29  1  0  0  0  0
 28 36  1  1  0  0  0
 30 31  1  6  0  0  0
 30 38  1  0  0  0  0
 32 33  1  0  0  0  0
 32 40  1  6  0  0  0
 34 35  1  6  0  0  0
 34 42  1  0  0  0  0
 36 37  1  0  0  0  0
 38 39  1  0  0  0  0
 38 45  1  6  0  0  0
 40 41  1  0  0  0  0
 42 43  1  6  0  0  0
 44 47  1  0  0  0  0
 45 46  1  0  0  0  0
 47 48  1  0  0  0  0
 48 49  1  0  0  0  0
 49  7  1  0  0  0  0
M  END
>  <CHROM.1>
-156.81752823,-38.46802916,-73.70014564,-55.93303388,-175.95174877,-59.18875853
110.94164372,-161.20657362,-164.41106229,-176.89339956,177.20488845,174.98399214
81.61584748,111.50459478,-52.32062050,179.69074073,42.68230916,4.43109057
-2.73755212,-2.22587864,-0.67620564,-2.77894727

>  <Name>
2bee_lig

>  <RI>
3.46266e+07

>  <Rbt.Current_Directory>
/home/itssahil/PROJECTS/Mol_Feturizer/New_Systems/rnas/2bee

>  <Rbt.Executable>
rbdock ($Id: //depot/dev/client3/rdock/2013.1/src/exe/rbdock.cxx#4 $)

>  <Rbt.Library>
libRbt.so (2013.1, Build901 2013/11/27)

>  <Rbt.Parameter_File>
/export/apps/rDock/src/rDock_2013.1_src/data/scripts/dock_solv.prm

>  <Rbt.Receptor>
prm/pocket_docking_4.prm

>  <SCORE>
-3.6802

>  <SCORE.INTER>
5.98243

>  <SCORE.INTER.CONST>
1

>  <SCORE.INTER.POLAR>
0

>  <SCORE.INTER.ROT>
16

>  <SCORE.INTER.SOLV>
7.51209

>  <SCORE.INTER.VDW>
-12.7824

>  <SCORE.INTER.norm>
0.12209

>  <SCORE.INTRA>
-9.96153

>  <SCORE.INTRA.DIHEDRAL>
-21.966

>  <SCORE.INTRA.DIHEDRAL.0>
36.0842

>  <SCORE.INTRA.POLAR>
0

>  <SCORE.INTRA.POLAR.0>
0

>  <SCORE.INTRA.REPUL>
0.00386638

>  <SCORE.INTRA.REPUL.0>
0

>  <SCORE.INTRA.SOLV>
1.37749

>  <SCORE.INTRA.SOLV.lig_0>
-126.444

>  <SCORE.INTRA.VDW>
0.313379

>  <SCORE.INTRA.VDW.0>
-7.40469

>  <SCORE.INTRA.norm>
-0.203297

>  <SCORE.RESTR>
0.298898

>  <SCORE.RESTR.CAVITY>
0.298898

>  <SCORE.RESTR.norm>
0.00609997

>  <SCORE.SYSTEM>
0

>  <SCORE.SYSTEM.CONST>
0

>  <SCORE.SYSTEM.DIHEDRAL>
0

>  <SCORE.SYSTEM.SOLV>
0

>  <SCORE.SYSTEM.norm>
0

>  <SCORE.heavy>
49

>  <SCORE.norm>
-0.0751062

>  <RMSD>
9.538

$$$$
2bee_lig
 OpenBabel11021811423D
libRbt.so/2013.1/901 2013/11/27
 49 52  0  0  0  0  0  0  0  0999 V2000
   41.5188    5.4512   -0.3963 C   0  0  2  0  0  0  0  0  0  0  0  0
   42.0946    6.0932    0.7344 O   0  0  0  0  0  0  0  0  0  0  0  0
   42.8392   10.2741   -0.4232 C   0  0  2  0  0  0  0  0  0  0  0  0
   43.5133   11.5981   -0.5098 N   0  0  0  0  0  0  0  0  0  0  0  0
   44.1517    6.3144   -2.6270 C   0  0  1  0  0  0  0  0  0  0  0  0
   44.7534    2.2431   -4.8348 C   0  0  1  0  0  0  0  0  0  0  0  0
   50.6508    5.3801   -6.4324 C   0  0  0  0  0  0  0  0  0  0  0  0
   40.2261    4.6519    0.0268 C   0  0  2  0  0  0  0  0  0  0  0  0
   39.2930    5.5379    0.7146 N   0  0  0  0  0  0  0  0  0  0  0  0
   42.5745    9.9149    1.1094 C   0  0  0  0  0  0  0  0  0  0  0  0
   45.0163    5.5346   -3.5635 C   0  0  2  0  0  0  0  0  0  0  0  0
   45.7202    6.3856   -4.5385 O   0  0  0  0  0  0  0  0  0  0  0  0
   43.9420    0.8392   -4.7950 C   0  0  2  0  0  0  0  0  0  0  0  0
   43.4202    0.6414   -3.4015 N   0  0  0  0  0  0  0  0  0  0  0  0
   51.7813    6.1688   -6.7500 C   0  0  0  0  0  0  0  0  0  0  0  0
   52.9324    6.0780   -5.9707 N   0  0  0  0  0  0  0  0  0  0  0  0
   40.6461    3.4194    0.9415 C   0  0  1  0  0  0  0  0  0  0  0  0
   39.4772    2.7036    1.3134 O   0  0  0  0  0  0  0  0  0  0  0  0
   41.8457    8.4584    1.2478 C   0  0  2  0  0  0  0  0  0  0  0  0
   41.5971    8.1330    2.6111 N   0  0  0  0  0  0  0  0  0  0  0  0
   43.9603    4.5434   -3.9892 C   0  0  2  0  0  0  0  0  0  0  0  0
   43.7962    3.2440   -4.4129 O   0  0  0  0  0  0  0  0  0  0  0  0
   44.9297   -0.3165   -5.1887 C   0  0  1  0  0  0  0  0  0  0  0  0
   45.3812   -0.0586   -6.5639 O   0  0  0  0  0  0  0  0  0  0  0  0
   41.6281    2.5191    0.1564 C   0  0  2  0  0  0  0  0  0  0  0  0
   42.0588    1.3616    0.9815 O   0  0  0  0  0  0  0  0  0  0  0  0
   42.7502    7.3431    0.5929 C   0  0  2  0  0  0  0  0  0  0  0  0
   42.6248    5.4392   -4.0255 C   0  0  2  0  0  0  0  0  0  0  0  0
   42.7907    6.2330   -2.9409 O   0  0  0  0  0  0  0  0  0  0  0  0
   46.1795   -0.3333   -4.1393 C   0  0  2  0  0  0  0  0  0  0  0  0
   45.7127   -0.5913   -2.7584 O   0  0  0  0  0  0  0  0  0  0  0  0
   42.9030    3.3245   -0.2626 C   0  0  2  0  0  0  0  0  0  0  0  0
   42.4077    4.4368   -1.0513 O   0  0  0  0  0  0  0  0  0  0  0  0
   42.9815    7.7440   -0.9032 C   0  0  2  0  0  0  0  0  0  0  0  0
   43.7685    6.6836   -1.3891 O   0  0  0  0  0  0  0  0  0  0  0  0
   41.2430    4.7118   -3.8323 C   0  0  0  0  0  0  0  0  0  0  0  0
   40.1662    5.7015   -3.8490 O   0  0  0  0  0  0  0  0  0  0  0  0
   46.9332    1.0705   -4.1632 C   0  0  1  0  0  0  0  0  0  0  0  0
   45.9046    2.1296   -3.8256 O   0  0  0  0  0  0  0  0  0  0  0  0
   43.7656    2.3993   -1.0213 C   0  0  0  0  0  0  0  0  0  0  0  0
   44.7922    3.0612   -1.5720 O   0  0  0  0  0  0  0  0  0  0  0  0
   43.7192    9.1466   -1.0072 C   0  0  1  0  0  0  0  0  0  0  0  0
   43.9115    9.4967   -2.3439 O   0  0  0  0  0  0  0  0  0  0  0  0
   46.3507    5.9089   -5.7803 C   0  0  0  0  0  0  0  0  0  0  0  0
   48.0879    0.9441   -3.1126 C   0  0  0  0  0  0  0  0  0  0  0  0
   49.1846    0.1459   -3.5803 N   0  0  0  0  0  0  0  0  0  0  0  0
   47.5800    5.0685   -5.4315 C   0  0  0  0  0  0  0  0  0  0  0  0
   48.2144    4.6919   -6.7097 N   0  0  0  0  0  0  0  0  0  0  0  0
   49.3078    5.6042   -7.2696 C   0  0  0  0  0  0  0  0  0  0  0  0
  1  2  1  1  0  0  0
  1  8  1  0  0  0  0
  1 33  1  0  0  0  0
  3  4  1  1  0  0  0
  3 10  1  0  0  0  0
  3 42  1  0  0  0  0
  5 11  1  0  0  0  0
  5 29  1  0  0  0  0
  5 35  1  1  0  0  0
  6 13  1  0  0  0  0
  6 39  1  0  0  0  0
  6 22  1  1  0  0  0
  7 15  1  0  0  0  0
  8  9  1  1  0  0  0
  8 17  1  0  0  0  0
 10 19  1  0  0  0  0
 11 12  1  6  0  0  0
 11 21  1  0  0  0  0
 12 44  1  0  0  0  0
 13 14  1  1  0  0  0
 13 23  1  0  0  0  0
 15 16  1  0  0  0  0
 17 18  1  6  0  0  0
 17 25  1  0  0  0  0
 19 20  1  1  0  0  0
 19 27  1  0  0  0  0
 21 22  1  6  0  0  0
 21 28  1  0  0  0  0
 23 24  1  6  0  0  0
 23 30  1  0  0  0  0
 25 26  1  1  0  0  0
 25 32  1  0  0  0  0
 27  2  1  6  0  0  0
 27 34  1  0  0  0  0
 28 29  1  0  0  0  0
 28 36  1  1  0  0  0
 30 31  1  1  0  0  0
 30 38  1  0  0  0  0
 32 33  1  0  0  0  0
 32 40  1  6  0  0  0
 34 35  1  1  0  0  0
 34 42  1  0  0  0  0
 36 37  1  0  0  0  0
 38 39  1  0  0  0  0
 38 45  1  1  0  0  0
 40 41  1  0  0  0  0
 42 43  1  6  0  0  0
 44 47  1  0  0  0  0
 45 46  1  0  0  0  0
 47 48  1  0  0  0  0
 48 49  1  0  0  0  0
 49  7  1  0  0  0  0
M  END
>  <CHROM.1>
-146.71261715,164.64057178,164.55619925,174.74079353,-163.29907307,-69.17904044
-10.86179153,108.29155357,177.95451477,171.54127074,168.97356383,75.11212305
-176.53558487,91.85263156,75.40062956,-177.48508350,44.29802773,4.61997860
-2.55594985,2.63084766,0.64887081,0.16558774

>  <Name>
2bee_lig

>  <RI>
3.46266e+07

>  <Rbt.Current_Directory>
/home/itssahil/PROJECTS/Mol_Feturizer/New_Systems/rnas/2bee

>  <Rbt.Executable>
rbdock ($Id: //depot/dev/client3/rdock/2013.1/src/exe/rbdock.cxx#4 $)

>  <Rbt.Library>
libRbt.so (2013.1, Build901 2013/11/27)

>  <Rbt.Parameter_File>
/export/apps/rDock/src/rDock_2013.1_src/data/scripts/dock_solv.prm

>  <Rbt.Receptor>
prm/pocket_docking_4.prm

>  <SCORE>
-14.9735

>  <SCORE.INTER>
-9.32419

>  <SCORE.INTER.CONST>
1

>  <SCORE.INTER.POLAR>
-1.61647

>  <SCORE.INTER.ROT>
16

>  <SCORE.INTER.SOLV>
21.1403

>  <SCORE.INTER.VDW>
-22.1413

>  <SCORE.INTER.norm>
-0.190289

>  <SCORE.INTRA>
-6.04125

>  <SCORE.INTRA.DIHEDRAL>
-15.1159

>  <SCORE.INTRA.DIHEDRAL.0>
36.0842

>  <SCORE.INTRA.POLAR>
0

>  <SCORE.INTRA.POLAR.0>
0

>  <SCORE.INTRA.REPUL>
0

>  <SCORE.INTRA.REPUL.0>
0

>  <SCORE.INTRA.SOLV>
0.565714

>  <SCORE.INTRA.SOLV.lig_0>
-126.444

>  <SCORE.INTRA.VDW>
1.23384

>  <SCORE.INTRA.VDW.0>
-7.40469

>  <SCORE.INTRA.norm>
-0.123291

>  <SCORE.RESTR>
0.391933

>  <SCORE.RESTR.CAVITY>
0.391933

>  <SCORE.RESTR.norm>
0.00799863

>  <SCORE.SYSTEM>
0

>  <SCORE.SYSTEM.CONST>
0

>  <SCORE.SYSTEM.DIHEDRAL>
0

>  <SCORE.SYSTEM.SOLV>
0

>  <SCORE.SYSTEM.norm>
0

>  <SCORE.heavy>
49

>  <SCORE.norm>
-0.305582

>  <RMSD>
9.545

$$$$
2bee_lig
 OpenBabel11021811423D
libRbt.so/2013.1/901 2013/11/27
 49 52  0  0  0  0  0  0  0  0999 V2000
   38.9272   -0.3451   -5.8280 C   0  0  2  0  0  0  0  0  0  0  0  0
   38.3257    0.5803   -4.9313 O   0  0  0  0  0  0  0  0  0  0  0  0
   34.5810    0.3387   -2.6307 C   0  0  2  0  0  0  0  0  0  0  0  0
   33.5632   -0.1736   -1.6733 N   0  0  0  0  0  0  0  0  0  0  0  0
   38.5294    2.2663   -1.2448 C   0  0  1  0  0  0  0  0  0  0  0  0
   40.3158    6.6267   -0.6102 C   0  0  1  0  0  0  0  0  0  0  0  0
   40.1980    5.9691    5.0893 C   0  0  0  0  0  0  0  0  0  0  0  0
   40.4844   -0.1026   -5.9027 C   0  0  2  0  0  0  0  0  0  0  0  0
   41.0625   -0.1497   -4.5639 N   0  0  0  0  0  0  0  0  0  0  0  0
   34.9303   -0.8018   -3.6914 C   0  0  0  0  0  0  0  0  0  0  0  0
   39.5125    2.7237   -0.2167 C   0  0  2  0  0  0  0  0  0  0  0  0
   39.0919    2.4097    1.1598 O   0  0  0  0  0  0  0  0  0  0  0  0
   41.8122    7.2452   -0.5131 C   0  0  2  0  0  0  0  0  0  0  0  0
   42.5207    6.5752    0.6280 N   0  0  0  0  0  0  0  0  0  0  0  0
   40.4065    6.3167    6.4444 C   0  0  0  0  0  0  0  0  0  0  0  0
   41.4906    7.1175    6.7969 N   0  0  0  0  0  0  0  0  0  0  0  0
   40.7655    1.2930   -6.6135 C   0  0  1  0  0  0  0  0  0  0  0  0
   42.1689    1.5003   -6.6803 O   0  0  0  0  0  0  0  0  0  0  0  0
   36.0572   -0.2815   -4.7549 C   0  0  2  0  0  0  0  0  0  0  0  0
   36.3690   -1.2890   -5.7109 N   0  0  0  0  0  0  0  0  0  0  0  0
   39.6275    4.1464   -0.7082 C   0  0  2  0  0  0  0  0  0  0  0  0
   40.5071    5.2024   -0.7857 O   0  0  0  0  0  0  0  0  0  0  0  0
   41.6952    8.7914   -0.2648 C   0  0  1  0  0  0  0  0  0  0  0  0
   41.0072    9.3719   -1.4273 O   0  0  0  0  0  0  0  0  0  0  0  0
   40.1339    1.2774   -8.0249 C   0  0  2  0  0  0  0  0  0  0  0  0
   40.3601    2.5706   -8.7195 O   0  0  0  0  0  0  0  0  0  0  0  0
   37.3675    0.1403   -3.9826 C   0  0  2  0  0  0  0  0  0  0  0  0
   38.1301    4.4779   -1.1934 C   0  0  2  0  0  0  0  0  0  0  0  0
   37.7566    3.3092   -1.7668 O   0  0  0  0  0  0  0  0  0  0  0  0
   40.8646    9.0505    1.1160 C   0  0  2  0  0  0  0  0  0  0  0  0
   41.5653    8.4598    2.2785 O   0  0  0  0  0  0  0  0  0  0  0  0
   38.5908    1.0303   -7.9380 C   0  0  2  0  0  0  0  0  0  0  0  0
   38.4471   -0.2356   -7.2443 O   0  0  0  0  0  0  0  0  0  0  0  0
   36.9701    1.2544   -2.9563 C   0  0  2  0  0  0  0  0  0  0  0  0
   38.2001    1.5681   -2.3491 O   0  0  0  0  0  0  0  0  0  0  0  0
   37.9393    5.5885   -2.2915 C   0  0  0  0  0  0  0  0  0  0  0  0
   38.6799    5.2136   -3.4958 O   0  0  0  0  0  0  0  0  0  0  0  0
   39.4155    8.3956    1.0140 C   0  0  1  0  0  0  0  0  0  0  0  0
   39.6161    6.9228    0.7238 O   0  0  0  0  0  0  0  0  0  0  0  0
   38.0808    1.0076   -9.3219 C   0  0  0  0  0  0  0  0  0  0  0  0
   38.6118   -0.0187  -10.0001 O   0  0  0  0  0  0  0  0  0  0  0  0
   35.8991    0.7121   -1.9165 C   0  0  1  0  0  0  0  0  0  0  0  0
   35.5468    1.7155   -1.0135 O   0  0  0  0  0  0  0  0  0  0  0  0
   39.9195    2.5972    2.3628 C   0  0  0  0  0  0  0  0  0  0  0  0
   38.7262    8.6870    2.3899 C   0  0  0  0  0  0  0  0  0  0  0  0
   37.3425    8.3083    2.4136 N   0  0  0  0  0  0  0  0  0  0  0  0
   40.2099    4.0873    2.5480 C   0  0  0  0  0  0  0  0  0  0  0  0
   39.0382    4.6671    3.2327 N   0  0  0  0  0  0  0  0  0  0  0  0
   39.1067    4.8515    4.7502 C   0  0  0  0  0  0  0  0  0  0  0  0
  1  2  1  1  0  0  0
  1  8  1  0  0  0  0
  1 33  1  0  0  0  0
  3  4  1  1  0  0  0
  3 10  1  0  0  0  0
  3 42  1  0  0  0  0
  5 11  1  0  0  0  0
  5 29  1  0  0  0  0
  5 35  1  6  0  0  0
  6 13  1  0  0  0  0
  6 39  1  0  0  0  0
  6 22  1  1  0  0  0
  7 15  1  0  0  0  0
  8  9  1  1  0  0  0
  8 17  1  0  0  0  0
 10 19  1  0  0  0  0
 11 12  1  1  0  0  0
 11 21  1  0  0  0  0
 12 44  1  0  0  0  0
 13 14  1  1  0  0  0
 13 23  1  0  0  0  0
 15 16  1  0  0  0  0
 17 18  1  6  0  0  0
 17 25  1  0  0  0  0
 19 20  1  6  0  0  0
 19 27  1  0  0  0  0
 21 22  1  1  0  0  0
 21 28  1  0  0  0  0
 23 24  1  6  0  0  0
 23 30  1  0  0  0  0
 25 26  1  1  0  0  0
 25 32  1  0  0  0  0
 27  2  1  6  0  0  0
 27 34  1  0  0  0  0
 28 29  1  0  0  0  0
 28 36  1  6  0  0  0
 30 31  1  1  0  0  0
 30 38  1  0  0  0  0
 32 33  1  0  0  0  0
 32 40  1  6  0  0  0
 34 35  1  1  0  0  0
 34 42  1  0  0  0  0
 36 37  1  0  0  0  0
 38 39  1  0  0  0  0
 38 45  1  1  0  0  0
 40 41  1  0  0  0  0
 42 43  1  1  0  0  0
 44 47  1  0  0  0  0
 45 46  1  0  0  0  0
 47 48  1  0  0  0  0
 48 49  1  0  0  0  0
 49  7  1  0  0  0  0
M  END
>  <CHROM.1>
-134.83775181,169.87075712,167.69867581,169.49143166,172.61738086,63.97091274
-140.40309679,-69.15152210,58.79978241,63.51411852,-166.76202881,172.70812431
82.87143698,97.48626912,67.25154059,178.84158391,39.00224671,3.49887188,-1.82327491
1.82930270,-0.84381919,-1.99775876

>  <Name>
2bee_lig

>  <RI>
0

>  <Rbt.Current_Directory>
/home/itssahil/PROJECTS/Mol_Feturizer/New_Systems/rnas/2bee

>  <Rbt.Executable>
rbdock ($Id: //depot/dev/client3/rdock/2013.1/src/exe/rbdock.cxx#4 $)

>  <Rbt.Library>
libRbt.so (2013.1, Build901 2013/11/27)

>  <Rbt.Parameter_File>
/export/apps/rDock/src/rDock_2013.1_src/data/scripts/dock_solv.prm

>  <Rbt.Receptor>
prm/pocket_docking_8.prm

>  <SCORE>
-8.32534

>  <SCORE.INTER>
-2.40803

>  <SCORE.INTER.CONST>
1

>  <SCORE.INTER.POLAR>
0

>  <SCORE.INTER.ROT>
16

>  <SCORE.INTER.SOLV>
14.0943

>  <SCORE.INTER.VDW>
-20.5701

>  <SCORE.INTER.norm>
-0.0491434

>  <SCORE.INTRA>
-5.91731

>  <SCORE.INTRA.DIHEDRAL>
-19.6549

>  <SCORE.INTRA.DIHEDRAL.0>
36.0842

>  <SCORE.INTRA.POLAR>
0

>  <SCORE.INTRA.POLAR.0>
0

>  <SCORE.INTRA.REPUL>
0

>  <SCORE.INTRA.REPUL.0>
0

>  <SCORE.INTRA.SOLV>
0.297631

>  <SCORE.INTRA.SOLV.lig_0>
-126.444

>  <SCORE.INTRA.VDW>
3.76134

>  <SCORE.INTRA.VDW.0>
-7.40469

>  <SCORE.INTRA.norm>
-0.120762

>  <SCORE.RESTR>
0

>  <SCORE.RESTR.CAVITY>
0

>  <SCORE.RESTR.norm>
0

>  <SCORE.SYSTEM>
0

>  <SCORE.SYSTEM.CONST>
0

>  <SCORE.SYSTEM.DIHEDRAL>
0

>  <SCORE.SYSTEM.SOLV>
0

>  <SCORE.SYSTEM.norm>
0

>  <SCORE.heavy>
49

>  <SCORE.norm>
-0.169905

>  <RMSD>
9.547

$$$$
2bee_lig
 OpenBabel11021811423D
libRbt.so/2013.1/901 2013/11/27
 49 52  0  0  0  0  0  0  0  0999 V2000
   43.3352    5.2378   -3.6559 C   0  0  2  0  0  0  0  0  0  0  0  0
   43.0108    4.7950   -2.3441 O   0  0  0  0  0  0  0  0  0  0  0  0
   41.9119    0.8082   -0.8369 C   0  0  2  0  0  0  0  0  0  0  0  0
   41.1034   -0.4183   -0.5985 N   0  0  0  0  0  0  0  0  0  0  0  0
   44.1586    1.9468   -4.8254 C   0  0  1  0  0  0  0  0  0  0  0  0
   42.3948   -1.4807   -7.0757 C   0  0  1  0  0  0  0  0  0  0  0  0
   50.4715    5.2935   -6.9465 C   0  0  0  0  0  0  0  0  0  0  0  0
   44.1414    6.5924   -3.5934 C   0  0  2  0  0  0  0  0  0  0  0  0
   45.3138    6.4375   -2.7390 N   0  0  0  0  0  0  0  0  0  0  0  0
   41.0850    2.0875   -0.3600 C   0  0  0  0  0  0  0  0  0  0  0  0
   44.9168    0.7619   -5.3292 C   0  0  2  0  0  0  0  0  0  0  0  0
   46.3494    1.0400   -5.5303 O   0  0  0  0  0  0  0  0  0  0  0  0
   42.7205   -2.3304   -5.7330 C   0  0  2  0  0  0  0  0  0  0  0  0
   44.0266   -3.0417   -5.9365 N   0  0  0  0  0  0  0  0  0  0  0  0
   51.7564    5.8836   -6.9053 C   0  0  0  0  0  0  0  0  0  0  0  0
   52.5830    5.6711   -5.8043 N   0  0  0  0  0  0  0  0  0  0  0  0
   43.1837    7.7503   -3.0698 C   0  0  1  0  0  0  0  0  0  0  0  0
   43.9164    8.9660   -3.0213 O   0  0  0  0  0  0  0  0  0  0  0  0
   41.9356    3.4591   -0.6181 C   0  0  2  0  0  0  0  0  0  0  0  0
   41.2098    4.6055   -0.1874 N   0  0  0  0  0  0  0  0  0  0  0  0
   43.9979    0.4471   -6.4848 C   0  0  2  0  0  0  0  0  0  0  0  0
   43.5295   -0.5983   -7.2482 O   0  0  0  0  0  0  0  0  0  0  0  0
   41.5567   -3.3591   -5.5017 C   0  0  1  0  0  0  0  0  0  0  0  0
   40.3226   -2.5867   -5.2968 O   0  0  0  0  0  0  0  0  0  0  0  0
   41.9673    7.8671   -4.0173 C   0  0  2  0  0  0  0  0  0  0  0  0
   41.0374    8.9289   -3.5552 O   0  0  0  0  0  0  0  0  0  0  0  0
   42.2795    3.5949   -2.1525 C   0  0  2  0  0  0  0  0  0  0  0  0
   43.5447    1.9063   -6.9875 C   0  0  2  0  0  0  0  0  0  0  0  0
   43.3948    2.5713   -5.8173 O   0  0  0  0  0  0  0  0  0  0  0  0
   41.4429   -4.3398   -6.8012 C   0  0  2  0  0  0  0  0  0  0  0  0
   42.6916   -5.1100   -6.9988 O   0  0  0  0  0  0  0  0  0  0  0  0
   41.1794    6.5159   -4.0755 C   0  0  2  0  0  0  0  0  0  0  0  0
   42.1465    5.5310   -4.5217 O   0  0  0  0  0  0  0  0  0  0  0  0
   43.0847    2.3177   -2.5685 C   0  0  2  0  0  0  0  0  0  0  0  0
   43.3553    2.5526   -3.9292 O   0  0  0  0  0  0  0  0  0  0  0  0
   42.1715    2.0321   -7.7453 C   0  0  0  0  0  0  0  0  0  0  0  0
   42.2183    1.2359   -8.9714 O   0  0  0  0  0  0  0  0  0  0  0  0
   41.1678   -3.4792   -8.1138 C   0  0  1  0  0  0  0  0  0  0  0  0
   42.3022   -2.4832   -8.2346 O   0  0  0  0  0  0  0  0  0  0  0  0
   40.0589    6.7121   -5.0144 C   0  0  0  0  0  0  0  0  0  0  0  0
   39.2948    5.6127   -5.0681 O   0  0  0  0  0  0  0  0  0  0  0  0
   42.2231    1.0036   -2.3375 C   0  0  1  0  0  0  0  0  0  0  0  0
   42.9538   -0.1272   -2.7031 O   0  0  0  0  0  0  0  0  0  0  0  0
   46.8942    2.1017   -6.3924 C   0  0  0  0  0  0  0  0  0  0  0  0
   41.0997   -4.5147   -9.2870 C   0  0  0  0  0  0  0  0  0  0  0  0
   40.0685   -5.4961   -9.1077 N   0  0  0  0  0  0  0  0  0  0  0  0
   48.4214    2.0813   -6.3139 C   0  0  0  0  0  0  0  0  0  0  0  0
   48.8993    3.2908   -7.0116 N   0  0  0  0  0  0  0  0  0  0  0  0
   50.3604    3.7038   -6.8221 C   0  0  0  0  0  0  0  0  0  0  0  0
  1  2  1  1  0  0  0
  1  8  1  0  0  0  0
  1 33  1  0  0  0  0
  3  4  1  6  0  0  0
  3 10  1  0  0  0  0
  3 42  1  0  0  0  0
  5 11  1  0  0  0  0
  5 29  1  0  0  0  0
  5 35  1  1  0  0  0
  6 13  1  0  0  0  0
  6 39  1  0  0  0  0
  6 22  1  6  0  0  0
  7 15  1  0  0  0  0
  8  9  1  1  0  0  0
  8 17  1  0  0  0  0
 10 19  1  0  0  0  0
 11 12  1  6  0  0  0
 11 21  1  0  0  0  0
 12 44  1  0  0  0  0
 13 14  1  6  0  0  0
 13 23  1  0  0  0  0
 15 16  1  0  0  0  0
 17 18  1  6  0  0  0
 17 25  1  0  0  0  0
 19 20  1  6  0  0  0
 19 27  1  0  0  0  0
 21 22  1  6  0  0  0
 21 28  1  0  0  0  0
 23 24  1  6  0  0  0
 23 30  1  0  0  0  0
 25 26  1  1  0  0  0
 25 32  1  0  0  0  0
 27  2  1  1  0  0  0
 27 34  1  0  0  0  0
 28 29  1  0  0  0  0
 28 36  1  1  0  0  0
 30 31  1  6  0  0  0
 30 38  1  0  0  0  0
 32 33  1  0  0  0  0
 32 40  1  6  0  0  0
 34 35  1  6  0  0  0
 34 42  1  0  0  0  0
 36 37  1  0  0  0  0
 38 39  1  0  0  0  0
 38 45  1  6  0  0  0
 40 41  1  0  0  0  0
 42 43  1  1  0  0  0
 44 47  1  0  0  0  0
 45 46  1  0  0  0  0
 47 48  1  0  0  0  0
 48 49  1  0  0  0  0
 49  7  1  0  0  0  0
M  END
>  <CHROM.1>
179.77026056,24.39113754,-65.24974810,-57.55569383,-56.89461571,179.00247170
88.60842632,-173.61120330,-61.56838527,-176.96074542,169.11744129,59.33810003
-170.92763875,166.32189147,-149.84557374,-175.22689414,43.52067623,2.09092737
-5.00920905,1.26103599,0.41153010,0.43858121

>  <Name>
2bee_lig

>  <RI>
0

>  <Rbt.Current_Directory>
/home/itssahil/PROJECTS/Mol_Feturizer/New_Systems/rnas/2bee

>  <Rbt.Executable>
rbdock ($Id: //depot/dev/client3/rdock/2013.1/src/exe/rbdock.cxx#4 $)

>  <Rbt.Library>
libRbt.so (2013.1, Build901 2013/11/27)

>  <Rbt.Parameter_File>
/export/apps/rDock/src/rDock_2013.1_src/data/scripts/dock_solv.prm

>  <Rbt.Receptor>
prm/pocket_docking_6.prm

>  <SCORE>
-10.1921

>  <SCORE.INTER>
0.699789

>  <SCORE.INTER.CONST>
1

>  <SCORE.INTER.POLAR>
-1.88288

>  <SCORE.INTER.ROT>
16

>  <SCORE.INTER.SOLV>
18.7955

>  <SCORE.INTER.VDW>
-13.789

>  <SCORE.INTER.norm>
0.0142814

>  <SCORE.INTRA>
-10.8988

>  <SCORE.INTRA.DIHEDRAL>
-25.5018

>  <SCORE.INTRA.DIHEDRAL.0>
36.0842

>  <SCORE.INTRA.POLAR>
0

>  <SCORE.INTRA.POLAR.0>
0

>  <SCORE.INTRA.REPUL>
0.39762

>  <SCORE.INTRA.REPUL.0>
0

>  <SCORE.INTRA.SOLV>
-3.39595

>  <SCORE.INTRA.SOLV.lig_0>
-126.444

>  <SCORE.INTRA.VDW>
1.56196

>  <SCORE.INTRA.VDW.0>
-7.40469

>  <SCORE.INTRA.norm>
-0.222425

>  <SCORE.RESTR>
0.00688516

>  <SCORE.RESTR.CAVITY>
0.00688516

>  <SCORE.RESTR.norm>
0.000140514

>  <SCORE.SYSTEM>
0

>  <SCORE.SYSTEM.CONST>
0

>  <SCORE.SYSTEM.DIHEDRAL>
0

>  <SCORE.SYSTEM.SOLV>
0

>  <SCORE.SYSTEM.norm>
0

>  <SCORE.heavy>
49

>  <SCORE.norm>
-0.208003

>  <RMSD>
9.566

$$$$
2bee_lig
 OpenBabel11021811423D
libRbt.so/2013.1/901 2013/11/27
 49 52  0  0  0  0  0  0  0  0999 V2000
   39.1482   -0.9103   -4.4741 C   0  0  2  0  0  0  0  0  0  0  0  0
   38.4705   -0.3374   -3.3630 O   0  0  0  0  0  0  0  0  0  0  0  0
   38.5216    3.6847   -1.5756 C   0  0  2  0  0  0  0  0  0  0  0  0
   39.0393    4.8975   -0.8857 N   0  0  0  0  0  0  0  0  0  0  0  0
   40.6059    2.1284   -5.2775 C   0  0  1  0  0  0  0  0  0  0  0  0
   44.1035    4.8083   -3.7559 C   0  0  1  0  0  0  0  0  0  0  0  0
   46.8095    3.2038   -9.6122 C   0  0  0  0  0  0  0  0  0  0  0  0
   38.4311   -2.2406   -4.9268 C   0  0  2  0  0  0  0  0  0  0  0  0
   37.0199   -1.9825   -5.1925 N   0  0  0  0  0  0  0  0  0  0  0  0
   38.7621    2.4067   -0.6498 C   0  0  0  0  0  0  0  0  0  0  0  0
   41.6709    3.0999   -5.6707 C   0  0  2  0  0  0  0  0  0  0  0  0
   42.1537    2.8966   -7.0476 O   0  0  0  0  0  0  0  0  0  0  0  0
   42.9699    5.8631   -3.2728 C   0  0  2  0  0  0  0  0  0  0  0  0
   41.7694    5.6956   -4.1582 N   0  0  0  0  0  0  0  0  0  0  0  0
   48.0480    3.8282   -9.3347 C   0  0  0  0  0  0  0  0  0  0  0  0
   49.1925    3.0533   -9.1599 N   0  0  0  0  0  0  0  0  0  0  0  0
   38.6222   -3.3497   -3.8020 C   0  0  1  0  0  0  0  0  0  0  0  0
   37.9778   -4.5443   -4.2202 O   0  0  0  0  0  0  0  0  0  0  0  0
   38.2179    1.0493   -1.3797 C   0  0  2  0  0  0  0  0  0  0  0  0
   38.4198   -0.0952   -0.5577 N   0  0  0  0  0  0  0  0  0  0  0  0
   42.5623    2.8732   -4.4737 C   0  0  2  0  0  0  0  0  0  0  0  0
   43.4739    3.5081   -3.6608 O   0  0  0  0  0  0  0  0  0  0  0  0
   43.5561    7.3145   -3.3988 C   0  0  1  0  0  0  0  0  0  0  0  0
   44.7125    7.4008   -2.4949 O   0  0  0  0  0  0  0  0  0  0  0  0
   40.1338   -3.5802   -3.5713 C   0  0  2  0  0  0  0  0  0  0  0  0
   40.3578   -4.5999   -2.5149 O   0  0  0  0  0  0  0  0  0  0  0  0
   38.9593    0.8491   -2.7586 C   0  0  2  0  0  0  0  0  0  0  0  0
   42.3934    1.2976   -4.1970 C   0  0  2  0  0  0  0  0  0  0  0  0
   41.0742    1.1108   -4.4393 O   0  0  0  0  0  0  0  0  0  0  0  0
   43.9846    7.5861   -4.9500 C   0  0  2  0  0  0  0  0  0  0  0  0
   42.8133    7.4942   -5.8505 O   0  0  0  0  0  0  0  0  0  0  0  0
   40.8348   -2.2527   -3.1286 C   0  0  2  0  0  0  0  0  0  0  0  0
   40.5671   -1.3073   -4.1958 O   0  0  0  0  0  0  0  0  0  0  0  0
   38.6951    2.1272   -3.6241 C   0  0  2  0  0  0  0  0  0  0  0  0
   39.3722    1.8344   -4.8223 O   0  0  0  0  0  0  0  0  0  0  0  0
   42.6520    0.7733   -2.7361 C   0  0  0  0  0  0  0  0  0  0  0  0
   44.0452    1.0254   -2.3688 O   0  0  0  0  0  0  0  0  0  0  0  0
   45.0647    6.5110   -5.4157 C   0  0  1  0  0  0  0  0  0  0  0  0
   44.4427    5.1448   -5.2148 O   0  0  0  0  0  0  0  0  0  0  0  0
   42.2671   -2.5600   -2.9560 C   0  0  0  0  0  0  0  0  0  0  0  0
   42.8858   -2.5915   -4.1441 O   0  0  0  0  0  0  0  0  0  0  0  0
   39.2622    3.4256   -2.9065 C   0  0  1  0  0  0  0  0  0  0  0  0
   39.0132    4.5579   -3.6825 O   0  0  0  0  0  0  0  0  0  0  0  0
   43.2251    1.9672   -7.4418 C   0  0  0  0  0  0  0  0  0  0  0  0
   45.3808    6.8551   -6.9106 C   0  0  0  0  0  0  0  0  0  0  0  0
   45.8689    8.1929   -7.0855 N   0  0  0  0  0  0  0  0  0  0  0  0
   43.6642    2.2814   -8.8727 C   0  0  0  0  0  0  0  0  0  0  0  0
   44.9328    1.5611   -9.0961 N   0  0  0  0  0  0  0  0  0  0  0  0
   46.2194    2.1752   -8.5404 C   0  0  0  0  0  0  0  0  0  0  0  0
  1  2  1  1  0  0  0
  1  8  1  0  0  0  0
  1 33  1  0  0  0  0
  3  4  1  1  0  0  0
  3 10  1  0  0  0  0
  3 42  1  0  0  0  0
  5 11  1  0  0  0  0
  5 29  1  0  0  0  0
  5 35  1  1  0  0  0
  6 13  1  0  0  0  0
  6 39  1  0  0  0  0
  6 22  1  6  0  0  0
  7 15  1  0  0  0  0
  8  9  1  1  0  0  0
  8 17  1  0  0  0  0
 10 19  1  0  0  0  0
 11 12  1  6  0  0  0
 11 21  1  0  0  0  0
 12 44  1  0  0  0  0
 13 14  1  6  0  0  0
 13 23  1  0  0  0  0
 15 16  1  0  0  0  0
 17 18  1  6  0  0  0
 17 25  1  0  0  0  0
 19 20  1  1  0  0  0
 19 27  1  0  0  0  0
 21 22  1  6  0  0  0
 21 28  1  0  0  0  0
 23 24  1  1  0  0  0
 23 30  1  0  0  0  0
 25 26  1  1  0  0  0
 25 32  1  0  0  0  0
 27  2  1  6  0  0  0
 27 34  1  0  0  0  0
 28 29  1  0  0  0  0
 28 36  1  1  0  0  0
 30 31  1  6  0  0  0
 30 38  1  0  0  0  0
 32 33  1  0  0  0  0
 32 40  1  6  0  0  0
 34 35  1  6  0  0  0
 34 42  1  0  0  0  0
 36 37  1  0  0  0  0
 38 39  1  0  0  0  0
 38 45  1  6  0  0  0
 40 41  1  0  0  0  0
 42 43  1  6  0  0  0
 44 47  1  0  0  0  0
 45 46  1  0  0  0  0
 47 48  1  0  0  0  0
 48 49  1  0  0  0  0
 49  7  1  0  0  0  0
M  END
>  <CHROM.1>
178.23229123,-59.96257785,77.21738368,60.46957235,-86.51502249,-166.44335748
-7.97671563,-167.05686091,-62.75556702,79.33892619,-94.86004339,58.23160835
166.55824649,-79.63609022,-86.65327417,-176.20290168,41.89689711,2.10192313
-4.57040658,-2.51344619,0.70599293,0.28685116

>  <Name>
2bee_lig

>  <RI>
0

>  <Rbt.Current_Directory>
/home/itssahil/PROJECTS/Mol_Feturizer/New_Systems/rnas/2bee

>  <Rbt.Executable>
rbdock ($Id: //depot/dev/client3/rdock/2013.1/src/exe/rbdock.cxx#4 $)

>  <Rbt.Library>
libRbt.so (2013.1, Build901 2013/11/27)

>  <Rbt.Parameter_File>
/export/apps/rDock/src/rDock_2013.1_src/data/scripts/dock_solv.prm

>  <Rbt.Receptor>
prm/pocket_docking_5.prm

>  <SCORE>
-7.41719

>  <SCORE.INTER>
-0.191999

>  <SCORE.INTER.CONST>
1

>  <SCORE.INTER.POLAR>
-1.78992

>  <SCORE.INTER.ROT>
16

>  <SCORE.INTER.SOLV>
10.3877

>  <SCORE.INTER.VDW>
-11.8908

>  <SCORE.INTER.norm>
-0.00391834

>  <SCORE.INTRA>
-7.24033

>  <SCORE.INTRA.DIHEDRAL>
-19.0656

>  <SCORE.INTRA.DIHEDRAL.0>
36.0842

>  <SCORE.INTRA.POLAR>
0

>  <SCORE.INTRA.POLAR.0>
0

>  <SCORE.INTRA.REPUL>
0.145788

>  <SCORE.INTRA.REPUL.0>
0

>  <SCORE.INTRA.SOLV>
0.984984

>  <SCORE.INTRA.SOLV.lig_0>
-126.444

>  <SCORE.INTRA.VDW>
1.07105

>  <SCORE.INTRA.VDW.0>
-7.40469

>  <SCORE.INTRA.norm>
-0.147762

>  <SCORE.RESTR>
0.0151384

>  <SCORE.RESTR.CAVITY>
0.0151384

>  <SCORE.RESTR.norm>
0.000308947

>  <SCORE.SYSTEM>
0

>  <SCORE.SYSTEM.CONST>
0

>  <SCORE.SYSTEM.DIHEDRAL>
0

>  <SCORE.SYSTEM.SOLV>
0

>  <SCORE.SYSTEM.norm>
0

>  <SCORE.heavy>
49

>  <SCORE.norm>
-0.151371

>  <RMSD>
9.578

$$$$
2bee_lig
 OpenBabel11021811423D
libRbt.so/2013.1/901 2013/11/27
 49 52  0  0  0  0  0  0  0  0999 V2000
   38.6249    2.1395   -3.5014 C   0  0  2  0  0  0  0  0  0  0  0  0
   38.9286    3.2246   -4.3688 O   0  0  0  0  0  0  0  0  0  0  0  0
   40.4556    7.3106   -3.7799 C   0  0  2  0  0  0  0  0  0  0  0  0
   41.2892    8.4253   -3.2531 N   0  0  0  0  0  0  0  0  0  0  0  0
   42.0178    4.1561   -6.7964 C   0  0  1  0  0  0  0  0  0  0  0  0
   46.3910    2.7909   -6.8879 C   0  0  1  0  0  0  0  0  0  0  0  0
   44.6241   10.1687   -9.8175 C   0  0  0  0  0  0  0  0  0  0  0  0
   39.8755    1.1891   -3.3541 C   0  0  2  0  0  0  0  0  0  0  0  0
   41.0382    1.9563   -2.9202 N   0  0  0  0  0  0  0  0  0  0  0  0
   39.7702    6.5411   -2.5609 C   0  0  0  0  0  0  0  0  0  0  0  0
   43.3382    4.5271   -7.3892 C   0  0  2  0  0  0  0  0  0  0  0  0
   43.2116    5.3660   -8.5936 O   0  0  0  0  0  0  0  0  0  0  0  0
   46.2365    2.7917   -5.2732 C   0  0  2  0  0  0  0  0  0  0  0  0
   45.1470    3.7579   -4.9094 N   0  0  0  0  0  0  0  0  0  0  0  0
   45.5690   10.1229   -8.7659 C   0  0  0  0  0  0  0  0  0  0  0  0
   45.4223    9.1910   -7.7408 N   0  0  0  0  0  0  0  0  0  0  0  0
   40.1427    0.4536   -4.7396 C   0  0  1  0  0  0  0  0  0  0  0  0
   41.2667   -0.4026   -4.5962 O   0  0  0  0  0  0  0  0  0  0  0  0
   38.8546    5.2985   -3.0986 C   0  0  2  0  0  0  0  0  0  0  0  0
   38.2316    4.6113   -2.0189 N   0  0  0  0  0  0  0  0  0  0  0  0
   43.8999    3.1273   -7.4505 C   0  0  2  0  0  0  0  0  0  0  0  0
   45.0835    2.4269   -7.3917 O   0  0  0  0  0  0  0  0  0  0  0  0
   47.6056    3.2337   -4.6436 C   0  0  1  0  0  0  0  0  0  0  0  0
   48.6106    2.2333   -5.0320 O   0  0  0  0  0  0  0  0  0  0  0  0
   38.8795   -0.3430   -5.1407 C   0  0  2  0  0  0  0  0  0  0  0  0
   39.0809   -1.0343   -6.4397 O   0  0  0  0  0  0  0  0  0  0  0  0
   39.7490    4.2921   -3.9222 C   0  0  2  0  0  0  0  0  0  0  0  0
   42.6079    2.2405   -7.8141 C   0  0  2  0  0  0  0  0  0  0  0  0
   41.6420    2.8378   -7.0763 O   0  0  0  0  0  0  0  0  0  0  0  0
   47.9932    4.7201   -5.1947 C   0  0  2  0  0  0  0  0  0  0  0  0
   46.9733    5.7178   -4.7998 O   0  0  0  0  0  0  0  0  0  0  0  0
   37.6450    0.6094   -5.2777 C   0  0  2  0  0  0  0  0  0  0  0  0
   37.5161    1.2531   -3.9841 O   0  0  0  0  0  0  0  0  0  0  0  0
   40.3983    5.0952   -5.0994 C   0  0  2  0  0  0  0  0  0  0  0  0
   41.1441    4.1095   -5.7717 O   0  0  0  0  0  0  0  0  0  0  0  0
   42.6111    0.7247   -7.3922 C   0  0  0  0  0  0  0  0  0  0  0  0
   41.3461    0.1071   -7.7894 O   0  0  0  0  0  0  0  0  0  0  0  0
   48.0950    4.7049   -6.7848 C   0  0  1  0  0  0  0  0  0  0  0  0
   46.7588    4.2209   -7.3082 O   0  0  0  0  0  0  0  0  0  0  0  0
   36.4894   -0.2341   -5.6365 C   0  0  0  0  0  0  0  0  0  0  0  0
   36.2428   -1.1272   -4.6685 O   0  0  0  0  0  0  0  0  0  0  0  0
   41.3071    6.2752   -4.5479 C   0  0  1  0  0  0  0  0  0  0  0  0
   41.8724    6.9883   -5.6053 O   0  0  0  0  0  0  0  0  0  0  0  0
   42.4443    6.6195   -8.6769 C   0  0  0  0  0  0  0  0  0  0  0  0
   48.4475    6.1745   -7.1962 C   0  0  0  0  0  0  0  0  0  0  0  0
   48.7412    6.3088   -8.5942 N   0  0  0  0  0  0  0  0  0  0  0  0
   42.7136    7.2870  -10.0263 C   0  0  0  0  0  0  0  0  0  0  0  0
   44.1367    7.6780  -10.0310 N   0  0  0  0  0  0  0  0  0  0  0  0
   44.5402    8.9259  -10.8191 C   0  0  0  0  0  0  0  0  0  0  0  0
  1  2  1  6  0  0  0
  1  8  1  0  0  0  0
  1 33  1  0  0  0  0
  3  4  1  1  0  0  0
  3 10  1  0  0  0  0
  3 42  1  0  0  0  0
  5 11  1  0  0  0  0
  5 29  1  0  0  0  0
  5 35  1  1  0  0  0
  6 13  1  0  0  0  0
  6 39  1  0  0  0  0
  6 22  1  6  0  0  0
  7 15  1  0  0  0  0
  8  9  1  6  0  0  0
  8 17  1  0  0  0  0
 10 19  1  0  0  0  0
 11 12  1  6  0  0  0
 11 21  1  0  0  0  0
 12 44  1  0  0  0  0
 13 14  1  6  0  0  0
 13 23  1  0  0  0  0
 15 16  1  0  0  0  0
 17 18  1  1  0  0  0
 17 25  1  0  0  0  0
 19 20  1  1  0  0  0
 19 27  1  0  0  0  0
 21 22  1  6  0  0  0
 21 28  1  0  0  0  0
 23 24  1  6  0  0  0
 23 30  1  0  0  0  0
 25 26  1  6  0  0  0
 25 32  1  0  0  0  0
 27  2  1  6  0  0  0
 27 34  1  0  0  0  0
 28 29  1  0  0  0  0
 28 36  1  1  0  0  0
 30 31  1  6  0  0  0
 30 38  1  0  0  0  0
 32 33  1  0  0  0  0
 32 40  1  1  0  0  0
 34 35  1  1  0  0  0
 34 42  1  0  0  0  0
 36 37  1  0  0  0  0
 38 39  1  0  0  0  0
 38 45  1  6  0  0  0
 40 41  1  0  0  0  0
 42 43  1  6  0  0  0
 44 47  1  0  0  0  0
 45 46  1  0  0  0  0
 47 48  1  0  0  0  0
 48 49  1  0  0  0  0
 49  7  1  0  0  0  0
M  END
>  <CHROM.1>
-74.93960026,69.63065730,72.89625068,-66.70516008,53.17819842,172.29163693
18.34930067,-82.08257795,178.96821540,61.65520700,-173.57836020,172.73364554
-65.70665200,-148.63693328,96.96726216,62.20105523,42.54023377,4.01545329
-6.02740811,2.50396934,-0.29190509,2.97639595

>  <Name>
2bee_lig

>  <RI>
0

>  <Rbt.Current_Directory>
/home/itssahil/PROJECTS/Mol_Feturizer/New_Systems/rnas/2bee

>  <Rbt.Executable>
rbdock ($Id: //depot/dev/client3/rdock/2013.1/src/exe/rbdock.cxx#4 $)

>  <Rbt.Library>
libRbt.so (2013.1, Build901 2013/11/27)

>  <Rbt.Parameter_File>
/export/apps/rDock/src/rDock_2013.1_src/data/scripts/dock_solv.prm

>  <Rbt.Receptor>
prm/pocket_docking_6.prm

>  <SCORE>
-16.0683

>  <SCORE.INTER>
-6.53017

>  <SCORE.INTER.CONST>
1

>  <SCORE.INTER.POLAR>
-0.938083

>  <SCORE.INTER.ROT>
16

>  <SCORE.INTER.SOLV>
20.2732

>  <SCORE.INTER.VDW>
-22.2509

>  <SCORE.INTER.norm>
-0.133269

>  <SCORE.INTRA>
-9.53811

>  <SCORE.INTRA.DIHEDRAL>
-24.8433

>  <SCORE.INTRA.DIHEDRAL.0>
36.0842

>  <SCORE.INTRA.POLAR>
0

>  <SCORE.INTRA.POLAR.0>
0

>  <SCORE.INTRA.REPUL>
0

>  <SCORE.INTRA.REPUL.0>
0

>  <SCORE.INTRA.SOLV>
5.41305

>  <SCORE.INTRA.SOLV.lig_0>
-126.444

>  <SCORE.INTRA.VDW>
0.177001

>  <SCORE.INTRA.VDW.0>
-7.40469

>  <SCORE.INTRA.norm>
-0.194655

>  <SCORE.RESTR>
0

>  <SCORE.RESTR.CAVITY>
0

>  <SCORE.RESTR.norm>
0

>  <SCORE.SYSTEM>
0

>  <SCORE.SYSTEM.CONST>
0

>  <SCORE.SYSTEM.DIHEDRAL>
0

>  <SCORE.SYSTEM.SOLV>
0

>  <SCORE.SYSTEM.norm>
0

>  <SCORE.heavy>
49

>  <SCORE.norm>
-0.327924

>  <RMSD>
9.582

$$$$
2bee_lig
 OpenBabel11021811423D
libRbt.so/2013.1/901 2013/11/27
 49 52  0  0  0  0  0  0  0  0999 V2000
   40.5842    1.1741   -2.9266 C   0  0  2  0  0  0  0  0  0  0  0  0
   41.3215    2.2582   -2.3758 O   0  0  0  0  0  0  0  0  0  0  0  0
   38.2804    5.4346   -2.1861 C   0  0  2  0  0  0  0  0  0  0  0  0
   37.5699    6.6593   -1.7275 N   0  0  0  0  0  0  0  0  0  0  0  0
   42.3165    5.7091   -4.3024 C   0  0  1  0  0  0  0  0  0  0  0  0
   45.7140    4.6763   -7.0066 C   0  0  1  0  0  0  0  0  0  0  0  0
   38.8737   10.3374   -0.9628 C   0  0  0  0  0  0  0  0  0  0  0  0
   41.5087   -0.0949   -3.0810 C   0  0  2  0  0  0  0  0  0  0  0  0
   42.1288   -0.4206   -1.8012 N   0  0  0  0  0  0  0  0  0  0  0  0
   38.4501    4.4305   -0.9570 C   0  0  0  0  0  0  0  0  0  0  0  0
   43.4737    6.5994   -4.6201 C   0  0  2  0  0  0  0  0  0  0  0  0
   43.1668    8.0283   -4.4349 O   0  0  0  0  0  0  0  0  0  0  0  0
   46.6037    4.6865   -5.6504 C   0  0  2  0  0  0  0  0  0  0  0  0
   47.2760    6.0243   -5.5437 N   0  0  0  0  0  0  0  0  0  0  0  0
   39.3722   11.6300   -0.6774 C   0  0  0  0  0  0  0  0  0  0  0  0
   39.9371   11.8969    0.5677 N   0  0  0  0  0  0  0  0  0  0  0  0
   42.5988    0.1828   -4.2065 C   0  0  1  0  0  0  0  0  0  0  0  0
   43.4228   -0.9660   -4.3416 O   0  0  0  0  0  0  0  0  0  0  0  0
   39.2396    3.0755   -1.4178 C   0  0  2  0  0  0  0  0  0  0  0  0
   39.3880    2.1693   -0.3302 N   0  0  0  0  0  0  0  0  0  0  0  0
   43.7693    6.0194   -5.9821 C   0  0  2  0  0  0  0  0  0  0  0  0
   44.7993    5.7896   -6.8660 O   0  0  0  0  0  0  0  0  0  0  0  0
   47.6673    3.5350   -5.7455 C   0  0  1  0  0  0  0  0  0  0  0  0
   46.9323    2.2646   -5.8313 O   0  0  0  0  0  0  0  0  0  0  0  0
   41.8803    0.5159   -5.5346 C   0  0  2  0  0  0  0  0  0  0  0  0
   42.8637    0.7980   -6.6113 O   0  0  0  0  0  0  0  0  0  0  0  0
   40.6608    3.4530   -1.9912 C   0  0  2  0  0  0  0  0  0  0  0  0
   42.3035    5.6785   -6.5501 C   0  0  2  0  0  0  0  0  0  0  0  0
   41.6756    5.2146   -5.4434 O   0  0  0  0  0  0  0  0  0  0  0  0
   48.6029    3.7778   -7.0605 C   0  0  2  0  0  0  0  0  0  0  0  0
   49.3356    5.0604   -6.9641 O   0  0  0  0  0  0  0  0  0  0  0  0
   40.9621    1.7724   -5.3671 C   0  0  2  0  0  0  0  0  0  0  0  0
   40.0405    1.4302   -4.3003 O   0  0  0  0  0  0  0  0  0  0  0  0
   40.4383    4.4385   -3.1878 C   0  0  2  0  0  0  0  0  0  0  0  0
   41.7503    4.6869   -3.6315 O   0  0  0  0  0  0  0  0  0  0  0  0
   42.1778    4.5465   -7.6356 C   0  0  0  0  0  0  0  0  0  0  0  0
   42.9236    3.3673   -7.1967 O   0  0  0  0  0  0  0  0  0  0  0  0
   47.7023    3.8088   -8.3747 C   0  0  1  0  0  0  0  0  0  0  0  0
   46.6759    4.9054   -8.1808 O   0  0  0  0  0  0  0  0  0  0  0  0
   40.3037    1.9998   -6.6672 C   0  0  0  0  0  0  0  0  0  0  0  0
   39.4851    3.0584   -6.5990 O   0  0  0  0  0  0  0  0  0  0  0  0
   39.6988    5.7587   -2.7055 C   0  0  1  0  0  0  0  0  0  0  0  0
   39.4986    6.6242   -3.7812 O   0  0  0  0  0  0  0  0  0  0  0  0
   42.9499    8.6875   -3.1368 C   0  0  0  0  0  0  0  0  0  0  0  0
   48.6960    4.0663   -9.5577 C   0  0  0  0  0  0  0  0  0  0  0  0
   49.6007    2.9743   -9.7760 N   0  0  0  0  0  0  0  0  0  0  0  0
   41.6135    8.2261   -2.5536 C   0  0  0  0  0  0  0  0  0  0  0  0
   41.0824    9.3535   -1.7631 N   0  0  0  0  0  0  0  0  0  0  0  0
   39.8752    9.0960   -0.8588 C   0  0  0  0  0  0  0  0  0  0  0  0
  1  2  1  6  0  0  0
  1  8  1  0  0  0  0
  1 33  1  0  0  0  0
  3  4  1  1  0  0  0
  3 10  1  0  0  0  0
  3 42  1  0  0  0  0
  5 11  1  0  0  0  0
  5 29  1  0  0  0  0
  5 35  1  1  0  0  0
  6 13  1  0  0  0  0
  6 39  1  0  0  0  0
  6 22  1  1  0  0  0
  7 15  1  0  0  0  0
  8  9  1  1  0  0  0
  8 17  1  0  0  0  0
 10 19  1  0  0  0  0
 11 12  1  6  0  0  0
 11 21  1  0  0  0  0
 12 44  1  0  0  0  0
 13 14  1  6  0  0  0
 13 23  1  0  0  0  0
 15 16  1  0  0  0  0
 17 18  1  6  0  0  0
 17 25  1  0  0  0  0
 19 20  1  1  0  0  0
 19 27  1  0  0  0  0
 21 22  1  6  0  0  0
 21 28  1  0  0  0  0
 23 24  1  6  0  0  0
 23 30  1  0  0  0  0
 25 26  1  6  0  0  0
 25 32  1  0  0  0  0
 27  2  1  6  0  0  0
 27 34  1  0  0  0  0
 28 29  1  0  0  0  0
 28 36  1  6  0  0  0
 30 31  1  1  0  0  0
 30 38  1  0  0  0  0
 32 33  1  0  0  0  0
 32 40  1  6  0  0  0
 34 35  1  1  0  0  0
 34 42  1  0  0  0  0
 36 37  1  0  0  0  0
 38 39  1  0  0  0  0
 38 45  1  6  0  0  0
 40 41  1  0  0  0  0
 42 43  1  6  0  0  0
 44 47  1  0  0  0  0
 45 46  1  0  0  0  0
 47 48  1  0  0  0  0
 48 49  1  0  0  0  0
 49  7  1  0  0  0  0
M  END
>  <CHROM.1>
-172.14266691,148.24876419,-65.42805397,-58.31546725,69.85491775,-70.89026554
87.82923254,35.22768729,48.17577212,179.37577693,-155.41352921,66.76776224
-148.70272462,-169.27972750,-139.13227671,-55.82395553,42.61041506,4.57084194
-4.48156420,2.63357477,0.59003347,0.19840844

>  <Name>
2bee_lig

>  <RI>
3.46266e+07

>  <Rbt.Current_Directory>
/home/itssahil/PROJECTS/Mol_Feturizer/New_Systems/rnas/2bee

>  <Rbt.Executable>
rbdock ($Id: //depot/dev/client3/rdock/2013.1/src/exe/rbdock.cxx#4 $)

>  <Rbt.Library>
libRbt.so (2013.1, Build901 2013/11/27)

>  <Rbt.Parameter_File>
/export/apps/rDock/src/rDock_2013.1_src/data/scripts/dock_solv.prm

>  <Rbt.Receptor>
prm/pocket_docking_4.prm

>  <SCORE>
0.0104776

>  <SCORE.INTER>
5.43365

>  <SCORE.INTER.CONST>
1

>  <SCORE.INTER.POLAR>
0

>  <SCORE.INTER.ROT>
16

>  <SCORE.INTER.SOLV>
13.6443

>  <SCORE.INTER.VDW>
-15.1923

>  <SCORE.INTER.norm>
0.110891

>  <SCORE.INTRA>
-5.51476

>  <SCORE.INTRA.DIHEDRAL>
-16.7629

>  <SCORE.INTRA.DIHEDRAL.0>
36.0842

>  <SCORE.INTRA.POLAR>
0

>  <SCORE.INTRA.POLAR.0>
0

>  <SCORE.INTRA.REPUL>
0.000445204

>  <SCORE.INTRA.REPUL.0>
0

>  <SCORE.INTRA.SOLV>
3.71512

>  <SCORE.INTRA.SOLV.lig_0>
-126.444

>  <SCORE.INTRA.VDW>
1.00688

>  <SCORE.INTRA.VDW.0>
-7.40469

>  <SCORE.INTRA.norm>
-0.112546

>  <SCORE.RESTR>
0.0915939

>  <SCORE.RESTR.CAVITY>
0.0915939

>  <SCORE.RESTR.norm>
0.00186926

>  <SCORE.SYSTEM>
0

>  <SCORE.SYSTEM.CONST>
0

>  <SCORE.SYSTEM.DIHEDRAL>
0

>  <SCORE.SYSTEM.SOLV>
0

>  <SCORE.SYSTEM.norm>
0

>  <SCORE.heavy>
49

>  <SCORE.norm>
0.00021383

>  <RMSD>
9.588

$$$$
2bee_lig
 OpenBabel11021811423D
libRbt.so/2013.1/901 2013/11/27
 49 52  0  0  0  0  0  0  0  0999 V2000
   41.5337    8.9897    0.2634 C   0  0  2  0  0  0  0  0  0  0  0  0
   41.8809    7.8253    1.0021 O   0  0  0  0  0  0  0  0  0  0  0  0
   41.6271    3.4766    0.3707 C   0  0  2  0  0  0  0  0  0  0  0  0
   41.0481    2.1483    0.0311 N   0  0  0  0  0  0  0  0  0  0  0  0
   42.2948    6.6081   -2.8657 C   0  0  1  0  0  0  0  0  0  0  0  0
   40.7196    3.3213   -5.9380 C   0  0  1  0  0  0  0  0  0  0  0  0
   43.3782    7.4284  -10.5827 C   0  0  0  0  0  0  0  0  0  0  0  0
   42.2180   10.2634    0.8946 C   0  0  2  0  0  0  0  0  0  0  0  0
   43.6594   10.0601    0.9920 N   0  0  0  0  0  0  0  0  0  0  0  0
   40.7465    4.1608    1.5127 C   0  0  0  0  0  0  0  0  0  0  0  0
   42.9503    6.0633   -4.0930 C   0  0  2  0  0  0  0  0  0  0  0  0
   43.3359    7.1129   -5.0521 O   0  0  0  0  0  0  0  0  0  0  0  0
   39.8479    2.2323   -5.1102 C   0  0  2  0  0  0  0  0  0  0  0  0
   40.7839    1.1742   -4.6028 N   0  0  0  0  0  0  0  0  0  0  0  0
   42.3231    6.6436  -10.0616 C   0  0  0  0  0  0  0  0  0  0  0  0
   42.5820    5.7071   -9.0632 N   0  0  0  0  0  0  0  0  0  0  0  0
   41.5702   10.5569    2.3181 C   0  0  1  0  0  0  0  0  0  0  0  0
   42.1888   11.7071    2.8762 O   0  0  0  0  0  0  0  0  0  0  0  0
   41.3436    5.6309    1.9052 C   0  0  2  0  0  0  0  0  0  0  0  0
   40.5699    6.2455    2.9299 N   0  0  0  0  0  0  0  0  0  0  0  0
   41.8879    5.0410   -4.4172 C   0  0  2  0  0  0  0  0  0  0  0  0
   41.7084    3.8061   -4.9982 O   0  0  0  0  0  0  0  0  0  0  0  0
   38.7790    1.6117   -6.0790 C   0  0  1  0  0  0  0  0  0  0  0  0
   37.8973    2.7037   -6.5170 O   0  0  0  0  0  0  0  0  0  0  0  0
   40.0479   10.7673    2.1468 C   0  0  2  0  0  0  0  0  0  0  0  0
   39.3998   11.0294    3.4572 O   0  0  0  0  0  0  0  0  0  0  0  0
   41.3646    6.5582    0.6282 C   0  0  2  0  0  0  0  0  0  0  0  0
   40.5299    5.7917   -3.9934 C   0  0  2  0  0  0  0  0  0  0  0  0
   40.9066    6.4342   -2.8623 O   0  0  0  0  0  0  0  0  0  0  0  0
   39.5421    0.9128   -7.3410 C   0  0  2  0  0  0  0  0  0  0  0  0
   40.4284   -0.1828   -6.8877 O   0  0  0  0  0  0  0  0  0  0  0  0
   39.3817    9.5000    1.5145 C   0  0  2  0  0  0  0  0  0  0  0  0
   40.0669    9.3005    0.2515 O   0  0  0  0  0  0  0  0  0  0  0  0
   42.2354    5.8419   -0.4586 C   0  0  2  0  0  0  0  0  0  0  0  0
   42.2056    6.7545   -1.5292 O   0  0  0  0  0  0  0  0  0  0  0  0
   39.2881    4.9068   -3.6051 C   0  0  0  0  0  0  0  0  0  0  0  0
   38.2255    5.7640   -3.0804 O   0  0  0  0  0  0  0  0  0  0  0  0
   40.4266    1.9914   -8.1113 C   0  0  1  0  0  0  0  0  0  0  0  0
   41.3907    2.5754   -7.0999 O   0  0  0  0  0  0  0  0  0  0  0  0
   37.9447    9.7982    1.3672 C   0  0  0  0  0  0  0  0  0  0  0  0
   37.7563   10.7519    0.4451 O   0  0  0  0  0  0  0  0  0  0  0  0
   41.6150    4.4316   -0.8438 C   0  0  1  0  0  0  0  0  0  0  0  0
   42.4038    3.7998   -1.8055 O   0  0  0  0  0  0  0  0  0  0  0  0
   43.9009    6.8727   -6.3900 C   0  0  0  0  0  0  0  0  0  0  0  0
   41.1208    1.2088   -9.2770 C   0  0  0  0  0  0  0  0  0  0  0  0
   40.1920    0.4790  -10.0916 N   0  0  0  0  0  0  0  0  0  0  0  0
   44.1012    8.2119   -7.1009 C   0  0  0  0  0  0  0  0  0  0  0  0
   44.6579    7.9071   -8.4333 N   0  0  0  0  0  0  0  0  0  0  0  0
   44.0110    8.5650   -9.6539 C   0  0  0  0  0  0  0  0  0  0  0  0
  1  2  1  1  0  0  0
  1  8  1  0  0  0  0
  1 33  1  0  0  0  0
  3  4  1  6  0  0  0
  3 10  1  0  0  0  0
  3 42  1  0  0  0  0
  5 11  1  0  0  0  0
  5 29  1  0  0  0  0
  5 35  1  1  0  0  0
  6 13  1  0  0  0  0
  6 39  1  0  0  0  0
  6 22  1  1  0  0  0
  7 15  1  0  0  0  0
  8  9  1  1  0  0  0
  8 17  1  0  0  0  0
 10 19  1  0  0  0  0
 11 12  1  6  0  0  0
 11 21  1  0  0  0  0
 12 44  1  0  0  0  0
 13 14  1  6  0  0  0
 13 23  1  0  0  0  0
 15 16  1  0  0  0  0
 17 18  1  6  0  0  0
 17 25  1  0  0  0  0
 19 20  1  1  0  0  0
 19 27  1  0  0  0  0
 21 22  1  6  0  0  0
 21 28  1  0  0  0  0
 23 24  1  6  0  0  0
 23 30  1  0  0  0  0
 25 26  1  1  0  0  0
 25 32  1  0  0  0  0
 27  2  1  1  0  0  0
 27 34  1  0  0  0  0
 28 29  1  0  0  0  0
 28 36  1  1  0  0  0
 30 31  1  1  0  0  0
 30 38  1  0  0  0  0
 32 33  1  0  0  0  0
 32 40  1  6  0  0  0
 34 35  1  6  0  0  0
 34 42  1  0  0  0  0
 36 37  1  0  0  0  0
 38 39  1  0  0  0  0
 38 45  1  6  0  0  0
 40 41  1  0  0  0  0
 42 43  1  6  0  0  0
 44 47  1  0  0  0  0
 45 46  1  0  0  0  0
 47 48  1  0  0  0  0
 48 49  1  0  0  0  0
 49  7  1  0  0  0  0
M  END
>  <CHROM.1>
179.12447414,-49.15864462,-113.16599253,-70.93883730,-174.92602415,177.19481857
-134.70825788,-154.41741802,172.32048534,67.68029234,-151.24881080,53.04457917
-179.60937564,131.18726792,-116.24242160,63.44970653,41.20872522,5.95111162
-3.11841790,-1.68749463,-1.13904986,-2.22705001

>  <Name>
2bee_lig

>  <RI>
0

>  <Rbt.Current_Directory>
/home/itssahil/PROJECTS/Mol_Feturizer/New_Systems/rnas/2bee

>  <Rbt.Executable>
rbdock ($Id: //depot/dev/client3/rdock/2013.1/src/exe/rbdock.cxx#4 $)

>  <Rbt.Library>
libRbt.so (2013.1, Build901 2013/11/27)

>  <Rbt.Parameter_File>
/export/apps/rDock/src/rDock_2013.1_src/data/scripts/dock_solv.prm

>  <Rbt.Receptor>
prm/pocket_docking_5.prm

>  <SCORE>
-9.01988

>  <SCORE.INTER>
-3.40843

>  <SCORE.INTER.CONST>
1

>  <SCORE.INTER.POLAR>
0

>  <SCORE.INTER.ROT>
16

>  <SCORE.INTER.SOLV>
12.0414

>  <SCORE.INTER.VDW>
-20.5528

>  <SCORE.INTER.norm>
-0.0695599

>  <SCORE.INTRA>
-5.64553

>  <SCORE.INTRA.DIHEDRAL>
-15.0545

>  <SCORE.INTRA.DIHEDRAL.0>
36.0842

>  <SCORE.INTRA.POLAR>
0

>  <SCORE.INTRA.POLAR.0>
0

>  <SCORE.INTRA.REPUL>
0

>  <SCORE.INTRA.REPUL.0>
0

>  <SCORE.INTRA.SOLV>
1.83891

>  <SCORE.INTRA.SOLV.lig_0>
-126.444

>  <SCORE.INTRA.VDW>
0.962274

>  <SCORE.INTRA.VDW.0>
-7.40469

>  <SCORE.INTRA.norm>
-0.115215

>  <SCORE.RESTR>
0.0340847

>  <SCORE.RESTR.CAVITY>
0.0340847

>  <SCORE.RESTR.norm>
0.000695607

>  <SCORE.SYSTEM>
0

>  <SCORE.SYSTEM.CONST>
0

>  <SCORE.SYSTEM.DIHEDRAL>
0

>  <SCORE.SYSTEM.SOLV>
0

>  <SCORE.SYSTEM.norm>
0

>  <SCORE.heavy>
49

>  <SCORE.norm>
-0.184079

>  <RMSD>
9.601

$$$$
2bee_lig
 OpenBabel11021811423D
libRbt.so/2013.1/901 2013/11/27
 49 52  0  0  0  0  0  0  0  0999 V2000
   39.7279   -1.3368   -4.3247 C   0  0  2  0  0  0  0  0  0  0  0  0
   40.9795   -1.6638   -4.9151 O   0  0  0  0  0  0  0  0  0  0  0  0
   45.1021   -0.2206   -4.3713 C   0  0  2  0  0  0  0  0  0  0  0  0
   46.2549    0.7191   -4.3182 N   0  0  0  0  0  0  0  0  0  0  0  0
   41.0122    0.5704   -2.3404 C   0  0  1  0  0  0  0  0  0  0  0  0
   36.4522    0.9402   -1.9858 C   0  0  1  0  0  0  0  0  0  0  0  0
   43.5146    7.2798   -4.8265 C   0  0  0  0  0  0  0  0  0  0  0  0
   38.6878   -2.4981   -4.5667 C   0  0  2  0  0  0  0  0  0  0  0  0
   39.2306   -3.7639   -4.0854 N   0  0  0  0  0  0  0  0  0  0  0  0
   44.4229   -0.1432   -5.8137 C   0  0  0  0  0  0  0  0  0  0  0  0
   39.8795    1.4685   -2.7183 C   0  0  2  0  0  0  0  0  0  0  0  0
   40.3074    2.8537   -2.9797 O   0  0  0  0  0  0  0  0  0  0  0  0
   35.2540    0.7336   -0.9121 C   0  0  2  0  0  0  0  0  0  0  0  0
   35.5452   -0.5086   -0.1214 N   0  0  0  0  0  0  0  0  0  0  0  0
   43.4344    7.4862   -3.4294 C   0  0  0  0  0  0  0  0  0  0  0  0
   44.3296    8.3502   -2.8027 N   0  0  0  0  0  0  0  0  0  0  0  0
   38.3270   -2.5663   -6.1150 C   0  0  1  0  0  0  0  0  0  0  0  0
   37.3873   -3.6108   -6.3224 O   0  0  0  0  0  0  0  0  0  0  0  0
   43.1414   -1.1533   -5.9080 C   0  0  2  0  0  0  0  0  0  0  0  0
   42.5340   -1.0981   -7.1942 N   0  0  0  0  0  0  0  0  0  0  0  0
   38.9853    1.1187   -1.5535 C   0  0  2  0  0  0  0  0  0  0  0  0
   37.6611    1.0125   -1.1926 O   0  0  0  0  0  0  0  0  0  0  0  0
   33.9023    0.5889   -1.6983 C   0  0  1  0  0  0  0  0  0  0  0  0
   33.6835    1.8451   -2.4302 O   0  0  0  0  0  0  0  0  0  0  0  0
   37.7542   -1.2009   -6.5610 C   0  0  2  0  0  0  0  0  0  0  0  0
   37.4177   -1.2160   -8.0075 O   0  0  0  0  0  0  0  0  0  0  0  0
   42.0793   -0.7750   -4.8034 C   0  0  2  0  0  0  0  0  0  0  0  0
   40.0317    0.9201   -0.3480 C   0  0  2  0  0  0  0  0  0  0  0  0
   41.0591    0.2940   -0.9697 O   0  0  0  0  0  0  0  0  0  0  0  0
   34.0061   -0.6865   -2.7113 C   0  0  2  0  0  0  0  0  0  0  0  0
   34.2287   -1.9445   -1.9636 O   0  0  0  0  0  0  0  0  0  0  0  0
   38.7924   -0.0568   -6.3104 C   0  0  2  0  0  0  0  0  0  0  0  0
   39.0794   -0.1084   -4.8894 O   0  0  0  0  0  0  0  0  0  0  0  0
   42.7951   -0.8630   -3.4133 C   0  0  2  0  0  0  0  0  0  0  0  0
   41.7645   -0.5340   -2.5137 O   0  0  0  0  0  0  0  0  0  0  0  0
   39.6094   -0.0084    0.8500 C   0  0  0  0  0  0  0  0  0  0  0  0
   39.4311   -1.3767    0.3650 O   0  0  0  0  0  0  0  0  0  0  0  0
   35.2171   -0.4818   -3.7265 C   0  0  1  0  0  0  0  0  0  0  0  0
   36.4672   -0.2993   -2.8914 O   0  0  0  0  0  0  0  0  0  0  0  0
   38.1558    1.2026   -6.7399 C   0  0  0  0  0  0  0  0  0  0  0  0
   38.9537    2.2455   -6.4733 O   0  0  0  0  0  0  0  0  0  0  0  0
   44.0151    0.1511   -3.3382 C   0  0  1  0  0  0  0  0  0  0  0  0
   44.6497    0.0572   -2.0993 O   0  0  0  0  0  0  0  0  0  0  0  0
   41.2147    3.2710   -4.0612 C   0  0  0  0  0  0  0  0  0  0  0  0
   35.2315   -1.7642   -4.6256 C   0  0  0  0  0  0  0  0  0  0  0  0
   34.0316   -1.9202   -5.3967 N   0  0  0  0  0  0  0  0  0  0  0  0
   41.3908    4.7895   -4.0141 C   0  0  0  0  0  0  0  0  0  0  0  0
   42.1479    5.1675   -5.2233 N   0  0  0  0  0  0  0  0  0  0  0  0
   42.2499    6.6529   -5.5764 C   0  0  0  0  0  0  0  0  0  0  0  0
  1  2  1  6  0  0  0
  1  8  1  0  0  0  0
  1 33  1  0  0  0  0
  3  4  1  6  0  0  0
  3 10  1  0  0  0  0
  3 42  1  0  0  0  0
  5 11  1  0  0  0  0
  5 29  1  0  0  0  0
  5 35  1  6  0  0  0
  6 13  1  0  0  0  0
  6 39  1  0  0  0  0
  6 22  1  1  0  0  0
  7 15  1  0  0  0  0
  8  9  1  6  0  0  0
  8 17  1  0  0  0  0
 10 19  1  0  0  0  0
 11 12  1  1  0  0  0
 11 21  1  0  0  0  0
 12 44  1  0  0  0  0
 13 14  1  6  0  0  0
 13 23  1  0  0  0  0
 15 16  1  0  0  0  0
 17 18  1  1  0  0  0
 17 25  1  0  0  0  0
 19 20  1  6  0  0  0
 19 27  1  0  0  0  0
 21 22  1  1  0  0  0
 21 28  1  0  0  0  0
 23 24  1  6  0  0  0
 23 30  1  0  0  0  0
 25 26  1  6  0  0  0
 25 32  1  0  0  0  0
 27  2  1  1  0  0  0
 27 34  1  0  0  0  0
 28 29  1  0  0  0  0
 28 36  1  1  0  0  0
 30 31  1  1  0  0  0
 30 38  1  0  0  0  0
 32 33  1  0  0  0  0
 32 40  1  1  0  0  0
 34 35  1  1  0  0  0
 34 42  1  0  0  0  0
 36 37  1  0  0  0  0
 38 39  1  0  0  0  0
 38 45  1  6  0  0  0
 40 41  1  0  0  0  0
 42 43  1  1  0  0  0
 44 47  1  0  0  0  0
 45 46  1  0  0  0  0
 47 48  1  0  0  0  0
 48 49  1  0  0  0  0
 49  7  1  0  0  0  0
M  END
>  <CHROM.1>
-178.83703539,78.36306708,176.57166874,-162.10945915,63.53381337,178.93906354
16.11892461,-161.91408938,63.77680041,175.91553131,-61.78224009,62.37496595
-172.21510275,168.87528938,87.83510262,-72.88777635,39.60094808,0.56356472
-3.71238617,-2.70711224,0.32352352,0.43320747

>  <Name>
2bee_lig

>  <RI>
0

>  <Rbt.Current_Directory>
/home/itssahil/PROJECTS/Mol_Feturizer/New_Systems/rnas/2bee

>  <Rbt.Executable>
rbdock ($Id: //depot/dev/client3/rdock/2013.1/src/exe/rbdock.cxx#4 $)

>  <Rbt.Library>
libRbt.so (2013.1, Build901 2013/11/27)

>  <Rbt.Parameter_File>
/export/apps/rDock/src/rDock_2013.1_src/data/scripts/dock_solv.prm

>  <Rbt.Receptor>
prm/pocket_docking_6.prm

>  <SCORE>
-13.557

>  <SCORE.INTER>
1.08026

>  <SCORE.INTER.CONST>
1

>  <SCORE.INTER.POLAR>
-1.24965

>  <SCORE.INTER.ROT>
16

>  <SCORE.INTER.SOLV>
9.24087

>  <SCORE.INTER.VDW>
-12.4613

>  <SCORE.INTER.norm>
0.0220461

>  <SCORE.INTRA>
-15.0709

>  <SCORE.INTRA.DIHEDRAL>
-26.4081

>  <SCORE.INTRA.DIHEDRAL.0>
36.0842

>  <SCORE.INTRA.POLAR>
0

>  <SCORE.INTRA.POLAR.0>
0

>  <SCORE.INTRA.REPUL>
0

>  <SCORE.INTRA.REPUL.0>
0

>  <SCORE.INTRA.SOLV>
-1.23261

>  <SCORE.INTRA.SOLV.lig_0>
-126.444

>  <SCORE.INTRA.VDW>
-1.25052

>  <SCORE.INTRA.VDW.0>
-7.40469

>  <SCORE.INTRA.norm>
-0.307569

>  <SCORE.RESTR>
0.433606

>  <SCORE.RESTR.CAVITY>
0.433606

>  <SCORE.RESTR.norm>
0.0088491

>  <SCORE.SYSTEM>
0

>  <SCORE.SYSTEM.CONST>
0

>  <SCORE.SYSTEM.DIHEDRAL>
0

>  <SCORE.SYSTEM.SOLV>
0

>  <SCORE.SYSTEM.norm>
0

>  <SCORE.heavy>
49

>  <SCORE.norm>
-0.276673

>  <RMSD>
9.610

$$$$
2bee_lig
 OpenBabel11021811423D
libRbt.so/2013.1/901 2013/11/27
 49 52  0  0  0  0  0  0  0  0999 V2000
   40.6577    6.2051    0.6306 C   0  0  2  0  0  0  0  0  0  0  0  0
   39.7476    7.2789    0.4289 O   0  0  0  0  0  0  0  0  0  0  0  0
   39.8863   11.3443   -1.2526 C   0  0  2  0  0  0  0  0  0  0  0  0
   40.3763   12.7213   -1.5331 N   0  0  0  0  0  0  0  0  0  0  0  0
   41.2066    6.8870   -2.8277 C   0  0  1  0  0  0  0  0  0  0  0  0
   43.3412    6.7454   -7.0613 C   0  0  1  0  0  0  0  0  0  0  0  0
   41.3108    0.3427   -3.3615 C   0  0  0  0  0  0  0  0  0  0  0  0
   39.8717    4.8591    0.8744 C   0  0  2  0  0  0  0  0  0  0  0  0
   38.9411    4.6176   -0.2229 N   0  0  0  0  0  0  0  0  0  0  0  0
   39.7370   11.1474    0.3244 C   0  0  0  0  0  0  0  0  0  0  0  0
   40.6555    6.3356   -4.1024 C   0  0  2  0  0  0  0  0  0  0  0  0
   40.1842    4.9460   -3.9707 O   0  0  0  0  0  0  0  0  0  0  0  0
   42.9208    7.1257   -8.5810 C   0  0  2  0  0  0  0  0  0  0  0  0
   41.7074    6.3203   -8.9447 N   0  0  0  0  0  0  0  0  0  0  0  0
   42.7012    0.1915   -3.1501 C   0  0  0  0  0  0  0  0  0  0  0  0
   43.5008    1.3160   -2.9588 N   0  0  0  0  0  0  0  0  0  0  0  0
   39.1194    4.9360    2.2745 C   0  0  1  0  0  0  0  0  0  0  0  0
   38.4189    3.7190    2.4873 O   0  0  0  0  0  0  0  0  0  0  0  0
   39.2124    9.6396    0.6751 C   0  0  2  0  0  0  0  0  0  0  0  0
   39.0674    9.4570    2.0793 N   0  0  0  0  0  0  0  0  0  0  0  0
   41.8359    6.6960   -4.9715 C   0  0  2  0  0  0  0  0  0  0  0  0
   42.1717    7.0416   -6.2610 O   0  0  0  0  0  0  0  0  0  0  0  0
   44.1232    6.7801   -9.5302 C   0  0  1  0  0  0  0  0  0  0  0  0
   45.2605    7.6167   -9.1201 O   0  0  0  0  0  0  0  0  0  0  0  0
   40.1574    5.1876    3.3927 C   0  0  2  0  0  0  0  0  0  0  0  0
   39.4939    5.2820    4.7182 O   0  0  0  0  0  0  0  0  0  0  0  0
   40.2267    8.5738    0.1037 C   0  0  2  0  0  0  0  0  0  0  0  0
   43.0868    6.4676   -3.9863 C   0  0  2  0  0  0  0  0  0  0  0  0
   42.6048    6.9334   -2.8095 O   0  0  0  0  0  0  0  0  0  0  0  0
   44.4687    5.1905   -9.3993 C   0  0  2  0  0  0  0  0  0  0  0  0
   43.3159    4.3586   -9.8123 O   0  0  0  0  0  0  0  0  0  0  0  0
   40.9343    6.5220    3.1366 C   0  0  2  0  0  0  0  0  0  0  0  0
   41.5438    6.3621    1.8300 O   0  0  0  0  0  0  0  0  0  0  0  0
   40.3389    8.8121   -1.4400 C   0  0  2  0  0  0  0  0  0  0  0  0
   41.2368    7.8066   -1.8434 O   0  0  0  0  0  0  0  0  0  0  0  0
   44.4076    7.2736   -4.2718 C   0  0  0  0  0  0  0  0  0  0  0  0
   44.4225    8.4872   -3.4554 O   0  0  0  0  0  0  0  0  0  0  0  0
   44.8346    4.8323   -7.8904 C   0  0  1  0  0  0  0  0  0  0  0  0
   43.6504    5.2419   -7.0398 O   0  0  0  0  0  0  0  0  0  0  0  0
   41.9119    6.6669    4.2316 C   0  0  0  0  0  0  0  0  0  0  0  0
   41.9830    7.9442    4.6300 O   0  0  0  0  0  0  0  0  0  0  0  0
   40.8809   10.2722   -1.7508 C   0  0  1  0  0  0  0  0  0  0  0  0
   40.9681   10.4754   -3.1282 O   0  0  0  0  0  0  0  0  0  0  0  0
   39.6857    4.1115   -5.0762 C   0  0  0  0  0  0  0  0  0  0  0  0
   45.1237    3.2930   -7.8834 C   0  0  0  0  0  0  0  0  0  0  0  0
   45.4651    2.7939   -6.5822 N   0  0  0  0  0  0  0  0  0  0  0  0
   40.8659    3.4129   -5.7528 C   0  0  0  0  0  0  0  0  0  0  0  0
   41.4196    2.4633   -4.7681 N   0  0  0  0  0  0  0  0  0  0  0  0
   40.8192    1.0573   -4.7041 C   0  0  0  0  0  0  0  0  0  0  0  0
  1  2  1  1  0  0  0
  1  8  1  0  0  0  0
  1 33  1  0  0  0  0
  3  4  1  1  0  0  0
  3 10  1  0  0  0  0
  3 42  1  0  0  0  0
  5 11  1  0  0  0  0
  5 29  1  0  0  0  0
  5 35  1  6  0  0  0
  6 13  1  0  0  0  0
  6 39  1  0  0  0  0
  6 22  1  1  0  0  0
  7 15  1  0  0  0  0
  8  9  1  6  0  0  0
  8 17  1  0  0  0  0
 10 19  1  0  0  0  0
 11 12  1  1  0  0  0
 11 21  1  0  0  0  0
 12 44  1  0  0  0  0
 13 14  1  6  0  0  0
 13 23  1  0  0  0  0
 15 16  1  0  0  0  0
 17 18  1  1  0  0  0
 17 25  1  0  0  0  0
 19 20  1  1  0  0  0
 19 27  1  0  0  0  0
 21 22  1  6  0  0  0
 21 28  1  0  0  0  0
 23 24  1  1  0  0  0
 23 30  1  0  0  0  0
 25 26  1  1  0  0  0
 25 32  1  0  0  0  0
 27  2  1  6  0  0  0
 27 34  1  0  0  0  0
 28 29  1  0  0  0  0
 28 36  1  6  0  0  0
 30 31  1  1  0  0  0
 30 38  1  0  0  0  0
 32 33  1  0  0  0  0
 32 40  1  1  0  0  0
 34 35  1  1  0  0  0
 34 42  1  0  0  0  0
 36 37  1  0  0  0  0
 38 39  1  0  0  0  0
 38 45  1  6  0  0  0
 40 41  1  0  0  0  0
 42 43  1  6  0  0  0
 44 47  1  0  0  0  0
 45 46  1  0  0  0  0
 47 48  1  0  0  0  0
 48 49  1  0  0  0  0
 49  7  1  0  0  0  0
M  END
>  <CHROM.1>
-175.88567563,15.31598564,165.84869863,66.33254066,-175.25235817,86.61811007
-145.26129470,-150.15665490,95.24644789,-140.19936060,130.69087840,-179.59688046
66.64050023,87.44762793,-166.31570796,-58.39741618,41.63948418,6.20235675
-2.79406328,2.99561457,1.23813939,-0.08155857

>  <Name>
2bee_lig

>  <RI>
3.46266e+07

>  <Rbt.Current_Directory>
/home/itssahil/PROJECTS/Mol_Feturizer/New_Systems/rnas/2bee

>  <Rbt.Executable>
rbdock ($Id: //depot/dev/client3/rdock/2013.1/src/exe/rbdock.cxx#4 $)

>  <Rbt.Library>
libRbt.so (2013.1, Build901 2013/11/27)

>  <Rbt.Parameter_File>
/export/apps/rDock/src/rDock_2013.1_src/data/scripts/dock_solv.prm

>  <Rbt.Receptor>
prm/pocket_docking_4.prm

>  <SCORE>
-5.25954

>  <SCORE.INTER>
-3.91811

>  <SCORE.INTER.CONST>
1

>  <SCORE.INTER.POLAR>
-0.958621

>  <SCORE.INTER.ROT>
16

>  <SCORE.INTER.SOLV>
19.5445

>  <SCORE.INTER.VDW>
-20.1982

>  <SCORE.INTER.norm>
-0.0799614

>  <SCORE.INTRA>
-1.70196

>  <SCORE.INTRA.DIHEDRAL>
-4.59391

>  <SCORE.INTRA.DIHEDRAL.0>
36.0842

>  <SCORE.INTRA.POLAR>
0

>  <SCORE.INTRA.POLAR.0>
0

>  <SCORE.INTRA.REPUL>
0

>  <SCORE.INTRA.REPUL.0>
0

>  <SCORE.INTRA.SOLV>
-0.432546

>  <SCORE.INTRA.SOLV.lig_0>
-126.444

>  <SCORE.INTRA.VDW>
0.811262

>  <SCORE.INTRA.VDW.0>
-7.40469

>  <SCORE.INTRA.norm>
-0.034734

>  <SCORE.RESTR>
0.360533

>  <SCORE.RESTR.CAVITY>
0.360533

>  <SCORE.RESTR.norm>
0.00735781

>  <SCORE.SYSTEM>
0

>  <SCORE.SYSTEM.CONST>
0

>  <SCORE.SYSTEM.DIHEDRAL>
0

>  <SCORE.SYSTEM.SOLV>
0

>  <SCORE.SYSTEM.norm>
0

>  <SCORE.heavy>
49

>  <SCORE.norm>
-0.107338

>  <RMSD>
9.655

$$$$
2bee_lig
 OpenBabel11021811423D
libRbt.so/2013.1/901 2013/11/27
 49 52  0  0  0  0  0  0  0  0999 V2000
   38.7178    3.2868   -1.8161 C   0  0  2  0  0  0  0  0  0  0  0  0
   39.9664    3.1803   -2.4883 O   0  0  0  0  0  0  0  0  0  0  0  0
   41.2595    3.1616   -6.6957 C   0  0  2  0  0  0  0  0  0  0  0  0
   41.3223    3.5278   -8.1368 N   0  0  0  0  0  0  0  0  0  0  0  0
   42.9401    5.7352   -3.1455 C   0  0  1  0  0  0  0  0  0  0  0  0
   47.2049    5.7929   -5.0009 C   0  0  1  0  0  0  0  0  0  0  0  0
   44.5420   10.9877   -0.2335 C   0  0  0  0  0  0  0  0  0  0  0  0
   38.3330    4.8032   -1.6120 C   0  0  2  0  0  0  0  0  0  0  0  0
   38.3505    5.5003   -2.8935 N   0  0  0  0  0  0  0  0  0  0  0  0
   39.7700    2.7229   -6.3261 C   0  0  0  0  0  0  0  0  0  0  0  0
   44.4011    5.8407   -2.8501 C   0  0  2  0  0  0  0  0  0  0  0  0
   44.6849    6.6001   -1.6201 O   0  0  0  0  0  0  0  0  0  0  0  0
   47.8854    6.0777   -6.4455 C   0  0  2  0  0  0  0  0  0  0  0  0
   47.0369    5.4248   -7.4976 N   0  0  0  0  0  0  0  0  0  0  0  0
   43.5098   11.8548    0.1949 C   0  0  0  0  0  0  0  0  0  0  0  0
   42.5978   12.3586   -0.7299 N   0  0  0  0  0  0  0  0  0  0  0  0
   39.3383    5.4650   -0.5711 C   0  0  1  0  0  0  0  0  0  0  0  0
   38.9814    6.8277   -0.3903 O   0  0  0  0  0  0  0  0  0  0  0  0
   39.6563    2.3249   -4.7449 C   0  0  2  0  0  0  0  0  0  0  0  0
   38.3330    1.9233   -4.4074 N   0  0  0  0  0  0  0  0  0  0  0  0
   44.8165    6.3462   -4.2105 C   0  0  2  0  0  0  0  0  0  0  0  0
   45.8656    6.3333   -5.1017 O   0  0  0  0  0  0  0  0  0  0  0  0
   49.3330    5.4691   -6.4412 C   0  0  1  0  0  0  0  0  0  0  0  0
   50.1000    6.1685   -5.3999 O   0  0  0  0  0  0  0  0  0  0  0  0
   39.2692    4.6863    0.7631 C   0  0  2  0  0  0  0  0  0  0  0  0
   40.2063    5.2631    1.7607 O   0  0  0  0  0  0  0  0  0  0  0  0
   40.0813    3.5547   -3.8516 C   0  0  2  0  0  0  0  0  0  0  0  0
   43.5871    7.2956   -4.6286 C   0  0  2  0  0  0  0  0  0  0  0  0
   42.5236    6.5958   -4.1668 O   0  0  0  0  0  0  0  0  0  0  0  0
   49.2394    3.8670   -6.1445 C   0  0  2  0  0  0  0  0  0  0  0  0
   48.4632    3.1744   -7.1976 O   0  0  0  0  0  0  0  0  0  0  0  0
   39.6471    3.1829    0.5466 C   0  0  2  0  0  0  0  0  0  0  0  0
   38.7034    2.6921   -0.4397 O   0  0  0  0  0  0  0  0  0  0  0  0
   41.5431    3.9458   -4.2549 C   0  0  2  0  0  0  0  0  0  0  0  0
   41.8243    5.0215   -3.3925 O   0  0  0  0  0  0  0  0  0  0  0  0
   43.3266    7.5329   -6.1621 C   0  0  0  0  0  0  0  0  0  0  0  0
   44.3793    8.3899   -6.7070 O   0  0  0  0  0  0  0  0  0  0  0  0
   48.5275    3.6109   -4.7421 C   0  0  1  0  0  0  0  0  0  0  0  0
   47.1658    4.2700   -4.8112 O   0  0  0  0  0  0  0  0  0  0  0  0
   39.5315    2.5178    1.8581 C   0  0  0  0  0  0  0  0  0  0  0  0
   40.0144    1.2695    1.7944 O   0  0  0  0  0  0  0  0  0  0  0  0
   41.6178    4.3585   -5.7868 C   0  0  1  0  0  0  0  0  0  0  0  0
   42.9257    4.6960   -6.1360 O   0  0  0  0  0  0  0  0  0  0  0  0
   44.1623    6.2744   -0.2830 C   0  0  0  0  0  0  0  0  0  0  0  0
   48.4757    2.0543   -4.5766 C   0  0  0  0  0  0  0  0  0  0  0  0
   47.8098    1.6414   -3.3746 N   0  0  0  0  0  0  0  0  0  0  0  0
   43.1695    7.3551    0.1476 C   0  0  0  0  0  0  0  0  0  0  0  0
   43.9520    8.5857    0.3740 N   0  0  0  0  0  0  0  0  0  0  0  0
   44.1397    9.5484   -0.8004 C   0  0  0  0  0  0  0  0  0  0  0  0
  1  2  1  1  0  0  0
  1  8  1  0  0  0  0
  1 33  1  0  0  0  0
  3  4  1  6  0  0  0
  3 10  1  0  0  0  0
  3 42  1  0  0  0  0
  5 11  1  0  0  0  0
  5 29  1  0  0  0  0
  5 35  1  6  0  0  0
  6 13  1  0  0  0  0
  6 39  1  0  0  0  0
  6 22  1  6  0  0  0
  7 15  1  0  0  0  0
  8  9  1  6  0  0  0
  8 17  1  0  0  0  0
 10 19  1  0  0  0  0
 11 12  1  1  0  0  0
 11 21  1  0  0  0  0
 12 44  1  0  0  0  0
 13 14  1  6  0  0  0
 13 23  1  0  0  0  0
 15 16  1  0  0  0  0
 17 18  1  1  0  0  0
 17 25  1  0  0  0  0
 19 20  1  1  0  0  0
 19 27  1  0  0  0  0
 21 22  1  1  0  0  0
 21 28  1  0  0  0  0
 23 24  1  1  0  0  0
 23 30  1  0  0  0  0
 25 26  1  1  0  0  0
 25 32  1  0  0  0  0
 27  2  1  1  0  0  0
 27 34  1  0  0  0  0
 28 29  1  0  0  0  0
 28 36  1  6  0  0  0
 30 31  1  6  0  0  0
 30 38  1  0  0  0  0
 32 33  1  0  0  0  0
 32 40  1  1  0  0  0
 34 35  1  1  0  0  0
 34 42  1  0  0  0  0
 36 37  1  0  0  0  0
 38 39  1  0  0  0  0
 38 45  1  6  0  0  0
 40 41  1  0  0  0  0
 42 43  1  6  0  0  0
 44 47  1  0  0  0  0
 45 46  1  0  0  0  0
 47 48  1  0  0  0  0
 48 49  1  0  0  0  0
 49  7  1  0  0  0  0
M  END
>  <CHROM.1>
-69.35045875,-47.21769949,177.65699768,-65.87823534,57.20648187,-111.61593046
-4.55389092,-85.06080479,-71.57728399,-171.55594556,173.46234445,-177.68772159
-68.69245443,90.87276886,160.36929301,-83.72158189,43.13592426,5.29448644
-3.22257992,2.85137978,0.49081958,0.70733696

>  <Name>
2bee_lig

>  <RI>
0

>  <Rbt.Current_Directory>
/home/itssahil/PROJECTS/Mol_Feturizer/New_Systems/rnas/2bee

>  <Rbt.Executable>
rbdock ($Id: //depot/dev/client3/rdock/2013.1/src/exe/rbdock.cxx#4 $)

>  <Rbt.Library>
libRbt.so (2013.1, Build901 2013/11/27)

>  <Rbt.Parameter_File>
/export/apps/rDock/src/rDock_2013.1_src/data/scripts/dock_solv.prm

>  <Rbt.Receptor>
prm/pocket_docking_7.prm

>  <SCORE>
-27.3888

>  <SCORE.INTER>
-20.1479

>  <SCORE.INTER.CONST>
1

>  <SCORE.INTER.POLAR>
-2.74618

>  <SCORE.INTER.ROT>
16

>  <SCORE.INTER.SOLV>
19.3156

>  <SCORE.INTER.VDW>
-24.9832

>  <SCORE.INTER.norm>
-0.411181

>  <SCORE.INTRA>
-7.24091

>  <SCORE.INTRA.DIHEDRAL>
-17.5015

>  <SCORE.INTRA.DIHEDRAL.0>
36.0842

>  <SCORE.INTRA.POLAR>
0

>  <SCORE.INTRA.POLAR.0>
0

>  <SCORE.INTRA.REPUL>
0

>  <SCORE.INTRA.REPUL.0>
0

>  <SCORE.INTRA.SOLV>
0.871712

>  <SCORE.INTRA.SOLV.lig_0>
-126.444

>  <SCORE.INTRA.VDW>
1.07396

>  <SCORE.INTRA.VDW.0>
-7.40469

>  <SCORE.INTRA.norm>
-0.147774

>  <SCORE.RESTR>
0

>  <SCORE.RESTR.CAVITY>
0

>  <SCORE.RESTR.norm>
0

>  <SCORE.SYSTEM>
0

>  <SCORE.SYSTEM.CONST>
0

>  <SCORE.SYSTEM.DIHEDRAL>
0

>  <SCORE.SYSTEM.SOLV>
0

>  <SCORE.SYSTEM.norm>
0

>  <SCORE.heavy>
49

>  <SCORE.norm>
-0.558955

>  <RMSD>
9.685

$$$$
2bee_lig
 OpenBabel11021811423D
libRbt.so/2013.1/901 2013/11/27
 49 52  0  0  0  0  0  0  0  0999 V2000
   41.1258    0.6081   -0.0520 C   0  0  2  0  0  0  0  0  0  0  0  0
   39.9999    0.3120   -0.8686 O   0  0  0  0  0  0  0  0  0  0  0  0
   41.9823   -0.8509   -4.6225 C   0  0  2  0  0  0  0  0  0  0  0  0
   42.1641   -1.4235   -5.9841 N   0  0  0  0  0  0  0  0  0  0  0  0
   39.7047    3.1110   -3.7403 C   0  0  1  0  0  0  0  0  0  0  0  0
   41.4852    5.2055   -7.5610 C   0  0  1  0  0  0  0  0  0  0  0  0
   42.5317    9.0354   -2.7463 C   0  0  0  0  0  0  0  0  0  0  0  0
   40.6573    1.0452    1.3897 C   0  0  2  0  0  0  0  0  0  0  0  0
   39.7902    0.0226    1.9651 N   0  0  0  0  0  0  0  0  0  0  0  0
   41.4192   -1.9801   -3.6449 C   0  0  0  0  0  0  0  0  0  0  0  0
   40.2894    4.3576   -4.3205 C   0  0  2  0  0  0  0  0  0  0  0  0
   39.7034    5.5847   -3.7536 O   0  0  0  0  0  0  0  0  0  0  0  0
   41.7423    4.7853   -9.1064 C   0  0  2  0  0  0  0  0  0  0  0  0
   42.3689    3.4214   -9.1209 N   0  0  0  0  0  0  0  0  0  0  0  0
   43.3839    8.6212   -1.6961 C   0  0  0  0  0  0  0  0  0  0  0  0
   44.1833    7.4914   -1.8552 N   0  0  0  0  0  0  0  0  0  0  0  0
   39.9220    2.4535    1.2989 C   0  0  1  0  0  0  0  0  0  0  0  0
   39.5083    2.8407    2.6012 O   0  0  0  0  0  0  0  0  0  0  0  0
   41.1928   -1.3857   -2.1393 C   0  0  2  0  0  0  0  0  0  0  0  0
   40.6991   -2.3881   -1.2574 N   0  0  0  0  0  0  0  0  0  0  0  0
   40.0975    3.9806   -5.7695 C   0  0  2  0  0  0  0  0  0  0  0  0
   40.6416    4.1600   -7.0212 O   0  0  0  0  0  0  0  0  0  0  0  0
   42.7014    5.8455   -9.7563 C   0  0  1  0  0  0  0  0  0  0  0  0
   42.0120    7.1434   -9.7170 O   0  0  0  0  0  0  0  0  0  0  0  0
   40.8919    3.4913    0.6878 C   0  0  2  0  0  0  0  0  0  0  0  0
   40.2387    4.8201    0.5704 O   0  0  0  0  0  0  0  0  0  0  0  0
   40.1795   -0.1766   -2.1880 C   0  0  2  0  0  0  0  0  0  0  0  0
   38.6984    3.1870   -5.7490 C   0  0  2  0  0  0  0  0  0  0  0  0
   38.7929    2.4832   -4.5958 O   0  0  0  0  0  0  0  0  0  0  0  0
   44.1023    5.8838   -8.9198 C   0  0  2  0  0  0  0  0  0  0  0  0
   44.7858    4.5715   -8.9643 O   0  0  0  0  0  0  0  0  0  0  0  0
   41.3540    3.0438   -0.7391 C   0  0  2  0  0  0  0  0  0  0  0  0
   41.9692    1.7439   -0.5491 O   0  0  0  0  0  0  0  0  0  0  0  0
   40.7756    0.8973   -3.1596 C   0  0  2  0  0  0  0  0  0  0  0  0
   39.8164    1.9255   -3.1096 O   0  0  0  0  0  0  0  0  0  0  0  0
   38.4306    2.1343   -6.8873 C   0  0  0  0  0  0  0  0  0  0  0  0
   37.1228    1.5138   -6.6775 O   0  0  0  0  0  0  0  0  0  0  0  0
   43.8198    6.2542   -7.3959 C   0  0  1  0  0  0  0  0  0  0  0  0
   42.8519    5.2189   -6.8621 O   0  0  0  0  0  0  0  0  0  0  0  0
   42.2880    4.0740   -1.2310 C   0  0  0  0  0  0  0  0  0  0  0  0
   43.4740    3.9623   -0.6176 O   0  0  0  0  0  0  0  0  0  0  0  0
   40.9546    0.3028   -4.6214 C   0  0  1  0  0  0  0  0  0  0  0  0
   41.4942    1.2654   -5.4749 O   0  0  0  0  0  0  0  0  0  0  0  0
   39.3692    5.7873   -2.3344 C   0  0  0  0  0  0  0  0  0  0  0  0
   45.2203    6.2403   -6.6949 C   0  0  0  0  0  0  0  0  0  0  0  0
   45.1366    6.4245   -5.2744 N   0  0  0  0  0  0  0  0  0  0  0  0
   39.0883    7.2705   -2.0891 C   0  0  0  0  0  0  0  0  0  0  0  0
   40.3975    7.9270   -1.9075 N   0  0  0  0  0  0  0  0  0  0  0  0
   41.2944    8.1011   -3.1350 C   0  0  0  0  0  0  0  0  0  0  0  0
  1  2  1  6  0  0  0
  1  8  1  0  0  0  0
  1 33  1  0  0  0  0
  3  4  1  6  0  0  0
  3 10  1  0  0  0  0
  3 42  1  0  0  0  0
  5 11  1  0  0  0  0
  5 29  1  0  0  0  0
  5 35  1  6  0  0  0
  6 13  1  0  0  0  0
  6 39  1  0  0  0  0
  6 22  1  1  0  0  0
  7 15  1  0  0  0  0
  8  9  1  6  0  0  0
  8 17  1  0  0  0  0
 10 19  1  0  0  0  0
 11 12  1  1  0  0  0
 11 21  1  0  0  0  0
 12 44  1  0  0  0  0
 13 14  1  1  0  0  0
 13 23  1  0  0  0  0
 15 16  1  0  0  0  0
 17 18  1  1  0  0  0
 17 25  1  0  0  0  0
 19 20  1  1  0  0  0
 19 27  1  0  0  0  0
 21 22  1  6  0  0  0
 21 28  1  0  0  0  0
 23 24  1  1  0  0  0
 23 30  1  0  0  0  0
 25 26  1  6  0  0  0
 25 32  1  0  0  0  0
 27  2  1  1  0  0  0
 27 34  1  0  0  0  0
 28 29  1  0  0  0  0
 28 36  1  6  0  0  0
 30 31  1  1  0  0  0
 30 38  1  0  0  0  0
 32 33  1  0  0  0  0
 32 40  1  1  0  0  0
 34 35  1  6  0  0  0
 34 42  1  0  0  0  0
 36 37  1  0  0  0  0
 38 39  1  0  0  0  0
 38 45  1  1  0  0  0
 40 41  1  0  0  0  0
 42 43  1  6  0  0  0
 44 47  1  0  0  0  0
 45 46  1  0  0  0  0
 47 48  1  0  0  0  0
 48 49  1  0  0  0  0
 49  7  1  0  0  0  0
M  END
>  <CHROM.1>
-176.43264196,-36.84650718,-179.66851634,67.26392828,40.45055697,167.20136636
-23.49500262,49.95590680,179.14203521,74.86461786,-177.71813775,-174.12450600
-82.59074438,71.92124259,170.87765211,58.83418425,41.25055917,3.49360412
-3.78294500,2.63688166,1.28426060,1.08581469

>  <Name>
2bee_lig

>  <RI>
0

>  <Rbt.Current_Directory>
/home/itssahil/PROJECTS/Mol_Feturizer/New_Systems/rnas/2bee

>  <Rbt.Executable>
rbdock ($Id: //depot/dev/client3/rdock/2013.1/src/exe/rbdock.cxx#4 $)

>  <Rbt.Library>
libRbt.so (2013.1, Build901 2013/11/27)

>  <Rbt.Parameter_File>
/export/apps/rDock/src/rDock_2013.1_src/data/scripts/dock_solv.prm

>  <Rbt.Receptor>
prm/pocket_docking_7.prm

>  <SCORE>
-20.3829

>  <SCORE.INTER>
-8.82741

>  <SCORE.INTER.CONST>
1

>  <SCORE.INTER.POLAR>
-0.938714

>  <SCORE.INTER.ROT>
16

>  <SCORE.INTER.SOLV>
15.02

>  <SCORE.INTER.VDW>
-22.0292

>  <SCORE.INTER.norm>
-0.180151

>  <SCORE.INTRA>
-11.5555

>  <SCORE.INTRA.DIHEDRAL>
-23.8307

>  <SCORE.INTRA.DIHEDRAL.0>
36.0842

>  <SCORE.INTRA.POLAR>
0

>  <SCORE.INTRA.POLAR.0>
0

>  <SCORE.INTRA.REPUL>
0

>  <SCORE.INTRA.REPUL.0>
0

>  <SCORE.INTRA.SOLV>
1.06061

>  <SCORE.INTRA.SOLV.lig_0>
-126.444

>  <SCORE.INTRA.VDW>
-0.170476

>  <SCORE.INTRA.VDW.0>
-7.40469

>  <SCORE.INTRA.norm>
-0.235827

>  <SCORE.RESTR>
0

>  <SCORE.RESTR.CAVITY>
0

>  <SCORE.RESTR.norm>
0

>  <SCORE.SYSTEM>
0

>  <SCORE.SYSTEM.CONST>
0

>  <SCORE.SYSTEM.DIHEDRAL>
0

>  <SCORE.SYSTEM.SOLV>
0

>  <SCORE.SYSTEM.norm>
0

>  <SCORE.heavy>
49

>  <SCORE.norm>
-0.415978

>  <RMSD>
9.685

$$$$
2bee_lig
 OpenBabel11021811423D
libRbt.so/2013.1/901 2013/11/27
 49 52  0  0  0  0  0  0  0  0999 V2000
   45.7327    5.7859   -3.3854 C   0  0  2  0  0  0  0  0  0  0  0  0
   45.3841    7.1385   -3.6519 O   0  0  0  0  0  0  0  0  0  0  0  0
   41.3500    6.6701   -5.3491 C   0  0  2  0  0  0  0  0  0  0  0  0
   39.9673    7.0187   -5.7750 N   0  0  0  0  0  0  0  0  0  0  0  0
   45.3735    7.8951   -7.5106 C   0  0  1  0  0  0  0  0  0  0  0  0
   44.6396    9.8126  -11.8638 C   0  0  1  0  0  0  0  0  0  0  0  0
   51.4105    4.3055   -7.0868 C   0  0  0  0  0  0  0  0  0  0  0  0
   47.1098    5.4301   -4.0680 C   0  0  2  0  0  0  0  0  0  0  0  0
   48.1367    6.3763   -3.6451 N   0  0  0  0  0  0  0  0  0  0  0  0
   41.5198    6.9867   -3.7939 C   0  0  0  0  0  0  0  0  0  0  0  0
   45.3546    7.4730   -8.9438 C   0  0  2  0  0  0  0  0  0  0  0  0
   46.6045    6.8174   -9.3660 O   0  0  0  0  0  0  0  0  0  0  0  0
   45.5916   11.0970  -11.5896 C   0  0  2  0  0  0  0  0  0  0  0  0
   44.7961   12.1115  -10.8208 N   0  0  0  0  0  0  0  0  0  0  0  0
   51.3528    5.4387   -6.2422 C   0  0  0  0  0  0  0  0  0  0  0  0
   50.5970    5.3953   -5.0728 N   0  0  0  0  0  0  0  0  0  0  0  0
   46.9283    5.4303   -5.6488 C   0  0  1  0  0  0  0  0  0  0  0  0
   48.1711    5.1047   -6.2542 O   0  0  0  0  0  0  0  0  0  0  0  0
   43.0328    6.6290   -3.2894 C   0  0  2  0  0  0  0  0  0  0  0  0
   43.1915    6.8996   -1.9009 N   0  0  0  0  0  0  0  0  0  0  0  0
   44.9240    8.8042   -9.5106 C   0  0  2  0  0  0  0  0  0  0  0  0
   44.2207    9.3667  -10.5518 O   0  0  0  0  0  0  0  0  0  0  0  0
   46.0488   11.6809  -12.9738 C   0  0  1  0  0  0  0  0  0  0  0  0
   46.8299   10.6373  -13.6539 O   0  0  0  0  0  0  0  0  0  0  0  0
   45.8338    4.4073   -6.0319 C   0  0  2  0  0  0  0  0  0  0  0  0
   45.6210    4.3865   -7.5017 O   0  0  0  0  0  0  0  0  0  0  0  0
   44.0846    7.4662   -4.1164 C   0  0  2  0  0  0  0  0  0  0  0  0
   45.6833    9.8579   -8.5616 C   0  0  2  0  0  0  0  0  0  0  0  0
   45.5732    9.2701   -7.3465 O   0  0  0  0  0  0  0  0  0  0  0  0
   44.7306   12.1039  -13.8381 C   0  0  2  0  0  0  0  0  0  0  0  0
   43.9512   13.1528  -13.1426 O   0  0  0  0  0  0  0  0  0  0  0  0
   44.4747    4.7674   -5.3442 C   0  0  2  0  0  0  0  0  0  0  0  0
   44.7598    4.7790   -3.9219 O   0  0  0  0  0  0  0  0  0  0  0  0
   43.8737    7.1225   -5.6296 C   0  0  2  0  0  0  0  0  0  0  0  0
   44.8647    7.8949   -6.2630 O   0  0  0  0  0  0  0  0  0  0  0  0
   45.0639   11.2967   -8.4131 C   0  0  0  0  0  0  0  0  0  0  0  0
   46.1358   12.2917   -8.4337 O   0  0  0  0  0  0  0  0  0  0  0  0
   43.7893   10.8368  -14.0560 C   0  0  1  0  0  0  0  0  0  0  0  0
   43.4379   10.3062  -12.6817 O   0  0  0  0  0  0  0  0  0  0  0  0
   43.5032    3.7322   -5.7443 C   0  0  0  0  0  0  0  0  0  0  0  0
   42.9842    4.0164   -6.9464 O   0  0  0  0  0  0  0  0  0  0  0  0
   42.4071    7.5097   -6.1004 C   0  0  1  0  0  0  0  0  0  0  0  0
   42.2287    7.1909   -7.4468 O   0  0  0  0  0  0  0  0  0  0  0  0
   47.6118    6.2471   -8.4566 C   0  0  0  0  0  0  0  0  0  0  0  0
   42.5596   11.3635  -14.8706 C   0  0  0  0  0  0  0  0  0  0  0  0
   41.6341   12.1090  -14.0669 N   0  0  0  0  0  0  0  0  0  0  0  0
   48.1102    4.9180   -9.0258 C   0  0  0  0  0  0  0  0  0  0  0  0
   49.5580    4.8522   -8.7471 N   0  0  0  0  0  0  0  0  0  0  0  0
   50.0565    3.7916   -7.7632 C   0  0  0  0  0  0  0  0  0  0  0  0
  1  2  1  6  0  0  0
  1  8  1  0  0  0  0
  1 33  1  0  0  0  0
  3  4  1  6  0  0  0
  3 10  1  0  0  0  0
  3 42  1  0  0  0  0
  5 11  1  0  0  0  0
  5 29  1  0  0  0  0
  5 35  1  6  0  0  0
  6 13  1  0  0  0  0
  6 39  1  0  0  0  0
  6 22  1  1  0  0  0
  7 15  1  0  0  0  0
  8  9  1  6  0  0  0
  8 17  1  0  0  0  0
 10 19  1  0  0  0  0
 11 12  1  6  0  0  0
 11 21  1  0  0  0  0
 12 44  1  0  0  0  0
 13 14  1  6  0  0  0
 13 23  1  0  0  0  0
 15 16  1  0  0  0  0
 17 18  1  6  0  0  0
 17 25  1  0  0  0  0
 19 20  1  1  0  0  0
 19 27  1  0  0  0  0
 21 22  1  6  0  0  0
 21 28  1  0  0  0  0
 23 24  1  6  0  0  0
 23 30  1  0  0  0  0
 25 26  1  6  0  0  0
 25 32  1  0  0  0  0
 27  2  1  1  0  0  0
 27 34  1  0  0  0  0
 28 29  1  0  0  0  0
 28 36  1  1  0  0  0
 30 31  1  1  0  0  0
 30 38  1  0  0  0  0
 32 33  1  0  0  0  0
 32 40  1  1  0  0  0
 34 35  1  6  0  0  0
 34 42  1  0  0  0  0
 36 37  1  0  0  0  0
 38 39  1  0  0  0  0
 38 45  1  1  0  0  0
 40 41  1  0  0  0  0
 42 43  1  6  0  0  0
 44 47  1  0  0  0  0
 45 46  1  0  0  0  0
 47 48  1  0  0  0  0
 48 49  1  0  0  0  0
 49  7  1  0  0  0  0
M  END
>  <CHROM.1>
131.35181715,11.61467861,-67.44607539,62.55233685,17.91619927,138.71592854
-90.65352586,42.90519384,-138.86322344,-82.89209350,166.79773340,-76.10727746
141.77488456,113.25347544,-153.03725586,65.92269201,45.32650010,7.67969000
-7.90793057,1.37156764,-0.34141490,2.16198413

>  <Name>
2bee_lig

>  <RI>
0

>  <Rbt.Current_Directory>
/home/itssahil/PROJECTS/Mol_Feturizer/New_Systems/rnas/2bee

>  <Rbt.Executable>
rbdock ($Id: //depot/dev/client3/rdock/2013.1/src/exe/rbdock.cxx#4 $)

>  <Rbt.Library>
libRbt.so (2013.1, Build901 2013/11/27)

>  <Rbt.Parameter_File>
/export/apps/rDock/src/rDock_2013.1_src/data/scripts/dock_solv.prm

>  <Rbt.Receptor>
prm/blind_docking_60.prm

>  <SCORE>
79.1366

>  <SCORE.INTER>
35.8838

>  <SCORE.INTER.CONST>
1

>  <SCORE.INTER.POLAR>
-2.0943

>  <SCORE.INTER.ROT>
16

>  <SCORE.INTER.SOLV>
37.1348

>  <SCORE.INTER.VDW>
4.25857

>  <SCORE.INTER.norm>
0.732322

>  <SCORE.INTRA>
24.1552

>  <SCORE.INTRA.DIHEDRAL>
5.98257

>  <SCORE.INTRA.DIHEDRAL.0>
36.0842

>  <SCORE.INTRA.POLAR>
0

>  <SCORE.INTRA.POLAR.0>
0

>  <SCORE.INTRA.REPUL>
0.00113587

>  <SCORE.INTRA.REPUL.0>
0

>  <SCORE.INTRA.SOLV>
11.2143

>  <SCORE.INTRA.SOLV.lig_0>
-126.444

>  <SCORE.INTRA.VDW>
15.5511

>  <SCORE.INTRA.VDW.0>
-7.40469

>  <SCORE.INTRA.norm>
0.492964

>  <SCORE.RESTR>
19.0976

>  <SCORE.RESTR.CAVITY>
19.0976

>  <SCORE.RESTR.norm>
0.389747

>  <SCORE.SYSTEM>
0

>  <SCORE.SYSTEM.CONST>
0

>  <SCORE.SYSTEM.DIHEDRAL>
0

>  <SCORE.SYSTEM.SOLV>
0

>  <SCORE.SYSTEM.norm>
0

>  <SCORE.heavy>
49

>  <SCORE.norm>
1.61503

>  <RMSD>
9.689

$$$$
2bee_lig
 OpenBabel11021811423D
libRbt.so/2013.1/901 2013/11/27
 49 52  0  0  0  0  0  0  0  0999 V2000
   41.4521    2.7197   -4.4624 C   0  0  2  0  0  0  0  0  0  0  0  0
   41.6893    4.1120   -4.6276 O   0  0  0  0  0  0  0  0  0  0  0  0
   42.9746    7.3188   -1.9001 C   0  0  2  0  0  0  0  0  0  0  0  0
   43.7619    8.0289   -0.8558 N   0  0  0  0  0  0  0  0  0  0  0  0
   44.5854    6.4830   -6.1581 C   0  0  1  0  0  0  0  0  0  0  0  0
   48.9338    5.3837   -6.6153 C   0  0  1  0  0  0  0  0  0  0  0  0
   48.4756   11.4296  -10.0218 C   0  0  0  0  0  0  0  0  0  0  0  0
   42.6724    1.8866   -5.0156 C   0  0  2  0  0  0  0  0  0  0  0  0
   43.9095    2.3320   -4.3833 N   0  0  0  0  0  0  0  0  0  0  0  0
   42.4138    5.9501   -1.3000 C   0  0  0  0  0  0  0  0  0  0  0  0
   45.8363    7.2541   -6.4289 C   0  0  2  0  0  0  0  0  0  0  0  0
   45.5781    8.5777   -7.0219 O   0  0  0  0  0  0  0  0  0  0  0  0
   50.1726    5.1107   -7.6263 C   0  0  2  0  0  0  0  0  0  0  0  0
   49.7889    3.9837   -8.5404 N   0  0  0  0  0  0  0  0  0  0  0  0
   49.4640   11.1805  -11.0025 C   0  0  0  0  0  0  0  0  0  0  0  0
   50.2118   12.2366  -11.5185 N   0  0  0  0  0  0  0  0  0  0  0  0
   42.7365    2.0362   -6.5984 C   0  0  1  0  0  0  0  0  0  0  0  0
   43.8344    1.2796   -7.0875 O   0  0  0  0  0  0  0  0  0  0  0  0
   41.5526    5.1323   -2.4230 C   0  0  2  0  0  0  0  0  0  0  0  0
   41.0404    3.9139   -1.8943 N   0  0  0  0  0  0  0  0  0  0  0  0
   46.5485    6.1651   -7.1942 C   0  0  2  0  0  0  0  0  0  0  0  0
   47.8043    5.6746   -7.4728 O   0  0  0  0  0  0  0  0  0  0  0  0
   51.4351    4.7303   -6.7734 C   0  0  1  0  0  0  0  0  0  0  0  0
   51.7531    5.8853   -5.9209 O   0  0  0  0  0  0  0  0  0  0  0  0
   41.4025    1.5448   -7.2069 C   0  0  2  0  0  0  0  0  0  0  0  0
   41.4138    1.6819   -8.6857 O   0  0  0  0  0  0  0  0  0  0  0  0
   42.4620    4.8259   -3.6761 C   0  0  2  0  0  0  0  0  0  0  0  0
   45.3527    5.4601   -8.0069 C   0  0  2  0  0  0  0  0  0  0  0  0
   44.3504    5.4721   -7.0963 O   0  0  0  0  0  0  0  0  0  0  0  0
   51.1011    3.4022   -5.8856 C   0  0  2  0  0  0  0  0  0  0  0  0
   50.7802    2.2473   -6.7543 O   0  0  0  0  0  0  0  0  0  0  0  0
   40.1996    2.3745   -6.6462 C   0  0  2  0  0  0  0  0  0  0  0  0
   40.2575    2.2029   -5.2069 O   0  0  0  0  0  0  0  0  0  0  0  0
   42.9869    6.1965   -4.2223 C   0  0  2  0  0  0  0  0  0  0  0  0
   43.7558    5.8112   -5.3360 O   0  0  0  0  0  0  0  0  0  0  0  0
   45.5387    3.9584   -8.4382 C   0  0  0  0  0  0  0  0  0  0  0  0
   46.5943    3.8696   -9.4467 O   0  0  0  0  0  0  0  0  0  0  0  0
   49.8537    3.6797   -4.9337 C   0  0  1  0  0  0  0  0  0  0  0  0
   48.7000    4.0882   -5.8257 O   0  0  0  0  0  0  0  0  0  0  0  0
   38.9757    1.8245   -7.2587 C   0  0  0  0  0  0  0  0  0  0  0  0
   37.8894    2.4299   -6.7598 O   0  0  0  0  0  0  0  0  0  0  0  0
   43.8464    6.9539   -3.1223 C   0  0  1  0  0  0  0  0  0  0  0  0
   44.3007    8.1765   -3.6173 O   0  0  0  0  0  0  0  0  0  0  0  0
   45.0731    8.8123   -8.3846 C   0  0  0  0  0  0  0  0  0  0  0  0
   49.6157    2.3421   -4.1544 C   0  0  0  0  0  0  0  0  0  0  0  0
   48.3486    2.3042   -3.4824 N   0  0  0  0  0  0  0  0  0  0  0  0
   45.1047   10.3120   -8.6831 C   0  0  0  0  0  0  0  0  0  0  0  0
   46.5107   10.7416   -8.5545 N   0  0  0  0  0  0  0  0  0  0  0  0
   47.5203   10.2258   -9.5821 C   0  0  0  0  0  0  0  0  0  0  0  0
  1  2  1  6  0  0  0
  1  8  1  0  0  0  0
  1 33  1  0  0  0  0
  3  4  1  1  0  0  0
  3 10  1  0  0  0  0
  3 42  1  0  0  0  0
  5 11  1  0  0  0  0
  5 29  1  0  0  0  0
  5 35  1  1  0  0  0
  6 13  1  0  0  0  0
  6 39  1  0  0  0  0
  6 22  1  6  0  0  0
  7 15  1  0  0  0  0
  8  9  1  1  0  0  0
  8 17  1  0  0  0  0
 10 19  1  0  0  0  0
 11 12  1  6  0  0  0
 11 21  1  0  0  0  0
 12 44  1  0  0  0  0
 13 14  1  6  0  0  0
 13 23  1  0  0  0  0
 15 16  1  0  0  0  0
 17 18  1  6  0  0  0
 17 25  1  0  0  0  0
 19 20  1  1  0  0  0
 19 27  1  0  0  0  0
 21 22  1  6  0  0  0
 21 28  1  0  0  0  0
 23 24  1  1  0  0  0
 23 30  1  0  0  0  0
 25 26  1  6  0  0  0
 25 32  1  0  0  0  0
 27  2  1  6  0  0  0
 27 34  1  0  0  0  0
 28 29  1  0  0  0  0
 28 36  1  1  0  0  0
 30 31  1  6  0  0  0
 30 38  1  0  0  0  0
 32 33  1  0  0  0  0
 32 40  1  6  0  0  0
 34 35  1  6  0  0  0
 34 42  1  0  0  0  0
 36 37  1  0  0  0  0
 38 39  1  0  0  0  0
 38 45  1  6  0  0  0
 40 41  1  0  0  0  0
 42 43  1  6  0  0  0
 44 47  1  0  0  0  0
 45 46  1  0  0  0  0
 47 48  1  0  0  0  0
 48 49  1  0  0  0  0
 49  7  1  0  0  0  0
M  END
>  <CHROM.1>
-83.18107447,65.21612026,-169.33240719,172.76113270,-69.65986246,-172.98122176
47.26791324,-78.85530436,-67.60971942,176.02551129,-171.91455013,-166.34756485
59.69639534,67.59232561,137.14951418,-178.12326321,45.30820696,5.28213659
-6.23052287,-2.55773799,0.21671091,-0.32353480

>  <Name>
2bee_lig

>  <RI>
0

>  <Rbt.Current_Directory>
/home/itssahil/PROJECTS/Mol_Feturizer/New_Systems/rnas/2bee

>  <Rbt.Executable>
rbdock ($Id: //depot/dev/client3/rdock/2013.1/src/exe/rbdock.cxx#4 $)

>  <Rbt.Library>
libRbt.so (2013.1, Build901 2013/11/27)

>  <Rbt.Parameter_File>
/export/apps/rDock/src/rDock_2013.1_src/data/scripts/dock_solv.prm

>  <Rbt.Receptor>
prm/pocket_docking_5.prm

>  <SCORE>
-18.2709

>  <SCORE.INTER>
-8.14503

>  <SCORE.INTER.CONST>
1

>  <SCORE.INTER.POLAR>
-1.39587

>  <SCORE.INTER.ROT>
16

>  <SCORE.INTER.SOLV>
16.7801

>  <SCORE.INTER.VDW>
-20.6371

>  <SCORE.INTER.norm>
-0.166225

>  <SCORE.INTRA>
-10.129

>  <SCORE.INTRA.DIHEDRAL>
-22.6193

>  <SCORE.INTRA.DIHEDRAL.0>
36.0842

>  <SCORE.INTRA.POLAR>
0

>  <SCORE.INTRA.POLAR.0>
0

>  <SCORE.INTRA.REPUL>
0

>  <SCORE.INTRA.REPUL.0>
0

>  <SCORE.INTRA.SOLV>
-0.585315

>  <SCORE.INTRA.SOLV.lig_0>
-126.444

>  <SCORE.INTRA.VDW>
1.47327

>  <SCORE.INTRA.VDW.0>
-7.40469

>  <SCORE.INTRA.norm>
-0.206715

>  <SCORE.RESTR>
0.00311513

>  <SCORE.RESTR.CAVITY>
0.00311513

>  <SCORE.RESTR.norm>
6.35741e-05

>  <SCORE.SYSTEM>
0

>  <SCORE.SYSTEM.CONST>
0

>  <SCORE.SYSTEM.DIHEDRAL>
0

>  <SCORE.SYSTEM.SOLV>
0

>  <SCORE.SYSTEM.norm>
0

>  <SCORE.heavy>
49

>  <SCORE.norm>
-0.372876

>  <RMSD>
9.721

$$$$
2bee_lig
 OpenBabel11021811423D
libRbt.so/2013.1/901 2013/11/27
 49 52  0  0  0  0  0  0  0  0999 V2000
   40.0372    5.9180   -0.4260 C   0  0  2  0  0  0  0  0  0  0  0  0
   38.9281    6.7885   -0.2401 O   0  0  0  0  0  0  0  0  0  0  0  0
   38.2540   11.1381   -0.2216 C   0  0  2  0  0  0  0  0  0  0  0  0
   38.4524   12.5786    0.0954 N   0  0  0  0  0  0  0  0  0  0  0  0
   40.4273    7.4803   -2.9236 C   0  0  1  0  0  0  0  0  0  0  0  0
   43.0951    6.2624   -6.7401 C   0  0  1  0  0  0  0  0  0  0  0  0
   37.5174    0.5941   -6.1527 C   0  0  0  0  0  0  0  0  0  0  0  0
   39.5906    4.4156   -0.2466 C   0  0  2  0  0  0  0  0  0  0  0  0
   38.4759    4.1153   -1.1386 N   0  0  0  0  0  0  0  0  0  0  0  0
   38.1139   10.3122    1.1371 C   0  0  0  0  0  0  0  0  0  0  0  0
   40.2383    6.9831   -4.3199 C   0  0  2  0  0  0  0  0  0  0  0  0
   39.4487    5.7411   -4.3854 O   0  0  0  0  0  0  0  0  0  0  0  0
   44.1054    7.1412   -7.6555 C   0  0  2  0  0  0  0  0  0  0  0  0
   43.3142    8.2442   -8.2962 N   0  0  0  0  0  0  0  0  0  0  0  0
   37.6912    0.4656   -4.7548 C   0  0  0  0  0  0  0  0  0  0  0  0
   36.8839   -0.4103   -4.0324 N   0  0  0  0  0  0  0  0  0  0  0  0
   39.2077    4.1594    1.2765 C   0  0  1  0  0  0  0  0  0  0  0  0
   38.8118    2.8040    1.4291 O   0  0  0  0  0  0  0  0  0  0  0  0
   37.9074    8.7199    0.8312 C   0  0  2  0  0  0  0  0  0  0  0  0
   37.7724    7.9758    2.0371 N   0  0  0  0  0  0  0  0  0  0  0  0
   41.6945    7.0215   -4.7159 C   0  0  2  0  0  0  0  0  0  0  0  0
   42.5221    7.2033   -5.8008 O   0  0  0  0  0  0  0  0  0  0  0  0
   44.7331    6.2009   -8.7455 C   0  0  1  0  0  0  0  0  0  0  0  0
   45.4994    5.1627   -8.0408 O   0  0  0  0  0  0  0  0  0  0  0  0
   40.4280    4.4900    2.1668 C   0  0  2  0  0  0  0  0  0  0  0  0
   40.1081    4.2788    3.6018 O   0  0  0  0  0  0  0  0  0  0  0  0
   39.1340    8.1706    0.0036 C   0  0  2  0  0  0  0  0  0  0  0  0
   42.4440    6.5882   -3.3601 C   0  0  2  0  0  0  0  0  0  0  0  0
   41.7058    7.2214   -2.4177 O   0  0  0  0  0  0  0  0  0  0  0  0
   43.5369    5.5556   -9.6489 C   0  0  2  0  0  0  0  0  0  0  0  0
   42.7711    6.6100  -10.3512 O   0  0  0  0  0  0  0  0  0  0  0  0
   40.8650    5.9807    1.9756 C   0  0  2  0  0  0  0  0  0  0  0  0
   41.1500    6.1146    0.5596 O   0  0  0  0  0  0  0  0  0  0  0  0
   39.2285    9.0139   -1.3126 C   0  0  2  0  0  0  0  0  0  0  0  0
   40.3249    8.4314   -1.9748 O   0  0  0  0  0  0  0  0  0  0  0  0
   43.9285    7.0667   -3.1525 C   0  0  0  0  0  0  0  0  0  0  0  0
   44.8045    6.3484   -4.0778 O   0  0  0  0  0  0  0  0  0  0  0  0
   42.5330    4.7352   -8.7224 C   0  0  1  0  0  0  0  0  0  0  0  0
   42.0152    5.6965   -7.6730 O   0  0  0  0  0  0  0  0  0  0  0  0
   42.0412    6.1978    2.8388 C   0  0  0  0  0  0  0  0  0  0  0  0
   41.6634    6.3526    4.1150 O   0  0  0  0  0  0  0  0  0  0  0  0
   39.4610   10.5507   -0.9864 C   0  0  1  0  0  0  0  0  0  0  0  0
   39.5346   11.2923   -2.1657 O   0  0  0  0  0  0  0  0  0  0  0  0
   39.0017    5.0850   -5.6250 C   0  0  0  0  0  0  0  0  0  0  0  0
   41.4274    4.1859   -9.6862 C   0  0  0  0  0  0  0  0  0  0  0  0
   41.9062    3.1470  -10.5523 N   0  0  0  0  0  0  0  0  0  0  0  0
   38.8563    3.5829   -5.3766 C   0  0  0  0  0  0  0  0  0  0  0  0
   38.1786    3.0197   -6.5604 N   0  0  0  0  0  0  0  0  0  0  0  0
   38.4933    1.5747   -6.9533 C   0  0  0  0  0  0  0  0  0  0  0  0
  1  2  1  1  0  0  0
  1  8  1  0  0  0  0
  1 33  1  0  0  0  0
  3  4  1  1  0  0  0
  3 10  1  0  0  0  0
  3 42  1  0  0  0  0
  5 11  1  0  0  0  0
  5 29  1  0  0  0  0
  5 35  1  6  0  0  0
  6 13  1  0  0  0  0
  6 39  1  0  0  0  0
  6 22  1  1  0  0  0
  7 15  1  0  0  0  0
  8  9  1  6  0  0  0
  8 17  1  0  0  0  0
 10 19  1  0  0  0  0
 11 12  1  1  0  0  0
 11 21  1  0  0  0  0
 12 44  1  0  0  0  0
 13 14  1  6  0  0  0
 13 23  1  0  0  0  0
 15 16  1  0  0  0  0
 17 18  1  6  0  0  0
 17 25  1  0  0  0  0
 19 20  1  1  0  0  0
 19 27  1  0  0  0  0
 21 22  1  6  0  0  0
 21 28  1  0  0  0  0
 23 24  1  1  0  0  0
 23 30  1  0  0  0  0
 25 26  1  1  0  0  0
 25 32  1  0  0  0  0
 27  2  1  6  0  0  0
 27 34  1  0  0  0  0
 28 29  1  0  0  0  0
 28 36  1  6  0  0  0
 30 31  1  1  0  0  0
 30 38  1  0  0  0  0
 32 33  1  0  0  0  0
 32 40  1  1  0  0  0
 34 35  1  6  0  0  0
 34 42  1  0  0  0  0
 36 37  1  0  0  0  0
 38 39  1  0  0  0  0
 38 45  1  6  0  0  0
 40 41  1  0  0  0  0
 42 43  1  6  0  0  0
 44 47  1  0  0  0  0
 45 46  1  0  0  0  0
 47 48  1  0  0  0  0
 48 49  1  0  0  0  0
 49  7  1  0  0  0  0
M  END
>  <CHROM.1>
163.04884992,68.72272434,-173.63362625,-178.10503355,174.32823751,152.05693435
-91.41436579,-152.76655907,-70.53611291,-77.96696464,95.34452905,70.73636556
169.91045829,149.87736012,87.19793165,-69.05285528,40.60022791,6.08012503
-3.20048700,2.12190667,1.05007528,0.83779015

>  <Name>
2bee_lig

>  <RI>
0

>  <Rbt.Current_Directory>
/home/itssahil/PROJECTS/Mol_Feturizer/New_Systems/rnas/2bee

>  <Rbt.Executable>
rbdock ($Id: //depot/dev/client3/rdock/2013.1/src/exe/rbdock.cxx#4 $)

>  <Rbt.Library>
libRbt.so (2013.1, Build901 2013/11/27)

>  <Rbt.Parameter_File>
/export/apps/rDock/src/rDock_2013.1_src/data/scripts/dock_solv.prm

>  <Rbt.Receptor>
prm/pocket_docking_5.prm

>  <SCORE>
-17.7984

>  <SCORE.INTER>
-9.93023

>  <SCORE.INTER.CONST>
1

>  <SCORE.INTER.POLAR>
-0.225211

>  <SCORE.INTER.ROT>
16

>  <SCORE.INTER.SOLV>
27.3553

>  <SCORE.INTER.VDW>
-29.2545

>  <SCORE.INTER.norm>
-0.202658

>  <SCORE.INTRA>
-7.86821

>  <SCORE.INTRA.DIHEDRAL>
-14.7439

>  <SCORE.INTRA.DIHEDRAL.0>
36.0842

>  <SCORE.INTRA.POLAR>
0

>  <SCORE.INTRA.POLAR.0>
0

>  <SCORE.INTRA.REPUL>
0.00146331

>  <SCORE.INTRA.REPUL.0>
0

>  <SCORE.INTRA.SOLV>
-2.45905

>  <SCORE.INTRA.SOLV.lig_0>
-126.444

>  <SCORE.INTRA.VDW>
0.725958

>  <SCORE.INTRA.VDW.0>
-7.40469

>  <SCORE.INTRA.norm>
-0.160576

>  <SCORE.RESTR>
0

>  <SCORE.RESTR.CAVITY>
0

>  <SCORE.RESTR.norm>
0

>  <SCORE.SYSTEM>
0

>  <SCORE.SYSTEM.CONST>
0

>  <SCORE.SYSTEM.DIHEDRAL>
0

>  <SCORE.SYSTEM.SOLV>
0

>  <SCORE.SYSTEM.norm>
0

>  <SCORE.heavy>
49

>  <SCORE.norm>
-0.363234

>  <RMSD>
9.754

$$$$
2bee_lig
 OpenBabel11021811423D
libRbt.so/2013.1/901 2013/11/27
 49 52  0  0  0  0  0  0  0  0999 V2000
   40.6435    4.7376    0.5084 C   0  0  2  0  0  0  0  0  0  0  0  0
   40.0012    4.8562    1.7715 O   0  0  0  0  0  0  0  0  0  0  0  0
   37.5086    1.8208    3.7583 C   0  0  2  0  0  0  0  0  0  0  0  0
   36.3056    1.0213    4.1168 N   0  0  0  0  0  0  0  0  0  0  0  0
   39.7530    1.3790   -0.2706 C   0  0  1  0  0  0  0  0  0  0  0  0
   41.5210    2.3165   -4.2609 C   0  0  1  0  0  0  0  0  0  0  0  0
   41.1752   -5.6435   -1.5172 C   0  0  0  0  0  0  0  0  0  0  0  0
   41.5848    5.9778    0.2537 C   0  0  2  0  0  0  0  0  0  0  0  0
   42.5257    6.1267    1.3587 N   0  0  0  0  0  0  0  0  0  0  0  0
   37.2034    3.3697    3.9939 C   0  0  0  0  0  0  0  0  0  0  0  0
   39.5298    0.6153   -1.5354 C   0  0  2  0  0  0  0  0  0  0  0  0
   39.1176   -0.7792   -1.2990 O   0  0  0  0  0  0  0  0  0  0  0  0
   39.9879    2.6199   -4.6951 C   0  0  2  0  0  0  0  0  0  0  0  0
   39.4432    1.3949   -5.3701 N   0  0  0  0  0  0  0  0  0  0  0  0
   40.5633   -6.8660   -1.1538 C   0  0  0  0  0  0  0  0  0  0  0  0
   39.2697   -6.8681   -0.6368 N   0  0  0  0  0  0  0  0  0  0  0  0
   40.6946    7.2827    0.0623 C   0  0  1  0  0  0  0  0  0  0  0  0
   41.5498    8.3923   -0.1709 O   0  0  0  0  0  0  0  0  0  0  0  0
   38.4988    4.2844    3.5979 C   0  0  2  0  0  0  0  0  0  0  0  0
   38.2394    5.6674    3.8133 N   0  0  0  0  0  0  0  0  0  0  0  0
   40.8524    0.9555   -2.1786 C   0  0  2  0  0  0  0  0  0  0  0  0
   41.4470    1.1515   -3.4046 O   0  0  0  0  0  0  0  0  0  0  0  0
   39.9832    3.8452   -5.6773 C   0  0  1  0  0  0  0  0  0  0  0  0
   40.5139    5.0010   -4.9397 O   0  0  0  0  0  0  0  0  0  0  0  0
   39.7254    7.0639   -1.1226 C   0  0  2  0  0  0  0  0  0  0  0  0
   38.8626    8.2554   -1.3267 O   0  0  0  0  0  0  0  0  0  0  0  0
   38.8801    4.0458    2.0851 C   0  0  2  0  0  0  0  0  0  0  0  0
   41.8636    0.9706   -0.9276 C   0  0  2  0  0  0  0  0  0  0  0  0
   41.1075    1.5477    0.0363 O   0  0  0  0  0  0  0  0  0  0  0  0
   40.9007    3.4909   -6.9797 C   0  0  2  0  0  0  0  0  0  0  0  0
   40.3582    2.3246   -7.7125 O   0  0  0  0  0  0  0  0  0  0  0  0
   38.8015    5.8279   -0.8609 C   0  0  2  0  0  0  0  0  0  0  0  0
   39.7068    4.7119   -0.6621 O   0  0  0  0  0  0  0  0  0  0  0  0
   39.1654    2.5161    1.9079 C   0  0  2  0  0  0  0  0  0  0  0  0
   39.5135    2.4222    0.5478 O   0  0  0  0  0  0  0  0  0  0  0  0
   43.1689    1.8414   -1.0446 C   0  0  0  0  0  0  0  0  0  0  0  0
   42.8022    3.2368   -1.2854 O   0  0  0  0  0  0  0  0  0  0  0  0
   42.3898    3.1527   -6.5244 C   0  0  1  0  0  0  0  0  0  0  0  0
   42.3013    2.0012   -5.5448 O   0  0  0  0  0  0  0  0  0  0  0  0
   37.9336    5.6819   -2.0446 C   0  0  0  0  0  0  0  0  0  0  0  0
   37.0045    6.6470   -2.0660 O   0  0  0  0  0  0  0  0  0  0  0  0
   37.8811    1.6540    2.2682 C   0  0  1  0  0  0  0  0  0  0  0  0
   38.1502    0.2937    2.1151 O   0  0  0  0  0  0  0  0  0  0  0  0
   39.8878   -1.7728   -0.5332 C   0  0  0  0  0  0  0  0  0  0  0  0
   43.1637    2.8115   -7.8427 C   0  0  0  0  0  0  0  0  0  0  0  0
   43.3487    3.9517   -8.6937 N   0  0  0  0  0  0  0  0  0  0  0  0
   39.2339   -3.1466   -0.6882 C   0  0  0  0  0  0  0  0  0  0  0  0
   40.0195   -4.0868    0.1345 N   0  0  0  0  0  0  0  0  0  0  0  0
   41.3870   -4.5336   -0.3867 C   0  0  0  0  0  0  0  0  0  0  0  0
  1  2  1  1  0  0  0
  1  8  1  0  0  0  0
  1 33  1  0  0  0  0
  3  4  1  6  0  0  0
  3 10  1  0  0  0  0
  3 42  1  0  0  0  0
  5 11  1  0  0  0  0
  5 29  1  0  0  0  0
  5 35  1  6  0  0  0
  6 13  1  0  0  0  0
  6 39  1  0  0  0  0
  6 22  1  1  0  0  0
  7 15  1  0  0  0  0
  8  9  1  1  0  0  0
  8 17  1  0  0  0  0
 10 19  1  0  0  0  0
 11 12  1  1  0  0  0
 11 21  1  0  0  0  0
 12 44  1  0  0  0  0
 13 14  1  6  0  0  0
 13 23  1  0  0  0  0
 15 16  1  0  0  0  0
 17 18  1  6  0  0  0
 17 25  1  0  0  0  0
 19 20  1  6  0  0  0
 19 27  1  0  0  0  0
 21 22  1  6  0  0  0
 21 28  1  0  0  0  0
 23 24  1  1  0  0  0
 23 30  1  0  0  0  0
 25 26  1  1  0  0  0
 25 32  1  0  0  0  0
 27  2  1  1  0  0  0
 27 34  1  0  0  0  0
 28 29  1  0  0  0  0
 28 36  1  6  0  0  0
 30 31  1  1  0  0  0
 30 38  1  0  0  0  0
 32 33  1  0  0  0  0
 32 40  1  6  0  0  0
 34 35  1  6  0  0  0
 34 42  1  0  0  0  0
 36 37  1  0  0  0  0
 38 39  1  0  0  0  0
 38 45  1  6  0  0  0
 40 41  1  0  0  0  0
 42 43  1  1  0  0  0
 44 47  1  0  0  0  0
 45 46  1  0  0  0  0
 47 48  1  0  0  0  0
 48 49  1  0  0  0  0
 49  7  1  0  0  0  0
M  END
>  <CHROM.1>
164.81352144,128.28350589,-64.05372349,60.50643092,-58.08319774,-171.71335567
84.24822673,173.51468920,58.73665418,-72.87115834,-172.93893573,68.73139042
-178.11298451,-74.80071595,-77.82084800,-63.08968873,40.11699063,2.33820382
-1.26842979,1.59688607,1.23177434,-0.06049357

>  <Name>
2bee_lig

>  <RI>
0

>  <Rbt.Current_Directory>
/home/itssahil/PROJECTS/Mol_Feturizer/New_Systems/rnas/2bee

>  <Rbt.Executable>
rbdock ($Id: //depot/dev/client3/rdock/2013.1/src/exe/rbdock.cxx#4 $)

>  <Rbt.Library>
libRbt.so (2013.1, Build901 2013/11/27)

>  <Rbt.Parameter_File>
/export/apps/rDock/src/rDock_2013.1_src/data/scripts/dock_solv.prm

>  <Rbt.Receptor>
prm/pocket_docking_8.prm

>  <SCORE>
-9.79644

>  <SCORE.INTER>
-1.29153

>  <SCORE.INTER.CONST>
1

>  <SCORE.INTER.POLAR>
0

>  <SCORE.INTER.ROT>
16

>  <SCORE.INTER.SOLV>
11.8884

>  <SCORE.INTER.VDW>
-19.0905

>  <SCORE.INTER.norm>
-0.0263577

>  <SCORE.INTRA>
-8.50492

>  <SCORE.INTRA.DIHEDRAL>
-22.4734

>  <SCORE.INTRA.DIHEDRAL.0>
36.0842

>  <SCORE.INTRA.POLAR>
0

>  <SCORE.INTRA.POLAR.0>
0

>  <SCORE.INTRA.REPUL>
0

>  <SCORE.INTRA.REPUL.0>
0

>  <SCORE.INTRA.SOLV>
0.418879

>  <SCORE.INTRA.SOLV.lig_0>
-126.444

>  <SCORE.INTRA.VDW>
2.52236

>  <SCORE.INTRA.VDW.0>
-7.40469

>  <SCORE.INTRA.norm>
-0.17357

>  <SCORE.RESTR>
0

>  <SCORE.RESTR.CAVITY>
0

>  <SCORE.RESTR.norm>
0

>  <SCORE.SYSTEM>
0

>  <SCORE.SYSTEM.CONST>
0

>  <SCORE.SYSTEM.DIHEDRAL>
0

>  <SCORE.SYSTEM.SOLV>
0

>  <SCORE.SYSTEM.norm>
0

>  <SCORE.heavy>
49

>  <SCORE.norm>
-0.199927

>  <RMSD>
9.759

$$$$
2bee_lig
 OpenBabel11021811423D
libRbt.so/2013.1/901 2013/11/27
 49 52  0  0  0  0  0  0  0  0999 V2000
   40.2901    7.4808   -1.6604 C   0  0  2  0  0  0  0  0  0  0  0  0
   40.9825    6.6532   -0.7343 O   0  0  0  0  0  0  0  0  0  0  0  0
   40.5380    2.6454    1.0305 C   0  0  2  0  0  0  0  0  0  0  0  0
   39.8825    1.4451    1.6174 N   0  0  0  0  0  0  0  0  0  0  0  0
   40.6160    3.9526   -3.5322 C   0  0  1  0  0  0  0  0  0  0  0  0
   42.4703   -0.0167   -5.2643 C   0  0  1  0  0  0  0  0  0  0  0  0
   43.7327    7.1994   -8.8007 C   0  0  0  0  0  0  0  0  0  0  0  0
   41.2311    8.6404   -2.1690 C   0  0  2  0  0  0  0  0  0  0  0  0
   42.4627    8.0814   -2.7159 N   0  0  0  0  0  0  0  0  0  0  0  0
   40.1490    3.9333    1.8895 C   0  0  0  0  0  0  0  0  0  0  0  0
   41.5577    3.3423   -4.5188 C   0  0  2  0  0  0  0  0  0  0  0  0
   41.6088    4.0772   -5.7945 O   0  0  0  0  0  0  0  0  0  0  0  0
   42.4091    0.6120   -6.7583 C   0  0  2  0  0  0  0  0  0  0  0  0
   41.0479    0.3331   -7.3263 N   0  0  0  0  0  0  0  0  0  0  0  0
   44.2900    7.6719   -7.5895 C   0  0  0  0  0  0  0  0  0  0  0  0
   44.6273    9.0172   -7.4588 N   0  0  0  0  0  0  0  0  0  0  0  0
   41.5250    9.6432   -0.9691 C   0  0  1  0  0  0  0  0  0  0  0  0
   42.3684   10.6856   -1.4374 O   0  0  0  0  0  0  0  0  0  0  0  0
   40.8402    5.2776    1.2676 C   0  0  2  0  0  0  0  0  0  0  0  0
   40.5064    6.4308    2.0324 N   0  0  0  0  0  0  0  0  0  0  0  0
   41.0127    1.9372   -4.4317 C   0  0  2  0  0  0  0  0  0  0  0  0
   41.3862    0.6170   -4.5438 O   0  0  0  0  0  0  0  0  0  0  0  0
   43.5255   -0.0673   -7.6291 C   0  0  1  0  0  0  0  0  0  0  0  0
   44.8211    0.2644   -7.0184 O   0  0  0  0  0  0  0  0  0  0  0  0
   40.1847   10.2031   -0.4386 C   0  0  2  0  0  0  0  0  0  0  0  0
   40.4129   11.1343    0.6957 O   0  0  0  0  0  0  0  0  0  0  0  0
   40.3717    5.4781   -0.2262 C   0  0  2  0  0  0  0  0  0  0  0  0
   39.4334    2.1785   -4.2444 C   0  0  2  0  0  0  0  0  0  0  0  0
   39.4103    3.2519   -3.4190 O   0  0  0  0  0  0  0  0  0  0  0  0
   43.2719   -1.6792   -7.6621 C   0  0  2  0  0  0  0  0  0  0  0  0
   41.9641   -2.0007   -8.2765 O   0  0  0  0  0  0  0  0  0  0  0  0
   39.2581    9.0433    0.0573 C   0  0  2  0  0  0  0  0  0  0  0  0
   39.0884    8.1746   -1.0920 O   0  0  0  0  0  0  0  0  0  0  0  0
   40.7728    4.1901   -1.0216 C   0  0  2  0  0  0  0  0  0  0  0  0
   40.3352    4.4838   -2.3262 O   0  0  0  0  0  0  0  0  0  0  0  0
   38.5950    1.0548   -3.5300 C   0  0  0  0  0  0  0  0  0  0  0  0
   37.1711    1.2794   -3.7776 O   0  0  0  0  0  0  0  0  0  0  0  0
   43.2917   -2.2667   -6.1810 C   0  0  1  0  0  0  0  0  0  0  0  0
   42.2273   -1.5265   -5.3982 O   0  0  0  0  0  0  0  0  0  0  0  0
   38.0026    9.6643    0.5198 C   0  0  0  0  0  0  0  0  0  0  0  0
   37.2332    8.7596    1.1400 O   0  0  0  0  0  0  0  0  0  0  0  0
   40.0622    2.9052   -0.4162 C   0  0  1  0  0  0  0  0  0  0  0  0
   40.4340    1.7639   -1.1272 O   0  0  0  0  0  0  0  0  0  0  0  0
   42.2520    5.3863   -5.9936 C   0  0  0  0  0  0  0  0  0  0  0  0
   43.0194   -3.8014   -6.3354 C   0  0  0  0  0  0  0  0  0  0  0  0
   41.6701   -4.0935   -6.7259 N   0  0  0  0  0  0  0  0  0  0  0  0
   41.5526    6.1233   -7.1367 C   0  0  0  0  0  0  0  0  0  0  0  0
   41.9405    5.4381   -8.3849 N   0  0  0  0  0  0  0  0  0  0  0  0
   43.3612    5.6488   -8.9128 C   0  0  0  0  0  0  0  0  0  0  0  0
  1  2  1  1  0  0  0
  1  8  1  0  0  0  0
  1 33  1  0  0  0  0
  3  4  1  1  0  0  0
  3 10  1  0  0  0  0
  3 42  1  0  0  0  0
  5 11  1  0  0  0  0
  5 29  1  0  0  0  0
  5 35  1  1  0  0  0
  6 13  1  0  0  0  0
  6 39  1  0  0  0  0
  6 22  1  1  0  0  0
  7 15  1  0  0  0  0
  8  9  1  1  0  0  0
  8 17  1  0  0  0  0
 10 19  1  0  0  0  0
 11 12  1  6  0  0  0
 11 21  1  0  0  0  0
 12 44  1  0  0  0  0
 13 14  1  6  0  0  0
 13 23  1  0  0  0  0
 15 16  1  0  0  0  0
 17 18  1  6  0  0  0
 17 25  1  0  0  0  0
 19 20  1  1  0  0  0
 19 27  1  0  0  0  0
 21 22  1  6  0  0  0
 21 28  1  0  0  0  0
 23 24  1  1  0  0  0
 23 30  1  0  0  0  0
 25 26  1  1  0  0  0
 25 32  1  0  0  0  0
 27  2  1  6  0  0  0
 27 34  1  0  0  0  0
 28 29  1  0  0  0  0
 28 36  1  1  0  0  0
 30 31  1  1  0  0  0
 30 38  1  0  0  0  0
 32 33  1  0  0  0  0
 32 40  1  6  0  0  0
 34 35  1  6  0  0  0
 34 42  1  0  0  0  0
 36 37  1  0  0  0  0
 38 39  1  0  0  0  0
 38 45  1  6  0  0  0
 40 41  1  0  0  0  0
 42 43  1  6  0  0  0
 44 47  1  0  0  0  0
 45 46  1  0  0  0  0
 47 48  1  0  0  0  0
 48 49  1  0  0  0  0
 49  7  1  0  0  0  0
M  END
>  <CHROM.1>
-174.75522566,-37.33744995,-48.37452994,179.89592014,72.76106971,-152.06532521
-24.99839816,-145.55264721,-164.64945170,-170.97499980,163.18114018,-70.65904449
-72.04544188,-73.73852266,-43.76861647,87.35771690,41.18724290,4.10202240
-3.52493487,-2.03740847,-1.12638485,-2.94699169

>  <Name>
2bee_lig

>  <RI>
0

>  <Rbt.Current_Directory>
/home/itssahil/PROJECTS/Mol_Feturizer/New_Systems/rnas/2bee

>  <Rbt.Executable>
rbdock ($Id: //depot/dev/client3/rdock/2013.1/src/exe/rbdock.cxx#4 $)

>  <Rbt.Library>
libRbt.so (2013.1, Build901 2013/11/27)

>  <Rbt.Parameter_File>
/export/apps/rDock/src/rDock_2013.1_src/data/scripts/dock_solv.prm

>  <Rbt.Receptor>
prm/pocket_docking_5.prm

>  <SCORE>
-7.49597

>  <SCORE.INTER>
-2.99723

>  <SCORE.INTER.CONST>
1

>  <SCORE.INTER.POLAR>
-1.44796

>  <SCORE.INTER.ROT>
16

>  <SCORE.INTER.SOLV>
11.852

>  <SCORE.INTER.VDW>
-15.3889

>  <SCORE.INTER.norm>
-0.061168

>  <SCORE.INTRA>
-4.49874

>  <SCORE.INTRA.DIHEDRAL>
-14.6655

>  <SCORE.INTRA.DIHEDRAL.0>
36.0842

>  <SCORE.INTRA.POLAR>
0

>  <SCORE.INTRA.POLAR.0>
0

>  <SCORE.INTRA.REPUL>
0

>  <SCORE.INTRA.REPUL.0>
0

>  <SCORE.INTRA.SOLV>
0.46239

>  <SCORE.INTRA.SOLV.lig_0>
-126.444

>  <SCORE.INTRA.VDW>
2.6028

>  <SCORE.INTRA.VDW.0>
-7.40469

>  <SCORE.INTRA.norm>
-0.091811

>  <SCORE.RESTR>
0

>  <SCORE.RESTR.CAVITY>
0

>  <SCORE.RESTR.norm>
0

>  <SCORE.SYSTEM>
0

>  <SCORE.SYSTEM.CONST>
0

>  <SCORE.SYSTEM.DIHEDRAL>
0

>  <SCORE.SYSTEM.SOLV>
0

>  <SCORE.SYSTEM.norm>
0

>  <SCORE.heavy>
49

>  <SCORE.norm>
-0.152979

>  <RMSD>
9.760

$$$$
2bee_lig
 OpenBabel11021811423D
libRbt.so/2013.1/901 2013/11/27
 49 52  0  0  0  0  0  0  0  0999 V2000
   47.0367    6.9042   -8.5405 C   0  0  2  0  0  0  0  0  0  0  0  0
   47.9127    7.9499   -8.9421 O   0  0  0  0  0  0  0  0  0  0  0  0
   46.9322   12.2327   -9.2076 C   0  0  2  0  0  0  0  0  0  0  0  0
   46.4330   13.5166   -9.7708 N   0  0  0  0  0  0  0  0  0  0  0  0
   44.3729    8.4371   -9.1864 C   0  0  1  0  0  0  0  0  0  0  0  0
   42.8445   11.1572  -12.5688 C   0  0  1  0  0  0  0  0  0  0  0  0
   43.5067    6.8354   -4.3538 C   0  0  0  0  0  0  0  0  0  0  0  0
   46.9551    6.8319   -6.9666 C   0  0  2  0  0  0  0  0  0  0  0  0
   46.5746    8.1322   -6.4253 N   0  0  0  0  0  0  0  0  0  0  0  0
   48.0204   11.6097  -10.1952 C   0  0  0  0  0  0  0  0  0  0  0  0
   42.9403    8.3904   -9.6082 C   0  0  2  0  0  0  0  0  0  0  0  0
   42.4193    7.0170   -9.7207 O   0  0  0  0  0  0  0  0  0  0  0  0
   41.9023   12.4599  -12.3536 C   0  0  2  0  0  0  0  0  0  0  0  0
   40.4723   12.0331  -12.5156 N   0  0  0  0  0  0  0  0  0  0  0  0
   44.4492    5.8179   -4.0758 C   0  0  0  0  0  0  0  0  0  0  0  0
   45.6224    6.1265   -3.3909 N   0  0  0  0  0  0  0  0  0  0  0  0
   48.3554    6.3440   -6.3896 C   0  0  1  0  0  0  0  0  0  0  0  0
   48.2710    6.2775   -4.9734 O   0  0  0  0  0  0  0  0  0  0  0  0
   48.5847   10.1888   -9.6171 C   0  0  2  0  0  0  0  0  0  0  0  0
   49.5629    9.6295  -10.4870 N   0  0  0  0  0  0  0  0  0  0  0  0
   43.0855    9.2871  -10.8139 C   0  0  2  0  0  0  0  0  0  0  0  0
   42.3961   10.1999  -11.5797 O   0  0  0  0  0  0  0  0  0  0  0  0
   42.2877   13.5351  -13.4313 C   0  0  1  0  0  0  0  0  0  0  0  0
   43.6900   13.9092  -13.1960 O   0  0  0  0  0  0  0  0  0  0  0  0
   48.6983    4.9632   -6.9956 C   0  0  2  0  0  0  0  0  0  0  0  0
   50.0088    4.4766   -6.4940 O   0  0  0  0  0  0  0  0  0  0  0  0
   47.3908    9.1720   -9.4382 C   0  0  2  0  0  0  0  0  0  0  0  0
   44.5360    8.8871  -11.3828 C   0  0  2  0  0  0  0  0  0  0  0  0
   45.2467    8.7172  -10.2426 O   0  0  0  0  0  0  0  0  0  0  0  0
   42.0770   12.9004  -14.9200 C   0  0  2  0  0  0  0  0  0  0  0  0
   40.6626   12.5254  -15.1443 O   0  0  0  0  0  0  0  0  0  0  0  0
   48.7704    5.0466   -8.5569 C   0  0  2  0  0  0  0  0  0  0  0  0
   47.4690    5.5348   -8.9720 O   0  0  0  0  0  0  0  0  0  0  0  0
   46.3540    9.8307   -8.4668 C   0  0  2  0  0  0  0  0  0  0  0  0
   45.3581    8.8423   -8.3613 O   0  0  0  0  0  0  0  0  0  0  0  0
   45.3157    9.9570  -12.2331 C   0  0  0  0  0  0  0  0  0  0  0  0
   44.7821    9.9783  -13.5948 O   0  0  0  0  0  0  0  0  0  0  0  0
   42.9779   11.5973  -15.0920 C   0  0  1  0  0  0  0  0  0  0  0  0
   42.5814   10.6378  -13.9893 O   0  0  0  0  0  0  0  0  0  0  0  0
   49.0765    3.6891   -9.0459 C   0  0  0  0  0  0  0  0  0  0  0  0
   47.9701    2.9334   -9.0533 O   0  0  0  0  0  0  0  0  0  0  0  0
   45.7989   11.1920   -9.0678 C   0  0  1  0  0  0  0  0  0  0  0  0
   44.8835   11.7733   -8.1902 O   0  0  0  0  0  0  0  0  0  0  0  0
   42.6405    5.9432   -8.7384 C   0  0  0  0  0  0  0  0  0  0  0  0
   42.6793   11.0690  -16.5359 C   0  0  0  0  0  0  0  0  0  0  0  0
   41.3898   11.4684  -17.0221 N   0  0  0  0  0  0  0  0  0  0  0  0
   42.4348    6.4990   -7.3285 C   0  0  0  0  0  0  0  0  0  0  0  0
   43.7407    7.0226   -6.8831 N   0  0  0  0  0  0  0  0  0  0  0  0
   43.7916    7.8216   -5.5791 C   0  0  0  0  0  0  0  0  0  0  0  0
  1  2  1  1  0  0  0
  1  8  1  0  0  0  0
  1 33  1  0  0  0  0
  3  4  1  6  0  0  0
  3 10  1  0  0  0  0
  3 42  1  0  0  0  0
  5 11  1  0  0  0  0
  5 29  1  0  0  0  0
  5 35  1  1  0  0  0
  6 13  1  0  0  0  0
  6 39  1  0  0  0  0
  6 22  1  1  0  0  0
  7 15  1  0  0  0  0
  8  9  1  1  0  0  0
  8 17  1  0  0  0  0
 10 19  1  0  0  0  0
 11 12  1  6  0  0  0
 11 21  1  0  0  0  0
 12 44  1  0  0  0  0
 13 14  1  6  0  0  0
 13 23  1  0  0  0  0
 15 16  1  0  0  0  0
 17 18  1  1  0  0  0
 17 25  1  0  0  0  0
 19 20  1  6  0  0  0
 19 27  1  0  0  0  0
 21 22  1  6  0  0  0
 21 28  1  0  0  0  0
 23 24  1  1  0  0  0
 23 30  1  0  0  0  0
 25 26  1  1  0  0  0
 25 32  1  0  0  0  0
 27  2  1  1  0  0  0
 27 34  1  0  0  0  0
 28 29  1  0  0  0  0
 28 36  1  6  0  0  0
 30 31  1  1  0  0  0
 30 38  1  0  0  0  0
 32 33  1  0  0  0  0
 32 40  1  6  0  0  0
 34 35  1  6  0  0  0
 34 42  1  0  0  0  0
 36 37  1  0  0  0  0
 38 39  1  0  0  0  0
 38 45  1  6  0  0  0
 40 41  1  0  0  0  0
 42 43  1  1  0  0  0
 44 47  1  0  0  0  0
 45 46  1  0  0  0  0
 47 48  1  0  0  0  0
 48 49  1  0  0  0  0
 49  7  1  0  0  0  0
M  END
>  <CHROM.1>
-103.85628799,-102.86684464,-142.98067139,78.88693458,44.80082181,44.37649836
165.51634658,172.67077917,-78.98971099,79.42885041,-76.02525138,-25.11469813
-88.76777439,171.47335359,69.00954538,65.82384601,45.12666127,8.89833606
-9.79435659,-1.10898209,0.08692902,-0.92177050

>  <Name>
2bee_lig

>  <RI>
0

>  <Rbt.Current_Directory>
/home/itssahil/PROJECTS/Mol_Feturizer/New_Systems/rnas/2bee

>  <Rbt.Executable>
rbdock ($Id: //depot/dev/client3/rdock/2013.1/src/exe/rbdock.cxx#4 $)

>  <Rbt.Library>
libRbt.so (2013.1, Build901 2013/11/27)

>  <Rbt.Parameter_File>
/export/apps/rDock/src/rDock_2013.1_src/data/scripts/dock_solv.prm

>  <Rbt.Receptor>
prm/blind_docking_60.prm

>  <SCORE>
79.2849

>  <SCORE.INTER>
34.1869

>  <SCORE.INTER.CONST>
1

>  <SCORE.INTER.POLAR>
-1.10932

>  <SCORE.INTER.ROT>
16

>  <SCORE.INTER.SOLV>
38.1217

>  <SCORE.INTER.VDW>
-0.484888

>  <SCORE.INTER.norm>
0.697692

>  <SCORE.INTRA>
29.2118

>  <SCORE.INTRA.DIHEDRAL>
-1.88022

>  <SCORE.INTRA.DIHEDRAL.0>
36.0842

>  <SCORE.INTRA.POLAR>
0

>  <SCORE.INTRA.POLAR.0>
0

>  <SCORE.INTRA.REPUL>
0.232556

>  <SCORE.INTRA.REPUL.0>
0

>  <SCORE.INTRA.SOLV>
11.4085

>  <SCORE.INTRA.SOLV.lig_0>
-126.444

>  <SCORE.INTRA.VDW>
23.2849

>  <SCORE.INTRA.VDW.0>
-7.40469

>  <SCORE.INTRA.norm>
0.59616

>  <SCORE.RESTR>
15.8861

>  <SCORE.RESTR.CAVITY>
15.8861

>  <SCORE.RESTR.norm>
0.324206

>  <SCORE.SYSTEM>
0

>  <SCORE.SYSTEM.CONST>
0

>  <SCORE.SYSTEM.DIHEDRAL>
0

>  <SCORE.SYSTEM.SOLV>
0

>  <SCORE.SYSTEM.norm>
0

>  <SCORE.heavy>
49

>  <SCORE.norm>
1.61806

>  <RMSD>
9.768

$$$$
2bee_lig
 OpenBabel11021811423D
libRbt.so/2013.1/901 2013/11/27
 49 52  0  0  0  0  0  0  0  0999 V2000
   41.6302    8.9743    0.6433 C   0  0  2  0  0  0  0  0  0  0  0  0
   41.9035    7.9079    1.5435 O   0  0  0  0  0  0  0  0  0  0  0  0
   40.4092    3.8217    2.2103 C   0  0  2  0  0  0  0  0  0  0  0  0
   39.4467    2.7004    2.3869 N   0  0  0  0  0  0  0  0  0  0  0  0
   41.0569    5.8469   -1.8594 C   0  0  1  0  0  0  0  0  0  0  0  0
   39.3748    2.0781   -4.2081 C   0  0  1  0  0  0  0  0  0  0  0  0
   44.3820    4.2173   -6.4519 C   0  0  0  0  0  0  0  0  0  0  0  0
   42.6338   10.1671    0.8862 C   0  0  2  0  0  0  0  0  0  0  0  0
   44.0094    9.6885    0.8005 N   0  0  0  0  0  0  0  0  0  0  0  0
   40.0960    4.9613    3.2832 C   0  0  0  0  0  0  0  0  0  0  0  0
   41.2999    4.8382   -2.9346 C   0  0  2  0  0  0  0  0  0  0  0  0
   41.9134    5.4208   -4.1406 O   0  0  0  0  0  0  0  0  0  0  0  0
   38.0405    1.1617   -4.1046 C   0  0  2  0  0  0  0  0  0  0  0  0
   37.9474    0.6298   -2.7041 N   0  0  0  0  0  0  0  0  0  0  0  0
   45.0040    4.8620   -5.3572 C   0  0  0  0  0  0  0  0  0  0  0  0
   46.0385    5.7677   -5.5812 N   0  0  0  0  0  0  0  0  0  0  0  0
   42.3308   10.8291    2.3011 C   0  0  1  0  0  0  0  0  0  0  0  0
   43.2355   11.9041    2.5087 O   0  0  0  0  0  0  0  0  0  0  0  0
   41.1256    6.2192    3.1130 C   0  0  2  0  0  0  0  0  0  0  0  0
   40.8599    7.2373    4.0717 N   0  0  0  0  0  0  0  0  0  0  0  0
   39.9042    4.2632   -2.9510 C   0  0  2  0  0  0  0  0  0  0  0  0
   39.2101    3.0999   -3.1958 O   0  0  0  0  0  0  0  0  0  0  0  0
   38.1635   -0.0133   -5.1392 C   0  0  1  0  0  0  0  0  0  0  0  0
   38.2339    0.5875   -6.4793 O   0  0  0  0  0  0  0  0  0  0  0  0
   40.8642   11.3187    2.3262 C   0  0  2  0  0  0  0  0  0  0  0  0
   40.5339   11.9311    3.6383 O   0  0  0  0  0  0  0  0  0  0  0  0
   41.0040    6.8170    1.6573 C   0  0  2  0  0  0  0  0  0  0  0  0
   38.9838    5.5538   -2.6777 C   0  0  2  0  0  0  0  0  0  0  0  0
   39.7149    6.2295   -1.7595 O   0  0  0  0  0  0  0  0  0  0  0  0
   39.5002   -0.8864   -4.8012 C   0  0  2  0  0  0  0  0  0  0  0  0
   39.4189   -1.4839   -3.4492 O   0  0  0  0  0  0  0  0  0  0  0  0
   39.8790   10.1280    2.0783 C   0  0  2  0  0  0  0  0  0  0  0  0
   40.2652    9.5763    0.7934 O   0  0  0  0  0  0  0  0  0  0  0  0
   41.3164    5.6618    0.6472 C   0  0  2  0  0  0  0  0  0  0  0  0
   41.2041    6.3032   -0.6002 O   0  0  0  0  0  0  0  0  0  0  0  0
   37.5669    5.3263   -2.0325 C   0  0  0  0  0  0  0  0  0  0  0  0
   36.8680    6.6071   -1.9304 O   0  0  0  0  0  0  0  0  0  0  0  0
   40.7923    0.0440   -4.8648 C   0  0  1  0  0  0  0  0  0  0  0  0
   40.5715    1.1739   -3.8808 O   0  0  0  0  0  0  0  0  0  0  0  0
   38.5148   10.6885    2.0955 C   0  0  0  0  0  0  0  0  0  0  0  0
   37.6057    9.7125    1.9671 O   0  0  0  0  0  0  0  0  0  0  0  0
   40.2820    4.4680    0.8128 C   0  0  1  0  0  0  0  0  0  0  0  0
   40.5758    3.4421   -0.0857 O   0  0  0  0  0  0  0  0  0  0  0  0
   41.3529    6.5343   -4.9236 C   0  0  0  0  0  0  0  0  0  0  0  0
   41.9983   -0.8886   -4.5060 C   0  0  0  0  0  0  0  0  0  0  0  0
   43.2624   -0.2115   -4.5537 N   0  0  0  0  0  0  0  0  0  0  0  0
   42.2527    6.8059   -6.1300 C   0  0  0  0  0  0  0  0  0  0  0  0
   42.2757    5.5666   -6.9310 N   0  0  0  0  0  0  0  0  0  0  0  0
   43.6115    5.1160   -7.5259 C   0  0  0  0  0  0  0  0  0  0  0  0
  1  2  1  1  0  0  0
  1  8  1  0  0  0  0
  1 33  1  0  0  0  0
  3  4  1  6  0  0  0
  3 10  1  0  0  0  0
  3 42  1  0  0  0  0
  5 11  1  0  0  0  0
  5 29  1  0  0  0  0
  5 35  1  1  0  0  0
  6 13  1  0  0  0  0
  6 39  1  0  0  0  0
  6 22  1  1  0  0  0
  7 15  1  0  0  0  0
  8  9  1  1  0  0  0
  8 17  1  0  0  0  0
 10 19  1  0  0  0  0
 11 12  1  6  0  0  0
 11 21  1  0  0  0  0
 12 44  1  0  0  0  0
 13 14  1  1  0  0  0
 13 23  1  0  0  0  0
 15 16  1  0  0  0  0
 17 18  1  6  0  0  0
 17 25  1  0  0  0  0
 19 20  1  1  0  0  0
 19 27  1  0  0  0  0
 21 22  1  6  0  0  0
 21 28  1  0  0  0  0
 23 24  1  6  0  0  0
 23 30  1  0  0  0  0
 25 26  1  1  0  0  0
 25 32  1  0  0  0  0
 27  2  1  1  0  0  0
 27 34  1  0  0  0  0
 28 29  1  0  0  0  0
 28 36  1  1  0  0  0
 30 31  1  1  0  0  0
 30 38  1  0  0  0  0
 32 33  1  0  0  0  0
 32 40  1  6  0  0  0
 34 35  1  6  0  0  0
 34 42  1  0  0  0  0
 36 37  1  0  0  0  0
 38 39  1  0  0  0  0
 38 45  1  1  0  0  0
 40 41  1  0  0  0  0
 42 43  1  6  0  0  0
 44 47  1  0  0  0  0
 45 46  1  0  0  0  0
 47 48  1  0  0  0  0
 48 49  1  0  0  0  0
 49  7  1  0  0  0  0
M  END
>  <CHROM.1>
170.05920802,-33.36798032,-168.55742799,-62.44980553,-56.60559748,-177.62461937
-39.70326659,-152.00755656,-177.16176043,-176.38224925,-162.79738432,178.33708808
60.33036067,-138.47222936,87.34971341,-75.66401847,40.76630933,5.38317904
-1.55028365,-1.52367312,-0.85929180,-2.39621796

>  <Name>
2bee_lig

>  <RI>
0

>  <Rbt.Current_Directory>
/home/itssahil/PROJECTS/Mol_Feturizer/New_Systems/rnas/2bee

>  <Rbt.Executable>
rbdock ($Id: //depot/dev/client3/rdock/2013.1/src/exe/rbdock.cxx#4 $)

>  <Rbt.Library>
libRbt.so (2013.1, Build901 2013/11/27)

>  <Rbt.Parameter_File>
/export/apps/rDock/src/rDock_2013.1_src/data/scripts/dock_solv.prm

>  <Rbt.Receptor>
prm/pocket_docking_7.prm

>  <SCORE>
-8.01864

>  <SCORE.INTER>
2.88072

>  <SCORE.INTER.CONST>
1

>  <SCORE.INTER.POLAR>
0

>  <SCORE.INTER.ROT>
16

>  <SCORE.INTER.SOLV>
12.0757

>  <SCORE.INTER.VDW>
-16.3714

>  <SCORE.INTER.norm>
0.0587902

>  <SCORE.INTRA>
-10.8994

>  <SCORE.INTRA.DIHEDRAL>
-20.2804

>  <SCORE.INTRA.DIHEDRAL.0>
36.0842

>  <SCORE.INTRA.POLAR>
0

>  <SCORE.INTRA.POLAR.0>
0

>  <SCORE.INTRA.REPUL>
0.00519888

>  <SCORE.INTRA.REPUL.0>
0

>  <SCORE.INTRA.SOLV>
-2.0477

>  <SCORE.INTRA.SOLV.lig_0>
-126.444

>  <SCORE.INTRA.VDW>
0.238674

>  <SCORE.INTRA.VDW.0>
-7.40469

>  <SCORE.INTRA.norm>
-0.222436

>  <SCORE.RESTR>
0

>  <SCORE.RESTR.CAVITY>
0

>  <SCORE.RESTR.norm>
0

>  <SCORE.SYSTEM>
0

>  <SCORE.SYSTEM.CONST>
0

>  <SCORE.SYSTEM.DIHEDRAL>
0

>  <SCORE.SYSTEM.SOLV>
0

>  <SCORE.SYSTEM.norm>
0

>  <SCORE.heavy>
49

>  <SCORE.norm>
-0.163646

>  <RMSD>
9.779

$$$$
2bee_lig
 OpenBabel11021811423D
libRbt.so/2013.1/901 2013/11/27
 49 52  0  0  0  0  0  0  0  0999 V2000
   41.0846    8.0721    0.0535 C   0  0  2  0  0  0  0  0  0  0  0  0
   41.3104    6.9836    0.9403 O   0  0  0  0  0  0  0  0  0  0  0  0
   40.8920    2.6077    0.7158 C   0  0  2  0  0  0  0  0  0  0  0  0
   40.2698    1.2768    0.4785 N   0  0  0  0  0  0  0  0  0  0  0  0
   42.3689    5.5592   -2.6207 C   0  0  1  0  0  0  0  0  0  0  0  0
   40.3474    3.2043   -5.8415 C   0  0  1  0  0  0  0  0  0  0  0  0
   44.9507    9.7192   -8.3326 C   0  0  0  0  0  0  0  0  0  0  0  0
   41.9205    9.3309    0.5071 C   0  0  2  0  0  0  0  0  0  0  0  0
   43.3310    8.9778    0.6268 N   0  0  0  0  0  0  0  0  0  0  0  0
   39.9959    3.4342    1.7462 C   0  0  0  0  0  0  0  0  0  0  0  0
   43.1326    4.7778   -3.6399 C   0  0  2  0  0  0  0  0  0  0  0  0
   44.4674    5.3387   -3.9118 O   0  0  0  0  0  0  0  0  0  0  0  0
   40.5459    1.9829   -4.7928 C   0  0  2  0  0  0  0  0  0  0  0  0
   41.8036    1.2513   -5.1615 N   0  0  0  0  0  0  0  0  0  0  0  0
   46.3542    9.8521   -8.4482 C   0  0  0  0  0  0  0  0  0  0  0  0
   47.0249    9.2399   -9.5047 N   0  0  0  0  0  0  0  0  0  0  0  0
   41.3361    9.8829    1.8803 C   0  0  1  0  0  0  0  0  0  0  0  0
   42.0914   11.0180    2.2780 O   0  0  0  0  0  0  0  0  0  0  0  0
   40.6402    4.9105    2.0233 C   0  0  2  0  0  0  0  0  0  0  0  0
   39.8526    5.6522    2.9485 N   0  0  0  0  0  0  0  0  0  0  0  0
   42.0489    4.7586   -4.6907 C   0  0  2  0  0  0  0  0  0  0  0  0
   41.5513    4.0000   -5.7260 O   0  0  0  0  0  0  0  0  0  0  0  0
   39.2993    1.0333   -4.8947 C   0  0  1  0  0  0  0  0  0  0  0  0
   38.1177    1.8168   -4.5054 O   0  0  0  0  0  0  0  0  0  0  0  0
   39.8447   10.2426    1.6865 C   0  0  2  0  0  0  0  0  0  0  0  0
   39.2544   10.7488    2.9519 O   0  0  0  0  0  0  0  0  0  0  0  0
   40.7548    5.7077    0.6659 C   0  0  2  0  0  0  0  0  0  0  0  0
   41.3674    6.2064   -4.5263 C   0  0  2  0  0  0  0  0  0  0  0  0
   41.3747    6.3680   -3.1817 O   0  0  0  0  0  0  0  0  0  0  0  0
   39.1740    0.4767   -6.4238 C   0  0  2  0  0  0  0  0  0  0  0  0
   40.3699   -0.3081   -6.8051 O   0  0  0  0  0  0  0  0  0  0  0  0
   39.0275    8.9878    1.2311 C   0  0  2  0  0  0  0  0  0  0  0  0
   39.6626    8.5453    0.0043 O   0  0  0  0  0  0  0  0  0  0  0  0
   41.6375    4.8551   -0.3069 C   0  0  2  0  0  0  0  0  0  0  0  0
   41.6922    5.6597   -1.4599 O   0  0  0  0  0  0  0  0  0  0  0  0
   39.8708    6.3734   -4.9825 C   0  0  0  0  0  0  0  0  0  0  0  0
   39.7720    6.1344   -6.4221 O   0  0  0  0  0  0  0  0  0  0  0  0
   39.0253    1.6955   -7.4394 C   0  0  1  0  0  0  0  0  0  0  0  0
   40.2349    2.5850   -7.2417 O   0  0  0  0  0  0  0  0  0  0  0  0
   37.6312    9.4273    1.0492 C   0  0  0  0  0  0  0  0  0  0  0  0
   37.5631   10.4048    0.1354 O   0  0  0  0  0  0  0  0  0  0  0  0
   40.9722    3.4398   -0.5835 C   0  0  1  0  0  0  0  0  0  0  0  0
   41.7716    2.6867   -1.4438 O   0  0  0  0  0  0  0  0  0  0  0  0
   44.7268    6.6611   -4.5042 C   0  0  0  0  0  0  0  0  0  0  0  0
   38.9355    1.0468   -8.8621 C   0  0  0  0  0  0  0  0  0  0  0  0
   37.8289    0.1434   -8.9961 N   0  0  0  0  0  0  0  0  0  0  0  0
   44.3063    6.6464   -5.9746 C   0  0  0  0  0  0  0  0  0  0  0  0
   44.8710    7.8628   -6.5906 N   0  0  0  0  0  0  0  0  0  0  0  0
   44.3504    8.2838   -7.9665 C   0  0  0  0  0  0  0  0  0  0  0  0
  1  2  1  1  0  0  0
  1  8  1  0  0  0  0
  1 33  1  0  0  0  0
  3  4  1  6  0  0  0
  3 10  1  0  0  0  0
  3 42  1  0  0  0  0
  5 11  1  0  0  0  0
  5 29  1  0  0  0  0
  5 35  1  1  0  0  0
  6 13  1  0  0  0  0
  6 39  1  0  0  0  0
  6 22  1  6  0  0  0
  7 15  1  0  0  0  0
  8  9  1  1  0  0  0
  8 17  1  0  0  0  0
 10 19  1  0  0  0  0
 11 12  1  6  0  0  0
 11 21  1  0  0  0  0
 12 44  1  0  0  0  0
 13 14  1  6  0  0  0
 13 23  1  0  0  0  0
 15 16  1  0  0  0  0
 17 18  1  6  0  0  0
 17 25  1  0  0  0  0
 19 20  1  1  0  0  0
 19 27  1  0  0  0  0
 21 22  1  6  0  0  0
 21 28  1  0  0  0  0
 23 24  1  6  0  0  0
 23 30  1  0  0  0  0
 25 26  1  1  0  0  0
 25 32  1  0  0  0  0
 27  2  1  1  0  0  0
 27 34  1  0  0  0  0
 28 29  1  0  0  0  0
 28 36  1  1  0  0  0
 30 31  1  6  0  0  0
 30 38  1  0  0  0  0
 32 33  1  0  0  0  0
 32 40  1  6  0  0  0
 34 35  1  6  0  0  0
 34 42  1  0  0  0  0
 36 37  1  0  0  0  0
 38 39  1  0  0  0  0
 38 45  1  6  0  0  0
 40 41  1  0  0  0  0
 42 43  1  6  0  0  0
 44 47  1  0  0  0  0
 45 46  1  0  0  0  0
 47 48  1  0  0  0  0
 48 49  1  0  0  0  0
 49  7  1  0  0  0  0
M  END
>  <CHROM.1>
-174.46626487,19.20368438,-66.46892370,68.68304736,-64.02371695,-69.89349882
107.15884056,-156.65279234,-63.26016726,58.99146002,174.04695577,59.19684324
-166.99212711,-166.06355939,172.21466189,61.80766875,41.22850608,5.64629157
-2.94390976,-1.69076775,-0.97430084,-2.24993987

>  <Name>
2bee_lig

>  <RI>
0

>  <Rbt.Current_Directory>
/home/itssahil/PROJECTS/Mol_Feturizer/New_Systems/rnas/2bee

>  <Rbt.Executable>
rbdock ($Id: //depot/dev/client3/rdock/2013.1/src/exe/rbdock.cxx#4 $)

>  <Rbt.Library>
libRbt.so (2013.1, Build901 2013/11/27)

>  <Rbt.Parameter_File>
/export/apps/rDock/src/rDock_2013.1_src/data/scripts/dock_solv.prm

>  <Rbt.Receptor>
prm/pocket_docking_7.prm

>  <SCORE>
-17.8299

>  <SCORE.INTER>
-6.77182

>  <SCORE.INTER.CONST>
1

>  <SCORE.INTER.POLAR>
-0.920068

>  <SCORE.INTER.ROT>
16

>  <SCORE.INTER.SOLV>
14.0788

>  <SCORE.INTER.VDW>
-20.4073

>  <SCORE.INTER.norm>
-0.1382

>  <SCORE.INTRA>
-11.0581

>  <SCORE.INTRA.DIHEDRAL>
-23.3127

>  <SCORE.INTRA.DIHEDRAL.0>
36.0842

>  <SCORE.INTRA.POLAR>
0

>  <SCORE.INTRA.POLAR.0>
0

>  <SCORE.INTRA.REPUL>
0

>  <SCORE.INTRA.REPUL.0>
0

>  <SCORE.INTRA.SOLV>
-1.26377

>  <SCORE.INTRA.SOLV.lig_0>
-126.444

>  <SCORE.INTRA.VDW>
1.2302

>  <SCORE.INTRA.VDW.0>
-7.40469

>  <SCORE.INTRA.norm>
-0.225675

>  <SCORE.RESTR>
0

>  <SCORE.RESTR.CAVITY>
0

>  <SCORE.RESTR.norm>
0

>  <SCORE.SYSTEM>
0

>  <SCORE.SYSTEM.CONST>
0

>  <SCORE.SYSTEM.DIHEDRAL>
0

>  <SCORE.SYSTEM.SOLV>
0

>  <SCORE.SYSTEM.norm>
0

>  <SCORE.heavy>
49

>  <SCORE.norm>
-0.363875

>  <RMSD>
9.782

$$$$
2bee_lig
 OpenBabel11021811423D
libRbt.so/2013.1/901 2013/11/27
 49 52  0  0  0  0  0  0  0  0999 V2000
   40.8311    1.1818   -5.4568 C   0  0  2  0  0  0  0  0  0  0  0  0
   39.5586    0.5595   -5.3326 O   0  0  0  0  0  0  0  0  0  0  0  0
   36.4345    0.8658   -2.2471 C   0  0  2  0  0  0  0  0  0  0  0  0
   35.7568    0.7228   -0.9299 N   0  0  0  0  0  0  0  0  0  0  0  0
   39.8591    3.9071   -3.1525 C   0  0  1  0  0  0  0  0  0  0  0  0
   41.8486    6.4634   -6.2874 C   0  0  1  0  0  0  0  0  0  0  0  0
   40.8871   10.8548   -0.5966 C   0  0  0  0  0  0  0  0  0  0  0  0
   41.3680    1.0414   -6.9337 C   0  0  2  0  0  0  0  0  0  0  0  0
   40.3842    1.5651   -7.8752 N   0  0  0  0  0  0  0  0  0  0  0  0
   36.8949   -0.5726   -2.7636 C   0  0  0  0  0  0  0  0  0  0  0  0
   40.7946    5.0003   -2.7495 C   0  0  2  0  0  0  0  0  0  0  0  0
   40.4101    5.6473   -1.4830 O   0  0  0  0  0  0  0  0  0  0  0  0
   42.6200    5.0483   -6.4704 C   0  0  2  0  0  0  0  0  0  0  0  0
   43.8253    5.0551   -5.5758 N   0  0  0  0  0  0  0  0  0  0  0  0
   40.9686   12.2606   -0.7304 C   0  0  0  0  0  0  0  0  0  0  0  0
   41.8469   12.9848    0.0725 N   0  0  0  0  0  0  0  0  0  0  0  0
   41.7052   -0.4857   -7.2274 C   0  0  1  0  0  0  0  0  0  0  0  0
   42.1918   -0.6015   -8.5566 O   0  0  0  0  0  0  0  0  0  0  0  0
   37.6570   -0.4564   -4.2050 C   0  0  2  0  0  0  0  0  0  0  0  0
   38.0637   -1.7358   -4.6785 N   0  0  0  0  0  0  0  0  0  0  0  0
   40.7674    5.7441   -4.0628 C   0  0  2  0  0  0  0  0  0  0  0  0
   41.5383    6.5441   -4.8757 O   0  0  0  0  0  0  0  0  0  0  0  0
   43.0447    4.9052   -7.9755 C   0  0  1  0  0  0  0  0  0  0  0  0
   41.8138    4.8916   -8.7794 O   0  0  0  0  0  0  0  0  0  0  0  0
   42.7533   -0.9779   -6.2025 C   0  0  2  0  0  0  0  0  0  0  0  0
   43.0859   -2.4071   -6.4316 O   0  0  0  0  0  0  0  0  0  0  0  0
   38.9172    0.4841   -4.0697 C   0  0  2  0  0  0  0  0  0  0  0  0
   39.2436    5.5614   -4.5444 C   0  0  2  0  0  0  0  0  0  0  0  0
   38.9860    4.2831   -4.1790 O   0  0  0  0  0  0  0  0  0  0  0  0
   44.0126    6.1554   -8.3798 C   0  0  2  0  0  0  0  0  0  0  0  0
   45.2469    6.1601   -7.5625 O   0  0  0  0  0  0  0  0  0  0  0  0
   42.2117   -0.8280   -4.7416 C   0  0  2  0  0  0  0  0  0  0  0  0
   41.9006    0.5812   -4.5943 O   0  0  0  0  0  0  0  0  0  0  0  0
   38.4124    1.8757   -3.5587 C   0  0  2  0  0  0  0  0  0  0  0  0
   39.5979    2.6312   -3.4979 O   0  0  0  0  0  0  0  0  0  0  0  0
   38.9416    5.6487   -6.0861 C   0  0  0  0  0  0  0  0  0  0  0  0
   39.5978    4.5369   -6.7736 O   0  0  0  0  0  0  0  0  0  0  0  0
   43.2495    7.5352   -8.1493 C   0  0  1  0  0  0  0  0  0  0  0  0
   42.8312    7.5706   -6.6942 O   0  0  0  0  0  0  0  0  0  0  0  0
   43.2792   -1.2957   -3.8376 C   0  0  0  0  0  0  0  0  0  0  0  0
   42.8344   -1.3469   -2.5747 O   0  0  0  0  0  0  0  0  0  0  0  0
   37.7054    1.7380   -2.1432 C   0  0  1  0  0  0  0  0  0  0  0  0
   37.2526    2.9819   -1.7029 O   0  0  0  0  0  0  0  0  0  0  0  0
   39.1149    6.2959   -1.2213 C   0  0  0  0  0  0  0  0  0  0  0  0
   44.2735    8.6518   -8.5466 C   0  0  0  0  0  0  0  0  0  0  0  0
   45.3485    8.7852   -7.6058 N   0  0  0  0  0  0  0  0  0  0  0  0
   39.0691    7.6418   -1.9462 C   0  0  0  0  0  0  0  0  0  0  0  0
   39.8964    8.5770   -1.1594 N   0  0  0  0  0  0  0  0  0  0  0  0
   39.8729   10.0585   -1.5411 C   0  0  0  0  0  0  0  0  0  0  0  0
  1  2  1  6  0  0  0
  1  8  1  0  0  0  0
  1 33  1  0  0  0  0
  3  4  1  1  0  0  0
  3 10  1  0  0  0  0
  3 42  1  0  0  0  0
  5 11  1  0  0  0  0
  5 29  1  0  0  0  0
  5 35  1  6  0  0  0
  6 13  1  0  0  0  0
  6 39  1  0  0  0  0
  6 22  1  1  0  0  0
  7 15  1  0  0  0  0
  8  9  1  6  0  0  0
  8 17  1  0  0  0  0
 10 19  1  0  0  0  0
 11 12  1  1  0  0  0
 11 21  1  0  0  0  0
 12 44  1  0  0  0  0
 13 14  1  1  0  0  0
 13 23  1  0  0  0  0
 15 16  1  0  0  0  0
 17 18  1  6  0  0  0
 17 25  1  0  0  0  0
 19 20  1  1  0  0  0
 19 27  1  0  0  0  0
 21 22  1  1  0  0  0
 21 28  1  0  0  0  0
 23 24  1  6  0  0  0
 23 30  1  0  0  0  0
 25 26  1  6  0  0  0
 25 32  1  0  0  0  0
 27  2  1  6  0  0  0
 27 34  1  0  0  0  0
 28 29  1  0  0  0  0
 28 36  1  6  0  0  0
 30 31  1  1  0  0  0
 30 38  1  0  0  0  0
 32 33  1  0  0  0  0
 32 40  1  1  0  0  0
 34 35  1  1  0  0  0
 34 42  1  0  0  0  0
 36 37  1  0  0  0  0
 38 39  1  0  0  0  0
 38 45  1  1  0  0  0
 40 41  1  0  0  0  0
 42 43  1  6  0  0  0
 44 47  1  0  0  0  0
 45 46  1  0  0  0  0
 47 48  1  0  0  0  0
 48 49  1  0  0  0  0
 49  7  1  0  0  0  0
M  END
>  <CHROM.1>
175.91480106,163.75832159,-61.29539553,-179.68841409,-57.44831282,-74.74129064
129.68673498,-170.79374503,64.87317072,-172.72811475,179.14130421,-71.08111848
-76.28056015,-171.42882608,-177.54358325,-176.59798235,40.80861085,3.91611492
-4.63300024,-1.78905376,0.84777343,0.30689748

>  <Name>
2bee_lig

>  <RI>
0

>  <Rbt.Current_Directory>
/home/itssahil/PROJECTS/Mol_Feturizer/New_Systems/rnas/2bee

>  <Rbt.Executable>
rbdock ($Id: //depot/dev/client3/rdock/2013.1/src/exe/rbdock.cxx#4 $)

>  <Rbt.Library>
libRbt.so (2013.1, Build901 2013/11/27)

>  <Rbt.Parameter_File>
/export/apps/rDock/src/rDock_2013.1_src/data/scripts/dock_solv.prm

>  <Rbt.Receptor>
prm/pocket_docking_7.prm

>  <SCORE>
-18.2533

>  <SCORE.INTER>
-6.84621

>  <SCORE.INTER.CONST>
1

>  <SCORE.INTER.POLAR>
-0.938083

>  <SCORE.INTER.ROT>
16

>  <SCORE.INTER.SOLV>
11.3292

>  <SCORE.INTER.VDW>
-19.4803

>  <SCORE.INTER.norm>
-0.139719

>  <SCORE.INTRA>
-11.407

>  <SCORE.INTRA.DIHEDRAL>
-27.9502

>  <SCORE.INTRA.DIHEDRAL.0>
36.0842

>  <SCORE.INTRA.POLAR>
0

>  <SCORE.INTRA.POLAR.0>
0

>  <SCORE.INTRA.REPUL>
0

>  <SCORE.INTRA.REPUL.0>
0

>  <SCORE.INTRA.SOLV>
0.734071

>  <SCORE.INTRA.SOLV.lig_0>
-126.444

>  <SCORE.INTRA.VDW>
2.201

>  <SCORE.INTRA.VDW.0>
-7.40469

>  <SCORE.INTRA.norm>
-0.232797

>  <SCORE.RESTR>
0

>  <SCORE.RESTR.CAVITY>
0

>  <SCORE.RESTR.norm>
0

>  <SCORE.SYSTEM>
0

>  <SCORE.SYSTEM.CONST>
0

>  <SCORE.SYSTEM.DIHEDRAL>
0

>  <SCORE.SYSTEM.SOLV>
0

>  <SCORE.SYSTEM.norm>
0

>  <SCORE.heavy>
49

>  <SCORE.norm>
-0.372515

>  <RMSD>
9.786

$$$$
2bee_lig
 OpenBabel11021811423D
libRbt.so/2013.1/901 2013/11/27
 49 52  0  0  0  0  0  0  0  0999 V2000
   41.9138    7.8156   -3.2367 C   0  0  2  0  0  0  0  0  0  0  0  0
   42.6635    6.8996   -2.4487 O   0  0  0  0  0  0  0  0  0  0  0  0
   44.0857    2.7991   -3.1817 C   0  0  2  0  0  0  0  0  0  0  0  0
   44.0441    1.3333   -3.4359 N   0  0  0  0  0  0  0  0  0  0  0  0
   43.1499    6.2081   -6.3050 C   0  0  1  0  0  0  0  0  0  0  0  0
   45.4876    4.1391   -9.8080 C   0  0  1  0  0  0  0  0  0  0  0  0
   44.7317   10.4126  -12.6112 C   0  0  0  0  0  0  0  0  0  0  0  0
   42.3499    9.2978   -2.9175 C   0  0  2  0  0  0  0  0  0  0  0  0
   43.7910    9.4437   -3.0923 N   0  0  0  0  0  0  0  0  0  0  0  0
   43.2779    3.1269   -1.8445 C   0  0  0  0  0  0  0  0  0  0  0  0
   44.1378    6.3808   -7.4127 C   0  0  2  0  0  0  0  0  0  0  0  0
   44.0806    7.7172   -8.0300 O   0  0  0  0  0  0  0  0  0  0  0  0
   45.3948    2.7627  -10.6611 C   0  0  2  0  0  0  0  0  0  0  0  0
   45.2713    1.6217   -9.6936 N   0  0  0  0  0  0  0  0  0  0  0  0
   45.9488   10.9856  -12.1741 C   0  0  0  0  0  0  0  0  0  0  0  0
   46.0615   12.3690  -12.0547 N   0  0  0  0  0  0  0  0  0  0  0  0
   41.8983    9.6715   -1.4382 C   0  0  1  0  0  0  0  0  0  0  0  0
   42.2908   11.0082   -1.1617 O   0  0  0  0  0  0  0  0  0  0  0  0
   43.2889    4.7322   -1.5372 C   0  0  2  0  0  0  0  0  0  0  0  0
   42.5784    5.0337   -0.3411 N   0  0  0  0  0  0  0  0  0  0  0  0
   43.7603    5.1349   -8.1770 C   0  0  2  0  0  0  0  0  0  0  0  0
   44.2817    4.1688   -9.0075 O   0  0  0  0  0  0  0  0  0  0  0  0
   46.7005    2.6232  -11.5224 C   0  0  1  0  0  0  0  0  0  0  0  0
   46.7388    3.7640  -12.4491 O   0  0  0  0  0  0  0  0  0  0  0  0
   40.3658    9.5020   -1.3196 C   0  0  2  0  0  0  0  0  0  0  0  0
   39.9029    9.8266    0.0537 O   0  0  0  0  0  0  0  0  0  0  0  0
   42.6446    5.5132   -2.7479 C   0  0  2  0  0  0  0  0  0  0  0  0
   42.1674    5.0572   -7.9674 C   0  0  2  0  0  0  0  0  0  0  0  0
   42.0354    5.4488   -6.6777 O   0  0  0  0  0  0  0  0  0  0  0  0
   47.9969    2.6106  -10.5311 C   0  0  2  0  0  0  0  0  0  0  0  0
   47.9460    1.4596   -9.6015 O   0  0  0  0  0  0  0  0  0  0  0  0
   39.9452    8.0297   -1.6443 C   0  0  2  0  0  0  0  0  0  0  0  0
   40.4357    7.7816   -2.9867 O   0  0  0  0  0  0  0  0  0  0  0  0
   43.4691    5.1554   -4.0303 C   0  0  2  0  0  0  0  0  0  0  0  0
   42.8314    5.9139   -5.0293 O   0  0  0  0  0  0  0  0  0  0  0  0
   41.4774    3.6470   -8.0728 C   0  0  0  0  0  0  0  0  0  0  0  0
   41.6987    3.0964   -9.4097 O   0  0  0  0  0  0  0  0  0  0  0  0
   48.0418    3.9517   -9.6718 C   0  0  1  0  0  0  0  0  0  0  0  0
   46.7324    4.0355   -8.9155 O   0  0  0  0  0  0  0  0  0  0  0  0
   38.4759    7.9677   -1.5305 C   0  0  0  0  0  0  0  0  0  0  0  0
   38.0420    6.7179   -1.7428 O   0  0  0  0  0  0  0  0  0  0  0  0
   43.4145    3.5953   -4.3230 C   0  0  1  0  0  0  0  0  0  0  0  0
   44.1594    3.2880   -5.4618 O   0  0  0  0  0  0  0  0  0  0  0  0
   45.1043    8.2825   -8.9242 C   0  0  0  0  0  0  0  0  0  0  0  0
   49.3027    3.8181   -8.7523 C   0  0  0  0  0  0  0  0  0  0  0  0
   49.4046    4.8737   -7.7859 N   0  0  0  0  0  0  0  0  0  0  0  0
   44.6250    9.6376   -9.4466 C   0  0  0  0  0  0  0  0  0  0  0  0
   43.6790    9.3596  -10.5448 N   0  0  0  0  0  0  0  0  0  0  0  0
   43.4808   10.4337  -11.6164 C   0  0  0  0  0  0  0  0  0  0  0  0
  1  2  1  1  0  0  0
  1  8  1  0  0  0  0
  1 33  1  0  0  0  0
  3  4  1  6  0  0  0
  3 10  1  0  0  0  0
  3 42  1  0  0  0  0
  5 11  1  0  0  0  0
  5 29  1  0  0  0  0
  5 35  1  1  0  0  0
  6 13  1  0  0  0  0
  6 39  1  0  0  0  0
  6 22  1  1  0  0  0
  7 15  1  0  0  0  0
  8  9  1  1  0  0  0
  8 17  1  0  0  0  0
 10 19  1  0  0  0  0
 11 12  1  6  0  0  0
 11 21  1  0  0  0  0
 12 44  1  0  0  0  0
 13 14  1  1  0  0  0
 13 23  1  0  0  0  0
 15 16  1  0  0  0  0
 17 18  1  6  0  0  0
 17 25  1  0  0  0  0
 19 20  1  1  0  0  0
 19 27  1  0  0  0  0
 21 22  1  6  0  0  0
 21 28  1  0  0  0  0
 23 24  1  6  0  0  0
 23 30  1  0  0  0  0
 25 26  1  1  0  0  0
 25 32  1  0  0  0  0
 27  2  1  1  0  0  0
 27 34  1  0  0  0  0
 28 29  1  0  0  0  0
 28 36  1  1  0  0  0
 30 31  1  1  0  0  0
 30 38  1  0  0  0  0
 32 33  1  0  0  0  0
 32 40  1  6  0  0  0
 34 35  1  6  0  0  0
 34 42  1  0  0  0  0
 36 37  1  0  0  0  0
 38 39  1  0  0  0  0
 38 45  1  1  0  0  0
 40 41  1  0  0  0  0
 42 43  1  6  0  0  0
 44 47  1  0  0  0  0
 45 46  1  0  0  0  0
 47 48  1  0  0  0  0
 48 49  1  0  0  0  0
 49  7  1  0  0  0  0
M  END
>  <CHROM.1>
-167.22722369,-23.42714658,-173.95073384,-71.63026939,165.82773437,175.25760750
-18.29994020,-167.53593631,-60.79227283,-177.50277226,169.11101933,-172.72637804
-79.73416060,-155.11064199,76.86402429,-76.21610677,43.75806999,6.09464259
-6.39230648,2.91537224,-1.04548032,2.59692582

>  <Name>
2bee_lig

>  <RI>
0

>  <Rbt.Current_Directory>
/home/itssahil/PROJECTS/Mol_Feturizer/New_Systems/rnas/2bee

>  <Rbt.Executable>
rbdock ($Id: //depot/dev/client3/rdock/2013.1/src/exe/rbdock.cxx#4 $)

>  <Rbt.Library>
libRbt.so (2013.1, Build901 2013/11/27)

>  <Rbt.Parameter_File>
/export/apps/rDock/src/rDock_2013.1_src/data/scripts/dock_solv.prm

>  <Rbt.Receptor>
prm/pocket_docking_8.prm

>  <SCORE>
-25.3507

>  <SCORE.INTER>
-14.5096

>  <SCORE.INTER.CONST>
1

>  <SCORE.INTER.POLAR>
-1.67466

>  <SCORE.INTER.ROT>
16

>  <SCORE.INTER.SOLV>
17.7852

>  <SCORE.INTER.VDW>
-24.286

>  <SCORE.INTER.norm>
-0.296115

>  <SCORE.INTRA>
-10.8411

>  <SCORE.INTRA.DIHEDRAL>
-21.2844

>  <SCORE.INTRA.DIHEDRAL.0>
36.0842

>  <SCORE.INTRA.POLAR>
0

>  <SCORE.INTRA.POLAR.0>
0

>  <SCORE.INTRA.REPUL>
0.0277559

>  <SCORE.INTRA.REPUL.0>
0

>  <SCORE.INTRA.SOLV>
-2.6509

>  <SCORE.INTRA.SOLV.lig_0>
-126.444

>  <SCORE.INTRA.VDW>
0.987809

>  <SCORE.INTRA.VDW.0>
-7.40469

>  <SCORE.INTRA.norm>
-0.221246

>  <SCORE.RESTR>
0

>  <SCORE.RESTR.CAVITY>
0

>  <SCORE.RESTR.norm>
0

>  <SCORE.SYSTEM>
0

>  <SCORE.SYSTEM.CONST>
0

>  <SCORE.SYSTEM.DIHEDRAL>
0

>  <SCORE.SYSTEM.SOLV>
0

>  <SCORE.SYSTEM.norm>
0

>  <SCORE.heavy>
49

>  <SCORE.norm>
-0.517361

>  <RMSD>
9.792

$$$$
2bee_lig
 OpenBabel11021811423D
libRbt.so/2013.1/901 2013/11/27
 49 52  0  0  0  0  0  0  0  0999 V2000
   38.7551   -0.3600   -3.0265 C   0  0  2  0  0  0  0  0  0  0  0  0
   37.9646   -1.0235   -4.0048 O   0  0  0  0  0  0  0  0  0  0  0  0
   36.9463    0.3505   -8.0605 C   0  0  2  0  0  0  0  0  0  0  0  0
   36.2486    1.0877   -9.1489 N   0  0  0  0  0  0  0  0  0  0  0  0
   40.0064    2.2396   -5.0633 C   0  0  1  0  0  0  0  0  0  0  0  0
   41.9687    5.0049   -1.9146 C   0  0  1  0  0  0  0  0  0  0  0  0
   44.0634    6.1723   -9.6052 C   0  0  0  0  0  0  0  0  0  0  0  0
   38.8873   -1.2519   -1.7319 C   0  0  2  0  0  0  0  0  0  0  0  0
   39.4049   -2.5699   -2.0834 N   0  0  0  0  0  0  0  0  0  0  0  0
   35.8781   -0.4858   -7.2194 C   0  0  0  0  0  0  0  0  0  0  0  0
   40.5907    3.5980   -4.8486 C   0  0  2  0  0  0  0  0  0  0  0  0
   41.1091    4.2027   -6.0879 O   0  0  0  0  0  0  0  0  0  0  0  0
   42.2446    6.0971   -3.0815 C   0  0  2  0  0  0  0  0  0  0  0  0
   43.6013    5.8251   -3.6635 N   0  0  0  0  0  0  0  0  0  0  0  0
   43.8445    4.9284  -10.2422 C   0  0  0  0  0  0  0  0  0  0  0  0
   44.9229    4.2135  -10.7587 N   0  0  0  0  0  0  0  0  0  0  0  0
   37.4701   -1.3511   -1.0151 C   0  0  1  0  0  0  0  0  0  0  0  0
   37.5999   -2.1514    0.1510 O   0  0  0  0  0  0  0  0  0  0  0  0
   36.6050   -1.3009   -6.0033 C   0  0  2  0  0  0  0  0  0  0  0  0
   35.6614   -2.0574   -5.2525 N   0  0  0  0  0  0  0  0  0  0  0  0
   41.5029    3.2157   -3.7082 C   0  0  2  0  0  0  0  0  0  0  0  0
   42.0864    3.7179   -2.5670 O   0  0  0  0  0  0  0  0  0  0  0  0
   42.1902    7.5308   -2.4429 C   0  0  1  0  0  0  0  0  0  0  0  0
   40.8327    7.7236   -1.9123 O   0  0  0  0  0  0  0  0  0  0  0  0
   36.9802    0.0732   -0.6650 C   0  0  2  0  0  0  0  0  0  0  0  0
   35.6497    0.0275   -0.0064 O   0  0  0  0  0  0  0  0  0  0  0  0
   37.3507   -0.2875   -5.0504 C   0  0  2  0  0  0  0  0  0  0  0  0
   41.9814    1.7350   -4.1157 C   0  0  2  0  0  0  0  0  0  0  0  0
   40.8470    1.2070   -4.6337 O   0  0  0  0  0  0  0  0  0  0  0  0
   43.3158    7.6355   -1.2658 C   0  0  2  0  0  0  0  0  0  0  0  0
   44.6777    7.4373   -1.8113 O   0  0  0  0  0  0  0  0  0  0  0  0
   36.8589    0.9497   -1.9561 C   0  0  2  0  0  0  0  0  0  0  0  0
   38.1835    0.9408   -2.5473 O   0  0  0  0  0  0  0  0  0  0  0  0
   38.3806    0.5068   -5.9227 C   0  0  2  0  0  0  0  0  0  0  0  0
   38.9962    1.3519   -4.9810 O   0  0  0  0  0  0  0  0  0  0  0  0
   42.4343    0.7630   -2.9642 C   0  0  0  0  0  0  0  0  0  0  0  0
   43.5962    1.3291   -2.2793 O   0  0  0  0  0  0  0  0  0  0  0  0
   43.0507    6.5246   -0.1546 C   0  0  1  0  0  0  0  0  0  0  0  0
   43.0681    5.1835   -0.8581 O   0  0  0  0  0  0  0  0  0  0  0  0
   36.4119    2.2880   -1.5264 C   0  0  0  0  0  0  0  0  0  0  0  0
   37.4216    2.9579   -0.9544 O   0  0  0  0  0  0  0  0  0  0  0  0
   37.6445    1.3142   -7.0753 C   0  0  1  0  0  0  0  0  0  0  0  0
   38.5726    2.0101   -7.8503 O   0  0  0  0  0  0  0  0  0  0  0  0
   40.2868    4.8454   -7.1261 C   0  0  0  0  0  0  0  0  0  0  0  0
   44.1934    6.7067    0.9010 C   0  0  0  0  0  0  0  0  0  0  0  0
   43.9876    5.9275    2.0881 N   0  0  0  0  0  0  0  0  0  0  0  0
   41.1544    5.1284   -8.3533 C   0  0  0  0  0  0  0  0  0  0  0  0
   42.1189    6.1740   -7.9603 N   0  0  0  0  0  0  0  0  0  0  0  0
   42.7963    6.9846   -9.0673 C   0  0  0  0  0  0  0  0  0  0  0  0
  1  2  1  6  0  0  0
  1  8  1  0  0  0  0
  1 33  1  0  0  0  0
  3  4  1  6  0  0  0
  3 10  1  0  0  0  0
  3 42  1  0  0  0  0
  5 11  1  0  0  0  0
  5 29  1  0  0  0  0
  5 35  1  1  0  0  0
  6 13  1  0  0  0  0
  6 39  1  0  0  0  0
  6 22  1  6  0  0  0
  7 15  1  0  0  0  0
  8  9  1  6  0  0  0
  8 17  1  0  0  0  0
 10 19  1  0  0  0  0
 11 12  1  6  0  0  0
 11 21  1  0  0  0  0
 12 44  1  0  0  0  0
 13 14  1  1  0  0  0
 13 23  1  0  0  0  0
 15 16  1  0  0  0  0
 17 18  1  1  0  0  0
 17 25  1  0  0  0  0
 19 20  1  1  0  0  0
 19 27  1  0  0  0  0
 21 22  1  6  0  0  0
 21 28  1  0  0  0  0
 23 24  1  1  0  0  0
 23 30  1  0  0  0  0
 25 26  1  6  0  0  0
 25 32  1  0  0  0  0
 27  2  1  1  0  0  0
 27 34  1  0  0  0  0
 28 29  1  0  0  0  0
 28 36  1  1  0  0  0
 30 31  1  6  0  0  0
 30 38  1  0  0  0  0
 32 33  1  0  0  0  0
 32 40  1  1  0  0  0
 34 35  1  1  0  0  0
 34 42  1  0  0  0  0
 36 37  1  0  0  0  0
 38 39  1  0  0  0  0
 38 45  1  1  0  0  0
 40 41  1  0  0  0  0
 42 43  1  6  0  0  0
 44 47  1  0  0  0  0
 45 46  1  0  0  0  0
 47 48  1  0  0  0  0
 48 49  1  0  0  0  0
 49  7  1  0  0  0  0
M  END
>  <CHROM.1>
159.72473185,127.84284131,-51.31187607,178.06417674,78.71022343,-170.28689462
3.31050774,177.41746068,-61.74890889,74.97218823,176.44270256,170.48447453
-68.00121648,-160.08023729,-84.14749779,64.10684265,40.22065813,2.72050487
-4.03733247,-3.07068918,-0.83364154,-1.54380493

>  <Name>
2bee_lig

>  <RI>
0

>  <Rbt.Current_Directory>
/home/itssahil/PROJECTS/Mol_Feturizer/New_Systems/rnas/2bee

>  <Rbt.Executable>
rbdock ($Id: //depot/dev/client3/rdock/2013.1/src/exe/rbdock.cxx#4 $)

>  <Rbt.Library>
libRbt.so (2013.1, Build901 2013/11/27)

>  <Rbt.Parameter_File>
/export/apps/rDock/src/rDock_2013.1_src/data/scripts/dock_solv.prm

>  <Rbt.Receptor>
prm/pocket_docking_8.prm

>  <SCORE>
-12.4869

>  <SCORE.INTER>
-2.65118

>  <SCORE.INTER.CONST>
1

>  <SCORE.INTER.POLAR>
-0.959166

>  <SCORE.INTER.ROT>
16

>  <SCORE.INTER.SOLV>
18.3152

>  <SCORE.INTER.VDW>
-18.942

>  <SCORE.INTER.norm>
-0.0541057

>  <SCORE.INTRA>
-9.83576

>  <SCORE.INTRA.DIHEDRAL>
-20.7211

>  <SCORE.INTRA.DIHEDRAL.0>
36.0842

>  <SCORE.INTRA.POLAR>
0

>  <SCORE.INTRA.POLAR.0>
0

>  <SCORE.INTRA.REPUL>
0

>  <SCORE.INTRA.REPUL.0>
0

>  <SCORE.INTRA.SOLV>
-3.16578

>  <SCORE.INTRA.SOLV.lig_0>
-126.444

>  <SCORE.INTRA.VDW>
2.10766

>  <SCORE.INTRA.VDW.0>
-7.40469

>  <SCORE.INTRA.norm>
-0.20073

>  <SCORE.RESTR>
0

>  <SCORE.RESTR.CAVITY>
0

>  <SCORE.RESTR.norm>
0

>  <SCORE.SYSTEM>
0

>  <SCORE.SYSTEM.CONST>
0

>  <SCORE.SYSTEM.DIHEDRAL>
0

>  <SCORE.SYSTEM.SOLV>
0

>  <SCORE.SYSTEM.norm>
0

>  <SCORE.heavy>
49

>  <SCORE.norm>
-0.254835

>  <RMSD>
9.845

$$$$
2bee_lig
 OpenBabel11021811423D
libRbt.so/2013.1/901 2013/11/27
 49 52  0  0  0  0  0  0  0  0999 V2000
   41.9308   12.0012    3.1892 C   0  0  2  0  0  0  0  0  0  0  0  0
   40.7272   11.2473    3.1180 O   0  0  0  0  0  0  0  0  0  0  0  0
   41.6117    7.9991    5.9538 C   0  0  2  0  0  0  0  0  0  0  0  0
   41.3873    6.8448    6.8659 N   0  0  0  0  0  0  0  0  0  0  0  0
   41.3244    7.6429    1.3615 C   0  0  1  0  0  0  0  0  0  0  0  0
   38.9741    4.8299   -1.7490 C   0  0  1  0  0  0  0  0  0  0  0  0
   45.5135    7.0531   -4.7463 C   0  0  0  0  0  0  0  0  0  0  0  0
   41.7519   13.3892    2.4609 C   0  0  2  0  0  0  0  0  0  0  0  0
   40.6026   14.0988    3.0125 N   0  0  0  0  0  0  0  0  0  0  0  0
   40.6988    9.2240    6.4168 C   0  0  0  0  0  0  0  0  0  0  0  0
   41.3450    6.1929    1.0015 C   0  0  2  0  0  0  0  0  0  0  0  0
   42.6793    5.7218    0.5916 O   0  0  0  0  0  0  0  0  0  0  0  0
   39.9806    3.5581   -1.7315 C   0  0  2  0  0  0  0  0  0  0  0  0
   41.3720    4.0677   -1.4920 N   0  0  0  0  0  0  0  0  0  0  0  0
   46.0470    6.4784   -5.9235 C   0  0  0  0  0  0  0  0  0  0  0  0
   45.1972    5.8785   -6.8500 N   0  0  0  0  0  0  0  0  0  0  0  0
   41.5942   13.1454    0.8964 C   0  0  1  0  0  0  0  0  0  0  0  0
   41.4385   14.3999    0.2491 O   0  0  0  0  0  0  0  0  0  0  0  0
   40.9070   10.5101    5.4298 C   0  0  2  0  0  0  0  0  0  0  0  0
   40.1034   11.6111    5.8400 N   0  0  0  0  0  0  0  0  0  0  0  0
   40.1861    6.2381    0.0352 C   0  0  2  0  0  0  0  0  0  0  0  0
   39.1567    5.4732   -0.4650 O   0  0  0  0  0  0  0  0  0  0  0  0
   39.8857    2.8305   -3.1200 C   0  0  1  0  0  0  0  0  0  0  0  0
   38.5040    2.3509   -3.2706 O   0  0  0  0  0  0  0  0  0  0  0  0
   42.8420   12.3965    0.3734 C   0  0  2  0  0  0  0  0  0  0  0  0
   42.7288   12.1342   -1.0841 O   0  0  0  0  0  0  0  0  0  0  0  0
   40.5425   10.1111    3.9468 C   0  0  2  0  0  0  0  0  0  0  0  0
   40.3680    7.6711   -0.6726 C   0  0  2  0  0  0  0  0  0  0  0  0
   40.7620    8.4475    0.3647 O   0  0  0  0  0  0  0  0  0  0  0  0
   40.2896    3.8798   -4.3029 C   0  0  2  0  0  0  0  0  0  0  0  0
   41.6812    4.3575   -4.1394 O   0  0  0  0  0  0  0  0  0  0  0  0
   43.0121   11.0246    1.1074 C   0  0  2  0  0  0  0  0  0  0  0  0
   43.1056   11.3563    2.5164 O   0  0  0  0  0  0  0  0  0  0  0  0
   41.4605    8.9078    3.5447 C   0  0  2  0  0  0  0  0  0  0  0  0
   41.0725    8.6536    2.2162 O   0  0  0  0  0  0  0  0  0  0  0  0
   39.0911    8.3613   -1.2800 C   0  0  0  0  0  0  0  0  0  0  0  0
   38.1403    8.6538   -0.2077 O   0  0  0  0  0  0  0  0  0  0  0  0
   39.3162    5.1410   -4.2717 C   0  0  1  0  0  0  0  0  0  0  0  0
   39.4283    5.7510   -2.8901 O   0  0  0  0  0  0  0  0  0  0  0  0
   44.2314   10.3958    0.5656 C   0  0  0  0  0  0  0  0  0  0  0  0
   45.2913   11.1948    0.7483 O   0  0  0  0  0  0  0  0  0  0  0  0
   41.2143    7.6625    4.4992 C   0  0  1  0  0  0  0  0  0  0  0  0
   42.0435    6.6008    4.1368 O   0  0  0  0  0  0  0  0  0  0  0  0
   43.6266    6.4793   -0.2426 C   0  0  0  0  0  0  0  0  0  0  0  0
   39.8084    6.0788   -5.4256 C   0  0  0  0  0  0  0  0  0  0  0  0
   41.0883    6.6697   -5.1585 N   0  0  0  0  0  0  0  0  0  0  0  0
   43.1643    6.4331   -1.6996 C   0  0  0  0  0  0  0  0  0  0  0  0
   44.2860    6.9335   -2.5178 N   0  0  0  0  0  0  0  0  0  0  0  0
   44.7194    6.1078   -3.7310 C   0  0  0  0  0  0  0  0  0  0  0  0
  1  2  1  6  0  0  0
  1  8  1  0  0  0  0
  1 33  1  0  0  0  0
  3  4  1  1  0  0  0
  3 10  1  0  0  0  0
  3 42  1  0  0  0  0
  5 11  1  0  0  0  0
  5 29  1  0  0  0  0
  5 35  1  1  0  0  0
  6 13  1  0  0  0  0
  6 39  1  0  0  0  0
  6 22  1  1  0  0  0
  7 15  1  0  0  0  0
  8  9  1  1  0  0  0
  8 17  1  0  0  0  0
 10 19  1  0  0  0  0
 11 12  1  6  0  0  0
 11 21  1  0  0  0  0
 12 44  1  0  0  0  0
 13 14  1  6  0  0  0
 13 23  1  0  0  0  0
 15 16  1  0  0  0  0
 17 18  1  6  0  0  0
 17 25  1  0  0  0  0
 19 20  1  1  0  0  0
 19 27  1  0  0  0  0
 21 22  1  6  0  0  0
 21 28  1  0  0  0  0
 23 24  1  6  0  0  0
 23 30  1  0  0  0  0
 25 26  1  6  0  0  0
 25 32  1  0  0  0  0
 27  2  1  6  0  0  0
 27 34  1  0  0  0  0
 28 29  1  0  0  0  0
 28 36  1  1  0  0  0
 30 31  1  1  0  0  0
 30 38  1  0  0  0  0
 32 33  1  0  0  0  0
 32 40  1  6  0  0  0
 34 35  1  6  0  0  0
 34 42  1  0  0  0  0
 36 37  1  0  0  0  0
 38 39  1  0  0  0  0
 38 45  1  6  0  0  0
 40 41  1  0  0  0  0
 42 43  1  6  0  0  0
 44 47  1  0  0  0  0
 45 46  1  0  0  0  0
 47 48  1  0  0  0  0
 48 49  1  0  0  0  0
 49  7  1  0  0  0  0
M  END
>  <CHROM.1>
-165.72838511,53.39122164,73.50790468,60.76733157,-39.79051474,-75.81646138
-106.09200415,49.03711036,63.34786620,58.02181380,-168.69260270,-68.88905810
-167.53298778,130.65472199,158.69824573,177.89439398,41.55742822,8.05193791
0.04931301,-1.57878325,-0.98366801,-2.25271149

>  <Name>
2bee_lig

>  <RI>
0

>  <Rbt.Current_Directory>
/home/itssahil/PROJECTS/Mol_Feturizer/New_Systems/rnas/2bee

>  <Rbt.Executable>
rbdock ($Id: //depot/dev/client3/rdock/2013.1/src/exe/rbdock.cxx#4 $)

>  <Rbt.Library>
libRbt.so (2013.1, Build901 2013/11/27)

>  <Rbt.Parameter_File>
/export/apps/rDock/src/rDock_2013.1_src/data/scripts/dock_solv.prm

>  <Rbt.Receptor>
prm/pocket_docking_7.prm

>  <SCORE>
-27.6549

>  <SCORE.INTER>
-18.6106

>  <SCORE.INTER.CONST>
1

>  <SCORE.INTER.POLAR>
-1.82382

>  <SCORE.INTER.ROT>
16

>  <SCORE.INTER.SOLV>
14.1468

>  <SCORE.INTER.VDW>
-25.3099

>  <SCORE.INTER.norm>
-0.379808

>  <SCORE.INTRA>
-9.05185

>  <SCORE.INTRA.DIHEDRAL>
-23.5552

>  <SCORE.INTRA.DIHEDRAL.0>
36.0842

>  <SCORE.INTRA.POLAR>
0

>  <SCORE.INTRA.POLAR.0>
0

>  <SCORE.INTRA.REPUL>
0

>  <SCORE.INTRA.REPUL.0>
0

>  <SCORE.INTRA.SOLV>
5.66714

>  <SCORE.INTRA.SOLV.lig_0>
-126.444

>  <SCORE.INTRA.VDW>
-0.107844

>  <SCORE.INTRA.VDW.0>
-7.40469

>  <SCORE.INTRA.norm>
-0.184732

>  <SCORE.RESTR>
0.00755573

>  <SCORE.RESTR.CAVITY>
0.00755573

>  <SCORE.RESTR.norm>
0.000154199

>  <SCORE.SYSTEM>
0

>  <SCORE.SYSTEM.CONST>
0

>  <SCORE.SYSTEM.DIHEDRAL>
0

>  <SCORE.SYSTEM.SOLV>
0

>  <SCORE.SYSTEM.norm>
0

>  <SCORE.heavy>
49

>  <SCORE.norm>
-0.564386

>  <RMSD>
9.866

$$$$
2bee_lig
 OpenBabel11021811423D
libRbt.so/2013.1/901 2013/11/27
 49 52  0  0  0  0  0  0  0  0999 V2000
   40.7545   -1.5493   -2.0547 C   0  0  2  0  0  0  0  0  0  0  0  0
   40.7467   -0.8390   -3.2865 O   0  0  0  0  0  0  0  0  0  0  0  0
   45.0031   -1.0319   -4.3909 C   0  0  2  0  0  0  0  0  0  0  0  0
   46.2552   -0.8044   -5.1625 N   0  0  0  0  0  0  0  0  0  0  0  0
   42.1305    2.3695   -3.2129 C   0  0  1  0  0  0  0  0  0  0  0  0
   41.0846    3.4762   -7.6033 C   0  0  1  0  0  0  0  0  0  0  0  0
   43.7018    8.1535    0.4523 C   0  0  0  0  0  0  0  0  0  0  0  0
   39.2821   -1.9217   -1.6275 C   0  0  2  0  0  0  0  0  0  0  0  0
   38.6197   -2.6533   -2.7020 N   0  0  0  0  0  0  0  0  0  0  0  0
   43.9101   -1.7013   -5.3421 C   0  0  0  0  0  0  0  0  0  0  0  0
   42.3034    3.3931   -4.2876 C   0  0  2  0  0  0  0  0  0  0  0  0
   42.5293    4.7492   -3.7581 O   0  0  0  0  0  0  0  0  0  0  0  0
   40.6223    2.3579   -8.6835 C   0  0  2  0  0  0  0  0  0  0  0  0
   41.1425    1.0258   -8.2272 N   0  0  0  0  0  0  0  0  0  0  0  0
   42.4790    8.6638   -0.0429 C   0  0  0  0  0  0  0  0  0  0  0  0
   41.3001    7.9459    0.1453 N   0  0  0  0  0  0  0  0  0  0  0  0
   38.4924   -0.5929   -1.2499 C   0  0  1  0  0  0  0  0  0  0  0  0
   37.1705   -0.9383   -0.8624 O   0  0  0  0  0  0  0  0  0  0  0  0
   42.5127   -1.9555   -4.5333 C   0  0  2  0  0  0  0  0  0  0  0  0
   41.5340   -2.5609   -5.3712 N   0  0  0  0  0  0  0  0  0  0  0  0
   41.0583    3.0400   -5.0648 C   0  0  2  0  0  0  0  0  0  0  0  0
   40.5388    3.0282   -6.3395 O   0  0  0  0  0  0  0  0  0  0  0  0
   41.2236    2.7406  -10.0828 C   0  0  1  0  0  0  0  0  0  0  0  0
   40.6563    4.0426  -10.4630 O   0  0  0  0  0  0  0  0  0  0  0  0
   39.2400    0.1314   -0.1062 C   0  0  2  0  0  0  0  0  0  0  0  0
   38.5431    1.3885    0.2677 O   0  0  0  0  0  0  0  0  0  0  0  0
   41.9600   -0.5860   -3.9764 C   0  0  2  0  0  0  0  0  0  0  0  0
   40.0113    2.6567   -3.9053 C   0  0  2  0  0  0  0  0  0  0  0  0
   40.7972    1.9878   -3.0285 O   0  0  0  0  0  0  0  0  0  0  0  0
   42.8503    2.8048   -9.9671 C   0  0  2  0  0  0  0  0  0  0  0  0
   43.4096    1.4895   -9.5815 O   0  0  0  0  0  0  0  0  0  0  0  0
   40.7005    0.4900   -0.5398 C   0  0  2  0  0  0  0  0  0  0  0  0
   41.3124   -0.7756   -0.8977 O   0  0  0  0  0  0  0  0  0  0  0  0
   43.0678    0.0283   -3.0556 C   0  0  2  0  0  0  0  0  0  0  0  0
   42.4678    1.2172   -2.6014 O   0  0  0  0  0  0  0  0  0  0  0  0
   38.8301    1.6833   -4.2702 C   0  0  0  0  0  0  0  0  0  0  0  0
   37.9045    1.5976   -3.1409 O   0  0  0  0  0  0  0  0  0  0  0  0
   43.2790    3.8769   -8.8690 C   0  0  1  0  0  0  0  0  0  0  0  0
   42.6193    3.4656   -7.5692 O   0  0  0  0  0  0  0  0  0  0  0  0
   41.3406    1.1514    0.6128 C   0  0  0  0  0  0  0  0  0  0  0  0
   42.6215    1.4335    0.3391 O   0  0  0  0  0  0  0  0  0  0  0  0
   44.4026    0.2945   -3.8741 C   0  0  1  0  0  0  0  0  0  0  0  0
   45.3840    0.8331   -3.0417 O   0  0  0  0  0  0  0  0  0  0  0  0
   43.6467    5.1429   -2.8845 C   0  0  0  0  0  0  0  0  0  0  0  0
   44.8442    3.8356   -8.8316 C   0  0  0  0  0  0  0  0  0  0  0  0
   45.4407    4.0693  -10.1154 N   0  0  0  0  0  0  0  0  0  0  0  0
   43.5735    6.6473   -2.6190 C   0  0  0  0  0  0  0  0  0  0  0  0
   44.6015    6.9507   -1.6045 N   0  0  0  0  0  0  0  0  0  0  0  0
   44.2377    6.7648   -0.1299 C   0  0  0  0  0  0  0  0  0  0  0  0
  1  2  1  6  0  0  0
  1  8  1  0  0  0  0
  1 33  1  0  0  0  0
  3  4  1  6  0  0  0
  3 10  1  0  0  0  0
  3 42  1  0  0  0  0
  5 11  1  0  0  0  0
  5 29  1  0  0  0  0
  5 35  1  6  0  0  0
  6 13  1  0  0  0  0
  6 39  1  0  0  0  0
  6 22  1  1  0  0  0
  7 15  1  0  0  0  0
  8  9  1  6  0  0  0
  8 17  1  0  0  0  0
 10 19  1  0  0  0  0
 11 12  1  1  0  0  0
 11 21  1  0  0  0  0
 12 44  1  0  0  0  0
 13 14  1  1  0  0  0
 13 23  1  0  0  0  0
 15 16  1  0  0  0  0
 17 18  1  1  0  0  0
 17 25  1  0  0  0  0
 19 20  1  6  0  0  0
 19 27  1  0  0  0  0
 21 22  1  1  0  0  0
 21 28  1  0  0  0  0
 23 24  1  1  0  0  0
 23 30  1  0  0  0  0
 25 26  1  6  0  0  0
 25 32  1  0  0  0  0
 27  2  1  1  0  0  0
 27 34  1  0  0  0  0
 28 29  1  0  0  0  0
 28 36  1  6  0  0  0
 30 31  1  1  0  0  0
 30 38  1  0  0  0  0
 32 33  1  0  0  0  0
 32 40  1  1  0  0  0
 34 35  1  6  0  0  0
 34 42  1  0  0  0  0
 36 37  1  0  0  0  0
 38 39  1  0  0  0  0
 38 45  1  1  0  0  0
 40 41  1  0  0  0  0
 42 43  1  1  0  0  0
 44 47  1  0  0  0  0
 45 46  1  0  0  0  0
 47 48  1  0  0  0  0
 48 49  1  0  0  0  0
 49  7  1  0  0  0  0
M  END
>  <CHROM.1>
-169.87879921,-26.74187130,140.47490395,62.52313790,59.65545064,176.79345127
-3.15594619,69.26926099,-172.84474558,177.05895622,-68.74089455,55.74394307
172.69925892,-84.77553113,-92.88640272,66.59415192,41.86121882,1.99113655
-4.00102659,2.33740219,1.15218052,1.04467173

>  <Name>
2bee_lig

>  <RI>
0

>  <Rbt.Current_Directory>
/home/itssahil/PROJECTS/Mol_Feturizer/New_Systems/rnas/2bee

>  <Rbt.Executable>
rbdock ($Id: //depot/dev/client3/rdock/2013.1/src/exe/rbdock.cxx#4 $)

>  <Rbt.Library>
libRbt.so (2013.1, Build901 2013/11/27)

>  <Rbt.Parameter_File>
/export/apps/rDock/src/rDock_2013.1_src/data/scripts/dock_solv.prm

>  <Rbt.Receptor>
prm/pocket_docking_5.prm

>  <SCORE>
-11.9791

>  <SCORE.INTER>
-1.46845

>  <SCORE.INTER.CONST>
1

>  <SCORE.INTER.POLAR>
-0.959166

>  <SCORE.INTER.ROT>
16

>  <SCORE.INTER.SOLV>
9.84069

>  <SCORE.INTER.VDW>
-15.3286

>  <SCORE.INTER.norm>
-0.0299684

>  <SCORE.INTRA>
-10.6172

>  <SCORE.INTRA.DIHEDRAL>
-20.7949

>  <SCORE.INTRA.DIHEDRAL.0>
36.0842

>  <SCORE.INTRA.POLAR>
0

>  <SCORE.INTRA.POLAR.0>
0

>  <SCORE.INTRA.REPUL>
0

>  <SCORE.INTRA.REPUL.0>
0

>  <SCORE.INTRA.SOLV>
0.739589

>  <SCORE.INTRA.SOLV.lig_0>
-126.444

>  <SCORE.INTRA.VDW>
-0.589478

>  <SCORE.INTRA.VDW.0>
-7.40469

>  <SCORE.INTRA.norm>
-0.216677

>  <SCORE.RESTR>
0.106495

>  <SCORE.RESTR.CAVITY>
0.106495

>  <SCORE.RESTR.norm>
0.00217337

>  <SCORE.SYSTEM>
0

>  <SCORE.SYSTEM.CONST>
0

>  <SCORE.SYSTEM.DIHEDRAL>
0

>  <SCORE.SYSTEM.SOLV>
0

>  <SCORE.SYSTEM.norm>
0

>  <SCORE.heavy>
49

>  <SCORE.norm>
-0.244472

>  <RMSD>
9.879

$$$$
2bee_lig
 OpenBabel11021811423D
libRbt.so/2013.1/901 2013/11/27
 49 52  0  0  0  0  0  0  0  0999 V2000
   40.5088    4.8785    1.3918 C   0  0  2  0  0  0  0  0  0  0  0  0
   39.5644    5.7189    0.7405 O   0  0  0  0  0  0  0  0  0  0  0  0
   39.5503    9.4436   -1.6048 C   0  0  2  0  0  0  0  0  0  0  0  0
   39.9324   10.8099   -2.0541 N   0  0  0  0  0  0  0  0  0  0  0  0
   41.8753    5.3668   -2.3725 C   0  0  1  0  0  0  0  0  0  0  0  0
   42.9272    6.1986   -6.9701 C   0  0  1  0  0  0  0  0  0  0  0  0
   44.4851   -2.0445   -6.1204 C   0  0  0  0  0  0  0  0  0  0  0  0
   39.8735    3.4644    1.6848 C   0  0  2  0  0  0  0  0  0  0  0  0
   39.3520    2.8853    0.4514 N   0  0  0  0  0  0  0  0  0  0  0  0
   39.1649    9.4847   -0.0563 C   0  0  0  0  0  0  0  0  0  0  0  0
   41.7525    4.5222   -3.5989 C   0  0  2  0  0  0  0  0  0  0  0  0
   42.4676    3.2391   -3.4866 O   0  0  0  0  0  0  0  0  0  0  0  0
   42.0075    6.3553   -8.2970 C   0  0  2  0  0  0  0  0  0  0  0  0
   41.1669    5.1189   -8.4306 N   0  0  0  0  0  0  0  0  0  0  0  0
   45.7568   -1.6007   -6.5525 C   0  0  0  0  0  0  0  0  0  0  0  0
   46.8812   -1.8450   -5.7672 N   0  0  0  0  0  0  0  0  0  0  0  0
   38.7360    3.6174    2.7869 C   0  0  1  0  0  0  0  0  0  0  0  0
   38.1735    2.3395    3.0473 O   0  0  0  0  0  0  0  0  0  0  0  0
   38.7511    7.9971    0.4797 C   0  0  2  0  0  0  0  0  0  0  0  0
   38.3969    8.0251    1.8581 N   0  0  0  0  0  0  0  0  0  0  0  0
   42.1758    5.5849   -4.5839 C   0  0  2  0  0  0  0  0  0  0  0  0
   41.9913    5.9982   -5.8840 O   0  0  0  0  0  0  0  0  0  0  0  0
   42.9530    6.5224   -9.5397 C   0  0  1  0  0  0  0  0  0  0  0  0
   43.7266    7.7567   -9.3398 O   0  0  0  0  0  0  0  0  0  0  0  0
   39.3514    4.2296    4.0666 C   0  0  2  0  0  0  0  0  0  0  0  0
   38.3178    4.4045    5.1187 O   0  0  0  0  0  0  0  0  0  0  0  0
   39.9519    6.9963    0.2610 C   0  0  2  0  0  0  0  0  0  0  0  0
   43.3030    6.3953   -3.7714 C   0  0  2  0  0  0  0  0  0  0  0  0
   42.7825    6.4213   -2.5214 O   0  0  0  0  0  0  0  0  0  0  0  0
   43.9247    5.2161   -9.6526 C   0  0  2  0  0  0  0  0  0  0  0  0
   43.1350    3.9798   -9.8511 O   0  0  0  0  0  0  0  0  0  0  0  0
   39.9833    5.6288    3.7620 C   0  0  2  0  0  0  0  0  0  0  0  0
   40.9692    5.3833    2.7266 O   0  0  0  0  0  0  0  0  0  0  0  0
   40.2910    6.9961   -1.2679 C   0  0  2  0  0  0  0  0  0  0  0  0
   41.3437    6.0660   -1.3507 O   0  0  0  0  0  0  0  0  0  0  0  0
   43.5662    7.8942   -4.1709 C   0  0  0  0  0  0  0  0  0  0  0  0
   44.4385    7.9386   -5.3441 O   0  0  0  0  0  0  0  0  0  0  0  0
   44.7848    5.0570   -8.3207 C   0  0  1  0  0  0  0  0  0  0  0  0
   43.8039    4.9546   -7.1713 O   0  0  0  0  0  0  0  0  0  0  0  0
   40.5628    6.1227    5.0253 C   0  0  0  0  0  0  0  0  0  0  0  0
   41.1356    7.3200    4.8415 O   0  0  0  0  0  0  0  0  0  0  0  0
   40.7204    8.4458   -1.7540 C   0  0  1  0  0  0  0  0  0  0  0  0
   41.0113    8.4347   -3.1184 O   0  0  0  0  0  0  0  0  0  0  0  0
   42.5485    2.2182   -4.5440 C   0  0  0  0  0  0  0  0  0  0  0  0
   45.6544    3.7720   -8.5344 C   0  0  0  0  0  0  0  0  0  0  0  0
   46.4424    3.4323   -7.3845 N   0  0  0  0  0  0  0  0  0  0  0  0
   43.3592    1.0261   -4.0333 C   0  0  0  0  0  0  0  0  0  0  0  0
   43.4145    0.0460   -5.1353 N   0  0  0  0  0  0  0  0  0  0  0  0
   43.8539   -1.3830   -4.8093 C   0  0  0  0  0  0  0  0  0  0  0  0
  1  2  1  1  0  0  0
  1  8  1  0  0  0  0
  1 33  1  0  0  0  0
  3  4  1  1  0  0  0
  3 10  1  0  0  0  0
  3 42  1  0  0  0  0
  5 11  1  0  0  0  0
  5 29  1  0  0  0  0
  5 35  1  6  0  0  0
  6 13  1  0  0  0  0
  6 39  1  0  0  0  0
  6 22  1  1  0  0  0
  7 15  1  0  0  0  0
  8  9  1  6  0  0  0
  8 17  1  0  0  0  0
 10 19  1  0  0  0  0
 11 12  1  1  0  0  0
 11 21  1  0  0  0  0
 12 44  1  0  0  0  0
 13 14  1  6  0  0  0
 13 23  1  0  0  0  0
 15 16  1  0  0  0  0
 17 18  1  1  0  0  0
 17 25  1  0  0  0  0
 19 20  1  1  0  0  0
 19 27  1  0  0  0  0
 21 22  1  6  0  0  0
 21 28  1  0  0  0  0
 23 24  1  1  0  0  0
 23 30  1  0  0  0  0
 25 26  1  1  0  0  0
 25 32  1  0  0  0  0
 27  2  1  6  0  0  0
 27 34  1  0  0  0  0
 28 29  1  0  0  0  0
 28 36  1  6  0  0  0
 30 31  1  1  0  0  0
 30 38  1  0  0  0  0
 32 33  1  0  0  0  0
 32 40  1  1  0  0  0
 34 35  1  1  0  0  0
 34 42  1  0  0  0  0
 36 37  1  0  0  0  0
 38 39  1  0  0  0  0
 38 45  1  6  0  0  0
 40 41  1  0  0  0  0
 42 43  1  6  0  0  0
 44 47  1  0  0  0  0
 45 46  1  0  0  0  0
 47 48  1  0  0  0  0
 48 49  1  0  0  0  0
 49  7  1  0  0  0  0
M  END
>  <CHROM.1>
-173.84830887,-44.87234184,167.30029895,66.16523388,-178.61747094,-179.12138320
-122.14971256,-143.33214198,-81.17812418,179.52402867,161.49165581,-176.53030809
-179.54639067,-164.94661048,-153.89458930,72.17194168,41.86174062,5.03943161
-2.82612444,-2.81230271,1.13059500,-0.60056359

>  <Name>
2bee_lig

>  <RI>
0

>  <Rbt.Current_Directory>
/home/itssahil/PROJECTS/Mol_Feturizer/New_Systems/rnas/2bee

>  <Rbt.Executable>
rbdock ($Id: //depot/dev/client3/rdock/2013.1/src/exe/rbdock.cxx#4 $)

>  <Rbt.Library>
libRbt.so (2013.1, Build901 2013/11/27)

>  <Rbt.Parameter_File>
/export/apps/rDock/src/rDock_2013.1_src/data/scripts/dock_solv.prm

>  <Rbt.Receptor>
prm/pocket_docking_6.prm

>  <SCORE>
-12.0757

>  <SCORE.INTER>
-1.52405

>  <SCORE.INTER.CONST>
1

>  <SCORE.INTER.POLAR>
-0.426323

>  <SCORE.INTER.ROT>
16

>  <SCORE.INTER.SOLV>
16.9328

>  <SCORE.INTER.VDW>
-19.5059

>  <SCORE.INTER.norm>
-0.031103

>  <SCORE.INTRA>
-10.5517

>  <SCORE.INTRA.DIHEDRAL>
-21.2967

>  <SCORE.INTRA.DIHEDRAL.0>
36.0842

>  <SCORE.INTRA.POLAR>
0

>  <SCORE.INTRA.POLAR.0>
0

>  <SCORE.INTRA.REPUL>
0

>  <SCORE.INTRA.REPUL.0>
0

>  <SCORE.INTRA.SOLV>
-1.77536

>  <SCORE.INTRA.SOLV.lig_0>
-126.444

>  <SCORE.INTRA.VDW>
0.984329

>  <SCORE.INTRA.VDW.0>
-7.40469

>  <SCORE.INTRA.norm>
-0.21534

>  <SCORE.RESTR>
0

>  <SCORE.RESTR.CAVITY>
0

>  <SCORE.RESTR.norm>
0

>  <SCORE.SYSTEM>
0

>  <SCORE.SYSTEM.CONST>
0

>  <SCORE.SYSTEM.DIHEDRAL>
0

>  <SCORE.SYSTEM.SOLV>
0

>  <SCORE.SYSTEM.norm>
0

>  <SCORE.heavy>
49

>  <SCORE.norm>
-0.246443

>  <RMSD>
9.882

$$$$
2bee_lig
 OpenBabel11021811423D
libRbt.so/2013.1/901 2013/11/27
 49 52  0  0  0  0  0  0  0  0999 V2000
   40.4421    2.7771    1.5834 C   0  0  2  0  0  0  0  0  0  0  0  0
   39.9141    3.8896    0.8723 O   0  0  0  0  0  0  0  0  0  0  0  0
   38.5725    7.8463    2.2577 C   0  0  2  0  0  0  0  0  0  0  0  0
   38.6129    9.1814    2.9139 N   0  0  0  0  0  0  0  0  0  0  0  0
   40.7920    6.8886   -1.6918 C   0  0  1  0  0  0  0  0  0  0  0  0
   41.2073   11.4087   -1.2692 C   0  0  1  0  0  0  0  0  0  0  0  0
   41.0623    2.9766   -6.5559 C   0  0  0  0  0  0  0  0  0  0  0  0
   41.0203    1.7082    0.5775 C   0  0  2  0  0  0  0  0  0  0  0  0
   41.9968    2.3324   -0.3088 N   0  0  0  0  0  0  0  0  0  0  0  0
   38.9448    6.7205    3.3264 C   0  0  0  0  0  0  0  0  0  0  0  0
   40.4058    7.7801   -2.8270 C   0  0  2  0  0  0  0  0  0  0  0  0
   40.7986    7.2405   -4.1404 O   0  0  0  0  0  0  0  0  0  0  0  0
   40.0362   11.3074   -0.1515 C   0  0  2  0  0  0  0  0  0  0  0  0
   38.7195   11.5421   -0.8329 N   0  0  0  0  0  0  0  0  0  0  0  0
   41.0226    2.9047   -7.9681 C   0  0  0  0  0  0  0  0  0  0  0  0
   42.1539    2.5033   -8.6749 N   0  0  0  0  0  0  0  0  0  0  0  0
   39.8222    1.0531   -0.2395 C   0  0  1  0  0  0  0  0  0  0  0  0
   40.3516    0.0895   -1.1385 O   0  0  0  0  0  0  0  0  0  0  0  0
   38.9244    5.2374    2.6398 C   0  0  2  0  0  0  0  0  0  0  0  0
   39.2465    4.2253    3.5875 N   0  0  0  0  0  0  0  0  0  0  0  0
   41.0175    9.0431   -2.2709 C   0  0  2  0  0  0  0  0  0  0  0  0
   40.8680   10.4116   -2.2624 O   0  0  0  0  0  0  0  0  0  0  0  0
   40.2990   12.4017    0.9438 C   0  0  1  0  0  0  0  0  0  0  0  0
   41.5928   12.0935    1.5706 O   0  0  0  0  0  0  0  0  0  0  0  0
   38.8280    0.4065    0.7529 C   0  0  2  0  0  0  0  0  0  0  0  0
   37.6830   -0.2049    0.0309 O   0  0  0  0  0  0  0  0  0  0  0  0
   39.9510    5.1881    1.4419 C   0  0  2  0  0  0  0  0  0  0  0  0
   42.3474    8.5047   -1.5435 C   0  0  2  0  0  0  0  0  0  0  0  0
   41.9156    7.3446   -0.9941 O   0  0  0  0  0  0  0  0  0  0  0  0
   40.3086   13.8734    0.2385 C   0  0  2  0  0  0  0  0  0  0  0  0
   39.0023   14.1714   -0.3910 O   0  0  0  0  0  0  0  0  0  0  0  0
   38.2662    1.4753    1.7488 C   0  0  2  0  0  0  0  0  0  0  0  0
   39.4330    2.0330    2.4058 O   0  0  0  0  0  0  0  0  0  0  0  0
   39.5443    6.3101    0.4279 C   0  0  2  0  0  0  0  0  0  0  0  0
   40.4980    6.1618   -0.5960 O   0  0  0  0  0  0  0  0  0  0  0  0
   42.9393    9.3587   -0.3620 C   0  0  0  0  0  0  0  0  0  0  0  0
   44.1215    8.6877    0.1780 O   0  0  0  0  0  0  0  0  0  0  0  0
   41.4361   13.9342   -0.8858 C   0  0  1  0  0  0  0  0  0  0  0  0
   41.1403   12.8205   -1.8684 O   0  0  0  0  0  0  0  0  0  0  0  0
   37.3519    0.7691    2.6659 C   0  0  0  0  0  0  0  0  0  0  0  0
   36.1876    0.5069    2.0568 O   0  0  0  0  0  0  0  0  0  0  0  0
   39.6039    7.7421    1.1122 C   0  0  1  0  0  0  0  0  0  0  0  0
   39.2313    8.7316    0.2021 O   0  0  0  0  0  0  0  0  0  0  0  0
   42.1845    7.0460   -4.5969 C   0  0  0  0  0  0  0  0  0  0  0  0
   41.3374   15.3713   -1.5009 C   0  0  0  0  0  0  0  0  0  0  0  0
   40.1000   15.6011   -2.1897 N   0  0  0  0  0  0  0  0  0  0  0  0
   42.1802    6.6873   -6.0836 C   0  0  0  0  0  0  0  0  0  0  0  0
   41.3326    5.4880   -6.2293 N   0  0  0  0  0  0  0  0  0  0  0  0
   41.9391    4.1280   -5.8775 C   0  0  0  0  0  0  0  0  0  0  0  0
  1  2  1  6  0  0  0
  1  8  1  0  0  0  0
  1 33  1  0  0  0  0
  3  4  1  1  0  0  0
  3 10  1  0  0  0  0
  3 42  1  0  0  0  0
  5 11  1  0  0  0  0
  5 29  1  0  0  0  0
  5 35  1  1  0  0  0
  6 13  1  0  0  0  0
  6 39  1  0  0  0  0
  6 22  1  6  0  0  0
  7 15  1  0  0  0  0
  8  9  1  6  0  0  0
  8 17  1  0  0  0  0
 10 19  1  0  0  0  0
 11 12  1  6  0  0  0
 11 21  1  0  0  0  0
 12 44  1  0  0  0  0
 13 14  1  6  0  0  0
 13 23  1  0  0  0  0
 15 16  1  0  0  0  0
 17 18  1  6  0  0  0
 17 25  1  0  0  0  0
 19 20  1  1  0  0  0
 19 27  1  0  0  0  0
 21 22  1  6  0  0  0
 21 28  1  0  0  0  0
 23 24  1  6  0  0  0
 23 30  1  0  0  0  0
 25 26  1  6  0  0  0
 25 32  1  0  0  0  0
 27  2  1  6  0  0  0
 27 34  1  0  0  0  0
 28 29  1  0  0  0  0
 28 36  1  1  0  0  0
 30 31  1  6  0  0  0
 30 38  1  0  0  0  0
 32 33  1  0  0  0  0
 32 40  1  1  0  0  0
 34 35  1  6  0  0  0
 34 42  1  0  0  0  0
 36 37  1  0  0  0  0
 38 39  1  0  0  0  0
 38 45  1  6  0  0  0
 40 41  1  0  0  0  0
 42 43  1  6  0  0  0
 44 47  1  0  0  0  0
 45 46  1  0  0  0  0
 47 48  1  0  0  0  0
 48 49  1  0  0  0  0
 49  7  1  0  0  0  0
M  END
>  <CHROM.1>
-148.68607652,-32.62211639,-77.82499643,70.09397052,-65.59578376,-170.79204921
150.65471333,-70.46778055,178.80567291,-76.26510907,-172.37438869,-65.37594784
-56.58871078,-79.61411245,-161.12476516,65.09524347,40.34007973,6.83859596
-0.82020146,1.93695243,-1.23055421,-2.84621545

>  <Name>
2bee_lig

>  <RI>
0

>  <Rbt.Current_Directory>
/home/itssahil/PROJECTS/Mol_Feturizer/New_Systems/rnas/2bee

>  <Rbt.Executable>
rbdock ($Id: //depot/dev/client3/rdock/2013.1/src/exe/rbdock.cxx#4 $)

>  <Rbt.Library>
libRbt.so (2013.1, Build901 2013/11/27)

>  <Rbt.Parameter_File>
/export/apps/rDock/src/rDock_2013.1_src/data/scripts/dock_solv.prm

>  <Rbt.Receptor>
prm/pocket_docking_8.prm

>  <SCORE>
-12.5085

>  <SCORE.INTER>
-8.68082

>  <SCORE.INTER.CONST>
1

>  <SCORE.INTER.POLAR>
-1.85113

>  <SCORE.INTER.ROT>
16

>  <SCORE.INTER.SOLV>
16.5115

>  <SCORE.INTER.VDW>
-19.3873

>  <SCORE.INTER.norm>
-0.17716

>  <SCORE.INTRA>
-3.8277

>  <SCORE.INTRA.DIHEDRAL>
-20.1238

>  <SCORE.INTRA.DIHEDRAL.0>
36.0842

>  <SCORE.INTRA.POLAR>
0

>  <SCORE.INTRA.POLAR.0>
0

>  <SCORE.INTRA.REPUL>
0

>  <SCORE.INTRA.REPUL.0>
0

>  <SCORE.INTRA.SOLV>
4.4065

>  <SCORE.INTRA.SOLV.lig_0>
-126.444

>  <SCORE.INTRA.VDW>
4.03094

>  <SCORE.INTRA.VDW.0>
-7.40469

>  <SCORE.INTRA.norm>
-0.0781162

>  <SCORE.RESTR>
0

>  <SCORE.RESTR.CAVITY>
0

>  <SCORE.RESTR.norm>
0

>  <SCORE.SYSTEM>
0

>  <SCORE.SYSTEM.CONST>
0

>  <SCORE.SYSTEM.DIHEDRAL>
0

>  <SCORE.SYSTEM.SOLV>
0

>  <SCORE.SYSTEM.norm>
0

>  <SCORE.heavy>
49

>  <SCORE.norm>
-0.255276

>  <RMSD>
9.900

$$$$
2bee_lig
 OpenBabel11021811423D
libRbt.so/2013.1/901 2013/11/27
 49 52  0  0  0  0  0  0  0  0999 V2000
   44.8663    0.6841   -5.0904 C   0  0  2  0  0  0  0  0  0  0  0  0
   45.1675   -0.2722   -6.0988 O   0  0  0  0  0  0  0  0  0  0  0  0
   42.5817   -3.6344   -7.2750 C   0  0  2  0  0  0  0  0  0  0  0  0
   41.9856   -4.9980   -7.2848 N   0  0  0  0  0  0  0  0  0  0  0  0
   41.7610   -0.2731   -4.0812 C   0  0  1  0  0  0  0  0  0  0  0  0
   38.0188   -2.7047   -4.2526 C   0  0  1  0  0  0  0  0  0  0  0  0
   39.4938    0.5226   -7.8854 C   0  0  0  0  0  0  0  0  0  0  0  0
   45.8829    1.8888   -5.1564 C   0  0  2  0  0  0  0  0  0  0  0  0
   45.8935    2.4612   -6.4984 N   0  0  0  0  0  0  0  0  0  0  0  0
   44.1614   -3.7465   -7.4747 C   0  0  0  0  0  0  0  0  0  0  0  0
   40.3887    0.3181   -4.0796 C   0  0  2  0  0  0  0  0  0  0  0  0
   40.3323    1.6368   -3.4254 O   0  0  0  0  0  0  0  0  0  0  0  0
   38.0078   -2.2394   -5.8064 C   0  0  2  0  0  0  0  0  0  0  0  0
   37.1104   -1.0423   -5.9283 N   0  0  0  0  0  0  0  0  0  0  0  0
   39.6939    0.3711   -9.2774 C   0  0  0  0  0  0  0  0  0  0  0  0
   40.8214    0.9236   -9.8810 N   0  0  0  0  0  0  0  0  0  0  0  0
   47.3279    1.3814   -4.7245 C   0  0  1  0  0  0  0  0  0  0  0  0
   48.2346    2.4729   -4.7825 O   0  0  0  0  0  0  0  0  0  0  0  0
   44.8563   -2.2672   -7.4563 C   0  0  2  0  0  0  0  0  0  0  0  0
   46.2647   -2.3561   -7.6429 N   0  0  0  0  0  0  0  0  0  0  0  0
   39.6823   -0.8858   -3.5047 C   0  0  2  0  0  0  0  0  0  0  0  0
   38.4741   -1.5453   -3.5148 O   0  0  0  0  0  0  0  0  0  0  0  0
   37.4691   -3.4298   -6.6775 C   0  0  1  0  0  0  0  0  0  0  0  0
   38.4064   -4.5510   -6.5160 O   0  0  0  0  0  0  0  0  0  0  0  0
   47.2508    0.7927   -3.2966 C   0  0  2  0  0  0  0  0  0  0  0  0
   48.5788    0.2917   -2.8591 O   0  0  0  0  0  0  0  0  0  0  0  0
   44.5473   -1.5478   -6.0859 C   0  0  2  0  0  0  0  0  0  0  0  0
   40.7595   -1.4658   -2.4602 C   0  0  2  0  0  0  0  0  0  0  0  0
   41.9231   -1.2853   -3.1291 O   0  0  0  0  0  0  0  0  0  0  0  0
   35.9676   -3.8246   -6.1746 C   0  0  2  0  0  0  0  0  0  0  0  0
   35.0340   -2.6878   -6.3396 O   0  0  0  0  0  0  0  0  0  0  0  0
   46.2352   -0.3971   -3.2427 C   0  0  2  0  0  0  0  0  0  0  0  0
   44.9727    0.1603   -3.6894 O   0  0  0  0  0  0  0  0  0  0  0  0
   42.9904   -1.4668   -5.9382 C   0  0  2  0  0  0  0  0  0  0  0  0
   42.8309   -0.7962   -4.7115 O   0  0  0  0  0  0  0  0  0  0  0  0
   40.6896   -2.9963   -2.1019 C   0  0  0  0  0  0  0  0  0  0  0  0
   41.6872   -3.3015   -1.0767 O   0  0  0  0  0  0  0  0  0  0  0  0
   35.9962   -4.2346   -4.6350 C   0  0  1  0  0  0  0  0  0  0  0  0
   36.5733   -3.0583   -3.8755 O   0  0  0  0  0  0  0  0  0  0  0  0
   46.2095   -0.8771   -1.8482 C   0  0  0  0  0  0  0  0  0  0  0  0
   45.6088    0.0202   -1.0550 O   0  0  0  0  0  0  0  0  0  0  0  0
   42.3453   -2.9181   -5.9267 C   0  0  1  0  0  0  0  0  0  0  0  0
   40.9583   -2.8326   -5.8035 O   0  0  0  0  0  0  0  0  0  0  0  0
   39.2164    2.5906   -3.5350 C   0  0  0  0  0  0  0  0  0  0  0  0
   34.5121   -4.5689   -4.2627 C   0  0  0  0  0  0  0  0  0  0  0  0
   34.0257   -5.7526   -4.9114 N   0  0  0  0  0  0  0  0  0  0  0  0
   39.1340    3.1076   -4.9720 C   0  0  0  0  0  0  0  0  0  0  0  0
   38.9333    1.9289   -5.8372 N   0  0  0  0  0  0  0  0  0  0  0  0
   39.4286    2.0018   -7.2831 C   0  0  0  0  0  0  0  0  0  0  0  0
  1  2  1  6  0  0  0
  1  8  1  0  0  0  0
  1 33  1  0  0  0  0
  3  4  1  1  0  0  0
  3 10  1  0  0  0  0
  3 42  1  0  0  0  0
  5 11  1  0  0  0  0
  5 29  1  0  0  0  0
  5 35  1  6  0  0  0
  6 13  1  0  0  0  0
  6 39  1  0  0  0  0
  6 22  1  1  0  0  0
  7 15  1  0  0  0  0
  8  9  1  6  0  0  0
  8 17  1  0  0  0  0
 10 19  1  0  0  0  0
 11 12  1  1  0  0  0
 11 21  1  0  0  0  0
 12 44  1  0  0  0  0
 13 14  1  1  0  0  0
 13 23  1  0  0  0  0
 15 16  1  0  0  0  0
 17 18  1  1  0  0  0
 17 25  1  0  0  0  0
 19 20  1  1  0  0  0
 19 27  1  0  0  0  0
 21 22  1  1  0  0  0
 21 28  1  0  0  0  0
 23 24  1  1  0  0  0
 23 30  1  0  0  0  0
 25 26  1  6  0  0  0
 25 32  1  0  0  0  0
 27  2  1  6  0  0  0
 27 34  1  0  0  0  0
 28 29  1  0  0  0  0
 28 36  1  6  0  0  0
 30 31  1  1  0  0  0
 30 38  1  0  0  0  0
 32 33  1  0  0  0  0
 32 40  1  1  0  0  0
 34 35  1  1  0  0  0
 34 42  1  0  0  0  0
 36 37  1  0  0  0  0
 38 39  1  0  0  0  0
 38 45  1  1  0  0  0
 40 41  1  0  0  0  0
 42 43  1  6  0  0  0
 44 47  1  0  0  0  0
 45 46  1  0  0  0  0
 47 48  1  0  0  0  0
 48 49  1  0  0  0  0
 49  7  1  0  0  0  0
M  END
>  <CHROM.1>
168.64353468,-25.31422933,-65.69617147,57.66873210,165.23474145,-66.91666922
98.47500682,169.14138894,-176.20314840,70.47170174,170.84518781,67.82279618
58.98807187,-152.74768248,163.87922596,168.80180166,41.50579469,-1.10337518
-5.04918158,0.13221970,-0.32796241,-0.90552433

>  <Name>
2bee_lig

>  <RI>
0

>  <Rbt.Current_Directory>
/home/itssahil/PROJECTS/Mol_Feturizer/New_Systems/rnas/2bee

>  <Rbt.Executable>
rbdock ($Id: //depot/dev/client3/rdock/2013.1/src/exe/rbdock.cxx#4 $)

>  <Rbt.Library>
libRbt.so (2013.1, Build901 2013/11/27)

>  <Rbt.Parameter_File>
/export/apps/rDock/src/rDock_2013.1_src/data/scripts/dock_solv.prm

>  <Rbt.Receptor>
prm/pocket_docking_6.prm

>  <SCORE>
-4.37877

>  <SCORE.INTER>
5.86266

>  <SCORE.INTER.CONST>
1

>  <SCORE.INTER.POLAR>
-0.0217149

>  <SCORE.INTER.ROT>
16

>  <SCORE.INTER.SOLV>
8.15467

>  <SCORE.INTER.VDW>
-13.0041

>  <SCORE.INTER.norm>
0.119646

>  <SCORE.INTRA>
-10.2432

>  <SCORE.INTRA.DIHEDRAL>
-23.5228

>  <SCORE.INTRA.DIHEDRAL.0>
36.0842

>  <SCORE.INTRA.POLAR>
0

>  <SCORE.INTRA.POLAR.0>
0

>  <SCORE.INTRA.REPUL>
0

>  <SCORE.INTRA.REPUL.0>
0

>  <SCORE.INTRA.SOLV>
1.33002

>  <SCORE.INTRA.SOLV.lig_0>
-126.444

>  <SCORE.INTRA.VDW>
0.853205

>  <SCORE.INTRA.VDW.0>
-7.40469

>  <SCORE.INTRA.norm>
-0.209044

>  <SCORE.RESTR>
0.00175243

>  <SCORE.RESTR.CAVITY>
0.00175243

>  <SCORE.RESTR.norm>
3.57639e-05

>  <SCORE.SYSTEM>
0

>  <SCORE.SYSTEM.CONST>
0

>  <SCORE.SYSTEM.DIHEDRAL>
0

>  <SCORE.SYSTEM.SOLV>
0

>  <SCORE.SYSTEM.norm>
0

>  <SCORE.heavy>
49

>  <SCORE.norm>
-0.0893627

>  <RMSD>
9.913

$$$$
2bee_lig
 OpenBabel11021811423D
libRbt.so/2013.1/901 2013/11/27
 49 52  0  0  0  0  0  0  0  0999 V2000
   41.7072    5.1553   -2.0392 C   0  0  2  0  0  0  0  0  0  0  0  0
   41.5178    3.8109   -1.6163 O   0  0  0  0  0  0  0  0  0  0  0  0
   45.0310    1.8633   -3.4160 C   0  0  2  0  0  0  0  0  0  0  0  0
   45.9797    0.7859   -3.8085 N   0  0  0  0  0  0  0  0  0  0  0  0
   40.8302    2.5983   -5.3539 C   0  0  1  0  0  0  0  0  0  0  0  0
   39.7036   -0.8649   -8.2126 C   0  0  1  0  0  0  0  0  0  0  0  0
   43.5894    8.4631   -9.8566 C   0  0  0  0  0  0  0  0  0  0  0  0
   40.9650    6.1469   -1.0621 C   0  0  2  0  0  0  0  0  0  0  0  0
   41.4008    5.9156    0.3109 N   0  0  0  0  0  0  0  0  0  0  0  0
   44.8522    1.8582   -1.8298 C   0  0  0  0  0  0  0  0  0  0  0  0
   40.8503    2.1550   -6.7806 C   0  0  2  0  0  0  0  0  0  0  0  0
   40.8630    3.2801   -7.7315 O   0  0  0  0  0  0  0  0  0  0  0  0
   39.2217   -0.2598   -9.6383 C   0  0  2  0  0  0  0  0  0  0  0  0
   37.7234   -0.1699   -9.6243 N   0  0  0  0  0  0  0  0  0  0  0  0
   43.7245    9.5051  -10.8037 C   0  0  0  0  0  0  0  0  0  0  0  0
   44.7332    9.4452  -11.7627 N   0  0  0  0  0  0  0  0  0  0  0  0
   39.3926    5.9589   -1.2172 C   0  0  1  0  0  0  0  0  0  0  0  0
   38.7333    6.8583   -0.3378 O   0  0  0  0  0  0  0  0  0  0  0  0
   43.8048    3.0214   -1.3590 C   0  0  2  0  0  0  0  0  0  0  0  0
   43.6456    3.0308    0.0556 N   0  0  0  0  0  0  0  0  0  0  0  0
   39.6783    1.2084   -6.6842 C   0  0  2  0  0  0  0  0  0  0  0  0
   39.1738    0.0443   -7.2184 O   0  0  0  0  0  0  0  0  0  0  0  0
   39.7108   -1.2234  -10.7777 C   0  0  1  0  0  0  0  0  0  0  0  0
   41.1803   -1.2444  -10.7340 O   0  0  0  0  0  0  0  0  0  0  0  0
   38.9950    6.2217   -2.6883 C   0  0  2  0  0  0  0  0  0  0  0  0
   37.5334    6.0413   -2.8810 O   0  0  0  0  0  0  0  0  0  0  0  0
   42.4040    2.7912   -2.0488 C   0  0  2  0  0  0  0  0  0  0  0  0
   38.6959    1.9612   -5.6568 C   0  0  2  0  0  0  0  0  0  0  0  0
   39.5701    2.4745   -4.7589 O   0  0  0  0  0  0  0  0  0  0  0  0
   39.0812   -2.7086  -10.5298 C   0  0  2  0  0  0  0  0  0  0  0  0
   37.6019   -2.6745  -10.5735 O   0  0  0  0  0  0  0  0  0  0  0  0
   39.7419    5.2362   -3.6479 C   0  0  2  0  0  0  0  0  0  0  0  0
   41.1534    5.4600   -3.3989 O   0  0  0  0  0  0  0  0  0  0  0  0
   42.6354    2.8016   -3.5976 C   0  0  2  0  0  0  0  0  0  0  0  0
   41.3365    2.6145   -4.1053 O   0  0  0  0  0  0  0  0  0  0  0  0
   37.6797    1.0870   -4.8329 C   0  0  0  0  0  0  0  0  0  0  0  0
   38.3970   -0.0109   -4.1851 O   0  0  0  0  0  0  0  0  0  0  0  0
   39.5312   -3.2631   -9.1054 C   0  0  1  0  0  0  0  0  0  0  0  0
   39.0689   -2.2558   -8.0733 O   0  0  0  0  0  0  0  0  0  0  0  0
   39.3228    5.5736   -5.0213 C   0  0  0  0  0  0  0  0  0  0  0  0
   39.7867    6.7815   -5.3692 O   0  0  0  0  0  0  0  0  0  0  0  0
   43.6308    1.6422   -4.0303 C   0  0  1  0  0  0  0  0  0  0  0  0
   43.8357    1.6673   -5.4101 O   0  0  0  0  0  0  0  0  0  0  0  0
   41.9613    4.2482   -7.8849 C   0  0  0  0  0  0  0  0  0  0  0  0
   38.8565   -4.6701   -8.9712 C   0  0  0  0  0  0  0  0  0  0  0  0
   39.1114   -5.2942   -7.7046 N   0  0  0  0  0  0  0  0  0  0  0  0
   41.6245    5.2178   -9.0186 C   0  0  0  0  0  0  0  0  0  0  0  0
   42.7314    6.1914   -9.0886 N   0  0  0  0  0  0  0  0  0  0  0  0
   42.7709    7.1558  -10.2759 C   0  0  0  0  0  0  0  0  0  0  0  0
  1  2  1  1  0  0  0
  1  8  1  0  0  0  0
  1 33  1  0  0  0  0
  3  4  1  1  0  0  0
  3 10  1  0  0  0  0
  3 42  1  0  0  0  0
  5 11  1  0  0  0  0
  5 29  1  0  0  0  0
  5 35  1  1  0  0  0
  6 13  1  0  0  0  0
  6 39  1  0  0  0  0
  6 22  1  1  0  0  0
  7 15  1  0  0  0  0
  8  9  1  1  0  0  0
  8 17  1  0  0  0  0
 10 19  1  0  0  0  0
 11 12  1  6  0  0  0
 11 21  1  0  0  0  0
 12 44  1  0  0  0  0
 13 14  1  1  0  0  0
 13 23  1  0  0  0  0
 15 16  1  0  0  0  0
 17 18  1  1  0  0  0
 17 25  1  0  0  0  0
 19 20  1  1  0  0  0
 19 27  1  0  0  0  0
 21 22  1  6  0  0  0
 21 28  1  0  0  0  0
 23 24  1  1  0  0  0
 23 30  1  0  0  0  0
 25 26  1  1  0  0  0
 25 32  1  0  0  0  0
 27  2  1  6  0  0  0
 27 34  1  0  0  0  0
 28 29  1  0  0  0  0
 28 36  1  1  0  0  0
 30 31  1  1  0  0  0
 30 38  1  0  0  0  0
 32 33  1  0  0  0  0
 32 40  1  6  0  0  0
 34 35  1  6  0  0  0
 34 42  1  0  0  0  0
 36 37  1  0  0  0  0
 38 39  1  0  0  0  0
 38 45  1  1  0  0  0
 40 41  1  0  0  0  0
 42 43  1  6  0  0  0
 44 47  1  0  0  0  0
 45 46  1  0  0  0  0
 47 48  1  0  0  0  0
 48 49  1  0  0  0  0
 49  7  1  0  0  0  0
M  END
>  <CHROM.1>
-159.73586461,47.45145594,-86.95559550,-83.82879517,65.67155088,177.21117182
2.46433787,69.53857159,51.04901624,67.36190165,175.87860998,-177.35470121
177.80531292,170.69590647,155.35276493,-178.66799408,40.88501471,2.68819238
-5.80738518,0.74722736,1.24979569,1.47990240

>  <Name>
2bee_lig

>  <RI>
0

>  <Rbt.Current_Directory>
/home/itssahil/PROJECTS/Mol_Feturizer/New_Systems/rnas/2bee

>  <Rbt.Executable>
rbdock ($Id: //depot/dev/client3/rdock/2013.1/src/exe/rbdock.cxx#4 $)

>  <Rbt.Library>
libRbt.so (2013.1, Build901 2013/11/27)

>  <Rbt.Parameter_File>
/export/apps/rDock/src/rDock_2013.1_src/data/scripts/dock_solv.prm

>  <Rbt.Receptor>
prm/pocket_docking_6.prm

>  <SCORE>
-15.4037

>  <SCORE.INTER>
-2.82978

>  <SCORE.INTER.CONST>
1

>  <SCORE.INTER.POLAR>
0

>  <SCORE.INTER.ROT>
16

>  <SCORE.INTER.SOLV>
14.3405

>  <SCORE.INTER.VDW>
-20.9333

>  <SCORE.INTER.norm>
-0.0577506

>  <SCORE.INTRA>
-12.5739

>  <SCORE.INTRA.DIHEDRAL>
-23.2694

>  <SCORE.INTRA.DIHEDRAL.0>
36.0842

>  <SCORE.INTRA.POLAR>
0

>  <SCORE.INTRA.POLAR.0>
0

>  <SCORE.INTRA.REPUL>
0

>  <SCORE.INTRA.REPUL.0>
0

>  <SCORE.INTRA.SOLV>
-2.19948

>  <SCORE.INTRA.SOLV.lig_0>
-126.444

>  <SCORE.INTRA.VDW>
0.160503

>  <SCORE.INTRA.VDW.0>
-7.40469

>  <SCORE.INTRA.norm>
-0.256611

>  <SCORE.RESTR>
0

>  <SCORE.RESTR.CAVITY>
0

>  <SCORE.RESTR.norm>
0

>  <SCORE.SYSTEM>
0

>  <SCORE.SYSTEM.CONST>
0

>  <SCORE.SYSTEM.DIHEDRAL>
0

>  <SCORE.SYSTEM.SOLV>
0

>  <SCORE.SYSTEM.norm>
0

>  <SCORE.heavy>
49

>  <SCORE.norm>
-0.314361

>  <RMSD>
9.917

$$$$
2bee_lig
 OpenBabel11021811423D
libRbt.so/2013.1/901 2013/11/27
 49 52  0  0  0  0  0  0  0  0999 V2000
   37.7630   -1.2764   -4.1020 C   0  0  2  0  0  0  0  0  0  0  0  0
   37.6659   -0.1179   -3.2831 O   0  0  0  0  0  0  0  0  0  0  0  0
   39.5799    1.2026    0.4541 C   0  0  2  0  0  0  0  0  0  0  0  0
   40.6445    1.4457    1.4653 N   0  0  0  0  0  0  0  0  0  0  0  0
   38.9967    3.6251   -3.5218 C   0  0  1  0  0  0  0  0  0  0  0  0
   42.9171    5.5968   -4.4791 C   0  0  1  0  0  0  0  0  0  0  0  0
   41.3854    8.9492   -1.8145 C   0  0  0  0  0  0  0  0  0  0  0  0
   38.9819   -1.1449   -5.0950 C   0  0  2  0  0  0  0  0  0  0  0  0
   40.2061   -0.8702   -4.3503 N   0  0  0  0  0  0  0  0  0  0  0  0
   39.5350   -0.3526    0.0974 C   0  0  0  0  0  0  0  0  0  0  0  0
   39.4837    5.0278   -3.3558 C   0  0  2  0  0  0  0  0  0  0  0  0
   38.3886    6.0030   -3.2143 O   0  0  0  0  0  0  0  0  0  0  0  0
   43.5626    7.0001   -4.9742 C   0  0  2  0  0  0  0  0  0  0  0  0
   43.5048    7.0368   -6.4737 N   0  0  0  0  0  0  0  0  0  0  0  0
   42.5736    9.5612   -1.3514 C   0  0  0  0  0  0  0  0  0  0  0  0
   42.6059   10.9363   -1.1310 N   0  0  0  0  0  0  0  0  0  0  0  0
   38.6733   -0.0011   -6.1574 C   0  0  1  0  0  0  0  0  0  0  0  0
   39.7733    0.1067   -7.0492 O   0  0  0  0  0  0  0  0  0  0  0  0
   38.3846   -0.6593   -1.0226 C   0  0  2  0  0  0  0  0  0  0  0  0
   38.3306   -2.0457   -1.3409 N   0  0  0  0  0  0  0  0  0  0  0  0
   40.4045    5.0340   -4.5520 C   0  0  2  0  0  0  0  0  0  0  0  0
   41.5746    5.5873   -5.0208 O   0  0  0  0  0  0  0  0  0  0  0  0
   45.0493    7.0673   -4.4727 C   0  0  1  0  0  0  0  0  0  0  0  0
   45.0182    7.0420   -3.0030 O   0  0  0  0  0  0  0  0  0  0  0  0
   37.3713   -0.3524   -6.9141 C   0  0  2  0  0  0  0  0  0  0  0  0
   37.0372    0.6999   -7.9076 O   0  0  0  0  0  0  0  0  0  0  0  0
   38.6758    0.1741   -2.3309 C   0  0  2  0  0  0  0  0  0  0  0  0
   39.6022    4.1426   -5.6239 C   0  0  2  0  0  0  0  0  0  0  0  0
   39.0783    3.1689   -4.8419 O   0  0  0  0  0  0  0  0  0  0  0  0
   45.8763    5.7972   -5.0781 C   0  0  2  0  0  0  0  0  0  0  0  0
   45.8986    5.8321   -6.5579 O   0  0  0  0  0  0  0  0  0  0  0  0
   36.1712   -0.4859   -5.9182 C   0  0  2  0  0  0  0  0  0  0  0  0
   36.5702   -1.5164   -4.9784 O   0  0  0  0  0  0  0  0  0  0  0  0
   38.7127    1.6865   -1.9262 C   0  0  2  0  0  0  0  0  0  0  0  0
   38.9519    2.3294   -3.1548 O   0  0  0  0  0  0  0  0  0  0  0  0
   40.4314    3.4109   -6.7432 C   0  0  0  0  0  0  0  0  0  0  0  0
   41.3450    2.4519   -6.1226 O   0  0  0  0  0  0  0  0  0  0  0  0
   45.1978    4.4316   -4.6157 C   0  0  1  0  0  0  0  0  0  0  0  0
   43.7605    4.4696   -5.0914 O   0  0  0  0  0  0  0  0  0  0  0  0
   34.9856   -0.8432   -6.7196 C   0  0  0  0  0  0  0  0  0  0  0  0
   33.9372   -1.0873   -5.9218 O   0  0  0  0  0  0  0  0  0  0  0  0
   39.8594    1.9614   -0.8623 C   0  0  1  0  0  0  0  0  0  0  0  0
   39.8765    3.3094   -0.5033 O   0  0  0  0  0  0  0  0  0  0  0  0
   37.5951    6.2155   -1.9927 C   0  0  0  0  0  0  0  0  0  0  0  0
   46.0563    3.2954   -5.2676 C   0  0  0  0  0  0  0  0  0  0  0  0
   47.4150    3.2866   -4.8069 N   0  0  0  0  0  0  0  0  0  0  0  0
   38.4740    6.8745   -0.9286 C   0  0  0  0  0  0  0  0  0  0  0  0
   38.9944    8.1224   -1.5200 N   0  0  0  0  0  0  0  0  0  0  0  0
   40.1486    8.8320   -0.8088 C   0  0  0  0  0  0  0  0  0  0  0  0
  1  2  1  6  0  0  0
  1  8  1  0  0  0  0
  1 33  1  0  0  0  0
  3  4  1  1  0  0  0
  3 10  1  0  0  0  0
  3 42  1  0  0  0  0
  5 11  1  0  0  0  0
  5 29  1  0  0  0  0
  5 35  1  1  0  0  0
  6 13  1  0  0  0  0
  6 39  1  0  0  0  0
  6 22  1  6  0  0  0
  7 15  1  0  0  0  0
  8  9  1  1  0  0  0
  8 17  1  0  0  0  0
 10 19  1  0  0  0  0
 11 12  1  6  0  0  0
 11 21  1  0  0  0  0
 12 44  1  0  0  0  0
 13 14  1  6  0  0  0
 13 23  1  0  0  0  0
 15 16  1  0  0  0  0
 17 18  1  6  0  0  0
 17 25  1  0  0  0  0
 19 20  1  6  0  0  0
 19 27  1  0  0  0  0
 21 22  1  6  0  0  0
 21 28  1  0  0  0  0
 23 24  1  1  0  0  0
 23 30  1  0  0  0  0
 25 26  1  6  0  0  0
 25 32  1  0  0  0  0
 27  2  1  6  0  0  0
 27 34  1  0  0  0  0
 28 29  1  0  0  0  0
 28 36  1  6  0  0  0
 30 31  1  6  0  0  0
 30 38  1  0  0  0  0
 32 33  1  0  0  0  0
 32 40  1  6  0  0  0
 34 35  1  6  0  0  0
 34 42  1  0  0  0  0
 36 37  1  0  0  0  0
 38 39  1  0  0  0  0
 38 45  1  6  0  0  0
 40 41  1  0  0  0  0
 42 43  1  1  0  0  0
 44 47  1  0  0  0  0
 45 46  1  0  0  0  0
 47 48  1  0  0  0  0
 48 49  1  0  0  0  0
 49  7  1  0  0  0  0
M  END
>  <CHROM.1>
-66.66973833,50.91886724,-148.66913858,-71.15125806,76.75343470,69.91055128
56.23742173,-82.96555310,62.34008426,174.75421169,174.21427637,62.54020198
56.75188677,-166.42078652,121.33108485,-179.16216379,40.33214699,3.28257951
-3.80846706,-2.44565057,0.62535408,0.73426818

>  <Name>
2bee_lig

>  <RI>
0

>  <Rbt.Current_Directory>
/home/itssahil/PROJECTS/Mol_Feturizer/New_Systems/rnas/2bee

>  <Rbt.Executable>
rbdock ($Id: //depot/dev/client3/rdock/2013.1/src/exe/rbdock.cxx#4 $)

>  <Rbt.Library>
libRbt.so (2013.1, Build901 2013/11/27)

>  <Rbt.Parameter_File>
/export/apps/rDock/src/rDock_2013.1_src/data/scripts/dock_solv.prm

>  <Rbt.Receptor>
prm/pocket_docking_5.prm

>  <SCORE>
-11.4308

>  <SCORE.INTER>
-2.50326

>  <SCORE.INTER.CONST>
1

>  <SCORE.INTER.POLAR>
-1.4957

>  <SCORE.INTER.ROT>
16

>  <SCORE.INTER.SOLV>
13.0557

>  <SCORE.INTER.VDW>
-15.3017

>  <SCORE.INTER.norm>
-0.051087

>  <SCORE.INTRA>
-8.92757

>  <SCORE.INTRA.DIHEDRAL>
-19.6734

>  <SCORE.INTRA.DIHEDRAL.0>
36.0842

>  <SCORE.INTRA.POLAR>
0

>  <SCORE.INTRA.POLAR.0>
0

>  <SCORE.INTRA.REPUL>
0

>  <SCORE.INTRA.REPUL.0>
0

>  <SCORE.INTRA.SOLV>
1.97078

>  <SCORE.INTRA.SOLV.lig_0>
-126.444

>  <SCORE.INTRA.VDW>
-0.0762433

>  <SCORE.INTRA.VDW.0>
-7.40469

>  <SCORE.INTRA.norm>
-0.182195

>  <SCORE.RESTR>
0

>  <SCORE.RESTR.CAVITY>
0

>  <SCORE.RESTR.norm>
0

>  <SCORE.SYSTEM>
0

>  <SCORE.SYSTEM.CONST>
0

>  <SCORE.SYSTEM.DIHEDRAL>
0

>  <SCORE.SYSTEM.SOLV>
0

>  <SCORE.SYSTEM.norm>
0

>  <SCORE.heavy>
49

>  <SCORE.norm>
-0.233282

>  <RMSD>
9.961

$$$$
2bee_lig
 OpenBabel11021811423D
libRbt.so/2013.1/901 2013/11/27
 49 52  0  0  0  0  0  0  0  0999 V2000
   39.3544   -1.2488   -3.1472 C   0  0  2  0  0  0  0  0  0  0  0  0
   40.3357   -0.9376   -2.1662 O   0  0  0  0  0  0  0  0  0  0  0  0
   44.4831    0.5308   -2.2976 C   0  0  2  0  0  0  0  0  0  0  0  0
   45.6647    1.3364   -2.7096 N   0  0  0  0  0  0  0  0  0  0  0  0
   40.6163    2.5507   -1.0116 C   0  0  1  0  0  0  0  0  0  0  0  0
   41.2698    3.9595   -5.2093 C   0  0  1  0  0  0  0  0  0  0  0  0
   38.2415    4.1002    3.6770 C   0  0  0  0  0  0  0  0  0  0  0  0
   37.9898   -1.6326   -2.4547 C   0  0  2  0  0  0  0  0  0  0  0  0
   37.5716   -0.5677   -1.5494 N   0  0  0  0  0  0  0  0  0  0  0  0
   43.8589   -0.1862   -3.5799 C   0  0  0  0  0  0  0  0  0  0  0  0
   40.8286    3.9929   -1.3397 C   0  0  2  0  0  0  0  0  0  0  0  0
   40.1669    4.9018   -0.3877 O   0  0  0  0  0  0  0  0  0  0  0  0
   42.8073    3.6875   -4.7696 C   0  0  2  0  0  0  0  0  0  0  0  0
   43.3833    4.9783   -4.2646 N   0  0  0  0  0  0  0  0  0  0  0  0
   39.1768    3.1248    4.0947 C   0  0  0  0  0  0  0  0  0  0  0  0
   38.8952    1.7720    3.9171 N   0  0  0  0  0  0  0  0  0  0  0  0
   38.1595   -3.0181   -1.6907 C   0  0  1  0  0  0  0  0  0  0  0  0
   36.9256   -3.3575   -1.0748 O   0  0  0  0  0  0  0  0  0  0  0  0
   42.5479   -1.0721   -3.1703 C   0  0  2  0  0  0  0  0  0  0  0  0
   41.9892   -1.7230   -4.3063 N   0  0  0  0  0  0  0  0  0  0  0  0
   40.4012    3.9064   -2.7849 C   0  0  2  0  0  0  0  0  0  0  0  0
   40.6225    4.4721   -4.0201 O   0  0  0  0  0  0  0  0  0  0  0  0
   43.6003    3.1779   -6.0257 C   0  0  1  0  0  0  0  0  0  0  0  0
   42.9870    1.9098   -6.4471 O   0  0  0  0  0  0  0  0  0  0  0  0
   38.5974   -4.1026   -2.7024 C   0  0  2  0  0  0  0  0  0  0  0  0
   38.7829   -5.4119   -2.0263 O   0  0  0  0  0  0  0  0  0  0  0  0
   41.4605   -0.1422   -2.5040 C   0  0  2  0  0  0  0  0  0  0  0  0
   39.2055    2.8313   -2.7391 C   0  0  2  0  0  0  0  0  0  0  0  0
   39.6705    1.9339   -1.8377 O   0  0  0  0  0  0  0  0  0  0  0  0
   43.5194    4.3049   -7.2033 C   0  0  2  0  0  0  0  0  0  0  0  0
   44.1374    5.5773   -6.7668 O   0  0  0  0  0  0  0  0  0  0  0  0
   39.9486   -3.7077   -3.3867 C   0  0  2  0  0  0  0  0  0  0  0  0
   39.6963   -2.4240   -4.0134 O   0  0  0  0  0  0  0  0  0  0  0  0
   42.1227    0.5371   -1.2579 C   0  0  2  0  0  0  0  0  0  0  0  0
   41.0723    1.3135   -0.7346 O   0  0  0  0  0  0  0  0  0  0  0  0
   38.8935    2.0186   -4.0498 C   0  0  0  0  0  0  0  0  0  0  0  0
   37.6832    1.2217   -3.8510 O   0  0  0  0  0  0  0  0  0  0  0  0
   41.9988    4.5878   -7.5866 C   0  0  1  0  0  0  0  0  0  0  0  0
   41.2969    5.0222   -6.3168 O   0  0  0  0  0  0  0  0  0  0  0  0
   40.2740   -4.7803   -4.3456 C   0  0  0  0  0  0  0  0  0  0  0  0
   40.6879   -5.8778   -3.6980 O   0  0  0  0  0  0  0  0  0  0  0  0
   43.3732    1.4164   -1.6887 C   0  0  1  0  0  0  0  0  0  0  0  0
   43.9594    2.0087   -0.5699 O   0  0  0  0  0  0  0  0  0  0  0  0
   40.4421    4.9630    1.0571 C   0  0  0  0  0  0  0  0  0  0  0  0
   42.0451    5.6892   -8.6992 C   0  0  0  0  0  0  0  0  0  0  0  0
   42.7196    5.2546   -9.8887 N   0  0  0  0  0  0  0  0  0  0  0  0
   39.6818    6.1421    1.6659 C   0  0  0  0  0  0  0  0  0  0  0  0
   39.8176    6.0250    3.1308 N   0  0  0  0  0  0  0  0  0  0  0  0
   38.5788    5.6400    3.9423 C   0  0  0  0  0  0  0  0  0  0  0  0
  1  2  1  1  0  0  0
  1  8  1  0  0  0  0
  1 33  1  0  0  0  0
  3  4  1  6  0  0  0
  3 10  1  0  0  0  0
  3 42  1  0  0  0  0
  5 11  1  0  0  0  0
  5 29  1  0  0  0  0
  5 35  1  6  0  0  0
  6 13  1  0  0  0  0
  6 39  1  0  0  0  0
  6 22  1  1  0  0  0
  7 15  1  0  0  0  0
  8  9  1  1  0  0  0
  8 17  1  0  0  0  0
 10 19  1  0  0  0  0
 11 12  1  1  0  0  0
 11 21  1  0  0  0  0
 12 44  1  0  0  0  0
 13 14  1  6  0  0  0
 13 23  1  0  0  0  0
 15 16  1  0  0  0  0
 17 18  1  6  0  0  0
 17 25  1  0  0  0  0
 19 20  1  6  0  0  0
 19 27  1  0  0  0  0
 21 22  1  1  0  0  0
 21 28  1  0  0  0  0
 23 24  1  6  0  0  0
 23 30  1  0  0  0  0
 25 26  1  1  0  0  0
 25 32  1  0  0  0  0
 27  2  1  1  0  0  0
 27 34  1  0  0  0  0
 28 29  1  0  0  0  0
 28 36  1  6  0  0  0
 30 31  1  1  0  0  0
 30 38  1  0  0  0  0
 32 33  1  0  0  0  0
 32 40  1  6  0  0  0
 34 35  1  6  0  0  0
 34 42  1  0  0  0  0
 36 37  1  0  0  0  0
 38 39  1  0  0  0  0
 38 45  1  6  0  0  0
 40 41  1  0  0  0  0
 42 43  1  1  0  0  0
 44 47  1  0  0  0  0
 45 46  1  0  0  0  0
 47 48  1  0  0  0  0
 48 49  1  0  0  0  0
 49  7  1  0  0  0  0
M  END
>  <CHROM.1>
-158.20889448,-41.03572461,-62.58452535,177.97311022,60.27322181,173.15330069
109.87161299,-82.64684401,-173.22655684,-73.59415481,-85.29909778,62.67623609
171.08293165,-109.62658930,71.74230021,64.36359945,40.82783040,1.50528024
-2.62970118,-2.71599734,1.12322945,0.52072786

>  <Name>
2bee_lig

>  <RI>
0

>  <Rbt.Current_Directory>
/home/itssahil/PROJECTS/Mol_Feturizer/New_Systems/rnas/2bee

>  <Rbt.Executable>
rbdock ($Id: //depot/dev/client3/rdock/2013.1/src/exe/rbdock.cxx#4 $)

>  <Rbt.Library>
libRbt.so (2013.1, Build901 2013/11/27)

>  <Rbt.Parameter_File>
/export/apps/rDock/src/rDock_2013.1_src/data/scripts/dock_solv.prm

>  <Rbt.Receptor>
prm/pocket_docking_7.prm

>  <SCORE>
-3.32546

>  <SCORE.INTER>
4.47103

>  <SCORE.INTER.CONST>
1

>  <SCORE.INTER.POLAR>
0

>  <SCORE.INTER.ROT>
16

>  <SCORE.INTER.SOLV>
6.38151

>  <SCORE.INTER.VDW>
-13.4131

>  <SCORE.INTER.norm>
0.0912456

>  <SCORE.INTRA>
-7.7965

>  <SCORE.INTRA.DIHEDRAL>
-21.1577

>  <SCORE.INTRA.DIHEDRAL.0>
36.0842

>  <SCORE.INTRA.POLAR>
0

>  <SCORE.INTRA.POLAR.0>
0

>  <SCORE.INTRA.REPUL>
0

>  <SCORE.INTRA.REPUL.0>
0

>  <SCORE.INTRA.SOLV>
3.9022

>  <SCORE.INTRA.SOLV.lig_0>
-126.444

>  <SCORE.INTRA.VDW>
0.831249

>  <SCORE.INTRA.VDW.0>
-7.40469

>  <SCORE.INTRA.norm>
-0.159112

>  <SCORE.RESTR>
0

>  <SCORE.RESTR.CAVITY>
0

>  <SCORE.RESTR.norm>
0

>  <SCORE.SYSTEM>
0

>  <SCORE.SYSTEM.CONST>
0

>  <SCORE.SYSTEM.DIHEDRAL>
0

>  <SCORE.SYSTEM.SOLV>
0

>  <SCORE.SYSTEM.norm>
0

>  <SCORE.heavy>
49

>  <SCORE.norm>
-0.0678666

>  <RMSD>
10.004

$$$$
2bee_lig
 OpenBabel11021811423D
libRbt.so/2013.1/901 2013/11/27
 49 52  0  0  0  0  0  0  0  0999 V2000
   39.4168   -2.0566   -9.2312 C   0  0  2  0  0  0  0  0  0  0  0  0
   38.8977   -0.7746   -8.9010 O   0  0  0  0  0  0  0  0  0  0  0  0
   39.1051    1.6413   -5.2275 C   0  0  2  0  0  0  0  0  0  0  0  0
   38.8791    2.0547   -3.8158 N   0  0  0  0  0  0  0  0  0  0  0  0
   41.9777   -1.7879   -6.5322 C   0  0  1  0  0  0  0  0  0  0  0  0
   43.9548    0.3816   -3.1607 C   0  0  1  0  0  0  0  0  0  0  0  0
   48.6626    0.6228   -6.0270 C   0  0  0  0  0  0  0  0  0  0  0  0
   39.5350   -2.2134  -10.7966 C   0  0  2  0  0  0  0  0  0  0  0  0
   40.3257   -1.1195  -11.3504 N   0  0  0  0  0  0  0  0  0  0  0  0
   37.6968    1.4135   -5.9436 C   0  0  0  0  0  0  0  0  0  0  0  0
   43.4376   -1.5962   -6.2785 C   0  0  2  0  0  0  0  0  0  0  0  0
   44.2756   -2.5962   -6.9626 O   0  0  0  0  0  0  0  0  0  0  0  0
   45.4211    0.5761   -2.4949 C   0  0  2  0  0  0  0  0  0  0  0  0
   45.5974   -0.4766   -1.4396 N   0  0  0  0  0  0  0  0  0  0  0  0
   49.3336    1.8680   -6.0328 C   0  0  0  0  0  0  0  0  0  0  0  0
   49.3622    2.6467   -4.8780 N   0  0  0  0  0  0  0  0  0  0  0  0
   38.0767   -2.2622  -11.4315 C   0  0  1  0  0  0  0  0  0  0  0  0
   38.1931   -2.4081  -12.8394 O   0  0  0  0  0  0  0  0  0  0  0  0
   37.9027    0.9445   -7.4957 C   0  0  2  0  0  0  0  0  0  0  0  0
   36.6518    0.7474   -8.1458 N   0  0  0  0  0  0  0  0  0  0  0  0
   43.3448   -1.5323   -4.7731 C   0  0  2  0  0  0  0  0  0  0  0  0
   43.9482   -0.9739   -3.6690 O   0  0  0  0  0  0  0  0  0  0  0  0
   45.4940    2.0130   -1.8654 C   0  0  1  0  0  0  0  0  0  0  0  0
   45.3286    2.9806   -2.9600 O   0  0  0  0  0  0  0  0  0  0  0  0
   37.2939   -3.4416  -10.8091 C   0  0  2  0  0  0  0  0  0  0  0  0
   35.9181   -3.5143  -11.3641 O   0  0  0  0  0  0  0  0  0  0  0  0
   38.7418   -0.3915   -7.5442 C   0  0  2  0  0  0  0  0  0  0  0  0
   42.1803   -2.5918   -4.4427 C   0  0  2  0  0  0  0  0  0  0  0  0
   41.3051   -2.3694   -5.4520 O   0  0  0  0  0  0  0  0  0  0  0  0
   44.3177    2.1668   -0.7446 C   0  0  2  0  0  0  0  0  0  0  0  0
   44.4933    1.1863    0.3504 O   0  0  0  0  0  0  0  0  0  0  0  0
   37.1886   -3.2778   -9.2561 C   0  0  2  0  0  0  0  0  0  0  0  0
   38.5596   -3.2042   -8.7878 O   0  0  0  0  0  0  0  0  0  0  0  0
   40.1070   -0.1153   -6.8284 C   0  0  2  0  0  0  0  0  0  0  0  0
   40.7743   -1.3482   -6.9495 O   0  0  0  0  0  0  0  0  0  0  0  0
   41.3699   -2.4046   -3.1070 C   0  0  0  0  0  0  0  0  0  0  0  0
   42.2586   -2.6193   -1.9653 O   0  0  0  0  0  0  0  0  0  0  0  0
   42.8909    1.9273   -1.4124 C   0  0  1  0  0  0  0  0  0  0  0  0
   42.9218    0.5482   -2.0374 O   0  0  0  0  0  0  0  0  0  0  0  0
   36.4526   -4.4512   -8.7492 C   0  0  0  0  0  0  0  0  0  0  0  0
   36.2450   -4.3401   -7.4301 O   0  0  0  0  0  0  0  0  0  0  0  0
   39.8786    0.3068   -5.3144 C   0  0  1  0  0  0  0  0  0  0  0  0
   41.1006    0.5585   -4.6903 O   0  0  0  0  0  0  0  0  0  0  0  0
   45.7409   -2.6894   -6.8574 C   0  0  0  0  0  0  0  0  0  0  0  0
   41.8532    2.0778   -0.2489 C   0  0  0  0  0  0  0  0  0  0  0  0
   41.8671    0.9678    0.6600 N   0  0  0  0  0  0  0  0  0  0  0  0
   46.3666   -1.3880   -7.3614 C   0  0  0  0  0  0  0  0  0  0  0  0
   47.8220   -1.5048   -7.1467 N   0  0  0  0  0  0  0  0  0  0  0  0
   48.6855   -0.2596   -7.3595 C   0  0  0  0  0  0  0  0  0  0  0  0
  1  2  1  6  0  0  0
  1  8  1  0  0  0  0
  1 33  1  0  0  0  0
  3  4  1  1  0  0  0
  3 10  1  0  0  0  0
  3 42  1  0  0  0  0
  5 11  1  0  0  0  0
  5 29  1  0  0  0  0
  5 35  1  1  0  0  0
  6 13  1  0  0  0  0
  6 39  1  0  0  0  0
  6 22  1  1  0  0  0
  7 15  1  0  0  0  0
  8  9  1  6  0  0  0
  8 17  1  0  0  0  0
 10 19  1  0  0  0  0
 11 12  1  1  0  0  0
 11 21  1  0  0  0  0
 12 44  1  0  0  0  0
 13 14  1  1  0  0  0
 13 23  1  0  0  0  0
 15 16  1  0  0  0  0
 17 18  1  6  0  0  0
 17 25  1  0  0  0  0
 19 20  1  1  0  0  0
 19 27  1  0  0  0  0
 21 22  1  1  0  0  0
 21 28  1  0  0  0  0
 23 24  1  6  0  0  0
 23 30  1  0  0  0  0
 25 26  1  6  0  0  0
 25 32  1  0  0  0  0
 27  2  1  6  0  0  0
 27 34  1  0  0  0  0
 28 29  1  0  0  0  0
 28 36  1  1  0  0  0
 30 31  1  1  0  0  0
 30 38  1  0  0  0  0
 32 33  1  0  0  0  0
 32 40  1  1  0  0  0
 34 35  1  1  0  0  0
 34 42  1  0  0  0  0
 36 37  1  0  0  0  0
 38 39  1  0  0  0  0
 38 45  1  1  0  0  0
 40 41  1  0  0  0  0
 42 43  1  6  0  0  0
 44 47  1  0  0  0  0
 45 46  1  0  0  0  0
 47 48  1  0  0  0  0
 48 49  1  0  0  0  0
 49  7  1  0  0  0  0
M  END
>  <CHROM.1>
-178.06918949,-38.82583090,-146.33675222,-178.37487953,-177.56352616,-60.34179998
72.92521257,-169.35807533,-66.01897159,-175.97565389,-178.91190473,-72.81483612
176.24171905,-170.69346352,83.80155254,-176.17182764,41.84834180,-0.68407794
-5.85770531,-2.38368437,0.06868110,1.19862627

>  <Name>
2bee_lig

>  <RI>
0

>  <Rbt.Current_Directory>
/home/itssahil/PROJECTS/Mol_Feturizer/New_Systems/rnas/2bee

>  <Rbt.Executable>
rbdock ($Id: //depot/dev/client3/rdock/2013.1/src/exe/rbdock.cxx#4 $)

>  <Rbt.Library>
libRbt.so (2013.1, Build901 2013/11/27)

>  <Rbt.Parameter_File>
/export/apps/rDock/src/rDock_2013.1_src/data/scripts/dock_solv.prm

>  <Rbt.Receptor>
prm/pocket_docking_8.prm

>  <SCORE>
-5.85208

>  <SCORE.INTER>
6.22023

>  <SCORE.INTER.CONST>
1

>  <SCORE.INTER.POLAR>
0

>  <SCORE.INTER.ROT>
16

>  <SCORE.INTER.SOLV>
16.784

>  <SCORE.INTER.VDW>
-15.7145

>  <SCORE.INTER.norm>
0.126944

>  <SCORE.INTRA>
-12.0723

>  <SCORE.INTRA.DIHEDRAL>
-22.7338

>  <SCORE.INTRA.DIHEDRAL.0>
36.0842

>  <SCORE.INTRA.POLAR>
0

>  <SCORE.INTRA.POLAR.0>
0

>  <SCORE.INTRA.REPUL>
0

>  <SCORE.INTRA.REPUL.0>
0

>  <SCORE.INTRA.SOLV>
-2.25163

>  <SCORE.INTRA.SOLV.lig_0>
-126.444

>  <SCORE.INTRA.VDW>
0.420387

>  <SCORE.INTRA.VDW.0>
-7.40469

>  <SCORE.INTRA.norm>
-0.246374

>  <SCORE.RESTR>
0

>  <SCORE.RESTR.CAVITY>
0

>  <SCORE.RESTR.norm>
0

>  <SCORE.SYSTEM>
0

>  <SCORE.SYSTEM.CONST>
0

>  <SCORE.SYSTEM.DIHEDRAL>
0

>  <SCORE.SYSTEM.SOLV>
0

>  <SCORE.SYSTEM.norm>
0

>  <SCORE.heavy>
49

>  <SCORE.norm>
-0.11943

>  <RMSD>
10.055

$$$$
2bee_lig
 OpenBabel11021811423D
libRbt.so/2013.1/901 2013/11/27
 49 52  0  0  0  0  0  0  0  0999 V2000
   39.7889   11.9130    0.5548 C   0  0  2  0  0  0  0  0  0  0  0  0
   40.8839   11.9739    1.4600 O   0  0  0  0  0  0  0  0  0  0  0  0
   41.8511   10.8768    5.6115 C   0  0  2  0  0  0  0  0  0  0  0  0
   41.6537   10.5598    7.0522 N   0  0  0  0  0  0  0  0  0  0  0  0
   40.8449    8.0562    1.9696 C   0  0  1  0  0  0  0  0  0  0  0  0
   39.8566    5.6147   -1.8478 C   0  0  1  0  0  0  0  0  0  0  0  0
   37.9547    1.8037    3.5183 C   0  0  0  0  0  0  0  0  0  0  0  0
   40.2679   12.2567   -0.9086 C   0  0  2  0  0  0  0  0  0  0  0  0
   41.3719   11.3830   -1.2914 N   0  0  0  0  0  0  0  0  0  0  0  0
   41.2385   12.3171    5.2983 C   0  0  0  0  0  0  0  0  0  0  0  0
   40.3501    6.7398    1.4649 C   0  0  2  0  0  0  0  0  0  0  0  0
   40.6045    5.6327    2.4029 O   0  0  0  0  0  0  0  0  0  0  0  0
   39.8597    4.1870   -1.0781 C   0  0  2  0  0  0  0  0  0  0  0  0
   41.2392    3.6045   -1.1812 N   0  0  0  0  0  0  0  0  0  0  0  0
   37.8259    1.3712    2.1777 C   0  0  0  0  0  0  0  0  0  0  0  0
   38.3069    0.1186    1.8030 N   0  0  0  0  0  0  0  0  0  0  0  0
   40.6835   13.7911   -0.9788 C   0  0  1  0  0  0  0  0  0  0  0  0
   41.1085   14.0920   -2.3001 O   0  0  0  0  0  0  0  0  0  0  0  0
   41.4239   12.6971    3.7195 C   0  0  2  0  0  0  0  0  0  0  0  0
   40.8884   13.9844    3.4320 N   0  0  0  0  0  0  0  0  0  0  0  0
   41.0220    6.8085    0.1148 C   0  0  2  0  0  0  0  0  0  0  0  0
   40.8816    6.3990   -1.1919 O   0  0  0  0  0  0  0  0  0  0  0  0
   38.8063    3.2486   -1.7680 C   0  0  1  0  0  0  0  0  0  0  0  0
   37.4874    3.8791   -1.6108 O   0  0  0  0  0  0  0  0  0  0  0  0
   39.4733   14.6616   -0.5679 C   0  0  2  0  0  0  0  0  0  0  0  0
   39.8234   16.1045   -0.6048 O   0  0  0  0  0  0  0  0  0  0  0  0
   40.7105   11.6133    2.8209 C   0  0  2  0  0  0  0  0  0  0  0  0
   42.4160    7.5391    0.4474 C   0  0  2  0  0  0  0  0  0  0  0  0
   42.0361    8.4647    1.3600 O   0  0  0  0  0  0  0  0  0  0  0  0
   39.2012    3.0659   -3.3410 C   0  0  2  0  0  0  0  0  0  0  0  0
   40.5314    2.4328   -3.4865 O   0  0  0  0  0  0  0  0  0  0  0  0
   39.0039   14.3074    0.8826 C   0  0  2  0  0  0  0  0  0  0  0  0
   38.6905   12.8915    0.8456 O   0  0  0  0  0  0  0  0  0  0  0  0
   41.3436   10.2238    3.1685 C   0  0  2  0  0  0  0  0  0  0  0  0
   40.6600    9.3480    2.3051 O   0  0  0  0  0  0  0  0  0  0  0  0
   43.1296    8.3292   -0.7112 C   0  0  0  0  0  0  0  0  0  0  0  0
   44.2815    9.0502   -0.1701 O   0  0  0  0  0  0  0  0  0  0  0  0
   39.2358    4.4849   -4.0650 C   0  0  1  0  0  0  0  0  0  0  0  0
   40.2319    5.3410   -3.3111 O   0  0  0  0  0  0  0  0  0  0  0  0
   37.8396   15.1633    1.1784 C   0  0  0  0  0  0  0  0  0  0  0  0
   36.9009   15.0204    0.2331 O   0  0  0  0  0  0  0  0  0  0  0  0
   41.1207    9.8659    4.6997 C   0  0  1  0  0  0  0  0  0  0  0  0
   41.6964    8.6309    4.9990 O   0  0  0  0  0  0  0  0  0  0  0  0
   40.1104    5.5645    3.7879 C   0  0  0  0  0  0  0  0  0  0  0  0
   39.6424    4.1887   -5.5483 C   0  0  0  0  0  0  0  0  0  0  0  0
   38.7073    3.3364   -6.2249 N   0  0  0  0  0  0  0  0  0  0  0  0
   38.5812    5.5491    3.7778 C   0  0  0  0  0  0  0  0  0  0  0  0
   38.1728    4.3059    3.0955 N   0  0  0  0  0  0  0  0  0  0  0  0
   37.4089    3.2555    3.9046 C   0  0  0  0  0  0  0  0  0  0  0  0
  1  2  1  1  0  0  0
  1  8  1  0  0  0  0
  1 33  1  0  0  0  0
  3  4  1  1  0  0  0
  3 10  1  0  0  0  0
  3 42  1  0  0  0  0
  5 11  1  0  0  0  0
  5 29  1  0  0  0  0
  5 35  1  6  0  0  0
  6 13  1  0  0  0  0
  6 39  1  0  0  0  0
  6 22  1  1  0  0  0
  7 15  1  0  0  0  0
  8  9  1  1  0  0  0
  8 17  1  0  0  0  0
 10 19  1  0  0  0  0
 11 12  1  1  0  0  0
 11 21  1  0  0  0  0
 12 44  1  0  0  0  0
 13 14  1  6  0  0  0
 13 23  1  0  0  0  0
 15 16  1  0  0  0  0
 17 18  1  6  0  0  0
 17 25  1  0  0  0  0
 19 20  1  1  0  0  0
 19 27  1  0  0  0  0
 21 22  1  1  0  0  0
 21 28  1  0  0  0  0
 23 24  1  6  0  0  0
 23 30  1  0  0  0  0
 25 26  1  1  0  0  0
 25 32  1  0  0  0  0
 27  2  1  6  0  0  0
 27 34  1  0  0  0  0
 28 29  1  0  0  0  0
 28 36  1  6  0  0  0
 30 31  1  1  0  0  0
 30 38  1  0  0  0  0
 32 33  1  0  0  0  0
 32 40  1  6  0  0  0
 34 35  1  6  0  0  0
 34 42  1  0  0  0  0
 36 37  1  0  0  0  0
 38 39  1  0  0  0  0
 38 45  1  6  0  0  0
 40 41  1  0  0  0  0
 42 43  1  6  0  0  0
 44 47  1  0  0  0  0
 45 46  1  0  0  0  0
 47 48  1  0  0  0  0
 48 49  1  0  0  0  0
 49  7  1  0  0  0  0
M  END
>  <CHROM.1>
-175.71550872,156.22768140,-59.95133828,179.15446016,58.76100334,62.25422747
-0.19062095,-135.11844202,173.07770034,54.42580946,169.55627570,60.77898377
63.86742690,115.73419503,-138.97481177,-61.21998794,40.15012526,8.30353631
0.71049320,0.29736790,-1.46553193,-1.02189816

>  <Name>
2bee_lig

>  <RI>
0

>  <Rbt.Current_Directory>
/home/itssahil/PROJECTS/Mol_Feturizer/New_Systems/rnas/2bee

>  <Rbt.Executable>
rbdock ($Id: //depot/dev/client3/rdock/2013.1/src/exe/rbdock.cxx#4 $)

>  <Rbt.Library>
libRbt.so (2013.1, Build901 2013/11/27)

>  <Rbt.Parameter_File>
/export/apps/rDock/src/rDock_2013.1_src/data/scripts/dock_solv.prm

>  <Rbt.Receptor>
prm/pocket_docking_7.prm

>  <SCORE>
-15.3493

>  <SCORE.INTER>
-6.97108

>  <SCORE.INTER.CONST>
1

>  <SCORE.INTER.POLAR>
-1.25907

>  <SCORE.INTER.ROT>
16

>  <SCORE.INTER.SOLV>
16.8155

>  <SCORE.INTER.VDW>
-20.3223

>  <SCORE.INTER.norm>
-0.142267

>  <SCORE.INTRA>
-8.47198

>  <SCORE.INTRA.DIHEDRAL>
-21.1989

>  <SCORE.INTRA.DIHEDRAL.0>
36.0842

>  <SCORE.INTRA.POLAR>
0

>  <SCORE.INTRA.POLAR.0>
0

>  <SCORE.INTRA.REPUL>
0

>  <SCORE.INTRA.REPUL.0>
0

>  <SCORE.INTRA.SOLV>
0.400511

>  <SCORE.INTRA.SOLV.lig_0>
-126.444

>  <SCORE.INTRA.VDW>
1.92723

>  <SCORE.INTRA.VDW.0>
-7.40469

>  <SCORE.INTRA.norm>
-0.172898

>  <SCORE.RESTR>
0.0937459

>  <SCORE.RESTR.CAVITY>
0.0937459

>  <SCORE.RESTR.norm>
0.00191318

>  <SCORE.SYSTEM>
0

>  <SCORE.SYSTEM.CONST>
0

>  <SCORE.SYSTEM.DIHEDRAL>
0

>  <SCORE.SYSTEM.SOLV>
0

>  <SCORE.SYSTEM.norm>
0

>  <SCORE.heavy>
49

>  <SCORE.norm>
-0.313251

>  <RMSD>
10.082

$$$$
2bee_lig
 OpenBabel11021811423D
libRbt.so/2013.1/901 2013/11/27
 49 52  0  0  0  0  0  0  0  0999 V2000
   42.8394    2.0264   -0.3598 C   0  0  2  0  0  0  0  0  0  0  0  0
   42.1753    3.1839   -0.8512 O   0  0  0  0  0  0  0  0  0  0  0  0
   39.5920    6.1889    1.0647 C   0  0  2  0  0  0  0  0  0  0  0  0
   39.1265    7.2041    2.0484 N   0  0  0  0  0  0  0  0  0  0  0  0
   42.9173    6.8619   -2.1769 C   0  0  1  0  0  0  0  0  0  0  0  0
   43.7757    7.4022   -6.8731 C   0  0  1  0  0  0  0  0  0  0  0  0
   41.0907   11.7489    0.4839 C   0  0  0  0  0  0  0  0  0  0  0  0
   43.9260    1.5377   -1.3939 C   0  0  2  0  0  0  0  0  0  0  0  0
   44.8422    2.6283   -1.7095 N   0  0  0  0  0  0  0  0  0  0  0  0
   39.9122    4.8230    1.8261 C   0  0  0  0  0  0  0  0  0  0  0  0
   43.9177    7.6201   -2.9874 C   0  0  2  0  0  0  0  0  0  0  0  0
   43.9190    9.0638   -2.6942 O   0  0  0  0  0  0  0  0  0  0  0  0
   44.3620    6.3444   -7.9540 C   0  0  2  0  0  0  0  0  0  0  0  0
   45.8017    6.0842   -7.6183 N   0  0  0  0  0  0  0  0  0  0  0  0
   40.6249   11.9178   -0.8410 C   0  0  0  0  0  0  0  0  0  0  0  0
   41.2446   12.8387   -1.6827 N   0  0  0  0  0  0  0  0  0  0  0  0
   43.2000    0.9864   -2.6981 C   0  0  1  0  0  0  0  0  0  0  0  0
   44.1853    0.5447   -3.6206 O   0  0  0  0  0  0  0  0  0  0  0  0
   40.4403    3.6839    0.7797 C   0  0  2  0  0  0  0  0  0  0  0  0
   40.7201    2.4587    1.4482 N   0  0  0  0  0  0  0  0  0  0  0  0
   43.4938    7.0822   -4.3327 C   0  0  2  0  0  0  0  0  0  0  0  0
   43.9797    6.7760   -5.5838 O   0  0  0  0  0  0  0  0  0  0  0  0
   44.2296    6.9736   -9.3868 C   0  0  1  0  0  0  0  0  0  0  0  0
   42.7971    7.1825   -9.6436 O   0  0  0  0  0  0  0  0  0  0  0  0
   42.2501   -0.1666   -2.2985 C   0  0  2  0  0  0  0  0  0  0  0  0
   41.5385   -0.7013   -3.4874 O   0  0  0  0  0  0  0  0  0  0  0  0
   41.7395    4.1948    0.0433 C   0  0  2  0  0  0  0  0  0  0  0  0
   41.8978    6.9536   -4.1782 C   0  0  2  0  0  0  0  0  0  0  0  0
   41.7748    6.5112   -2.9042 O   0  0  0  0  0  0  0  0  0  0  0  0
   45.0594    8.3782   -9.4334 C   0  0  2  0  0  0  0  0  0  0  0  0
   46.4992    8.1557   -9.1710 O   0  0  0  0  0  0  0  0  0  0  0  0
   41.1810    0.3290   -1.2683 C   0  0  2  0  0  0  0  0  0  0  0  0
   41.9437    0.8430   -0.1465 O   0  0  0  0  0  0  0  0  0  0  0  0
   41.3729    5.5335   -0.6820 C   0  0  2  0  0  0  0  0  0  0  0  0
   42.5799    5.8821   -1.3158 O   0  0  0  0  0  0  0  0  0  0  0  0
   41.1511    5.9052   -5.0831 C   0  0  0  0  0  0  0  0  0  0  0  0
   41.2070    6.3404   -6.4785 O   0  0  0  0  0  0  0  0  0  0  0  0
   44.4955    9.3838   -8.3334 C   0  0  1  0  0  0  0  0  0  0  0  0
   44.6111    8.6843   -6.9952 O   0  0  0  0  0  0  0  0  0  0  0  0
   40.3401   -0.8342   -0.9286 C   0  0  0  0  0  0  0  0  0  0  0  0
   39.4044   -0.4903   -0.0334 O   0  0  0  0  0  0  0  0  0  0  0  0
   40.8943    6.6313    0.3611 C   0  0  1  0  0  0  0  0  0  0  0  0
   40.5625    7.8156   -0.2974 O   0  0  0  0  0  0  0  0  0  0  0  0
   44.4176    9.6761   -1.4518 C   0  0  0  0  0  0  0  0  0  0  0  0
   45.3734   10.6750   -8.4568 C   0  0  0  0  0  0  0  0  0  0  0  0
   45.1105   11.6313   -7.4200 N   0  0  0  0  0  0  0  0  0  0  0  0
   43.7632    8.9885   -0.2526 C   0  0  0  0  0  0  0  0  0  0  0  0
   42.4760    9.6721   -0.0208 N   0  0  0  0  0  0  0  0  0  0  0  0
   42.4936   11.0167    0.7093 C   0  0  0  0  0  0  0  0  0  0  0  0
  1  2  1  6  0  0  0
  1  8  1  0  0  0  0
  1 33  1  0  0  0  0
  3  4  1  1  0  0  0
  3 10  1  0  0  0  0
  3 42  1  0  0  0  0
  5 11  1  0  0  0  0
  5 29  1  0  0  0  0
  5 35  1  6  0  0  0
  6 13  1  0  0  0  0
  6 39  1  0  0  0  0
  6 22  1  1  0  0  0
  7 15  1  0  0  0  0
  8  9  1  6  0  0  0
  8 17  1  0  0  0  0
 10 19  1  0  0  0  0
 11 12  1  6  0  0  0
 11 21  1  0  0  0  0
 12 44  1  0  0  0  0
 13 14  1  1  0  0  0
 13 23  1  0  0  0  0
 15 16  1  0  0  0  0
 17 18  1  6  0  0  0
 17 25  1  0  0  0  0
 19 20  1  1  0  0  0
 19 27  1  0  0  0  0
 21 22  1  6  0  0  0
 21 28  1  0  0  0  0
 23 24  1  1  0  0  0
 23 30  1  0  0  0  0
 25 26  1  6  0  0  0
 25 32  1  0  0  0  0
 27  2  1  6  0  0  0
 27 34  1  0  0  0  0
 28 29  1  0  0  0  0
 28 36  1  6  0  0  0
 30 31  1  1  0  0  0
 30 38  1  0  0  0  0
 32 33  1  0  0  0  0
 32 40  1  1  0  0  0
 34 35  1  1  0  0  0
 34 42  1  0  0  0  0
 36 37  1  0  0  0  0
 38 39  1  0  0  0  0
 38 45  1  1  0  0  0
 40 41  1  0  0  0  0
 42 43  1  6  0  0  0
 44 47  1  0  0  0  0
 45 46  1  0  0  0  0
 47 48  1  0  0  0  0
 48 49  1  0  0  0  0
 49  7  1  0  0  0  0
M  END
>  <CHROM.1>
-145.92802488,175.06053817,-167.55616334,-71.69472625,71.04461537,-52.03009664
-109.74438038,-75.83237875,-68.22025263,179.28763380,174.17076767,-172.63461981
-85.86124239,-78.94564097,164.16475804,-53.00933326,42.59599134,5.98612182
-2.96975277,-2.45161596,1.17639875,0.08773607

>  <Name>
2bee_lig

>  <RI>
0

>  <Rbt.Current_Directory>
/home/itssahil/PROJECTS/Mol_Feturizer/New_Systems/rnas/2bee

>  <Rbt.Executable>
rbdock ($Id: //depot/dev/client3/rdock/2013.1/src/exe/rbdock.cxx#4 $)

>  <Rbt.Library>
libRbt.so (2013.1, Build901 2013/11/27)

>  <Rbt.Parameter_File>
/export/apps/rDock/src/rDock_2013.1_src/data/scripts/dock_solv.prm

>  <Rbt.Receptor>
prm/pocket_docking_5.prm

>  <SCORE>
-21.8044

>  <SCORE.INTER>
-17.1876

>  <SCORE.INTER.CONST>
1

>  <SCORE.INTER.POLAR>
-3.3091

>  <SCORE.INTER.ROT>
16

>  <SCORE.INTER.SOLV>
29.7537

>  <SCORE.INTER.VDW>
-24.6126

>  <SCORE.INTER.norm>
-0.350767

>  <SCORE.INTRA>
-4.61683

>  <SCORE.INTRA.DIHEDRAL>
-20.9828

>  <SCORE.INTRA.DIHEDRAL.0>
36.0842

>  <SCORE.INTRA.POLAR>
0

>  <SCORE.INTRA.POLAR.0>
0

>  <SCORE.INTRA.REPUL>
0.00900358

>  <SCORE.INTRA.REPUL.0>
0

>  <SCORE.INTRA.SOLV>
2.37856

>  <SCORE.INTRA.SOLV.lig_0>
-126.444

>  <SCORE.INTRA.VDW>
4.64025

>  <SCORE.INTRA.VDW.0>
-7.40469

>  <SCORE.INTRA.norm>
-0.094221

>  <SCORE.RESTR>
0

>  <SCORE.RESTR.CAVITY>
0

>  <SCORE.RESTR.norm>
0

>  <SCORE.SYSTEM>
0

>  <SCORE.SYSTEM.CONST>
0

>  <SCORE.SYSTEM.DIHEDRAL>
0

>  <SCORE.SYSTEM.SOLV>
0

>  <SCORE.SYSTEM.norm>
0

>  <SCORE.heavy>
49

>  <SCORE.norm>
-0.444988

>  <RMSD>
10.091

$$$$
2bee_lig
 OpenBabel11021811423D
libRbt.so/2013.1/901 2013/11/27
 49 52  0  0  0  0  0  0  0  0999 V2000
   40.7341    4.6079   -1.2603 C   0  0  2  0  0  0  0  0  0  0  0  0
   42.1347    4.4024   -1.3948 O   0  0  0  0  0  0  0  0  0  0  0  0
   43.5609    8.5539   -1.7190 C   0  0  2  0  0  0  0  0  0  0  0  0
   44.4995    9.6970   -1.8843 N   0  0  0  0  0  0  0  0  0  0  0  0
   42.2691    5.7504   -5.1900 C   0  0  1  0  0  0  0  0  0  0  0  0
   40.8240    2.5666   -8.0977 C   0  0  1  0  0  0  0  0  0  0  0  0
   45.1975   10.8856   -9.7585 C   0  0  0  0  0  0  0  0  0  0  0  0
   40.2208    4.0074    0.1053 C   0  0  2  0  0  0  0  0  0  0  0  0
   40.9867    4.5637    1.2155 N   0  0  0  0  0  0  0  0  0  0  0  0
   44.0415    7.6478   -0.4960 C   0  0  0  0  0  0  0  0  0  0  0  0
   42.4486    5.3899   -6.6289 C   0  0  2  0  0  0  0  0  0  0  0  0
   42.9351    6.5147   -7.4464 O   0  0  0  0  0  0  0  0  0  0  0  0
   42.0462    2.9198   -9.1039 C   0  0  2  0  0  0  0  0  0  0  0  0
   41.5377    3.8855  -10.1344 N   0  0  0  0  0  0  0  0  0  0  0  0
   46.3401   10.6853  -10.5679 C   0  0  0  0  0  0  0  0  0  0  0  0
   47.3979   11.5901  -10.5119 N   0  0  0  0  0  0  0  0  0  0  0  0
   40.3293    2.4207    0.0555 C   0  0  1  0  0  0  0  0  0  0  0  0
   39.8610    1.8891    1.2864 O   0  0  0  0  0  0  0  0  0  0  0  0
   43.0417    6.3713   -0.2899 C   0  0  2  0  0  0  0  0  0  0  0  0
   43.4570    5.5617    0.8048 N   0  0  0  0  0  0  0  0  0  0  0  0
   41.0758    4.7953   -6.8308 C   0  0  2  0  0  0  0  0  0  0  0  0
   40.4001    3.8410   -7.5573 O   0  0  0  0  0  0  0  0  0  0  0  0
   42.5328    1.5888   -9.7806 C   0  0  1  0  0  0  0  0  0  0  0  0
   43.0264    0.7081   -8.7118 O   0  0  0  0  0  0  0  0  0  0  0  0
   39.4950    1.8943   -1.1354 C   0  0  2  0  0  0  0  0  0  0  0  0
   39.5815    0.4145   -1.2281 O   0  0  0  0  0  0  0  0  0  0  0  0
   43.0041    5.5029   -1.6073 C   0  0  2  0  0  0  0  0  0  0  0  0
   40.1425    5.7355   -5.9184 C   0  0  2  0  0  0  0  0  0  0  0  0
   40.9296    5.9456   -4.8366 O   0  0  0  0  0  0  0  0  0  0  0  0
   41.2866    0.9125  -10.5888 C   0  0  2  0  0  0  0  0  0  0  0  0
   40.7967    1.8090  -11.6601 O   0  0  0  0  0  0  0  0  0  0  0  0
   40.0098    2.5015   -2.4830 C   0  0  2  0  0  0  0  0  0  0  0  0
   39.9063    3.9388   -2.3164 O   0  0  0  0  0  0  0  0  0  0  0  0
   42.5315    6.4366   -2.7724 C   0  0  2  0  0  0  0  0  0  0  0  0
   42.5117    5.5658   -3.8775 O   0  0  0  0  0  0  0  0  0  0  0  0
   38.7956    5.1318   -5.3734 C   0  0  0  0  0  0  0  0  0  0  0  0
   37.9142    4.8168   -6.4973 O   0  0  0  0  0  0  0  0  0  0  0  0
   40.0820    0.6162   -9.5886 C   0  0  1  0  0  0  0  0  0  0  0  0
   39.7095    1.9347   -8.9433 O   0  0  0  0  0  0  0  0  0  0  0  0
   39.1467    1.9664   -3.5528 C   0  0  0  0  0  0  0  0  0  0  0  0
   39.6158    2.3238   -4.7559 O   0  0  0  0  0  0  0  0  0  0  0  0
   43.5376    7.6493   -2.9712 C   0  0  1  0  0  0  0  0  0  0  0  0
   43.1015    8.4781   -4.0052 O   0  0  0  0  0  0  0  0  0  0  0  0
   44.0735    7.3824   -7.1028 C   0  0  0  0  0  0  0  0  0  0  0  0
   38.9476   -0.0056  -10.4716 C   0  0  0  0  0  0  0  0  0  0  0  0
   39.2240   -1.3567  -10.8674 N   0  0  0  0  0  0  0  0  0  0  0  0
   44.1583    8.5272   -8.1134 C   0  0  0  0  0  0  0  0  0  0  0  0
   45.3349    9.3366   -7.7414 N   0  0  0  0  0  0  0  0  0  0  0  0
   45.3664   10.8048   -8.1711 C   0  0  0  0  0  0  0  0  0  0  0  0
  1  2  1  6  0  0  0
  1  8  1  0  0  0  0
  1 33  1  0  0  0  0
  3  4  1  6  0  0  0
  3 10  1  0  0  0  0
  3 42  1  0  0  0  0
  5 11  1  0  0  0  0
  5 29  1  0  0  0  0
  5 35  1  1  0  0  0
  6 13  1  0  0  0  0
  6 39  1  0  0  0  0
  6 22  1  6  0  0  0
  7 15  1  0  0  0  0
  8  9  1  1  0  0  0
  8 17  1  0  0  0  0
 10 19  1  0  0  0  0
 11 12  1  6  0  0  0
 11 21  1  0  0  0  0
 12 44  1  0  0  0  0
 13 14  1  6  0  0  0
 13 23  1  0  0  0  0
 15 16  1  0  0  0  0
 17 18  1  1  0  0  0
 17 25  1  0  0  0  0
 19 20  1  1  0  0  0
 19 27  1  0  0  0  0
 21 22  1  6  0  0  0
 21 28  1  0  0  0  0
 23 24  1  1  0  0  0
 23 30  1  0  0  0  0
 25 26  1  6  0  0  0
 25 32  1  0  0  0  0
 27  2  1  1  0  0  0
 27 34  1  0  0  0  0
 28 29  1  0  0  0  0
 28 36  1  1  0  0  0
 30 31  1  6  0  0  0
 30 38  1  0  0  0  0
 32 33  1  0  0  0  0
 32 40  1  6  0  0  0
 34 35  1  6  0  0  0
 34 42  1  0  0  0  0
 36 37  1  0  0  0  0
 38 39  1  0  0  0  0
 38 45  1  6  0  0  0
 40 41  1  0  0  0  0
 42 43  1  6  0  0  0
 44 47  1  0  0  0  0
 45 46  1  0  0  0  0
 47 48  1  0  0  0  0
 48 49  1  0  0  0  0
 49  7  1  0  0  0  0
M  END
>  <CHROM.1>
-123.69191379,151.44936630,-59.53404165,-64.82014755,48.52007533,-173.34620241
30.85400738,68.86897349,-63.79020578,-173.17226292,-175.66201808,73.76895755
-178.42767476,-155.62063813,-56.48761797,-82.17281662,41.80911111,4.85293847
-5.33078430,-1.91708961,-1.00826003,-1.74548747

>  <Name>
2bee_lig

>  <RI>
0

>  <Rbt.Current_Directory>
/home/itssahil/PROJECTS/Mol_Feturizer/New_Systems/rnas/2bee

>  <Rbt.Executable>
rbdock ($Id: //depot/dev/client3/rdock/2013.1/src/exe/rbdock.cxx#4 $)

>  <Rbt.Library>
libRbt.so (2013.1, Build901 2013/11/27)

>  <Rbt.Parameter_File>
/export/apps/rDock/src/rDock_2013.1_src/data/scripts/dock_solv.prm

>  <Rbt.Receptor>
prm/pocket_docking_7.prm

>  <SCORE>
-17.5016

>  <SCORE.INTER>
-11.9265

>  <SCORE.INTER.CONST>
1

>  <SCORE.INTER.POLAR>
-1.78876

>  <SCORE.INTER.ROT>
16

>  <SCORE.INTER.SOLV>
21.6806

>  <SCORE.INTER.VDW>
-23.482

>  <SCORE.INTER.norm>
-0.243399

>  <SCORE.INTRA>
-5.57508

>  <SCORE.INTRA.DIHEDRAL>
-17.1893

>  <SCORE.INTRA.DIHEDRAL.0>
36.0842

>  <SCORE.INTRA.POLAR>
0

>  <SCORE.INTRA.POLAR.0>
0

>  <SCORE.INTRA.REPUL>
0.0385552

>  <SCORE.INTRA.REPUL.0>
0

>  <SCORE.INTRA.SOLV>
2.1625

>  <SCORE.INTRA.SOLV.lig_0>
-126.444

>  <SCORE.INTRA.VDW>
1.74552

>  <SCORE.INTRA.VDW.0>
-7.40469

>  <SCORE.INTRA.norm>
-0.113777

>  <SCORE.RESTR>
0

>  <SCORE.RESTR.CAVITY>
0

>  <SCORE.RESTR.norm>
0

>  <SCORE.SYSTEM>
0

>  <SCORE.SYSTEM.CONST>
0

>  <SCORE.SYSTEM.DIHEDRAL>
0

>  <SCORE.SYSTEM.SOLV>
0

>  <SCORE.SYSTEM.norm>
0

>  <SCORE.heavy>
49

>  <SCORE.norm>
-0.357176

>  <RMSD>
10.115

$$$$
2bee_lig
 OpenBabel11021811423D
libRbt.so/2013.1/901 2013/11/27
 49 52  0  0  0  0  0  0  0  0999 V2000
   44.6544    7.4889   -5.5215 C   0  0  2  0  0  0  0  0  0  0  0  0
   46.0738    7.4560   -5.6022 O   0  0  0  0  0  0  0  0  0  0  0  0
   49.2627    4.8282   -7.1188 C   0  0  2  0  0  0  0  0  0  0  0  0
   49.9653    3.5822   -7.5294 N   0  0  0  0  0  0  0  0  0  0  0  0
   45.3443    7.7626   -8.4494 C   0  0  1  0  0  0  0  0  0  0  0  0
   44.0692    9.6289  -12.4269 C   0  0  1  0  0  0  0  0  0  0  0  0
   49.3769   12.0113   -9.8408 C   0  0  0  0  0  0  0  0  0  0  0  0
   44.1880    7.3676   -4.0193 C   0  0  2  0  0  0  0  0  0  0  0  0
   44.8279    8.4008   -3.2121 N   0  0  0  0  0  0  0  0  0  0  0  0
   48.7773    4.6871   -5.6047 C   0  0  0  0  0  0  0  0  0  0  0  0
   45.1026    9.1000   -9.0702 C   0  0  2  0  0  0  0  0  0  0  0  0
   44.8450   10.1564   -8.0762 O   0  0  0  0  0  0  0  0  0  0  0  0
   45.0830   10.7268  -11.7962 C   0  0  2  0  0  0  0  0  0  0  0  0
   44.3013   11.5976  -10.8561 N   0  0  0  0  0  0  0  0  0  0  0  0
   49.3862   11.1747  -10.9814 C   0  0  0  0  0  0  0  0  0  0  0  0
   49.7246   11.7013  -12.2259 N   0  0  0  0  0  0  0  0  0  0  0  0
   44.5266    5.9093   -3.4800 C   0  0  1  0  0  0  0  0  0  0  0  0
   44.0991    5.8081   -2.1294 O   0  0  0  0  0  0  0  0  0  0  0  0
   47.9875    6.0332   -5.1193 C   0  0  2  0  0  0  0  0  0  0  0  0
   47.5584    5.9206   -3.7667 N   0  0  0  0  0  0  0  0  0  0  0  0
   44.0415    8.6492  -10.0447 C   0  0  2  0  0  0  0  0  0  0  0  0
   43.5182    8.9259  -11.2876 O   0  0  0  0  0  0  0  0  0  0  0  0
   45.6872   11.5770  -12.9701 C   0  0  1  0  0  0  0  0  0  0  0  0
   46.4455   10.6586  -13.8321 O   0  0  0  0  0  0  0  0  0  0  0  0
   43.8175    4.8636   -4.3716 C   0  0  2  0  0  0  0  0  0  0  0  0
   44.1202    3.4843   -3.9113 O   0  0  0  0  0  0  0  0  0  0  0  0
   46.7398    6.2873   -6.0520 C   0  0  2  0  0  0  0  0  0  0  0  0
   43.2410    7.5324   -9.2084 C   0  0  2  0  0  0  0  0  0  0  0  0
   44.2434    6.9049   -8.5486 O   0  0  0  0  0  0  0  0  0  0  0  0
   44.4736   12.3021  -13.7857 C   0  0  2  0  0  0  0  0  0  0  0  0
   43.7161   13.2220  -12.9074 O   0  0  0  0  0  0  0  0  0  0  0  0
   44.2838    4.9979   -5.8596 C   0  0  2  0  0  0  0  0  0  0  0  0
   43.9679    6.3630   -6.2352 O   0  0  0  0  0  0  0  0  0  0  0  0
   47.2689    6.4144   -7.5205 C   0  0  2  0  0  0  0  0  0  0  0  0
   46.0925    6.6594   -8.2526 O   0  0  0  0  0  0  0  0  0  0  0  0
   42.4757    6.4167  -10.0118 C   0  0  0  0  0  0  0  0  0  0  0  0
   43.4448    5.5223  -10.6445 O   0  0  0  0  0  0  0  0  0  0  0  0
   43.4671   11.2068  -14.3570 C   0  0  1  0  0  0  0  0  0  0  0  0
   42.9727   10.4015  -13.1736 O   0  0  0  0  0  0  0  0  0  0  0  0
   43.5434    3.9847   -6.6349 C   0  0  0  0  0  0  0  0  0  0  0  0
   42.4324    4.5174   -7.1613 O   0  0  0  0  0  0  0  0  0  0  0  0
   48.0029    5.0818   -7.9764 C   0  0  1  0  0  0  0  0  0  0  0  0
   48.4771    5.2105   -9.2822 O   0  0  0  0  0  0  0  0  0  0  0  0
   45.3627   11.5326   -8.1481 C   0  0  0  0  0  0  0  0  0  0  0  0
   42.3449   12.0130  -15.0943 C   0  0  0  0  0  0  0  0  0  0  0  0
   41.5541   12.8131  -14.2038 N   0  0  0  0  0  0  0  0  0  0  0  0
   46.7923   11.5060   -8.6907 C   0  0  0  0  0  0  0  0  0  0  0  0
   47.2258   12.9111   -8.8163 N   0  0  0  0  0  0  0  0  0  0  0  0
   48.3491   13.2348   -9.8035 C   0  0  0  0  0  0  0  0  0  0  0  0
  1  2  1  1  0  0  0
  1  8  1  0  0  0  0
  1 33  1  0  0  0  0
  3  4  1  6  0  0  0
  3 10  1  0  0  0  0
  3 42  1  0  0  0  0
  5 11  1  0  0  0  0
  5 29  1  0  0  0  0
  5 35  1  6  0  0  0
  6 13  1  0  0  0  0
  6 39  1  0  0  0  0
  6 22  1  1  0  0  0
  7 15  1  0  0  0  0
  8  9  1  1  0  0  0
  8 17  1  0  0  0  0
 10 19  1  0  0  0  0
 11 12  1  1  0  0  0
 11 21  1  0  0  0  0
 12 44  1  0  0  0  0
 13 14  1  1  0  0  0
 13 23  1  0  0  0  0
 15 16  1  0  0  0  0
 17 18  1  1  0  0  0
 17 25  1  0  0  0  0
 19 20  1  1  0  0  0
 19 27  1  0  0  0  0
 21 22  1  1  0  0  0
 21 28  1  0  0  0  0
 23 24  1  6  0  0  0
 23 30  1  0  0  0  0
 25 26  1  1  0  0  0
 25 32  1  0  0  0  0
 27  2  1  1  0  0  0
 27 34  1  0  0  0  0
 28 29  1  0  0  0  0
 28 36  1  6  0  0  0
 30 31  1  1  0  0  0
 30 38  1  0  0  0  0
 32 33  1  0  0  0  0
 32 40  1  6  0  0  0
 34 35  1  6  0  0  0
 34 42  1  0  0  0  0
 36 37  1  0  0  0  0
 38 39  1  0  0  0  0
 38 45  1  1  0  0  0
 40 41  1  0  0  0  0
 42 43  1  6  0  0  0
 44 47  1  0  0  0  0
 45 46  1  0  0  0  0
 47 48  1  0  0  0  0
 48 49  1  0  0  0  0
 49  7  1  0  0  0  0
M  END
>  <CHROM.1>
104.44171835,73.74509415,-30.01887362,62.73139968,139.87432833,-38.34811834
20.88303600,-137.06815735,69.93294289,93.75870858,79.15274903,-65.92088113
176.66575241,-156.71752600,-33.96751374,107.14929983,45.42368872,8.27990778
-8.69291061,1.48670062,0.26895414,2.29277224

>  <Name>
2bee_lig

>  <RI>
0

>  <Rbt.Current_Directory>
/home/itssahil/PROJECTS/Mol_Feturizer/New_Systems/rnas/2bee

>  <Rbt.Executable>
rbdock ($Id: //depot/dev/client3/rdock/2013.1/src/exe/rbdock.cxx#4 $)

>  <Rbt.Library>
libRbt.so (2013.1, Build901 2013/11/27)

>  <Rbt.Parameter_File>
/export/apps/rDock/src/rDock_2013.1_src/data/scripts/dock_solv.prm

>  <Rbt.Receptor>
prm/blind_docking_60.prm

>  <SCORE>
23.9355

>  <SCORE.INTER>
-3.61815

>  <SCORE.INTER.CONST>
1

>  <SCORE.INTER.POLAR>
-0.896145

>  <SCORE.INTER.ROT>
16

>  <SCORE.INTER.SOLV>
34.3899

>  <SCORE.INTER.VDW>
-25.1549

>  <SCORE.INTER.norm>
-0.0738398

>  <SCORE.INTRA>
9.55544

>  <SCORE.INTRA.DIHEDRAL>
2.75886

>  <SCORE.INTRA.DIHEDRAL.0>
36.0842

>  <SCORE.INTRA.POLAR>
0

>  <SCORE.INTRA.POLAR.0>
0

>  <SCORE.INTRA.REPUL>
0.0511894

>  <SCORE.INTRA.REPUL.0>
0

>  <SCORE.INTRA.SOLV>
7.80716

>  <SCORE.INTRA.SOLV.lig_0>
-126.444

>  <SCORE.INTRA.VDW>
4.01648

>  <SCORE.INTRA.VDW.0>
-7.40469

>  <SCORE.INTRA.norm>
0.195009

>  <SCORE.RESTR>
17.9982

>  <SCORE.RESTR.CAVITY>
17.9982

>  <SCORE.RESTR.norm>
0.367311

>  <SCORE.SYSTEM>
0

>  <SCORE.SYSTEM.CONST>
0

>  <SCORE.SYSTEM.DIHEDRAL>
0

>  <SCORE.SYSTEM.SOLV>
0

>  <SCORE.SYSTEM.norm>
0

>  <SCORE.heavy>
49

>  <SCORE.norm>
0.48848

>  <RMSD>
10.118

$$$$
2bee_lig
 OpenBabel11021811423D
libRbt.so/2013.1/901 2013/11/27
 49 52  0  0  0  0  0  0  0  0999 V2000
   38.2106   -0.1405   -4.7137 C   0  0  2  0  0  0  0  0  0  0  0  0
   37.9768   -0.5483   -3.3716 O   0  0  0  0  0  0  0  0  0  0  0  0
   39.2859    1.0500    0.5151 C   0  0  2  0  0  0  0  0  0  0  0  0
   40.1948    1.4518    1.6229 N   0  0  0  0  0  0  0  0  0  0  0  0
   39.2398    3.3253   -3.4471 C   0  0  1  0  0  0  0  0  0  0  0  0
   43.2558    5.2228   -4.8051 C   0  0  1  0  0  0  0  0  0  0  0  0
   38.1603   10.0822    0.9834 C   0  0  0  0  0  0  0  0  0  0  0  0
   37.1353   -0.7789   -5.6755 C   0  0  2  0  0  0  0  0  0  0  0  0
   35.7916   -0.4552   -5.2084 N   0  0  0  0  0  0  0  0  0  0  0  0
   39.5097   -0.4948    0.1814 C   0  0  0  0  0  0  0  0  0  0  0  0
   40.1470    4.5019   -3.2881 C   0  0  2  0  0  0  0  0  0  0  0  0
   39.4332    5.7282   -2.8919 O   0  0  0  0  0  0  0  0  0  0  0  0
   42.9864    6.8217   -4.8492 C   0  0  2  0  0  0  0  0  0  0  0  0
   42.6111    7.1927   -6.2544 N   0  0  0  0  0  0  0  0  0  0  0  0
   38.4357   10.9565   -0.0939 C   0  0  0  0  0  0  0  0  0  0  0  0
   38.9179   12.2389    0.1585 N   0  0  0  0  0  0  0  0  0  0  0  0
   37.3661   -2.3514   -5.7519 C   0  0  1  0  0  0  0  0  0  0  0  0
   36.3971   -2.9164   -6.6230 O   0  0  0  0  0  0  0  0  0  0  0  0
   38.5368   -0.9723   -1.0421 C   0  0  2  0  0  0  0  0  0  0  0  0
   38.7226   -2.3516   -1.3412 N   0  0  0  0  0  0  0  0  0  0  0  0
   40.8291    4.3768   -4.6290 C   0  0  2  0  0  0  0  0  0  0  0  0
   42.0238    4.6197   -5.2682 O   0  0  0  0  0  0  0  0  0  0  0  0
   44.3018    7.5592   -4.4113 C   0  0  1  0  0  0  0  0  0  0  0  0
   44.5908    7.1563   -3.0271 O   0  0  0  0  0  0  0  0  0  0  0  0
   38.8015   -2.6275   -6.2565 C   0  0  2  0  0  0  0  0  0  0  0  0
   39.0649   -4.0875   -6.3280 O   0  0  0  0  0  0  0  0  0  0  0  0
   38.8307   -0.1065   -2.3286 C   0  0  2  0  0  0  0  0  0  0  0  0
   39.6388    3.8781   -5.5892 C   0  0  2  0  0  0  0  0  0  0  0  0
   38.9738    3.0148   -4.7851 O   0  0  0  0  0  0  0  0  0  0  0  0
   45.5120    7.1419   -5.4236 C   0  0  2  0  0  0  0  0  0  0  0  0
   45.2087    7.5501   -6.8138 O   0  0  0  0  0  0  0  0  0  0  0  0
   39.8584   -1.9845   -5.2977 C   0  0  2  0  0  0  0  0  0  0  0  0
   39.5352   -0.5706   -5.2692 O   0  0  0  0  0  0  0  0  0  0  0  0
   38.6005    1.3949   -1.9474 C   0  0  2  0  0  0  0  0  0  0  0  0
   38.8637    2.0645   -3.1566 O   0  0  0  0  0  0  0  0  0  0  0  0
   40.0241    3.0686   -6.8823 C   0  0  0  0  0  0  0  0  0  0  0  0
   40.9357    1.9829   -6.5223 O   0  0  0  0  0  0  0  0  0  0  0  0
   45.7279    5.5633   -5.3969 C   0  0  1  0  0  0  0  0  0  0  0  0
   44.4061    4.9304   -5.7787 O   0  0  0  0  0  0  0  0  0  0  0  0
   41.1878   -2.2760   -5.8663 C   0  0  0  0  0  0  0  0  0  0  0  0
   41.3586   -1.6168   -7.0202 O   0  0  0  0  0  0  0  0  0  0  0  0
   39.5802    1.8403   -0.7794 C   0  0  1  0  0  0  0  0  0  0  0  0
   39.3597    3.1761   -0.4430 O   0  0  0  0  0  0  0  0  0  0  0  0
   38.7301    5.9243   -1.6136 C   0  0  0  0  0  0  0  0  0  0  0  0
   46.8873    5.2818   -6.4117 C   0  0  0  0  0  0  0  0  0  0  0  0
   46.5185    5.5529   -7.7715 N   0  0  0  0  0  0  0  0  0  0  0  0
   38.1882    7.3531   -1.5500 C   0  0  0  0  0  0  0  0  0  0  0  0
   38.6884    7.9421   -0.2926 N   0  0  0  0  0  0  0  0  0  0  0  0
   37.6767    8.5953    0.6514 C   0  0  0  0  0  0  0  0  0  0  0  0
  1  2  1  1  0  0  0
  1  8  1  0  0  0  0
  1 33  1  0  0  0  0
  3  4  1  1  0  0  0
  3 10  1  0  0  0  0
  3 42  1  0  0  0  0
  5 11  1  0  0  0  0
  5 29  1  0  0  0  0
  5 35  1  6  0  0  0
  6 13  1  0  0  0  0
  6 39  1  0  0  0  0
  6 22  1  6  0  0  0
  7 15  1  0  0  0  0
  8  9  1  1  0  0  0
  8 17  1  0  0  0  0
 10 19  1  0  0  0  0
 11 12  1  6  0  0  0
 11 21  1  0  0  0  0
 12 44  1  0  0  0  0
 13 14  1  6  0  0  0
 13 23  1  0  0  0  0
 15 16  1  0  0  0  0
 17 18  1  6  0  0  0
 17 25  1  0  0  0  0
 19 20  1  6  0  0  0
 19 27  1  0  0  0  0
 21 22  1  6  0  0  0
 21 28  1  0  0  0  0
 23 24  1  1  0  0  0
 23 30  1  0  0  0  0
 25 26  1  1  0  0  0
 25 32  1  0  0  0  0
 27  2  1  6  0  0  0
 27 34  1  0  0  0  0
 28 29  1  0  0  0  0
 28 36  1  6  0  0  0
 30 31  1  6  0  0  0
 30 38  1  0  0  0  0
 32 33  1  0  0  0  0
 32 40  1  6  0  0  0
 34 35  1  6  0  0  0
 34 42  1  0  0  0  0
 36 37  1  0  0  0  0
 38 39  1  0  0  0  0
 38 45  1  6  0  0  0
 40 41  1  0  0  0  0
 42 43  1  1  0  0  0
 44 47  1  0  0  0  0
 45 46  1  0  0  0  0
 47 48  1  0  0  0  0
 48 49  1  0  0  0  0
 49  7  1  0  0  0  0
M  END
>  <CHROM.1>
179.37574269,52.95946148,-79.59976735,-177.04878247,65.07910496,176.76777804
-2.37955822,-166.93611238,50.15950209,67.62293591,-156.50607326,-67.32160708
-126.37482440,-128.25448156,-126.61506642,53.95562547,40.33864278,3.13268269
-3.75338707,2.00089327,-0.72170491,-2.66845268

>  <Name>
2bee_lig

>  <RI>
0

>  <Rbt.Current_Directory>
/home/itssahil/PROJECTS/Mol_Feturizer/New_Systems/rnas/2bee

>  <Rbt.Executable>
rbdock ($Id: //depot/dev/client3/rdock/2013.1/src/exe/rbdock.cxx#4 $)

>  <Rbt.Library>
libRbt.so (2013.1, Build901 2013/11/27)

>  <Rbt.Parameter_File>
/export/apps/rDock/src/rDock_2013.1_src/data/scripts/dock_solv.prm

>  <Rbt.Receptor>
prm/pocket_docking_5.prm

>  <SCORE>
-10.2781

>  <SCORE.INTER>
-1.77514

>  <SCORE.INTER.CONST>
1

>  <SCORE.INTER.POLAR>
-0.805398

>  <SCORE.INTER.ROT>
16

>  <SCORE.INTER.SOLV>
10.8039

>  <SCORE.INTER.VDW>
-16.3667

>  <SCORE.INTER.norm>
-0.0362273

>  <SCORE.INTRA>
-8.58438

>  <SCORE.INTRA.DIHEDRAL>
-18.4269

>  <SCORE.INTRA.DIHEDRAL.0>
36.0842

>  <SCORE.INTRA.POLAR>
0

>  <SCORE.INTRA.POLAR.0>
0

>  <SCORE.INTRA.REPUL>
0

>  <SCORE.INTRA.REPUL.0>
0

>  <SCORE.INTRA.SOLV>
-1.43652

>  <SCORE.INTRA.SOLV.lig_0>
-126.444

>  <SCORE.INTRA.VDW>
1.34734

>  <SCORE.INTRA.VDW.0>
-7.40469

>  <SCORE.INTRA.norm>
-0.175191

>  <SCORE.RESTR>
0.0814072

>  <SCORE.RESTR.CAVITY>
0.0814072

>  <SCORE.RESTR.norm>
0.00166137

>  <SCORE.SYSTEM>
0

>  <SCORE.SYSTEM.CONST>
0

>  <SCORE.SYSTEM.DIHEDRAL>
0

>  <SCORE.SYSTEM.SOLV>
0

>  <SCORE.SYSTEM.norm>
0

>  <SCORE.heavy>
49

>  <SCORE.norm>
-0.209757

>  <RMSD>
10.127

$$$$
2bee_lig
 OpenBabel11021811423D
libRbt.so/2013.1/901 2013/11/27
 49 52  0  0  0  0  0  0  0  0999 V2000
   47.4695    4.9054   -5.1475 C   0  0  2  0  0  0  0  0  0  0  0  0
   47.1799    6.2038   -4.6450 O   0  0  0  0  0  0  0  0  0  0  0  0
   42.8213    6.3776   -5.2337 C   0  0  2  0  0  0  0  0  0  0  0  0
   41.4361    6.9217   -5.2431 N   0  0  0  0  0  0  0  0  0  0  0  0
   45.9613    8.3632   -7.7761 C   0  0  1  0  0  0  0  0  0  0  0  0
   48.3800   11.9892   -9.8086 C   0  0  1  0  0  0  0  0  0  0  0  0
   43.4203   11.8386  -14.2518 C   0  0  0  0  0  0  0  0  0  0  0  0
   48.9049    4.4453   -4.6821 C   0  0  2  0  0  0  0  0  0  0  0  0
   49.0105    4.5297   -3.2294 N   0  0  0  0  0  0  0  0  0  0  0  0
   43.4235    6.4903   -3.7598 C   0  0  0  0  0  0  0  0  0  0  0  0
   45.8643    9.8303   -8.0424 C   0  0  2  0  0  0  0  0  0  0  0  0
   44.6171   10.2080   -8.7296 O   0  0  0  0  0  0  0  0  0  0  0  0
   47.9326   13.2921   -8.9522 C   0  0  2  0  0  0  0  0  0  0  0  0
   46.5305   13.0707   -8.4643 N   0  0  0  0  0  0  0  0  0  0  0  0
   42.0241   11.8928  -14.0315 C   0  0  0  0  0  0  0  0  0  0  0  0
   41.2962   13.0008  -14.4592 N   0  0  0  0  0  0  0  0  0  0  0  0
   50.0038    5.3427   -5.4026 C   0  0  1  0  0  0  0  0  0  0  0  0
   51.2921    4.9183   -4.9813 O   0  0  0  0  0  0  0  0  0  0  0  0
   44.9522    5.9139   -3.7105 C   0  0  2  0  0  0  0  0  0  0  0  0
   45.4950    6.0018   -2.3975 N   0  0  0  0  0  0  0  0  0  0  0  0
   47.2128    9.9754   -8.7051 C   0  0  2  0  0  0  0  0  0  0  0  0
   48.2389   10.8727   -8.8979 O   0  0  0  0  0  0  0  0  0  0  0  0
   48.0037   14.5505   -9.8890 C   0  0  1  0  0  0  0  0  0  0  0  0
   49.4040   14.7063  -10.3092 O   0  0  0  0  0  0  0  0  0  0  0  0
   49.8425    5.2063   -6.9344 C   0  0  2  0  0  0  0  0  0  0  0  0
   50.8417    6.0424   -7.6476 O   0  0  0  0  0  0  0  0  0  0  0  0
   45.8616    6.7227   -4.7155 C   0  0  2  0  0  0  0  0  0  0  0  0
   47.3591    8.5969   -9.5211 C   0  0  2  0  0  0  0  0  0  0  0  0
   46.8244    7.7020   -8.6566 O   0  0  0  0  0  0  0  0  0  0  0  0
   47.0148   14.3230  -11.1672 C   0  0  2  0  0  0  0  0  0  0  0  0
   45.6087   14.1649  -10.7318 O   0  0  0  0  0  0  0  0  0  0  0  0
   48.4132    5.6599   -7.3829 C   0  0  2  0  0  0  0  0  0  0  0  0
   47.4963    4.8129   -6.6439 O   0  0  0  0  0  0  0  0  0  0  0  0
   45.2271    6.5828   -6.1404 C   0  0  2  0  0  0  0  0  0  0  0  0
   46.1190    7.3116   -6.9487 O   0  0  0  0  0  0  0  0  0  0  0  0
   48.8101    8.0828   -9.8467 C   0  0  0  0  0  0  0  0  0  0  0  0
   49.4816    9.0442  -10.7209 O   0  0  0  0  0  0  0  0  0  0  0  0
   47.4458   13.0135  -11.9663 C   0  0  1  0  0  0  0  0  0  0  0  0
   47.4006   11.8618  -10.9839 O   0  0  0  0  0  0  0  0  0  0  0  0
   48.3424    5.4743   -8.8445 C   0  0  0  0  0  0  0  0  0  0  0  0
   48.8164    4.2688   -9.1871 O   0  0  0  0  0  0  0  0  0  0  0  0
   43.7555    7.1794   -6.1672 C   0  0  1  0  0  0  0  0  0  0  0  0
   43.1980    7.0411   -7.4385 O   0  0  0  0  0  0  0  0  0  0  0  0
   44.0845    9.5575   -9.9380 C   0  0  0  0  0  0  0  0  0  0  0  0
   46.4232   12.8869  -13.1459 C   0  0  0  0  0  0  0  0  0  0  0  0
   46.6814   11.7566  -13.9911 N   0  0  0  0  0  0  0  0  0  0  0  0
   44.9219    9.9765  -11.1472 C   0  0  0  0  0  0  0  0  0  0  0  0
   44.0354   10.7632  -12.0265 N   0  0  0  0  0  0  0  0  0  0  0  0
   44.2584   10.6798  -13.5380 C   0  0  0  0  0  0  0  0  0  0  0  0
  1  2  1  6  0  0  0
  1  8  1  0  0  0  0
  1 33  1  0  0  0  0
  3  4  1  1  0  0  0
  3 10  1  0  0  0  0
  3 42  1  0  0  0  0
  5 11  1  0  0  0  0
  5 29  1  0  0  0  0
  5 35  1  1  0  0  0
  6 13  1  0  0  0  0
  6 39  1  0  0  0  0
  6 22  1  1  0  0  0
  7 15  1  0  0  0  0
  8  9  1  1  0  0  0
  8 17  1  0  0  0  0
 10 19  1  0  0  0  0
 11 12  1  6  0  0  0
 11 21  1  0  0  0  0
 12 44  1  0  0  0  0
 13 14  1  6  0  0  0
 13 23  1  0  0  0  0
 15 16  1  0  0  0  0
 17 18  1  1  0  0  0
 17 25  1  0  0  0  0
 19 20  1  1  0  0  0
 19 27  1  0  0  0  0
 21 22  1  6  0  0  0
 21 28  1  0  0  0  0
 23 24  1  6  0  0  0
 23 30  1  0  0  0  0
 25 26  1  6  0  0  0
 25 32  1  0  0  0  0
 27  2  1  6  0  0  0
 27 34  1  0  0  0  0
 28 29  1  0  0  0  0
 28 36  1  1  0  0  0
 30 31  1  1  0  0  0
 30 38  1  0  0  0  0
 32 33  1  0  0  0  0
 32 40  1  6  0  0  0
 34 35  1  6  0  0  0
 34 42  1  0  0  0  0
 36 37  1  0  0  0  0
 38 39  1  0  0  0  0
 38 45  1  6  0  0  0
 40 41  1  0  0  0  0
 42 43  1  6  0  0  0
 44 47  1  0  0  0  0
 45 46  1  0  0  0  0
 47 48  1  0  0  0  0
 48 49  1  0  0  0  0
 49  7  1  0  0  0  0
M  END
>  <CHROM.1>
-167.99962033,84.39815903,95.65448528,169.87235335,-49.53186848,-73.86633913
-79.09647586,69.58170146,-63.31030834,46.90746139,-122.84426624,179.05567350
-114.56710887,-147.23269159,-167.53389924,-56.87192957,46.54426216,8.85912711
-8.51574200,-1.39366493,0.02943622,-0.77012958

>  <Name>
2bee_lig

>  <RI>
0

>  <Rbt.Current_Directory>
/home/itssahil/PROJECTS/Mol_Feturizer/New_Systems/rnas/2bee

>  <Rbt.Executable>
rbdock ($Id: //depot/dev/client3/rdock/2013.1/src/exe/rbdock.cxx#4 $)

>  <Rbt.Library>
libRbt.so (2013.1, Build901 2013/11/27)

>  <Rbt.Parameter_File>
/export/apps/rDock/src/rDock_2013.1_src/data/scripts/dock_solv.prm

>  <Rbt.Receptor>
prm/blind_docking_60.prm

>  <SCORE>
49.4156

>  <SCORE.INTER>
25.8075

>  <SCORE.INTER.CONST>
1

>  <SCORE.INTER.POLAR>
-0.727526

>  <SCORE.INTER.ROT>
16

>  <SCORE.INTER.SOLV>
39.4495

>  <SCORE.INTER.VDW>
-7.78641

>  <SCORE.INTER.norm>
0.526684

>  <SCORE.INTRA>
3.3728

>  <SCORE.INTRA.DIHEDRAL>
-7.16156

>  <SCORE.INTRA.DIHEDRAL.0>
36.0842

>  <SCORE.INTRA.POLAR>
0

>  <SCORE.INTRA.POLAR.0>
0

>  <SCORE.INTRA.REPUL>
0

>  <SCORE.INTRA.REPUL.0>
0

>  <SCORE.INTRA.SOLV>
5.20687

>  <SCORE.INTRA.SOLV.lig_0>
-126.444

>  <SCORE.INTRA.VDW>
4.35014

>  <SCORE.INTRA.VDW.0>
-7.40469

>  <SCORE.INTRA.norm>
0.0688326

>  <SCORE.RESTR>
20.2352

>  <SCORE.RESTR.CAVITY>
20.2352

>  <SCORE.RESTR.norm>
0.412964

>  <SCORE.SYSTEM>
0

>  <SCORE.SYSTEM.CONST>
0

>  <SCORE.SYSTEM.DIHEDRAL>
0

>  <SCORE.SYSTEM.SOLV>
0

>  <SCORE.SYSTEM.norm>
0

>  <SCORE.heavy>
49

>  <SCORE.norm>
1.00848

>  <RMSD>
10.234

$$$$
2bee_lig
 OpenBabel11021811423D
libRbt.so/2013.1/901 2013/11/27
 49 52  0  0  0  0  0  0  0  0999 V2000
   45.0829    5.0142   -7.6272 C   0  0  2  0  0  0  0  0  0  0  0  0
   45.8697    5.8334   -8.4827 O   0  0  0  0  0  0  0  0  0  0  0  0
   49.9312    4.7391   -7.1861 C   0  0  2  0  0  0  0  0  0  0  0  0
   51.4129    4.6021   -7.2095 N   0  0  0  0  0  0  0  0  0  0  0  0
   47.4941    8.6316   -8.1428 C   0  0  1  0  0  0  0  0  0  0  0  0
   44.5465   10.2696  -11.5530 C   0  0  1  0  0  0  0  0  0  0  0  0
   48.7200   14.3908   -8.4916 C   0  0  0  0  0  0  0  0  0  0  0  0
   43.5945    5.5358   -7.5858 C   0  0  2  0  0  0  0  0  0  0  0  0
   43.0580    5.6248   -8.9397 N   0  0  0  0  0  0  0  0  0  0  0  0
   49.3182    4.0775   -8.5031 C   0  0  0  0  0  0  0  0  0  0  0  0
   47.7082    9.0849   -9.5504 C   0  0  2  0  0  0  0  0  0  0  0  0
   48.6904   10.1776   -9.6587 O   0  0  0  0  0  0  0  0  0  0  0  0
   44.8039   10.1193  -13.1474 C   0  0  2  0  0  0  0  0  0  0  0  0
   46.2756   10.2737  -13.3989 N   0  0  0  0  0  0  0  0  0  0  0  0
   49.2706   15.2344   -7.4986 C   0  0  0  0  0  0  0  0  0  0  0  0
   49.1014   16.6142   -7.5881 N   0  0  0  0  0  0  0  0  0  0  0  0
   43.5512    6.9432   -6.8447 C   0  0  1  0  0  0  0  0  0  0  0  0
   42.2077    7.4023   -6.8082 O   0  0  0  0  0  0  0  0  0  0  0  0
   47.6900    4.2195   -8.5215 C   0  0  2  0  0  0  0  0  0  0  0  0
   47.1330    3.6241   -9.6884 N   0  0  0  0  0  0  0  0  0  0  0  0
   46.2515    9.2884   -9.8900 C   0  0  2  0  0  0  0  0  0  0  0  0
   45.3632    9.2430  -10.9407 O   0  0  0  0  0  0  0  0  0  0  0  0
   43.9919   11.2401  -13.8894 C   0  0  1  0  0  0  0  0  0  0  0  0
   42.5675   11.0105  -13.6065 O   0  0  0  0  0  0  0  0  0  0  0  0
   44.1266    6.7812   -5.4186 C   0  0  2  0  0  0  0  0  0  0  0  0
   44.1191    8.0784   -4.6951 O   0  0  0  0  0  0  0  0  0  0  0  0
   47.2851    5.7437   -8.4591 C   0  0  2  0  0  0  0  0  0  0  0  0
   45.6386    9.8458   -8.5112 C   0  0  2  0  0  0  0  0  0  0  0  0
   46.2975    9.1020   -7.5912 O   0  0  0  0  0  0  0  0  0  0  0  0
   44.4830   12.7011  -13.3529 C   0  0  2  0  0  0  0  0  0  0  0  0
   45.9185   12.9199  -13.6410 O   0  0  0  0  0  0  0  0  0  0  0  0
   45.6007    6.2579   -5.4727 C   0  0  2  0  0  0  0  0  0  0  0  0
   45.5320    5.0027   -6.1967 O   0  0  0  0  0  0  0  0  0  0  0  0
   47.9120    6.3436   -7.1554 C   0  0  2  0  0  0  0  0  0  0  0  0
   47.4740    7.6804   -7.1887 O   0  0  0  0  0  0  0  0  0  0  0  0
   44.1045    9.6224   -8.2422 C   0  0  0  0  0  0  0  0  0  0  0  0
   43.6404    8.4651   -9.0068 O   0  0  0  0  0  0  0  0  0  0  0  0
   44.2622   12.8085  -11.7785 C   0  0  1  0  0  0  0  0  0  0  0  0
   45.0320   11.6680  -11.1459 O   0  0  0  0  0  0  0  0  0  0  0  0
   46.0562    6.1118   -4.0774 C   0  0  0  0  0  0  0  0  0  0  0  0
   45.2567    5.2692   -3.4094 O   0  0  0  0  0  0  0  0  0  0  0  0
   49.4953    6.2213   -7.1789 C   0  0  1  0  0  0  0  0  0  0  0  0
   50.0412    6.7507   -6.0093 O   0  0  0  0  0  0  0  0  0  0  0  0
   48.4890   11.5504   -9.1672 C   0  0  0  0  0  0  0  0  0  0  0  0
   44.7837   14.2302  -11.3783 C   0  0  0  0  0  0  0  0  0  0  0  0
   46.1793   14.4129  -11.6568 N   0  0  0  0  0  0  0  0  0  0  0  0
   47.4545   12.2544  -10.0465 C   0  0  0  0  0  0  0  0  0  0  0  0
   46.6318   13.0895   -9.1499 N   0  0  0  0  0  0  0  0  0  0  0  0
   47.1506   14.4810   -8.7813 C   0  0  0  0  0  0  0  0  0  0  0  0
  1  2  1  6  0  0  0
  1  8  1  0  0  0  0
  1 33  1  0  0  0  0
  3  4  1  6  0  0  0
  3 10  1  0  0  0  0
  3 42  1  0  0  0  0
  5 11  1  0  0  0  0
  5 29  1  0  0  0  0
  5 35  1  6  0  0  0
  6 13  1  0  0  0  0
  6 39  1  0  0  0  0
  6 22  1  1  0  0  0
  7 15  1  0  0  0  0
  8  9  1  6  0  0  0
  8 17  1  0  0  0  0
 10 19  1  0  0  0  0
 11 12  1  1  0  0  0
 11 21  1  0  0  0  0
 12 44  1  0  0  0  0
 13 14  1  1  0  0  0
 13 23  1  0  0  0  0
 15 16  1  0  0  0  0
 17 18  1  1  0  0  0
 17 25  1  0  0  0  0
 19 20  1  6  0  0  0
 19 27  1  0  0  0  0
 21 22  1  6  0  0  0
 21 28  1  0  0  0  0
 23 24  1  1  0  0  0
 23 30  1  0  0  0  0
 25 26  1  6  0  0  0
 25 32  1  0  0  0  0
 27  2  1  1  0  0  0
 27 34  1  0  0  0  0
 28 29  1  0  0  0  0
 28 36  1  6  0  0  0
 30 31  1  1  0  0  0
 30 38  1  0  0  0  0
 32 33  1  0  0  0  0
 32 40  1  1  0  0  0
 34 35  1  6  0  0  0
 34 42  1  0  0  0  0
 36 37  1  0  0  0  0
 38 39  1  0  0  0  0
 38 45  1  1  0  0  0
 40 41  1  0  0  0  0
 42 43  1  1  0  0  0
 44 47  1  0  0  0  0
 45 46  1  0  0  0  0
 47 48  1  0  0  0  0
 48 49  1  0  0  0  0
 49  7  1  0  0  0  0
M  END
>  <CHROM.1>
166.36865481,9.99441117,131.43142084,-56.22858521,-68.51300146,-70.53125968
-117.38129943,47.71751023,24.64292566,58.31475937,-49.48931518,-61.58043129
141.94077902,84.20626468,-41.68997541,-145.89728535,46.23762007,8.99837090
-8.82592076,1.47798121,0.60963660,2.65297843

>  <Name>
2bee_lig

>  <RI>
0

>  <Rbt.Current_Directory>
/home/itssahil/PROJECTS/Mol_Feturizer/New_Systems/rnas/2bee

>  <Rbt.Executable>
rbdock ($Id: //depot/dev/client3/rdock/2013.1/src/exe/rbdock.cxx#4 $)

>  <Rbt.Library>
libRbt.so (2013.1, Build901 2013/11/27)

>  <Rbt.Parameter_File>
/export/apps/rDock/src/rDock_2013.1_src/data/scripts/dock_solv.prm

>  <Rbt.Receptor>
prm/blind_docking_60.prm

>  <SCORE>
45.6611

>  <SCORE.INTER>
16.2747

>  <SCORE.INTER.CONST>
1

>  <SCORE.INTER.POLAR>
-0.762463

>  <SCORE.INTER.ROT>
16

>  <SCORE.INTER.SOLV>
29.121

>  <SCORE.INTER.VDW>
-10.5823

>  <SCORE.INTER.norm>
0.332136

>  <SCORE.INTRA>
6.14526

>  <SCORE.INTRA.DIHEDRAL>
-6.536

>  <SCORE.INTRA.DIHEDRAL.0>
36.0842

>  <SCORE.INTRA.POLAR>
0

>  <SCORE.INTRA.POLAR.0>
0

>  <SCORE.INTRA.REPUL>
0.00754909

>  <SCORE.INTRA.REPUL.0>
0

>  <SCORE.INTRA.SOLV>
9.35057

>  <SCORE.INTRA.SOLV.lig_0>
-126.444

>  <SCORE.INTRA.VDW>
4.70023

>  <SCORE.INTRA.VDW.0>
-7.40469

>  <SCORE.INTRA.norm>
0.125413

>  <SCORE.RESTR>
23.2412

>  <SCORE.RESTR.CAVITY>
23.2412

>  <SCORE.RESTR.norm>
0.47431

>  <SCORE.SYSTEM>
0

>  <SCORE.SYSTEM.CONST>
0

>  <SCORE.SYSTEM.DIHEDRAL>
0

>  <SCORE.SYSTEM.SOLV>
0

>  <SCORE.SYSTEM.norm>
0

>  <SCORE.heavy>
49

>  <SCORE.norm>
0.93186

>  <RMSD>
10.260

$$$$
2bee_lig
 OpenBabel11021811423D
libRbt.so/2013.1/901 2013/11/27
 49 52  0  0  0  0  0  0  0  0999 V2000
   46.9856    5.0503   -5.5014 C   0  0  2  0  0  0  0  0  0  0  0  0
   46.6580    6.4214   -5.3146 O   0  0  0  0  0  0  0  0  0  0  0  0
   42.2772    6.1727   -4.9668 C   0  0  2  0  0  0  0  0  0  0  0  0
   40.8692    6.6022   -4.7485 N   0  0  0  0  0  0  0  0  0  0  0  0
   44.7410    8.2022   -8.1525 C   0  0  1  0  0  0  0  0  0  0  0  0
   44.6196    9.9518  -12.6004 C   0  0  1  0  0  0  0  0  0  0  0  0
   49.5945   11.6319  -10.6026 C   0  0  0  0  0  0  0  0  0  0  0  0
   48.5485    4.8716   -5.6210 C   0  0  2  0  0  0  0  0  0  0  0  0
   49.2094    5.4618   -4.4618 N   0  0  0  0  0  0  0  0  0  0  0  0
   43.1503    6.5514   -3.6853 C   0  0  0  0  0  0  0  0  0  0  0  0
   45.1161    9.3520   -9.0299 C   0  0  2  0  0  0  0  0  0  0  0  0
   44.7595   10.6580   -8.4490 O   0  0  0  0  0  0  0  0  0  0  0  0
   45.2097   11.2049  -11.7562 C   0  0  2  0  0  0  0  0  0  0  0  0
   44.3031   11.4462  -10.5845 N   0  0  0  0  0  0  0  0  0  0  0  0
   49.6853   12.5030   -9.4919 C   0  0  0  0  0  0  0  0  0  0  0  0
   48.8772   13.6361   -9.4304 N   0  0  0  0  0  0  0  0  0  0  0  0
   49.0503    5.5302   -6.9798 C   0  0  1  0  0  0  0  0  0  0  0  0
   50.4568    5.3605   -7.0809 O   0  0  0  0  0  0  0  0  0  0  0  0
   44.7095    6.1069   -3.8919 C   0  0  2  0  0  0  0  0  0  0  0  0
   45.4948    6.4324   -2.7500 N   0  0  0  0  0  0  0  0  0  0  0  0
   44.4576    8.8336  -10.2855 C   0  0  2  0  0  0  0  0  0  0  0  0
   44.5647    8.8544  -11.6578 O   0  0  0  0  0  0  0  0  0  0  0  0
   45.2505   12.4619  -12.6966 C   0  0  1  0  0  0  0  0  0  0  0  0
   46.1662   12.1519  -13.8043 O   0  0  0  0  0  0  0  0  0  0  0  0
   48.3188    4.8605   -8.1662 C   0  0  2  0  0  0  0  0  0  0  0  0
   48.7475    5.4580   -9.4567 O   0  0  0  0  0  0  0  0  0  0  0  0
   45.3054    6.8220   -5.1665 C   0  0  2  0  0  0  0  0  0  0  0  0
   43.1344    8.1128   -9.7223 C   0  0  2  0  0  0  0  0  0  0  0  0
   43.5936    7.5310   -8.5889 O   0  0  0  0  0  0  0  0  0  0  0  0
   43.7423   12.7774  -13.2343 C   0  0  2  0  0  0  0  0  0  0  0  0
   42.8292   13.0855  -12.1105 O   0  0  0  0  0  0  0  0  0  0  0  0
   46.7696    5.0393   -8.0332 C   0  0  2  0  0  0  0  0  0  0  0  0
   46.4269    4.4457   -6.7546 O   0  0  0  0  0  0  0  0  0  0  0  0
   44.4138    6.4215   -6.3900 C   0  0  2  0  0  0  0  0  0  0  0  0
   45.0410    7.0860   -7.4601 O   0  0  0  0  0  0  0  0  0  0  0  0
   42.4991    6.9596  -10.5838 C   0  0  0  0  0  0  0  0  0  0  0  0
   43.5649    6.1538  -11.1789 O   0  0  0  0  0  0  0  0  0  0  0  0
   43.1668   11.5168  -14.0209 C   0  0  1  0  0  0  0  0  0  0  0  0
   43.2097   10.3428  -13.0652 O   0  0  0  0  0  0  0  0  0  0  0  0
   46.1573    4.3536   -9.1867 C   0  0  0  0  0  0  0  0  0  0  0  0
   44.9685    4.8984   -9.4785 O   0  0  0  0  0  0  0  0  0  0  0  0
   42.9125    6.8935   -6.1767 C   0  0  1  0  0  0  0  0  0  0  0  0
   42.1268    6.5235   -7.2685 O   0  0  0  0  0  0  0  0  0  0  0  0
   45.7208   11.6969   -8.0446 C   0  0  0  0  0  0  0  0  0  0  0  0
   41.7218   11.9248  -14.4666 C   0  0  0  0  0  0  0  0  0  0  0  0
   41.1521   11.0147  -15.4182 N   0  0  0  0  0  0  0  0  0  0  0  0
   46.5992   12.0647   -9.2413 C   0  0  0  0  0  0  0  0  0  0  0  0
   47.3966   10.8666   -9.5678 N   0  0  0  0  0  0  0  0  0  0  0  0
   48.2121   10.8726  -10.8625 C   0  0  0  0  0  0  0  0  0  0  0  0
  1  2  1  6  0  0  0
  1  8  1  0  0  0  0
  1 33  1  0  0  0  0
  3  4  1  1  0  0  0
  3 10  1  0  0  0  0
  3 42  1  0  0  0  0
  5 11  1  0  0  0  0
  5 29  1  0  0  0  0
  5 35  1  6  0  0  0
  6 13  1  0  0  0  0
  6 39  1  0  0  0  0
  6 22  1  1  0  0  0
  7 15  1  0  0  0  0
  8  9  1  1  0  0  0
  8 17  1  0  0  0  0
 10 19  1  0  0  0  0
 11 12  1  1  0  0  0
 11 21  1  0  0  0  0
 12 44  1  0  0  0  0
 13 14  1  1  0  0  0
 13 23  1  0  0  0  0
 15 16  1  0  0  0  0
 17 18  1  6  0  0  0
 17 25  1  0  0  0  0
 19 20  1  1  0  0  0
 19 27  1  0  0  0  0
 21 22  1  6  0  0  0
 21 28  1  0  0  0  0
 23 24  1  6  0  0  0
 23 30  1  0  0  0  0
 25 26  1  6  0  0  0
 25 32  1  0  0  0  0
 27  2  1  6  0  0  0
 27 34  1  0  0  0  0
 28 29  1  0  0  0  0
 28 36  1  6  0  0  0
 30 31  1  1  0  0  0
 30 38  1  0  0  0  0
 32 33  1  0  0  0  0
 32 40  1  6  0  0  0
 34 35  1  6  0  0  0
 34 42  1  0  0  0  0
 36 37  1  0  0  0  0
 38 39  1  0  0  0  0
 38 45  1  1  0  0  0
 40 41  1  0  0  0  0
 42 43  1  6  0  0  0
 44 47  1  0  0  0  0
 45 46  1  0  0  0  0
 47 48  1  0  0  0  0
 48 49  1  0  0  0  0
 49  7  1  0  0  0  0
M  END
>  <CHROM.1>
-179.31194851,158.54991354,25.55617808,-63.08445340,115.25681752,56.64263062
-55.55656436,60.43107151,38.63020662,-153.82135857,-103.50594910,168.14058424
-65.42295120,170.69878863,82.57155088,-19.82530288,45.35593556,8.42066651
-8.95184943,-1.38338850,-0.17821202,-0.81178283

>  <Name>
2bee_lig

>  <RI>
0

>  <Rbt.Current_Directory>
/home/itssahil/PROJECTS/Mol_Feturizer/New_Systems/rnas/2bee

>  <Rbt.Executable>
rbdock ($Id: //depot/dev/client3/rdock/2013.1/src/exe/rbdock.cxx#4 $)

>  <Rbt.Library>
libRbt.so (2013.1, Build901 2013/11/27)

>  <Rbt.Parameter_File>
/export/apps/rDock/src/rDock_2013.1_src/data/scripts/dock_solv.prm

>  <Rbt.Receptor>
prm/blind_docking_60.prm

>  <SCORE>
23.8043

>  <SCORE.INTER>
-7.40679

>  <SCORE.INTER.CONST>
1

>  <SCORE.INTER.POLAR>
-1.45594

>  <SCORE.INTER.ROT>
16

>  <SCORE.INTER.SOLV>
33.5738

>  <SCORE.INTER.VDW>
-25.5427

>  <SCORE.INTER.norm>
-0.151159

>  <SCORE.INTRA>
16.5794

>  <SCORE.INTRA.DIHEDRAL>
-2.6826

>  <SCORE.INTRA.DIHEDRAL.0>
36.0842

>  <SCORE.INTRA.POLAR>
0

>  <SCORE.INTRA.POLAR.0>
0

>  <SCORE.INTRA.REPUL>
0

>  <SCORE.INTRA.REPUL.0>
0

>  <SCORE.INTRA.SOLV>
9.92926

>  <SCORE.INTRA.SOLV.lig_0>
-126.444

>  <SCORE.INTRA.VDW>
12.9561

>  <SCORE.INTRA.VDW.0>
-7.40469

>  <SCORE.INTRA.norm>
0.338355

>  <SCORE.RESTR>
14.6317

>  <SCORE.RESTR.CAVITY>
14.6317

>  <SCORE.RESTR.norm>
0.298607

>  <SCORE.SYSTEM>
0

>  <SCORE.SYSTEM.CONST>
0

>  <SCORE.SYSTEM.DIHEDRAL>
0

>  <SCORE.SYSTEM.SOLV>
0

>  <SCORE.SYSTEM.norm>
0

>  <SCORE.heavy>
49

>  <SCORE.norm>
0.485803

>  <RMSD>
10.311

$$$$
2bee_lig
 OpenBabel11021811423D
libRbt.so/2013.1/901 2013/11/27
 49 52  0  0  0  0  0  0  0  0999 V2000
   40.9311    2.6488   -7.2317 C   0  0  2  0  0  0  0  0  0  0  0  0
   40.3565    1.4257   -6.7888 O   0  0  0  0  0  0  0  0  0  0  0  0
   36.9871    1.0457   -9.5953 C   0  0  2  0  0  0  0  0  0  0  0  0
   35.8176    0.4508  -10.2976 N   0  0  0  0  0  0  0  0  0  0  0  0
   37.4555    1.1435   -4.9911 C   0  0  1  0  0  0  0  0  0  0  0  0
   39.3724   -2.8956   -5.2665 C   0  0  1  0  0  0  0  0  0  0  0  0
   36.9067   -4.5524   -0.5695 C   0  0  0  0  0  0  0  0  0  0  0  0
   42.1817    3.0197   -6.3443 C   0  0  2  0  0  0  0  0  0  0  0  0
   43.1338    1.9142   -6.3351 N   0  0  0  0  0  0  0  0  0  0  0  0
   38.2387    0.0641   -9.7277 C   0  0  0  0  0  0  0  0  0  0  0  0
   36.7711   -0.0860   -4.4887 C   0  0  2  0  0  0  0  0  0  0  0  0
   35.8581    0.1837   -3.3644 O   0  0  0  0  0  0  0  0  0  0  0  0
   38.6694   -2.7812   -6.7239 C   0  0  2  0  0  0  0  0  0  0  0  0
   37.3070   -3.4049   -6.6347 N   0  0  0  0  0  0  0  0  0  0  0  0
   37.5323   -5.3632    0.4063 C   0  0  0  0  0  0  0  0  0  0  0  0
   38.6200   -6.1590    0.0541 N   0  0  0  0  0  0  0  0  0  0  0  0
   41.6936    3.3848   -4.8745 C   0  0  1  0  0  0  0  0  0  0  0  0
   42.8250    3.7216   -4.0848 O   0  0  0  0  0  0  0  0  0  0  0  0
   39.5427    0.6771   -8.9561 C   0  0  2  0  0  0  0  0  0  0  0  0
   40.6673   -0.1873   -9.0762 N   0  0  0  0  0  0  0  0  0  0  0  0
   38.0174   -0.9206   -4.3186 C   0  0  2  0  0  0  0  0  0  0  0  0
   38.4698   -2.2201   -4.3583 O   0  0  0  0  0  0  0  0  0  0  0  0
   39.5628   -3.5423   -7.7673 C   0  0  1  0  0  0  0  0  0  0  0  0
   40.8669   -2.8644   -7.8057 O   0  0  0  0  0  0  0  0  0  0  0  0
   40.6941    4.5623   -4.9519 C   0  0  2  0  0  0  0  0  0  0  0  0
   40.2003    4.9261   -3.5992 O   0  0  0  0  0  0  0  0  0  0  0  0
   39.2059    0.9000   -7.4303 C   0  0  2  0  0  0  0  0  0  0  0  0
   39.1031    0.1575   -3.8222 C   0  0  2  0  0  0  0  0  0  0  0  0
   38.7875    1.2389   -4.5738 O   0  0  0  0  0  0  0  0  0  0  0  0
   39.7097   -5.1020   -7.3096 C   0  0  2  0  0  0  0  0  0  0  0  0
   38.3907   -5.7730   -7.2721 O   0  0  0  0  0  0  0  0  0  0  0  0
   39.4614    4.1844   -5.8392 C   0  0  2  0  0  0  0  0  0  0  0  0
   40.0173    3.8335   -7.1324 O   0  0  0  0  0  0  0  0  0  0  0  0
   37.9736    1.8637   -7.3570 C   0  0  2  0  0  0  0  0  0  0  0  0
   37.7778    2.0100   -5.9713 O   0  0  0  0  0  0  0  0  0  0  0  0
   40.6223   -0.1441   -4.0995 C   0  0  0  0  0  0  0  0  0  0  0  0
   41.0259   -1.3344   -3.3513 O   0  0  0  0  0  0  0  0  0  0  0  0
   40.3606   -5.1872   -5.8576 C   0  0  1  0  0  0  0  0  0  0  0  0
   39.4708   -4.3895   -4.9273 O   0  0  0  0  0  0  0  0  0  0  0  0
   38.5797    5.3663   -5.8755 C   0  0  0  0  0  0  0  0  0  0  0  0
   39.1422    6.3485   -6.5926 O   0  0  0  0  0  0  0  0  0  0  0  0
   36.7132    1.2294   -8.0860 C   0  0  1  0  0  0  0  0  0  0  0  0
   35.6252    2.1003   -8.0216 O   0  0  0  0  0  0  0  0  0  0  0  0
   35.0685   -0.8332   -2.6507 C   0  0  0  0  0  0  0  0  0  0  0  0
   40.4315   -6.7148   -5.5193 C   0  0  0  0  0  0  0  0  0  0  0  0
   40.9859   -6.9752   -4.2218 N   0  0  0  0  0  0  0  0  0  0  0  0
   36.0163   -1.8182   -1.9650 C   0  0  0  0  0  0  0  0  0  0  0  0
   35.1722   -2.8507   -1.3328 N   0  0  0  0  0  0  0  0  0  0  0  0
   35.7231   -3.5827   -0.1072 C   0  0  0  0  0  0  0  0  0  0  0  0
  1  2  1  1  0  0  0
  1  8  1  0  0  0  0
  1 33  1  0  0  0  0
  3  4  1  6  0  0  0
  3 10  1  0  0  0  0
  3 42  1  0  0  0  0
  5 11  1  0  0  0  0
  5 29  1  0  0  0  0
  5 35  1  6  0  0  0
  6 13  1  0  0  0  0
  6 39  1  0  0  0  0
  6 22  1  1  0  0  0
  7 15  1  0  0  0  0
  8  9  1  1  0  0  0
  8 17  1  0  0  0  0
 10 19  1  0  0  0  0
 11 12  1  1  0  0  0
 11 21  1  0  0  0  0
 12 44  1  0  0  0  0
 13 14  1  1  0  0  0
 13 23  1  0  0  0  0
 15 16  1  0  0  0  0
 17 18  1  1  0  0  0
 17 25  1  0  0  0  0
 19 20  1  1  0  0  0
 19 27  1  0  0  0  0
 21 22  1  1  0  0  0
 21 28  1  0  0  0  0
 23 24  1  1  0  0  0
 23 30  1  0  0  0  0
 25 26  1  1  0  0  0
 25 32  1  0  0  0  0
 27  2  1  1  0  0  0
 27 34  1  0  0  0  0
 28 29  1  0  0  0  0
 28 36  1  6  0  0  0
 30 31  1  1  0  0  0
 30 38  1  0  0  0  0
 32 33  1  0  0  0  0
 32 40  1  6  0  0  0
 34 35  1  1  0  0  0
 34 42  1  0  0  0  0
 36 37  1  0  0  0  0
 38 39  1  0  0  0  0
 38 45  1  1  0  0  0
 40 41  1  0  0  0  0
 42 43  1  6  0  0  0
 44 47  1  0  0  0  0
 45 46  1  0  0  0  0
 47 48  1  0  0  0  0
 48 49  1  0  0  0  0
 49  7  1  0  0  0  0
M  END
>  <CHROM.1>
179.24217886,-30.88906441,-60.48140700,-176.10311050,-178.81756701,63.05047114
112.81317857,58.64546015,-64.62006868,70.03871747,-63.01766102,-179.31021245
-176.92469842,-153.32425894,-70.63407349,-177.94839649,38.86281654,-0.40874202
-5.42793485,-0.99850192,-1.26903202,-2.98651488

>  <Name>
2bee_lig

>  <RI>
0

>  <Rbt.Current_Directory>
/home/itssahil/PROJECTS/Mol_Feturizer/New_Systems/rnas/2bee

>  <Rbt.Executable>
rbdock ($Id: //depot/dev/client3/rdock/2013.1/src/exe/rbdock.cxx#4 $)

>  <Rbt.Library>
libRbt.so (2013.1, Build901 2013/11/27)

>  <Rbt.Parameter_File>
/export/apps/rDock/src/rDock_2013.1_src/data/scripts/dock_solv.prm

>  <Rbt.Receptor>
prm/pocket_docking_8.prm

>  <SCORE>
-8.36268

>  <SCORE.INTER>
6.37431

>  <SCORE.INTER.CONST>
1

>  <SCORE.INTER.POLAR>
0

>  <SCORE.INTER.ROT>
16

>  <SCORE.INTER.SOLV>
6.86411

>  <SCORE.INTER.VDW>
-12.3052

>  <SCORE.INTER.norm>
0.130088

>  <SCORE.INTRA>
-14.737

>  <SCORE.INTRA.DIHEDRAL>
-28.4086

>  <SCORE.INTRA.DIHEDRAL.0>
36.0842

>  <SCORE.INTRA.POLAR>
0

>  <SCORE.INTRA.POLAR.0>
0

>  <SCORE.INTRA.REPUL>
0

>  <SCORE.INTRA.REPUL.0>
0

>  <SCORE.INTRA.SOLV>
-0.247511

>  <SCORE.INTRA.SOLV.lig_0>
-126.444

>  <SCORE.INTRA.VDW>
-0.408934

>  <SCORE.INTRA.VDW.0>
-7.40469

>  <SCORE.INTRA.norm>
-0.300755

>  <SCORE.RESTR>
0

>  <SCORE.RESTR.CAVITY>
0

>  <SCORE.RESTR.norm>
0

>  <SCORE.SYSTEM>
0

>  <SCORE.SYSTEM.CONST>
0

>  <SCORE.SYSTEM.DIHEDRAL>
0

>  <SCORE.SYSTEM.SOLV>
0

>  <SCORE.SYSTEM.norm>
0

>  <SCORE.heavy>
49

>  <SCORE.norm>
-0.170667

>  <RMSD>
10.349

$$$$
2bee_lig
 OpenBabel11021811423D
libRbt.so/2013.1/901 2013/11/27
 49 52  0  0  0  0  0  0  0  0999 V2000
   43.8751    5.3197   -7.0220 C   0  0  2  0  0  0  0  0  0  0  0  0
   44.4454    6.1230   -8.0475 O   0  0  0  0  0  0  0  0  0  0  0  0
   48.5155    4.4922   -8.4337 C   0  0  2  0  0  0  0  0  0  0  0  0
   49.7976    4.0782   -9.0658 N   0  0  0  0  0  0  0  0  0  0  0  0
   47.2338    8.7998   -8.7039 C   0  0  1  0  0  0  0  0  0  0  0  0
   44.7078   11.2091  -11.4955 C   0  0  1  0  0  0  0  0  0  0  0  0
   47.6386   13.4965  -10.2477 C   0  0  0  0  0  0  0  0  0  0  0  0
   42.6769    6.0802   -6.3328 C   0  0  2  0  0  0  0  0  0  0  0  0
   41.7041    6.4955   -7.3376 N   0  0  0  0  0  0  0  0  0  0  0  0
   47.3020    3.7691   -9.1768 C   0  0  0  0  0  0  0  0  0  0  0  0
   47.6351    9.4592   -9.9833 C   0  0  2  0  0  0  0  0  0  0  0  0
   49.0856    9.6997  -10.0751 O   0  0  0  0  0  0  0  0  0  0  0  0
   45.2539   10.8522  -12.9806 C   0  0  2  0  0  0  0  0  0  0  0  0
   46.0977   11.9992  -13.4553 N   0  0  0  0  0  0  0  0  0  0  0  0
   48.0320   13.6623   -8.8991 C   0  0  0  0  0  0  0  0  0  0  0  0
   47.1381   14.2011   -7.9764 N   0  0  0  0  0  0  0  0  0  0  0  0
   43.2434    7.3234   -5.5168 C   0  0  1  0  0  0  0  0  0  0  0  0
   42.1588    7.9986   -4.8965 O   0  0  0  0  0  0  0  0  0  0  0  0
   45.8719    4.2092   -8.5189 C   0  0  2  0  0  0  0  0  0  0  0  0
   44.7835    3.5622   -9.1694 N   0  0  0  0  0  0  0  0  0  0  0  0
   46.6436   10.5952   -9.9108 C   0  0  2  0  0  0  0  0  0  0  0  0
   45.8964   11.4387  -10.7016 O   0  0  0  0  0  0  0  0  0  0  0  0
   44.0183   10.6412  -13.9266 C   0  0  1  0  0  0  0  0  0  0  0  0
   43.2561    9.4974  -13.4046 O   0  0  0  0  0  0  0  0  0  0  0  0
   44.2617    6.8180   -4.4685 C   0  0  2  0  0  0  0  0  0  0  0  0
   44.8280    7.9510   -3.6929 O   0  0  0  0  0  0  0  0  0  0  0  0
   45.6955    5.7744   -8.6201 C   0  0  2  0  0  0  0  0  0  0  0  0
   46.5908   10.9223   -8.3368 C   0  0  2  0  0  0  0  0  0  0  0  0
   46.6479    9.6839   -7.7916 O   0  0  0  0  0  0  0  0  0  0  0  0
   43.1198   12.0035  -13.9456 C   0  0  2  0  0  0  0  0  0  0  0  0
   43.8981   13.1482  -14.4704 O   0  0  0  0  0  0  0  0  0  0  0  0
   45.4418    6.0605   -5.1637 C   0  0  2  0  0  0  0  0  0  0  0  0
   44.8167    4.9817   -5.9051 O   0  0  0  0  0  0  0  0  0  0  0  0
   46.9091    6.4329   -7.8811 C   0  0  2  0  0  0  0  0  0  0  0  0
   46.6406    7.8081   -8.0110 O   0  0  0  0  0  0  0  0  0  0  0  0
   45.2882   11.5957   -7.7664 C   0  0  0  0  0  0  0  0  0  0  0  0
   45.0250   12.8376   -8.4930 O   0  0  0  0  0  0  0  0  0  0  0  0
   42.6327   12.3585  -12.4705 C   0  0  1  0  0  0  0  0  0  0  0  0
   43.8755   12.4935  -11.6157 O   0  0  0  0  0  0  0  0  0  0  0  0
   46.3446    5.5971   -4.0933 C   0  0  0  0  0  0  0  0  0  0  0  0
   47.5370    5.2566   -4.6009 O   0  0  0  0  0  0  0  0  0  0  0  0
   48.2821    6.0141   -8.5606 C   0  0  1  0  0  0  0  0  0  0  0  0
   49.3554    6.5995   -7.8886 O   0  0  0  0  0  0  0  0  0  0  0  0
   49.8561    9.7674  -11.3276 C   0  0  0  0  0  0  0  0  0  0  0  0
   41.8064   13.6818  -12.6092 C   0  0  0  0  0  0  0  0  0  0  0  0
   40.4620   13.4573  -13.0573 N   0  0  0  0  0  0  0  0  0  0  0  0
   50.1752   11.2290  -11.6451 C   0  0  0  0  0  0  0  0  0  0  0  0
   48.8820   11.9196  -11.8144 N   0  0  0  0  0  0  0  0  0  0  0  0
   48.7776   13.3779  -11.3629 C   0  0  0  0  0  0  0  0  0  0  0  0
  1  2  1  6  0  0  0
  1  8  1  0  0  0  0
  1 33  1  0  0  0  0
  3  4  1  6  0  0  0
  3 10  1  0  0  0  0
  3 42  1  0  0  0  0
  5 11  1  0  0  0  0
  5 29  1  0  0  0  0
  5 35  1  6  0  0  0
  6 13  1  0  0  0  0
  6 39  1  0  0  0  0
  6 22  1  1  0  0  0
  7 15  1  0  0  0  0
  8  9  1  6  0  0  0
  8 17  1  0  0  0  0
 10 19  1  0  0  0  0
 11 12  1  1  0  0  0
 11 21  1  0  0  0  0
 12 44  1  0  0  0  0
 13 14  1  6  0  0  0
 13 23  1  0  0  0  0
 15 16  1  0  0  0  0
 17 18  1  1  0  0  0
 17 25  1  0  0  0  0
 19 20  1  6  0  0  0
 19 27  1  0  0  0  0
 21 22  1  6  0  0  0
 21 28  1  0  0  0  0
 23 24  1  1  0  0  0
 23 30  1  0  0  0  0
 25 26  1  6  0  0  0
 25 32  1  0  0  0  0
 27  2  1  1  0  0  0
 27 34  1  0  0  0  0
 28 29  1  0  0  0  0
 28 36  1  6  0  0  0
 30 31  1  1  0  0  0
 30 38  1  0  0  0  0
 32 33  1  0  0  0  0
 32 40  1  1  0  0  0
 34 35  1  6  0  0  0
 34 42  1  0  0  0  0
 36 37  1  0  0  0  0
 38 39  1  0  0  0  0
 38 45  1  6  0  0  0
 40 41  1  0  0  0  0
 42 43  1  1  0  0  0
 44 47  1  0  0  0  0
 45 46  1  0  0  0  0
 47 48  1  0  0  0  0
 48 49  1  0  0  0  0
 49  7  1  0  0  0  0
M  END
>  <CHROM.1>
167.06833589,65.11754393,-92.81972108,158.79331729,152.02383260,103.82647264
73.46981073,28.15082657,-56.21146539,-163.73428723,-111.22739893,80.80326816
-61.26020092,145.92866012,-120.70005309,105.28876455,45.79967200,9.05695835
-9.17876476,1.48949622,-0.10730978,2.44564469

>  <Name>
2bee_lig

>  <RI>
0

>  <Rbt.Current_Directory>
/home/itssahil/PROJECTS/Mol_Feturizer/New_Systems/rnas/2bee

>  <Rbt.Executable>
rbdock ($Id: //depot/dev/client3/rdock/2013.1/src/exe/rbdock.cxx#4 $)

>  <Rbt.Library>
libRbt.so (2013.1, Build901 2013/11/27)

>  <Rbt.Parameter_File>
/export/apps/rDock/src/rDock_2013.1_src/data/scripts/dock_solv.prm

>  <Rbt.Receptor>
prm/blind_docking_60.prm

>  <SCORE>
94.7427

>  <SCORE.INTER>
66.3813

>  <SCORE.INTER.CONST>
1

>  <SCORE.INTER.POLAR>
-1.18809

>  <SCORE.INTER.ROT>
16

>  <SCORE.INTER.SOLV>
33.395

>  <SCORE.INTER.VDW>
22.8162

>  <SCORE.INTER.norm>
1.35472

>  <SCORE.INTRA>
5.95731

>  <SCORE.INTRA.DIHEDRAL>
4.96016

>  <SCORE.INTRA.DIHEDRAL.0>
36.0842

>  <SCORE.INTRA.POLAR>
0

>  <SCORE.INTRA.POLAR.0>
0

>  <SCORE.INTRA.REPUL>
0

>  <SCORE.INTRA.REPUL.0>
0

>  <SCORE.INTRA.SOLV>
5.27531

>  <SCORE.INTRA.SOLV.lig_0>
-126.444

>  <SCORE.INTRA.VDW>
0.839573

>  <SCORE.INTRA.VDW.0>
-7.40469

>  <SCORE.INTRA.norm>
0.121578

>  <SCORE.RESTR>
22.4041

>  <SCORE.RESTR.CAVITY>
22.4041

>  <SCORE.RESTR.norm>
0.457226

>  <SCORE.SYSTEM>
0

>  <SCORE.SYSTEM.CONST>
0

>  <SCORE.SYSTEM.DIHEDRAL>
0

>  <SCORE.SYSTEM.SOLV>
0

>  <SCORE.SYSTEM.norm>
0

>  <SCORE.heavy>
49

>  <SCORE.norm>
1.93352

>  <RMSD>
10.397

$$$$
2bee_lig
 OpenBabel11021811423D
libRbt.so/2013.1/901 2013/11/27
 49 52  0  0  0  0  0  0  0  0999 V2000
   43.0216    4.4237   -0.0799 C   0  0  2  0  0  0  0  0  0  0  0  0
   42.8064    5.2626   -1.2078 O   0  0  0  0  0  0  0  0  0  0  0  0
   42.6694    9.6603   -1.3331 C   0  0  2  0  0  0  0  0  0  0  0  0
   43.1312   11.0726   -1.2509 N   0  0  0  0  0  0  0  0  0  0  0  0
   43.8450    6.8349   -4.7935 C   0  0  1  0  0  0  0  0  0  0  0  0
   46.3563    4.6781   -8.1020 C   0  0  1  0  0  0  0  0  0  0  0  0
   47.2099   12.2177   -9.2450 C   0  0  0  0  0  0  0  0  0  0  0  0
   43.3829    2.9605   -0.5462 C   0  0  2  0  0  0  0  0  0  0  0  0
   44.5223    2.9929   -1.4568 N   0  0  0  0  0  0  0  0  0  0  0  0
   42.9853    8.9197    0.0451 C   0  0  0  0  0  0  0  0  0  0  0  0
   44.7917    7.0041   -5.9371 C   0  0  2  0  0  0  0  0  0  0  0  0
   44.5919    8.2687   -6.6658 O   0  0  0  0  0  0  0  0  0  0  0  0
   46.5435    3.1425   -8.5895 C   0  0  2  0  0  0  0  0  0  0  0  0
   46.5731    2.2666   -7.3709 N   0  0  0  0  0  0  0  0  0  0  0  0
   47.8165   13.4360   -9.6306 C   0  0  0  0  0  0  0  0  0  0  0  0
   47.0672   14.6103   -9.6462 N   0  0  0  0  0  0  0  0  0  0  0  0
   42.1074    2.2959   -1.2271 C   0  0  1  0  0  0  0  0  0  0  0  0
   42.4407    0.9782   -1.6392 O   0  0  0  0  0  0  0  0  0  0  0  0
   42.5040    7.3586   -0.0099 C   0  0  2  0  0  0  0  0  0  0  0  0
   42.7734    6.6917    1.2186 N   0  0  0  0  0  0  0  0  0  0  0  0
   44.5265    5.6647   -6.5809 C   0  0  2  0  0  0  0  0  0  0  0  0
   45.1266    4.6841   -7.3380 O   0  0  0  0  0  0  0  0  0  0  0  0
   47.8933    3.0351   -9.3850 C   0  0  1  0  0  0  0  0  0  0  0  0
   47.7781    3.9054  -10.5644 O   0  0  0  0  0  0  0  0  0  0  0  0
   40.9402    2.2871   -0.2129 C   0  0  2  0  0  0  0  0  0  0  0  0
   39.7218    1.6875   -0.8145 O   0  0  0  0  0  0  0  0  0  0  0  0
   43.2399    6.6130   -1.1904 C   0  0  2  0  0  0  0  0  0  0  0  0
   42.9529    5.4513   -6.3242 C   0  0  2  0  0  0  0  0  0  0  0  0
   42.8050    5.9409   -5.0702 O   0  0  0  0  0  0  0  0  0  0  0  0
   49.1236    3.4954   -8.4165 C   0  0  2  0  0  0  0  0  0  0  0  0
   49.2280    2.6138   -7.2319 O   0  0  0  0  0  0  0  0  0  0  0  0
   40.5953    3.7430    0.2465 C   0  0  2  0  0  0  0  0  0  0  0  0
   41.8256    4.2652    0.8105 O   0  0  0  0  0  0  0  0  0  0  0  0
   42.9009    7.3788   -2.5137 C   0  0  2  0  0  0  0  0  0  0  0  0
   43.5793    6.6252   -3.4893 O   0  0  0  0  0  0  0  0  0  0  0  0
   42.4042    3.9770   -6.2896 C   0  0  0  0  0  0  0  0  0  0  0  0
   40.9565    4.0020   -6.0824 O   0  0  0  0  0  0  0  0  0  0  0  0
   48.8950    4.9903   -7.9144 C   0  0  1  0  0  0  0  0  0  0  0  0
   47.5562    5.0185   -7.2070 O   0  0  0  0  0  0  0  0  0  0  0  0
   39.4954    3.6361    1.2235 C   0  0  0  0  0  0  0  0  0  0  0  0
   39.8999    2.9695    2.3131 O   0  0  0  0  0  0  0  0  0  0  0  0
   43.4080    8.8823   -2.4450 C   0  0  1  0  0  0  0  0  0  0  0  0
   43.0926    9.5561   -3.6252 O   0  0  0  0  0  0  0  0  0  0  0  0
   45.1069    8.5611   -8.0135 C   0  0  0  0  0  0  0  0  0  0  0  0
   50.1147    5.3115   -6.9858 C   0  0  0  0  0  0  0  0  0  0  0  0
   50.0126    4.6940   -5.6947 N   0  0  0  0  0  0  0  0  0  0  0  0
   45.0501   10.0695   -8.2589 C   0  0  0  0  0  0  0  0  0  0  0  0
   45.5765   10.2994   -9.6184 N   0  0  0  0  0  0  0  0  0  0  0  0
   45.9050   11.7354  -10.0323 C   0  0  0  0  0  0  0  0  0  0  0  0
  1  2  1  6  0  0  0
  1  8  1  0  0  0  0
  1 33  1  0  0  0  0
  3  4  1  1  0  0  0
  3 10  1  0  0  0  0
  3 42  1  0  0  0  0
  5 11  1  0  0  0  0
  5 29  1  0  0  0  0
  5 35  1  1  0  0  0
  6 13  1  0  0  0  0
  6 39  1  0  0  0  0
  6 22  1  1  0  0  0
  7 15  1  0  0  0  0
  8  9  1  6  0  0  0
  8 17  1  0  0  0  0
 10 19  1  0  0  0  0
 11 12  1  6  0  0  0
 11 21  1  0  0  0  0
 12 44  1  0  0  0  0
 13 14  1  1  0  0  0
 13 23  1  0  0  0  0
 15 16  1  0  0  0  0
 17 18  1  1  0  0  0
 17 25  1  0  0  0  0
 19 20  1  1  0  0  0
 19 27  1  0  0  0  0
 21 22  1  6  0  0  0
 21 28  1  0  0  0  0
 23 24  1  6  0  0  0
 23 30  1  0  0  0  0
 25 26  1  6  0  0  0
 25 32  1  0  0  0  0
 27  2  1  6  0  0  0
 27 34  1  0  0  0  0
 28 29  1  0  0  0  0
 28 36  1  1  0  0  0
 30 31  1  1  0  0  0
 30 38  1  0  0  0  0
 32 33  1  0  0  0  0
 32 40  1  1  0  0  0
 34 35  1  6  0  0  0
 34 42  1  0  0  0  0
 36 37  1  0  0  0  0
 38 39  1  0  0  0  0
 38 45  1  1  0  0  0
 40 41  1  0  0  0  0
 42 43  1  6  0  0  0
 44 47  1  0  0  0  0
 45 46  1  0  0  0  0
 47 48  1  0  0  0  0
 48 49  1  0  0  0  0
 49  7  1  0  0  0  0
M  END
>  <CHROM.1>
-142.40443934,120.20859058,173.13742732,55.91732382,-163.10035273,-163.81084764
-14.20200962,-60.41373480,-178.46370115,64.03268639,-169.74611259,-76.02720464
179.99560415,-167.77528426,71.17749149,170.09188470,44.40169721,6.01216970
-4.57398321,2.64075874,-0.95266084,2.97979867

>  <Name>
2bee_lig

>  <RI>
0

>  <Rbt.Current_Directory>
/home/itssahil/PROJECTS/Mol_Feturizer/New_Systems/rnas/2bee

>  <Rbt.Executable>
rbdock ($Id: //depot/dev/client3/rdock/2013.1/src/exe/rbdock.cxx#4 $)

>  <Rbt.Library>
libRbt.so (2013.1, Build901 2013/11/27)

>  <Rbt.Parameter_File>
/export/apps/rDock/src/rDock_2013.1_src/data/scripts/dock_solv.prm

>  <Rbt.Receptor>
prm/pocket_docking_5.prm

>  <SCORE>
-17.1205

>  <SCORE.INTER>
-12.8507

>  <SCORE.INTER.CONST>
1

>  <SCORE.INTER.POLAR>
-1.93067

>  <SCORE.INTER.ROT>
16

>  <SCORE.INTER.SOLV>
17.4595

>  <SCORE.INTER.VDW>
-22.2181

>  <SCORE.INTER.norm>
-0.26226

>  <SCORE.INTRA>
-4.26977

>  <SCORE.INTRA.DIHEDRAL>
-16.8539

>  <SCORE.INTRA.DIHEDRAL.0>
36.0842

>  <SCORE.INTRA.POLAR>
0

>  <SCORE.INTRA.POLAR.0>
0

>  <SCORE.INTRA.REPUL>
0.113923

>  <SCORE.INTRA.REPUL.0>
0

>  <SCORE.INTRA.SOLV>
-0.526352

>  <SCORE.INTRA.SOLV.lig_0>
-126.444

>  <SCORE.INTRA.VDW>
3.85076

>  <SCORE.INTRA.VDW.0>
-7.40469

>  <SCORE.INTRA.norm>
-0.0871381

>  <SCORE.RESTR>
0

>  <SCORE.RESTR.CAVITY>
0

>  <SCORE.RESTR.norm>
0

>  <SCORE.SYSTEM>
0

>  <SCORE.SYSTEM.CONST>
0

>  <SCORE.SYSTEM.DIHEDRAL>
0

>  <SCORE.SYSTEM.SOLV>
0

>  <SCORE.SYSTEM.norm>
0

>  <SCORE.heavy>
49

>  <SCORE.norm>
-0.349398

>  <RMSD>
10.434

$$$$
2bee_lig
 OpenBabel11021811423D
libRbt.so/2013.1/901 2013/11/27
 49 52  0  0  0  0  0  0  0  0999 V2000
   40.0578   -1.8673   -5.8817 C   0  0  2  0  0  0  0  0  0  0  0  0
   38.9211   -2.1008   -6.7036 O   0  0  0  0  0  0  0  0  0  0  0  0
   35.6614    0.5603   -7.9949 C   0  0  2  0  0  0  0  0  0  0  0  0
   34.4472    1.4173   -7.9168 N   0  0  0  0  0  0  0  0  0  0  0  0
   39.9855    1.6966   -6.4937 C   0  0  1  0  0  0  0  0  0  0  0  0
   40.5433    4.0224   -2.7074 C   0  0  1  0  0  0  0  0  0  0  0  0
   43.5028    8.6499   -9.9929 C   0  0  0  0  0  0  0  0  0  0  0  0
   41.2295   -2.8475   -6.2758 C   0  0  2  0  0  0  0  0  0  0  0  0
   41.5231   -2.7288   -7.7000 N   0  0  0  0  0  0  0  0  0  0  0  0
   35.3177   -0.8955   -7.4378 C   0  0  0  0  0  0  0  0  0  0  0  0
   40.2588    3.1655   -6.5059 C   0  0  2  0  0  0  0  0  0  0  0  0
   40.9777    3.6059   -7.7141 O   0  0  0  0  0  0  0  0  0  0  0  0
   38.9436    4.2455   -2.8563 C   0  0  2  0  0  0  0  0  0  0  0  0
   38.7182    5.5584   -3.5481 N   0  0  0  0  0  0  0  0  0  0  0  0
   44.9141    8.6504   -9.8972 C   0  0  0  0  0  0  0  0  0  0  0  0
   45.5847    9.8147   -9.5293 N   0  0  0  0  0  0  0  0  0  0  0  0
   40.8245   -4.3354   -5.8831 C   0  0  1  0  0  0  0  0  0  0  0  0
   41.8865   -5.2094   -6.2370 O   0  0  0  0  0  0  0  0  0  0  0  0
   36.6322   -1.8652   -7.4946 C   0  0  2  0  0  0  0  0  0  0  0  0
   36.3333   -3.1691   -7.0080 N   0  0  0  0  0  0  0  0  0  0  0  0
   40.8887    3.2358   -5.1358 C   0  0  2  0  0  0  0  0  0  0  0  0
   41.0591    4.0763   -4.0590 O   0  0  0  0  0  0  0  0  0  0  0  0
   38.3079    4.2566   -1.4204 C   0  0  1  0  0  0  0  0  0  0  0  0
   38.5578    2.9381   -0.8196 O   0  0  0  0  0  0  0  0  0  0  0  0
   40.5318   -4.3957   -4.3659 C   0  0  2  0  0  0  0  0  0  0  0  0
   40.1337   -5.7674   -3.9585 O   0  0  0  0  0  0  0  0  0  0  0  0
   37.7994   -1.2349   -6.6394 C   0  0  2  0  0  0  0  0  0  0  0  0
   41.6963    1.8477   -5.0433 C   0  0  2  0  0  0  0  0  0  0  0  0
   40.8424    0.9864   -5.6458 O   0  0  0  0  0  0  0  0  0  0  0  0
   38.9864    5.4545   -0.5438 C   0  0  2  0  0  0  0  0  0  0  0  0
   38.7304    6.7762   -1.1595 O   0  0  0  0  0  0  0  0  0  0  0  0
   39.3722   -3.4151   -3.9867 C   0  0  2  0  0  0  0  0  0  0  0  0
   39.8241   -2.1065   -4.4200 O   0  0  0  0  0  0  0  0  0  0  0  0
   38.0941    0.1882   -7.2229 C   0  0  2  0  0  0  0  0  0  0  0  0
   39.1510    0.6418   -6.4124 O   0  0  0  0  0  0  0  0  0  0  0  0
   41.9846    1.2557   -3.6143 C   0  0  0  0  0  0  0  0  0  0  0  0
   42.7769    0.0332   -3.7455 O   0  0  0  0  0  0  0  0  0  0  0  0
   40.5623    5.2385   -0.4494 C   0  0  1  0  0  0  0  0  0  0  0  0
   41.0869    5.1881   -1.8692 O   0  0  0  0  0  0  0  0  0  0  0  0
   39.1796   -3.5212   -2.5281 C   0  0  0  0  0  0  0  0  0  0  0  0
   38.5227   -4.6485   -2.2232 O   0  0  0  0  0  0  0  0  0  0  0  0
   36.8103    1.1182   -7.1257 C   0  0  1  0  0  0  0  0  0  0  0  0
   37.0825    2.3795   -7.6563 O   0  0  0  0  0  0  0  0  0  0  0  0
   41.4200    4.9840   -7.9823 C   0  0  0  0  0  0  0  0  0  0  0  0
   41.1015    6.4473    0.3879 C   0  0  0  0  0  0  0  0  0  0  0  0
   42.5309    6.4485    0.5120 N   0  0  0  0  0  0  0  0  0  0  0  0
   42.2247    5.0114   -9.2826 C   0  0  0  0  0  0  0  0  0  0  0  0
   43.0150    6.2577   -9.2675 N   0  0  0  0  0  0  0  0  0  0  0  0
   42.7671    7.2835  -10.3755 C   0  0  0  0  0  0  0  0  0  0  0  0
  1  2  1  6  0  0  0
  1  8  1  0  0  0  0
  1 33  1  0  0  0  0
  3  4  1  1  0  0  0
  3 10  1  0  0  0  0
  3 42  1  0  0  0  0
  5 11  1  0  0  0  0
  5 29  1  0  0  0  0
  5 35  1  1  0  0  0
  6 13  1  0  0  0  0
  6 39  1  0  0  0  0
  6 22  1  6  0  0  0
  7 15  1  0  0  0  0
  8  9  1  6  0  0  0
  8 17  1  0  0  0  0
 10 19  1  0  0  0  0
 11 12  1  6  0  0  0
 11 21  1  0  0  0  0
 12 44  1  0  0  0  0
 13 14  1  1  0  0  0
 13 23  1  0  0  0  0
 15 16  1  0  0  0  0
 17 18  1  1  0  0  0
 17 25  1  0  0  0  0
 19 20  1  1  0  0  0
 19 27  1  0  0  0  0
 21 22  1  6  0  0  0
 21 28  1  0  0  0  0
 23 24  1  1  0  0  0
 23 30  1  0  0  0  0
 25 26  1  6  0  0  0
 25 32  1  0  0  0  0
 27  2  1  6  0  0  0
 27 34  1  0  0  0  0
 28 29  1  0  0  0  0
 28 36  1  1  0  0  0
 30 31  1  6  0  0  0
 30 38  1  0  0  0  0
 32 33  1  0  0  0  0
 32 40  1  1  0  0  0
 34 35  1  1  0  0  0
 34 42  1  0  0  0  0
 36 37  1  0  0  0  0
 38 39  1  0  0  0  0
 38 45  1  1  0  0  0
 40 41  1  0  0  0  0
 42 43  1  6  0  0  0
 44 47  1  0  0  0  0
 45 46  1  0  0  0  0
 47 48  1  0  0  0  0
 48 49  1  0  0  0  0
 49  7  1  0  0  0  0
M  END
>  <CHROM.1>
-172.58802931,63.35385420,-66.94884846,-178.20775262,-177.91641766,175.50558081
112.13728627,-171.73199244,-177.40898898,-76.41119454,169.31400363,-176.88991818
-160.97231809,-118.77492288,168.64842180,63.96008250,40.04351539,1.67691919
-5.31959261,-2.72366208,1.24160959,1.07710632

>  <Name>
2bee_lig

>  <RI>
0

>  <Rbt.Current_Directory>
/home/itssahil/PROJECTS/Mol_Feturizer/New_Systems/rnas/2bee

>  <Rbt.Executable>
rbdock ($Id: //depot/dev/client3/rdock/2013.1/src/exe/rbdock.cxx#4 $)

>  <Rbt.Library>
libRbt.so (2013.1, Build901 2013/11/27)

>  <Rbt.Parameter_File>
/export/apps/rDock/src/rDock_2013.1_src/data/scripts/dock_solv.prm

>  <Rbt.Receptor>
prm/pocket_docking_7.prm

>  <SCORE>
-14.471

>  <SCORE.INTER>
-0.432416

>  <SCORE.INTER.CONST>
1

>  <SCORE.INTER.POLAR>
0

>  <SCORE.INTER.ROT>
16

>  <SCORE.INTER.SOLV>
12.8315

>  <SCORE.INTER.VDW>
-18.8321

>  <SCORE.INTER.norm>
-0.00882482

>  <SCORE.INTRA>
-14.0386

>  <SCORE.INTRA.DIHEDRAL>
-27.033

>  <SCORE.INTRA.DIHEDRAL.0>
36.0842

>  <SCORE.INTRA.POLAR>
0

>  <SCORE.INTRA.POLAR.0>
0

>  <SCORE.INTRA.REPUL>
0

>  <SCORE.INTRA.REPUL.0>
0

>  <SCORE.INTRA.SOLV>
-4.46691

>  <SCORE.INTRA.SOLV.lig_0>
-126.444

>  <SCORE.INTRA.VDW>
1.71133

>  <SCORE.INTRA.VDW.0>
-7.40469

>  <SCORE.INTRA.norm>
-0.286502

>  <SCORE.RESTR>
0

>  <SCORE.RESTR.CAVITY>
0

>  <SCORE.RESTR.norm>
0

>  <SCORE.SYSTEM>
0

>  <SCORE.SYSTEM.CONST>
0

>  <SCORE.SYSTEM.DIHEDRAL>
0

>  <SCORE.SYSTEM.SOLV>
0

>  <SCORE.SYSTEM.norm>
0

>  <SCORE.heavy>
49

>  <SCORE.norm>
-0.295327

>  <RMSD>
10.435

$$$$
2bee_lig
 OpenBabel11021811423D
libRbt.so/2013.1/901 2013/11/27
 49 52  0  0  0  0  0  0  0  0999 V2000
   41.4404    6.0789    0.4680 C   0  0  2  0  0  0  0  0  0  0  0  0
   40.9590    4.7446    0.5672 O   0  0  0  0  0  0  0  0  0  0  0  0
   38.6229    1.9830   -1.9408 C   0  0  2  0  0  0  0  0  0  0  0  0
   37.5430    1.4884   -2.8376 N   0  0  0  0  0  0  0  0  0  0  0  0
   42.1302    4.7944   -3.2489 C   0  0  1  0  0  0  0  0  0  0  0  0
   43.0634    2.2106   -7.0460 C   0  0  1  0  0  0  0  0  0  0  0  0
   50.1332    5.5871   -5.4825 C   0  0  0  0  0  0  0  0  0  0  0  0
   42.5517    6.3429    1.5563 C   0  0  2  0  0  0  0  0  0  0  0  0
   43.6107    5.3460    1.4415 N   0  0  0  0  0  0  0  0  0  0  0  0
   37.9731    2.5839   -0.6124 C   0  0  0  0  0  0  0  0  0  0  0  0
   43.1900    4.2608   -4.1571 C   0  0  2  0  0  0  0  0  0  0  0  0
   44.3457    5.1655   -4.2850 O   0  0  0  0  0  0  0  0  0  0  0  0
   42.2216    1.5320   -8.2551 C   0  0  2  0  0  0  0  0  0  0  0  0
   41.0230    0.8494   -7.6631 N   0  0  0  0  0  0  0  0  0  0  0  0
   50.6063    6.0615   -6.7282 C   0  0  0  0  0  0  0  0  0  0  0  0
   51.8670    6.6478   -6.8145 N   0  0  0  0  0  0  0  0  0  0  0  0
   41.8862    6.3271    3.0016 C   0  0  1  0  0  0  0  0  0  0  0  0
   42.8927    6.5701    3.9736 O   0  0  0  0  0  0  0  0  0  0  0  0
   39.1285    3.1511    0.3950 C   0  0  2  0  0  0  0  0  0  0  0  0
   38.5591    3.6811    1.5871 N   0  0  0  0  0  0  0  0  0  0  0  0
   42.2819    3.9608   -5.3251 C   0  0  2  0  0  0  0  0  0  0  0  0
   42.1320    3.1076   -6.3950 O   0  0  0  0  0  0  0  0  0  0  0  0
   43.1485    0.4954   -8.9848 C   0  0  1  0  0  0  0  0  0  0  0  0
   44.2841    1.2414   -9.5464 O   0  0  0  0  0  0  0  0  0  0  0  0
   40.7793    7.4053    3.0600 C   0  0  2  0  0  0  0  0  0  0  0  0
   40.1198    7.4141    4.3908 O   0  0  0  0  0  0  0  0  0  0  0  0
   39.9711    4.2696   -0.3330 C   0  0  2  0  0  0  0  0  0  0  0  0
   41.2200    5.1678   -5.2701 C   0  0  2  0  0  0  0  0  0  0  0  0
   41.0267    5.3099   -3.9373 O   0  0  0  0  0  0  0  0  0  0  0  0
   43.6413   -0.6307   -7.9113 C   0  0  2  0  0  0  0  0  0  0  0  0
   42.4897   -1.3732   -7.3510 O   0  0  0  0  0  0  0  0  0  0  0  0
   39.6865    7.1360    1.9723 C   0  0  2  0  0  0  0  0  0  0  0  0
   40.4002    7.1315    0.7094 O   0  0  0  0  0  0  0  0  0  0  0  0
   40.5816    3.6312   -1.6262 C   0  0  2  0  0  0  0  0  0  0  0  0
   41.3212    4.6945   -2.1761 O   0  0  0  0  0  0  0  0  0  0  0  0
   39.7977    4.9283   -5.8989 C   0  0  0  0  0  0  0  0  0  0  0  0
   39.0562    6.1890   -5.9179 O   0  0  0  0  0  0  0  0  0  0  0  0
   44.4261    0.0639   -6.7109 C   0  0  1  0  0  0  0  0  0  0  0  0
   43.4852    1.0796   -6.0974 O   0  0  0  0  0  0  0  0  0  0  0  0
   38.6915    8.2190    2.0856 C   0  0  0  0  0  0  0  0  0  0  0  0
   37.7975    8.1398    1.0908 O   0  0  0  0  0  0  0  0  0  0  0  0
   39.4369    3.1183   -2.6004 C   0  0  1  0  0  0  0  0  0  0  0  0
   39.9930    2.5443   -3.7439 O   0  0  0  0  0  0  0  0  0  0  0  0
   45.5503    4.8940   -5.0863 C   0  0  0  0  0  0  0  0  0  0  0  0
   44.8276   -1.1005   -5.7434 C   0  0  0  0  0  0  0  0  0  0  0  0
   45.7605   -2.0190   -6.3304 N   0  0  0  0  0  0  0  0  0  0  0  0
   46.5092    6.0800   -4.9732 C   0  0  0  0  0  0  0  0  0  0  0  0
   47.6298    5.8103   -5.8950 N   0  0  0  0  0  0  0  0  0  0  0  0
   48.7212    4.8391   -5.4402 C   0  0  0  0  0  0  0  0  0  0  0  0
  1  2  1  1  0  0  0
  1  8  1  0  0  0  0
  1 33  1  0  0  0  0
  3  4  1  6  0  0  0
  3 10  1  0  0  0  0
  3 42  1  0  0  0  0
  5 11  1  0  0  0  0
  5 29  1  0  0  0  0
  5 35  1  1  0  0  0
  6 13  1  0  0  0  0
  6 39  1  0  0  0  0
  6 22  1  1  0  0  0
  7 15  1  0  0  0  0
  8  9  1  1  0  0  0
  8 17  1  0  0  0  0
 10 19  1  0  0  0  0
 11 12  1  6  0  0  0
 11 21  1  0  0  0  0
 12 44  1  0  0  0  0
 13 14  1  1  0  0  0
 13 23  1  0  0  0  0
 15 16  1  0  0  0  0
 17 18  1  1  0  0  0
 17 25  1  0  0  0  0
 19 20  1  1  0  0  0
 19 27  1  0  0  0  0
 21 22  1  6  0  0  0
 21 28  1  0  0  0  0
 23 24  1  1  0  0  0
 23 30  1  0  0  0  0
 25 26  1  1  0  0  0
 25 32  1  0  0  0  0
 27  2  1  1  0  0  0
 27 34  1  0  0  0  0
 28 29  1  0  0  0  0
 28 36  1  6  0  0  0
 30 31  1  1  0  0  0
 30 38  1  0  0  0  0
 32 33  1  0  0  0  0
 32 40  1  6  0  0  0
 34 35  1  6  0  0  0
 34 42  1  0  0  0  0
 36 37  1  0  0  0  0
 38 39  1  0  0  0  0
 38 45  1  1  0  0  0
 40 41  1  0  0  0  0
 42 43  1  6  0  0  0
 44 47  1  0  0  0  0
 45 46  1  0  0  0  0
 47 48  1  0  0  0  0
 48 49  1  0  0  0  0
 49  7  1  0  0  0  0
M  END
>  <CHROM.1>
-178.63799748,-39.90709243,-179.00754097,-176.24573676,178.64587730,179.35959555
-16.39939109,-151.30684849,-172.08542978,173.31756461,176.43243660,65.26427126
-174.60716857,-79.14546594,-122.52498270,-61.97378361,42.40391583,4.04714657
-3.17920142,-2.13317827,-0.38097618,-2.21875005

>  <Name>
2bee_lig

>  <RI>
0

>  <Rbt.Current_Directory>
/home/itssahil/PROJECTS/Mol_Feturizer/New_Systems/rnas/2bee

>  <Rbt.Executable>
rbdock ($Id: //depot/dev/client3/rdock/2013.1/src/exe/rbdock.cxx#4 $)

>  <Rbt.Library>
libRbt.so (2013.1, Build901 2013/11/27)

>  <Rbt.Parameter_File>
/export/apps/rDock/src/rDock_2013.1_src/data/scripts/dock_solv.prm

>  <Rbt.Receptor>
prm/pocket_docking_6.prm

>  <SCORE>
-11.4703

>  <SCORE.INTER>
1.8203

>  <SCORE.INTER.CONST>
1

>  <SCORE.INTER.POLAR>
0

>  <SCORE.INTER.ROT>
16

>  <SCORE.INTER.SOLV>
24.8583

>  <SCORE.INTER.VDW>
-21.3392

>  <SCORE.INTER.norm>
0.0371489

>  <SCORE.INTRA>
-13.2906

>  <SCORE.INTRA.DIHEDRAL>
-24.9908

>  <SCORE.INTRA.DIHEDRAL.0>
36.0842

>  <SCORE.INTRA.POLAR>
0

>  <SCORE.INTRA.POLAR.0>
0

>  <SCORE.INTRA.REPUL>
0

>  <SCORE.INTRA.REPUL.0>
0

>  <SCORE.INTRA.SOLV>
-3.63427

>  <SCORE.INTRA.SOLV.lig_0>
-126.444

>  <SCORE.INTRA.VDW>
1.02191

>  <SCORE.INTRA.VDW.0>
-7.40469

>  <SCORE.INTRA.norm>
-0.271238

>  <SCORE.RESTR>
0

>  <SCORE.RESTR.CAVITY>
0

>  <SCORE.RESTR.norm>
0

>  <SCORE.SYSTEM>
0

>  <SCORE.SYSTEM.CONST>
0

>  <SCORE.SYSTEM.DIHEDRAL>
0

>  <SCORE.SYSTEM.SOLV>
0

>  <SCORE.SYSTEM.norm>
0

>  <SCORE.heavy>
49

>  <SCORE.norm>
-0.234089

>  <RMSD>
10.476

$$$$
2bee_lig
 OpenBabel11021811423D
libRbt.so/2013.1/901 2013/11/27
 49 52  0  0  0  0  0  0  0  0999 V2000
   47.8811    4.6417   -5.2781 C   0  0  2  0  0  0  0  0  0  0  0  0
   47.4816    5.9165   -4.7909 O   0  0  0  0  0  0  0  0  0  0  0  0
   43.5316    6.3218   -6.6901 C   0  0  2  0  0  0  0  0  0  0  0  0
   42.2155    6.9107   -7.0589 N   0  0  0  0  0  0  0  0  0  0  0  0
   47.3891    8.2406   -8.1360 C   0  0  1  0  0  0  0  0  0  0  0  0
   45.2556   10.1419  -11.9937 C   0  0  1  0  0  0  0  0  0  0  0  0
   49.2832   13.2986   -9.7161 C   0  0  0  0  0  0  0  0  0  0  0  0
   49.3119    4.2686   -4.7279 C   0  0  2  0  0  0  0  0  0  0  0  0
   49.3245    4.3506   -3.2713 N   0  0  0  0  0  0  0  0  0  0  0  0
   43.6356    6.2134   -5.1010 C   0  0  0  0  0  0  0  0  0  0  0  0
   47.5980    8.5735   -9.5776 C   0  0  2  0  0  0  0  0  0  0  0  0
   48.8258    9.3523   -9.8151 O   0  0  0  0  0  0  0  0  0  0  0  0
   45.8445   11.5797  -11.5279 C   0  0  2  0  0  0  0  0  0  0  0  0
   44.9827   12.0978  -10.4134 N   0  0  0  0  0  0  0  0  0  0  0  0
   48.0509   13.2207   -9.0261 C   0  0  0  0  0  0  0  0  0  0  0  0
   47.2837   12.0605   -9.1038 N   0  0  0  0  0  0  0  0  0  0  0  0
   50.3941    5.2367   -5.3786 C   0  0  1  0  0  0  0  0  0  0  0  0
   51.6786    4.8904   -4.8813 O   0  0  0  0  0  0  0  0  0  0  0  0
   45.0755    5.5821   -4.6542 C   0  0  2  0  0  0  0  0  0  0  0  0
   45.1744    5.4728   -3.2384 N   0  0  0  0  0  0  0  0  0  0  0  0
   46.2270    9.1564   -9.8210 C   0  0  2  0  0  0  0  0  0  0  0  0
   45.2740    9.3223  -10.8004 O   0  0  0  0  0  0  0  0  0  0  0  0
   45.8074   12.5539  -12.7591 C   0  0  1  0  0  0  0  0  0  0  0  0
   46.6831   11.9860  -13.7946 O   0  0  0  0  0  0  0  0  0  0  0  0
   50.3340    5.0999   -6.9178 C   0  0  2  0  0  0  0  0  0  0  0  0
   51.3203    6.0006   -7.5673 O   0  0  0  0  0  0  0  0  0  0  0  0
   46.2486    6.4864   -5.1995 C   0  0  2  0  0  0  0  0  0  0  0  0
   45.9058    9.9033   -8.4330 C   0  0  2  0  0  0  0  0  0  0  0  0
   46.4148    9.0372   -7.5248 O   0  0  0  0  0  0  0  0  0  0  0  0
   44.2686   12.6945  -13.2844 C   0  0  2  0  0  0  0  0  0  0  0  0
   43.3964   13.2646  -12.2329 O   0  0  0  0  0  0  0  0  0  0  0  0
   48.9088    5.4668   -7.4506 C   0  0  2  0  0  0  0  0  0  0  0  0
   48.0036    4.5601   -6.7703 O   0  0  0  0  0  0  0  0  0  0  0  0
   46.0987    6.5624   -6.7565 C   0  0  2  0  0  0  0  0  0  0  0  0
   47.1936    7.3616   -7.1336 O   0  0  0  0  0  0  0  0  0  0  0  0
   44.3967   10.1162   -8.0418 C   0  0  0  0  0  0  0  0  0  0  0  0
   43.5417    9.4408   -9.0177 O   0  0  0  0  0  0  0  0  0  0  0  0
   43.6971   11.2644  -13.6933 C   0  0  1  0  0  0  0  0  0  0  0  0
   43.8160   10.3759  -12.4727 O   0  0  0  0  0  0  0  0  0  0  0  0
   48.9377    5.2860   -8.9143 C   0  0  0  0  0  0  0  0  0  0  0  0
   47.8587    4.6051   -9.3235 O   0  0  0  0  0  0  0  0  0  0  0  0
   44.7056    7.2087   -7.1614 C   0  0  1  0  0  0  0  0  0  0  0  0
   44.5802    7.2629   -8.5498 O   0  0  0  0  0  0  0  0  0  0  0  0
   49.7070    9.2099  -10.9856 C   0  0  0  0  0  0  0  0  0  0  0  0
   42.2228   11.5191  -14.1565 C   0  0  0  0  0  0  0  0  0  0  0  0
   41.3866   12.0268  -13.1068 N   0  0  0  0  0  0  0  0  0  0  0  0
   50.2442   10.5855  -11.3829 C   0  0  0  0  0  0  0  0  0  0  0  0
   49.0776   11.4830  -11.4904 N   0  0  0  0  0  0  0  0  0  0  0  0
   49.2987   12.9828  -11.2829 C   0  0  0  0  0  0  0  0  0  0  0  0
  1  2  1  6  0  0  0
  1  8  1  0  0  0  0
  1 33  1  0  0  0  0
  3  4  1  1  0  0  0
  3 10  1  0  0  0  0
  3 42  1  0  0  0  0
  5 11  1  0  0  0  0
  5 29  1  0  0  0  0
  5 35  1  6  0  0  0
  6 13  1  0  0  0  0
  6 39  1  0  0  0  0
  6 22  1  1  0  0  0
  7 15  1  0  0  0  0
  8  9  1  1  0  0  0
  8 17  1  0  0  0  0
 10 19  1  0  0  0  0
 11 12  1  1  0  0  0
 11 21  1  0  0  0  0
 12 44  1  0  0  0  0
 13 14  1  1  0  0  0
 13 23  1  0  0  0  0
 15 16  1  0  0  0  0
 17 18  1  1  0  0  0
 17 25  1  0  0  0  0
 19 20  1  1  0  0  0
 19 27  1  0  0  0  0
 21 22  1  6  0  0  0
 21 28  1  0  0  0  0
 23 24  1  6  0  0  0
 23 30  1  0  0  0  0
 25 26  1  6  0  0  0
 25 32  1  0  0  0  0
 27  2  1  6  0  0  0
 27 34  1  0  0  0  0
 28 29  1  0  0  0  0
 28 36  1  1  0  0  0
 30 31  1  1  0  0  0
 30 38  1  0  0  0  0
 32 33  1  0  0  0  0
 32 40  1  6  0  0  0
 34 35  1  1  0  0  0
 34 42  1  0  0  0  0
 36 37  1  0  0  0  0
 38 39  1  0  0  0  0
 38 45  1  1  0  0  0
 40 41  1  0  0  0  0
 42 43  1  6  0  0  0
 44 47  1  0  0  0  0
 45 46  1  0  0  0  0
 47 48  1  0  0  0  0
 48 49  1  0  0  0  0
 49  7  1  0  0  0  0
M  END
>  <CHROM.1>
177.38044926,-71.40160440,-43.76926271,53.74350828,143.45476443,143.47646116
-69.43842878,64.94860745,5.56613383,133.44212861,-148.46257657,-63.16131331
-50.97999437,154.37421434,-83.31136314,-71.17859850,46.65978389,8.59379012
-8.79952995,1.25225647,-0.01552590,2.35258575

>  <Name>
2bee_lig

>  <RI>
0

>  <Rbt.Current_Directory>
/home/itssahil/PROJECTS/Mol_Feturizer/New_Systems/rnas/2bee

>  <Rbt.Executable>
rbdock ($Id: //depot/dev/client3/rdock/2013.1/src/exe/rbdock.cxx#4 $)

>  <Rbt.Library>
libRbt.so (2013.1, Build901 2013/11/27)

>  <Rbt.Parameter_File>
/export/apps/rDock/src/rDock_2013.1_src/data/scripts/dock_solv.prm

>  <Rbt.Receptor>
prm/blind_docking_60.prm

>  <SCORE>
49.8133

>  <SCORE.INTER>
22.0946

>  <SCORE.INTER.CONST>
1

>  <SCORE.INTER.POLAR>
-1.45303

>  <SCORE.INTER.ROT>
16

>  <SCORE.INTER.SOLV>
37.0975

>  <SCORE.INTER.VDW>
-7.05933

>  <SCORE.INTER.norm>
0.450911

>  <SCORE.INTRA>
13.2749

>  <SCORE.INTRA.DIHEDRAL>
-3.72254

>  <SCORE.INTRA.DIHEDRAL.0>
36.0842

>  <SCORE.INTRA.POLAR>
0

>  <SCORE.INTRA.POLAR.0>
0

>  <SCORE.INTRA.REPUL>
0.233769

>  <SCORE.INTRA.REPUL.0>
0

>  <SCORE.INTRA.SOLV>
17.3954

>  <SCORE.INTRA.SOLV.lig_0>
-126.444

>  <SCORE.INTRA.VDW>
5.26967

>  <SCORE.INTRA.VDW.0>
-7.40469

>  <SCORE.INTRA.norm>
0.270917

>  <SCORE.RESTR>
14.4437

>  <SCORE.RESTR.CAVITY>
14.4437

>  <SCORE.RESTR.norm>
0.29477

>  <SCORE.SYSTEM>
0

>  <SCORE.SYSTEM.CONST>
0

>  <SCORE.SYSTEM.DIHEDRAL>
0

>  <SCORE.SYSTEM.SOLV>
0

>  <SCORE.SYSTEM.norm>
0

>  <SCORE.heavy>
49

>  <SCORE.norm>
1.0166

>  <RMSD>
10.502

$$$$
2bee_lig
 OpenBabel11021811423D
libRbt.so/2013.1/901 2013/11/27
 49 52  0  0  0  0  0  0  0  0999 V2000
   40.6774    0.9788   -1.3096 C   0  0  2  0  0  0  0  0  0  0  0  0
   40.0722    1.9385   -2.1669 O   0  0  0  0  0  0  0  0  0  0  0  0
   35.9208    0.4798   -2.2772 C   0  0  2  0  0  0  0  0  0  0  0  0
   34.4466    0.4832   -2.4810 N   0  0  0  0  0  0  0  0  0  0  0  0
   38.9389    2.0128   -5.4226 C   0  0  1  0  0  0  0  0  0  0  0  0
   42.2268    3.1831   -8.3566 C   0  0  1  0  0  0  0  0  0  0  0  0
   42.5789    7.4671   -4.3250 C   0  0  0  0  0  0  0  0  0  0  0  0
   42.2085    1.3059   -1.1152 C   0  0  2  0  0  0  0  0  0  0  0  0
   42.3707    2.6758   -0.6400 N   0  0  0  0  0  0  0  0  0  0  0  0
   36.3181    1.6539   -1.2714 C   0  0  0  0  0  0  0  0  0  0  0  0
   39.5118    3.2417   -6.0505 C   0  0  2  0  0  0  0  0  0  0  0  0
   38.5866    4.3877   -6.0186 O   0  0  0  0  0  0  0  0  0  0  0  0
   42.0877    4.7634   -8.0185 C   0  0  2  0  0  0  0  0  0  0  0  0
   41.1941    5.3846   -9.0523 N   0  0  0  0  0  0  0  0  0  0  0  0
   43.3569    7.9826   -3.2621 C   0  0  0  0  0  0  0  0  0  0  0  0
   42.8010    8.1051   -1.9906 N   0  0  0  0  0  0  0  0  0  0  0  0
   42.9753    1.0677   -2.4890 C   0  0  1  0  0  0  0  0  0  0  0  0
   44.3527    1.3600   -2.3031 O   0  0  0  0  0  0  0  0  0  0  0  0
   37.9344    1.6920   -1.0315 C   0  0  2  0  0  0  0  0  0  0  0  0
   38.2980    2.7306   -0.1284 N   0  0  0  0  0  0  0  0  0  0  0  0
   39.9310    2.5938   -7.3479 C   0  0  2  0  0  0  0  0  0  0  0  0
   40.8711    2.6753   -8.3502 O   0  0  0  0  0  0  0  0  0  0  0  0
   43.5191    5.4080   -8.0603 C   0  0  1  0  0  0  0  0  0  0  0  0
   44.3233    4.7594   -7.0143 O   0  0  0  0  0  0  0  0  0  0  0  0
   42.7693   -0.3986   -2.9350 C   0  0  2  0  0  0  0  0  0  0  0  0
   43.4577   -0.6604   -4.2248 O   0  0  0  0  0  0  0  0  0  0  0  0
   38.6750    1.9040   -2.4091 C   0  0  2  0  0  0  0  0  0  0  0  0
   38.7554    1.5276   -7.6099 C   0  0  2  0  0  0  0  0  0  0  0  0
   38.5129    1.0657   -6.3601 O   0  0  0  0  0  0  0  0  0  0  0  0
   44.1652    5.1815   -9.5418 C   0  0  2  0  0  0  0  0  0  0  0  0
   43.3460    5.8365  -10.5865 O   0  0  0  0  0  0  0  0  0  0  0  0
   41.2469   -0.7124   -3.1186 C   0  0  2  0  0  0  0  0  0  0  0  0
   40.6420   -0.4265   -1.8315 O   0  0  0  0  0  0  0  0  0  0  0  0
   38.2497    0.7318   -3.3566 C   0  0  2  0  0  0  0  0  0  0  0  0
   38.9765    1.0040   -4.5303 O   0  0  0  0  0  0  0  0  0  0  0  0
   39.0863    0.2659   -8.4898 C   0  0  0  0  0  0  0  0  0  0  0  0
   37.8761   -0.5373   -8.6623 O   0  0  0  0  0  0  0  0  0  0  0  0
   44.2500    3.6244   -9.8697 C   0  0  1  0  0  0  0  0  0  0  0  0
   42.8442    3.0725   -9.7578 O   0  0  0  0  0  0  0  0  0  0  0  0
   41.1454   -2.1286   -3.5183 C   0  0  0  0  0  0  0  0  0  0  0  0
   41.5678   -2.9263   -2.5281 O   0  0  0  0  0  0  0  0  0  0  0  0
   36.6799    0.7384   -3.5977 C   0  0  1  0  0  0  0  0  0  0  0  0
   36.3125   -0.3149   -4.4355 O   0  0  0  0  0  0  0  0  0  0  0  0
   38.9143    5.7543   -6.4566 C   0  0  0  0  0  0  0  0  0  0  0  0
   44.8595    3.5320  -11.3095 C   0  0  0  0  0  0  0  0  0  0  0  0
   46.2815    3.7221  -11.3282 N   0  0  0  0  0  0  0  0  0  0  0  0
   39.7821    6.4301   -5.3939 C   0  0  0  0  0  0  0  0  0  0  0  0
   41.0664    5.7035   -5.3684 N   0  0  0  0  0  0  0  0  0  0  0  0
   42.0252    5.9723   -4.2067 C   0  0  0  0  0  0  0  0  0  0  0  0
  1  2  1  6  0  0  0
  1  8  1  0  0  0  0
  1 33  1  0  0  0  0
  3  4  1  6  0  0  0
  3 10  1  0  0  0  0
  3 42  1  0  0  0  0
  5 11  1  0  0  0  0
  5 29  1  0  0  0  0
  5 35  1  1  0  0  0
  6 13  1  0  0  0  0
  6 39  1  0  0  0  0
  6 22  1  6  0  0  0
  7 15  1  0  0  0  0
  8  9  1  6  0  0  0
  8 17  1  0  0  0  0
 10 19  1  0  0  0  0
 11 12  1  6  0  0  0
 11 21  1  0  0  0  0
 12 44  1  0  0  0  0
 13 14  1  6  0  0  0
 13 23  1  0  0  0  0
 15 16  1  0  0  0  0
 17 18  1  1  0  0  0
 17 25  1  0  0  0  0
 19 20  1  1  0  0  0
 19 27  1  0  0  0  0
 21 22  1  6  0  0  0
 21 28  1  0  0  0  0
 23 24  1  1  0  0  0
 23 30  1  0  0  0  0
 25 26  1  6  0  0  0
 25 32  1  0  0  0  0
 27  2  1  1  0  0  0
 27 34  1  0  0  0  0
 28 29  1  0  0  0  0
 28 36  1  6  0  0  0
 30 31  1  6  0  0  0
 30 38  1  0  0  0  0
 32 33  1  0  0  0  0
 32 40  1  1  0  0  0
 34 35  1  6  0  0  0
 34 42  1  0  0  0  0
 36 37  1  0  0  0  0
 38 39  1  0  0  0  0
 38 45  1  6  0  0  0
 40 41  1  0  0  0  0
 42 43  1  6  0  0  0
 44 47  1  0  0  0  0
 45 46  1  0  0  0  0
 47 48  1  0  0  0  0
 48 49  1  0  0  0  0
 49  7  1  0  0  0  0
M  END
>  <CHROM.1>
-175.38118203,107.76501392,-63.22115193,-61.77697435,174.53860845,-75.93107606
26.40839953,45.15754545,-177.18486273,65.21321492,-64.92574446,78.40530554
66.28500131,-167.66541003,-67.89364896,172.42382092,40.76342615,2.54895526
-5.16586768,-2.42628037,-0.82852181,-1.68732027

>  <Name>
2bee_lig

>  <RI>
0

>  <Rbt.Current_Directory>
/home/itssahil/PROJECTS/Mol_Feturizer/New_Systems/rnas/2bee

>  <Rbt.Executable>
rbdock ($Id: //depot/dev/client3/rdock/2013.1/src/exe/rbdock.cxx#4 $)

>  <Rbt.Library>
libRbt.so (2013.1, Build901 2013/11/27)

>  <Rbt.Parameter_File>
/export/apps/rDock/src/rDock_2013.1_src/data/scripts/dock_solv.prm

>  <Rbt.Receptor>
prm/pocket_docking_7.prm

>  <SCORE>
-13.966

>  <SCORE.INTER>
-4.45394

>  <SCORE.INTER.CONST>
1

>  <SCORE.INTER.POLAR>
0

>  <SCORE.INTER.ROT>
16

>  <SCORE.INTER.SOLV>
15.6908

>  <SCORE.INTER.VDW>
-22.4662

>  <SCORE.INTER.norm>
-0.0908966

>  <SCORE.INTRA>
-9.51205

>  <SCORE.INTRA.DIHEDRAL>
-22.1386

>  <SCORE.INTRA.DIHEDRAL.0>
36.0842

>  <SCORE.INTRA.POLAR>
0

>  <SCORE.INTRA.POLAR.0>
0

>  <SCORE.INTRA.REPUL>
0

>  <SCORE.INTRA.REPUL.0>
0

>  <SCORE.INTRA.SOLV>
1.20564

>  <SCORE.INTRA.SOLV.lig_0>
-126.444

>  <SCORE.INTRA.VDW>
0.954438

>  <SCORE.INTRA.VDW.0>
-7.40469

>  <SCORE.INTRA.norm>
-0.194123

>  <SCORE.RESTR>
0

>  <SCORE.RESTR.CAVITY>
0

>  <SCORE.RESTR.norm>
0

>  <SCORE.SYSTEM>
0

>  <SCORE.SYSTEM.CONST>
0

>  <SCORE.SYSTEM.DIHEDRAL>
0

>  <SCORE.SYSTEM.SOLV>
0

>  <SCORE.SYSTEM.norm>
0

>  <SCORE.heavy>
49

>  <SCORE.norm>
-0.28502

>  <RMSD>
10.524

$$$$
2bee_lig
 OpenBabel11021811423D
libRbt.so/2013.1/901 2013/11/27
 49 52  0  0  0  0  0  0  0  0999 V2000
   42.2339    6.2273   -5.4870 C   0  0  2  0  0  0  0  0  0  0  0  0
   41.9792    6.9883   -6.6609 O   0  0  0  0  0  0  0  0  0  0  0  0
   42.6299    3.9399   -9.7687 C   0  0  2  0  0  0  0  0  0  0  0  0
   42.6362    3.2954  -11.1101 N   0  0  0  0  0  0  0  0  0  0  0  0
   44.2980    8.1608   -9.0311 C   0  0  1  0  0  0  0  0  0  0  0  0
   47.5524   11.5119   -8.8377 C   0  0  1  0  0  0  0  0  0  0  0  0
   46.0989   13.7470  -12.5755 C   0  0  0  0  0  0  0  0  0  0  0  0
   42.4129    7.1815   -4.2435 C   0  0  2  0  0  0  0  0  0  0  0  0
   41.2528    8.0567   -4.1137 N   0  0  0  0  0  0  0  0  0  0  0  0
   41.1427    4.3926   -9.4067 C   0  0  0  0  0  0  0  0  0  0  0  0
   44.0052    9.5993   -9.3098 C   0  0  2  0  0  0  0  0  0  0  0  0
   43.2582    9.8008  -10.5635 O   0  0  0  0  0  0  0  0  0  0  0  0
   47.6362   13.1312   -8.7952 C   0  0  2  0  0  0  0  0  0  0  0  0
   46.8142   13.6707   -9.9294 N   0  0  0  0  0  0  0  0  0  0  0  0
   46.7062   12.9203  -13.5495 C   0  0  0  0  0  0  0  0  0  0  0  0
   48.0058   13.1874  -13.9741 N   0  0  0  0  0  0  0  0  0  0  0  0
   43.7590    8.0137   -4.4091 C   0  0  1  0  0  0  0  0  0  0  0  0
   43.9139    8.8658   -3.2835 O   0  0  0  0  0  0  0  0  0  0  0  0
   41.0958    5.1185   -7.9430 C   0  0  2  0  0  0  0  0  0  0  0  0
   39.7715    5.5180   -7.6070 N   0  0  0  0  0  0  0  0  0  0  0  0
   45.4187   10.1002   -9.1369 C   0  0  2  0  0  0  0  0  0  0  0  0
   46.1407   11.2047   -8.7449 O   0  0  0  0  0  0  0  0  0  0  0  0
   49.1407   13.5548   -8.9476 C   0  0  1  0  0  0  0  0  0  0  0  0
   49.8706   13.0032   -7.7967 O   0  0  0  0  0  0  0  0  0  0  0  0
   44.9473    7.0323   -4.5362 C   0  0  2  0  0  0  0  0  0  0  0  0
   46.2252    7.7693   -4.7086 O   0  0  0  0  0  0  0  0  0  0  0  0
   42.0466    6.3784   -7.9398 C   0  0  2  0  0  0  0  0  0  0  0  0
   46.2994    8.8976   -9.7415 C   0  0  2  0  0  0  0  0  0  0  0  0
   45.6244    7.8085   -9.3028 O   0  0  0  0  0  0  0  0  0  0  0  0
   49.7195   12.9760  -10.3595 C   0  0  2  0  0  0  0  0  0  0  0  0
   48.9755   13.5362  -11.5103 O   0  0  0  0  0  0  0  0  0  0  0  0
   44.7553    6.0876   -5.7692 C   0  0  2  0  0  0  0  0  0  0  0  0
   43.4920    5.4131   -5.5382 O   0  0  0  0  0  0  0  0  0  0  0  0
   43.4866    5.8814   -8.3027 C   0  0  2  0  0  0  0  0  0  0  0  0
   44.2450    7.0654   -8.2483 O   0  0  0  0  0  0  0  0  0  0  0  0
   47.7781    8.7360   -9.2287 C   0  0  0  0  0  0  0  0  0  0  0  0
   48.0231    7.3354   -8.8853 O   0  0  0  0  0  0  0  0  0  0  0  0
   49.5854   11.3887  -10.3964 C   0  0  1  0  0  0  0  0  0  0  0  0
   48.1202   11.0645  -10.1920 O   0  0  0  0  0  0  0  0  0  0  0  0
   45.9154    5.1771   -5.7976 C   0  0  0  0  0  0  0  0  0  0  0  0
   46.1291    4.7293   -7.0422 O   0  0  0  0  0  0  0  0  0  0  0  0
   43.5092    5.2099   -9.7418 C   0  0  1  0  0  0  0  0  0  0  0  0
   44.7946    4.7637  -10.0499 O   0  0  0  0  0  0  0  0  0  0  0  0
   43.8016    9.5969  -11.9163 C   0  0  0  0  0  0  0  0  0  0  0  0
   50.1469   10.9530  -11.7921 C   0  0  0  0  0  0  0  0  0  0  0  0
   51.4977   11.3844  -12.0108 N   0  0  0  0  0  0  0  0  0  0  0  0
   43.9092   10.9476  -12.6256 C   0  0  0  0  0  0  0  0  0  0  0  0
   44.6333   11.8517  -11.7111 N   0  0  0  0  0  0  0  0  0  0  0  0
   44.6484   13.3469  -12.0361 C   0  0  0  0  0  0  0  0  0  0  0  0
  1  2  1  6  0  0  0
  1  8  1  0  0  0  0
  1 33  1  0  0  0  0
  3  4  1  6  0  0  0
  3 10  1  0  0  0  0
  3 42  1  0  0  0  0
  5 11  1  0  0  0  0
  5 29  1  0  0  0  0
  5 35  1  1  0  0  0
  6 13  1  0  0  0  0
  6 39  1  0  0  0  0
  6 22  1  6  0  0  0
  7 15  1  0  0  0  0
  8  9  1  6  0  0  0
  8 17  1  0  0  0  0
 10 19  1  0  0  0  0
 11 12  1  6  0  0  0
 11 21  1  0  0  0  0
 12 44  1  0  0  0  0
 13 14  1  6  0  0  0
 13 23  1  0  0  0  0
 15 16  1  0  0  0  0
 17 18  1  1  0  0  0
 17 25  1  0  0  0  0
 19 20  1  6  0  0  0
 19 27  1  0  0  0  0
 21 22  1  6  0  0  0
 21 28  1  0  0  0  0
 23 24  1  1  0  0  0
 23 30  1  0  0  0  0
 25 26  1  6  0  0  0
 25 32  1  0  0  0  0
 27  2  1  1  0  0  0
 27 34  1  0  0  0  0
 28 29  1  0  0  0  0
 28 36  1  1  0  0  0
 30 31  1  6  0  0  0
 30 38  1  0  0  0  0
 32 33  1  0  0  0  0
 32 40  1  1  0  0  0
 34 35  1  6  0  0  0
 34 42  1  0  0  0  0
 36 37  1  0  0  0  0
 38 39  1  0  0  0  0
 38 45  1  6  0  0  0
 40 41  1  0  0  0  0
 42 43  1  1  0  0  0
 44 47  1  0  0  0  0
 45 46  1  0  0  0  0
 47 48  1  0  0  0  0
 48 49  1  0  0  0  0
 49  7  1  0  0  0  0
M  END
>  <CHROM.1>
167.45378466,105.94333081,156.54787206,-175.60853429,-69.89619392,-112.06301747
-170.17195390,54.29292892,132.56963888,-154.97490555,-70.56409473,57.28926381
51.05475298,-168.11630434,-106.44242352,46.24140145,45.33541933,8.90607693
-8.85921028,-2.45126355,-0.77257517,-1.26918754

>  <Name>
2bee_lig

>  <RI>
0

>  <Rbt.Current_Directory>
/home/itssahil/PROJECTS/Mol_Feturizer/New_Systems/rnas/2bee

>  <Rbt.Executable>
rbdock ($Id: //depot/dev/client3/rdock/2013.1/src/exe/rbdock.cxx#4 $)

>  <Rbt.Library>
libRbt.so (2013.1, Build901 2013/11/27)

>  <Rbt.Parameter_File>
/export/apps/rDock/src/rDock_2013.1_src/data/scripts/dock_solv.prm

>  <Rbt.Receptor>
prm/blind_docking_100.prm

>  <SCORE>
40.3443

>  <SCORE.INTER>
5.1835

>  <SCORE.INTER.CONST>
1

>  <SCORE.INTER.POLAR>
-0.823421

>  <SCORE.INTER.ROT>
16

>  <SCORE.INTER.SOLV>
35.7739

>  <SCORE.INTER.VDW>
-19.9909

>  <SCORE.INTER.norm>
0.105786

>  <SCORE.INTRA>
7.02182

>  <SCORE.INTRA.DIHEDRAL>
-5.74207

>  <SCORE.INTRA.DIHEDRAL.0>
36.0842

>  <SCORE.INTRA.POLAR>
0

>  <SCORE.INTRA.POLAR.0>
0

>  <SCORE.INTRA.REPUL>
0.209196

>  <SCORE.INTRA.REPUL.0>
0

>  <SCORE.INTRA.SOLV>
6.39418

>  <SCORE.INTRA.SOLV.lig_0>
-126.444

>  <SCORE.INTRA.VDW>
5.64979

>  <SCORE.INTRA.VDW.0>
-7.40469

>  <SCORE.INTRA.norm>
0.143303

>  <SCORE.RESTR>
28.139

>  <SCORE.RESTR.CAVITY>
28.139

>  <SCORE.RESTR.norm>
0.574264

>  <SCORE.SYSTEM>
0

>  <SCORE.SYSTEM.CONST>
0

>  <SCORE.SYSTEM.DIHEDRAL>
0

>  <SCORE.SYSTEM.SOLV>
0

>  <SCORE.SYSTEM.norm>
0

>  <SCORE.heavy>
49

>  <SCORE.norm>
0.823353

>  <RMSD>
10.527

$$$$
2bee_lig
 OpenBabel11021811423D
libRbt.so/2013.1/901 2013/11/27
 49 52  0  0  0  0  0  0  0  0999 V2000
   47.8737    4.5020   -5.7965 C   0  0  2  0  0  0  0  0  0  0  0  0
   47.4356    5.8526   -5.7184 O   0  0  0  0  0  0  0  0  0  0  0  0
   43.5858    5.5852   -7.8355 C   0  0  2  0  0  0  0  0  0  0  0  0
   42.2513    5.9857   -8.3584 N   0  0  0  0  0  0  0  0  0  0  0  0
   47.2143    8.1139   -8.7683 C   0  0  1  0  0  0  0  0  0  0  0  0
   44.5951   11.3355  -11.1563 C   0  0  1  0  0  0  0  0  0  0  0  0
   48.4226   13.7025   -8.8138 C   0  0  0  0  0  0  0  0  0  0  0  0
   49.1768    4.2976   -4.9311 C   0  0  2  0  0  0  0  0  0  0  0  0
   48.9420    4.7413   -3.5612 N   0  0  0  0  0  0  0  0  0  0  0  0
   43.6034    5.7518   -6.2481 C   0  0  0  0  0  0  0  0  0  0  0  0
   47.2221    9.0940   -9.8961 C   0  0  2  0  0  0  0  0  0  0  0  0
   48.3901    9.9914   -9.8690 O   0  0  0  0  0  0  0  0  0  0  0  0
   43.1261   11.2205  -11.8345 C   0  0  2  0  0  0  0  0  0  0  0  0
   43.0792    9.9503  -12.6328 N   0  0  0  0  0  0  0  0  0  0  0  0
   47.0182   13.5400   -8.8598 C   0  0  0  0  0  0  0  0  0  0  0  0
   46.4438   12.3420   -8.4409 N   0  0  0  0  0  0  0  0  0  0  0  0
   50.3836    5.0870   -5.6038 C   0  0  1  0  0  0  0  0  0  0  0  0
   51.5526    4.8935   -4.8209 O   0  0  0  0  0  0  0  0  0  0  0  0
   45.0600    5.3336   -5.6356 C   0  0  2  0  0  0  0  0  0  0  0  0
   45.0828    5.4702   -4.2188 N   0  0  0  0  0  0  0  0  0  0  0  0
   45.8185    9.6090   -9.6874 C   0  0  2  0  0  0  0  0  0  0  0  0
   44.7402   10.1323  -10.3644 O   0  0  0  0  0  0  0  0  0  0  0  0
   42.9082   12.4690  -12.7618 C   0  0  1  0  0  0  0  0  0  0  0  0
   42.9529   13.6641  -11.9065 O   0  0  0  0  0  0  0  0  0  0  0  0
   50.5841    4.5690   -7.0470 C   0  0  2  0  0  0  0  0  0  0  0  0
   51.6942    5.2920   -7.7185 O   0  0  0  0  0  0  0  0  0  0  0  0
   46.1876    6.2351   -6.2734 C   0  0  2  0  0  0  0  0  0  0  0  0
   45.6689    9.5968   -8.0858 C   0  0  2  0  0  0  0  0  0  0  0  0
   46.3130    8.4528   -7.7534 O   0  0  0  0  0  0  0  0  0  0  0  0
   44.0771   12.5009  -13.9003 C   0  0  2  0  0  0  0  0  0  0  0  0
   44.0237   11.2921  -14.7531 O   0  0  0  0  0  0  0  0  0  0  0  0
   49.2833    4.7717   -7.8934 C   0  0  2  0  0  0  0  0  0  0  0  0
   48.2476    4.0516   -7.1770 O   0  0  0  0  0  0  0  0  0  0  0  0
   46.1250    6.0380   -7.8257 C   0  0  2  0  0  0  0  0  0  0  0  0
   47.1732    6.8573   -8.2838 O   0  0  0  0  0  0  0  0  0  0  0  0
   44.2211    9.4794   -7.4810 C   0  0  0  0  0  0  0  0  0  0  0  0
   44.2821    8.7561   -6.2111 O   0  0  0  0  0  0  0  0  0  0  0  0
   45.5117   12.5684  -13.2100 C   0  0  1  0  0  0  0  0  0  0  0  0
   45.6203   11.3637  -12.2987 O   0  0  0  0  0  0  0  0  0  0  0  0
   49.5572    4.2312   -9.2382 C   0  0  0  0  0  0  0  0  0  0  0  0
   49.3607    2.9060   -9.2595 O   0  0  0  0  0  0  0  0  0  0  0  0
   44.7114    6.4820   -8.3975 C   0  0  1  0  0  0  0  0  0  0  0  0
   44.6648    6.2935   -9.7790 O   0  0  0  0  0  0  0  0  0  0  0  0
   49.5096    9.9549  -10.8241 C   0  0  0  0  0  0  0  0  0  0  0  0
   46.5438   12.5729  -14.3880 C   0  0  0  0  0  0  0  0  0  0  0  0
   47.4850   13.6524  -14.3030 N   0  0  0  0  0  0  0  0  0  0  0  0
   49.4889   11.2260  -11.6744 C   0  0  0  0  0  0  0  0  0  0  0  0
   48.7982   12.2591  -10.8783 N   0  0  0  0  0  0  0  0  0  0  0  0
   49.3405   12.5784   -9.4836 C   0  0  0  0  0  0  0  0  0  0  0  0
  1  2  1  6  0  0  0
  1  8  1  0  0  0  0
  1 33  1  0  0  0  0
  3  4  1  6  0  0  0
  3 10  1  0  0  0  0
  3 42  1  0  0  0  0
  5 11  1  0  0  0  0
  5 29  1  0  0  0  0
  5 35  1  6  0  0  0
  6 13  1  0  0  0  0
  6 39  1  0  0  0  0
  6 22  1  1  0  0  0
  7 15  1  0  0  0  0
  8  9  1  1  0  0  0
  8 17  1  0  0  0  0
 10 19  1  0  0  0  0
 11 12  1  1  0  0  0
 11 21  1  0  0  0  0
 12 44  1  0  0  0  0
 13 14  1  6  0  0  0
 13 23  1  0  0  0  0
 15 16  1  0  0  0  0
 17 18  1  1  0  0  0
 17 25  1  0  0  0  0
 19 20  1  1  0  0  0
 19 27  1  0  0  0  0
 21 22  1  1  0  0  0
 21 28  1  0  0  0  0
 23 24  1  1  0  0  0
 23 30  1  0  0  0  0
 25 26  1  6  0  0  0
 25 32  1  0  0  0  0
 27  2  1  1  0  0  0
 27 34  1  0  0  0  0
 28 29  1  0  0  0  0
 28 36  1  6  0  0  0
 30 31  1  1  0  0  0
 30 38  1  0  0  0  0
 32 33  1  0  0  0  0
 32 40  1  6  0  0  0
 34 35  1  6  0  0  0
 34 42  1  0  0  0  0
 36 37  1  0  0  0  0
 38 39  1  0  0  0  0
 38 45  1  6  0  0  0
 40 41  1  0  0  0  0
 42 43  1  6  0  0  0
 44 47  1  0  0  0  0
 45 46  1  0  0  0  0
 47 48  1  0  0  0  0
 48 49  1  0  0  0  0
 49  7  1  0  0  0  0
M  END
>  <CHROM.1>
-171.79174892,-94.74825808,171.94078190,51.07091014,109.62682911,112.49974749
-60.90541635,55.77902434,148.26178061,83.63256195,-97.08416049,127.80259854
25.14414986,55.82969452,-179.16323600,47.66621567,46.66007117,8.49422836
-9.02352542,1.26734971,0.02756700,2.46751416

>  <Name>
2bee_lig

>  <RI>
0

>  <Rbt.Current_Directory>
/home/itssahil/PROJECTS/Mol_Feturizer/New_Systems/rnas/2bee

>  <Rbt.Executable>
rbdock ($Id: //depot/dev/client3/rdock/2013.1/src/exe/rbdock.cxx#4 $)

>  <Rbt.Library>
libRbt.so (2013.1, Build901 2013/11/27)

>  <Rbt.Parameter_File>
/export/apps/rDock/src/rDock_2013.1_src/data/scripts/dock_solv.prm

>  <Rbt.Receptor>
prm/blind_docking_60.prm

>  <SCORE>
63.1668

>  <SCORE.INTER>
30.6478

>  <SCORE.INTER.CONST>
1

>  <SCORE.INTER.POLAR>
-1.27196

>  <SCORE.INTER.ROT>
16

>  <SCORE.INTER.SOLV>
36.4504

>  <SCORE.INTER.VDW>
-1.74507

>  <SCORE.INTER.norm>
0.625465

>  <SCORE.INTRA>
12.8901

>  <SCORE.INTRA.DIHEDRAL>
6.10167

>  <SCORE.INTRA.DIHEDRAL.0>
36.0842

>  <SCORE.INTRA.POLAR>
0

>  <SCORE.INTRA.POLAR.0>
0

>  <SCORE.INTRA.REPUL>
0

>  <SCORE.INTRA.REPUL.0>
0

>  <SCORE.INTRA.SOLV>
8.47571

>  <SCORE.INTRA.SOLV.lig_0>
-126.444

>  <SCORE.INTRA.VDW>
5.60143

>  <SCORE.INTRA.VDW.0>
-7.40469

>  <SCORE.INTRA.norm>
0.263064

>  <SCORE.RESTR>
19.6288

>  <SCORE.RESTR.CAVITY>
19.6288

>  <SCORE.RESTR.norm>
0.400588

>  <SCORE.SYSTEM>
0

>  <SCORE.SYSTEM.CONST>
0

>  <SCORE.SYSTEM.DIHEDRAL>
0

>  <SCORE.SYSTEM.SOLV>
0

>  <SCORE.SYSTEM.norm>
0

>  <SCORE.heavy>
49

>  <SCORE.norm>
1.28912

>  <RMSD>
10.669

$$$$
2bee_lig
 OpenBabel11021811423D
libRbt.so/2013.1/901 2013/11/27
 49 52  0  0  0  0  0  0  0  0999 V2000
   36.3043    0.3718   -1.5795 C   0  0  2  0  0  0  0  0  0  0  0  0
   37.2135   -0.7197   -1.5140 O   0  0  0  0  0  0  0  0  0  0  0  0
   41.1007   -1.3383   -3.4841 C   0  0  2  0  0  0  0  0  0  0  0  0
   42.0904   -1.6038   -4.5634 N   0  0  0  0  0  0  0  0  0  0  0  0
   38.7905    2.6725   -2.9859 C   0  0  1  0  0  0  0  0  0  0  0  0
   42.7136    5.0636   -3.8375 C   0  0  1  0  0  0  0  0  0  0  0  0
   40.3891    9.5810   -1.7067 C   0  0  0  0  0  0  0  0  0  0  0  0
   35.2795    0.3039   -0.3820 C   0  0  2  0  0  0  0  0  0  0  0  0
   35.9968    0.2362    0.8867 N   0  0  0  0  0  0  0  0  0  0  0  0
   40.0447   -2.5341   -3.4293 C   0  0  0  0  0  0  0  0  0  0  0  0
   39.5871    3.8943   -2.6617 C   0  0  2  0  0  0  0  0  0  0  0  0
   38.7472    5.0432   -2.2811 O   0  0  0  0  0  0  0  0  0  0  0  0
   42.1247    6.5744   -3.7975 C   0  0  2  0  0  0  0  0  0  0  0  0
   41.7448    6.9641   -5.1964 N   0  0  0  0  0  0  0  0  0  0  0  0
   41.4489    9.4268   -0.7827 C   0  0  0  0  0  0  0  0  0  0  0  0
   41.6848   10.4116    0.1740 N   0  0  0  0  0  0  0  0  0  0  0  0
   34.3211   -0.9506   -0.5809 C   0  0  1  0  0  0  0  0  0  0  0  0
   33.3997   -1.0007    0.4987 O   0  0  0  0  0  0  0  0  0  0  0  0
   38.9303   -2.2728   -2.2625 C   0  0  2  0  0  0  0  0  0  0  0  0
   37.9889   -3.3387   -2.1998 N   0  0  0  0  0  0  0  0  0  0  0  0
   40.4174    3.8992   -3.9224 C   0  0  2  0  0  0  0  0  0  0  0  0
   41.6533    4.2605   -4.4092 O   0  0  0  0  0  0  0  0  0  0  0  0
   43.2401    7.5275   -3.2376 C   0  0  1  0  0  0  0  0  0  0  0  0
   43.5430    7.0909   -1.8668 O   0  0  0  0  0  0  0  0  0  0  0  0
   33.5888   -0.8172   -1.9363 C   0  0  2  0  0  0  0  0  0  0  0  0
   32.6929   -1.9786   -2.1696 O   0  0  0  0  0  0  0  0  0  0  0  0
   38.1756   -0.9143   -2.5380 C   0  0  2  0  0  0  0  0  0  0  0  0
   39.3774    3.3838   -5.0360 C   0  0  2  0  0  0  0  0  0  0  0  0
   38.6940    2.4296   -4.3604 O   0  0  0  0  0  0  0  0  0  0  0  0
   44.5543    7.4375   -4.2010 C   0  0  2  0  0  0  0  0  0  0  0  0
   44.2366    7.8769   -5.5785 O   0  0  0  0  0  0  0  0  0  0  0  0
   34.6157   -0.7448   -3.1153 C   0  0  2  0  0  0  0  0  0  0  0  0
   35.4574    0.3983   -2.8166 O   0  0  0  0  0  0  0  0  0  0  0  0
   39.2533    0.2210   -2.5853 C   0  0  2  0  0  0  0  0  0  0  0  0
   38.4781    1.3738   -2.8094 O   0  0  0  0  0  0  0  0  0  0  0  0
   39.9581    2.6845   -6.3203 C   0  0  0  0  0  0  0  0  0  0  0  0
   40.6979    3.6646   -7.1149 O   0  0  0  0  0  0  0  0  0  0  0  0
   45.0876    5.9370   -4.2605 C   0  0  1  0  0  0  0  0  0  0  0  0
   43.9419    5.0807   -4.7582 O   0  0  0  0  0  0  0  0  0  0  0  0
   33.8341   -0.5954   -4.3573 C   0  0  0  0  0  0  0  0  0  0  0  0
   33.2356   -1.7510   -4.6759 O   0  0  0  0  0  0  0  0  0  0  0  0
   40.3033   -0.0416   -3.7475 C   0  0  1  0  0  0  0  0  0  0  0  0
   41.2626    0.9711   -3.7739 O   0  0  0  0  0  0  0  0  0  0  0  0
   39.2423    6.2950   -1.6854 C   0  0  0  0  0  0  0  0  0  0  0  0
   46.3244    5.9697   -5.2208 C   0  0  0  0  0  0  0  0  0  0  0  0
   47.0034    4.7083   -5.3014 N   0  0  0  0  0  0  0  0  0  0  0  0
   38.0528    7.1782   -1.3060 C   0  0  0  0  0  0  0  0  0  0  0  0
   38.5851    8.2735   -0.4724 N   0  0  0  0  0  0  0  0  0  0  0  0
   38.8917    9.6117   -1.1481 C   0  0  0  0  0  0  0  0  0  0  0  0
  1  2  1  6  0  0  0
  1  8  1  0  0  0  0
  1 33  1  0  0  0  0
  3  4  1  6  0  0  0
  3 10  1  0  0  0  0
  3 42  1  0  0  0  0
  5 11  1  0  0  0  0
  5 29  1  0  0  0  0
  5 35  1  1  0  0  0
  6 13  1  0  0  0  0
  6 39  1  0  0  0  0
  6 22  1  6  0  0  0
  7 15  1  0  0  0  0
  8  9  1  1  0  0  0
  8 17  1  0  0  0  0
 10 19  1  0  0  0  0
 11 12  1  6  0  0  0
 11 21  1  0  0  0  0
 12 44  1  0  0  0  0
 13 14  1  6  0  0  0
 13 23  1  0  0  0  0
 15 16  1  0  0  0  0
 17 18  1  1  0  0  0
 17 25  1  0  0  0  0
 19 20  1  6  0  0  0
 19 27  1  0  0  0  0
 21 22  1  6  0  0  0
 21 28  1  0  0  0  0
 23 24  1  1  0  0  0
 23 30  1  0  0  0  0
 25 26  1  6  0  0  0
 25 32  1  0  0  0  0
 27  2  1  1  0  0  0
 27 34  1  0  0  0  0
 28 29  1  0  0  0  0
 28 36  1  6  0  0  0
 30 31  1  6  0  0  0
 30 38  1  0  0  0  0
 32 33  1  0  0  0  0
 32 40  1  6  0  0  0
 34 35  1  6  0  0  0
 34 42  1  0  0  0  0
 36 37  1  0  0  0  0
 38 39  1  0  0  0  0
 38 45  1  6  0  0  0
 40 41  1  0  0  0  0
 42 43  1  1  0  0  0
 44 47  1  0  0  0  0
 45 46  1  0  0  0  0
 47 48  1  0  0  0  0
 48 49  1  0  0  0  0
 49  7  1  0  0  0  0
M  END
>  <CHROM.1>
175.98430710,-40.21578532,-68.64087335,-64.18685298,168.60449875,-174.30779268
-11.62804280,-174.34808089,-67.30758446,-73.42677400,-177.94096538,175.02572678
168.54468552,97.05106430,-88.12734850,-62.16776888,39.45187573,2.98211435
-3.00542835,2.40102349,-0.46357070,-2.83485318

>  <Name>
2bee_lig

>  <RI>
0

>  <Rbt.Current_Directory>
/home/itssahil/PROJECTS/Mol_Feturizer/New_Systems/rnas/2bee

>  <Rbt.Executable>
rbdock ($Id: //depot/dev/client3/rdock/2013.1/src/exe/rbdock.cxx#4 $)

>  <Rbt.Library>
libRbt.so (2013.1, Build901 2013/11/27)

>  <Rbt.Parameter_File>
/export/apps/rDock/src/rDock_2013.1_src/data/scripts/dock_solv.prm

>  <Rbt.Receptor>
prm/pocket_docking_7.prm

>  <SCORE>
-10.1425

>  <SCORE.INTER>
3.48023

>  <SCORE.INTER.CONST>
1

>  <SCORE.INTER.POLAR>
0

>  <SCORE.INTER.ROT>
16

>  <SCORE.INTER.SOLV>
8.45785

>  <SCORE.INTER.VDW>
-14.7658

>  <SCORE.INTER.norm>
0.0710251

>  <SCORE.INTRA>
-13.6228

>  <SCORE.INTRA.DIHEDRAL>
-26.552

>  <SCORE.INTRA.DIHEDRAL.0>
36.0842

>  <SCORE.INTRA.POLAR>
0

>  <SCORE.INTRA.POLAR.0>
0

>  <SCORE.INTRA.REPUL>
0.0183323

>  <SCORE.INTRA.REPUL.0>
0

>  <SCORE.INTRA.SOLV>
-2.00194

>  <SCORE.INTRA.SOLV.lig_0>
-126.444

>  <SCORE.INTRA.VDW>
0.562541

>  <SCORE.INTRA.VDW.0>
-7.40469

>  <SCORE.INTRA.norm>
-0.278016

>  <SCORE.RESTR>
6.01927e-05

>  <SCORE.RESTR.CAVITY>
6.01927e-05

>  <SCORE.RESTR.norm>
1.22842e-06

>  <SCORE.SYSTEM>
0

>  <SCORE.SYSTEM.CONST>
0

>  <SCORE.SYSTEM.DIHEDRAL>
0

>  <SCORE.SYSTEM.SOLV>
0

>  <SCORE.SYSTEM.norm>
0

>  <SCORE.heavy>
49

>  <SCORE.norm>
-0.206989

>  <RMSD>
10.778

$$$$
2bee_lig
 OpenBabel11021811423D
libRbt.so/2013.1/901 2013/11/27
 49 52  0  0  0  0  0  0  0  0999 V2000
   47.9070    4.9145   -5.9669 C   0  0  2  0  0  0  0  0  0  0  0  0
   47.6238    6.3060   -6.0420 O   0  0  0  0  0  0  0  0  0  0  0  0
   43.2266    6.2832   -5.8461 C   0  0  2  0  0  0  0  0  0  0  0  0
   41.8366    6.7805   -5.6580 N   0  0  0  0  0  0  0  0  0  0  0  0
   46.2486    8.4316   -8.5429 C   0  0  1  0  0  0  0  0  0  0  0  0
   44.8520   11.3865  -12.0602 C   0  0  1  0  0  0  0  0  0  0  0  0
   46.4272   13.9233  -11.8731 C   0  0  0  0  0  0  0  0  0  0  0  0
   49.4594    4.6636   -6.0941 C   0  0  2  0  0  0  0  0  0  0  0  0
   50.1760    5.4451   -5.0919 N   0  0  0  0  0  0  0  0  0  0  0  0
   44.0738    6.5691   -4.5238 C   0  0  0  0  0  0  0  0  0  0  0  0
   46.9058    9.5435   -9.2941 C   0  0  2  0  0  0  0  0  0  0  0  0
   47.4121   10.6107   -8.4138 O   0  0  0  0  0  0  0  0  0  0  0  0
   43.2698   11.0939  -11.8549 C   0  0  2  0  0  0  0  0  0  0  0  0
   42.9302    9.8298  -12.5896 N   0  0  0  0  0  0  0  0  0  0  0  0
   46.7451   14.0985  -13.2402 C   0  0  0  0  0  0  0  0  0  0  0  0
   47.6900   13.2724  -13.8447 N   0  0  0  0  0  0  0  0  0  0  0  0
   49.9316    5.0285   -7.5692 C   0  0  1  0  0  0  0  0  0  0  0  0
   51.3285    4.7952   -7.6756 O   0  0  0  0  0  0  0  0  0  0  0  0
   45.6135    6.0482   -4.6958 C   0  0  2  0  0  0  0  0  0  0  0  0
   46.3751    6.2907   -3.5179 N   0  0  0  0  0  0  0  0  0  0  0  0
   45.7780    9.7844  -10.2683 C   0  0  2  0  0  0  0  0  0  0  0  0
   45.5225   10.2080  -11.5530 O   0  0  0  0  0  0  0  0  0  0  0  0
   42.4608   12.3088  -12.4342 C   0  0  1  0  0  0  0  0  0  0  0  0
   42.8370   13.4979  -11.6555 O   0  0  0  0  0  0  0  0  0  0  0  0
   49.1412    4.1661   -8.5806 C   0  0  2  0  0  0  0  0  0  0  0  0
   49.5410    4.4868   -9.9746 O   0  0  0  0  0  0  0  0  0  0  0  0
   46.2900    6.7739   -5.9233 C   0  0  2  0  0  0  0  0  0  0  0  0
   44.4693    9.5297   -9.3685 C   0  0  2  0  0  0  0  0  0  0  0  0
   44.8518    8.4745   -8.6106 O   0  0  0  0  0  0  0  0  0  0  0  0
   42.8222   12.4874  -14.0157 C   0  0  2  0  0  0  0  0  0  0  0  0
   42.4415   11.2836  -14.7887 O   0  0  0  0  0  0  0  0  0  0  0  0
   47.6030    4.4193   -8.4405 C   0  0  2  0  0  0  0  0  0  0  0  0
   47.2888    4.0972   -7.0615 O   0  0  0  0  0  0  0  0  0  0  0  0
   45.4210    6.4652   -7.1891 C   0  0  2  0  0  0  0  0  0  0  0  0
   46.1190    7.1316   -8.2131 O   0  0  0  0  0  0  0  0  0  0  0  0
   43.1459    9.0917  -10.0983 C   0  0  0  0  0  0  0  0  0  0  0  0
   43.3025    7.7319  -10.6139 O   0  0  0  0  0  0  0  0  0  0  0  0
   44.3870   12.7286  -14.1957 C   0  0  1  0  0  0  0  0  0  0  0  0
   45.0914   11.5438  -13.5684 O   0  0  0  0  0  0  0  0  0  0  0  0
   46.9326    3.5435   -9.4200 C   0  0  0  0  0  0  0  0  0  0  0  0
   47.3518    3.8223  -10.6617 O   0  0  0  0  0  0  0  0  0  0  0  0
   43.9404    7.0102   -7.0074 C   0  0  1  0  0  0  0  0  0  0  0  0
   43.1742    6.7216   -8.1370 O   0  0  0  0  0  0  0  0  0  0  0  0
   47.7722   11.9698   -8.8498 C   0  0  0  0  0  0  0  0  0  0  0  0
   44.6153   12.8632  -15.7393 C   0  0  0  0  0  0  0  0  0  0  0  0
   45.6561   13.7932  -16.0718 N   0  0  0  0  0  0  0  0  0  0  0  0
   46.4958   12.7643   -9.1304 C   0  0  0  0  0  0  0  0  0  0  0  0
   46.9094   14.1582   -9.3833 N   0  0  0  0  0  0  0  0  0  0  0  0
   47.4289   14.5157  -10.7774 C   0  0  0  0  0  0  0  0  0  0  0  0
  1  2  1  6  0  0  0
  1  8  1  0  0  0  0
  1 33  1  0  0  0  0
  3  4  1  1  0  0  0
  3 10  1  0  0  0  0
  3 42  1  0  0  0  0
  5 11  1  0  0  0  0
  5 29  1  0  0  0  0
  5 35  1  6  0  0  0
  6 13  1  0  0  0  0
  6 39  1  0  0  0  0
  6 22  1  6  0  0  0
  7 15  1  0  0  0  0
  8  9  1  1  0  0  0
  8 17  1  0  0  0  0
 10 19  1  0  0  0  0
 11 12  1  1  0  0  0
 11 21  1  0  0  0  0
 12 44  1  0  0  0  0
 13 14  1  6  0  0  0
 13 23  1  0  0  0  0
 15 16  1  0  0  0  0
 17 18  1  1  0  0  0
 17 25  1  0  0  0  0
 19 20  1  1  0  0  0
 19 27  1  0  0  0  0
 21 22  1  1  0  0  0
 21 28  1  0  0  0  0
 23 24  1  1  0  0  0
 23 30  1  0  0  0  0
 25 26  1  6  0  0  0
 25 32  1  0  0  0  0
 27  2  1  6  0  0  0
 27 34  1  0  0  0  0
 28 29  1  0  0  0  0
 28 36  1  6  0  0  0
 30 31  1  6  0  0  0
 30 38  1  0  0  0  0
 32 33  1  0  0  0  0
 32 40  1  6  0  0  0
 34 35  1  6  0  0  0
 34 42  1  0  0  0  0
 36 37  1  0  0  0  0
 38 39  1  0  0  0  0
 38 45  1  6  0  0  0
 40 41  1  0  0  0  0
 42 43  1  6  0  0  0
 44 47  1  0  0  0  0
 45 46  1  0  0  0  0
 47 48  1  0  0  0  0
 48 49  1  0  0  0  0
 49  7  1  0  0  0  0
M  END
>  <CHROM.1>
-178.70597893,166.76411432,-76.76252708,79.04288986,-162.77142525,74.19695200
-112.81232966,46.27401633,69.41818055,-59.22550314,-74.06769258,145.62517649
172.52081407,81.08721510,47.64412029,-177.77922076,45.90149620,8.81481991
-9.54006098,-1.30852967,0.17061686,-0.75503925

>  <Name>
2bee_lig

>  <RI>
0

>  <Rbt.Current_Directory>
/home/itssahil/PROJECTS/Mol_Feturizer/New_Systems/rnas/2bee

>  <Rbt.Executable>
rbdock ($Id: //depot/dev/client3/rdock/2013.1/src/exe/rbdock.cxx#4 $)

>  <Rbt.Library>
libRbt.so (2013.1, Build901 2013/11/27)

>  <Rbt.Parameter_File>
/export/apps/rDock/src/rDock_2013.1_src/data/scripts/dock_solv.prm

>  <Rbt.Receptor>
prm/blind_docking_60.prm

>  <SCORE>
41.8851

>  <SCORE.INTER>
9.99974

>  <SCORE.INTER.CONST>
1

>  <SCORE.INTER.POLAR>
-1.04723

>  <SCORE.INTER.ROT>
16

>  <SCORE.INTER.SOLV>
38.4773

>  <SCORE.INTER.VDW>
-16.9352

>  <SCORE.INTER.norm>
0.204076

>  <SCORE.INTRA>
10.0193

>  <SCORE.INTRA.DIHEDRAL>
-20.7752

>  <SCORE.INTRA.DIHEDRAL.0>
36.0842

>  <SCORE.INTRA.POLAR>
0

>  <SCORE.INTRA.POLAR.0>
0

>  <SCORE.INTRA.REPUL>
0

>  <SCORE.INTRA.REPUL.0>
0

>  <SCORE.INTRA.SOLV>
7.0796

>  <SCORE.INTRA.SOLV.lig_0>
-126.444

>  <SCORE.INTRA.VDW>
16.8671

>  <SCORE.INTRA.VDW.0>
-7.40469

>  <SCORE.INTRA.norm>
0.204475

>  <SCORE.RESTR>
21.8661

>  <SCORE.RESTR.CAVITY>
21.8661

>  <SCORE.RESTR.norm>
0.446247

>  <SCORE.SYSTEM>
0

>  <SCORE.SYSTEM.CONST>
0

>  <SCORE.SYSTEM.DIHEDRAL>
0

>  <SCORE.SYSTEM.SOLV>
0

>  <SCORE.SYSTEM.norm>
0

>  <SCORE.heavy>
49

>  <SCORE.norm>
0.854799

>  <RMSD>
10.892

$$$$
2bee_lig
 OpenBabel11021811423D
libRbt.so/2013.1/901 2013/11/27
 49 52  0  0  0  0  0  0  0  0999 V2000
   40.7329    4.5384    0.3430 C   0  0  2  0  0  0  0  0  0  0  0  0
   41.0374    3.2550    0.8743 O   0  0  0  0  0  0  0  0  0  0  0  0
   39.3927   -0.7946    0.3547 C   0  0  2  0  0  0  0  0  0  0  0  0
   38.3996   -1.9025    0.3202 N   0  0  0  0  0  0  0  0  0  0  0  0
   39.9011    2.6509   -2.8427 C   0  0  1  0  0  0  0  0  0  0  0  0
   39.7996   -1.1890   -5.1424 C   0  0  1  0  0  0  0  0  0  0  0  0
   42.7639    6.9847   -9.8235 C   0  0  0  0  0  0  0  0  0  0  0  0
   42.0376    5.4216    0.2622 C   0  0  2  0  0  0  0  0  0  0  0  0
   43.0689    4.7219   -0.4964 N   0  0  0  0  0  0  0  0  0  0  0  0
   39.3785   -0.1167    1.7997 C   0  0  0  0  0  0  0  0  0  0  0  0
   40.6221    2.4889   -4.1413 C   0  0  2  0  0  0  0  0  0  0  0  0
   40.7522    3.7524   -4.8875 O   0  0  0  0  0  0  0  0  0  0  0  0
   41.0973   -1.4663   -4.2096 C   0  0  2  0  0  0  0  0  0  0  0  0
   42.3202   -1.0586   -4.9786 N   0  0  0  0  0  0  0  0  0  0  0  0
   43.3016    8.1614  -10.3953 C   0  0  0  0  0  0  0  0  0  0  0  0
   44.6504    8.4639  -10.2221 N   0  0  0  0  0  0  0  0  0  0  0  0
   42.5286    5.7700    1.7351 C   0  0  1  0  0  0  0  0  0  0  0  0
   43.7001    6.5687    1.6523 O   0  0  0  0  0  0  0  0  0  0  0  0
   40.4490    1.1163    1.8741 C   0  0  2  0  0  0  0  0  0  0  0  0
   40.4503    1.7218    3.1624 N   0  0  0  0  0  0  0  0  0  0  0  0
   39.7896    1.3412   -4.6595 C   0  0  2  0  0  0  0  0  0  0  0  0
   39.8573    0.2225   -5.4589 O   0  0  0  0  0  0  0  0  0  0  0  0
   41.1422   -2.9975   -3.8637 C   0  0  1  0  0  0  0  0  0  0  0  0
   39.9242   -3.3113   -3.1023 O   0  0  0  0  0  0  0  0  0  0  0  0
   41.3966    6.5123    2.4828 C   0  0  2  0  0  0  0  0  0  0  0  0
   41.8084    6.8434    3.8708 O   0  0  0  0  0  0  0  0  0  0  0  0
   40.0962    2.1979    0.7802 C   0  0  2  0  0  0  0  0  0  0  0  0
   38.3164    1.6982   -4.1211 C   0  0  2  0  0  0  0  0  0  0  0  0
   38.5809    2.1897   -2.8872 O   0  0  0  0  0  0  0  0  0  0  0  0
   41.2230   -3.8570   -5.2487 C   0  0  2  0  0  0  0  0  0  0  0  0
   42.4515   -3.5309   -6.0076 O   0  0  0  0  0  0  0  0  0  0  0  0
   40.1064    5.6287    2.5511 C   0  0  2  0  0  0  0  0  0  0  0  0
   39.7712    5.3381    1.1700 O   0  0  0  0  0  0  0  0  0  0  0  0
   40.1204    1.4828   -0.6129 C   0  0  2  0  0  0  0  0  0  0  0  0
   39.8200    2.5302   -1.5031 O   0  0  0  0  0  0  0  0  0  0  0  0
   37.2993    0.5153   -3.9158 C   0  0  0  0  0  0  0  0  0  0  0  0
   36.9326   -0.0418   -5.2176 O   0  0  0  0  0  0  0  0  0  0  0  0
   39.9617   -3.5343   -6.1676 C   0  0  1  0  0  0  0  0  0  0  0  0
   39.9631   -2.0394   -6.4100 O   0  0  0  0  0  0  0  0  0  0  0  0
   39.0802    6.4206    3.2549 C   0  0  0  0  0  0  0  0  0  0  0  0
   38.7323    7.4898    2.5262 O   0  0  0  0  0  0  0  0  0  0  0  0
   39.0494    0.3114   -0.6679 C   0  0  1  0  0  0  0  0  0  0  0  0
   39.0865   -0.3232   -1.9098 O   0  0  0  0  0  0  0  0  0  0  0  0
   41.4552    3.9104   -6.1712 C   0  0  0  0  0  0  0  0  0  0  0  0
   40.1573   -4.3915   -7.4637 C   0  0  0  0  0  0  0  0  0  0  0  0
   40.0524   -5.8020   -7.2226 N   0  0  0  0  0  0  0  0  0  0  0  0
   41.4787    5.3908   -6.5545 C   0  0  0  0  0  0  0  0  0  0  0  0
   42.1753    5.4830   -7.8523 N   0  0  0  0  0  0  0  0  0  0  0  0
   42.8161    6.8189   -8.2346 C   0  0  0  0  0  0  0  0  0  0  0  0
  1  2  1  1  0  0  0
  1  8  1  0  0  0  0
  1 33  1  0  0  0  0
  3  4  1  1  0  0  0
  3 10  1  0  0  0  0
  3 42  1  0  0  0  0
  5 11  1  0  0  0  0
  5 29  1  0  0  0  0
  5 35  1  1  0  0  0
  6 13  1  0  0  0  0
  6 39  1  0  0  0  0
  6 22  1  6  0  0  0
  7 15  1  0  0  0  0
  8  9  1  1  0  0  0
  8 17  1  0  0  0  0
 10 19  1  0  0  0  0
 11 12  1  6  0  0  0
 11 21  1  0  0  0  0
 12 44  1  0  0  0  0
 13 14  1  6  0  0  0
 13 23  1  0  0  0  0
 15 16  1  0  0  0  0
 17 18  1  6  0  0  0
 17 25  1  0  0  0  0
 19 20  1  1  0  0  0
 19 27  1  0  0  0  0
 21 22  1  6  0  0  0
 21 28  1  0  0  0  0
 23 24  1  6  0  0  0
 23 30  1  0  0  0  0
 25 26  1  1  0  0  0
 25 32  1  0  0  0  0
 27  2  1  6  0  0  0
 27 34  1  0  0  0  0
 28 29  1  0  0  0  0
 28 36  1  1  0  0  0
 30 31  1  6  0  0  0
 30 38  1  0  0  0  0
 32 33  1  0  0  0  0
 32 40  1  6  0  0  0
 34 35  1  6  0  0  0
 34 42  1  0  0  0  0
 36 37  1  0  0  0  0
 38 39  1  0  0  0  0
 38 45  1  6  0  0  0
 40 41  1  0  0  0  0
 42 43  1  6  0  0  0
 44 47  1  0  0  0  0
 45 46  1  0  0  0  0
 47 48  1  0  0  0  0
 48 49  1  0  0  0  0
 49  7  1  0  0  0  0
M  END
>  <CHROM.1>
-166.57521788,-46.19885775,-62.95383849,60.98906894,177.64584690,-174.79666063
110.95095410,-159.25207470,-68.25792860,66.17335749,166.98039309,67.29699585
-179.19680126,-157.17246438,-148.61712709,179.72790767,40.58060444,2.09049428
-2.72067704,1.46524043,1.27388908,0.97069314

>  <Name>
2bee_lig

>  <RI>
0

>  <Rbt.Current_Directory>
/home/itssahil/PROJECTS/Mol_Feturizer/New_Systems/rnas/2bee

>  <Rbt.Executable>
rbdock ($Id: //depot/dev/client3/rdock/2013.1/src/exe/rbdock.cxx#4 $)

>  <Rbt.Library>
libRbt.so (2013.1, Build901 2013/11/27)

>  <Rbt.Parameter_File>
/export/apps/rDock/src/rDock_2013.1_src/data/scripts/dock_solv.prm

>  <Rbt.Receptor>
prm/pocket_docking_8.prm

>  <SCORE>
-17.524

>  <SCORE.INTER>
-5.05038

>  <SCORE.INTER.CONST>
1

>  <SCORE.INTER.POLAR>
0

>  <SCORE.INTER.ROT>
16

>  <SCORE.INTER.SOLV>
14.6787

>  <SCORE.INTER.VDW>
-22.5265

>  <SCORE.INTER.norm>
-0.103069

>  <SCORE.INTRA>
-12.4736

>  <SCORE.INTRA.DIHEDRAL>
-26.1031

>  <SCORE.INTRA.DIHEDRAL.0>
36.0842

>  <SCORE.INTRA.POLAR>
0

>  <SCORE.INTRA.POLAR.0>
0

>  <SCORE.INTRA.REPUL>
0

>  <SCORE.INTRA.REPUL.0>
0

>  <SCORE.INTRA.SOLV>
-1.19384

>  <SCORE.INTRA.SOLV.lig_0>
-126.444

>  <SCORE.INTRA.VDW>
1.17485

>  <SCORE.INTRA.VDW.0>
-7.40469

>  <SCORE.INTRA.norm>
-0.254564

>  <SCORE.RESTR>
0

>  <SCORE.RESTR.CAVITY>
0

>  <SCORE.RESTR.norm>
0

>  <SCORE.SYSTEM>
0

>  <SCORE.SYSTEM.CONST>
0

>  <SCORE.SYSTEM.DIHEDRAL>
0

>  <SCORE.SYSTEM.SOLV>
0

>  <SCORE.SYSTEM.norm>
0

>  <SCORE.heavy>
49

>  <SCORE.norm>
-0.357633

>  <RMSD>
10.932

$$$$
2bee_lig
 OpenBabel11021811423D
libRbt.so/2013.1/901 2013/11/27
 49 52  0  0  0  0  0  0  0  0999 V2000
   39.1329   -3.2662   -0.8342 C   0  0  2  0  0  0  0  0  0  0  0  0
   39.8084   -3.8819   -1.9236 O   0  0  0  0  0  0  0  0  0  0  0  0
   42.7694   -2.4587   -4.8530 C   0  0  2  0  0  0  0  0  0  0  0  0
   43.3670   -1.6545   -5.9535 N   0  0  0  0  0  0  0  0  0  0  0  0
   41.1037   -0.3798   -1.2014 C   0  0  1  0  0  0  0  0  0  0  0  0
   39.7780    3.4325   -3.8174 C   0  0  1  0  0  0  0  0  0  0  0  0
   37.2422    4.3505    4.0246 C   0  0  0  0  0  0  0  0  0  0  0  0
   38.7469   -4.3443    0.2510 C   0  0  2  0  0  0  0  0  0  0  0  0
   39.9338   -5.0859    0.6633 N   0  0  0  0  0  0  0  0  0  0  0  0
   41.4130   -3.1276   -5.3635 C   0  0  0  0  0  0  0  0  0  0  0  0
   41.4607    1.0696   -1.2662 C   0  0  2  0  0  0  0  0  0  0  0  0
   41.2805    1.7636    0.0208 O   0  0  0  0  0  0  0  0  0  0  0  0
   40.3655    4.0361   -5.2036 C   0  0  2  0  0  0  0  0  0  0  0  0
   41.8322    4.2940   -5.0155 N   0  0  0  0  0  0  0  0  0  0  0  0
   36.7191    3.2549    4.7504 C   0  0  0  0  0  0  0  0  0  0  0  0
   35.4198    3.3098    5.2500 N   0  0  0  0  0  0  0  0  0  0  0  0
   37.6294   -5.3097   -0.3415 C   0  0  1  0  0  0  0  0  0  0  0  0
   37.2852   -6.2733    0.6434 O   0  0  0  0  0  0  0  0  0  0  0  0
   40.7176   -4.0106   -4.1768 C   0  0  2  0  0  0  0  0  0  0  0  0
   39.5113   -4.6190   -4.6253 N   0  0  0  0  0  0  0  0  0  0  0  0
   40.6178    1.4017   -2.4737 C   0  0  2  0  0  0  0  0  0  0  0  0
   40.5611    2.2418   -3.5626 O   0  0  0  0  0  0  0  0  0  0  0  0
   39.6028    5.3703   -5.5270 C   0  0  1  0  0  0  0  0  0  0  0  0
   38.1841    5.0312   -5.7109 O   0  0  0  0  0  0  0  0  0  0  0  0
   36.4003   -4.4667   -0.7538 C   0  0  2  0  0  0  0  0  0  0  0  0
   35.3363   -5.3294   -1.3279 O   0  0  0  0  0  0  0  0  0  0  0  0
   40.4156   -3.0894   -2.9313 C   0  0  2  0  0  0  0  0  0  0  0  0
   39.3188    0.4757   -2.2669 C   0  0  2  0  0  0  0  0  0  0  0  0
   39.8630   -0.6654   -1.7815 O   0  0  0  0  0  0  0  0  0  0  0  0
   39.8149    6.4201   -4.2956 C   0  0  2  0  0  0  0  0  0  0  0  0
   41.2467    6.7519   -4.1185 O   0  0  0  0  0  0  0  0  0  0  0  0
   36.7970   -3.3975   -1.8257 C   0  0  2  0  0  0  0  0  0  0  0  0
   37.8394   -2.6036   -1.2031 O   0  0  0  0  0  0  0  0  0  0  0  0
   41.7735   -2.4575   -2.4738 C   0  0  2  0  0  0  0  0  0  0  0  0
   41.3954   -1.6857   -1.3597 O   0  0  0  0  0  0  0  0  0  0  0  0
   38.4958    0.0637   -3.5431 C   0  0  0  0  0  0  0  0  0  0  0  0
   39.3861   -0.5806   -4.5084 O   0  0  0  0  0  0  0  0  0  0  0  0
   39.2717    5.7878   -2.9376 C   0  0  1  0  0  0  0  0  0  0  0  0
   40.0174    4.4865   -2.7272 O   0  0  0  0  0  0  0  0  0  0  0  0
   35.5769   -2.6302   -2.1393 C   0  0  0  0  0  0  0  0  0  0  0  0
   35.2075   -1.8872   -1.0873 O   0  0  0  0  0  0  0  0  0  0  0  0
   42.4103   -1.5798   -3.6342 C   0  0  1  0  0  0  0  0  0  0  0  0
   43.6230   -1.0298   -3.2180 O   0  0  0  0  0  0  0  0  0  0  0  0
   39.9887    1.9849    0.6910 C   0  0  0  0  0  0  0  0  0  0  0  0
   39.5451    6.8658   -1.8347 C   0  0  0  0  0  0  0  0  0  0  0  0
   38.6890    8.0116   -1.9481 N   0  0  0  0  0  0  0  0  0  0  0  0
   40.2109    2.8236    1.9504 C   0  0  0  0  0  0  0  0  0  0  0  0
   38.8755    3.1277    2.5001 N   0  0  0  0  0  0  0  0  0  0  0  0
   38.7536    4.2701    3.5107 C   0  0  0  0  0  0  0  0  0  0  0  0
  1  2  1  6  0  0  0
  1  8  1  0  0  0  0
  1 33  1  0  0  0  0
  3  4  1  6  0  0  0
  3 10  1  0  0  0  0
  3 42  1  0  0  0  0
  5 11  1  0  0  0  0
  5 29  1  0  0  0  0
  5 35  1  6  0  0  0
  6 13  1  0  0  0  0
  6 39  1  0  0  0  0
  6 22  1  1  0  0  0
  7 15  1  0  0  0  0
  8  9  1  6  0  0  0
  8 17  1  0  0  0  0
 10 19  1  0  0  0  0
 11 12  1  1  0  0  0
 11 21  1  0  0  0  0
 12 44  1  0  0  0  0
 13 14  1  1  0  0  0
 13 23  1  0  0  0  0
 15 16  1  0  0  0  0
 17 18  1  1  0  0  0
 17 25  1  0  0  0  0
 19 20  1  6  0  0  0
 19 27  1  0  0  0  0
 21 22  1  1  0  0  0
 21 28  1  0  0  0  0
 23 24  1  1  0  0  0
 23 30  1  0  0  0  0
 25 26  1  6  0  0  0
 25 32  1  0  0  0  0
 27  2  1  1  0  0  0
 27 34  1  0  0  0  0
 28 29  1  0  0  0  0
 28 36  1  6  0  0  0
 30 31  1  1  0  0  0
 30 38  1  0  0  0  0
 32 33  1  0  0  0  0
 32 40  1  1  0  0  0
 34 35  1  1  0  0  0
 34 42  1  0  0  0  0
 36 37  1  0  0  0  0
 38 39  1  0  0  0  0
 38 45  1  1  0  0  0
 40 41  1  0  0  0  0
 42 43  1  1  0  0  0
 44 47  1  0  0  0  0
 45 46  1  0  0  0  0
 47 48  1  0  0  0  0
 48 49  1  0  0  0  0
 49  7  1  0  0  0  0
M  END
>  <CHROM.1>
-171.21500108,-60.30710108,172.03448403,177.93520039,-65.84102643,-176.10004576
-102.53504163,-164.36789927,54.93724064,68.35576613,-97.07124850,71.25083677
174.34484088,-162.63033072,-176.62176013,63.99863693,39.46790486,0.29784884
-1.82170351,1.75040986,-1.04751427,-3.01512656

>  <Name>
2bee_lig

>  <RI>
0

>  <Rbt.Current_Directory>
/home/itssahil/PROJECTS/Mol_Feturizer/New_Systems/rnas/2bee

>  <Rbt.Executable>
rbdock ($Id: //depot/dev/client3/rdock/2013.1/src/exe/rbdock.cxx#4 $)

>  <Rbt.Library>
libRbt.so (2013.1, Build901 2013/11/27)

>  <Rbt.Parameter_File>
/export/apps/rDock/src/rDock_2013.1_src/data/scripts/dock_solv.prm

>  <Rbt.Receptor>
prm/pocket_docking_8.prm

>  <SCORE>
-12.8139

>  <SCORE.INTER>
-0.224517

>  <SCORE.INTER.CONST>
1

>  <SCORE.INTER.POLAR>
0

>  <SCORE.INTER.ROT>
16

>  <SCORE.INTER.SOLV>
12.6639

>  <SCORE.INTER.VDW>
-18.6376

>  <SCORE.INTER.norm>
-0.00458198

>  <SCORE.INTRA>
-12.5894

>  <SCORE.INTRA.DIHEDRAL>
-23.6809

>  <SCORE.INTRA.DIHEDRAL.0>
36.0842

>  <SCORE.INTRA.POLAR>
0

>  <SCORE.INTRA.POLAR.0>
0

>  <SCORE.INTRA.REPUL>
0.0116183

>  <SCORE.INTRA.REPUL.0>
0

>  <SCORE.INTRA.SOLV>
-2.08333

>  <SCORE.INTRA.SOLV.lig_0>
-126.444

>  <SCORE.INTRA.VDW>
0.234672

>  <SCORE.INTRA.VDW.0>
-7.40469

>  <SCORE.INTRA.norm>
-0.256926

>  <SCORE.RESTR>
0

>  <SCORE.RESTR.CAVITY>
0

>  <SCORE.RESTR.norm>
0

>  <SCORE.SYSTEM>
0

>  <SCORE.SYSTEM.CONST>
0

>  <SCORE.SYSTEM.DIHEDRAL>
0

>  <SCORE.SYSTEM.SOLV>
0

>  <SCORE.SYSTEM.norm>
0

>  <SCORE.heavy>
49

>  <SCORE.norm>
-0.261508

>  <RMSD>
10.981

$$$$
2bee_lig
 OpenBabel11021811423D
libRbt.so/2013.1/901 2013/11/27
 49 52  0  0  0  0  0  0  0  0999 V2000
   38.2492   -0.5049    0.0200 C   0  0  2  0  0  0  0  0  0  0  0  0
   39.4972   -0.1001   -0.5284 O   0  0  0  0  0  0  0  0  0  0  0  0
   39.5443    4.1700    0.5384 C   0  0  2  0  0  0  0  0  0  0  0  0
   40.0732    5.5367    0.7977 N   0  0  0  0  0  0  0  0  0  0  0  0
   39.1690    2.3877   -3.7076 C   0  0  1  0  0  0  0  0  0  0  0  0
   41.9797    1.2885   -6.9960 C   0  0  1  0  0  0  0  0  0  0  0  0
   43.0203    5.9168   -8.0139 C   0  0  0  0  0  0  0  0  0  0  0  0
   37.8787   -1.9568   -0.4738 C   0  0  2  0  0  0  0  0  0  0  0  0
   38.9633   -2.8822   -0.1641 N   0  0  0  0  0  0  0  0  0  0  0  0
   40.3230    3.1194    1.4538 C   0  0  0  0  0  0  0  0  0  0  0  0
   39.5428    3.2645   -4.8582 C   0  0  2  0  0  0  0  0  0  0  0  0
   38.5284    4.2921   -5.1504 O   0  0  0  0  0  0  0  0  0  0  0  0
   42.3150    1.2328   -8.5820 C   0  0  2  0  0  0  0  0  0  0  0  0
   41.2618    0.3993   -9.2523 N   0  0  0  0  0  0  0  0  0  0  0  0
   42.3165    6.1546   -9.2176 C   0  0  0  0  0  0  0  0  0  0  0  0
   41.1678    5.4213   -9.5067 N   0  0  0  0  0  0  0  0  0  0  0  0
   37.5691   -1.9182   -2.0341 C   0  0  1  0  0  0  0  0  0  0  0  0
   37.2323   -3.2277   -2.4684 O   0  0  0  0  0  0  0  0  0  0  0  0
   39.7790    1.6011    1.1880 C   0  0  2  0  0  0  0  0  0  0  0  0
   40.4614    0.6575    2.0067 N   0  0  0  0  0  0  0  0  0  0  0  0
   39.8509    2.1519   -5.8308 C   0  0  2  0  0  0  0  0  0  0  0  0
   40.6443    1.8411   -6.9119 O   0  0  0  0  0  0  0  0  0  0  0  0
   43.7354    0.5892   -8.7671 C   0  0  1  0  0  0  0  0  0  0  0  0
   44.7060    1.4685   -8.0990 O   0  0  0  0  0  0  0  0  0  0  0  0
   36.4115   -0.9266   -2.2952 C   0  0  2  0  0  0  0  0  0  0  0  0
   36.0997   -0.8481   -3.7452 O   0  0  0  0  0  0  0  0  0  0  0  0
   39.9721    1.2219   -0.3319 C   0  0  2  0  0  0  0  0  0  0  0  0
   38.7537    1.0369   -5.4558 C   0  0  2  0  0  0  0  0  0  0  0  0
   38.7155    1.1252   -4.1049 O   0  0  0  0  0  0  0  0  0  0  0  0
   43.7337   -0.9077   -8.1168 C   0  0  2  0  0  0  0  0  0  0  0  0
   42.7513   -1.7827   -8.7955 O   0  0  0  0  0  0  0  0  0  0  0  0
   36.7886    0.5081   -1.7958 C   0  0  2  0  0  0  0  0  0  0  0  0
   37.0880    0.3530   -0.3849 O   0  0  0  0  0  0  0  0  0  0  0  0
   39.1943    2.2816   -1.1831 C   0  0  2  0  0  0  0  0  0  0  0  0
   39.4119    1.8392   -2.5011 O   0  0  0  0  0  0  0  0  0  0  0  0
   39.0838   -0.4647   -5.7903 C   0  0  0  0  0  0  0  0  0  0  0  0
   39.1590   -0.6341   -7.2412 O   0  0  0  0  0  0  0  0  0  0  0  0
   43.3581   -0.8320   -6.5700 C   0  0  1  0  0  0  0  0  0  0  0  0
   42.0061   -0.1559   -6.4766 O   0  0  0  0  0  0  0  0  0  0  0  0
   35.6253    1.3751   -2.0618 C   0  0  0  0  0  0  0  0  0  0  0  0
   35.8768    2.6305   -1.6670 O   0  0  0  0  0  0  0  0  0  0  0  0
   39.7644    3.7421   -0.9297 C   0  0  1  0  0  0  0  0  0  0  0  0
   39.0583    4.6776   -1.6863 O   0  0  0  0  0  0  0  0  0  0  0  0
   38.6255    5.2995   -6.2194 C   0  0  0  0  0  0  0  0  0  0  0  0
   43.3671   -2.3141   -6.0636 C   0  0  0  0  0  0  0  0  0  0  0  0
   42.2714   -3.0865   -6.5749 N   0  0  0  0  0  0  0  0  0  0  0  0
   39.8295    6.2039   -5.9523 C   0  0  0  0  0  0  0  0  0  0  0  0
   41.0116    5.5116   -6.5013 N   0  0  0  0  0  0  0  0  0  0  0  0
   42.3153    6.3020   -6.6320 C   0  0  0  0  0  0  0  0  0  0  0  0
  1  2  1  6  0  0  0
  1  8  1  0  0  0  0
  1 33  1  0  0  0  0
  3  4  1  6  0  0  0
  3 10  1  0  0  0  0
  3 42  1  0  0  0  0
  5 11  1  0  0  0  0
  5 29  1  0  0  0  0
  5 35  1  1  0  0  0
  6 13  1  0  0  0  0
  6 39  1  0  0  0  0
  6 22  1  6  0  0  0
  7 15  1  0  0  0  0
  8  9  1  6  0  0  0
  8 17  1  0  0  0  0
 10 19  1  0  0  0  0
 11 12  1  6  0  0  0
 11 21  1  0  0  0  0
 12 44  1  0  0  0  0
 13 14  1  6  0  0  0
 13 23  1  0  0  0  0
 15 16  1  0  0  0  0
 17 18  1  1  0  0  0
 17 25  1  0  0  0  0
 19 20  1  1  0  0  0
 19 27  1  0  0  0  0
 21 22  1  6  0  0  0
 21 28  1  0  0  0  0
 23 24  1  1  0  0  0
 23 30  1  0  0  0  0
 25 26  1  6  0  0  0
 25 32  1  0  0  0  0
 27  2  1  1  0  0  0
 27 34  1  0  0  0  0
 28 29  1  0  0  0  0
 28 36  1  1  0  0  0
 30 31  1  6  0  0  0
 30 38  1  0  0  0  0
 32 33  1  0  0  0  0
 32 40  1  1  0  0  0
 34 35  1  6  0  0  0
 34 42  1  0  0  0  0
 36 37  1  0  0  0  0
 38 39  1  0  0  0  0
 38 45  1  6  0  0  0
 40 41  1  0  0  0  0
 42 43  1  6  0  0  0
 44 47  1  0  0  0  0
 45 46  1  0  0  0  0
 47 48  1  0  0  0  0
 48 49  1  0  0  0  0
 49  7  1  0  0  0  0
M  END
>  <CHROM.1>
173.67339274,85.35117482,-178.09580310,-67.28231477,179.66186254,-62.67965455
87.86216237,45.81907532,-65.77485135,-179.58085557,-169.92615755,-70.53354000
84.08692599,167.83217778,-139.54854346,59.74843776,39.93847986,1.47865725
-4.17879526,-3.04288181,1.08632471,0.07112629

>  <Name>
2bee_lig

>  <RI>
0

>  <Rbt.Current_Directory>
/home/itssahil/PROJECTS/Mol_Feturizer/New_Systems/rnas/2bee

>  <Rbt.Executable>
rbdock ($Id: //depot/dev/client3/rdock/2013.1/src/exe/rbdock.cxx#4 $)

>  <Rbt.Library>
libRbt.so (2013.1, Build901 2013/11/27)

>  <Rbt.Parameter_File>
/export/apps/rDock/src/rDock_2013.1_src/data/scripts/dock_solv.prm

>  <Rbt.Receptor>
prm/pocket_docking_8.prm

>  <SCORE>
-9.27235

>  <SCORE.INTER>
1.5795

>  <SCORE.INTER.CONST>
1

>  <SCORE.INTER.POLAR>
0

>  <SCORE.INTER.ROT>
16

>  <SCORE.INTER.SOLV>
13.1361

>  <SCORE.INTER.VDW>
-17.5924

>  <SCORE.INTER.norm>
0.0322347

>  <SCORE.INTRA>
-10.8519

>  <SCORE.INTRA.DIHEDRAL>
-23.7057

>  <SCORE.INTRA.DIHEDRAL.0>
36.0842

>  <SCORE.INTRA.POLAR>
0

>  <SCORE.INTRA.POLAR.0>
0

>  <SCORE.INTRA.REPUL>
0

>  <SCORE.INTRA.REPUL.0>
0

>  <SCORE.INTRA.SOLV>
5.21119

>  <SCORE.INTRA.SOLV.lig_0>
-126.444

>  <SCORE.INTRA.VDW>
-1.60458

>  <SCORE.INTRA.VDW.0>
-7.40469

>  <SCORE.INTRA.norm>
-0.221466

>  <SCORE.RESTR>
0

>  <SCORE.RESTR.CAVITY>
0

>  <SCORE.RESTR.norm>
0

>  <SCORE.SYSTEM>
0

>  <SCORE.SYSTEM.CONST>
0

>  <SCORE.SYSTEM.DIHEDRAL>
0

>  <SCORE.SYSTEM.SOLV>
0

>  <SCORE.SYSTEM.norm>
0

>  <SCORE.heavy>
49

>  <SCORE.norm>
-0.189232

>  <RMSD>
11.020

$$$$
2bee_lig
 OpenBabel11021811423D
libRbt.so/2013.1/901 2013/11/27
 49 52  0  0  0  0  0  0  0  0999 V2000
   37.9823    1.1356    1.4539 C   0  0  2  0  0  0  0  0  0  0  0  0
   38.0734    2.5535    1.5120 O   0  0  0  0  0  0  0  0  0  0  0  0
   39.6199    5.5499    4.3411 C   0  0  2  0  0  0  0  0  0  0  0  0
   40.4813    6.1669    5.3862 N   0  0  0  0  0  0  0  0  0  0  0  0
   40.8661    4.8975   -0.1213 C   0  0  1  0  0  0  0  0  0  0  0  0
   41.7534    4.0461   -4.5731 C   0  0  1  0  0  0  0  0  0  0  0  0
   43.4562   11.5642    0.7402 C   0  0  0  0  0  0  0  0  0  0  0  0
   39.3056    0.5258    0.8488 C   0  0  2  0  0  0  0  0  0  0  0  0
   40.4625    0.9911    1.6062 N   0  0  0  0  0  0  0  0  0  0  0  0
   39.0164    4.1797    4.8946 C   0  0  0  0  0  0  0  0  0  0  0  0
   41.9115    5.0276   -1.1810 C   0  0  2  0  0  0  0  0  0  0  0  0
   42.8757    6.1072   -0.9070 O   0  0  0  0  0  0  0  0  0  0  0  0
   43.1092    4.9351   -4.6237 C   0  0  2  0  0  0  0  0  0  0  0  0
   42.7474    6.3105   -5.1036 N   0  0  0  0  0  0  0  0  0  0  0  0
   42.2431   12.1329    0.2866 C   0  0  0  0  0  0  0  0  0  0  0  0
   42.2365   12.9400   -0.8489 N   0  0  0  0  0  0  0  0  0  0  0  0
   39.4128    0.9239   -0.6881 C   0  0  1  0  0  0  0  0  0  0  0  0
   40.6039    0.3671   -1.2251 O   0  0  0  0  0  0  0  0  0  0  0  0
   38.0729    3.4630    3.7687 C   0  0  2  0  0  0  0  0  0  0  0  0
   37.5225    2.2442    4.2563 N   0  0  0  0  0  0  0  0  0  0  0  0
   40.9628    5.0873   -2.3536 C   0  0  2  0  0  0  0  0  0  0  0  0
   40.8624    4.7671   -3.6887 O   0  0  0  0  0  0  0  0  0  0  0  0
   44.1171    4.2477   -5.6125 C   0  0  1  0  0  0  0  0  0  0  0  0
   44.4308    2.9192   -5.0662 O   0  0  0  0  0  0  0  0  0  0  0  0
   38.1638    0.3998   -1.4342 C   0  0  2  0  0  0  0  0  0  0  0  0
   38.2160    0.7642   -2.8731 O   0  0  0  0  0  0  0  0  0  0  0  0
   38.9167    3.1797    2.4652 C   0  0  2  0  0  0  0  0  0  0  0  0
   39.7179    5.9173   -1.7629 C   0  0  2  0  0  0  0  0  0  0  0  0
   39.6299    5.4303   -0.5023 O   0  0  0  0  0  0  0  0  0  0  0  0
   43.4309    4.1432   -7.0895 C   0  0  2  0  0  0  0  0  0  0  0  0
   43.1174    5.4860   -7.6279 O   0  0  0  0  0  0  0  0  0  0  0  0
   36.8578    1.0069   -0.8212 C   0  0  2  0  0  0  0  0  0  0  0  0
   36.8796    0.6218    0.5772 O   0  0  0  0  0  0  0  0  0  0  0  0
   39.4867    4.5506    1.9671 C   0  0  2  0  0  0  0  0  0  0  0  0
   40.1917    4.1880    0.8046 O   0  0  0  0  0  0  0  0  0  0  0  0
   38.3056    5.6968   -2.4205 C   0  0  0  0  0  0  0  0  0  0  0  0
   37.3225    6.5548   -1.7596 O   0  0  0  0  0  0  0  0  0  0  0  0
   42.0786    3.3045   -7.0066 C   0  0  1  0  0  0  0  0  0  0  0  0
   41.1878    4.0015   -5.9996 O   0  0  0  0  0  0  0  0  0  0  0  0
   35.7246    0.4370   -1.5740 C   0  0  0  0  0  0  0  0  0  0  0  0
   35.6806    0.9476   -2.8120 O   0  0  0  0  0  0  0  0  0  0  0  0
   40.4245    5.2085    3.0671 C   0  0  1  0  0  0  0  0  0  0  0  0
   40.9188    6.4324    2.6155 O   0  0  0  0  0  0  0  0  0  0  0  0
   42.5874    7.5472   -1.0080 C   0  0  0  0  0  0  0  0  0  0  0  0
   41.5048    3.2894   -8.4639 C   0  0  0  0  0  0  0  0  0  0  0  0
   42.3729    2.6348   -9.4001 N   0  0  0  0  0  0  0  0  0  0  0  0
   43.8221    8.3403   -0.5773 C   0  0  0  0  0  0  0  0  0  0  0  0
   43.6103    9.7316   -1.0218 N   0  0  0  0  0  0  0  0  0  0  0  0
   44.4022   10.8405   -0.3257 C   0  0  0  0  0  0  0  0  0  0  0  0
  1  2  1  6  0  0  0
  1  8  1  0  0  0  0
  1 33  1  0  0  0  0
  3  4  1  1  0  0  0
  3 10  1  0  0  0  0
  3 42  1  0  0  0  0
  5 11  1  0  0  0  0
  5 29  1  0  0  0  0
  5 35  1  6  0  0  0
  6 13  1  0  0  0  0
  6 39  1  0  0  0  0
  6 22  1  1  0  0  0
  7 15  1  0  0  0  0
  8  9  1  1  0  0  0
  8 17  1  0  0  0  0
 10 19  1  0  0  0  0
 11 12  1  1  0  0  0
 11 21  1  0  0  0  0
 12 44  1  0  0  0  0
 13 14  1  6  0  0  0
 13 23  1  0  0  0  0
 15 16  1  0  0  0  0
 17 18  1  6  0  0  0
 17 25  1  0  0  0  0
 19 20  1  1  0  0  0
 19 27  1  0  0  0  0
 21 22  1  6  0  0  0
 21 28  1  0  0  0  0
 23 24  1  1  0  0  0
 23 30  1  0  0  0  0
 25 26  1  6  0  0  0
 25 32  1  0  0  0  0
 27  2  1  6  0  0  0
 27 34  1  0  0  0  0
 28 29  1  0  0  0  0
 28 36  1  6  0  0  0
 30 31  1  1  0  0  0
 30 38  1  0  0  0  0
 32 33  1  0  0  0  0
 32 40  1  6  0  0  0
 34 35  1  6  0  0  0
 34 42  1  0  0  0  0
 36 37  1  0  0  0  0
 38 39  1  0  0  0  0
 38 45  1  6  0  0  0
 40 41  1  0  0  0  0
 42 43  1  6  0  0  0
 44 47  1  0  0  0  0
 45 46  1  0  0  0  0
 47 48  1  0  0  0  0
 48 49  1  0  0  0  0
 49  7  1  0  0  0  0
M  END
>  <CHROM.1>
-72.30114516,155.19587588,-62.72320265,-47.46989785,-72.39111048,177.20327600
6.19107337,-91.29464034,-179.00701546,-71.22825606,177.00026406,62.36614720
165.67920887,158.54814767,-100.88776877,-56.99296824,40.52863005,4.55738686
-1.25569140,2.60601244,0.97100083,1.01810070

>  <Name>
2bee_lig

>  <RI>
0

>  <Rbt.Current_Directory>
/home/itssahil/PROJECTS/Mol_Feturizer/New_Systems/rnas/2bee

>  <Rbt.Executable>
rbdock ($Id: //depot/dev/client3/rdock/2013.1/src/exe/rbdock.cxx#4 $)

>  <Rbt.Library>
libRbt.so (2013.1, Build901 2013/11/27)

>  <Rbt.Parameter_File>
/export/apps/rDock/src/rDock_2013.1_src/data/scripts/dock_solv.prm

>  <Rbt.Receptor>
prm/pocket_docking_8.prm

>  <SCORE>
-14.4174

>  <SCORE.INTER>
-7.08436

>  <SCORE.INTER.CONST>
1

>  <SCORE.INTER.POLAR>
-0.87178

>  <SCORE.INTER.ROT>
16

>  <SCORE.INTER.SOLV>
13.7655

>  <SCORE.INTER.VDW>
-20.6721

>  <SCORE.INTER.norm>
-0.144579

>  <SCORE.INTRA>
-7.33306

>  <SCORE.INTRA.DIHEDRAL>
-21.7801

>  <SCORE.INTRA.DIHEDRAL.0>
36.0842

>  <SCORE.INTRA.POLAR>
0

>  <SCORE.INTRA.POLAR.0>
0

>  <SCORE.INTRA.REPUL>
0.012987

>  <SCORE.INTRA.REPUL.0>
0

>  <SCORE.INTRA.SOLV>
1.36104

>  <SCORE.INTRA.SOLV.lig_0>
-126.444

>  <SCORE.INTRA.VDW>
2.81152

>  <SCORE.INTRA.VDW.0>
-7.40469

>  <SCORE.INTRA.norm>
-0.149654

>  <SCORE.RESTR>
0

>  <SCORE.RESTR.CAVITY>
0

>  <SCORE.RESTR.norm>
0

>  <SCORE.SYSTEM>
0

>  <SCORE.SYSTEM.CONST>
0

>  <SCORE.SYSTEM.DIHEDRAL>
0

>  <SCORE.SYSTEM.SOLV>
0

>  <SCORE.SYSTEM.norm>
0

>  <SCORE.heavy>
49

>  <SCORE.norm>
-0.294233

>  <RMSD>
11.106

$$$$
2bee_lig
 OpenBabel11021811423D
libRbt.so/2013.1/901 2013/11/27
 49 52  0  0  0  0  0  0  0  0999 V2000
   47.5692    5.6394   -6.9900 C   0  0  2  0  0  0  0  0  0  0  0  0
   47.1189    6.8918   -6.4892 O   0  0  0  0  0  0  0  0  0  0  0  0
   43.7346    7.7160   -9.1802 C   0  0  2  0  0  0  0  0  0  0  0  0
   42.6013    8.4444   -9.8127 N   0  0  0  0  0  0  0  0  0  0  0  0
   47.8630    9.4947   -9.4022 C   0  0  1  0  0  0  0  0  0  0  0  0
   44.6457   11.7479  -11.5221 C   0  0  1  0  0  0  0  0  0  0  0  0
   47.1574   14.9444   -8.8253 C   0  0  0  0  0  0  0  0  0  0  0  0
   47.5636    4.5564   -5.8428 C   0  0  2  0  0  0  0  0  0  0  0  0
   46.2409    4.4824   -5.2316 N   0  0  0  0  0  0  0  0  0  0  0  0
   43.4849    7.6133   -7.6070 C   0  0  0  0  0  0  0  0  0  0  0  0
   48.0617   10.3638  -10.6013 C   0  0  2  0  0  0  0  0  0  0  0  0
   49.4377   10.8772  -10.7168 O   0  0  0  0  0  0  0  0  0  0  0  0
   44.9255   10.9197  -12.8884 C   0  0  2  0  0  0  0  0  0  0  0  0
   45.7630   11.7783  -13.7909 N   0  0  0  0  0  0  0  0  0  0  0  0
   46.4467   14.4152   -9.9279 C   0  0  0  0  0  0  0  0  0  0  0  0
   45.1275   14.8018  -10.1539 N   0  0  0  0  0  0  0  0  0  0  0  0
   48.6841    4.9186   -4.7726 C   0  0  1  0  0  0  0  0  0  0  0  0
   48.6746    3.9362   -3.7470 O   0  0  0  0  0  0  0  0  0  0  0  0
   44.7170    6.8298   -6.8725 C   0  0  2  0  0  0  0  0  0  0  0  0
   44.4990    6.7251   -5.4697 N   0  0  0  0  0  0  0  0  0  0  0  0
   46.8896   11.2804  -10.3467 C   0  0  2  0  0  0  0  0  0  0  0  0
   45.9573   12.0592  -10.9943 O   0  0  0  0  0  0  0  0  0  0  0  0
   43.5451   10.5878  -13.5595 C   0  0  1  0  0  0  0  0  0  0  0  0
   42.7957    9.7365  -12.6239 O   0  0  0  0  0  0  0  0  0  0  0  0
   50.0581    4.9767   -5.4797 C   0  0  2  0  0  0  0  0  0  0  0  0
   51.1333    5.3280   -4.5171 O   0  0  0  0  0  0  0  0  0  0  0  0
   46.0726    7.5916   -7.1431 C   0  0  2  0  0  0  0  0  0  0  0  0
   46.8750   11.4031   -8.7429 C   0  0  2  0  0  0  0  0  0  0  0  0
   47.1851   10.1408   -8.3628 O   0  0  0  0  0  0  0  0  0  0  0  0
   42.7529   11.9801  -13.8714 C   0  0  2  0  0  0  0  0  0  0  0  0
   43.5178   12.8295  -14.8120 O   0  0  0  0  0  0  0  0  0  0  0  0
   50.0493    6.0499   -6.6189 C   0  0  2  0  0  0  0  0  0  0  0  0
   48.9759    5.6503   -7.5092 O   0  0  0  0  0  0  0  0  0  0  0  0
   46.2673    7.6675   -8.6951 C   0  0  2  0  0  0  0  0  0  0  0  0
   47.4996    8.3354   -8.8196 O   0  0  0  0  0  0  0  0  0  0  0  0
   45.5101   11.7519   -8.0421 C   0  0  0  0  0  0  0  0  0  0  0  0
   44.7306   10.5277   -7.8599 O   0  0  0  0  0  0  0  0  0  0  0  0
   42.5294   12.7968  -12.5215 C   0  0  1  0  0  0  0  0  0  0  0  0
   43.8973   13.0295  -11.9146 O   0  0  0  0  0  0  0  0  0  0  0  0
   51.3827    6.0187   -7.2488 C   0  0  0  0  0  0  0  0  0  0  0  0
   51.5899    4.8386   -7.8486 O   0  0  0  0  0  0  0  0  0  0  0  0
   45.0734    8.4611   -9.3786 C   0  0  1  0  0  0  0  0  0  0  0  0
   45.2536    8.5144  -10.7610 O   0  0  0  0  0  0  0  0  0  0  0  0
   49.9494   12.0877  -10.0535 C   0  0  0  0  0  0  0  0  0  0  0  0
   41.7867   14.1095  -12.9440 C   0  0  0  0  0  0  0  0  0  0  0  0
   42.5406   14.9055  -13.8695 N   0  0  0  0  0  0  0  0  0  0  0  0
   49.3701   13.3238  -10.7429 C   0  0  0  0  0  0  0  0  0  0  0  0
   49.4648   14.4341   -9.7752 N   0  0  0  0  0  0  0  0  0  0  0  0
   48.6114   14.3616   -8.5072 C   0  0  0  0  0  0  0  0  0  0  0  0
  1  2  1  1  0  0  0
  1  8  1  0  0  0  0
  1 33  1  0  0  0  0
  3  4  1  6  0  0  0
  3 10  1  0  0  0  0
  3 42  1  0  0  0  0
  5 11  1  0  0  0  0
  5 29  1  0  0  0  0
  5 35  1  6  0  0  0
  6 13  1  0  0  0  0
  6 39  1  0  0  0  0
  6 22  1  6  0  0  0
  7 15  1  0  0  0  0
  8  9  1  1  0  0  0
  8 17  1  0  0  0  0
 10 19  1  0  0  0  0
 11 12  1  1  0  0  0
 11 21  1  0  0  0  0
 12 44  1  0  0  0  0
 13 14  1  6  0  0  0
 13 23  1  0  0  0  0
 15 16  1  0  0  0  0
 17 18  1  1  0  0  0
 17 25  1  0  0  0  0
 19 20  1  1  0  0  0
 19 27  1  0  0  0  0
 21 22  1  6  0  0  0
 21 28  1  0  0  0  0
 23 24  1  1  0  0  0
 23 30  1  0  0  0  0
 25 26  1  1  0  0  0
 25 32  1  0  0  0  0
 27  2  1  1  0  0  0
 27 34  1  0  0  0  0
 28 29  1  0  0  0  0
 28 36  1  1  0  0  0
 30 31  1  6  0  0  0
 30 38  1  0  0  0  0
 32 33  1  0  0  0  0
 32 40  1  6  0  0  0
 34 35  1  1  0  0  0
 34 42  1  0  0  0  0
 36 37  1  0  0  0  0
 38 39  1  0  0  0  0
 38 45  1  6  0  0  0
 40 41  1  0  0  0  0
 42 43  1  6  0  0  0
 44 47  1  0  0  0  0
 45 46  1  0  0  0  0
 47 48  1  0  0  0  0
 48 49  1  0  0  0  0
 49  7  1  0  0  0  0
M  END
>  <CHROM.1>
-127.77399766,-65.93240826,-75.38739176,173.54472767,-85.31029912,-72.91007087
88.41368179,72.01332058,83.75681046,64.85988873,-119.77185163,-60.26739668
158.53544579,-66.51171369,-85.31880285,52.81839847,46.46874920,9.62152858
-9.24783807,1.12849146,0.35566799,2.61077290

>  <Name>
2bee_lig

>  <RI>
0

>  <Rbt.Current_Directory>
/home/itssahil/PROJECTS/Mol_Feturizer/New_Systems/rnas/2bee

>  <Rbt.Executable>
rbdock ($Id: //depot/dev/client3/rdock/2013.1/src/exe/rbdock.cxx#4 $)

>  <Rbt.Library>
libRbt.so (2013.1, Build901 2013/11/27)

>  <Rbt.Parameter_File>
/export/apps/rDock/src/rDock_2013.1_src/data/scripts/dock_solv.prm

>  <Rbt.Receptor>
prm/blind_docking_60.prm

>  <SCORE>
40.6217

>  <SCORE.INTER>
13.6981

>  <SCORE.INTER.CONST>
1

>  <SCORE.INTER.POLAR>
-0.144524

>  <SCORE.INTER.ROT>
16

>  <SCORE.INTER.SOLV>
31.9554

>  <SCORE.INTER.VDW>
-15.3046

>  <SCORE.INTER.norm>
0.279554

>  <SCORE.INTRA>
5.54937

>  <SCORE.INTRA.DIHEDRAL>
-7.53029

>  <SCORE.INTRA.DIHEDRAL.0>
36.0842

>  <SCORE.INTRA.POLAR>
0

>  <SCORE.INTRA.POLAR.0>
0

>  <SCORE.INTRA.REPUL>
0.0877731

>  <SCORE.INTRA.REPUL.0>
0

>  <SCORE.INTRA.SOLV>
11.5834

>  <SCORE.INTRA.SOLV.lig_0>
-126.444

>  <SCORE.INTRA.VDW>
3.08394

>  <SCORE.INTRA.VDW.0>
-7.40469

>  <SCORE.INTRA.norm>
0.113252

>  <SCORE.RESTR>
21.3742

>  <SCORE.RESTR.CAVITY>
21.3742

>  <SCORE.RESTR.norm>
0.436208

>  <SCORE.SYSTEM>
0

>  <SCORE.SYSTEM.CONST>
0

>  <SCORE.SYSTEM.DIHEDRAL>
0

>  <SCORE.SYSTEM.SOLV>
0

>  <SCORE.SYSTEM.norm>
0

>  <SCORE.heavy>
49

>  <SCORE.norm>
0.829015

>  <RMSD>
11.147

$$$$
2bee_lig
 OpenBabel11021811423D
libRbt.so/2013.1/901 2013/11/27
 49 52  0  0  0  0  0  0  0  0999 V2000
   38.8967   -1.7651   -4.9160 C   0  0  2  0  0  0  0  0  0  0  0  0
   37.6456   -2.0990   -4.3284 O   0  0  0  0  0  0  0  0  0  0  0  0
   35.1049    0.0601   -1.4549 C   0  0  2  0  0  0  0  0  0  0  0  0
   34.6541    0.6649   -0.1720 N   0  0  0  0  0  0  0  0  0  0  0  0
   38.4354    1.7990   -4.2685 C   0  0  1  0  0  0  0  0  0  0  0  0
   41.4725    3.3232   -7.4549 C   0  0  1  0  0  0  0  0  0  0  0  0
   40.0498    5.7593    0.7280 C   0  0  0  0  0  0  0  0  0  0  0  0
   39.1946   -2.7093   -6.1444 C   0  0  2  0  0  0  0  0  0  0  0  0
   38.0883   -2.6583   -7.0941 N   0  0  0  0  0  0  0  0  0  0  0  0
   35.4070   -1.4911   -1.2307 C   0  0  0  0  0  0  0  0  0  0  0  0
   39.4504    2.8459   -4.5946 C   0  0  2  0  0  0  0  0  0  0  0  0
   39.1834    4.1321   -3.9278 O   0  0  0  0  0  0  0  0  0  0  0  0
   41.3969    4.8990   -7.0777 C   0  0  2  0  0  0  0  0  0  0  0  0
   40.3525    5.5370   -7.9468 N   0  0  0  0  0  0  0  0  0  0  0  0
   40.2510    4.3641    0.8457 C   0  0  0  0  0  0  0  0  0  0  0  0
   39.1551    3.5121    0.9638 N   0  0  0  0  0  0  0  0  0  0  0  0
   39.4486   -4.1899   -5.6197 C   0  0  1  0  0  0  0  0  0  0  0  0
   39.7204   -5.0311   -6.7313 O   0  0  0  0  0  0  0  0  0  0  0  0
   35.9188   -2.1901   -2.6168 C   0  0  2  0  0  0  0  0  0  0  0  0
   36.1823   -3.5764   -2.4292 N   0  0  0  0  0  0  0  0  0  0  0  0
   39.3762    2.6974   -6.0950 C   0  0  2  0  0  0  0  0  0  0  0  0
   40.1328    2.8189   -7.2386 O   0  0  0  0  0  0  0  0  0  0  0  0
   42.8063    5.5404   -7.3392 C   0  0  1  0  0  0  0  0  0  0  0  0
   43.7642    4.8751   -6.4440 O   0  0  0  0  0  0  0  0  0  0  0  0
   40.6321   -4.1773   -4.6245 C   0  0  2  0  0  0  0  0  0  0  0  0
   40.8938   -5.5408   -4.0972 O   0  0  0  0  0  0  0  0  0  0  0  0
   37.2242   -1.4670   -3.1305 C   0  0  2  0  0  0  0  0  0  0  0  0
   37.8168    2.3933   -6.3463 C   0  0  2  0  0  0  0  0  0  0  0  0
   37.5178    1.5839   -5.3025 O   0  0  0  0  0  0  0  0  0  0  0  0
   43.2061    5.3330   -8.9079 C   0  0  2  0  0  0  0  0  0  0  0  0
   42.2336    6.0048   -9.7992 O   0  0  0  0  0  0  0  0  0  0  0  0
   40.3272   -3.2330   -3.4140 C   0  0  2  0  0  0  0  0  0  0  0  0
   40.0736   -1.9313   -4.0019 O   0  0  0  0  0  0  0  0  0  0  0  0
   36.8754    0.0466   -3.3303 C   0  0  2  0  0  0  0  0  0  0  0  0
   38.0865    0.5827   -3.8055 O   0  0  0  0  0  0  0  0  0  0  0  0
   37.4198    1.6010   -7.6465 C   0  0  0  0  0  0  0  0  0  0  0  0
   35.9637    1.5932   -7.7853 O   0  0  0  0  0  0  0  0  0  0  0  0
   43.2300    3.7805   -9.2659 C   0  0  1  0  0  0  0  0  0  0  0  0
   41.8575    3.2306   -8.9381 O   0  0  0  0  0  0  0  0  0  0  0  0
   41.5116   -3.2647   -2.5355 C   0  0  0  0  0  0  0  0  0  0  0  0
   41.2894   -2.5505   -1.4238 O   0  0  0  0  0  0  0  0  0  0  0  0
   36.4126    0.7076   -1.9624 C   0  0  1  0  0  0  0  0  0  0  0  0
   36.0964    2.0527   -2.1549 O   0  0  0  0  0  0  0  0  0  0  0  0
   39.9147    5.3849   -4.1785 C   0  0  0  0  0  0  0  0  0  0  0  0
   43.6010    3.7067  -10.7858 C   0  0  0  0  0  0  0  0  0  0  0  0
   44.9489    4.1193  -11.0532 N   0  0  0  0  0  0  0  0  0  0  0  0
   39.5374    6.4117   -3.1097 C   0  0  0  0  0  0  0  0  0  0  0  0
   39.9919    5.8658   -1.8161 N   0  0  0  0  0  0  0  0  0  0  0  0
   39.2590    6.3085   -0.5480 C   0  0  0  0  0  0  0  0  0  0  0  0
  1  2  1  1  0  0  0
  1  8  1  0  0  0  0
  1 33  1  0  0  0  0
  3  4  1  1  0  0  0
  3 10  1  0  0  0  0
  3 42  1  0  0  0  0
  5 11  1  0  0  0  0
  5 29  1  0  0  0  0
  5 35  1  6  0  0  0
  6 13  1  0  0  0  0
  6 39  1  0  0  0  0
  6 22  1  6  0  0  0
  7 15  1  0  0  0  0
  8  9  1  6  0  0  0
  8 17  1  0  0  0  0
 10 19  1  0  0  0  0
 11 12  1  6  0  0  0
 11 21  1  0  0  0  0
 12 44  1  0  0  0  0
 13 14  1  6  0  0  0
 13 23  1  0  0  0  0
 15 16  1  0  0  0  0
 17 18  1  6  0  0  0
 17 25  1  0  0  0  0
 19 20  1  1  0  0  0
 19 27  1  0  0  0  0
 21 22  1  6  0  0  0
 21 28  1  0  0  0  0
 23 24  1  1  0  0  0
 23 30  1  0  0  0  0
 25 26  1  1  0  0  0
 25 32  1  0  0  0  0
 27  2  1  6  0  0  0
 27 34  1  0  0  0  0
 28 29  1  0  0  0  0
 28 36  1  6  0  0  0
 30 31  1  6  0  0  0
 30 38  1  0  0  0  0
 32 33  1  0  0  0  0
 32 40  1  1  0  0  0
 34 35  1  1  0  0  0
 34 42  1  0  0  0  0
 36 37  1  0  0  0  0
 38 39  1  0  0  0  0
 38 45  1  6  0  0  0
 40 41  1  0  0  0  0
 42 43  1  6  0  0  0
 44 47  1  0  0  0  0
 45 46  1  0  0  0  0
 47 48  1  0  0  0  0
 48 49  1  0  0  0  0
 49  7  1  0  0  0  0
M  END
>  <CHROM.1>
174.04946891,160.18583504,-64.94823721,-62.81053002,-172.48752862,-168.87430823
-6.90468938,-171.69548865,-172.07463287,-175.65229641,173.87063955,68.26606015
63.30486104,-153.50773501,-172.03858221,-58.12870356,39.43857621,1.33130657
-4.76092600,-2.59271055,1.02357141,0.33979296

>  <Name>
2bee_lig

>  <RI>
0

>  <Rbt.Current_Directory>
/home/itssahil/PROJECTS/Mol_Feturizer/New_Systems/rnas/2bee

>  <Rbt.Executable>
rbdock ($Id: //depot/dev/client3/rdock/2013.1/src/exe/rbdock.cxx#4 $)

>  <Rbt.Library>
libRbt.so (2013.1, Build901 2013/11/27)

>  <Rbt.Parameter_File>
/export/apps/rDock/src/rDock_2013.1_src/data/scripts/dock_solv.prm

>  <Rbt.Receptor>
prm/pocket_docking_8.prm

>  <SCORE>
-10.6386

>  <SCORE.INTER>
2.00913

>  <SCORE.INTER.CONST>
1

>  <SCORE.INTER.POLAR>
0

>  <SCORE.INTER.ROT>
16

>  <SCORE.INTER.SOLV>
15.1918

>  <SCORE.INTER.VDW>
-17.9912

>  <SCORE.INTER.norm>
0.0410026

>  <SCORE.INTRA>
-12.6477

>  <SCORE.INTRA.DIHEDRAL>
-28.078

>  <SCORE.INTRA.DIHEDRAL.0>
36.0842

>  <SCORE.INTRA.POLAR>
0

>  <SCORE.INTRA.POLAR.0>
0

>  <SCORE.INTRA.REPUL>
0

>  <SCORE.INTRA.REPUL.0>
0

>  <SCORE.INTRA.SOLV>
-2.12004

>  <SCORE.INTRA.SOLV.lig_0>
-126.444

>  <SCORE.INTRA.VDW>
2.45131

>  <SCORE.INTRA.VDW.0>
-7.40469

>  <SCORE.INTRA.norm>
-0.258117

>  <SCORE.RESTR>
0

>  <SCORE.RESTR.CAVITY>
0

>  <SCORE.RESTR.norm>
0

>  <SCORE.SYSTEM>
0

>  <SCORE.SYSTEM.CONST>
0

>  <SCORE.SYSTEM.DIHEDRAL>
0

>  <SCORE.SYSTEM.SOLV>
0

>  <SCORE.SYSTEM.norm>
0

>  <SCORE.heavy>
49

>  <SCORE.norm>
-0.217114

>  <RMSD>
11.220

$$$$
2bee_lig
 OpenBabel11021811423D
libRbt.so/2013.1/901 2013/11/27
 49 52  0  0  0  0  0  0  0  0999 V2000
   47.4316    6.7361   -6.4441 C   0  0  2  0  0  0  0  0  0  0  0  0
   46.7799    6.2146   -7.5954 O   0  0  0  0  0  0  0  0  0  0  0  0
   43.1339    6.8375   -9.9814 C   0  0  2  0  0  0  0  0  0  0  0  0
   41.8260    7.4061  -10.4067 N   0  0  0  0  0  0  0  0  0  0  0  0
   46.8296    9.4424  -10.0544 C   0  0  1  0  0  0  0  0  0  0  0  0
   43.9100   12.6236  -11.7995 C   0  0  1  0  0  0  0  0  0  0  0  0
   46.6663   14.5118   -9.3501 C   0  0  0  0  0  0  0  0  0  0  0  0
   48.7337    5.9036   -6.1272 C   0  0  2  0  0  0  0  0  0  0  0  0
   49.5990    5.8625   -7.3011 N   0  0  0  0  0  0  0  0  0  0  0  0
   43.0143    6.2986   -8.4837 C   0  0  0  0  0  0  0  0  0  0  0  0
   46.6024   10.4248  -11.1571 C   0  0  2  0  0  0  0  0  0  0  0  0
   47.8558   10.9575  -11.7190 O   0  0  0  0  0  0  0  0  0  0  0  0
   42.7979   11.5037  -12.1737 C   0  0  2  0  0  0  0  0  0  0  0  0
   43.4997   10.1875  -12.3421 N   0  0  0  0  0  0  0  0  0  0  0  0
   46.4857   14.5570  -10.7523 C   0  0  0  0  0  0  0  0  0  0  0  0
   46.9043   13.4876  -11.5409 N   0  0  0  0  0  0  0  0  0  0  0  0
   48.3205    4.4422   -5.6524 C   0  0  1  0  0  0  0  0  0  0  0  0
   49.4982    3.7022   -5.3651 O   0  0  0  0  0  0  0  0  0  0  0  0
   44.4373    5.6770   -7.9739 C   0  0  2  0  0  0  0  0  0  0  0  0
   44.3383    5.1853   -6.6417 N   0  0  0  0  0  0  0  0  0  0  0  0
   45.6298   11.3035  -10.4084 C   0  0  2  0  0  0  0  0  0  0  0  0
   44.5480   12.1340  -10.5957 O   0  0  0  0  0  0  0  0  0  0  0  0
   42.0912   11.9324  -13.5090 C   0  0  1  0  0  0  0  0  0  0  0  0
   41.4188   13.2154  -13.2573 O   0  0  0  0  0  0  0  0  0  0  0  0
   47.4114    4.5538   -4.4065 C   0  0  2  0  0  0  0  0  0  0  0  0
   46.9889    3.2091   -3.9384 O   0  0  0  0  0  0  0  0  0  0  0  0
   45.5617    6.7821   -8.0489 C   0  0  2  0  0  0  0  0  0  0  0  0
   46.2036   11.2707   -8.9060 C   0  0  2  0  0  0  0  0  0  0  0  0
   46.5952    9.9800   -8.7842 O   0  0  0  0  0  0  0  0  0  0  0  0
   43.2107   12.0622  -14.6894 C   0  0  2  0  0  0  0  0  0  0  0  0
   43.8824   10.7656  -14.9320 O   0  0  0  0  0  0  0  0  0  0  0  0
   46.1266    5.3864   -4.7317 C   0  0  2  0  0  0  0  0  0  0  0  0
   46.6138    6.6741   -5.1888 O   0  0  0  0  0  0  0  0  0  0  0  0
   45.6354    7.2776   -9.5327 C   0  0  2  0  0  0  0  0  0  0  0  0
   46.6707    8.2295   -9.4895 O   0  0  0  0  0  0  0  0  0  0  0  0
   45.1980   11.5396   -7.7261 C   0  0  0  0  0  0  0  0  0  0  0  0
   44.7166   10.2636   -7.1974 O   0  0  0  0  0  0  0  0  0  0  0  0
   44.3162   13.1343  -14.2798 C   0  0  1  0  0  0  0  0  0  0  0  0
   44.9092   12.6762  -12.9638 O   0  0  0  0  0  0  0  0  0  0  0  0
   45.3364    5.4604   -3.4884 C   0  0  0  0  0  0  0  0  0  0  0  0
   44.3050    4.6065   -3.5375 O   0  0  0  0  0  0  0  0  0  0  0  0
   44.2503    7.9054   -9.9907 C   0  0  1  0  0  0  0  0  0  0  0  0
   44.3258    8.3348  -11.3159 O   0  0  0  0  0  0  0  0  0  0  0  0
   49.1582   10.9611  -11.0330 C   0  0  0  0  0  0  0  0  0  0  0  0
   45.3377   13.1574  -15.4668 C   0  0  0  0  0  0  0  0  0  0  0  0
   44.7052   13.0606  -16.7510 N   0  0  0  0  0  0  0  0  0  0  0  0
   49.0035   11.6169   -9.6601 C   0  0  0  0  0  0  0  0  0  0  0  0
   48.6656   13.0332   -9.9009 N   0  0  0  0  0  0  0  0  0  0  0  0
   47.9847   13.8146   -8.7752 C   0  0  0  0  0  0  0  0  0  0  0  0
  1  2  1  6  0  0  0
  1  8  1  0  0  0  0
  1 33  1  0  0  0  0
  3  4  1  1  0  0  0
  3 10  1  0  0  0  0
  3 42  1  0  0  0  0
  5 11  1  0  0  0  0
  5 29  1  0  0  0  0
  5 35  1  6  0  0  0
  6 13  1  0  0  0  0
  6 39  1  0  0  0  0
  6 22  1  1  0  0  0
  7 15  1  0  0  0  0
  8  9  1  6  0  0  0
  8 17  1  0  0  0  0
 10 19  1  0  0  0  0
 11 12  1  1  0  0  0
 11 21  1  0  0  0  0
 12 44  1  0  0  0  0
 13 14  1  6  0  0  0
 13 23  1  0  0  0  0
 15 16  1  0  0  0  0
 17 18  1  1  0  0  0
 17 25  1  0  0  0  0
 19 20  1  1  0  0  0
 19 27  1  0  0  0  0
 21 22  1  6  0  0  0
 21 28  1  0  0  0  0
 23 24  1  1  0  0  0
 23 30  1  0  0  0  0
 25 26  1  6  0  0  0
 25 32  1  0  0  0  0
 27  2  1  6  0  0  0
 27 34  1  0  0  0  0
 28 29  1  0  0  0  0
 28 36  1  1  0  0  0
 30 31  1  1  0  0  0
 30 38  1  0  0  0  0
 32 33  1  0  0  0  0
 32 40  1  1  0  0  0
 34 35  1  1  0  0  0
 34 42  1  0  0  0  0
 36 37  1  0  0  0  0
 38 39  1  0  0  0  0
 38 45  1  6  0  0  0
 40 41  1  0  0  0  0
 42 43  1  6  0  0  0
 44 47  1  0  0  0  0
 45 46  1  0  0  0  0
 47 48  1  0  0  0  0
 48 49  1  0  0  0  0
 49  7  1  0  0  0  0
M  END
>  <CHROM.1>
178.18946555,-31.20101470,88.47674402,36.10126982,-21.31980246,-53.09922590
-6.48781759,-118.04428100,95.66352954,-102.80426246,-138.97094224,39.40792726
-65.74858651,159.05100571,-127.94915307,-12.86470363,45.70959103,9.30252457
-9.47780127,-1.35735444,-0.52382309,-0.68349410

>  <Name>
2bee_lig

>  <RI>
0

>  <Rbt.Current_Directory>
/home/itssahil/PROJECTS/Mol_Feturizer/New_Systems/rnas/2bee

>  <Rbt.Executable>
rbdock ($Id: //depot/dev/client3/rdock/2013.1/src/exe/rbdock.cxx#4 $)

>  <Rbt.Library>
libRbt.so (2013.1, Build901 2013/11/27)

>  <Rbt.Parameter_File>
/export/apps/rDock/src/rDock_2013.1_src/data/scripts/dock_solv.prm

>  <Rbt.Receptor>
prm/blind_docking_60.prm

>  <SCORE>
101.021

>  <SCORE.INTER>
60.7404

>  <SCORE.INTER.CONST>
1

>  <SCORE.INTER.POLAR>
0

>  <SCORE.INTER.ROT>
16

>  <SCORE.INTER.SOLV>
31.7127

>  <SCORE.INTER.VDW>
15.656

>  <SCORE.INTER.norm>
1.2396

>  <SCORE.INTRA>
20.8067

>  <SCORE.INTRA.DIHEDRAL>
8.79871

>  <SCORE.INTRA.DIHEDRAL.0>
36.0842

>  <SCORE.INTRA.POLAR>
0

>  <SCORE.INTRA.POLAR.0>
0

>  <SCORE.INTRA.REPUL>
0.391932

>  <SCORE.INTRA.REPUL.0>
0

>  <SCORE.INTRA.SOLV>
18.3711

>  <SCORE.INTRA.SOLV.lig_0>
-126.444

>  <SCORE.INTRA.VDW>
5.26215

>  <SCORE.INTRA.VDW.0>
-7.40469

>  <SCORE.INTRA.norm>
0.424627

>  <SCORE.RESTR>
19.4743

>  <SCORE.RESTR.CAVITY>
19.4743

>  <SCORE.RESTR.norm>
0.397435

>  <SCORE.SYSTEM>
0

>  <SCORE.SYSTEM.CONST>
0

>  <SCORE.SYSTEM.DIHEDRAL>
0

>  <SCORE.SYSTEM.SOLV>
0

>  <SCORE.SYSTEM.norm>
0

>  <SCORE.heavy>
49

>  <SCORE.norm>
2.06166

>  <RMSD>
11.247

$$$$
2bee_lig
 OpenBabel11021811423D
libRbt.so/2013.1/901 2013/11/27
 49 52  0  0  0  0  0  0  0  0999 V2000
   47.2839    6.7343   -6.4419 C   0  0  2  0  0  0  0  0  0  0  0  0
   46.6452    6.1883   -7.5891 O   0  0  0  0  0  0  0  0  0  0  0  0
   43.0624    6.8429  -10.0608 C   0  0  2  0  0  0  0  0  0  0  0  0
   41.6998    7.2993  -10.4481 N   0  0  0  0  0  0  0  0  0  0  0  0
   47.1437    9.3504   -9.6452 C   0  0  1  0  0  0  0  0  0  0  0  0
   45.2829   12.2424  -12.5614 C   0  0  1  0  0  0  0  0  0  0  0  0
   49.1793   13.7466   -9.2473 C   0  0  0  0  0  0  0  0  0  0  0  0
   47.9831    5.5919   -5.6082 C   0  0  2  0  0  0  0  0  0  0  0  0
   48.8942    4.8365   -6.4613 N   0  0  0  0  0  0  0  0  0  0  0  0
   42.9634    5.9327   -8.7533 C   0  0  0  0  0  0  0  0  0  0  0  0
   47.8631    9.7181  -10.9022 C   0  0  2  0  0  0  0  0  0  0  0  0
   49.3259    9.7648  -10.7341 O   0  0  0  0  0  0  0  0  0  0  0  0
   44.2658   11.0222  -12.2334 C   0  0  2  0  0  0  0  0  0  0  0  0
   44.6747    9.8388  -13.0614 N   0  0  0  0  0  0  0  0  0  0  0  0
   48.3037   14.4450   -8.3834 C   0  0  0  0  0  0  0  0  0  0  0  0
   46.9265   14.3625   -8.5757 N   0  0  0  0  0  0  0  0  0  0  0  0
   46.8700    4.6543   -4.9649 C   0  0  1  0  0  0  0  0  0  0  0  0
   47.5083    3.6324   -4.2130 O   0  0  0  0  0  0  0  0  0  0  0  0
   44.4442    5.4213   -8.2872 C   0  0  2  0  0  0  0  0  0  0  0  0
   44.3654    4.6010   -7.1265 N   0  0  0  0  0  0  0  0  0  0  0  0
   47.0575   10.9580  -11.2062 C   0  0  2  0  0  0  0  0  0  0  0  0
   46.6005   11.7289  -12.2511 O   0  0  0  0  0  0  0  0  0  0  0  0
   42.8081   11.4792  -12.5974 C   0  0  1  0  0  0  0  0  0  0  0  0
   42.4800   12.6257  -11.7374 O   0  0  0  0  0  0  0  0  0  0  0  0
   45.9427    5.5107   -4.0715 C   0  0  2  0  0  0  0  0  0  0  0  0
   44.8768    4.6750   -3.4619 O   0  0  0  0  0  0  0  0  0  0  0  0
   45.3724    6.6642   -7.9960 C   0  0  2  0  0  0  0  0  0  0  0  0
   46.7727   11.5653   -9.7441 C   0  0  2  0  0  0  0  0  0  0  0  0
   46.5435   10.4465   -9.0162 O   0  0  0  0  0  0  0  0  0  0  0  0
   42.7516   11.8788  -14.1788 C   0  0  2  0  0  0  0  0  0  0  0  0
   43.0860   10.7178  -15.0342 O   0  0  0  0  0  0  0  0  0  0  0  0
   45.2599    6.6436   -4.9082 C   0  0  2  0  0  0  0  0  0  0  0  0
   46.3539    7.4075   -5.4774 O   0  0  0  0  0  0  0  0  0  0  0  0
   45.4327    7.5225   -9.3045 C   0  0  2  0  0  0  0  0  0  0  0  0
   46.2931    8.5759   -8.9438 O   0  0  0  0  0  0  0  0  0  0  0  0
   45.5054   12.4792   -9.5589 C   0  0  0  0  0  0  0  0  0  0  0  0
   44.7440   12.0244   -8.3957 O   0  0  0  0  0  0  0  0  0  0  0  0
   43.7905   13.0474  -14.4855 C   0  0  1  0  0  0  0  0  0  0  0  0
   45.1554   12.5476  -14.0605 O   0  0  0  0  0  0  0  0  0  0  0  0
   44.4192    7.4186   -3.9765 C   0  0  0  0  0  0  0  0  0  0  0  0
   43.1432    7.4178   -4.3856 O   0  0  0  0  0  0  0  0  0  0  0  0
   43.9859    8.0324   -9.7158 C   0  0  1  0  0  0  0  0  0  0  0  0
   44.0514    8.7879  -10.8868 O   0  0  0  0  0  0  0  0  0  0  0  0
   50.1327   10.9942  -10.6671 C   0  0  0  0  0  0  0  0  0  0  0  0
   43.6633   13.3289  -16.0210 C   0  0  0  0  0  0  0  0  0  0  0  0
   43.9160   12.1679  -16.8252 N   0  0  0  0  0  0  0  0  0  0  0  0
   49.8309   11.8629  -11.8891 C   0  0  0  0  0  0  0  0  0  0  0  0
   50.1965   13.2464  -11.5281 N   0  0  0  0  0  0  0  0  0  0  0  0
   49.1551   14.1033  -10.8052 C   0  0  0  0  0  0  0  0  0  0  0  0
  1  2  1  6  0  0  0
  1  8  1  0  0  0  0
  1 33  1  0  0  0  0
  3  4  1  1  0  0  0
  3 10  1  0  0  0  0
  3 42  1  0  0  0  0
  5 11  1  0  0  0  0
  5 29  1  0  0  0  0
  5 35  1  6  0  0  0
  6 13  1  0  0  0  0
  6 39  1  0  0  0  0
  6 22  1  6  0  0  0
  7 15  1  0  0  0  0
  8  9  1  6  0  0  0
  8 17  1  0  0  0  0
 10 19  1  0  0  0  0
 11 12  1  1  0  0  0
 11 21  1  0  0  0  0
 12 44  1  0  0  0  0
 13 14  1  6  0  0  0
 13 23  1  0  0  0  0
 15 16  1  0  0  0  0
 17 18  1  1  0  0  0
 17 25  1  0  0  0  0
 19 20  1  1  0  0  0
 19 27  1  0  0  0  0
 21 22  1  6  0  0  0
 21 28  1  0  0  0  0
 23 24  1  1  0  0  0
 23 30  1  0  0  0  0
 25 26  1  6  0  0  0
 25 32  1  0  0  0  0
 27  2  1  6  0  0  0
 27 34  1  0  0  0  0
 28 29  1  0  0  0  0
 28 36  1  6  0  0  0
 30 31  1  6  0  0  0
 30 38  1  0  0  0  0
 32 33  1  0  0  0  0
 32 40  1  1  0  0  0
 34 35  1  1  0  0  0
 34 42  1  0  0  0  0
 36 37  1  0  0  0  0
 38 39  1  0  0  0  0
 38 45  1  6  0  0  0
 40 41  1  0  0  0  0
 42 43  1  6  0  0  0
 44 47  1  0  0  0  0
 45 46  1  0  0  0  0
 47 48  1  0  0  0  0
 48 49  1  0  0  0  0
 49  7  1  0  0  0  0
M  END
>  <CHROM.1>
139.65414409,-6.46078769,-41.69239722,60.67804012,-105.92849473,-53.49611015
130.19006317,-132.72981749,130.56712352,-122.10558477,151.17008902,-57.63095047
157.43486794,-85.84803854,81.68646023,178.92750036,45.79352812,9.43543556
-9.54179570,-1.52433035,-0.52744986,-0.81540884

>  <Name>
2bee_lig

>  <RI>
0

>  <Rbt.Current_Directory>
/home/itssahil/PROJECTS/Mol_Feturizer/New_Systems/rnas/2bee

>  <Rbt.Executable>
rbdock ($Id: //depot/dev/client3/rdock/2013.1/src/exe/rbdock.cxx#4 $)

>  <Rbt.Library>
libRbt.so (2013.1, Build901 2013/11/27)

>  <Rbt.Parameter_File>
/export/apps/rDock/src/rDock_2013.1_src/data/scripts/dock_solv.prm

>  <Rbt.Receptor>
prm/blind_docking_60.prm

>  <SCORE>
86.4016

>  <SCORE.INTER>
48.8676

>  <SCORE.INTER.CONST>
1

>  <SCORE.INTER.POLAR>
-0.58656

>  <SCORE.INTER.ROT>
16

>  <SCORE.INTER.SOLV>
34.5485

>  <SCORE.INTER.VDW>
8.75079

>  <SCORE.INTER.norm>
0.997299

>  <SCORE.INTRA>
14.2064

>  <SCORE.INTRA.DIHEDRAL>
8.55627

>  <SCORE.INTRA.DIHEDRAL.0>
36.0842

>  <SCORE.INTRA.POLAR>
0

>  <SCORE.INTRA.POLAR.0>
0

>  <SCORE.INTRA.REPUL>
0

>  <SCORE.INTRA.REPUL.0>
0

>  <SCORE.INTRA.SOLV>
9.51998

>  <SCORE.INTRA.SOLV.lig_0>
-126.444

>  <SCORE.INTRA.VDW>
5.16822

>  <SCORE.INTRA.VDW.0>
-7.40469

>  <SCORE.INTRA.norm>
0.289926

>  <SCORE.RESTR>
23.3276

>  <SCORE.RESTR.CAVITY>
23.3276

>  <SCORE.RESTR.norm>
0.476074

>  <SCORE.SYSTEM>
0

>  <SCORE.SYSTEM.CONST>
0

>  <SCORE.SYSTEM.DIHEDRAL>
0

>  <SCORE.SYSTEM.SOLV>
0

>  <SCORE.SYSTEM.norm>
0

>  <SCORE.heavy>
49

>  <SCORE.norm>
1.7633

>  <RMSD>
11.344

$$$$
2bee_lig
 OpenBabel11021811423D
libRbt.so/2013.1/901 2013/11/27
 49 52  0  0  0  0  0  0  0  0999 V2000
   38.9067    3.9359   -2.0040 C   0  0  2  0  0  0  0  0  0  0  0  0
   39.3678    3.1650   -0.9017 O   0  0  0  0  0  0  0  0  0  0  0  0
   37.5085    0.2182    1.7879 C   0  0  2  0  0  0  0  0  0  0  0  0
   36.5620   -0.3638    2.7780 N   0  0  0  0  0  0  0  0  0  0  0  0
   36.4989    1.0300   -2.7005 C   0  0  1  0  0  0  0  0  0  0  0  0
   34.0266   -2.9092   -2.7907 C   0  0  1  0  0  0  0  0  0  0  0  0
   35.1737    0.5496   -9.4400 C   0  0  0  0  0  0  0  0  0  0  0  0
   40.0946    4.2357   -2.9981 C   0  0  2  0  0  0  0  0  0  0  0  0
   40.7340    2.9886   -3.4037 N   0  0  0  0  0  0  0  0  0  0  0  0
   38.1660    1.5386    2.3979 C   0  0  0  0  0  0  0  0  0  0  0  0
   36.1725   -0.1914   -3.4969 C   0  0  2  0  0  0  0  0  0  0  0  0
   36.3091    0.0163   -4.9490 O   0  0  0  0  0  0  0  0  0  0  0  0
   35.1741   -3.4816   -1.7974 C   0  0  2  0  0  0  0  0  0  0  0  0
   36.4529   -2.7534   -2.0934 N   0  0  0  0  0  0  0  0  0  0  0  0
   35.7067    1.3310  -10.4917 C   0  0  0  0  0  0  0  0  0  0  0  0
   35.8917    0.7660  -11.7515 N   0  0  0  0  0  0  0  0  0  0  0  0
   41.1279    5.2237   -2.2995 C   0  0  1  0  0  0  0  0  0  0  0  0
   42.1905    5.4914   -3.2029 O   0  0  0  0  0  0  0  0  0  0  0  0
   39.2043    2.2165    1.3330 C   0  0  2  0  0  0  0  0  0  0  0  0
   39.8029    3.3904    1.8715 N   0  0  0  0  0  0  0  0  0  0  0  0
   34.8336   -0.4639   -2.8550 C   0  0  2  0  0  0  0  0  0  0  0  0
   33.9735   -1.4870   -2.5257 O   0  0  0  0  0  0  0  0  0  0  0  0
   35.3365   -5.0212   -2.0612 C   0  0  1  0  0  0  0  0  0  0  0  0
   34.0531   -5.6601   -1.7352 O   0  0  0  0  0  0  0  0  0  0  0  0
   40.3923    6.5238   -1.8992 C   0  0  2  0  0  0  0  0  0  0  0  0
   41.3194    7.4703   -1.2279 O   0  0  0  0  0  0  0  0  0  0  0  0
   38.4432    2.5744   -0.0026 C   0  0  2  0  0  0  0  0  0  0  0  0
   34.2533    1.0146   -2.6002 C   0  0  2  0  0  0  0  0  0  0  0  0
   35.3634    1.6887   -2.2166 O   0  0  0  0  0  0  0  0  0  0  0  0
   35.7449   -5.2564   -3.6237 C   0  0  2  0  0  0  0  0  0  0  0  0
   37.0368   -4.6068   -3.9406 O   0  0  0  0  0  0  0  0  0  0  0  0
   39.2130    6.2127   -0.9182 C   0  0  2  0  0  0  0  0  0  0  0  0
   38.3600    5.2818   -1.6323 O   0  0  0  0  0  0  0  0  0  0  0  0
   37.8164    1.2502   -0.5557 C   0  0  2  0  0  0  0  0  0  0  0  0
   37.1915    1.6762   -1.7423 O   0  0  0  0  0  0  0  0  0  0  0  0
   33.2009    1.2052   -1.4461 C   0  0  0  0  0  0  0  0  0  0  0  0
   33.7986    0.8054   -0.1724 O   0  0  0  0  0  0  0  0  0  0  0  0
   34.6255   -4.6465   -4.5798 C   0  0  1  0  0  0  0  0  0  0  0  0
   34.4954   -3.1794   -4.2273 O   0  0  0  0  0  0  0  0  0  0  0  0
   38.5588    7.4987   -0.6116 C   0  0  0  0  0  0  0  0  0  0  0  0
   38.1178    8.0796   -1.7356 O   0  0  0  0  0  0  0  0  0  0  0  0
   36.7886    0.6311    0.4848 C   0  0  1  0  0  0  0  0  0  0  0  0
   36.2439   -0.5520   -0.0152 O   0  0  0  0  0  0  0  0  0  0  0  0
   37.5486    0.4156   -5.6354 C   0  0  0  0  0  0  0  0  0  0  0  0
   35.1312   -4.9103   -6.0385 C   0  0  0  0  0  0  0  0  0  0  0  0
   34.2768   -4.3376   -7.0388 N   0  0  0  0  0  0  0  0  0  0  0  0
   37.3138    0.4066   -7.1466 C   0  0  0  0  0  0  0  0  0  0  0  0
   36.4104    1.5352   -7.4434 N   0  0  0  0  0  0  0  0  0  0  0  0
   35.0192    1.2202   -7.9973 C   0  0  0  0  0  0  0  0  0  0  0  0
  1  2  1  1  0  0  0
  1  8  1  0  0  0  0
  1 33  1  0  0  0  0
  3  4  1  1  0  0  0
  3 10  1  0  0  0  0
  3 42  1  0  0  0  0
  5 11  1  0  0  0  0
  5 29  1  0  0  0  0
  5 35  1  1  0  0  0
  6 13  1  0  0  0  0
  6 39  1  0  0  0  0
  6 22  1  6  0  0  0
  7 15  1  0  0  0  0
  8  9  1  1  0  0  0
  8 17  1  0  0  0  0
 10 19  1  0  0  0  0
 11 12  1  6  0  0  0
 11 21  1  0  0  0  0
 12 44  1  0  0  0  0
 13 14  1  6  0  0  0
 13 23  1  0  0  0  0
 15 16  1  0  0  0  0
 17 18  1  6  0  0  0
 17 25  1  0  0  0  0
 19 20  1  1  0  0  0
 19 27  1  0  0  0  0
 21 22  1  6  0  0  0
 21 28  1  0  0  0  0
 23 24  1  6  0  0  0
 23 30  1  0  0  0  0
 25 26  1  1  0  0  0
 25 32  1  0  0  0  0
 27  2  1  6  0  0  0
 27 34  1  0  0  0  0
 28 29  1  0  0  0  0
 28 36  1  1  0  0  0
 30 31  1  6  0  0  0
 30 38  1  0  0  0  0
 32 33  1  0  0  0  0
 32 40  1  6  0  0  0
 34 35  1  6  0  0  0
 34 42  1  0  0  0  0
 36 37  1  0  0  0  0
 38 39  1  0  0  0  0
 38 45  1  6  0  0  0
 40 41  1  0  0  0  0
 42 43  1  6  0  0  0
 44 47  1  0  0  0  0
 45 46  1  0  0  0  0
 47 48  1  0  0  0  0
 48 49  1  0  0  0  0
 49  7  1  0  0  0  0
M  END
>  <CHROM.1>
-168.81542050,-27.34411503,73.42048478,178.10798666,59.53287688,175.08518017
-4.68131319,-161.31777069,60.00614024,58.68733394,178.52647828,-175.96925458
69.99667963,-115.42979996,-65.02652317,-65.73595868,36.93302271,0.87474858
-2.80462523,-0.23159962,-1.08852188,-1.38337991

>  <Name>
2bee_lig

>  <RI>
0

>  <Rbt.Current_Directory>
/home/itssahil/PROJECTS/Mol_Feturizer/New_Systems/rnas/2bee

>  <Rbt.Executable>
rbdock ($Id: //depot/dev/client3/rdock/2013.1/src/exe/rbdock.cxx#4 $)

>  <Rbt.Library>
libRbt.so (2013.1, Build901 2013/11/27)

>  <Rbt.Parameter_File>
/export/apps/rDock/src/rDock_2013.1_src/data/scripts/dock_solv.prm

>  <Rbt.Receptor>
prm/pocket_docking_8.prm

>  <SCORE>
-9.90767

>  <SCORE.INTER>
1.34816

>  <SCORE.INTER.CONST>
1

>  <SCORE.INTER.POLAR>
0

>  <SCORE.INTER.ROT>
16

>  <SCORE.INTER.SOLV>
8.97963

>  <SCORE.INTER.VDW>
-16.3611

>  <SCORE.INTER.norm>
0.0275135

>  <SCORE.INTRA>
-11.2558

>  <SCORE.INTRA.DIHEDRAL>
-24.2496

>  <SCORE.INTRA.DIHEDRAL.0>
36.0842

>  <SCORE.INTRA.POLAR>
0

>  <SCORE.INTRA.POLAR.0>
0

>  <SCORE.INTRA.REPUL>
0

>  <SCORE.INTRA.REPUL.0>
0

>  <SCORE.INTRA.SOLV>
0.664102

>  <SCORE.INTRA.SOLV.lig_0>
-126.444

>  <SCORE.INTRA.VDW>
0.536902

>  <SCORE.INTRA.VDW.0>
-7.40469

>  <SCORE.INTRA.norm>
-0.229711

>  <SCORE.RESTR>
0

>  <SCORE.RESTR.CAVITY>
0

>  <SCORE.RESTR.norm>
0

>  <SCORE.SYSTEM>
0

>  <SCORE.SYSTEM.CONST>
0

>  <SCORE.SYSTEM.DIHEDRAL>
0

>  <SCORE.SYSTEM.SOLV>
0

>  <SCORE.SYSTEM.norm>
0

>  <SCORE.heavy>
49

>  <SCORE.norm>
-0.202197

>  <RMSD>
11.352

$$$$
2bee_lig
 OpenBabel11021811423D
libRbt.so/2013.1/901 2013/11/27
 49 52  0  0  0  0  0  0  0  0999 V2000
   39.1142    4.8720    4.7188 C   0  0  2  0  0  0  0  0  0  0  0  0
   40.3754    5.0274    4.0805 O   0  0  0  0  0  0  0  0  0  0  0  0
   39.1371    6.8181    0.2550 C   0  0  2  0  0  0  0  0  0  0  0  0
   39.2431    7.4741   -1.0767 N   0  0  0  0  0  0  0  0  0  0  0  0
   40.2502    2.3761    1.0525 C   0  0  1  0  0  0  0  0  0  0  0  0
   38.7002    1.5741   -3.2255 C   0  0  1  0  0  0  0  0  0  0  0  0
   34.3209   -2.3446    1.1017 C   0  0  0  0  0  0  0  0  0  0  0  0
   39.3011    4.2529    6.1578 C   0  0  2  0  0  0  0  0  0  0  0  0
   40.2353    5.0622    6.9330 N   0  0  0  0  0  0  0  0  0  0  0  0
   39.8682    7.7216    1.3491 C   0  0  0  0  0  0  0  0  0  0  0  0
   39.4675    1.4125    0.2209 C   0  0  2  0  0  0  0  0  0  0  0  0
   39.4629    0.0475    0.7750 O   0  0  0  0  0  0  0  0  0  0  0  0
   38.3175    0.0126   -3.0105 C   0  0  2  0  0  0  0  0  0  0  0  0
   39.4840   -0.8194   -3.4581 N   0  0  0  0  0  0  0  0  0  0  0  0
   34.6086   -3.6504    1.5634 C   0  0  0  0  0  0  0  0  0  0  0  0
   35.9132   -3.9915    1.9130 N   0  0  0  0  0  0  0  0  0  0  0  0
   39.8021    2.7487    6.0218 C   0  0  1  0  0  0  0  0  0  0  0  0
   39.9629    2.1986    7.3213 O   0  0  0  0  0  0  0  0  0  0  0  0
   39.7852    7.0272    2.8264 C   0  0  2  0  0  0  0  0  0  0  0  0
   40.4269    7.8302    3.8111 N   0  0  0  0  0  0  0  0  0  0  0  0
   40.1366    1.7351   -1.0933 C   0  0  2  0  0  0  0  0  0  0  0  0
   39.9055    1.7774   -2.4497 O   0  0  0  0  0  0  0  0  0  0  0  0
   37.0425   -0.3090   -3.8689 C   0  0  1  0  0  0  0  0  0  0  0  0
   35.9479    0.5308   -3.3607 O   0  0  0  0  0  0  0  0  0  0  0  0
   38.7700    1.9450    5.1972 C   0  0  2  0  0  0  0  0  0  0  0  0
   39.2075    0.5352    5.0325 O   0  0  0  0  0  0  0  0  0  0  0  0
   40.4580    5.6000    2.7854 C   0  0  2  0  0  0  0  0  0  0  0  0
   41.6608    2.0104   -0.6592 C   0  0  2  0  0  0  0  0  0  0  0  0
   41.5029    2.6789    0.5079 O   0  0  0  0  0  0  0  0  0  0  0  0
   37.3609    0.0043   -5.4386 C   0  0  2  0  0  0  0  0  0  0  0  0
   38.4657   -0.8450   -5.9383 O   0  0  0  0  0  0  0  0  0  0  0  0
   38.5890    2.5721    3.7746 C   0  0  2  0  0  0  0  0  0  0  0  0
   38.1739    3.9415    4.0130 O   0  0  0  0  0  0  0  0  0  0  0  0
   39.7086    4.7582    1.6980 C   0  0  2  0  0  0  0  0  0  0  0  0
   40.3655    3.5155    1.7624 O   0  0  0  0  0  0  0  0  0  0  0  0
   42.5353    2.9364   -1.5830 C   0  0  0  0  0  0  0  0  0  0  0  0
   41.9063    4.2528   -1.6866 O   0  0  0  0  0  0  0  0  0  0  0  0
   37.7778    1.5317   -5.6182 C   0  0  1  0  0  0  0  0  0  0  0  0
   38.9756    1.7707   -4.7229 O   0  0  0  0  0  0  0  0  0  0  0  0
   37.5766    1.7607    3.0730 C   0  0  0  0  0  0  0  0  0  0  0  0
   36.4057    1.8085    3.7226 O   0  0  0  0  0  0  0  0  0  0  0  0
   39.8328    5.4387    0.2684 C   0  0  1  0  0  0  0  0  0  0  0  0
   39.1544    4.6848   -0.6895 O   0  0  0  0  0  0  0  0  0  0  0  0
   38.6925   -1.0843    0.2343 C   0  0  0  0  0  0  0  0  0  0  0  0
   38.0770    1.7076   -7.1455 C   0  0  0  0  0  0  0  0  0  0  0  0
   39.2971    1.0723   -7.5532 N   0  0  0  0  0  0  0  0  0  0  0  0
   37.1988   -0.8105    0.4159 C   0  0  0  0  0  0  0  0  0  0  0  0
   36.4810   -1.9495   -0.1886 N   0  0  0  0  0  0  0  0  0  0  0  0
   34.9560   -1.8719   -0.2869 C   0  0  0  0  0  0  0  0  0  0  0  0
  1  2  1  6  0  0  0
  1  8  1  0  0  0  0
  1 33  1  0  0  0  0
  3  4  1  6  0  0  0
  3 10  1  0  0  0  0
  3 42  1  0  0  0  0
  5 11  1  0  0  0  0
  5 29  1  0  0  0  0
  5 35  1  6  0  0  0
  6 13  1  0  0  0  0
  6 39  1  0  0  0  0
  6 22  1  1  0  0  0
  7 15  1  0  0  0  0
  8  9  1  1  0  0  0
  8 17  1  0  0  0  0
 10 19  1  0  0  0  0
 11 12  1  1  0  0  0
 11 21  1  0  0  0  0
 12 44  1  0  0  0  0
 13 14  1  6  0  0  0
 13 23  1  0  0  0  0
 15 16  1  0  0  0  0
 17 18  1  1  0  0  0
 17 25  1  0  0  0  0
 19 20  1  1  0  0  0
 19 27  1  0  0  0  0
 21 22  1  6  0  0  0
 21 28  1  0  0  0  0
 23 24  1  1  0  0  0
 23 30  1  0  0  0  0
 25 26  1  6  0  0  0
 25 32  1  0  0  0  0
 27  2  1  1  0  0  0
 27 34  1  0  0  0  0
 28 29  1  0  0  0  0
 28 36  1  6  0  0  0
 30 31  1  1  0  0  0
 30 38  1  0  0  0  0
 32 33  1  0  0  0  0
 32 40  1  6  0  0  0
 34 35  1  6  0  0  0
 34 42  1  0  0  0  0
 36 37  1  0  0  0  0
 38 39  1  0  0  0  0
 38 45  1  6  0  0  0
 40 41  1  0  0  0  0
 42 43  1  6  0  0  0
 44 47  1  0  0  0  0
 45 46  1  0  0  0  0
 47 48  1  0  0  0  0
 48 49  1  0  0  0  0
 49  7  1  0  0  0  0
M  END
>  <CHROM.1>
-178.38147961,-27.53523950,-66.02968064,65.29533460,174.93569047,-66.47205568
5.58611033,56.56710277,59.06027414,61.53864490,-176.40367932,-71.99720349
177.87128664,-173.50587876,-83.95277655,-59.26114044,38.86237983,2.17297833
0.40009224,-1.17879743,-1.07363473,-1.71160023

>  <Name>
2bee_lig

>  <RI>
0

>  <Rbt.Current_Directory>
/home/itssahil/PROJECTS/Mol_Feturizer/New_Systems/rnas/2bee

>  <Rbt.Executable>
rbdock ($Id: //depot/dev/client3/rdock/2013.1/src/exe/rbdock.cxx#4 $)

>  <Rbt.Library>
libRbt.so (2013.1, Build901 2013/11/27)

>  <Rbt.Parameter_File>
/export/apps/rDock/src/rDock_2013.1_src/data/scripts/dock_solv.prm

>  <Rbt.Receptor>
prm/pocket_docking_8.prm

>  <SCORE>
-10.0709

>  <SCORE.INTER>
2.34614

>  <SCORE.INTER.CONST>
1

>  <SCORE.INTER.POLAR>
0

>  <SCORE.INTER.ROT>
16

>  <SCORE.INTER.SOLV>
7.86545

>  <SCORE.INTER.VDW>
-15.3244

>  <SCORE.INTER.norm>
0.0478804

>  <SCORE.INTRA>
-12.4171

>  <SCORE.INTRA.DIHEDRAL>
-27.4874

>  <SCORE.INTRA.DIHEDRAL.0>
36.0842

>  <SCORE.INTRA.POLAR>
0

>  <SCORE.INTRA.POLAR.0>
0

>  <SCORE.INTRA.REPUL>
0

>  <SCORE.INTRA.REPUL.0>
0

>  <SCORE.INTRA.SOLV>
4.55961

>  <SCORE.INTRA.SOLV.lig_0>
-126.444

>  <SCORE.INTRA.VDW>
-0.953176

>  <SCORE.INTRA.VDW.0>
-7.40469

>  <SCORE.INTRA.norm>
-0.253409

>  <SCORE.RESTR>
0

>  <SCORE.RESTR.CAVITY>
0

>  <SCORE.RESTR.norm>
0

>  <SCORE.SYSTEM>
0

>  <SCORE.SYSTEM.CONST>
0

>  <SCORE.SYSTEM.DIHEDRAL>
0

>  <SCORE.SYSTEM.SOLV>
0

>  <SCORE.SYSTEM.norm>
0

>  <SCORE.heavy>
49

>  <SCORE.norm>
-0.205529

>  <RMSD>
11.395

$$$$
2bee_lig
 OpenBabel11021811423D
libRbt.so/2013.1/901 2013/11/27
 49 52  0  0  0  0  0  0  0  0999 V2000
   35.5768   -0.7188   -5.5369 C   0  0  2  0  0  0  0  0  0  0  0  0
   36.1774   -0.9345   -4.2662 O   0  0  0  0  0  0  0  0  0  0  0  0
   39.7532    0.8473   -2.4186 C   0  0  2  0  0  0  0  0  0  0  0  0
   41.1882    1.1502   -2.1661 N   0  0  0  0  0  0  0  0  0  0  0  0
   38.0153    1.5560   -6.5245 C   0  0  1  0  0  0  0  0  0  0  0  0
   39.1590   -0.8128  -10.4185 C   0  0  1  0  0  0  0  0  0  0  0  0
   39.9711    2.6748  -13.2370 C   0  0  0  0  0  0  0  0  0  0  0  0
   34.0360   -1.0529   -5.4786 C   0  0  2  0  0  0  0  0  0  0  0  0
   33.3989   -0.2893   -4.4111 N   0  0  0  0  0  0  0  0  0  0  0  0
   39.5223   -0.7297   -2.3307 C   0  0  0  0  0  0  0  0  0  0  0  0
   39.0788    1.2498   -7.5284 C   0  0  2  0  0  0  0  0  0  0  0  0
   39.9739    2.3918   -7.7833 O   0  0  0  0  0  0  0  0  0  0  0  0
   38.3852   -1.6538  -11.5696 C   0  0  2  0  0  0  0  0  0  0  0  0
   37.4658   -2.6302  -10.8954 N   0  0  0  0  0  0  0  0  0  0  0  0
   39.4890    2.2549  -14.4988 C   0  0  0  0  0  0  0  0  0  0  0  0
   40.3508    2.2133  -15.5925 N   0  0  0  0  0  0  0  0  0  0  0  0
   33.8453   -2.6192   -5.2728 C   0  0  1  0  0  0  0  0  0  0  0  0
   32.4562   -2.9109   -5.2263 O   0  0  0  0  0  0  0  0  0  0  0  0
   37.9573   -1.1051   -2.6161 C   0  0  2  0  0  0  0  0  0  0  0  0
   37.7395   -2.5093   -2.5310 N   0  0  0  0  0  0  0  0  0  0  0  0
   38.1588    0.7070   -8.5950 C   0  0  2  0  0  0  0  0  0  0  0  0
   38.1109   -0.1951   -9.6338 O   0  0  0  0  0  0  0  0  0  0  0  0
   39.4550   -2.4058  -12.4391 C   0  0  1  0  0  0  0  0  0  0  0  0
   40.3013   -1.3847  -13.0737 O   0  0  0  0  0  0  0  0  0  0  0  0
   34.5364   -3.3694   -6.4352 C   0  0  2  0  0  0  0  0  0  0  0  0
   34.3954   -4.8391   -6.2735 O   0  0  0  0  0  0  0  0  0  0  0  0
   37.5355   -0.5889   -4.0467 C   0  0  2  0  0  0  0  0  0  0  0  0
   36.8547    1.6372   -8.4480 C   0  0  2  0  0  0  0  0  0  0  0  0
   36.7615    1.7780   -7.1043 O   0  0  0  0  0  0  0  0  0  0  0  0
   40.3265   -3.3956  -11.4777 C   0  0  2  0  0  0  0  0  0  0  0  0
   39.4638   -4.4173  -10.8427 O   0  0  0  0  0  0  0  0  0  0  0  0
   36.0624   -3.0253   -6.4862 C   0  0  2  0  0  0  0  0  0  0  0  0
   36.1222   -1.5834   -6.6339 O   0  0  0  0  0  0  0  0  0  0  0  0
   37.7840    0.9569   -4.0807 C   0  0  2  0  0  0  0  0  0  0  0  0
   37.3578    1.3100   -5.3744 O   0  0  0  0  0  0  0  0  0  0  0  0
   35.4743    1.0536   -8.9271 C   0  0  0  0  0  0  0  0  0  0  0  0
   34.4342    2.0688   -8.7629 O   0  0  0  0  0  0  0  0  0  0  0  0
   41.0405   -2.5534  -10.3288 C   0  0  1  0  0  0  0  0  0  0  0  0
   39.9496   -1.8223   -9.5744 O   0  0  0  0  0  0  0  0  0  0  0  0
   36.6307   -3.7612   -7.6313 C   0  0  0  0  0  0  0  0  0  0  0  0
   35.9936   -3.4313   -8.7629 O   0  0  0  0  0  0  0  0  0  0  0  0
   39.3168    1.2908   -3.8327 C   0  0  1  0  0  0  0  0  0  0  0  0
   39.5238    2.6702   -3.8566 O   0  0  0  0  0  0  0  0  0  0  0  0
   41.0217    2.4336   -8.8163 C   0  0  0  0  0  0  0  0  0  0  0  0
   41.8219   -3.6007   -9.4655 C   0  0  0  0  0  0  0  0  0  0  0  0
   40.9566   -4.4541   -8.7028 N   0  0  0  0  0  0  0  0  0  0  0  0
   40.3697    2.3792  -10.1987 C   0  0  0  0  0  0  0  0  0  0  0  0
   41.4639    2.4340  -11.1875 N   0  0  0  0  0  0  0  0  0  0  0  0
   41.1985    1.8816  -12.5896 C   0  0  0  0  0  0  0  0  0  0  0  0
  1  2  1  1  0  0  0
  1  8  1  0  0  0  0
  1 33  1  0  0  0  0
  3  4  1  6  0  0  0
  3 10  1  0  0  0  0
  3 42  1  0  0  0  0
  5 11  1  0  0  0  0
  5 29  1  0  0  0  0
  5 35  1  1  0  0  0
  6 13  1  0  0  0  0
  6 39  1  0  0  0  0
  6 22  1  1  0  0  0
  7 15  1  0  0  0  0
  8  9  1  1  0  0  0
  8 17  1  0  0  0  0
 10 19  1  0  0  0  0
 11 12  1  6  0  0  0
 11 21  1  0  0  0  0
 12 44  1  0  0  0  0
 13 14  1  1  0  0  0
 13 23  1  0  0  0  0
 15 16  1  0  0  0  0
 17 18  1  6  0  0  0
 17 25  1  0  0  0  0
 19 20  1  6  0  0  0
 19 27  1  0  0  0  0
 21 22  1  6  0  0  0
 21 28  1  0  0  0  0
 23 24  1  1  0  0  0
 23 30  1  0  0  0  0
 25 26  1  1  0  0  0
 25 32  1  0  0  0  0
 27  2  1  1  0  0  0
 27 34  1  0  0  0  0
 28 29  1  0  0  0  0
 28 36  1  1  0  0  0
 30 31  1  1  0  0  0
 30 38  1  0  0  0  0
 32 33  1  0  0  0  0
 32 40  1  6  0  0  0
 34 35  1  6  0  0  0
 34 42  1  0  0  0  0
 36 37  1  0  0  0  0
 38 39  1  0  0  0  0
 38 45  1  1  0  0  0
 40 41  1  0  0  0  0
 42 43  1  1  0  0  0
 44 47  1  0  0  0  0
 45 46  1  0  0  0  0
 47 48  1  0  0  0  0
 48 49  1  0  0  0  0
 49  7  1  0  0  0  0
M  END
>  <CHROM.1>
-174.51060371,42.50420316,-174.43855102,-57.57200024,-173.38366443,65.48288349
-20.77228278,-173.12272131,-177.58153594,57.33539287,-100.20149994,-69.85014646
179.60071286,157.32858882,58.71234756,-175.26000620,38.05597651,-0.53145444
-7.84943407,2.28407248,0.86240899,1.13638768

>  <Name>
2bee_lig

>  <RI>
0

>  <Rbt.Current_Directory>
/home/itssahil/PROJECTS/Mol_Feturizer/New_Systems/rnas/2bee

>  <Rbt.Executable>
rbdock ($Id: //depot/dev/client3/rdock/2013.1/src/exe/rbdock.cxx#4 $)

>  <Rbt.Library>
libRbt.so (2013.1, Build901 2013/11/27)

>  <Rbt.Parameter_File>
/export/apps/rDock/src/rDock_2013.1_src/data/scripts/dock_solv.prm

>  <Rbt.Receptor>
prm/pocket_docking_8.prm

>  <SCORE>
-5.50162

>  <SCORE.INTER>
5.96837

>  <SCORE.INTER.CONST>
1

>  <SCORE.INTER.POLAR>
0

>  <SCORE.INTER.ROT>
16

>  <SCORE.INTER.SOLV>
6.50615

>  <SCORE.INTER.VDW>
-12.4565

>  <SCORE.INTER.norm>
0.121804

>  <SCORE.INTRA>
-11.47

>  <SCORE.INTRA.DIHEDRAL>
-23.4764

>  <SCORE.INTRA.DIHEDRAL.0>
36.0842

>  <SCORE.INTRA.POLAR>
0

>  <SCORE.INTRA.POLAR.0>
0

>  <SCORE.INTRA.REPUL>
0

>  <SCORE.INTRA.REPUL.0>
0

>  <SCORE.INTRA.SOLV>
0.0895034

>  <SCORE.INTRA.SOLV.lig_0>
-126.444

>  <SCORE.INTRA.VDW>
0.223455

>  <SCORE.INTRA.VDW.0>
-7.40469

>  <SCORE.INTRA.norm>
-0.234081

>  <SCORE.RESTR>
0

>  <SCORE.RESTR.CAVITY>
0

>  <SCORE.RESTR.norm>
0

>  <SCORE.SYSTEM>
0

>  <SCORE.SYSTEM.CONST>
0

>  <SCORE.SYSTEM.DIHEDRAL>
0

>  <SCORE.SYSTEM.SOLV>
0

>  <SCORE.SYSTEM.norm>
0

>  <SCORE.heavy>
49

>  <SCORE.norm>
-0.112278

>  <RMSD>
12.646

$$$$
2bee_lig
 OpenBabel11021811423D
libRbt.so/2013.1/901 2013/11/27
 49 52  0  0  0  0  0  0  0  0999 V2000
   29.1720   22.1435   -6.1071 C   0  0  2  0  0  0  0  0  0  0  0  0
   28.7566   21.4413   -7.2717 O   0  0  0  0  0  0  0  0  0  0  0  0
   24.7669   19.8681   -8.2625 C   0  0  2  0  0  0  0  0  0  0  0  0
   23.5849   18.9637   -8.2618 N   0  0  0  0  0  0  0  0  0  0  0  0
   26.6696   21.4028   -4.3850 C   0  0  1  0  0  0  0  0  0  0  0  0
   28.6592   22.0460   -0.0794 C   0  0  1  0  0  0  0  0  0  0  0  0
   20.9578   18.9214   -1.3482 C   0  0  0  0  0  0  0  0  0  0  0  0
   30.6275   22.7193   -6.3043 C   0  0  2  0  0  0  0  0  0  0  0  0
   30.6824   23.5368   -7.5115 N   0  0  0  0  0  0  0  0  0  0  0  0
   26.0668   19.0388   -8.6752 C   0  0  0  0  0  0  0  0  0  0  0  0
   27.4216   20.7420   -3.2758 C   0  0  2  0  0  0  0  0  0  0  0  0
   26.8288   19.4571   -2.8658 O   0  0  0  0  0  0  0  0  0  0  0  0
   30.2478   21.7752   -0.2641 C   0  0  2  0  0  0  0  0  0  0  0  0
   30.4264   20.7945   -1.3863 N   0  0  0  0  0  0  0  0  0  0  0  0
   20.9567   19.3039    0.0136 C   0  0  0  0  0  0  0  0  0  0  0  0
   21.2606   18.3665    0.9983 N   0  0  0  0  0  0  0  0  0  0  0  0
   31.6655   21.5148   -6.3647 C   0  0  1  0  0  0  0  0  0  0  0  0
   32.9726   22.0428   -6.5376 O   0  0  0  0  0  0  0  0  0  0  0  0
   27.3917   19.9960   -8.6747 C   0  0  2  0  0  0  0  0  0  0  0  0
   28.5553   19.2672   -9.0504 N   0  0  0  0  0  0  0  0  0  0  0  0
   27.4509   21.9352   -2.3517 C   0  0  2  0  0  0  0  0  0  0  0  0
   28.2069   22.5297   -1.3668 O   0  0  0  0  0  0  0  0  0  0  0  0
   30.8116   21.1914    1.0803 C   0  0  1  0  0  0  0  0  0  0  0  0
   30.6134   22.2125    2.1195 O   0  0  0  0  0  0  0  0  0  0  0  0
   31.5619   20.6926   -5.0591 C   0  0  2  0  0  0  0  0  0  0  0  0
   32.5057   19.5460   -5.0803 O   0  0  0  0  0  0  0  0  0  0  0  0
   27.5985   20.6227   -7.2409 C   0  0  2  0  0  0  0  0  0  0  0  0
   26.0202   22.6229   -2.6122 C   0  0  2  0  0  0  0  0  0  0  0  0
   25.8754   22.4693   -3.9499 O   0  0  0  0  0  0  0  0  0  0  0  0
   30.0204   19.8094    1.4374 C   0  0  2  0  0  0  0  0  0  0  0  0
   30.2252   18.7904    0.3833 O   0  0  0  0  0  0  0  0  0  0  0  0
   30.1126   20.1320   -4.8717 C   0  0  2  0  0  0  0  0  0  0  0  0
   29.2509   21.2990   -4.8705 O   0  0  0  0  0  0  0  0  0  0  0  0
   26.2984   21.4196   -6.8843 C   0  0  2  0  0  0  0  0  0  0  0  0
   26.5982   21.9480   -5.6151 O   0  0  0  0  0  0  0  0  0  0  0  0
   25.8796   24.1640   -2.3276 C   0  0  0  0  0  0  0  0  0  0  0  0
   26.6465   24.5091   -1.1308 O   0  0  0  0  0  0  0  0  0  0  0  0
   28.4577   20.0918    1.5693 C   0  0  1  0  0  0  0  0  0  0  0  0
   28.0062   20.6979    0.2569 O   0  0  0  0  0  0  0  0  0  0  0  0
   30.1013   19.3872   -3.5986 C   0  0  0  0  0  0  0  0  0  0  0  0
   30.6930   18.1944   -3.7485 O   0  0  0  0  0  0  0  0  0  0  0  0
   25.0333   20.4598   -6.8605 C   0  0  1  0  0  0  0  0  0  0  0  0
   23.8808   21.1823   -6.5505 O   0  0  0  0  0  0  0  0  0  0  0  0
   25.4608   19.0152   -3.1822 C   0  0  0  0  0  0  0  0  0  0  0  0
   27.8065   18.7037    1.8890 C   0  0  0  0  0  0  0  0  0  0  0  0
   27.0882   18.1532    0.7756 N   0  0  0  0  0  0  0  0  0  0  0  0
   24.4648   20.0677   -2.6930 C   0  0  0  0  0  0  0  0  0  0  0  0
   23.3844   19.3406   -1.9987 N   0  0  0  0  0  0  0  0  0  0  0  0
   21.9368   19.6881   -2.3525 C   0  0  0  0  0  0  0  0  0  0  0  0
  1  2  1  6  0  0  0
  1  8  1  0  0  0  0
  1 33  1  0  0  0  0
  3  4  1  1  0  0  0
  3 10  1  0  0  0  0
  3 42  1  0  0  0  0
  5 11  1  0  0  0  0
  5 29  1  0  0  0  0
  5 35  1  6  0  0  0
  6 13  1  0  0  0  0
  6 39  1  0  0  0  0
  6 22  1  6  0  0  0
  7 15  1  0  0  0  0
  8  9  1  6  0  0  0
  8 17  1  0  0  0  0
 10 19  1  0  0  0  0
 11 12  1  1  0  0  0
 11 21  1  0  0  0  0
 12 44  1  0  0  0  0
 13 14  1  6  0  0  0
 13 23  1  0  0  0  0
 15 16  1  0  0  0  0
 17 18  1  1  0  0  0
 17 25  1  0  0  0  0
 19 20  1  1  0  0  0
 19 27  1  0  0  0  0
 21 22  1  1  0  0  0
 21 28  1  0  0  0  0
 23 24  1  1  0  0  0
 23 30  1  0  0  0  0
 25 26  1  6  0  0  0
 25 32  1  0  0  0  0
 27  2  1  6  0  0  0
 27 34  1  0  0  0  0
 28 29  1  0  0  0  0
 28 36  1  6  0  0  0
 30 31  1  6  0  0  0
 30 38  1  0  0  0  0
 32 33  1  0  0  0  0
 32 40  1  1  0  0  0
 34 35  1  1  0  0  0
 34 42  1  0  0  0  0
 36 37  1  0  0  0  0
 38 39  1  0  0  0  0
 38 45  1  6  0  0  0
 40 41  1  0  0  0  0
 42 43  1  6  0  0  0
 44 47  1  0  0  0  0
 45 46  1  0  0  0  0
 47 48  1  0  0  0  0
 48 49  1  0  0  0  0
 49  7  1  0  0  0  0
M  END
>  <CHROM.1>
167.85403991,91.27120609,107.02693208,-121.29937214,-17.22936073,-55.32102715
-58.76971092,179.41263377,-38.30592588,-76.76211625,-74.38029554,-106.66079624
-134.36567022,-131.77058056,-172.62556287,67.73655099,27.56400107,20.70558569
-3.45781870,-1.20229584,0.16923825,1.61739780

>  <Name>
2bee_lig

>  <RI>
0

>  <Rbt.Current_Directory>
/home/itssahil/PROJECTS/Mol_Feturizer/New_Systems/rnas/2bee

>  <Rbt.Executable>
rbdock ($Id: //depot/dev/client3/rdock/2013.1/src/exe/rbdock.cxx#4 $)

>  <Rbt.Library>
libRbt.so (2013.1, Build901 2013/11/27)

>  <Rbt.Parameter_File>
/export/apps/rDock/src/rDock_2013.1_src/data/scripts/dock_solv.prm

>  <Rbt.Receptor>
prm/blind_docking_40.prm

>  <SCORE>
47.1386

>  <SCORE.INTER>
11.3519

>  <SCORE.INTER.CONST>
1

>  <SCORE.INTER.POLAR>
-0.0255591

>  <SCORE.INTER.ROT>
16

>  <SCORE.INTER.SOLV>
24.4061

>  <SCORE.INTER.VDW>
-14.7489

>  <SCORE.INTER.norm>
0.231671

>  <SCORE.INTRA>
11.7349

>  <SCORE.INTRA.DIHEDRAL>
5.0916

>  <SCORE.INTRA.DIHEDRAL.0>
36.0842

>  <SCORE.INTRA.POLAR>
0

>  <SCORE.INTRA.POLAR.0>
0

>  <SCORE.INTRA.REPUL>
0.15691

>  <SCORE.INTRA.REPUL.0>
0

>  <SCORE.INTRA.SOLV>
3.08634

>  <SCORE.INTRA.SOLV.lig_0>
-126.444

>  <SCORE.INTRA.VDW>
6.86137

>  <SCORE.INTRA.VDW.0>
-7.40469

>  <SCORE.INTRA.norm>
0.239488

>  <SCORE.RESTR>
24.0518

>  <SCORE.RESTR.CAVITY>
24.0518

>  <SCORE.RESTR.norm>
0.490854

>  <SCORE.SYSTEM>
0

>  <SCORE.SYSTEM.CONST>
0

>  <SCORE.SYSTEM.DIHEDRAL>
0

>  <SCORE.SYSTEM.SOLV>
0

>  <SCORE.SYSTEM.norm>
0

>  <SCORE.heavy>
49

>  <SCORE.norm>
0.962012

>  <RMSD>
23.039

$$$$
2bee_lig
 OpenBabel11021811423D
libRbt.so/2013.1/901 2013/11/27
 49 52  0  0  0  0  0  0  0  0999 V2000
   27.5717   21.6447   -4.8663 C   0  0  2  0  0  0  0  0  0  0  0  0
   27.2023   20.3901   -5.4246 O   0  0  0  0  0  0  0  0  0  0  0  0
   23.1849   19.8755   -3.7014 C   0  0  2  0  0  0  0  0  0  0  0  0
   21.8582   19.2650   -3.4151 N   0  0  0  0  0  0  0  0  0  0  0  0
   27.8889   19.0114   -2.3620 C   0  0  1  0  0  0  0  0  0  0  0  0
   27.9561   22.3078    0.7050 C   0  0  1  0  0  0  0  0  0  0  0  0
   32.6897   21.2093    0.8911 C   0  0  0  0  0  0  0  0  0  0  0  0
   27.8485   22.6940   -6.0114 C   0  0  2  0  0  0  0  0  0  0  0  0
   26.6928   22.7836   -6.8975 N   0  0  0  0  0  0  0  0  0  0  0  0
   23.3486   20.0693   -5.2773 C   0  0  0  0  0  0  0  0  0  0  0  0
   28.9717   19.8623   -1.7823 C   0  0  2  0  0  0  0  0  0  0  0  0
   30.3149   19.2851   -1.9636 O   0  0  0  0  0  0  0  0  0  0  0  0
   29.2961   23.0600    0.1857 C   0  0  2  0  0  0  0  0  0  0  0  0
   30.4359   22.6460    1.0703 N   0  0  0  0  0  0  0  0  0  0  0  0
   33.4973   21.4160    2.0339 C   0  0  0  0  0  0  0  0  0  0  0  0
   33.7642   22.7118    2.4702 N   0  0  0  0  0  0  0  0  0  0  0  0
   29.1628   22.2731   -6.8035 C   0  0  1  0  0  0  0  0  0  0  0  0
   29.4064   23.2254   -7.8286 O   0  0  0  0  0  0  0  0  0  0  0  0
   24.8018   20.7266   -5.6346 C   0  0  2  0  0  0  0  0  0  0  0  0
   24.9537   20.9119   -7.0378 N   0  0  0  0  0  0  0  0  0  0  0  0
   28.3526   20.0222   -0.4148 C   0  0  2  0  0  0  0  0  0  0  0  0
   28.2694   20.8956    0.6459 O   0  0  0  0  0  0  0  0  0  0  0  0
   29.0600   24.6102    0.2710 C   0  0  1  0  0  0  0  0  0  0  0  0
   27.9443   24.9345   -0.6300 O   0  0  0  0  0  0  0  0  0  0  0  0
   30.3482   22.2008   -5.8131 C   0  0  2  0  0  0  0  0  0  0  0  0
   31.5953   21.7950   -6.5102 O   0  0  0  0  0  0  0  0  0  0  0  0
   25.9570   19.7967   -5.0944 C   0  0  2  0  0  0  0  0  0  0  0  0
   27.6647   18.5897   -0.1654 C   0  0  2  0  0  0  0  0  0  0  0  0
   27.1755   18.2965   -1.3938 O   0  0  0  0  0  0  0  0  0  0  0  0
   28.7226   25.0163    1.8153 C   0  0  2  0  0  0  0  0  0  0  0  0
   29.8515   24.6829    2.7129 O   0  0  0  0  0  0  0  0  0  0  0  0
   30.0593   21.1615   -4.6790 C   0  0  2  0  0  0  0  0  0  0  0  0
   28.8311   21.6134   -4.0532 O   0  0  0  0  0  0  0  0  0  0  0  0
   25.7486   19.6368   -3.5505 C   0  0  2  0  0  0  0  0  0  0  0  0
   26.8317   18.8207   -3.1754 O   0  0  0  0  0  0  0  0  0  0  0  0
   26.4431   18.5201    0.8238 C   0  0  0  0  0  0  0  0  0  0  0  0
   26.8414   19.0536    2.1262 O   0  0  0  0  0  0  0  0  0  0  0  0
   27.4299   24.2315    2.3175 C   0  0  1  0  0  0  0  0  0  0  0  0
   27.7194   22.7539    2.1547 O   0  0  0  0  0  0  0  0  0  0  0  0
   31.2245   21.1772   -3.7748 C   0  0  0  0  0  0  0  0  0  0  0  0
   31.0408   22.0665   -2.7895 O   0  0  0  0  0  0  0  0  0  0  0  0
   24.3438   18.9670   -3.2341 C   0  0  1  0  0  0  0  0  0  0  0  0
   24.1661   18.8380   -1.8563 O   0  0  0  0  0  0  0  0  0  0  0  0
   30.8718   18.1709   -1.1791 C   0  0  0  0  0  0  0  0  0  0  0  0
   27.2179   24.6807    3.8029 C   0  0  0  0  0  0  0  0  0  0  0  0
   27.8080   23.7785    4.7497 N   0  0  0  0  0  0  0  0  0  0  0  0
   32.3990   18.2256   -1.2390 C   0  0  0  0  0  0  0  0  0  0  0  0
   32.8537   18.8162    0.0348 N   0  0  0  0  0  0  0  0  0  0  0  0
   31.9296   19.8113    0.7400 C   0  0  0  0  0  0  0  0  0  0  0  0
  1  2  1  6  0  0  0
  1  8  1  0  0  0  0
  1 33  1  0  0  0  0
  3  4  1  6  0  0  0
  3 10  1  0  0  0  0
  3 42  1  0  0  0  0
  5 11  1  0  0  0  0
  5 29  1  0  0  0  0
  5 35  1  1  0  0  0
  6 13  1  0  0  0  0
  6 39  1  0  0  0  0
  6 22  1  1  0  0  0
  7 15  1  0  0  0  0
  8  9  1  6  0  0  0
  8 17  1  0  0  0  0
 10 19  1  0  0  0  0
 11 12  1  1  0  0  0
 11 21  1  0  0  0  0
 12 44  1  0  0  0  0
 13 14  1  1  0  0  0
 13 23  1  0  0  0  0
 15 16  1  0  0  0  0
 17 18  1  6  0  0  0
 17 25  1  0  0  0  0
 19 20  1  6  0  0  0
 19 27  1  0  0  0  0
 21 22  1  1  0  0  0
 21 28  1  0  0  0  0
 23 24  1  6  0  0  0
 23 30  1  0  0  0  0
 25 26  1  6  0  0  0
 25 32  1  0  0  0  0
 27  2  1  1  0  0  0
 27 34  1  0  0  0  0
 28 29  1  0  0  0  0
 28 36  1  1  0  0  0
 30 31  1  1  0  0  0
 30 38  1  0  0  0  0
 32 33  1  0  0  0  0
 32 40  1  1  0  0  0
 34 35  1  6  0  0  0
 34 42  1  0  0  0  0
 36 37  1  0  0  0  0
 38 39  1  0  0  0  0
 38 45  1  1  0  0  0
 40 41  1  0  0  0  0
 42 43  1  1  0  0  0
 44 47  1  0  0  0  0
 45 46  1  0  0  0  0
 47 48  1  0  0  0  0
 48 49  1  0  0  0  0
 49  7  1  0  0  0  0
M  END
>  <CHROM.1>
-121.74311816,-37.34270123,-75.96063366,-156.09902849,-76.58327684,-157.17847496
49.95412479,64.26609750,-56.56332396,90.99427517,117.24193117,-95.15488370
101.39292600,-29.62898745,-120.62165227,-87.78391302,28.37952970,21.14960957
-1.80309550,-2.06858164,0.20459945,1.44469175

>  <Name>
2bee_lig

>  <RI>
0

>  <Rbt.Current_Directory>
/home/itssahil/PROJECTS/Mol_Feturizer/New_Systems/rnas/2bee

>  <Rbt.Executable>
rbdock ($Id: //depot/dev/client3/rdock/2013.1/src/exe/rbdock.cxx#4 $)

>  <Rbt.Library>
libRbt.so (2013.1, Build901 2013/11/27)

>  <Rbt.Parameter_File>
/export/apps/rDock/src/rDock_2013.1_src/data/scripts/dock_solv.prm

>  <Rbt.Receptor>
prm/blind_docking_40.prm

>  <SCORE>
47.7707

>  <SCORE.INTER>
14.3667

>  <SCORE.INTER.CONST>
1

>  <SCORE.INTER.POLAR>
-0.266408

>  <SCORE.INTER.ROT>
16

>  <SCORE.INTER.SOLV>
20.8771

>  <SCORE.INTER.VDW>
-10.7598

>  <SCORE.INTER.norm>
0.293198

>  <SCORE.INTRA>
11.2585

>  <SCORE.INTRA.DIHEDRAL>
6.9809

>  <SCORE.INTRA.DIHEDRAL.0>
36.0842

>  <SCORE.INTRA.POLAR>
0

>  <SCORE.INTRA.POLAR.0>
0

>  <SCORE.INTRA.REPUL>
0

>  <SCORE.INTRA.REPUL.0>
0

>  <SCORE.INTRA.SOLV>
6.83107

>  <SCORE.INTRA.SOLV.lig_0>
-126.444

>  <SCORE.INTRA.VDW>
4.35251

>  <SCORE.INTRA.VDW.0>
-7.40469

>  <SCORE.INTRA.norm>
0.229765

>  <SCORE.RESTR>
22.1455

>  <SCORE.RESTR.CAVITY>
22.1455

>  <SCORE.RESTR.norm>
0.451949

>  <SCORE.SYSTEM>
0

>  <SCORE.SYSTEM.CONST>
0

>  <SCORE.SYSTEM.DIHEDRAL>
0

>  <SCORE.SYSTEM.SOLV>
0

>  <SCORE.SYSTEM.norm>
0

>  <SCORE.heavy>
49

>  <SCORE.norm>
0.974913

>  <RMSD>
23.104

$$$$
2bee_lig
 OpenBabel11021811423D
libRbt.so/2013.1/901 2013/11/27
 49 52  0  0  0  0  0  0  0  0999 V2000
   30.5702   21.5523   -5.5120 C   0  0  2  0  0  0  0  0  0  0  0  0
   29.4150   22.3378   -5.7775 O   0  0  0  0  0  0  0  0  0  0  0  0
   26.0858   22.1185   -8.6486 C   0  0  2  0  0  0  0  0  0  0  0  0
   25.0099   21.5334   -9.4941 N   0  0  0  0  0  0  0  0  0  0  0  0
   26.3226   21.2410   -4.1820 C   0  0  1  0  0  0  0  0  0  0  0  0
   27.7764   20.5787    0.0031 C   0  0  1  0  0  0  0  0  0  0  0  0
   20.6303   19.6250   -1.3150 C   0  0  0  0  0  0  0  0  0  0  0  0
   31.4749   22.2570   -4.4286 C   0  0  2  0  0  0  0  0  0  0  0  0
   30.6918   22.5402   -3.2306 N   0  0  0  0  0  0  0  0  0  0  0  0
   27.4740   21.4105   -8.9945 C   0  0  0  0  0  0  0  0  0  0  0  0
   26.5123   19.9754   -3.4107 C   0  0  2  0  0  0  0  0  0  0  0  0
   25.7362   18.8484   -3.9565 O   0  0  0  0  0  0  0  0  0  0  0  0
   28.4313   21.9381   -0.5921 C   0  0  2  0  0  0  0  0  0  0  0  0
   28.5949   21.7668   -2.0743 N   0  0  0  0  0  0  0  0  0  0  0  0
   19.5389   19.3536   -0.4570 C   0  0  0  0  0  0  0  0  0  0  0  0
   19.7702   18.8688    0.8284 N   0  0  0  0  0  0  0  0  0  0  0  0
   32.0993   23.5833   -5.0475 C   0  0  1  0  0  0  0  0  0  0  0  0
   32.9154   24.2080   -4.0672 O   0  0  0  0  0  0  0  0  0  0  0  0
   28.6814   22.0176   -8.0752 C   0  0  2  0  0  0  0  0  0  0  0  0
   29.9258   21.3986   -8.3828 N   0  0  0  0  0  0  0  0  0  0  0  0
   26.2194   20.5571   -2.0489 C   0  0  2  0  0  0  0  0  0  0  0  0
   26.5304   20.4143   -0.7155 O   0  0  0  0  0  0  0  0  0  0  0  0
   29.8233   22.1628    0.0992 C   0  0  1  0  0  0  0  0  0  0  0  0
   29.5758   22.3359    1.5382 O   0  0  0  0  0  0  0  0  0  0  0  0
   32.9184   23.2163   -6.3067 C   0  0  2  0  0  0  0  0  0  0  0  0
   33.5077   24.4307   -6.9264 O   0  0  0  0  0  0  0  0  0  0  0  0
   28.3480   21.8071   -6.5469 C   0  0  2  0  0  0  0  0  0  0  0  0
   25.0632   21.6309   -2.3612 C   0  0  2  0  0  0  0  0  0  0  0  0
   25.4769   22.1525   -3.5405 O   0  0  0  0  0  0  0  0  0  0  0  0
   30.7812   20.8746   -0.1949 C   0  0  2  0  0  0  0  0  0  0  0  0
   31.0211   20.7091   -1.6463 O   0  0  0  0  0  0  0  0  0  0  0  0
   32.0117   22.5128   -7.3710 C   0  0  2  0  0  0  0  0  0  0  0  0
   31.4665   21.3498   -6.6968 O   0  0  0  0  0  0  0  0  0  0  0  0
   26.9805   22.5153   -6.2623 C   0  0  2  0  0  0  0  0  0  0  0  0
   26.7954   22.2880   -4.8861 O   0  0  0  0  0  0  0  0  0  0  0  0
   24.8988   22.8459   -1.3751 C   0  0  0  0  0  0  0  0  0  0  0  0
   25.8122   23.9184   -1.7688 O   0  0  0  0  0  0  0  0  0  0  0  0
   30.0970   19.5461    0.3582 C   0  0  1  0  0  0  0  0  0  0  0  0
   28.7457   19.4318   -0.3160 O   0  0  0  0  0  0  0  0  0  0  0  0
   32.8759   22.1800   -8.5191 C   0  0  0  0  0  0  0  0  0  0  0  0
   32.2151   21.4116   -9.3956 O   0  0  0  0  0  0  0  0  0  0  0  0
   25.8204   21.8845   -7.1447 C   0  0  1  0  0  0  0  0  0  0  0  0
   24.6099   22.5291   -6.8889 O   0  0  0  0  0  0  0  0  0  0  0  0
   24.3255   18.9129   -4.3722 C   0  0  0  0  0  0  0  0  0  0  0  0
   31.0875   18.3858    0.0036 C   0  0  0  0  0  0  0  0  0  0  0  0
   31.1451   18.1099   -1.4032 N   0  0  0  0  0  0  0  0  0  0  0  0
   23.4820   18.0535   -3.4293 C   0  0  0  0  0  0  0  0  0  0  0  0
   22.7782   18.9817   -2.5231 N   0  0  0  0  0  0  0  0  0  0  0  0
   21.6300   18.4309   -1.6747 C   0  0  0  0  0  0  0  0  0  0  0  0
  1  2  1  6  0  0  0
  1  8  1  0  0  0  0
  1 33  1  0  0  0  0
  3  4  1  6  0  0  0
  3 10  1  0  0  0  0
  3 42  1  0  0  0  0
  5 11  1  0  0  0  0
  5 29  1  0  0  0  0
  5 35  1  1  0  0  0
  6 13  1  0  0  0  0
  6 39  1  0  0  0  0
  6 22  1  6  0  0  0
  7 15  1  0  0  0  0
  8  9  1  1  0  0  0
  8 17  1  0  0  0  0
 10 19  1  0  0  0  0
 11 12  1  6  0  0  0
 11 21  1  0  0  0  0
 12 44  1  0  0  0  0
 13 14  1  6  0  0  0
 13 23  1  0  0  0  0
 15 16  1  0  0  0  0
 17 18  1  1  0  0  0
 17 25  1  0  0  0  0
 19 20  1  6  0  0  0
 19 27  1  0  0  0  0
 21 22  1  1  0  0  0
 21 28  1  0  0  0  0
 23 24  1  1  0  0  0
 23 30  1  0  0  0  0
 25 26  1  6  0  0  0
 25 32  1  0  0  0  0
 27  2  1  1  0  0  0
 27 34  1  0  0  0  0
 28 29  1  0  0  0  0
 28 36  1  1  0  0  0
 30 31  1  6  0  0  0
 30 38  1  0  0  0  0
 32 33  1  0  0  0  0
 32 40  1  6  0  0  0
 34 35  1  1  0  0  0
 34 42  1  0  0  0  0
 36 37  1  0  0  0  0
 38 39  1  0  0  0  0
 38 45  1  6  0  0  0
 40 41  1  0  0  0  0
 42 43  1  1  0  0  0
 44 47  1  0  0  0  0
 45 46  1  0  0  0  0
 47 48  1  0  0  0  0
 48 49  1  0  0  0  0
 49  7  1  0  0  0  0
M  END
>  <CHROM.1>
-169.45403374,93.65167299,43.49892139,58.95534067,-45.35124718,-113.03855052
64.21714186,-84.59088215,85.67067285,171.50345610,-81.93884317,-70.13235042
103.83408419,166.79525265,-154.55804303,-175.83783834,27.84608350,21.25295456
-3.85638818,-0.58078736,0.19747524,1.75608381

>  <Name>
2bee_lig

>  <RI>
0

>  <Rbt.Current_Directory>
/home/itssahil/PROJECTS/Mol_Feturizer/New_Systems/rnas/2bee

>  <Rbt.Executable>
rbdock ($Id: //depot/dev/client3/rdock/2013.1/src/exe/rbdock.cxx#4 $)

>  <Rbt.Library>
libRbt.so (2013.1, Build901 2013/11/27)

>  <Rbt.Parameter_File>
/export/apps/rDock/src/rDock_2013.1_src/data/scripts/dock_solv.prm

>  <Rbt.Receptor>
prm/blind_docking_40.prm

>  <SCORE>
41.8096

>  <SCORE.INTER>
0.623624

>  <SCORE.INTER.CONST>
1

>  <SCORE.INTER.POLAR>
0

>  <SCORE.INTER.ROT>
16

>  <SCORE.INTER.SOLV>
17.4902

>  <SCORE.INTER.VDW>
-19.681

>  <SCORE.INTER.norm>
0.012727

>  <SCORE.INTRA>
11.0094

>  <SCORE.INTRA.DIHEDRAL>
-4.73699

>  <SCORE.INTRA.DIHEDRAL.0>
36.0842

>  <SCORE.INTRA.POLAR>
0

>  <SCORE.INTRA.POLAR.0>
0

>  <SCORE.INTRA.REPUL>
0.0607014

>  <SCORE.INTRA.REPUL.0>
0

>  <SCORE.INTRA.SOLV>
13.601

>  <SCORE.INTRA.SOLV.lig_0>
-126.444

>  <SCORE.INTRA.VDW>
6.27388

>  <SCORE.INTRA.VDW.0>
-7.40469

>  <SCORE.INTRA.norm>
0.224682

>  <SCORE.RESTR>
30.1766

>  <SCORE.RESTR.CAVITY>
30.1766

>  <SCORE.RESTR.norm>
0.615849

>  <SCORE.SYSTEM>
0

>  <SCORE.SYSTEM.CONST>
0

>  <SCORE.SYSTEM.DIHEDRAL>
0

>  <SCORE.SYSTEM.SOLV>
0

>  <SCORE.SYSTEM.norm>
0

>  <SCORE.heavy>
49

>  <SCORE.norm>
0.853258

>  <RMSD>
23.138

$$$$
2bee_lig
 OpenBabel11021811423D
libRbt.so/2013.1/901 2013/11/27
 49 52  0  0  0  0  0  0  0  0999 V2000
   29.6782   23.1113   -1.4314 C   0  0  2  0  0  0  0  0  0  0  0  0
   30.8498   22.3121   -1.3288 O   0  0  0  0  0  0  0  0  0  0  0  0
   32.8368   19.6957    1.6005 C   0  0  2  0  0  0  0  0  0  0  0  0
   33.2644   19.1482    2.9166 N   0  0  0  0  0  0  0  0  0  0  0  0
   28.6869   20.3441   -1.2502 C   0  0  1  0  0  0  0  0  0  0  0  0
   29.3131   21.6264   -5.7044 C   0  0  1  0  0  0  0  0  0  0  0  0
   21.4112   18.8898   -2.3568 C   0  0  0  0  0  0  0  0  0  0  0  0
   30.0535   24.6429   -1.3815 C   0  0  2  0  0  0  0  0  0  0  0  0
   31.0429   24.9490   -2.4092 N   0  0  0  0  0  0  0  0  0  0  0  0
   33.2510   21.2345    1.5083 C   0  0  0  0  0  0  0  0  0  0  0  0
   28.1444   21.1304   -2.3992 C   0  0  2  0  0  0  0  0  0  0  0  0
   26.6738   21.2165   -2.3927 O   0  0  0  0  0  0  0  0  0  0  0  0
   27.7812   21.5288   -6.2287 C   0  0  2  0  0  0  0  0  0  0  0  0
   27.5668   20.1527   -6.7887 N   0  0  0  0  0  0  0  0  0  0  0  0
   20.2304   18.2461   -1.9186 C   0  0  0  0  0  0  0  0  0  0  0  0
   20.3147   17.1329   -1.0853 N   0  0  0  0  0  0  0  0  0  0  0  0
   30.5878   25.0060    0.0727 C   0  0  1  0  0  0  0  0  0  0  0  0
   30.9185   26.3867    0.1093 O   0  0  0  0  0  0  0  0  0  0  0  0
   32.7857   21.8774    0.0794 C   0  0  2  0  0  0  0  0  0  0  0  0
   33.1589   23.2478   -0.0161 N   0  0  0  0  0  0  0  0  0  0  0  0
   28.8931   20.3925   -3.4826 C   0  0  2  0  0  0  0  0  0  0  0  0
   29.4472   20.5631   -4.7312 O   0  0  0  0  0  0  0  0  0  0  0  0
   27.5649   22.6205   -7.3366 C   0  0  1  0  0  0  0  0  0  0  0  0
   27.7772   23.9323   -6.7075 O   0  0  0  0  0  0  0  0  0  0  0  0
   29.4952   24.6641    1.1123 C   0  0  2  0  0  0  0  0  0  0  0  0
   29.9598   24.9740    2.4885 O   0  0  0  0  0  0  0  0  0  0  0  0
   31.2219   21.7410   -0.0849 C   0  0  2  0  0  0  0  0  0  0  0  0
   28.9035   18.8780   -2.9405 C   0  0  2  0  0  0  0  0  0  0  0  0
   29.1002   19.0575   -1.6127 O   0  0  0  0  0  0  0  0  0  0  0  0
   28.6181   22.3616   -8.5562 C   0  0  2  0  0  0  0  0  0  0  0  0
   28.3965   21.0374   -9.1798 O   0  0  0  0  0  0  0  0  0  0  0  0
   29.1274   23.1441    1.0490 C   0  0  2  0  0  0  0  0  0  0  0  0
   28.6951   22.9142   -0.3165 O   0  0  0  0  0  0  0  0  0  0  0  0
   30.8697   20.2184    0.0162 C   0  0  2  0  0  0  0  0  0  0  0  0
   29.4744   20.2113   -0.1650 O   0  0  0  0  0  0  0  0  0  0  0  0
   30.0559   17.9263   -3.4323 C   0  0  0  0  0  0  0  0  0  0  0  0
   31.1469   18.7291   -3.9844 O   0  0  0  0  0  0  0  0  0  0  0  0
   30.1136   22.4176   -8.0089 C   0  0  1  0  0  0  0  0  0  0  0  0
   30.2229   21.3757   -6.9152 O   0  0  0  0  0  0  0  0  0  0  0  0
   28.0691   22.9161    2.0508 C   0  0  0  0  0  0  0  0  0  0  0  0
   28.1671   21.6819    2.5631 O   0  0  0  0  0  0  0  0  0  0  0  0
   31.3033   19.6282    1.4255 C   0  0  1  0  0  0  0  0  0  0  0  0
   30.9925   18.2702    1.5002 O   0  0  0  0  0  0  0  0  0  0  0  0
   25.7616   20.1166   -2.0392 C   0  0  0  0  0  0  0  0  0  0  0  0
   31.0252   22.1370   -9.2513 C   0  0  0  0  0  0  0  0  0  0  0  0
   31.6176   23.3274   -9.7906 N   0  0  0  0  0  0  0  0  0  0  0  0
   24.3402   20.4819   -2.4696 C   0  0  0  0  0  0  0  0  0  0  0  0
   23.4440   20.0674   -1.3728 N   0  0  0  0  0  0  0  0  0  0  0  0
   22.7409   18.7132   -1.4874 C   0  0  0  0  0  0  0  0  0  0  0  0
  1  2  1  1  0  0  0
  1  8  1  0  0  0  0
  1 33  1  0  0  0  0
  3  4  1  1  0  0  0
  3 10  1  0  0  0  0
  3 42  1  0  0  0  0
  5 11  1  0  0  0  0
  5 29  1  0  0  0  0
  5 35  1  6  0  0  0
  6 13  1  0  0  0  0
  6 39  1  0  0  0  0
  6 22  1  1  0  0  0
  7 15  1  0  0  0  0
  8  9  1  6  0  0  0
  8 17  1  0  0  0  0
 10 19  1  0  0  0  0
 11 12  1  6  0  0  0
 11 21  1  0  0  0  0
 12 44  1  0  0  0  0
 13 14  1  6  0  0  0
 13 23  1  0  0  0  0
 15 16  1  0  0  0  0
 17 18  1  6  0  0  0
 17 25  1  0  0  0  0
 19 20  1  1  0  0  0
 19 27  1  0  0  0  0
 21 22  1  6  0  0  0
 21 28  1  0  0  0  0
 23 24  1  1  0  0  0
 23 30  1  0  0  0  0
 25 26  1  1  0  0  0
 25 32  1  0  0  0  0
 27  2  1  6  0  0  0
 27 34  1  0  0  0  0
 28 29  1  0  0  0  0
 28 36  1  6  0  0  0
 30 31  1  1  0  0  0
 30 38  1  0  0  0  0
 32 33  1  0  0  0  0
 32 40  1  1  0  0  0
 34 35  1  1  0  0  0
 34 42  1  0  0  0  0
 36 37  1  0  0  0  0
 38 39  1  0  0  0  0
 38 45  1  6  0  0  0
 40 41  1  0  0  0  0
 42 43  1  6  0  0  0
 44 47  1  0  0  0  0
 45 46  1  0  0  0  0
 47 48  1  0  0  0  0
 48 49  1  0  0  0  0
 49  7  1  0  0  0  0
M  END
>  <CHROM.1>
98.89254585,-64.62314555,-68.28383094,-23.17430388,-39.91223871,-166.54187675
-13.19130332,-138.74837055,17.41732260,-147.99620884,76.50706194,101.92237517
-137.79222777,-96.85076985,-84.25306747,-137.00707528,28.87581765,21.35171486
-2.28315280,-1.03353808,-0.41127743,-1.49554654

>  <Name>
2bee_lig

>  <RI>
0

>  <Rbt.Current_Directory>
/home/itssahil/PROJECTS/Mol_Feturizer/New_Systems/rnas/2bee

>  <Rbt.Executable>
rbdock ($Id: //depot/dev/client3/rdock/2013.1/src/exe/rbdock.cxx#4 $)

>  <Rbt.Library>
libRbt.so (2013.1, Build901 2013/11/27)

>  <Rbt.Parameter_File>
/export/apps/rDock/src/rDock_2013.1_src/data/scripts/dock_solv.prm

>  <Rbt.Receptor>
prm/blind_docking_40.prm

>  <SCORE>
67.0686

>  <SCORE.INTER>
31.2092

>  <SCORE.INTER.CONST>
1

>  <SCORE.INTER.POLAR>
-0.936765

>  <SCORE.INTER.ROT>
16

>  <SCORE.INTER.SOLV>
26.0046

>  <SCORE.INTER.VDW>
0.993785

>  <SCORE.INTER.norm>
0.636922

>  <SCORE.INTRA>
9.54659

>  <SCORE.INTRA.DIHEDRAL>
8.03624

>  <SCORE.INTRA.DIHEDRAL.0>
36.0842

>  <SCORE.INTRA.POLAR>
0

>  <SCORE.INTRA.POLAR.0>
0

>  <SCORE.INTRA.REPUL>
0

>  <SCORE.INTRA.REPUL.0>
0

>  <SCORE.INTRA.SOLV>
1.18805

>  <SCORE.INTRA.SOLV.lig_0>
-126.444

>  <SCORE.INTRA.VDW>
4.93444

>  <SCORE.INTRA.VDW.0>
-7.40469

>  <SCORE.INTRA.norm>
0.194828

>  <SCORE.RESTR>
26.3128

>  <SCORE.RESTR.CAVITY>
26.3128

>  <SCORE.RESTR.norm>
0.536996

>  <SCORE.SYSTEM>
0

>  <SCORE.SYSTEM.CONST>
0

>  <SCORE.SYSTEM.DIHEDRAL>
0

>  <SCORE.SYSTEM.SOLV>
0

>  <SCORE.SYSTEM.norm>
0

>  <SCORE.heavy>
49

>  <SCORE.norm>
1.36875

>  <RMSD>
23.150

$$$$
2bee_lig
 OpenBabel11021811423D
libRbt.so/2013.1/901 2013/11/27
 49 52  0  0  0  0  0  0  0  0999 V2000
   32.3349   20.6668   -0.8909 C   0  0  2  0  0  0  0  0  0  0  0  0
   31.8295   21.6941   -1.7344 O   0  0  0  0  0  0  0  0  0  0  0  0
   29.8988   24.4102    1.1413 C   0  0  2  0  0  0  0  0  0  0  0  0
   29.3863   25.6734    1.7385 N   0  0  0  0  0  0  0  0  0  0  0  0
   28.7642   21.2825   -2.6247 C   0  0  1  0  0  0  0  0  0  0  0  0
   24.7511   18.6588   -2.9549 C   0  0  1  0  0  0  0  0  0  0  0  0
   31.6442   22.9756   -6.5585 C   0  0  0  0  0  0  0  0  0  0  0  0
   32.6855   19.3839   -1.7396 C   0  0  2  0  0  0  0  0  0  0  0  0
   33.6006   19.7342   -2.8205 N   0  0  0  0  0  0  0  0  0  0  0  0
   31.4574   24.5650    0.8338 C   0  0  0  0  0  0  0  0  0  0  0  0
   28.4378   19.8257   -2.5623 C   0  0  2  0  0  0  0  0  0  0  0  0
   29.1824   19.0275   -3.5516 O   0  0  0  0  0  0  0  0  0  0  0  0
   24.6893   19.3652   -4.4137 C   0  0  2  0  0  0  0  0  0  0  0  0
   24.3723   20.8188   -4.2150 N   0  0  0  0  0  0  0  0  0  0  0  0
   32.0420   23.9099   -7.5432 C   0  0  0  0  0  0  0  0  0  0  0  0
   31.5278   23.8188   -8.8347 N   0  0  0  0  0  0  0  0  0  0  0  0
   31.3416   18.7382   -2.2957 C   0  0  1  0  0  0  0  0  0  0  0  0
   31.6667   17.5822   -3.0539 O   0  0  0  0  0  0  0  0  0  0  0  0
   32.0563   23.2001    0.1631 C   0  0  2  0  0  0  0  0  0  0  0  0
   33.4484   23.3251   -0.1066 N   0  0  0  0  0  0  0  0  0  0  0  0
   26.9379   19.9812   -2.6323 C   0  0  2  0  0  0  0  0  0  0  0  0
   25.7632   19.3914   -2.2236 O   0  0  0  0  0  0  0  0  0  0  0  0
   23.5684   18.6616   -5.2592 C   0  0  1  0  0  0  0  0  0  0  0  0
   23.9593   17.2535   -5.4207 O   0  0  0  0  0  0  0  0  0  0  0  0
   30.4199   18.3861   -1.1051 C   0  0  2  0  0  0  0  0  0  0  0  0
   29.1441   17.7933   -1.5817 O   0  0  0  0  0  0  0  0  0  0  0  0
   31.2838   22.8778   -1.1750 C   0  0  2  0  0  0  0  0  0  0  0  0
   26.7553   21.2282   -3.6320 C   0  0  2  0  0  0  0  0  0  0  0  0
   27.7711   22.0404   -3.2547 O   0  0  0  0  0  0  0  0  0  0  0  0
   22.1415   18.8034   -4.4798 C   0  0  2  0  0  0  0  0  0  0  0  0
   21.7599   20.2248   -4.3209 O   0  0  0  0  0  0  0  0  0  0  0  0
   30.0842   19.6652   -0.2678 C   0  0  2  0  0  0  0  0  0  0  0  0
   31.3687   20.1919    0.1529 O   0  0  0  0  0  0  0  0  0  0  0  0
   29.7649   22.7397   -0.8193 C   0  0  2  0  0  0  0  0  0  0  0  0
   29.1829   22.4335   -2.0632 O   0  0  0  0  0  0  0  0  0  0  0  0
   25.4396   22.0829   -3.5125 C   0  0  0  0  0  0  0  0  0  0  0  0
   25.5517   22.9905   -2.3710 O   0  0  0  0  0  0  0  0  0  0  0  0
   22.2401   18.1426   -3.0331 C   0  0  1  0  0  0  0  0  0  0  0  0
   23.3715   18.8387   -2.3059 O   0  0  0  0  0  0  0  0  0  0  0  0
   29.2268   19.2330    0.8518 C   0  0  0  0  0  0  0  0  0  0  0  0
   29.8732   18.3477    1.6223 O   0  0  0  0  0  0  0  0  0  0  0  0
   29.2022   24.0895   -0.1999 C   0  0  1  0  0  0  0  0  0  0  0  0
   27.8515   23.9512    0.1207 O   0  0  0  0  0  0  0  0  0  0  0  0
   29.3527   19.3803   -4.9706 C   0  0  0  0  0  0  0  0  0  0  0  0
   20.8334   18.3560   -2.3783 C   0  0  0  0  0  0  0  0  0  0  0  0
   20.7492   17.8248   -1.0481 N   0  0  0  0  0  0  0  0  0  0  0  0
   30.4909   20.3929   -5.1054 C   0  0  0  0  0  0  0  0  0  0  0  0
   29.8640   21.7225   -5.2365 N   0  0  0  0  0  0  0  0  0  0  0  0
   30.1139   22.5153   -6.5212 C   0  0  0  0  0  0  0  0  0  0  0  0
  1  2  1  6  0  0  0
  1  8  1  0  0  0  0
  1 33  1  0  0  0  0
  3  4  1  6  0  0  0
  3 10  1  0  0  0  0
  3 42  1  0  0  0  0
  5 11  1  0  0  0  0
  5 29  1  0  0  0  0
  5 35  1  1  0  0  0
  6 13  1  0  0  0  0
  6 39  1  0  0  0  0
  6 22  1  1  0  0  0
  7 15  1  0  0  0  0
  8  9  1  6  0  0  0
  8 17  1  0  0  0  0
 10 19  1  0  0  0  0
 11 12  1  6  0  0  0
 11 21  1  0  0  0  0
 12 44  1  0  0  0  0
 13 14  1  1  0  0  0
 13 23  1  0  0  0  0
 15 16  1  0  0  0  0
 17 18  1  1  0  0  0
 17 25  1  0  0  0  0
 19 20  1  6  0  0  0
 19 27  1  0  0  0  0
 21 22  1  6  0  0  0
 21 28  1  0  0  0  0
 23 24  1  1  0  0  0
 23 30  1  0  0  0  0
 25 26  1  6  0  0  0
 25 32  1  0  0  0  0
 27  2  1  1  0  0  0
 27 34  1  0  0  0  0
 28 29  1  0  0  0  0
 28 36  1  1  0  0  0
 30 31  1  1  0  0  0
 30 38  1  0  0  0  0
 32 33  1  0  0  0  0
 32 40  1  1  0  0  0
 34 35  1  6  0  0  0
 34 42  1  0  0  0  0
 36 37  1  0  0  0  0
 38 39  1  0  0  0  0
 38 45  1  1  0  0  0
 40 41  1  0  0  0  0
 42 43  1  1  0  0  0
 44 47  1  0  0  0  0
 45 46  1  0  0  0  0
 47 48  1  0  0  0  0
 48 49  1  0  0  0  0
 49  7  1  0  0  0  0
M  END
>  <CHROM.1>
171.74347987,9.63369370,-34.68829430,-39.59000314,-45.91389908,81.55351201
-108.00387052,32.61378534,78.33339431,60.76723702,100.68444855,-179.44657635
-100.02276351,-118.48326070,-69.01469002,-169.52463858,28.32794391,20.76015337
-2.53247019,0.19350187,0.35321001,1.56261997

>  <Name>
2bee_lig

>  <RI>
0

>  <Rbt.Current_Directory>
/home/itssahil/PROJECTS/Mol_Feturizer/New_Systems/rnas/2bee

>  <Rbt.Executable>
rbdock ($Id: //depot/dev/client3/rdock/2013.1/src/exe/rbdock.cxx#4 $)

>  <Rbt.Library>
libRbt.so (2013.1, Build901 2013/11/27)

>  <Rbt.Parameter_File>
/export/apps/rDock/src/rDock_2013.1_src/data/scripts/dock_solv.prm

>  <Rbt.Receptor>
prm/blind_docking_40.prm

>  <SCORE>
108.916

>  <SCORE.INTER>
60.2242

>  <SCORE.INTER.CONST>
1

>  <SCORE.INTER.POLAR>
-0.597226

>  <SCORE.INTER.ROT>
16

>  <SCORE.INTER.SOLV>
24.2667

>  <SCORE.INTER.VDW>
19.7847

>  <SCORE.INTER.norm>
1.22907

>  <SCORE.INTRA>
29.9875

>  <SCORE.INTRA.DIHEDRAL>
-4.15412

>  <SCORE.INTRA.DIHEDRAL.0>
36.0842

>  <SCORE.INTRA.POLAR>
0

>  <SCORE.INTRA.POLAR.0>
0

>  <SCORE.INTRA.REPUL>
0

>  <SCORE.INTRA.REPUL.0>
0

>  <SCORE.INTRA.SOLV>
6.9092

>  <SCORE.INTRA.SOLV.lig_0>
-126.444

>  <SCORE.INTRA.VDW>
28.61

>  <SCORE.INTRA.VDW.0>
-7.40469

>  <SCORE.INTRA.norm>
0.611991

>  <SCORE.RESTR>
18.7046

>  <SCORE.RESTR.CAVITY>
18.7046

>  <SCORE.RESTR.norm>
0.381727

>  <SCORE.SYSTEM>
0

>  <SCORE.SYSTEM.CONST>
0

>  <SCORE.SYSTEM.DIHEDRAL>
0

>  <SCORE.SYSTEM.SOLV>
0

>  <SCORE.SYSTEM.norm>
0

>  <SCORE.heavy>
49

>  <SCORE.norm>
2.22278

>  <RMSD>
23.191

$$$$
2bee_lig
 OpenBabel11021811423D
libRbt.so/2013.1/901 2013/11/27
 49 52  0  0  0  0  0  0  0  0999 V2000
   27.3692   22.1866   -6.3334 C   0  0  2  0  0  0  0  0  0  0  0  0
   26.7722   21.3556   -7.3209 O   0  0  0  0  0  0  0  0  0  0  0  0
   22.9519   19.2373   -6.7807 C   0  0  2  0  0  0  0  0  0  0  0  0
   21.9981   18.1473   -6.4385 N   0  0  0  0  0  0  0  0  0  0  0  0
   25.8739   20.7121   -3.6675 C   0  0  1  0  0  0  0  0  0  0  0  0
   29.9072   19.1567   -1.6161 C   0  0  1  0  0  0  0  0  0  0  0  0
   21.5103   18.2230    0.6209 C   0  0  0  0  0  0  0  0  0  0  0  0
   27.8179   23.5586   -6.9700 C   0  0  2  0  0  0  0  0  0  0  0  0
   26.6872   24.1927   -7.6393 N   0  0  0  0  0  0  0  0  0  0  0  0
   24.0082   18.6992   -7.8496 C   0  0  0  0  0  0  0  0  0  0  0  0
   26.1565   19.5169   -2.8164 C   0  0  2  0  0  0  0  0  0  0  0  0
   25.3004   19.4490   -1.6194 O   0  0  0  0  0  0  0  0  0  0  0  0
   29.4977   18.1560   -0.4070 C   0  0  2  0  0  0  0  0  0  0  0  0
   28.1541   18.5777    0.1127 N   0  0  0  0  0  0  0  0  0  0  0  0
   20.4795   17.2546    0.6429 C   0  0  0  0  0  0  0  0  0  0  0  0
   20.0047   16.7187   -0.5522 N   0  0  0  0  0  0  0  0  0  0  0  0
   29.0248   23.3020   -7.9747 C   0  0  1  0  0  0  0  0  0  0  0  0
   29.4248   24.5425   -8.5389 O   0  0  0  0  0  0  0  0  0  0  0  0
   25.0839   19.8655   -8.2422 C   0  0  2  0  0  0  0  0  0  0  0  0
   26.0251   19.3978   -9.2022 N   0  0  0  0  0  0  0  0  0  0  0  0
   27.6484   19.7245   -2.7165 C   0  0  2  0  0  0  0  0  0  0  0  0
   28.8350   19.0398   -2.5819 O   0  0  0  0  0  0  0  0  0  0  0  0
   30.5884   18.2639    0.7178 C   0  0  1  0  0  0  0  0  0  0  0  0
   31.8641   17.8215    0.1359 O   0  0  0  0  0  0  0  0  0  0  0  0
   30.1892   22.6352   -7.2060 C   0  0  2  0  0  0  0  0  0  0  0  0
   31.3338   22.3633   -8.1125 O   0  0  0  0  0  0  0  0  0  0  0  0
   25.8441   20.3504   -6.9468 C   0  0  2  0  0  0  0  0  0  0  0  0
   27.7816   21.3261   -2.6491 C   0  0  2  0  0  0  0  0  0  0  0  0
   26.8309   21.7232   -3.5281 O   0  0  0  0  0  0  0  0  0  0  0  0
   30.6692   19.8084    1.2388 C   0  0  2  0  0  0  0  0  0  0  0  0
   29.3789   20.2432    1.8199 O   0  0  0  0  0  0  0  0  0  0  0  0
   29.7302   21.2786   -6.5744 C   0  0  2  0  0  0  0  0  0  0  0  0
   28.6117   21.6185   -5.7154 O   0  0  0  0  0  0  0  0  0  0  0  0
   24.7659   20.8631   -5.9333 C   0  0  2  0  0  0  0  0  0  0  0  0
   25.5453   21.2867   -4.8411 O   0  0  0  0  0  0  0  0  0  0  0  0
   29.1300   21.9753   -3.1350 C   0  0  0  0  0  0  0  0  0  0  0  0
   29.7112   22.7606   -2.0464 O   0  0  0  0  0  0  0  0  0  0  0  0
   31.0281   20.7771    0.0256 C   0  0  1  0  0  0  0  0  0  0  0  0
   29.9623   20.5749   -1.0311 O   0  0  0  0  0  0  0  0  0  0  0  0
   30.8896   20.7297   -5.8463 C   0  0  0  0  0  0  0  0  0  0  0  0
   30.6941   19.4350   -5.5621 O   0  0  0  0  0  0  0  0  0  0  0  0
   23.7545   19.7018   -5.5451 C   0  0  1  0  0  0  0  0  0  0  0  0
   22.7943   20.1729   -4.6492 O   0  0  0  0  0  0  0  0  0  0  0  0
   24.9205   20.5988   -0.7824 C   0  0  0  0  0  0  0  0  0  0  0  0
   31.0570   22.2195    0.6355 C   0  0  0  0  0  0  0  0  0  0  0  0
   32.3609   22.6082    1.0907 N   0  0  0  0  0  0  0  0  0  0  0  0
   23.7406   20.2065    0.1081 C   0  0  0  0  0  0  0  0  0  0  0  0
   22.5666   20.0723   -0.7760 N   0  0  0  0  0  0  0  0  0  0  0  0
   21.2502   19.5928   -0.1606 C   0  0  0  0  0  0  0  0  0  0  0  0
  1  2  1  6  0  0  0
  1  8  1  0  0  0  0
  1 33  1  0  0  0  0
  3  4  1  1  0  0  0
  3 10  1  0  0  0  0
  3 42  1  0  0  0  0
  5 11  1  0  0  0  0
  5 29  1  0  0  0  0
  5 35  1  6  0  0  0
  6 13  1  0  0  0  0
  6 39  1  0  0  0  0
  6 22  1  6  0  0  0
  7 15  1  0  0  0  0
  8  9  1  6  0  0  0
  8 17  1  0  0  0  0
 10 19  1  0  0  0  0
 11 12  1  1  0  0  0
 11 21  1  0  0  0  0
 12 44  1  0  0  0  0
 13 14  1  1  0  0  0
 13 23  1  0  0  0  0
 15 16  1  0  0  0  0
 17 18  1  1  0  0  0
 17 25  1  0  0  0  0
 19 20  1  6  0  0  0
 19 27  1  0  0  0  0
 21 22  1  1  0  0  0
 21 28  1  0  0  0  0
 23 24  1  6  0  0  0
 23 30  1  0  0  0  0
 25 26  1  6  0  0  0
 25 32  1  0  0  0  0
 27  2  1  6  0  0  0
 27 34  1  0  0  0  0
 28 29  1  0  0  0  0
 28 36  1  6  0  0  0
 30 31  1  6  0  0  0
 30 38  1  0  0  0  0
 32 33  1  0  0  0  0
 32 40  1  1  0  0  0
 34 35  1  1  0  0  0
 34 42  1  0  0  0  0
 36 37  1  0  0  0  0
 38 39  1  0  0  0  0
 38 45  1  1  0  0  0
 40 41  1  0  0  0  0
 42 43  1  1  0  0  0
 44 47  1  0  0  0  0
 45 46  1  0  0  0  0
 47 48  1  0  0  0  0
 48 49  1  0  0  0  0
 49  7  1  0  0  0  0
M  END
>  <CHROM.1>
-155.00253670,29.81963163,89.14752147,59.91614097,-40.28863045,164.39108918
-124.99057142,165.32553939,-122.11247249,-164.58816902,-98.56800586,91.52322517
-70.52676819,176.03787394,-53.33327866,-146.42106715,27.12722620,20.46407089
-3.52638374,0.91067607,-0.26716552,-1.29396354

>  <Name>
2bee_lig

>  <RI>
0

>  <Rbt.Current_Directory>
/home/itssahil/PROJECTS/Mol_Feturizer/New_Systems/rnas/2bee

>  <Rbt.Executable>
rbdock ($Id: //depot/dev/client3/rdock/2013.1/src/exe/rbdock.cxx#4 $)

>  <Rbt.Library>
libRbt.so (2013.1, Build901 2013/11/27)

>  <Rbt.Parameter_File>
/export/apps/rDock/src/rDock_2013.1_src/data/scripts/dock_solv.prm

>  <Rbt.Receptor>
prm/blind_docking_40.prm

>  <SCORE>
33.3411

>  <SCORE.INTER>
1.25406

>  <SCORE.INTER.CONST>
1

>  <SCORE.INTER.POLAR>
-0.460611

>  <SCORE.INTER.ROT>
16

>  <SCORE.INTER.SOLV>
19.7451

>  <SCORE.INTER.VDW>
-18.477

>  <SCORE.INTER.norm>
0.025593

>  <SCORE.INTRA>
6.11839

>  <SCORE.INTRA.DIHEDRAL>
-2.07548

>  <SCORE.INTRA.DIHEDRAL.0>
36.0842

>  <SCORE.INTRA.POLAR>
0

>  <SCORE.INTRA.POLAR.0>
0

>  <SCORE.INTRA.REPUL>
0.273342

>  <SCORE.INTRA.REPUL.0>
0

>  <SCORE.INTRA.SOLV>
0.506174

>  <SCORE.INTRA.SOLV.lig_0>
-126.444

>  <SCORE.INTRA.VDW>
5.53633

>  <SCORE.INTRA.VDW.0>
-7.40469

>  <SCORE.INTRA.norm>
0.124865

>  <SCORE.RESTR>
25.9686

>  <SCORE.RESTR.CAVITY>
25.9686

>  <SCORE.RESTR.norm>
0.529972

>  <SCORE.SYSTEM>
0

>  <SCORE.SYSTEM.CONST>
0

>  <SCORE.SYSTEM.DIHEDRAL>
0

>  <SCORE.SYSTEM.SOLV>
0

>  <SCORE.SYSTEM.norm>
0

>  <SCORE.heavy>
49

>  <SCORE.norm>
0.68043

>  <RMSD>
23.226

$$$$
2bee_lig
 OpenBabel11021811423D
libRbt.so/2013.1/901 2013/11/27
 49 52  0  0  0  0  0  0  0  0999 V2000
   30.0470   20.3453   -5.4398 C   0  0  2  0  0  0  0  0  0  0  0  0
   29.6421   20.8277   -4.1648 O   0  0  0  0  0  0  0  0  0  0  0  0
   30.5255   18.7008   -0.4138 C   0  0  2  0  0  0  0  0  0  0  0  0
   31.2823   18.2342    0.7797 N   0  0  0  0  0  0  0  0  0  0  0  0
   28.5694   22.9602   -1.0400 C   0  0  1  0  0  0  0  0  0  0  0  0
   27.8046   23.5131    3.4907 C   0  0  1  0  0  0  0  0  0  0  0  0
   27.0017   19.2341   -1.1682 C   0  0  0  0  0  0  0  0  0  0  0  0
   31.2035   21.2454   -6.0242 C   0  0  2  0  0  0  0  0  0  0  0  0
   32.3046   21.3263   -5.0705 N   0  0  0  0  0  0  0  0  0  0  0  0
   31.3500   18.3476   -1.7341 C   0  0  0  0  0  0  0  0  0  0  0  0
   27.5174   23.2598   -0.0220 C   0  0  2  0  0  0  0  0  0  0  0  0
   26.3872   24.0274   -0.5730 O   0  0  0  0  0  0  0  0  0  0  0  0
   26.2936   24.0152    3.1815 C   0  0  2  0  0  0  0  0  0  0  0  0
   26.3180   25.5096    3.0425 N   0  0  0  0  0  0  0  0  0  0  0  0
   27.7713   18.0631   -1.3615 C   0  0  0  0  0  0  0  0  0  0  0  0
   28.0481   17.6195   -2.6528 N   0  0  0  0  0  0  0  0  0  0  0  0
   30.6234   22.6855   -6.3729 C   0  0  1  0  0  0  0  0  0  0  0  0
   31.6698   23.4866   -6.9024 O   0  0  0  0  0  0  0  0  0  0  0  0
   30.5564   18.8571   -3.0690 C   0  0  2  0  0  0  0  0  0  0  0  0
   31.2799   18.5384   -4.2528 N   0  0  0  0  0  0  0  0  0  0  0  0
   28.4437   23.8434    1.0173 C   0  0  2  0  0  0  0  0  0  0  0  0
   28.5965   23.9917    2.3773 O   0  0  0  0  0  0  0  0  0  0  0  0
   25.3719   23.5825    4.3770 C   0  0  1  0  0  0  0  0  0  0  0  0
   25.3901   22.1135    4.4357 O   0  0  0  0  0  0  0  0  0  0  0  0
   29.4671   22.5322   -7.3882 C   0  0  2  0  0  0  0  0  0  0  0  0
   28.8851   23.8552   -7.7301 O   0  0  0  0  0  0  0  0  0  0  0  0
   30.3260   20.4166   -2.9921 C   0  0  2  0  0  0  0  0  0  0  0  0
   29.5330   24.6227    0.1265 C   0  0  2  0  0  0  0  0  0  0  0  0
   29.7001   23.7748   -0.9161 O   0  0  0  0  0  0  0  0  0  0  0  0
   25.9379   24.2458    5.7566 C   0  0  2  0  0  0  0  0  0  0  0  0
   25.9172   25.7243    5.6848 O   0  0  0  0  0  0  0  0  0  0  0  0
   28.3294   21.6329   -6.7994 C   0  0  2  0  0  0  0  0  0  0  0  0
   28.9690   20.3702   -6.4817 O   0  0  0  0  0  0  0  0  0  0  0  0
   29.5189   20.7084   -1.6821 C   0  0  2  0  0  0  0  0  0  0  0  0
   29.3518   22.1048   -1.7267 O   0  0  0  0  0  0  0  0  0  0  0  0
   30.9627   24.8512    0.7426 C   0  0  0  0  0  0  0  0  0  0  0  0
   31.5350   23.5631    1.1335 O   0  0  0  0  0  0  0  0  0  0  0  0
   27.4377   23.7741    6.0156 C   0  0  1  0  0  0  0  0  0  0  0  0
   28.2448   24.1817    4.8006 O   0  0  0  0  0  0  0  0  0  0  0  0
   27.2876   21.5233   -7.8379 C   0  0  0  0  0  0  0  0  0  0  0  0
   26.1161   21.9815   -7.3763 O   0  0  0  0  0  0  0  0  0  0  0  0
   30.3268   20.2329   -0.4001 C   0  0  1  0  0  0  0  0  0  0  0  0
   29.5943   20.4900    0.7590 O   0  0  0  0  0  0  0  0  0  0  0  0
   25.2656   23.4554   -1.3358 C   0  0  0  0  0  0  0  0  0  0  0  0
   27.8770   24.4833    7.3412 C   0  0  0  0  0  0  0  0  0  0  0  0
   27.0072   24.1942    8.4450 N   0  0  0  0  0  0  0  0  0  0  0  0
   25.8162   22.5862   -2.4672 C   0  0  0  0  0  0  0  0  0  0  0  0
   25.6223   21.1817   -2.0575 N   0  0  0  0  0  0  0  0  0  0  0  0
   26.7019   20.1644   -2.4329 C   0  0  0  0  0  0  0  0  0  0  0  0
  1  2  1  1  0  0  0
  1  8  1  0  0  0  0
  1 33  1  0  0  0  0
  3  4  1  1  0  0  0
  3 10  1  0  0  0  0
  3 42  1  0  0  0  0
  5 11  1  0  0  0  0
  5 29  1  0  0  0  0
  5 35  1  1  0  0  0
  6 13  1  0  0  0  0
  6 39  1  0  0  0  0
  6 22  1  6  0  0  0
  7 15  1  0  0  0  0
  8  9  1  1  0  0  0
  8 17  1  0  0  0  0
 10 19  1  0  0  0  0
 11 12  1  6  0  0  0
 11 21  1  0  0  0  0
 12 44  1  0  0  0  0
 13 14  1  1  0  0  0
 13 23  1  0  0  0  0
 15 16  1  0  0  0  0
 17 18  1  6  0  0  0
 17 25  1  0  0  0  0
 19 20  1  6  0  0  0
 19 27  1  0  0  0  0
 21 22  1  1  0  0  0
 21 28  1  0  0  0  0
 23 24  1  1  0  0  0
 23 30  1  0  0  0  0
 25 26  1  1  0  0  0
 25 32  1  0  0  0  0
 27  2  1  6  0  0  0
 27 34  1  0  0  0  0
 28 29  1  0  0  0  0
 28 36  1  1  0  0  0
 30 31  1  6  0  0  0
 30 38  1  0  0  0  0
 32 33  1  0  0  0  0
 32 40  1  6  0  0  0
 34 35  1  1  0  0  0
 34 42  1  0  0  0  0
 36 37  1  0  0  0  0
 38 39  1  0  0  0  0
 38 45  1  1  0  0  0
 40 41  1  0  0  0  0
 42 43  1  1  0  0  0
 44 47  1  0  0  0  0
 45 46  1  0  0  0  0
 47 48  1  0  0  0  0
 48 49  1  0  0  0  0
 49  7  1  0  0  0  0
M  END
>  <CHROM.1>
-85.92848578,-2.20949513,-53.34072264,-11.25592596,80.90315426,-51.00038512
3.08026285,-44.82476797,56.03347871,-121.38785362,166.81043759,56.46421327
104.80069973,-143.36139841,135.57781706,167.82691153,28.55869188,22.09110595
-0.95681335,-1.20670342,-0.91692282,1.59113793

>  <Name>
2bee_lig

>  <RI>
0

>  <Rbt.Current_Directory>
/home/itssahil/PROJECTS/Mol_Feturizer/New_Systems/rnas/2bee

>  <Rbt.Executable>
rbdock ($Id: //depot/dev/client3/rdock/2013.1/src/exe/rbdock.cxx#4 $)

>  <Rbt.Library>
libRbt.so (2013.1, Build901 2013/11/27)

>  <Rbt.Parameter_File>
/export/apps/rDock/src/rDock_2013.1_src/data/scripts/dock_solv.prm

>  <Rbt.Receptor>
prm/blind_docking_40.prm

>  <SCORE>
29.2415

>  <SCORE.INTER>
0.570358

>  <SCORE.INTER.CONST>
1

>  <SCORE.INTER.POLAR>
-1.10441

>  <SCORE.INTER.ROT>
16

>  <SCORE.INTER.SOLV>
28.8261

>  <SCORE.INTER.VDW>
-19.8138

>  <SCORE.INTER.norm>
0.01164

>  <SCORE.INTRA>
7.93209

>  <SCORE.INTRA.DIHEDRAL>
-2.29765

>  <SCORE.INTRA.DIHEDRAL.0>
36.0842

>  <SCORE.INTRA.POLAR>
0

>  <SCORE.INTRA.POLAR.0>
0

>  <SCORE.INTRA.REPUL>
0

>  <SCORE.INTRA.REPUL.0>
0

>  <SCORE.INTRA.SOLV>
10.3415

>  <SCORE.INTRA.SOLV.lig_0>
-126.444

>  <SCORE.INTRA.VDW>
3.91019

>  <SCORE.INTRA.VDW.0>
-7.40469

>  <SCORE.INTRA.norm>
0.161879

>  <SCORE.RESTR>
20.7391

>  <SCORE.RESTR.CAVITY>
20.7391

>  <SCORE.RESTR.norm>
0.423247

>  <SCORE.SYSTEM>
0

>  <SCORE.SYSTEM.CONST>
0

>  <SCORE.SYSTEM.DIHEDRAL>
0

>  <SCORE.SYSTEM.SOLV>
0

>  <SCORE.SYSTEM.norm>
0

>  <SCORE.heavy>
49

>  <SCORE.norm>
0.596766

>  <RMSD>
23.297

$$$$
2bee_lig
 OpenBabel11021811423D
libRbt.so/2013.1/901 2013/11/27
 49 52  0  0  0  0  0  0  0  0999 V2000
   30.2552   20.5108   -5.0190 C   0  0  2  0  0  0  0  0  0  0  0  0
   29.3422   21.1164   -4.1125 O   0  0  0  0  0  0  0  0  0  0  0  0
   30.1195   18.7712   -0.4697 C   0  0  2  0  0  0  0  0  0  0  0  0
   30.0120   18.3100    0.9412 N   0  0  0  0  0  0  0  0  0  0  0  0
   26.4654   19.3983   -3.2162 C   0  0  1  0  0  0  0  0  0  0  0  0
   25.7133   22.8355   -0.4263 C   0  0  1  0  0  0  0  0  0  0  0  0
   21.8595   20.2228    2.4246 C   0  0  0  0  0  0  0  0  0  0  0  0
   31.3273   21.5628   -5.5015 C   0  0  2  0  0  0  0  0  0  0  0  0
   31.9867   22.1689   -4.3498 N   0  0  0  0  0  0  0  0  0  0  0  0
   30.4597   20.3306   -0.4917 C   0  0  0  0  0  0  0  0  0  0  0  0
   25.3295   19.7138   -2.2981 C   0  0  2  0  0  0  0  0  0  0  0  0
   24.0936   18.9904   -2.6439 O   0  0  0  0  0  0  0  0  0  0  0  0
   25.7171   24.4541   -0.5313 C   0  0  2  0  0  0  0  0  0  0  0  0
   26.5666   24.8433   -1.7060 N   0  0  0  0  0  0  0  0  0  0  0  0
   22.2467   20.0637    3.7757 C   0  0  0  0  0  0  0  0  0  0  0  0
   23.4760   19.4843    4.0821 N   0  0  0  0  0  0  0  0  0  0  0  0
   30.6171   22.6569   -6.4129 C   0  0  1  0  0  0  0  0  0  0  0  0
   31.5902   23.5962   -6.8461 O   0  0  0  0  0  0  0  0  0  0  0  0
   30.5731   20.8794   -2.0271 C   0  0  2  0  0  0  0  0  0  0  0  0
   30.8853   22.2679   -2.0573 N   0  0  0  0  0  0  0  0  0  0  0  0
   25.4293   21.2160   -2.4092 C   0  0  2  0  0  0  0  0  0  0  0  0
   25.2066   22.3759   -1.7022 O   0  0  0  0  0  0  0  0  0  0  0  0
   26.3094   25.0369    0.8012 C   0  0  1  0  0  0  0  0  0  0  0  0
   25.4167   24.6260    1.8949 O   0  0  0  0  0  0  0  0  0  0  0  0
   29.9437   21.9538   -7.6143 C   0  0  2  0  0  0  0  0  0  0  0  0
   29.2538   22.9398   -8.4849 O   0  0  0  0  0  0  0  0  0  0  0  0
   29.2139   20.6249   -2.7881 C   0  0  2  0  0  0  0  0  0  0  0  0
   25.8481   21.4325   -3.9471 C   0  0  2  0  0  0  0  0  0  0  0  0
   26.7159   20.4122   -4.1471 O   0  0  0  0  0  0  0  0  0  0  0  0
   27.8219   24.4609    1.0117 C   0  0  2  0  0  0  0  0  0  0  0  0
   28.7104   24.8786   -0.0962 O   0  0  0  0  0  0  0  0  0  0  0  0
   28.8870   20.9089   -7.1229 C   0  0  2  0  0  0  0  0  0  0  0  0
   29.6254   19.9909   -6.2765 O   0  0  0  0  0  0  0  0  0  0  0  0
   28.9261   19.0865   -2.7344 C   0  0  2  0  0  0  0  0  0  0  0  0
   27.7215   18.9722   -3.4527 O   0  0  0  0  0  0  0  0  0  0  0  0
   26.6223   22.7498   -4.3225 C   0  0  0  0  0  0  0  0  0  0  0  0
   26.8904   22.7631   -5.7603 O   0  0  0  0  0  0  0  0  0  0  0  0
   27.7984   22.8685    1.0667 C   0  0  1  0  0  0  0  0  0  0  0  0
   27.1691   22.3914   -0.2255 O   0  0  0  0  0  0  0  0  0  0  0  0
   28.3173   20.2753   -8.3269 C   0  0  0  0  0  0  0  0  0  0  0  0
   27.4351   19.3268   -7.9842 O   0  0  0  0  0  0  0  0  0  0  0  0
   28.7889   18.5871   -1.2330 C   0  0  1  0  0  0  0  0  0  0  0  0
   28.5415   17.2145   -1.1980 O   0  0  0  0  0  0  0  0  0  0  0  0
   22.7852   19.1914   -2.0000 C   0  0  0  0  0  0  0  0  0  0  0  0
   29.2920   22.4335    1.2482 C   0  0  0  0  0  0  0  0  0  0  0  0
   30.1950   23.1710    0.4120 N   0  0  0  0  0  0  0  0  0  0  0  0
   22.8856   18.8078   -0.5229 C   0  0  0  0  0  0  0  0  0  0  0  0
   21.6091   19.1991    0.1059 N   0  0  0  0  0  0  0  0  0  0  0  0
   21.4259   18.9240    1.5999 C   0  0  0  0  0  0  0  0  0  0  0  0
  1  2  1  1  0  0  0
  1  8  1  0  0  0  0
  1 33  1  0  0  0  0
  3  4  1  1  0  0  0
  3 10  1  0  0  0  0
  3 42  1  0  0  0  0
  5 11  1  0  0  0  0
  5 29  1  0  0  0  0
  5 35  1  1  0  0  0
  6 13  1  0  0  0  0
  6 39  1  0  0  0  0
  6 22  1  6  0  0  0
  7 15  1  0  0  0  0
  8  9  1  1  0  0  0
  8 17  1  0  0  0  0
 10 19  1  0  0  0  0
 11 12  1  6  0  0  0
 11 21  1  0  0  0  0
 12 44  1  0  0  0  0
 13 14  1  6  0  0  0
 13 23  1  0  0  0  0
 15 16  1  0  0  0  0
 17 18  1  6  0  0  0
 17 25  1  0  0  0  0
 19 20  1  1  0  0  0
 19 27  1  0  0  0  0
 21 22  1  6  0  0  0
 21 28  1  0  0  0  0
 23 24  1  1  0  0  0
 23 30  1  0  0  0  0
 25 26  1  6  0  0  0
 25 32  1  0  0  0  0
 27  2  1  6  0  0  0
 27 34  1  0  0  0  0
 28 29  1  0  0  0  0
 28 36  1  1  0  0  0
 30 31  1  6  0  0  0
 30 38  1  0  0  0  0
 32 33  1  0  0  0  0
 32 40  1  6  0  0  0
 34 35  1  6  0  0  0
 34 42  1  0  0  0  0
 36 37  1  0  0  0  0
 38 39  1  0  0  0  0
 38 45  1  6  0  0  0
 40 41  1  0  0  0  0
 42 43  1  6  0  0  0
 44 47  1  0  0  0  0
 45 46  1  0  0  0  0
 47 48  1  0  0  0  0
 48 49  1  0  0  0  0
 49  7  1  0  0  0  0
M  END
>  <CHROM.1>
-119.83122306,-34.20247232,151.42649059,73.05523854,-174.04709736,-63.14838910
56.98309145,65.69386397,-179.17213984,177.65795073,-66.58926610,-43.14924466
172.53643950,179.74226567,93.24272536,-156.95165316,27.40715313,21.20583548
-2.31103790,0.77912030,-0.53755951,-1.95414278

>  <Name>
2bee_lig

>  <RI>
0

>  <Rbt.Current_Directory>
/home/itssahil/PROJECTS/Mol_Feturizer/New_Systems/rnas/2bee

>  <Rbt.Executable>
rbdock ($Id: //depot/dev/client3/rdock/2013.1/src/exe/rbdock.cxx#4 $)

>  <Rbt.Library>
libRbt.so (2013.1, Build901 2013/11/27)

>  <Rbt.Parameter_File>
/export/apps/rDock/src/rDock_2013.1_src/data/scripts/dock_solv.prm

>  <Rbt.Receptor>
prm/blind_docking_40.prm

>  <SCORE>
34.8861

>  <SCORE.INTER>
6.84692

>  <SCORE.INTER.CONST>
1

>  <SCORE.INTER.POLAR>
0

>  <SCORE.INTER.ROT>
16

>  <SCORE.INTER.SOLV>
26.6392

>  <SCORE.INTER.VDW>
-18.5818

>  <SCORE.INTER.norm>
0.139733

>  <SCORE.INTRA>
0.770345

>  <SCORE.INTRA.DIHEDRAL>
-12.7111

>  <SCORE.INTRA.DIHEDRAL.0>
36.0842

>  <SCORE.INTRA.POLAR>
0

>  <SCORE.INTRA.POLAR.0>
0

>  <SCORE.INTRA.REPUL>
0.000981157

>  <SCORE.INTRA.REPUL.0>
0

>  <SCORE.INTRA.SOLV>
9.29095

>  <SCORE.INTRA.SOLV.lig_0>
-126.444

>  <SCORE.INTRA.VDW>
2.47551

>  <SCORE.INTRA.VDW.0>
-7.40469

>  <SCORE.INTRA.norm>
0.0157213

>  <SCORE.RESTR>
27.2688

>  <SCORE.RESTR.CAVITY>
27.2688

>  <SCORE.RESTR.norm>
0.556506

>  <SCORE.SYSTEM>
0

>  <SCORE.SYSTEM.CONST>
0

>  <SCORE.SYSTEM.DIHEDRAL>
0

>  <SCORE.SYSTEM.SOLV>
0

>  <SCORE.SYSTEM.norm>
0

>  <SCORE.heavy>
49

>  <SCORE.norm>
0.711961

>  <RMSD>
23.366

$$$$
2bee_lig
 OpenBabel11021811423D
libRbt.so/2013.1/901 2013/11/27
 49 52  0  0  0  0  0  0  0  0999 V2000
   29.7651   18.6985    0.7098 C   0  0  2  0  0  0  0  0  0  0  0  0
   29.9041   20.0895    0.9709 O   0  0  0  0  0  0  0  0  0  0  0  0
   32.2325   23.5653   -0.3971 C   0  0  2  0  0  0  0  0  0  0  0  0
   33.2517   24.3564   -1.1389 N   0  0  0  0  0  0  0  0  0  0  0  0
   28.2371   21.8106   -2.1754 C   0  0  1  0  0  0  0  0  0  0  0  0
   23.6082   21.1170   -2.4947 C   0  0  1  0  0  0  0  0  0  0  0  0
   30.7686   21.8524   -7.5676 C   0  0  0  0  0  0  0  0  0  0  0  0
   31.0429   18.1506   -0.0360 C   0  0  2  0  0  0  0  0  0  0  0  0
   32.2434   18.4687    0.7296 N   0  0  0  0  0  0  0  0  0  0  0  0
   32.9582   22.4012    0.4190 C   0  0  0  0  0  0  0  0  0  0  0  0
   27.0771   21.5652   -3.0846 C   0  0  2  0  0  0  0  0  0  0  0  0
   27.2309   22.2122   -4.3992 O   0  0  0  0  0  0  0  0  0  0  0  0
   22.9077   20.1174   -1.4265 C   0  0  2  0  0  0  0  0  0  0  0  0
   23.9517   19.1602   -0.9295 N   0  0  0  0  0  0  0  0  0  0  0  0
   31.3668   22.5382   -6.4847 C   0  0  0  0  0  0  0  0  0  0  0  0
   32.0449   23.7341   -6.7098 N   0  0  0  0  0  0  0  0  0  0  0  0
   31.1016   18.7684   -1.5012 C   0  0  1  0  0  0  0  0  0  0  0  0
   32.2517   18.2662   -2.1660 O   0  0  0  0  0  0  0  0  0  0  0  0
   31.8689   21.4993    1.2386 C   0  0  2  0  0  0  0  0  0  0  0  0
   32.5076   20.4635    1.9772 N   0  0  0  0  0  0  0  0  0  0  0  0
   26.0025   21.9864   -2.1117 C   0  0  2  0  0  0  0  0  0  0  0  0
   24.6912   21.7461   -1.7686 O   0  0  0  0  0  0  0  0  0  0  0  0
   21.7478   19.3477   -2.1534 C   0  0  1  0  0  0  0  0  0  0  0  0
   20.7654   20.3488   -2.5940 O   0  0  0  0  0  0  0  0  0  0  0  0
   29.8075   18.3930   -2.2600 C   0  0  2  0  0  0  0  0  0  0  0  0
   29.8141   18.9644   -3.6309 O   0  0  0  0  0  0  0  0  0  0  0  0
   30.8299   20.8691    0.2313 C   0  0  2  0  0  0  0  0  0  0  0  0
   26.6944   23.2055   -1.3225 C   0  0  2  0  0  0  0  0  0  0  0  0
   27.9680   22.7651   -1.1885 O   0  0  0  0  0  0  0  0  0  0  0  0
   22.3652   18.5162   -3.4147 C   0  0  2  0  0  0  0  0  0  0  0  0
   23.3544   17.5135   -2.9593 O   0  0  0  0  0  0  0  0  0  0  0  0
   28.5473   18.9366   -1.5077 C   0  0  2  0  0  0  0  0  0  0  0  0
   28.6124   18.3487   -0.1831 O   0  0  0  0  0  0  0  0  0  0  0  0
   30.1513   22.0489   -0.5432 C   0  0  2  0  0  0  0  0  0  0  0  0
   29.2404   21.3831   -1.3840 O   0  0  0  0  0  0  0  0  0  0  0  0
   26.1841   23.5278    0.1305 C   0  0  0  0  0  0  0  0  0  0  0  0
   27.2064   24.2903    0.8467 O   0  0  0  0  0  0  0  0  0  0  0  0
   23.0867   19.5132   -4.4269 C   0  0  1  0  0  0  0  0  0  0  0  0
   24.1503   20.2490   -3.6390 O   0  0  0  0  0  0  0  0  0  0  0  0
   27.3672   18.5138   -2.2851 C   0  0  0  0  0  0  0  0  0  0  0  0
   26.2853   19.2095   -1.9099 O   0  0  0  0  0  0  0  0  0  0  0  0
   31.2276   22.8880   -1.3555 C   0  0  1  0  0  0  0  0  0  0  0  0
   30.6126   23.9406   -2.0337 O   0  0  0  0  0  0  0  0  0  0  0  0
   26.2660   22.1208   -5.5071 C   0  0  0  0  0  0  0  0  0  0  0  0
   23.6527   18.6089   -5.5737 C   0  0  0  0  0  0  0  0  0  0  0  0
   22.6348   17.8489   -6.2407 N   0  0  0  0  0  0  0  0  0  0  0  0
   27.0257   22.0204   -6.8307 C   0  0  0  0  0  0  0  0  0  0  0  0
   28.4629   22.0012   -6.4958 N   0  0  0  0  0  0  0  0  0  0  0  0
   29.3835   21.0952   -7.3162 C   0  0  0  0  0  0  0  0  0  0  0  0
  1  2  1  6  0  0  0
  1  8  1  0  0  0  0
  1 33  1  0  0  0  0
  3  4  1  6  0  0  0
  3 10  1  0  0  0  0
  3 42  1  0  0  0  0
  5 11  1  0  0  0  0
  5 29  1  0  0  0  0
  5 35  1  1  0  0  0
  6 13  1  0  0  0  0
  6 39  1  0  0  0  0
  6 22  1  1  0  0  0
  7 15  1  0  0  0  0
  8  9  1  1  0  0  0
  8 17  1  0  0  0  0
 10 19  1  0  0  0  0
 11 12  1  6  0  0  0
 11 21  1  0  0  0  0
 12 44  1  0  0  0  0
 13 14  1  6  0  0  0
 13 23  1  0  0  0  0
 15 16  1  0  0  0  0
 17 18  1  6  0  0  0
 17 25  1  0  0  0  0
 19 20  1  6  0  0  0
 19 27  1  0  0  0  0
 21 22  1  6  0  0  0
 21 28  1  0  0  0  0
 23 24  1  6  0  0  0
 23 30  1  0  0  0  0
 25 26  1  6  0  0  0
 25 32  1  0  0  0  0
 27  2  1  1  0  0  0
 27 34  1  0  0  0  0
 28 29  1  0  0  0  0
 28 36  1  1  0  0  0
 30 31  1  1  0  0  0
 30 38  1  0  0  0  0
 32 33  1  0  0  0  0
 32 40  1  6  0  0  0
 34 35  1  6  0  0  0
 34 42  1  0  0  0  0
 36 37  1  0  0  0  0
 38 39  1  0  0  0  0
 38 45  1  6  0  0  0
 40 41  1  0  0  0  0
 42 43  1  1  0  0  0
 44 47  1  0  0  0  0
 45 46  1  0  0  0  0
 47 48  1  0  0  0  0
 48 49  1  0  0  0  0
 49  7  1  0  0  0  0
M  END
>  <CHROM.1>
20.07435419,-174.27154911,134.94270192,-143.97843614,178.52255455,-141.65506973
-18.06496468,-120.22811718,159.45275928,-164.40200258,170.14265736,58.64819753
2.10494252,142.04921253,141.06404597,44.05542975,27.94590507,20.79744635
-2.32921851,0.23944025,0.28185514,1.83534614

>  <Name>
2bee_lig

>  <RI>
0

>  <Rbt.Current_Directory>
/home/itssahil/PROJECTS/Mol_Feturizer/New_Systems/rnas/2bee

>  <Rbt.Executable>
rbdock ($Id: //depot/dev/client3/rdock/2013.1/src/exe/rbdock.cxx#4 $)

>  <Rbt.Library>
libRbt.so (2013.1, Build901 2013/11/27)

>  <Rbt.Parameter_File>
/export/apps/rDock/src/rDock_2013.1_src/data/scripts/dock_solv.prm

>  <Rbt.Receptor>
prm/blind_docking_40.prm

>  <SCORE>
35.3416

>  <SCORE.INTER>
-1.25517

>  <SCORE.INTER.CONST>
1

>  <SCORE.INTER.POLAR>
-0.196553

>  <SCORE.INTER.ROT>
16

>  <SCORE.INTER.SOLV>
22.3637

>  <SCORE.INTER.VDW>
-21.9028

>  <SCORE.INTER.norm>
-0.0256157

>  <SCORE.INTRA>
16.9457

>  <SCORE.INTRA.DIHEDRAL>
6.40583

>  <SCORE.INTRA.DIHEDRAL.0>
36.0842

>  <SCORE.INTRA.POLAR>
0

>  <SCORE.INTRA.POLAR.0>
0

>  <SCORE.INTRA.REPUL>
0.0613836

>  <SCORE.INTRA.REPUL.0>
0

>  <SCORE.INTRA.SOLV>
7.67072

>  <SCORE.INTRA.SOLV.lig_0>
-126.444

>  <SCORE.INTRA.VDW>
9.60048

>  <SCORE.INTRA.VDW.0>
-7.40469

>  <SCORE.INTRA.norm>
0.34583

>  <SCORE.RESTR>
19.6511

>  <SCORE.RESTR.CAVITY>
19.6511

>  <SCORE.RESTR.norm>
0.401042

>  <SCORE.SYSTEM>
0

>  <SCORE.SYSTEM.CONST>
0

>  <SCORE.SYSTEM.DIHEDRAL>
0

>  <SCORE.SYSTEM.SOLV>
0

>  <SCORE.SYSTEM.norm>
0

>  <SCORE.heavy>
49

>  <SCORE.norm>
0.721257

>  <RMSD>
23.398

$$$$
2bee_lig
 OpenBabel11021811423D
libRbt.so/2013.1/901 2013/11/27
 49 52  0  0  0  0  0  0  0  0999 V2000
   28.4616   21.8652    1.1401 C   0  0  2  0  0  0  0  0  0  0  0  0
   28.0251   21.0463    0.0626 O   0  0  0  0  0  0  0  0  0  0  0  0
   31.6377   18.6557   -0.7177 C   0  0  2  0  0  0  0  0  0  0  0  0
   32.4929   17.5404   -1.2072 N   0  0  0  0  0  0  0  0  0  0  0  0
   29.1648   20.9821   -3.6763 C   0  0  1  0  0  0  0  0  0  0  0  0
   24.9380   20.2281   -4.9635 C   0  0  1  0  0  0  0  0  0  0  0  0
   29.1168   23.0003   -7.6858 C   0  0  0  0  0  0  0  0  0  0  0  0
   27.5921   23.1794    1.2167 C   0  0  2  0  0  0  0  0  0  0  0  0
   26.1760   22.8379    1.2989 N   0  0  0  0  0  0  0  0  0  0  0  0
   30.4913   18.0684    0.2250 C   0  0  0  0  0  0  0  0  0  0  0  0
   28.8476   20.0601   -4.8085 C   0  0  2  0  0  0  0  0  0  0  0  0
   29.9106   20.0150   -5.8275 O   0  0  0  0  0  0  0  0  0  0  0  0
   25.2260   19.8034   -3.4248 C   0  0  2  0  0  0  0  0  0  0  0  0
   25.9444   18.4854   -3.4314 N   0  0  0  0  0  0  0  0  0  0  0  0
   29.4989   24.3130   -8.0485 C   0  0  0  0  0  0  0  0  0  0  0  0
   30.5475   24.5084   -8.9446 N   0  0  0  0  0  0  0  0  0  0  0  0
   27.9026   24.0897   -0.0510 C   0  0  1  0  0  0  0  0  0  0  0  0
   27.1193   25.2717    0.0290 O   0  0  0  0  0  0  0  0  0  0  0  0
   29.5203   19.2633    0.7735 C   0  0  2  0  0  0  0  0  0  0  0  0
   28.4997   18.7504    1.6228 N   0  0  0  0  0  0  0  0  0  0  0  0
   27.4794   20.6217   -5.1109 C   0  0  2  0  0  0  0  0  0  0  0  0
   26.2405   20.2664   -5.5944 O   0  0  0  0  0  0  0  0  0  0  0  0
   23.8504   19.6837   -2.6768 C   0  0  1  0  0  0  0  0  0  0  0  0
   23.2206   21.0120   -2.7013 O   0  0  0  0  0  0  0  0  0  0  0  0
   29.4131   24.4197   -0.0783 C   0  0  2  0  0  0  0  0  0  0  0  0
   29.7499   25.2573   -1.2576 O   0  0  0  0  0  0  0  0  0  0  0  0
   28.8644   20.0218   -0.4454 C   0  0  2  0  0  0  0  0  0  0  0  0
   27.6723   22.1955   -4.8397 C   0  0  2  0  0  0  0  0  0  0  0  0
   28.4711   22.1951   -3.7460 O   0  0  0  0  0  0  0  0  0  0  0  0
   22.9275   18.5673   -3.4288 C   0  0  2  0  0  0  0  0  0  0  0  0
   23.5728   17.2353   -3.4000 O   0  0  0  0  0  0  0  0  0  0  0  0
   30.2648   23.1084   -0.1482 C   0  0  2  0  0  0  0  0  0  0  0  0
   29.8784   22.3414    1.0209 O   0  0  0  0  0  0  0  0  0  0  0  0
   30.0278   20.5733   -1.3369 C   0  0  2  0  0  0  0  0  0  0  0  0
   29.3386   21.2417   -2.3656 O   0  0  0  0  0  0  0  0  0  0  0  0
   26.4008   23.0394   -4.4567 C   0  0  0  0  0  0  0  0  0  0  0  0
   25.5784   23.2472   -5.6483 O   0  0  0  0  0  0  0  0  0  0  0  0
   22.6959   18.9830   -4.9495 C   0  0  1  0  0  0  0  0  0  0  0  0
   24.0647   19.1270   -5.5813 O   0  0  0  0  0  0  0  0  0  0  0  0
   31.6824   23.5162   -0.1460 C   0  0  0  0  0  0  0  0  0  0  0  0
   32.0748   23.8399    1.0936 O   0  0  0  0  0  0  0  0  0  0  0  0
   30.9352   19.3893   -1.8819 C   0  0  1  0  0  0  0  0  0  0  0  0
   31.9724   19.8934   -2.6669 O   0  0  0  0  0  0  0  0  0  0  0  0
   31.3299   20.3218   -5.5861 C   0  0  0  0  0  0  0  0  0  0  0  0
   21.8242   17.8385   -5.5687 C   0  0  0  0  0  0  0  0  0  0  0  0
   22.6007   16.7045   -5.9806 N   0  0  0  0  0  0  0  0  0  0  0  0
   31.5443   21.8324   -5.6909 C   0  0  0  0  0  0  0  0  0  0  0  0
   31.4601   22.1756   -7.1238 N   0  0  0  0  0  0  0  0  0  0  0  0
   30.1769   21.8194   -7.8774 C   0  0  0  0  0  0  0  0  0  0  0  0
  1  2  1  6  0  0  0
  1  8  1  0  0  0  0
  1 33  1  0  0  0  0
  3  4  1  6  0  0  0
  3 10  1  0  0  0  0
  3 42  1  0  0  0  0
  5 11  1  0  0  0  0
  5 29  1  0  0  0  0
  5 35  1  1  0  0  0
  6 13  1  0  0  0  0
  6 39  1  0  0  0  0
  6 22  1  6  0  0  0
  7 15  1  0  0  0  0
  8  9  1  6  0  0  0
  8 17  1  0  0  0  0
 10 19  1  0  0  0  0
 11 12  1  6  0  0  0
 11 21  1  0  0  0  0
 12 44  1  0  0  0  0
 13 14  1  6  0  0  0
 13 23  1  0  0  0  0
 15 16  1  0  0  0  0
 17 18  1  1  0  0  0
 17 25  1  0  0  0  0
 19 20  1  1  0  0  0
 19 27  1  0  0  0  0
 21 22  1  6  0  0  0
 21 28  1  0  0  0  0
 23 24  1  6  0  0  0
 23 30  1  0  0  0  0
 25 26  1  6  0  0  0
 25 32  1  0  0  0  0
 27  2  1  1  0  0  0
 27 34  1  0  0  0  0
 28 29  1  0  0  0  0
 28 36  1  1  0  0  0
 30 31  1  6  0  0  0
 30 38  1  0  0  0  0
 32 33  1  0  0  0  0
 32 40  1  1  0  0  0
 34 35  1  6  0  0  0
 34 42  1  0  0  0  0
 36 37  1  0  0  0  0
 38 39  1  0  0  0  0
 38 45  1  6  0  0  0
 40 41  1  0  0  0  0
 42 43  1  6  0  0  0
 44 47  1  0  0  0  0
 45 46  1  0  0  0  0
 47 48  1  0  0  0  0
 48 49  1  0  0  0  0
 49  7  1  0  0  0  0
M  END
>  <CHROM.1>
162.01782291,45.89558214,-34.08625838,21.43774905,25.03828498,-84.67003756
115.04140003,43.26262647,-74.57160581,78.01232228,-109.69221150,-82.54267429
-73.23200032,57.81148571,85.85873422,55.51075661,28.08793241,21.09683674
-2.96149246,0.60664871,0.47044957,1.64426701

>  <Name>
2bee_lig

>  <RI>
0

>  <Rbt.Current_Directory>
/home/itssahil/PROJECTS/Mol_Feturizer/New_Systems/rnas/2bee

>  <Rbt.Executable>
rbdock ($Id: //depot/dev/client3/rdock/2013.1/src/exe/rbdock.cxx#4 $)

>  <Rbt.Library>
libRbt.so (2013.1, Build901 2013/11/27)

>  <Rbt.Parameter_File>
/export/apps/rDock/src/rDock_2013.1_src/data/scripts/dock_solv.prm

>  <Rbt.Receptor>
prm/blind_docking_40.prm

>  <SCORE>
52.6388

>  <SCORE.INTER>
29.6219

>  <SCORE.INTER.CONST>
1

>  <SCORE.INTER.POLAR>
-0.848528

>  <SCORE.INTER.ROT>
16

>  <SCORE.INTER.SOLV>
30.4302

>  <SCORE.INTER.VDW>
-1.83371

>  <SCORE.INTER.norm>
0.604528

>  <SCORE.INTRA>
3.48399

>  <SCORE.INTRA.DIHEDRAL>
-3.77765

>  <SCORE.INTRA.DIHEDRAL.0>
36.0842

>  <SCORE.INTRA.POLAR>
0

>  <SCORE.INTRA.POLAR.0>
0

>  <SCORE.INTRA.REPUL>
0

>  <SCORE.INTRA.REPUL.0>
0

>  <SCORE.INTRA.SOLV>
3.68561

>  <SCORE.INTRA.SOLV.lig_0>
-126.444

>  <SCORE.INTRA.VDW>
3.53001

>  <SCORE.INTRA.VDW.0>
-7.40469

>  <SCORE.INTRA.norm>
0.0711017

>  <SCORE.RESTR>
19.533

>  <SCORE.RESTR.CAVITY>
19.533

>  <SCORE.RESTR.norm>
0.398632

>  <SCORE.SYSTEM>
0

>  <SCORE.SYSTEM.CONST>
0

>  <SCORE.SYSTEM.DIHEDRAL>
0

>  <SCORE.SYSTEM.SOLV>
0

>  <SCORE.SYSTEM.norm>
0

>  <SCORE.heavy>
49

>  <SCORE.norm>
1.07426

>  <RMSD>
23.436

$$$$
2bee_lig
 OpenBabel11021811423D
libRbt.so/2013.1/901 2013/11/27
 49 52  0  0  0  0  0  0  0  0999 V2000
   30.9013   19.7607    0.7643 C   0  0  2  0  0  0  0  0  0  0  0  0
   30.9420   20.3031   -0.5496 O   0  0  0  0  0  0  0  0  0  0  0  0
   30.6429   24.6045    0.3351 C   0  0  2  0  0  0  0  0  0  0  0  0
   30.6456   26.0766    0.1164 N   0  0  0  0  0  0  0  0  0  0  0  0
   28.6283   20.9458   -2.1299 C   0  0  1  0  0  0  0  0  0  0  0  0
   24.9994   18.7179   -3.5345 C   0  0  1  0  0  0  0  0  0  0  0  0
   30.7199   22.5480   -7.2730 C   0  0  0  0  0  0  0  0  0  0  0  0
   29.7486   18.6897    0.8795 C   0  0  2  0  0  0  0  0  0  0  0  0
   29.9081   17.6705   -0.1522 N   0  0  0  0  0  0  0  0  0  0  0  0
   32.0342   23.9947   -0.1548 C   0  0  0  0  0  0  0  0  0  0  0  0
   28.4933   19.6675   -2.8919 C   0  0  2  0  0  0  0  0  0  0  0  0
   29.7189   19.3030   -3.6235 O   0  0  0  0  0  0  0  0  0  0  0  0
   23.9177   18.4907   -4.7215 C   0  0  2  0  0  0  0  0  0  0  0  0
   23.5041   19.8374   -5.2397 N   0  0  0  0  0  0  0  0  0  0  0  0
   29.7035   21.6793   -7.7347 C   0  0  0  0  0  0  0  0  0  0  0  0
   28.4980   21.5912   -7.0421 N   0  0  0  0  0  0  0  0  0  0  0  0
   28.3394   19.4203    0.7684 C   0  0  1  0  0  0  0  0  0  0  0  0
   27.3085   18.4495    0.8778 O   0  0  0  0  0  0  0  0  0  0  0  0
   32.0657   22.3742    0.0568 C   0  0  2  0  0  0  0  0  0  0  0  0
   33.3066   21.8219   -0.3690 N   0  0  0  0  0  0  0  0  0  0  0  0
   27.2158   20.0284   -3.6104 C   0  0  2  0  0  0  0  0  0  0  0  0
   26.0736   19.4742   -4.1427 O   0  0  0  0  0  0  0  0  0  0  0  0
   22.6846   17.7197   -4.1289 C   0  0  1  0  0  0  0  0  0  0  0  0
   23.1682   16.4130   -3.6597 O   0  0  0  0  0  0  0  0  0  0  0  0
   28.2306   20.4812    1.8882 C   0  0  2  0  0  0  0  0  0  0  0  0
   26.9329   21.1996    1.8113 O   0  0  0  0  0  0  0  0  0  0  0  0
   30.8838   21.7064   -0.7484 C   0  0  2  0  0  0  0  0  0  0  0  0
   27.3984   21.6013   -3.8937 C   0  0  2  0  0  0  0  0  0  0  0  0
   27.9899   22.0246   -2.7513 O   0  0  0  0  0  0  0  0  0  0  0  0
   22.0411   18.5948   -2.9108 C   0  0  2  0  0  0  0  0  0  0  0  0
   21.5602   19.9086   -3.3946 O   0  0  0  0  0  0  0  0  0  0  0  0
   29.3824   21.5340    1.7668 C   0  0  2  0  0  0  0  0  0  0  0  0
   30.6099   20.7645    1.8394 O   0  0  0  0  0  0  0  0  0  0  0  0
   29.5474   22.3398   -0.2335 C   0  0  2  0  0  0  0  0  0  0  0  0
   28.5731   21.6643   -0.9915 O   0  0  0  0  0  0  0  0  0  0  0  0
   26.1014   22.4749   -4.0686 C   0  0  0  0  0  0  0  0  0  0  0  0
   25.9469   22.8388   -5.4768 O   0  0  0  0  0  0  0  0  0  0  0  0
   23.1343   18.8434   -1.7785 C   0  0  1  0  0  0  0  0  0  0  0  0
   24.3047   19.5405   -2.4402 O   0  0  0  0  0  0  0  0  0  0  0  0
   29.2139   22.4855    2.8813 C   0  0  0  0  0  0  0  0  0  0  0  0
   29.7252   23.6810    2.5578 O   0  0  0  0  0  0  0  0  0  0  0  0
   29.5308   23.9086   -0.4809 C   0  0  1  0  0  0  0  0  0  0  0  0
   28.3399   24.4623   -0.0105 O   0  0  0  0  0  0  0  0  0  0  0  0
   31.0766   19.7591   -3.2836 C   0  0  0  0  0  0  0  0  0  0  0  0
   22.4157   19.7022   -0.6835 C   0  0  0  0  0  0  0  0  0  0  0  0
   22.9807   19.5281    0.6238 N   0  0  0  0  0  0  0  0  0  0  0  0
   31.2076   21.2459   -3.6172 C   0  0  0  0  0  0  0  0  0  0  0  0
   30.6927   21.4209   -4.9892 N   0  0  0  0  0  0  0  0  0  0  0  0
   31.6028   22.0885   -6.0223 C   0  0  0  0  0  0  0  0  0  0  0  0
  1  2  1  6  0  0  0
  1  8  1  0  0  0  0
  1 33  1  0  0  0  0
  3  4  1  6  0  0  0
  3 10  1  0  0  0  0
  3 42  1  0  0  0  0
  5 11  1  0  0  0  0
  5 29  1  0  0  0  0
  5 35  1  1  0  0  0
  6 13  1  0  0  0  0
  6 39  1  0  0  0  0
  6 22  1  6  0  0  0
  7 15  1  0  0  0  0
  8  9  1  6  0  0  0
  8 17  1  0  0  0  0
 10 19  1  0  0  0  0
 11 12  1  6  0  0  0
 11 21  1  0  0  0  0
 12 44  1  0  0  0  0
 13 14  1  1  0  0  0
 13 23  1  0  0  0  0
 15 16  1  0  0  0  0
 17 18  1  1  0  0  0
 17 25  1  0  0  0  0
 19 20  1  6  0  0  0
 19 27  1  0  0  0  0
 21 22  1  6  0  0  0
 21 28  1  0  0  0  0
 23 24  1  1  0  0  0
 23 30  1  0  0  0  0
 25 26  1  6  0  0  0
 25 32  1  0  0  0  0
 27  2  1  1  0  0  0
 27 34  1  0  0  0  0
 28 29  1  0  0  0  0
 28 36  1  1  0  0  0
 30 31  1  6  0  0  0
 30 38  1  0  0  0  0
 32 33  1  0  0  0  0
 32 40  1  1  0  0  0
 34 35  1  6  0  0  0
 34 42  1  0  0  0  0
 36 37  1  0  0  0  0
 38 39  1  0  0  0  0
 38 45  1  1  0  0  0
 40 41  1  0  0  0  0
 42 43  1  1  0  0  0
 44 47  1  0  0  0  0
 45 46  1  0  0  0  0
 47 48  1  0  0  0  0
 48 49  1  0  0  0  0
 49  7  1  0  0  0  0
M  END
>  <CHROM.1>
126.05940273,115.00105411,175.24312707,77.40278729,23.45485615,-71.02137607
61.19082963,56.76708981,-107.10766169,-152.89786554,-17.87583066,153.54935967
-48.86004350,-125.17346163,-163.82971196,-40.79856757,27.98727415,20.88927115
-1.86677630,0.42235776,0.43969957,1.58097904

>  <Name>
2bee_lig

>  <RI>
0

>  <Rbt.Current_Directory>
/home/itssahil/PROJECTS/Mol_Feturizer/New_Systems/rnas/2bee

>  <Rbt.Executable>
rbdock ($Id: //depot/dev/client3/rdock/2013.1/src/exe/rbdock.cxx#4 $)

>  <Rbt.Library>
libRbt.so (2013.1, Build901 2013/11/27)

>  <Rbt.Parameter_File>
/export/apps/rDock/src/rDock_2013.1_src/data/scripts/dock_solv.prm

>  <Rbt.Receptor>
prm/blind_docking_40.prm

>  <SCORE>
36.9591

>  <SCORE.INTER>
-2.87785

>  <SCORE.INTER.CONST>
1

>  <SCORE.INTER.POLAR>
-0.349788

>  <SCORE.INTER.ROT>
16

>  <SCORE.INTER.SOLV>
28.7559

>  <SCORE.INTER.VDW>
-24.6046

>  <SCORE.INTER.norm>
-0.0587316

>  <SCORE.INTRA>
25.089

>  <SCORE.INTRA.DIHEDRAL>
6.3004

>  <SCORE.INTRA.DIHEDRAL.0>
36.0842

>  <SCORE.INTRA.POLAR>
0

>  <SCORE.INTRA.POLAR.0>
0

>  <SCORE.INTRA.REPUL>
0.0659076

>  <SCORE.INTRA.REPUL.0>
0

>  <SCORE.INTRA.SOLV>
8.94379

>  <SCORE.INTRA.SOLV.lig_0>
-126.444

>  <SCORE.INTRA.VDW>
17.1374

>  <SCORE.INTRA.VDW.0>
-7.40469

>  <SCORE.INTRA.norm>
0.512021

>  <SCORE.RESTR>
14.748

>  <SCORE.RESTR.CAVITY>
14.748

>  <SCORE.RESTR.norm>
0.300979

>  <SCORE.SYSTEM>
0

>  <SCORE.SYSTEM.CONST>
0

>  <SCORE.SYSTEM.DIHEDRAL>
0

>  <SCORE.SYSTEM.SOLV>
0

>  <SCORE.SYSTEM.norm>
0

>  <SCORE.heavy>
49

>  <SCORE.norm>
0.754268

>  <RMSD>
23.477

$$$$
2bee_lig
 OpenBabel11021811423D
libRbt.so/2013.1/901 2013/11/27
 49 52  0  0  0  0  0  0  0  0999 V2000
   29.5478   18.7608    1.0659 C   0  0  2  0  0  0  0  0  0  0  0  0
   29.6846   20.1569    1.2991 O   0  0  0  0  0  0  0  0  0  0  0  0
   32.3483   23.3931   -0.0446 C   0  0  2  0  0  0  0  0  0  0  0  0
   33.2517   24.1792   -0.9282 N   0  0  0  0  0  0  0  0  0  0  0  0
   28.2376   22.0356   -1.4723 C   0  0  1  0  0  0  0  0  0  0  0  0
   24.3473   19.9267   -2.4456 C   0  0  1  0  0  0  0  0  0  0  0  0
   25.4176   21.9159   -6.9872 C   0  0  0  0  0  0  0  0  0  0  0  0
   30.8234   18.2014    0.3251 C   0  0  2  0  0  0  0  0  0  0  0  0
   32.0267   18.5371    1.0786 N   0  0  0  0  0  0  0  0  0  0  0  0
   32.9245   21.9135    0.1186 C   0  0  0  0  0  0  0  0  0  0  0  0
   27.7229   21.1461   -2.5570 C   0  0  2  0  0  0  0  0  0  0  0  0
   28.5198   21.2280   -3.7934 O   0  0  0  0  0  0  0  0  0  0  0  0
   23.4189   19.6486   -3.7463 C   0  0  2  0  0  0  0  0  0  0  0  0
   22.4730   20.8039   -3.8998 N   0  0  0  0  0  0  0  0  0  0  0  0
   25.2304   20.9673   -5.9547 C   0  0  0  0  0  0  0  0  0  0  0  0
   24.6428   19.7369   -6.2405 N   0  0  0  0  0  0  0  0  0  0  0  0
   30.8737   18.7905   -1.1522 C   0  0  1  0  0  0  0  0  0  0  0  0
   32.0220   18.2780   -1.8125 O   0  0  0  0  0  0  0  0  0  0  0  0
   31.9511   21.0125    1.0737 C   0  0  2  0  0  0  0  0  0  0  0  0
   32.4615   19.6932    1.2327 N   0  0  0  0  0  0  0  0  0  0  0  0
   26.2898   21.6174   -2.5018 C   0  0  2  0  0  0  0  0  0  0  0  0
   24.9968   21.1933   -2.7096 O   0  0  0  0  0  0  0  0  0  0  0  0
   22.6302   18.3102   -3.5165 C   0  0  1  0  0  0  0  0  0  0  0  0
   23.6221   17.2321   -3.3919 O   0  0  0  0  0  0  0  0  0  0  0  0
   29.5771   18.3973   -1.8975 C   0  0  2  0  0  0  0  0  0  0  0  0
   29.5760   18.9418   -3.2793 O   0  0  0  0  0  0  0  0  0  0  0  0
   30.5016   20.9489    0.4523 C   0  0  2  0  0  0  0  0  0  0  0  0
   26.4428   23.1869   -2.1842 C   0  0  2  0  0  0  0  0  0  0  0  0
   27.4730   23.1953   -1.3051 O   0  0  0  0  0  0  0  0  0  0  0  0
   21.7212   18.4492   -2.1682 C   0  0  2  0  0  0  0  0  0  0  0  0
   20.7285   19.5389   -2.3045 O   0  0  0  0  0  0  0  0  0  0  0  0
   28.3191   18.9526   -1.1500 C   0  0  2  0  0  0  0  0  0  0  0  0
   28.3918   18.3909    0.1855 O   0  0  0  0  0  0  0  0  0  0  0  0
   29.9859   22.4208    0.3107 C   0  0  2  0  0  0  0  0  0  0  0  0
   28.6957   22.2462   -0.2228 O   0  0  0  0  0  0  0  0  0  0  0  0
   25.2458   23.9146   -1.4677 C   0  0  0  0  0  0  0  0  0  0  0  0
   24.7423   23.0707   -0.3844 O   0  0  0  0  0  0  0  0  0  0  0  0
   22.6497   18.7666   -0.9126 C   0  0  1  0  0  0  0  0  0  0  0  0
   23.4095   20.0363   -1.2351 O   0  0  0  0  0  0  0  0  0  0  0  0
   27.1364   18.5120   -1.9135 C   0  0  0  0  0  0  0  0  0  0  0  0
   27.2921   18.7835   -3.2163 O   0  0  0  0  0  0  0  0  0  0  0  0
   30.9316   23.2637   -0.6472 C   0  0  1  0  0  0  0  0  0  0  0  0
   30.4672   24.5745   -0.7583 O   0  0  0  0  0  0  0  0  0  0  0  0
   28.3438   22.2376   -4.8502 C   0  0  0  0  0  0  0  0  0  0  0  0
   21.6752   18.8979    0.3065 C   0  0  0  0  0  0  0  0  0  0  0  0
   21.9376   17.9361    1.3384 N   0  0  0  0  0  0  0  0  0  0  0  0
   28.6443   21.6032   -6.2089 C   0  0  0  0  0  0  0  0  0  0  0  0
   27.9093   22.3906   -7.2178 N   0  0  0  0  0  0  0  0  0  0  0  0
   26.5696   23.0104   -6.8145 C   0  0  0  0  0  0  0  0  0  0  0  0
  1  2  1  6  0  0  0
  1  8  1  0  0  0  0
  1 33  1  0  0  0  0
  3  4  1  6  0  0  0
  3 10  1  0  0  0  0
  3 42  1  0  0  0  0
  5 11  1  0  0  0  0
  5 29  1  0  0  0  0
  5 35  1  1  0  0  0
  6 13  1  0  0  0  0
  6 39  1  0  0  0  0
  6 22  1  6  0  0  0
  7 15  1  0  0  0  0
  8  9  1  1  0  0  0
  8 17  1  0  0  0  0
 10 19  1  0  0  0  0
 11 12  1  6  0  0  0
 11 21  1  0  0  0  0
 12 44  1  0  0  0  0
 13 14  1  1  0  0  0
 13 23  1  0  0  0  0
 15 16  1  0  0  0  0
 17 18  1  6  0  0  0
 17 25  1  0  0  0  0
 19 20  1  6  0  0  0
 19 27  1  0  0  0  0
 21 22  1  6  0  0  0
 21 28  1  0  0  0  0
 23 24  1  1  0  0  0
 23 30  1  0  0  0  0
 25 26  1  6  0  0  0
 25 32  1  0  0  0  0
 27  2  1  1  0  0  0
 27 34  1  0  0  0  0
 28 29  1  0  0  0  0
 28 36  1  1  0  0  0
 30 31  1  6  0  0  0
 30 38  1  0  0  0  0
 32 33  1  0  0  0  0
 32 40  1  6  0  0  0
 34 35  1  6  0  0  0
 34 42  1  0  0  0  0
 36 37  1  0  0  0  0
 38 39  1  0  0  0  0
 38 45  1  1  0  0  0
 40 41  1  0  0  0  0
 42 43  1  1  0  0  0
 44 47  1  0  0  0  0
 45 46  1  0  0  0  0
 47 48  1  0  0  0  0
 48 49  1  0  0  0  0
 49  7  1  0  0  0  0
M  END
>  <CHROM.1>
26.53889069,100.40091422,-138.20982110,-155.48463154,-84.62967065,-145.87617880
37.34977059,-92.27191184,43.40960270,-49.03040319,-81.84705097,119.38899554
155.27931463,-32.73089357,-84.07848831,81.83832106,27.40227364,20.62077140
-1.93662498,0.19248144,0.31511427,2.13243464

>  <Name>
2bee_lig

>  <RI>
0

>  <Rbt.Current_Directory>
/home/itssahil/PROJECTS/Mol_Feturizer/New_Systems/rnas/2bee

>  <Rbt.Executable>
rbdock ($Id: //depot/dev/client3/rdock/2013.1/src/exe/rbdock.cxx#4 $)

>  <Rbt.Library>
libRbt.so (2013.1, Build901 2013/11/27)

>  <Rbt.Parameter_File>
/export/apps/rDock/src/rDock_2013.1_src/data/scripts/dock_solv.prm

>  <Rbt.Receptor>
prm/blind_docking_40.prm

>  <SCORE>
71.0751

>  <SCORE.INTER>
5.85069

>  <SCORE.INTER.CONST>
1

>  <SCORE.INTER.POLAR>
0

>  <SCORE.INTER.ROT>
16

>  <SCORE.INTER.SOLV>
24.0249

>  <SCORE.INTER.VDW>
-18.3745

>  <SCORE.INTER.norm>
0.119402

>  <SCORE.INTRA>
47.6356

>  <SCORE.INTRA.DIHEDRAL>
9.21187

>  <SCORE.INTRA.DIHEDRAL.0>
36.0842

>  <SCORE.INTRA.POLAR>
0

>  <SCORE.INTRA.POLAR.0>
0

>  <SCORE.INTRA.REPUL>
0.107879

>  <SCORE.INTRA.REPUL.0>
0

>  <SCORE.INTRA.SOLV>
13.4386

>  <SCORE.INTRA.SOLV.lig_0>
-126.444

>  <SCORE.INTRA.VDW>
35.7709

>  <SCORE.INTRA.VDW.0>
-7.40469

>  <SCORE.INTRA.norm>
0.972154

>  <SCORE.RESTR>
17.5888

>  <SCORE.RESTR.CAVITY>
17.5888

>  <SCORE.RESTR.norm>
0.358955

>  <SCORE.SYSTEM>
0

>  <SCORE.SYSTEM.CONST>
0

>  <SCORE.SYSTEM.DIHEDRAL>
0

>  <SCORE.SYSTEM.SOLV>
0

>  <SCORE.SYSTEM.norm>
0

>  <SCORE.heavy>
49

>  <SCORE.norm>
1.45051

>  <RMSD>
23.533

$$$$
2bee_lig
 OpenBabel11021811423D
libRbt.so/2013.1/901 2013/11/27
 49 52  0  0  0  0  0  0  0  0999 V2000
   30.7538   21.1229   -4.6230 C   0  0  2  0  0  0  0  0  0  0  0  0
   30.1705   22.0113   -3.6782 O   0  0  0  0  0  0  0  0  0  0  0  0
   31.0532   20.2455    0.2559 C   0  0  2  0  0  0  0  0  0  0  0  0
   30.8943   19.8909    1.6925 N   0  0  0  0  0  0  0  0  0  0  0  0
   27.8106   20.0612   -3.2141 C   0  0  1  0  0  0  0  0  0  0  0  0
   23.1556   19.0103   -2.5921 C   0  0  1  0  0  0  0  0  0  0  0  0
   28.4177   23.9928   -0.1952 C   0  0  0  0  0  0  0  0  0  0  0  0
   31.7310   21.9070   -5.5818 C   0  0  2  0  0  0  0  0  0  0  0  0
   32.7229   22.6353   -4.7980 N   0  0  0  0  0  0  0  0  0  0  0  0
   31.0104   21.8330    0.0953 C   0  0  0  0  0  0  0  0  0  0  0  0
   26.5300   20.0380   -3.9836 C   0  0  2  0  0  0  0  0  0  0  0  0
   26.2183   21.3301   -4.6189 O   0  0  0  0  0  0  0  0  0  0  0  0
   22.9677   19.7991   -1.1873 C   0  0  2  0  0  0  0  0  0  0  0  0
   23.4417   18.9016   -0.0814 N   0  0  0  0  0  0  0  0  0  0  0  0
   28.0088   24.3915    1.0989 C   0  0  0  0  0  0  0  0  0  0  0  0
   28.9405   24.9206    1.9892 N   0  0  0  0  0  0  0  0  0  0  0  0
   30.8849   22.8843   -6.5097 C   0  0  1  0  0  0  0  0  0  0  0  0
   31.7721   23.5819   -7.3719 O   0  0  0  0  0  0  0  0  0  0  0  0
   31.1686   22.2633   -1.4736 C   0  0  2  0  0  0  0  0  0  0  0  0
   31.1407   23.6783   -1.6262 N   0  0  0  0  0  0  0  0  0  0  0  0
   25.6742   19.4683   -2.8783 C   0  0  2  0  0  0  0  0  0  0  0  0
   24.5647   18.6844   -2.6562 O   0  0  0  0  0  0  0  0  0  0  0  0
   21.4458   20.1436   -1.0108 C   0  0  1  0  0  0  0  0  0  0  0  0
   21.0658   21.0328   -2.1184 O   0  0  0  0  0  0  0  0  0  0  0  0
   29.8587   22.0540   -7.3151 C   0  0  2  0  0  0  0  0  0  0  0  0
   29.0351   22.9316   -8.1853 O   0  0  0  0  0  0  0  0  0  0  0  0
   30.0090   21.6151   -2.3258 C   0  0  2  0  0  0  0  0  0  0  0  0
   26.2907   20.1547   -1.5606 C   0  0  2  0  0  0  0  0  0  0  0  0
   27.6176   20.1368   -1.8305 O   0  0  0  0  0  0  0  0  0  0  0  0
   20.5787   18.7611   -1.0258 C   0  0  2  0  0  0  0  0  0  0  0  0
   20.9716   17.8733    0.0918 O   0  0  0  0  0  0  0  0  0  0  0  0
   28.8993   21.2765   -6.3534 C   0  0  2  0  0  0  0  0  0  0  0  0
   29.7680   20.4536   -5.5333 O   0  0  0  0  0  0  0  0  0  0  0  0
   30.0935   20.0635   -2.1312 C   0  0  2  0  0  0  0  0  0  0  0  0
   29.0443   19.5928   -2.9421 O   0  0  0  0  0  0  0  0  0  0  0  0
   26.1100   19.4089   -0.1869 C   0  0  0  0  0  0  0  0  0  0  0  0
   27.2630   19.6831    0.6703 O   0  0  0  0  0  0  0  0  0  0  0  0
   20.8142   17.9821   -2.3957 C   0  0  1  0  0  0  0  0  0  0  0  0
   22.3038   17.7355   -2.5130 O   0  0  0  0  0  0  0  0  0  0  0  0
   27.9770   20.4993   -7.2026 C   0  0  0  0  0  0  0  0  0  0  0  0
   28.6509   19.5795   -7.9062 O   0  0  0  0  0  0  0  0  0  0  0  0
   29.9045   19.6722   -0.6036 C   0  0  1  0  0  0  0  0  0  0  0  0
   29.9906   18.2891   -0.4419 O   0  0  0  0  0  0  0  0  0  0  0  0
   26.4334   22.6506   -4.0048 C   0  0  0  0  0  0  0  0  0  0  0  0
   19.9573   16.6755   -2.2875 C   0  0  0  0  0  0  0  0  0  0  0  0
   18.6292   16.9164   -1.8011 N   0  0  0  0  0  0  0  0  0  0  0  0
   25.6604   22.7262   -2.6874 C   0  0  0  0  0  0  0  0  0  0  0  0
   26.4638   23.5572   -1.7699 N   0  0  0  0  0  0  0  0  0  0  0  0
   27.5623   22.8746   -0.9521 C   0  0  0  0  0  0  0  0  0  0  0  0
  1  2  1  1  0  0  0
  1  8  1  0  0  0  0
  1 33  1  0  0  0  0
  3  4  1  1  0  0  0
  3 10  1  0  0  0  0
  3 42  1  0  0  0  0
  5 11  1  0  0  0  0
  5 29  1  0  0  0  0
  5 35  1  1  0  0  0
  6 13  1  0  0  0  0
  6 39  1  0  0  0  0
  6 22  1  1  0  0  0
  7 15  1  0  0  0  0
  8  9  1  1  0  0  0
  8 17  1  0  0  0  0
 10 19  1  0  0  0  0
 11 12  1  1  0  0  0
 11 21  1  0  0  0  0
 12 44  1  0  0  0  0
 13 14  1  1  0  0  0
 13 23  1  0  0  0  0
 15 16  1  0  0  0  0
 17 18  1  6  0  0  0
 17 25  1  0  0  0  0
 19 20  1  1  0  0  0
 19 27  1  0  0  0  0
 21 22  1  6  0  0  0
 21 28  1  0  0  0  0
 23 24  1  6  0  0  0
 23 30  1  0  0  0  0
 25 26  1  1  0  0  0
 25 32  1  0  0  0  0
 27  2  1  6  0  0  0
 27 34  1  0  0  0  0
 28 29  1  0  0  0  0
 28 36  1  1  0  0  0
 30 31  1  1  0  0  0
 30 38  1  0  0  0  0
 32 33  1  0  0  0  0
 32 40  1  6  0  0  0
 34 35  1  6  0  0  0
 34 42  1  0  0  0  0
 36 37  1  0  0  0  0
 38 39  1  0  0  0  0
 38 45  1  1  0  0  0
 40 41  1  0  0  0  0
 42 43  1  6  0  0  0
 44 47  1  0  0  0  0
 45 46  1  0  0  0  0
 47 48  1  0  0  0  0
 48 49  1  0  0  0  0
 49  7  1  0  0  0  0
M  END
>  <CHROM.1>
-139.27695649,170.61700660,-72.54127755,154.65422047,-39.78753670,-57.81051939
-86.89209525,100.84661646,147.98579670,64.07954770,-37.05037980,46.15890293
145.94422436,-85.88476088,172.30079726,90.06299661,27.16154062,20.74150566
-2.64322194,0.25455878,-0.38310912,-1.61060848

>  <Name>
2bee_lig

>  <RI>
0

>  <Rbt.Current_Directory>
/home/itssahil/PROJECTS/Mol_Feturizer/New_Systems/rnas/2bee

>  <Rbt.Executable>
rbdock ($Id: //depot/dev/client3/rdock/2013.1/src/exe/rbdock.cxx#4 $)

>  <Rbt.Library>
libRbt.so (2013.1, Build901 2013/11/27)

>  <Rbt.Parameter_File>
/export/apps/rDock/src/rDock_2013.1_src/data/scripts/dock_solv.prm

>  <Rbt.Receptor>
prm/blind_docking_40.prm

>  <SCORE>
21.3055

>  <SCORE.INTER>
-2.53375

>  <SCORE.INTER.CONST>
1

>  <SCORE.INTER.POLAR>
-1.05873

>  <SCORE.INTER.ROT>
16

>  <SCORE.INTER.SOLV>
26.9296

>  <SCORE.INTER.VDW>
-21.4033

>  <SCORE.INTER.norm>
-0.0517091

>  <SCORE.INTRA>
7.62127

>  <SCORE.INTRA.DIHEDRAL>
-2.57546

>  <SCORE.INTRA.DIHEDRAL.0>
36.0842

>  <SCORE.INTRA.POLAR>
0

>  <SCORE.INTRA.POLAR.0>
0

>  <SCORE.INTRA.REPUL>
0

>  <SCORE.INTRA.REPUL.0>
0

>  <SCORE.INTRA.SOLV>
6.34006

>  <SCORE.INTRA.SOLV.lig_0>
-126.444

>  <SCORE.INTRA.VDW>
5.73897

>  <SCORE.INTRA.VDW.0>
-7.40469

>  <SCORE.INTRA.norm>
0.155536

>  <SCORE.RESTR>
16.2179

>  <SCORE.RESTR.CAVITY>
16.2179

>  <SCORE.RESTR.norm>
0.330978

>  <SCORE.SYSTEM>
0

>  <SCORE.SYSTEM.CONST>
0

>  <SCORE.SYSTEM.DIHEDRAL>
0

>  <SCORE.SYSTEM.SOLV>
0

>  <SCORE.SYSTEM.norm>
0

>  <SCORE.heavy>
49

>  <SCORE.norm>
0.434805

>  <RMSD>
23.538

$$$$
2bee_lig
 OpenBabel11021811423D
libRbt.so/2013.1/901 2013/11/27
 49 52  0  0  0  0  0  0  0  0999 V2000
   30.0918   21.2143    1.4285 C   0  0  2  0  0  0  0  0  0  0  0  0
   29.1693   20.4422    0.6703 O   0  0  0  0  0  0  0  0  0  0  0  0
   31.6991   19.2392   -2.7248 C   0  0  2  0  0  0  0  0  0  0  0  0
   32.1411   18.5114   -3.9454 N   0  0  0  0  0  0  0  0  0  0  0  0
   27.6803   21.3389   -2.6365 C   0  0  1  0  0  0  0  0  0  0  0  0
   24.2748   18.0638   -3.5453 C   0  0  1  0  0  0  0  0  0  0  0  0
   30.7704   22.0797   -7.8200 C   0  0  0  0  0  0  0  0  0  0  0  0
   29.3216   22.2088    2.3807 C   0  0  2  0  0  0  0  0  0  0  0  0
   28.3763   21.4728    3.2133 N   0  0  0  0  0  0  0  0  0  0  0  0
   31.3766   18.1864   -1.5692 C   0  0  0  0  0  0  0  0  0  0  0  0
   27.0141   20.7517   -3.8381 C   0  0  2  0  0  0  0  0  0  0  0  0
   26.3964   21.7687   -4.7068 O   0  0  0  0  0  0  0  0  0  0  0  0
   23.8337   18.9816   -4.8079 C   0  0  2  0  0  0  0  0  0  0  0  0
   23.9517   20.4217   -4.4014 N   0  0  0  0  0  0  0  0  0  0  0  0
   30.9858   21.2973   -6.6614 C   0  0  0  0  0  0  0  0  0  0  0  0
   30.2747   20.1130   -6.4813 N   0  0  0  0  0  0  0  0  0  0  0  0
   28.5904   23.3165    1.5030 C   0  0  1  0  0  0  0  0  0  0  0  0
   27.9040   24.2093    2.3684 O   0  0  0  0  0  0  0  0  0  0  0  0
   30.8739   18.9475   -0.2129 C   0  0  2  0  0  0  0  0  0  0  0  0
   30.5923   18.0171    0.8270 N   0  0  0  0  0  0  0  0  0  0  0  0
   26.1861   19.7311   -3.0954 C   0  0  2  0  0  0  0  0  0  0  0  0
   25.6243   18.4815   -3.2286 O   0  0  0  0  0  0  0  0  0  0  0  0
   22.3503   18.6292   -5.1838 C   0  0  1  0  0  0  0  0  0  0  0  0
   22.3229   17.2143   -5.5825 O   0  0  0  0  0  0  0  0  0  0  0  0
   29.6433   24.0618    0.6502 C   0  0  2  0  0  0  0  0  0  0  0  0
   28.9996   25.0971   -0.1981 O   0  0  0  0  0  0  0  0  0  0  0  0
   29.5831   19.8005   -0.5251 C   0  0  2  0  0  0  0  0  0  0  0  0
   25.7927   20.5076   -1.7427 C   0  0  2  0  0  0  0  0  0  0  0  0
   26.9350   21.1793   -1.4633 O   0  0  0  0  0  0  0  0  0  0  0  0
   21.3902   18.9086   -3.8939 C   0  0  2  0  0  0  0  0  0  0  0  0
   21.4280   20.3352   -3.5004 O   0  0  0  0  0  0  0  0  0  0  0  0
   30.4044   23.0641   -0.2853 C   0  0  2  0  0  0  0  0  0  0  0  0
   30.9950   22.0832    0.6053 O   0  0  0  0  0  0  0  0  0  0  0  0
   29.9516   20.8112   -1.6631 C   0  0  2  0  0  0  0  0  0  0  0  0
   28.7526   21.5255   -1.8422 O   0  0  0  0  0  0  0  0  0  0  0  0
   25.4638   19.6471   -0.4671 C   0  0  0  0  0  0  0  0  0  0  0  0
   26.6519   18.8914   -0.0712 O   0  0  0  0  0  0  0  0  0  0  0  0
   21.8702   18.0303   -2.6540 C   0  0  1  0  0  0  0  0  0  0  0  0
   23.3172   18.3914   -2.3910 O   0  0  0  0  0  0  0  0  0  0  0  0
   31.3975   23.8535   -1.0379 C   0  0  0  0  0  0  0  0  0  0  0  0
   30.7847   24.7115   -1.8647 O   0  0  0  0  0  0  0  0  0  0  0  0
   30.4052   20.0445   -2.9780 C   0  0  1  0  0  0  0  0  0  0  0  0
   30.7390   20.9550   -3.9809 O   0  0  0  0  0  0  0  0  0  0  0  0
   27.1270   22.8201   -5.4332 C   0  0  0  0  0  0  0  0  0  0  0  0
   20.8980   18.3944   -1.4813 C   0  0  0  0  0  0  0  0  0  0  0  0
   21.2142   19.6493   -0.8618 N   0  0  0  0  0  0  0  0  0  0  0  0
   28.1830   22.1728   -6.3303 C   0  0  0  0  0  0  0  0  0  0  0  0
   28.5011   23.1522   -7.3876 N   0  0  0  0  0  0  0  0  0  0  0  0
   29.9737   23.4573   -7.6699 C   0  0  0  0  0  0  0  0  0  0  0  0
  1  2  1  6  0  0  0
  1  8  1  0  0  0  0
  1 33  1  0  0  0  0
  3  4  1  6  0  0  0
  3 10  1  0  0  0  0
  3 42  1  0  0  0  0
  5 11  1  0  0  0  0
  5 29  1  0  0  0  0
  5 35  1  1  0  0  0
  6 13  1  0  0  0  0
  6 39  1  0  0  0  0
  6 22  1  1  0  0  0
  7 15  1  0  0  0  0
  8  9  1  6  0  0  0
  8 17  1  0  0  0  0
 10 19  1  0  0  0  0
 11 12  1  1  0  0  0
 11 21  1  0  0  0  0
 12 44  1  0  0  0  0
 13 14  1  1  0  0  0
 13 23  1  0  0  0  0
 15 16  1  0  0  0  0
 17 18  1  1  0  0  0
 17 25  1  0  0  0  0
 19 20  1  1  0  0  0
 19 27  1  0  0  0  0
 21 22  1  6  0  0  0
 21 28  1  0  0  0  0
 23 24  1  1  0  0  0
 23 30  1  0  0  0  0
 25 26  1  6  0  0  0
 25 32  1  0  0  0  0
 27  2  1  1  0  0  0
 27 34  1  0  0  0  0
 28 29  1  0  0  0  0
 28 36  1  1  0  0  0
 30 31  1  1  0  0  0
 30 38  1  0  0  0  0
 32 33  1  0  0  0  0
 32 40  1  1  0  0  0
 34 35  1  6  0  0  0
 34 42  1  0  0  0  0
 36 37  1  0  0  0  0
 38 39  1  0  0  0  0
 38 45  1  1  0  0  0
 40 41  1  0  0  0  0
 42 43  1  6  0  0  0
 44 47  1  0  0  0  0
 45 46  1  0  0  0  0
 47 48  1  0  0  0  0
 48 49  1  0  0  0  0
 49  7  1  0  0  0  0
M  END
>  <CHROM.1>
160.08381658,-20.66174355,46.16913791,107.46985299,64.02745205,56.51788836
-99.35478756,52.10872377,63.15397952,-66.07421649,-90.15111885,-78.03159384
158.21039047,130.86123231,48.66397468,-71.09090736,27.58288085,20.76181880
-2.37131028,0.32716757,0.36145045,1.51776949

>  <Name>
2bee_lig

>  <RI>
0

>  <Rbt.Current_Directory>
/home/itssahil/PROJECTS/Mol_Feturizer/New_Systems/rnas/2bee

>  <Rbt.Executable>
rbdock ($Id: //depot/dev/client3/rdock/2013.1/src/exe/rbdock.cxx#4 $)

>  <Rbt.Library>
libRbt.so (2013.1, Build901 2013/11/27)

>  <Rbt.Parameter_File>
/export/apps/rDock/src/rDock_2013.1_src/data/scripts/dock_solv.prm

>  <Rbt.Receptor>
prm/blind_docking_40.prm

>  <SCORE>
30.2456

>  <SCORE.INTER>
9.38832

>  <SCORE.INTER.CONST>
1

>  <SCORE.INTER.POLAR>
0

>  <SCORE.INTER.ROT>
16

>  <SCORE.INTER.SOLV>
29.0579

>  <SCORE.INTER.VDW>
-17.6937

>  <SCORE.INTER.norm>
0.191598

>  <SCORE.INTRA>
5.69046

>  <SCORE.INTRA.DIHEDRAL>
-11.5726

>  <SCORE.INTRA.DIHEDRAL.0>
36.0842

>  <SCORE.INTRA.POLAR>
0

>  <SCORE.INTRA.POLAR.0>
0

>  <SCORE.INTRA.REPUL>
0

>  <SCORE.INTRA.REPUL.0>
0

>  <SCORE.INTRA.SOLV>
10.2227

>  <SCORE.INTRA.SOLV.lig_0>
-126.444

>  <SCORE.INTRA.VDW>
6.36541

>  <SCORE.INTRA.VDW.0>
-7.40469

>  <SCORE.INTRA.norm>
0.116132

>  <SCORE.RESTR>
15.1668

>  <SCORE.RESTR.CAVITY>
15.1668

>  <SCORE.RESTR.norm>
0.309527

>  <SCORE.SYSTEM>
0

>  <SCORE.SYSTEM.CONST>
0

>  <SCORE.SYSTEM.DIHEDRAL>
0

>  <SCORE.SYSTEM.SOLV>
0

>  <SCORE.SYSTEM.norm>
0

>  <SCORE.heavy>
49

>  <SCORE.norm>
0.617257

>  <RMSD>
23.559

$$$$
2bee_lig
 OpenBabel11021811423D
libRbt.so/2013.1/901 2013/11/27
 49 52  0  0  0  0  0  0  0  0999 V2000
   30.6381   20.8401   -5.1670 C   0  0  2  0  0  0  0  0  0  0  0  0
   30.0908   21.5173   -4.0427 O   0  0  0  0  0  0  0  0  0  0  0  0
   30.6159   18.4703   -0.9100 C   0  0  2  0  0  0  0  0  0  0  0  0
   30.5741   17.8287    0.4322 N   0  0  0  0  0  0  0  0  0  0  0  0
   27.0946   20.7738   -2.9714 C   0  0  1  0  0  0  0  0  0  0  0  0
   23.0619   19.2412   -1.8246 C   0  0  1  0  0  0  0  0  0  0  0  0
   29.7725   24.8296    0.8567 C   0  0  0  0  0  0  0  0  0  0  0  0
   31.5049   21.8317   -6.0355 C   0  0  2  0  0  0  0  0  0  0  0  0
   32.5212   22.4673   -5.2038 N   0  0  0  0  0  0  0  0  0  0  0  0
   31.4161   19.8480   -0.8127 C   0  0  0  0  0  0  0  0  0  0  0  0
   25.8168   21.5246   -3.1612 C   0  0  2  0  0  0  0  0  0  0  0  0
   26.0098   22.9844   -3.2065 O   0  0  0  0  0  0  0  0  0  0  0  0
   22.4767   19.2907   -3.3366 C   0  0  2  0  0  0  0  0  0  0  0  0
   21.6264   20.5207   -3.4676 N   0  0  0  0  0  0  0  0  0  0  0  0
   30.5880   24.1852   -0.1028 C   0  0  0  0  0  0  0  0  0  0  0  0
   30.8065   22.8120   -0.0185 N   0  0  0  0  0  0  0  0  0  0  0  0
   30.5493   22.9064   -6.7168 C   0  0  1  0  0  0  0  0  0  0  0  0
   31.3374   23.7912   -7.4997 O   0  0  0  0  0  0  0  0  0  0  0  0
   31.4729   20.5915   -2.2672 C   0  0  2  0  0  0  0  0  0  0  0  0
   32.1926   21.8174   -2.1926 N   0  0  0  0  0  0  0  0  0  0  0  0
   25.0560   20.8574   -2.0410 C   0  0  2  0  0  0  0  0  0  0  0  0
   23.7871   20.4833   -1.6601 O   0  0  0  0  0  0  0  0  0  0  0  0
   21.6233   17.9954   -3.5815 C   0  0  1  0  0  0  0  0  0  0  0  0
   22.5271   16.8431   -3.4510 O   0  0  0  0  0  0  0  0  0  0  0  0
   29.5015   22.1722   -7.5853 C   0  0  2  0  0  0  0  0  0  0  0  0
   28.5770   23.1401   -8.2291 O   0  0  0  0  0  0  0  0  0  0  0  0
   30.0075   20.8676   -2.7846 C   0  0  2  0  0  0  0  0  0  0  0  0
   26.1882   20.6451   -0.9183 C   0  0  2  0  0  0  0  0  0  0  0  0
   27.2625   20.2981   -1.6664 O   0  0  0  0  0  0  0  0  0  0  0  0
   20.4134   17.9368   -2.4878 C   0  0  2  0  0  0  0  0  0  0  0  0
   19.5119   19.1026   -2.6271 O   0  0  0  0  0  0  0  0  0  0  0  0
   28.6524   21.1875   -6.7140 C   0  0  2  0  0  0  0  0  0  0  0  0
   29.6157   20.2847   -6.1129 O   0  0  0  0  0  0  0  0  0  0  0  0
   29.2676   19.4894   -2.8583 C   0  0  2  0  0  0  0  0  0  0  0  0
   27.9972   19.8464   -3.3466 O   0  0  0  0  0  0  0  0  0  0  0  0
   25.9842   19.4850    0.1250 C   0  0  0  0  0  0  0  0  0  0  0  0
   27.2715   19.1431    0.7295 O   0  0  0  0  0  0  0  0  0  0  0  0
   21.0107   17.9345   -1.0105 C   0  0  1  0  0  0  0  0  0  0  0  0
   21.8573   19.1828   -0.8747 O   0  0  0  0  0  0  0  0  0  0  0  0
   27.7026   20.5191   -7.6232 C   0  0  0  0  0  0  0  0  0  0  0  0
   28.3300   19.5872   -8.3534 O   0  0  0  0  0  0  0  0  0  0  0  0
   29.1989   18.8050   -1.4268 C   0  0  1  0  0  0  0  0  0  0  0  0
   28.5458   17.5748   -1.5069 O   0  0  0  0  0  0  0  0  0  0  0  0
   26.0328   23.8734   -2.0334 C   0  0  0  0  0  0  0  0  0  0  0  0
   19.7690   17.8983   -0.0565 C   0  0  0  0  0  0  0  0  0  0  0  0
   18.9233   19.0491   -0.1953 N   0  0  0  0  0  0  0  0  0  0  0  0
   27.1092   23.3942   -1.0583 C   0  0  0  0  0  0  0  0  0  0  0  0
   27.4879   24.5600   -0.2364 N   0  0  0  0  0  0  0  0  0  0  0  0
   28.2736   24.3101    1.0526 C   0  0  0  0  0  0  0  0  0  0  0  0
  1  2  1  1  0  0  0
  1  8  1  0  0  0  0
  1 33  1  0  0  0  0
  3  4  1  1  0  0  0
  3 10  1  0  0  0  0
  3 42  1  0  0  0  0
  5 11  1  0  0  0  0
  5 29  1  0  0  0  0
  5 35  1  6  0  0  0
  6 13  1  0  0  0  0
  6 39  1  0  0  0  0
  6 22  1  1  0  0  0
  7 15  1  0  0  0  0
  8  9  1  1  0  0  0
  8 17  1  0  0  0  0
 10 19  1  0  0  0  0
 11 12  1  1  0  0  0
 11 21  1  0  0  0  0
 12 44  1  0  0  0  0
 13 14  1  1  0  0  0
 13 23  1  0  0  0  0
 15 16  1  0  0  0  0
 17 18  1  6  0  0  0
 17 25  1  0  0  0  0
 19 20  1  1  0  0  0
 19 27  1  0  0  0  0
 21 22  1  1  0  0  0
 21 28  1  0  0  0  0
 23 24  1  1  0  0  0
 23 30  1  0  0  0  0
 25 26  1  1  0  0  0
 25 32  1  0  0  0  0
 27  2  1  6  0  0  0
 27 34  1  0  0  0  0
 28 29  1  0  0  0  0
 28 36  1  1  0  0  0
 30 31  1  1  0  0  0
 30 38  1  0  0  0  0
 32 33  1  0  0  0  0
 32 40  1  6  0  0  0
 34 35  1  1  0  0  0
 34 42  1  0  0  0  0
 36 37  1  0  0  0  0
 38 39  1  0  0  0  0
 38 45  1  1  0  0  0
 40 41  1  0  0  0  0
 42 43  1  6  0  0  0
 44 47  1  0  0  0  0
 45 46  1  0  0  0  0
 47 48  1  0  0  0  0
 48 49  1  0  0  0  0
 49  7  1  0  0  0  0
M  END
>  <CHROM.1>
-141.46222355,173.99253264,-81.51422314,-56.77743302,-87.28687591,56.33200086
92.90155627,65.33587151,160.02599947,75.68184935,-50.61548217,-62.03957595
156.62669681,164.53082680,109.30505139,-64.68410712,27.07700776,20.70201634
-2.80020758,0.25208393,-0.33052196,-1.59170824

>  <Name>
2bee_lig

>  <RI>
0

>  <Rbt.Current_Directory>
/home/itssahil/PROJECTS/Mol_Feturizer/New_Systems/rnas/2bee

>  <Rbt.Executable>
rbdock ($Id: //depot/dev/client3/rdock/2013.1/src/exe/rbdock.cxx#4 $)

>  <Rbt.Library>
libRbt.so (2013.1, Build901 2013/11/27)

>  <Rbt.Parameter_File>
/export/apps/rDock/src/rDock_2013.1_src/data/scripts/dock_solv.prm

>  <Rbt.Receptor>
prm/blind_docking_40.prm

>  <SCORE>
20.1683

>  <SCORE.INTER>
-3.09933

>  <SCORE.INTER.CONST>
1

>  <SCORE.INTER.POLAR>
0

>  <SCORE.INTER.ROT>
16

>  <SCORE.INTER.SOLV>
20.6391

>  <SCORE.INTER.VDW>
-23.2126

>  <SCORE.INTER.norm>
-0.0632516

>  <SCORE.INTRA>
4.31504

>  <SCORE.INTRA.DIHEDRAL>
-15.0945

>  <SCORE.INTRA.DIHEDRAL.0>
36.0842

>  <SCORE.INTRA.POLAR>
0

>  <SCORE.INTRA.POLAR.0>
0

>  <SCORE.INTRA.REPUL>
0

>  <SCORE.INTRA.REPUL.0>
0

>  <SCORE.INTRA.SOLV>
9.37166

>  <SCORE.INTRA.SOLV.lig_0>
-126.444

>  <SCORE.INTRA.VDW>
7.17648

>  <SCORE.INTRA.VDW.0>
-7.40469

>  <SCORE.INTRA.norm>
0.088062

>  <SCORE.RESTR>
18.9526

>  <SCORE.RESTR.CAVITY>
18.9526

>  <SCORE.RESTR.norm>
0.386788

>  <SCORE.SYSTEM>
0

>  <SCORE.SYSTEM.CONST>
0

>  <SCORE.SYSTEM.DIHEDRAL>
0

>  <SCORE.SYSTEM.SOLV>
0

>  <SCORE.SYSTEM.norm>
0

>  <SCORE.heavy>
49

>  <SCORE.norm>
0.411598

>  <RMSD>
23.629

$$$$
2bee_lig
 OpenBabel11021811423D
libRbt.so/2013.1/901 2013/11/27
 49 52  0  0  0  0  0  0  0  0999 V2000
   30.5465   24.1069   -0.7609 C   0  0  2  0  0  0  0  0  0  0  0  0
   30.8540   22.7201   -0.8268 O   0  0  0  0  0  0  0  0  0  0  0  0
   28.8579   18.8082   -0.5315 C   0  0  2  0  0  0  0  0  0  0  0  0
   27.8077   17.7979   -0.2294 N   0  0  0  0  0  0  0  0  0  0  0  0
   28.3716   21.8460   -3.9316 C   0  0  1  0  0  0  0  0  0  0  0  0
   30.5990   22.8678   -7.6692 C   0  0  1  0  0  0  0  0  0  0  0  0
   23.2042   19.4683   -2.5405 C   0  0  0  0  0  0  0  0  0  0  0  0
   30.7148   24.6360    0.7158 C   0  0  2  0  0  0  0  0  0  0  0  0
   32.0526   24.3258    1.2086 N   0  0  0  0  0  0  0  0  0  0  0  0
   29.2139   19.6148    0.7991 C   0  0  0  0  0  0  0  0  0  0  0  0
   27.7233   22.4938   -5.1117 C   0  0  2  0  0  0  0  0  0  0  0  0
   26.2846   22.1937   -5.2132 O   0  0  0  0  0  0  0  0  0  0  0  0
   31.5932   22.2307   -6.5571 C   0  0  2  0  0  0  0  0  0  0  0  0
   31.0917   22.6299   -5.1998 N   0  0  0  0  0  0  0  0  0  0  0  0
   22.4366   19.0995   -1.4111 C   0  0  0  0  0  0  0  0  0  0  0  0
   21.3369   19.8689   -1.0377 N   0  0  0  0  0  0  0  0  0  0  0  0
   29.5876   23.9926    1.6364 C   0  0  1  0  0  0  0  0  0  0  0  0
   29.7442   24.4780    2.9618 O   0  0  0  0  0  0  0  0  0  0  0  0
   30.3568   20.7457    0.5054 C   0  0  2  0  0  0  0  0  0  0  0  0
   30.6878   21.4647    1.6886 N   0  0  0  0  0  0  0  0  0  0  0  0
   28.7122   22.0053   -6.1423 C   0  0  2  0  0  0  0  0  0  0  0  0
   29.2876   22.3472   -7.3452 O   0  0  0  0  0  0  0  0  0  0  0  0
   33.0389   22.7921   -6.8036 C   0  0  1  0  0  0  0  0  0  0  0  0
   33.4606   22.3470   -8.1399 O   0  0  0  0  0  0  0  0  0  0  0  0
   28.1983   24.3606    1.0658 C   0  0  2  0  0  0  0  0  0  0  0  0
   27.1144   23.7655    1.8886 O   0  0  0  0  0  0  0  0  0  0  0  0
   29.8446   21.7499   -0.5993 C   0  0  2  0  0  0  0  0  0  0  0  0
   29.0811   20.5321   -5.6120 C   0  0  2  0  0  0  0  0  0  0  0  0
   29.1313   20.7215   -4.2719 O   0  0  0  0  0  0  0  0  0  0  0  0
   33.0067   24.4202   -6.6951 C   0  0  2  0  0  0  0  0  0  0  0  0
   32.5785   24.8562   -5.3468 O   0  0  0  0  0  0  0  0  0  0  0  0
   28.0457   23.8358   -0.4009 C   0  0  2  0  0  0  0  0  0  0  0  0
   29.1356   24.4463   -1.1383 O   0  0  0  0  0  0  0  0  0  0  0  0
   29.5073   20.9103   -1.8776 C   0  0  2  0  0  0  0  0  0  0  0  0
   29.0891   21.8944   -2.7922 O   0  0  0  0  0  0  0  0  0  0  0  0
   30.4737   19.9268   -6.0243 C   0  0  0  0  0  0  0  0  0  0  0  0
   30.8044   18.8163   -5.1316 O   0  0  0  0  0  0  0  0  0  0  0  0
   31.9905   25.0201   -7.7658 C   0  0  1  0  0  0  0  0  0  0  0  0
   30.6397   24.3923   -7.4925 O   0  0  0  0  0  0  0  0  0  0  0  0
   26.7097   24.2504   -0.8687 C   0  0  0  0  0  0  0  0  0  0  0  0
   26.2818   23.4374   -1.8440 O   0  0  0  0  0  0  0  0  0  0  0  0
   28.3724   19.8422   -1.5717 C   0  0  1  0  0  0  0  0  0  0  0  0
   28.0872   19.0952   -2.7149 O   0  0  0  0  0  0  0  0  0  0  0  0
   25.7037   20.8434   -5.2922 C   0  0  0  0  0  0  0  0  0  0  0  0
   32.0277   26.5717   -7.5554 C   0  0  0  0  0  0  0  0  0  0  0  0
   30.9155   27.2452   -8.1620 N   0  0  0  0  0  0  0  0  0  0  0  0
   25.4668   20.3126   -3.8776 C   0  0  0  0  0  0  0  0  0  0  0  0
   25.1993   18.8668   -4.0050 N   0  0  0  0  0  0  0  0  0  0  0  0
   23.9129   18.3134   -3.3883 C   0  0  0  0  0  0  0  0  0  0  0  0
  1  2  1  1  0  0  0
  1  8  1  0  0  0  0
  1 33  1  0  0  0  0
  3  4  1  1  0  0  0
  3 10  1  0  0  0  0
  3 42  1  0  0  0  0
  5 11  1  0  0  0  0
  5 29  1  0  0  0  0
  5 35  1  6  0  0  0
  6 13  1  0  0  0  0
  6 39  1  0  0  0  0
  6 22  1  1  0  0  0
  7 15  1  0  0  0  0
  8  9  1  1  0  0  0
  8 17  1  0  0  0  0
 10 19  1  0  0  0  0
 11 12  1  6  0  0  0
 11 21  1  0  0  0  0
 12 44  1  0  0  0  0
 13 14  1  1  0  0  0
 13 23  1  0  0  0  0
 15 16  1  0  0  0  0
 17 18  1  1  0  0  0
 17 25  1  0  0  0  0
 19 20  1  1  0  0  0
 19 27  1  0  0  0  0
 21 22  1  6  0  0  0
 21 28  1  0  0  0  0
 23 24  1  6  0  0  0
 23 30  1  0  0  0  0
 25 26  1  1  0  0  0
 25 32  1  0  0  0  0
 27  2  1  6  0  0  0
 27 34  1  0  0  0  0
 28 29  1  0  0  0  0
 28 36  1  6  0  0  0
 30 31  1  1  0  0  0
 30 38  1  0  0  0  0
 32 33  1  0  0  0  0
 32 40  1  6  0  0  0
 34 35  1  6  0  0  0
 34 42  1  0  0  0  0
 36 37  1  0  0  0  0
 38 39  1  0  0  0  0
 38 45  1  1  0  0  0
 40 41  1  0  0  0  0
 42 43  1  6  0  0  0
 44 47  1  0  0  0  0
 45 46  1  0  0  0  0
 47 48  1  0  0  0  0
 48 49  1  0  0  0  0
 49  7  1  0  0  0  0
M  END
>  <CHROM.1>
88.55670796,179.11928144,31.88475844,-149.07409050,-57.12429335,87.64197380
103.32203555,-127.49869039,162.05722464,-155.38873000,-161.07728545,-163.52788205
-166.69206423,-125.68849466,-7.43666541,-149.62363111,28.95097315,22.11504135
-3.10279476,-2.37885945,-0.64039609,-1.71309394

>  <Name>
2bee_lig

>  <RI>
0

>  <Rbt.Current_Directory>
/home/itssahil/PROJECTS/Mol_Feturizer/New_Systems/rnas/2bee

>  <Rbt.Executable>
rbdock ($Id: //depot/dev/client3/rdock/2013.1/src/exe/rbdock.cxx#4 $)

>  <Rbt.Library>
libRbt.so (2013.1, Build901 2013/11/27)

>  <Rbt.Parameter_File>
/export/apps/rDock/src/rDock_2013.1_src/data/scripts/dock_solv.prm

>  <Rbt.Receptor>
prm/blind_docking_40.prm

>  <SCORE>
38.1411

>  <SCORE.INTER>
-0.686596

>  <SCORE.INTER.CONST>
1

>  <SCORE.INTER.POLAR>
-1.06232

>  <SCORE.INTER.ROT>
16

>  <SCORE.INTER.SOLV>
29.0752

>  <SCORE.INTER.VDW>
-20.8751

>  <SCORE.INTER.norm>
-0.0140122

>  <SCORE.INTRA>
17.2653

>  <SCORE.INTRA.DIHEDRAL>
-1.11613

>  <SCORE.INTRA.DIHEDRAL.0>
36.0842

>  <SCORE.INTRA.POLAR>
0

>  <SCORE.INTRA.POLAR.0>
0

>  <SCORE.INTRA.REPUL>
0

>  <SCORE.INTRA.REPUL.0>
0

>  <SCORE.INTRA.SOLV>
8.18391

>  <SCORE.INTRA.SOLV.lig_0>
-126.444

>  <SCORE.INTRA.VDW>
13.7314

>  <SCORE.INTRA.VDW.0>
-7.40469

>  <SCORE.INTRA.norm>
0.352353

>  <SCORE.RESTR>
21.5624

>  <SCORE.RESTR.CAVITY>
21.5624

>  <SCORE.RESTR.norm>
0.44005

>  <SCORE.SYSTEM>
0

>  <SCORE.SYSTEM.CONST>
0

>  <SCORE.SYSTEM.DIHEDRAL>
0

>  <SCORE.SYSTEM.SOLV>
0

>  <SCORE.SYSTEM.norm>
0

>  <SCORE.heavy>
49

>  <SCORE.norm>
0.77839

>  <RMSD>
23.646

$$$$
2bee_lig
 OpenBabel11021811423D
libRbt.so/2013.1/901 2013/11/27
 49 52  0  0  0  0  0  0  0  0999 V2000
   30.3901   18.7906   -1.2649 C   0  0  2  0  0  0  0  0  0  0  0  0
   29.5848   19.4644   -2.2238 O   0  0  0  0  0  0  0  0  0  0  0  0
   30.0361   23.6378   -0.8996 C   0  0  2  0  0  0  0  0  0  0  0  0
   29.9826   25.1247   -0.9326 N   0  0  0  0  0  0  0  0  0  0  0  0
   26.3864   21.0687   -1.9020 C   0  0  1  0  0  0  0  0  0  0  0  0
   27.3067   23.0728   -5.8083 C   0  0  1  0  0  0  0  0  0  0  0  0
   20.7491   17.7575   -1.3327 C   0  0  0  0  0  0  0  0  0  0  0  0
   29.4821   18.0986   -0.1760 C   0  0  2  0  0  0  0  0  0  0  0  0
   28.5100   17.2215   -0.8196 N   0  0  0  0  0  0  0  0  0  0  0  0
   30.8778   23.1112   -2.1494 C   0  0  0  0  0  0  0  0  0  0  0  0
   25.4075   21.9964   -2.5453 C   0  0  2  0  0  0  0  0  0  0  0  0
   24.0069   21.6490   -2.2490 O   0  0  0  0  0  0  0  0  0  0  0  0
   26.9682   22.8638   -7.3808 C   0  0  2  0  0  0  0  0  0  0  0  0
   26.6374   21.4158   -7.5981 N   0  0  0  0  0  0  0  0  0  0  0  0
   19.9419   18.7280   -1.9710 C   0  0  0  0  0  0  0  0  0  0  0  0
   18.6216   18.9087   -1.5650 N   0  0  0  0  0  0  0  0  0  0  0  0
   28.7699   19.2177    0.7028 C   0  0  1  0  0  0  0  0  0  0  0  0
   27.9589   18.5857    1.6826 O   0  0  0  0  0  0  0  0  0  0  0  0
   30.9486   21.4783   -2.1564 C   0  0  2  0  0  0  0  0  0  0  0  0
   31.7052   20.9990   -3.2628 N   0  0  0  0  0  0  0  0  0  0  0  0
   25.9719   21.9018   -3.9422 C   0  0  2  0  0  0  0  0  0  0  0  0
   26.1240   22.6232   -5.1048 O   0  0  0  0  0  0  0  0  0  0  0  0
   28.2292   23.2786   -8.2197 C   0  0  1  0  0  0  0  0  0  0  0  0
   28.4762   24.7053   -7.9645 O   0  0  0  0  0  0  0  0  0  0  0  0
   29.8503   20.1080    1.3597 C   0  0  2  0  0  0  0  0  0  0  0  0
   29.2266   21.1784    2.1790 O   0  0  0  0  0  0  0  0  0  0  0  0
   29.4893   20.8796   -2.2129 C   0  0  2  0  0  0  0  0  0  0  0  0
   26.4349   20.3642   -4.0362 C   0  0  2  0  0  0  0  0  0  0  0  0
   26.9398   20.1480   -2.7983 O   0  0  0  0  0  0  0  0  0  0  0  0
   29.4992   22.3587   -7.7676 C   0  0  2  0  0  0  0  0  0  0  0  0
   29.2381   20.9249   -8.0268 O   0  0  0  0  0  0  0  0  0  0  0  0
   30.7479   20.7838    0.2701 C   0  0  2  0  0  0  0  0  0  0  0  0
   31.3119   19.6861   -0.4923 O   0  0  0  0  0  0  0  0  0  0  0  0
   28.7079   21.4280   -0.9715 C   0  0  2  0  0  0  0  0  0  0  0  0
   27.4460   20.8206   -1.1076 O   0  0  0  0  0  0  0  0  0  0  0  0
   27.5816   19.9997   -5.0500 C   0  0  0  0  0  0  0  0  0  0  0  0
   28.8804   20.2449   -4.4235 O   0  0  0  0  0  0  0  0  0  0  0  0
   29.7843   22.5464   -6.2111 C   0  0  1  0  0  0  0  0  0  0  0  0
   28.5097   22.1771   -5.4812 O   0  0  0  0  0  0  0  0  0  0  0  0
   31.7573   21.5885    0.9836 C   0  0  0  0  0  0  0  0  0  0  0  0
   31.2176   22.7327    1.4252 O   0  0  0  0  0  0  0  0  0  0  0  0
   28.6269   23.0138   -1.0073 C   0  0  1  0  0  0  0  0  0  0  0  0
   27.9366   23.4905    0.1074 O   0  0  0  0  0  0  0  0  0  0  0  0
   23.5218   21.0980   -0.9730 C   0  0  0  0  0  0  0  0  0  0  0  0
   30.9976   21.6090   -5.8913 C   0  0  0  0  0  0  0  0  0  0  0  0
   32.2491   22.1367   -6.3537 N   0  0  0  0  0  0  0  0  0  0  0  0
   22.7001   19.8377   -1.2477 C   0  0  0  0  0  0  0  0  0  0  0  0
   22.0765   19.4492    0.0322 N   0  0  0  0  0  0  0  0  0  0  0  0
   21.3573   18.1006    0.1051 C   0  0  0  0  0  0  0  0  0  0  0  0
  1  2  1  6  0  0  0
  1  8  1  0  0  0  0
  1 33  1  0  0  0  0
  3  4  1  6  0  0  0
  3 10  1  0  0  0  0
  3 42  1  0  0  0  0
  5 11  1  0  0  0  0
  5 29  1  0  0  0  0
  5 35  1  6  0  0  0
  6 13  1  0  0  0  0
  6 39  1  0  0  0  0
  6 22  1  1  0  0  0
  7 15  1  0  0  0  0
  8  9  1  6  0  0  0
  8 17  1  0  0  0  0
 10 19  1  0  0  0  0
 11 12  1  6  0  0  0
 11 21  1  0  0  0  0
 12 44  1  0  0  0  0
 13 14  1  1  0  0  0
 13 23  1  0  0  0  0
 15 16  1  0  0  0  0
 17 18  1  1  0  0  0
 17 25  1  0  0  0  0
 19 20  1  6  0  0  0
 19 27  1  0  0  0  0
 21 22  1  6  0  0  0
 21 28  1  0  0  0  0
 23 24  1  1  0  0  0
 23 30  1  0  0  0  0
 25 26  1  6  0  0  0
 25 32  1  0  0  0  0
 27  2  1  1  0  0  0
 27 34  1  0  0  0  0
 28 29  1  0  0  0  0
 28 36  1  6  0  0  0
 30 31  1  1  0  0  0
 30 38  1  0  0  0  0
 32 33  1  0  0  0  0
 32 40  1  1  0  0  0
 34 35  1  6  0  0  0
 34 42  1  0  0  0  0
 36 37  1  0  0  0  0
 38 39  1  0  0  0  0
 38 45  1  1  0  0  0
 40 41  1  0  0  0  0
 42 43  1  1  0  0  0
 44 47  1  0  0  0  0
 45 46  1  0  0  0  0
 47 48  1  0  0  0  0
 48 49  1  0  0  0  0
 49  7  1  0  0  0  0
M  END
>  <CHROM.1>
105.62762098,-45.01725771,140.23158906,-77.39224599,35.32343931,-128.36480343
117.45430705,49.81674112,84.11578206,-77.53141869,-76.98959261,75.66133531
-171.67045759,-171.19503166,-30.77436094,-51.95109801,27.73909120,21.06983161
-2.57290986,-0.48568325,0.22750590,1.86381748

>  <Name>
2bee_lig

>  <RI>
0

>  <Rbt.Current_Directory>
/home/itssahil/PROJECTS/Mol_Feturizer/New_Systems/rnas/2bee

>  <Rbt.Executable>
rbdock ($Id: //depot/dev/client3/rdock/2013.1/src/exe/rbdock.cxx#4 $)

>  <Rbt.Library>
libRbt.so (2013.1, Build901 2013/11/27)

>  <Rbt.Parameter_File>
/export/apps/rDock/src/rDock_2013.1_src/data/scripts/dock_solv.prm

>  <Rbt.Receptor>
prm/blind_docking_40.prm

>  <SCORE>
88.7041

>  <SCORE.INTER>
33.0462

>  <SCORE.INTER.CONST>
1

>  <SCORE.INTER.POLAR>
-0.722582

>  <SCORE.INTER.ROT>
16

>  <SCORE.INTER.SOLV>
23.9338

>  <SCORE.INTER.VDW>
2.19479

>  <SCORE.INTER.norm>
0.674411

>  <SCORE.INTRA>
39.734

>  <SCORE.INTRA.DIHEDRAL>
-2.96804

>  <SCORE.INTRA.DIHEDRAL.0>
36.0842

>  <SCORE.INTRA.POLAR>
0

>  <SCORE.INTRA.POLAR.0>
0

>  <SCORE.INTRA.REPUL>
0.0451298

>  <SCORE.INTRA.REPUL.0>
0

>  <SCORE.INTRA.SOLV>
11.675

>  <SCORE.INTRA.SOLV.lig_0>
-126.444

>  <SCORE.INTRA.VDW>
35.1549

>  <SCORE.INTRA.VDW.0>
-7.40469

>  <SCORE.INTRA.norm>
0.810898

>  <SCORE.RESTR>
15.924

>  <SCORE.RESTR.CAVITY>
15.924

>  <SCORE.RESTR.norm>
0.324979

>  <SCORE.SYSTEM>
0

>  <SCORE.SYSTEM.CONST>
0

>  <SCORE.SYSTEM.DIHEDRAL>
0

>  <SCORE.SYSTEM.SOLV>
0

>  <SCORE.SYSTEM.norm>
0

>  <SCORE.heavy>
49

>  <SCORE.norm>
1.81029

>  <RMSD>
23.714

$$$$
2bee_lig
 OpenBabel11021811423D
libRbt.so/2013.1/901 2013/11/27
 49 52  0  0  0  0  0  0  0  0999 V2000
   30.9942   20.4507   -1.7419 C   0  0  2  0  0  0  0  0  0  0  0  0
   30.1811   21.1096   -2.7046 O   0  0  0  0  0  0  0  0  0  0  0  0
   31.4659   22.6181   -6.6350 C   0  0  2  0  0  0  0  0  0  0  0  0
   31.9173   22.6075   -8.0531 N   0  0  0  0  0  0  0  0  0  0  0  0
   27.2870   21.7003   -4.0030 C   0  0  1  0  0  0  0  0  0  0  0  0
   23.2271   19.3604   -3.4281 C   0  0  1  0  0  0  0  0  0  0  0  0
   30.2619   23.8733    0.2407 C   0  0  0  0  0  0  0  0  0  0  0  0
   30.6551   18.9105   -1.7002 C   0  0  2  0  0  0  0  0  0  0  0  0
   30.7756   18.3356   -3.0357 N   0  0  0  0  0  0  0  0  0  0  0  0
   32.4776   21.7553   -5.7518 C   0  0  0  0  0  0  0  0  0  0  0  0
   25.9430   22.3223   -3.8048 C   0  0  2  0  0  0  0  0  0  0  0  0
   25.9218   23.3070   -2.7092 O   0  0  0  0  0  0  0  0  0  0  0  0
   21.8330   19.2661   -4.2520 C   0  0  2  0  0  0  0  0  0  0  0  0
   21.1151   20.5762   -4.1053 N   0  0  0  0  0  0  0  0  0  0  0  0
   31.6602   24.0106    0.0779 C   0  0  0  0  0  0  0  0  0  0  0  0
   32.5269   23.4367    1.0054 N   0  0  0  0  0  0  0  0  0  0  0  0
   29.1927   18.7102   -1.1058 C   0  0  1  0  0  0  0  0  0  0  0  0
   28.8983   17.3213   -1.0678 O   0  0  0  0  0  0  0  0  0  0  0  0
   32.0081   21.7313   -4.1864 C   0  0  2  0  0  0  0  0  0  0  0  0
   32.9094   20.9715   -3.3886 N   0  0  0  0  0  0  0  0  0  0  0  0
   25.1643   21.0313   -3.7289 C   0  0  2  0  0  0  0  0  0  0  0  0
   23.9292   20.4886   -4.0027 O   0  0  0  0  0  0  0  0  0  0  0  0
   20.9792   18.0932   -3.6508 C   0  0  1  0  0  0  0  0  0  0  0  0
   21.7408   16.8509   -3.8467 O   0  0  0  0  0  0  0  0  0  0  0  0
   29.1319   19.3344    0.3077 C   0  0  2  0  0  0  0  0  0  0  0  0
   27.7760   19.1829    0.8945 O   0  0  0  0  0  0  0  0  0  0  0  0
   30.5564   21.1222   -4.0724 C   0  0  2  0  0  0  0  0  0  0  0  0
   26.1773   20.0491   -2.9565 C   0  0  2  0  0  0  0  0  0  0  0  0
   27.3706   20.4007   -3.4916 O   0  0  0  0  0  0  0  0  0  0  0  0
   20.7051   18.3867   -2.0690 C   0  0  2  0  0  0  0  0  0  0  0  0
   19.9402   19.6406   -1.8842 O   0  0  0  0  0  0  0  0  0  0  0  0
   29.4759   20.8604    0.2540 C   0  0  2  0  0  0  0  0  0  0  0  0
   30.7997   20.9311   -0.3349 O   0  0  0  0  0  0  0  0  0  0  0  0
   29.6077   22.0001   -4.9565 C   0  0  2  0  0  0  0  0  0  0  0  0
   28.3543   21.3900   -4.7646 O   0  0  0  0  0  0  0  0  0  0  0  0
   26.0273   18.5007   -3.1925 C   0  0  0  0  0  0  0  0  0  0  0  0
   27.1962   17.8106   -2.6476 O   0  0  0  0  0  0  0  0  0  0  0  0
   22.0884   18.5199   -1.2893 C   0  0  1  0  0  0  0  0  0  0  0  0
   22.8681   19.6314   -1.9603 O   0  0  0  0  0  0  0  0  0  0  0  0
   29.4172   21.3630    1.6395 C   0  0  0  0  0  0  0  0  0  0  0  0
   30.5582   21.0886    2.2861 O   0  0  0  0  0  0  0  0  0  0  0  0
   30.0682   21.9794   -6.4763 C   0  0  1  0  0  0  0  0  0  0  0  0
   29.2211   22.7715   -7.2518 O   0  0  0  0  0  0  0  0  0  0  0  0
   26.0059   22.9824   -1.2758 C   0  0  0  0  0  0  0  0  0  0  0  0
   21.7033   18.8188    0.1992 C   0  0  0  0  0  0  0  0  0  0  0  0
   20.9104   20.0058    0.3443 N   0  0  0  0  0  0  0  0  0  0  0  0
   27.4755   22.9326   -0.8553 C   0  0  0  0  0  0  0  0  0  0  0  0
   27.8520   24.3043   -0.4619 N   0  0  0  0  0  0  0  0  0  0  0  0
   29.2987   24.7488   -0.6871 C   0  0  0  0  0  0  0  0  0  0  0  0
  1  2  1  6  0  0  0
  1  8  1  0  0  0  0
  1 33  1  0  0  0  0
  3  4  1  6  0  0  0
  3 10  1  0  0  0  0
  3 42  1  0  0  0  0
  5 11  1  0  0  0  0
  5 29  1  0  0  0  0
  5 35  1  6  0  0  0
  6 13  1  0  0  0  0
  6 39  1  0  0  0  0
  6 22  1  6  0  0  0
  7 15  1  0  0  0  0
  8  9  1  6  0  0  0
  8 17  1  0  0  0  0
 10 19  1  0  0  0  0
 11 12  1  1  0  0  0
 11 21  1  0  0  0  0
 12 44  1  0  0  0  0
 13 14  1  1  0  0  0
 13 23  1  0  0  0  0
 15 16  1  0  0  0  0
 17 18  1  1  0  0  0
 17 25  1  0  0  0  0
 19 20  1  1  0  0  0
 19 27  1  0  0  0  0
 21 22  1  1  0  0  0
 21 28  1  0  0  0  0
 23 24  1  1  0  0  0
 23 30  1  0  0  0  0
 25 26  1  6  0  0  0
 25 32  1  0  0  0  0
 27  2  1  1  0  0  0
 27 34  1  0  0  0  0
 28 29  1  0  0  0  0
 28 36  1  6  0  0  0
 30 31  1  6  0  0  0
 30 38  1  0  0  0  0
 32 33  1  0  0  0  0
 32 40  1  1  0  0  0
 34 35  1  6  0  0  0
 34 42  1  0  0  0  0
 36 37  1  0  0  0  0
 38 39  1  0  0  0  0
 38 45  1  1  0  0  0
 40 41  1  0  0  0  0
 42 43  1  6  0  0  0
 44 47  1  0  0  0  0
 45 46  1  0  0  0  0
 47 48  1  0  0  0  0
 48 49  1  0  0  0  0
 49  7  1  0  0  0  0
M  END
>  <CHROM.1>
-83.99865971,95.97199765,-178.68454425,169.51939731,-71.52563666,88.43825059
-154.03191313,-55.94960633,167.85127073,81.60482158,101.32216761,-58.37109964
88.36157369,-148.86185726,-64.86604718,172.75969432,27.40176857,20.75387152
-2.43356799,-0.03848691,0.29166013,1.62126669

>  <Name>
2bee_lig

>  <RI>
0

>  <Rbt.Current_Directory>
/home/itssahil/PROJECTS/Mol_Feturizer/New_Systems/rnas/2bee

>  <Rbt.Executable>
rbdock ($Id: //depot/dev/client3/rdock/2013.1/src/exe/rbdock.cxx#4 $)

>  <Rbt.Library>
libRbt.so (2013.1, Build901 2013/11/27)

>  <Rbt.Parameter_File>
/export/apps/rDock/src/rDock_2013.1_src/data/scripts/dock_solv.prm

>  <Rbt.Receptor>
prm/blind_docking_40.prm

>  <SCORE>
13.6135

>  <SCORE.INTER>
-6.68227

>  <SCORE.INTER.CONST>
1

>  <SCORE.INTER.POLAR>
-0.789281

>  <SCORE.INTER.ROT>
16

>  <SCORE.INTER.SOLV>
22.9749

>  <SCORE.INTER.VDW>
-23.7489

>  <SCORE.INTER.norm>
-0.136373

>  <SCORE.INTRA>
3.6041

>  <SCORE.INTRA.DIHEDRAL>
-9.59045

>  <SCORE.INTRA.DIHEDRAL.0>
36.0842

>  <SCORE.INTRA.POLAR>
0

>  <SCORE.INTRA.POLAR.0>
0

>  <SCORE.INTRA.REPUL>
0.0586994

>  <SCORE.INTRA.REPUL.0>
0

>  <SCORE.INTRA.SOLV>
7.22616

>  <SCORE.INTRA.SOLV.lig_0>
-126.444

>  <SCORE.INTRA.VDW>
4.49275

>  <SCORE.INTRA.VDW.0>
-7.40469

>  <SCORE.INTRA.norm>
0.0735531

>  <SCORE.RESTR>
16.6916

>  <SCORE.RESTR.CAVITY>
16.6916

>  <SCORE.RESTR.norm>
0.340645

>  <SCORE.SYSTEM>
0

>  <SCORE.SYSTEM.CONST>
0

>  <SCORE.SYSTEM.DIHEDRAL>
0

>  <SCORE.SYSTEM.SOLV>
0

>  <SCORE.SYSTEM.norm>
0

>  <SCORE.heavy>
49

>  <SCORE.norm>
0.277826

>  <RMSD>
23.736

$$$$
2bee_lig
 OpenBabel11021811423D
libRbt.so/2013.1/901 2013/11/27
 49 52  0  0  0  0  0  0  0  0999 V2000
   29.1567   21.0754    2.2150 C   0  0  2  0  0  0  0  0  0  0  0  0
   29.4997   20.3575    1.0364 O   0  0  0  0  0  0  0  0  0  0  0  0
   32.5903   22.9672   -0.6991 C   0  0  2  0  0  0  0  0  0  0  0  0
   33.7531   23.3930   -1.5245 N   0  0  0  0  0  0  0  0  0  0  0  0
   29.0102   21.0932   -2.7065 C   0  0  1  0  0  0  0  0  0  0  0  0
   25.2490   18.9183   -3.7311 C   0  0  1  0  0  0  0  0  0  0  0  0
   32.0171   22.2880   -7.7618 C   0  0  0  0  0  0  0  0  0  0  0  0
   27.5888   21.1678    2.3636 C   0  0  2  0  0  0  0  0  0  0  0  0
   27.0028   19.8324    2.3201 N   0  0  0  0  0  0  0  0  0  0  0  0
   33.0218   21.7439    0.2311 C   0  0  0  0  0  0  0  0  0  0  0  0
   28.9139   19.9985   -3.7190 C   0  0  2  0  0  0  0  0  0  0  0  0
   29.9674   20.0720   -4.7462 O   0  0  0  0  0  0  0  0  0  0  0  0
   24.0472   18.7409   -4.8060 C   0  0  2  0  0  0  0  0  0  0  0  0
   23.7208   20.0940   -5.3680 N   0  0  0  0  0  0  0  0  0  0  0  0
   32.3900   23.1130   -6.6750 C   0  0  0  0  0  0  0  0  0  0  0  0
   32.0761   24.4701   -6.6937 N   0  0  0  0  0  0  0  0  0  0  0  0
   27.0061   22.1012    1.2142 C   0  0  1  0  0  0  0  0  0  0  0  0
   25.5955   22.1821    1.3588 O   0  0  0  0  0  0  0  0  0  0  0  0
   31.7655   21.2373    1.1457 C   0  0  2  0  0  0  0  0  0  0  0  0
   32.1430   20.1519    1.9857 N   0  0  0  0  0  0  0  0  0  0  0  0
   27.4572   20.2037   -4.0576 C   0  0  2  0  0  0  0  0  0  0  0  0
   26.3318   19.5286   -4.4733 O   0  0  0  0  0  0  0  0  0  0  0  0
   22.8041   18.1313   -4.0650 C   0  0  1  0  0  0  0  0  0  0  0  0
   23.1994   16.8083   -3.5601 O   0  0  0  0  0  0  0  0  0  0  0  0
   27.6606   23.4984    1.3173 C   0  0  2  0  0  0  0  0  0  0  0  0
   27.1549   24.3990    0.2501 O   0  0  0  0  0  0  0  0  0  0  0  0
   30.5695   20.7964    0.2149 C   0  0  2  0  0  0  0  0  0  0  0  0
   27.2933   21.8016   -3.9728 C   0  0  2  0  0  0  0  0  0  0  0  0
   28.0645   22.1056   -2.9019 O   0  0  0  0  0  0  0  0  0  0  0  0
   22.3613   19.1295   -2.8521 C   0  0  2  0  0  0  0  0  0  0  0  0
   21.9681   20.4586   -3.3721 O   0  0  0  0  0  0  0  0  0  0  0  0
   29.2157   23.3928    1.1744 C   0  0  2  0  0  0  0  0  0  0  0  0
   29.6349   22.4964    2.2351 O   0  0  0  0  0  0  0  0  0  0  0  0
   30.1887   22.0269   -0.6758 C   0  0  2  0  0  0  0  0  0  0  0  0
   29.1128   21.5355   -1.4379 O   0  0  0  0  0  0  0  0  0  0  0  0
   25.8632   22.3813   -3.6651 C   0  0  0  0  0  0  0  0  0  0  0  0
   25.9658   23.8178   -3.4095 O   0  0  0  0  0  0  0  0  0  0  0  0
   23.5715   19.3240   -1.8339 C   0  0  1  0  0  0  0  0  0  0  0  0
   24.7391   19.8630   -2.6338 O   0  0  0  0  0  0  0  0  0  0  0  0
   29.7532   24.7599    1.3084 C   0  0  0  0  0  0  0  0  0  0  0  0
   31.0337   24.8003    0.9160 O   0  0  0  0  0  0  0  0  0  0  0  0
   31.4169   22.4771   -1.5765 C   0  0  1  0  0  0  0  0  0  0  0  0
   31.0682   23.5787   -2.3583 O   0  0  0  0  0  0  0  0  0  0  0  0
   30.2820   21.2615   -5.5543 C   0  0  0  0  0  0  0  0  0  0  0  0
   23.0416   20.3073   -0.7360 C   0  0  0  0  0  0  0  0  0  0  0  0
   22.0359   19.7202    0.1022 N   0  0  0  0  0  0  0  0  0  0  0  0
   29.1603   21.4941   -6.5675 C   0  0  0  0  0  0  0  0  0  0  0  0
   29.5354   22.6872   -7.3509 N   0  0  0  0  0  0  0  0  0  0  0  0
   30.5927   22.5291   -8.4457 C   0  0  0  0  0  0  0  0  0  0  0  0
  1  2  1  6  0  0  0
  1  8  1  0  0  0  0
  1 33  1  0  0  0  0
  3  4  1  6  0  0  0
  3 10  1  0  0  0  0
  3 42  1  0  0  0  0
  5 11  1  0  0  0  0
  5 29  1  0  0  0  0
  5 35  1  1  0  0  0
  6 13  1  0  0  0  0
  6 39  1  0  0  0  0
  6 22  1  6  0  0  0
  7 15  1  0  0  0  0
  8  9  1  6  0  0  0
  8 17  1  0  0  0  0
 10 19  1  0  0  0  0
 11 12  1  6  0  0  0
 11 21  1  0  0  0  0
 12 44  1  0  0  0  0
 13 14  1  1  0  0  0
 13 23  1  0  0  0  0
 15 16  1  0  0  0  0
 17 18  1  1  0  0  0
 17 25  1  0  0  0  0
 19 20  1  6  0  0  0
 19 27  1  0  0  0  0
 21 22  1  6  0  0  0
 21 28  1  0  0  0  0
 23 24  1  1  0  0  0
 23 30  1  0  0  0  0
 25 26  1  6  0  0  0
 25 32  1  0  0  0  0
 27  2  1  1  0  0  0
 27 34  1  0  0  0  0
 28 29  1  0  0  0  0
 28 36  1  1  0  0  0
 30 31  1  6  0  0  0
 30 38  1  0  0  0  0
 32 33  1  0  0  0  0
 32 40  1  1  0  0  0
 34 35  1  6  0  0  0
 34 42  1  0  0  0  0
 36 37  1  0  0  0  0
 38 39  1  0  0  0  0
 38 45  1  1  0  0  0
 40 41  1  0  0  0  0
 42 43  1  6  0  0  0
 44 47  1  0  0  0  0
 45 46  1  0  0  0  0
 47 48  1  0  0  0  0
 48 49  1  0  0  0  0
 49  7  1  0  0  0  0
M  END
>  <CHROM.1>
138.97889142,101.61753966,161.87798957,-39.23526922,-52.49977896,-71.49775986
93.16596347,42.11081467,170.60587028,-166.74404344,-101.82931208,69.32617396
-179.57489156,77.37843952,-70.66776245,-45.54383671,28.09403755,21.45365992
-2.09637148,0.23684095,0.38150723,1.50240269

>  <Name>
2bee_lig

>  <RI>
0

>  <Rbt.Current_Directory>
/home/itssahil/PROJECTS/Mol_Feturizer/New_Systems/rnas/2bee

>  <Rbt.Executable>
rbdock ($Id: //depot/dev/client3/rdock/2013.1/src/exe/rbdock.cxx#4 $)

>  <Rbt.Library>
libRbt.so (2013.1, Build901 2013/11/27)

>  <Rbt.Parameter_File>
/export/apps/rDock/src/rDock_2013.1_src/data/scripts/dock_solv.prm

>  <Rbt.Receptor>
prm/blind_docking_40.prm

>  <SCORE>
36.4071

>  <SCORE.INTER>
7.18479

>  <SCORE.INTER.CONST>
1

>  <SCORE.INTER.POLAR>
-0.0171484

>  <SCORE.INTER.ROT>
16

>  <SCORE.INTER.SOLV>
24.3717

>  <SCORE.INTER.VDW>
-17.5435

>  <SCORE.INTER.norm>
0.146628

>  <SCORE.INTRA>
7.23048

>  <SCORE.INTRA.DIHEDRAL>
-8.31467

>  <SCORE.INTRA.DIHEDRAL.0>
36.0842

>  <SCORE.INTRA.POLAR>
0

>  <SCORE.INTRA.POLAR.0>
0

>  <SCORE.INTRA.REPUL>
0

>  <SCORE.INTRA.REPUL.0>
0

>  <SCORE.INTRA.SOLV>
3.05903

>  <SCORE.INTRA.SOLV.lig_0>
-126.444

>  <SCORE.INTRA.VDW>
9.8583

>  <SCORE.INTRA.VDW.0>
-7.40469

>  <SCORE.INTRA.norm>
0.147561

>  <SCORE.RESTR>
21.9919

>  <SCORE.RESTR.CAVITY>
21.9919

>  <SCORE.RESTR.norm>
0.448813

>  <SCORE.SYSTEM>
0

>  <SCORE.SYSTEM.CONST>
0

>  <SCORE.SYSTEM.DIHEDRAL>
0

>  <SCORE.SYSTEM.SOLV>
0

>  <SCORE.SYSTEM.norm>
0

>  <SCORE.heavy>
49

>  <SCORE.norm>
0.743003

>  <RMSD>
23.755

$$$$
2bee_lig
 OpenBabel11021811423D
libRbt.so/2013.1/901 2013/11/27
 49 52  0  0  0  0  0  0  0  0999 V2000
   31.3989   21.3617   -0.8249 C   0  0  2  0  0  0  0  0  0  0  0  0
   30.1184   21.9512   -0.6376 O   0  0  0  0  0  0  0  0  0  0  0  0
   27.7301   18.4031    0.4020 C   0  0  2  0  0  0  0  0  0  0  0  0
   26.5586   17.5820    0.8123 N   0  0  0  0  0  0  0  0  0  0  0  0
   27.4139   21.0457   -3.2386 C   0  0  1  0  0  0  0  0  0  0  0  0
   23.2450   19.5407   -2.2816 C   0  0  1  0  0  0  0  0  0  0  0  0
   29.1133   21.9745   -7.4690 C   0  0  0  0  0  0  0  0  0  0  0  0
   32.3613   22.3665   -1.5687 C   0  0  2  0  0  0  0  0  0  0  0  0
   32.4180   23.6324   -0.8457 N   0  0  0  0  0  0  0  0  0  0  0  0
   28.0063   19.5201    1.5083 C   0  0  0  0  0  0  0  0  0  0  0  0
   26.1825   20.6747   -3.9994 C   0  0  2  0  0  0  0  0  0  0  0  0
   26.1533   21.2441   -5.3578 O   0  0  0  0  0  0  0  0  0  0  0  0
   22.3720   19.3662   -3.6375 C   0  0  2  0  0  0  0  0  0  0  0  0
   21.4685   20.5578   -3.7671 N   0  0  0  0  0  0  0  0  0  0  0  0
   30.2752   22.7744   -7.3640 C   0  0  0  0  0  0  0  0  0  0  0  0
   31.5274   22.2153   -7.6088 N   0  0  0  0  0  0  0  0  0  0  0  0
   31.8566   22.5679   -3.0642 C   0  0  1  0  0  0  0  0  0  0  0  0
   32.7312   23.4697   -3.7268 O   0  0  0  0  0  0  0  0  0  0  0  0
   29.2803   20.4534    1.0869 C   0  0  2  0  0  0  0  0  0  0  0  0
   29.5403   21.4473    2.0722 N   0  0  0  0  0  0  0  0  0  0  0  0
   25.1919   21.0935   -2.9401 C   0  0  2  0  0  0  0  0  0  0  0  0
   23.9430   20.7989   -2.4417 O   0  0  0  0  0  0  0  0  0  0  0  0
   21.5346   18.0427   -3.5222 C   0  0  1  0  0  0  0  0  0  0  0  0
   22.4876   16.9283   -3.4147 O   0  0  0  0  0  0  0  0  0  0  0  0
   31.8236   21.1953   -3.7756 C   0  0  2  0  0  0  0  0  0  0  0  0
   31.3420   21.3360   -5.1735 O   0  0  0  0  0  0  0  0  0  0  0  0
   28.9998   21.1456   -0.3035 C   0  0  2  0  0  0  0  0  0  0  0  0
   25.8824   22.3992   -2.3028 C   0  0  2  0  0  0  0  0  0  0  0  0
   27.1891   22.0440   -2.2845 O   0  0  0  0  0  0  0  0  0  0  0  0
   20.5668   18.1342   -2.2112 C   0  0  2  0  0  0  0  0  0  0  0  0
   19.6139   19.2608   -2.3296 O   0  0  0  0  0  0  0  0  0  0  0  0
   30.8706   20.2060   -3.0253 C   0  0  2  0  0  0  0  0  0  0  0  0
   31.3929   20.1261   -1.6743 O   0  0  0  0  0  0  0  0  0  0  0  0
   28.7328   20.0102   -1.3485 C   0  0  2  0  0  0  0  0  0  0  0  0
   28.5212   20.7296   -2.5392 O   0  0  0  0  0  0  0  0  0  0  0  0
   25.5091   22.7834   -0.8233 C   0  0  0  0  0  0  0  0  0  0  0  0
   26.0262   21.7636    0.0888 O   0  0  0  0  0  0  0  0  0  0  0  0
   21.4432   18.3504   -0.8980 C   0  0  1  0  0  0  0  0  0  0  0  0
   22.2542   19.6115   -1.1112 O   0  0  0  0  0  0  0  0  0  0  0  0
   30.9200   18.9252   -3.7553 C   0  0  0  0  0  0  0  0  0  0  0  0
   30.0869   18.0360   -3.1979 O   0  0  0  0  0  0  0  0  0  0  0  0
   27.4715   19.1400   -0.9310 C   0  0  1  0  0  0  0  0  0  0  0  0
   27.2492   18.1272   -1.8643 O   0  0  0  0  0  0  0  0  0  0  0  0
   25.1910   20.8782   -6.4099 C   0  0  0  0  0  0  0  0  0  0  0  0
   20.4159   18.4435    0.2806 C   0  0  0  0  0  0  0  0  0  0  0  0
   21.0459   18.4995    1.5685 N   0  0  0  0  0  0  0  0  0  0  0  0
   25.2428   21.9223   -7.5262 C   0  0  0  0  0  0  0  0  0  0  0  0
   26.6295   21.9365   -8.0313 N   0  0  0  0  0  0  0  0  0  0  0  0
   27.6932   22.6572   -7.2004 C   0  0  0  0  0  0  0  0  0  0  0  0
  1  2  1  6  0  0  0
  1  8  1  0  0  0  0
  1 33  1  0  0  0  0
  3  4  1  1  0  0  0
  3 10  1  0  0  0  0
  3 42  1  0  0  0  0
  5 11  1  0  0  0  0
  5 29  1  0  0  0  0
  5 35  1  1  0  0  0
  6 13  1  0  0  0  0
  6 39  1  0  0  0  0
  6 22  1  6  0  0  0
  7 15  1  0  0  0  0
  8  9  1  1  0  0  0
  8 17  1  0  0  0  0
 10 19  1  0  0  0  0
 11 12  1  6  0  0  0
 11 21  1  0  0  0  0
 12 44  1  0  0  0  0
 13 14  1  1  0  0  0
 13 23  1  0  0  0  0
 15 16  1  0  0  0  0
 17 18  1  6  0  0  0
 17 25  1  0  0  0  0
 19 20  1  1  0  0  0
 19 27  1  0  0  0  0
 21 22  1  6  0  0  0
 21 28  1  0  0  0  0
 23 24  1  1  0  0  0
 23 30  1  0  0  0  0
 25 26  1  6  0  0  0
 25 32  1  0  0  0  0
 27  2  1  6  0  0  0
 27 34  1  0  0  0  0
 28 29  1  0  0  0  0
 28 36  1  1  0  0  0
 30 31  1  6  0  0  0
 30 38  1  0  0  0  0
 32 33  1  0  0  0  0
 32 40  1  6  0  0  0
 34 35  1  6  0  0  0
 34 42  1  0  0  0  0
 36 37  1  0  0  0  0
 38 39  1  0  0  0  0
 38 45  1  1  0  0  0
 40 41  1  0  0  0  0
 42 43  1  6  0  0  0
 44 47  1  0  0  0  0
 45 46  1  0  0  0  0
 47 48  1  0  0  0  0
 48 49  1  0  0  0  0
 49  7  1  0  0  0  0
M  END
>  <CHROM.1>
164.13600419,-59.19442050,-92.84402459,-179.16300804,169.33627037,165.23451733
35.96498715,61.87004478,67.19296429,-177.74439562,-103.50711756,173.83314061
58.89129846,-77.18790507,151.78551246,150.36465287,27.04194037,20.54509434
-2.63830205,-0.23325005,0.24136560,1.80864165

>  <Name>
2bee_lig

>  <RI>
0

>  <Rbt.Current_Directory>
/home/itssahil/PROJECTS/Mol_Feturizer/New_Systems/rnas/2bee

>  <Rbt.Executable>
rbdock ($Id: //depot/dev/client3/rdock/2013.1/src/exe/rbdock.cxx#4 $)

>  <Rbt.Library>
libRbt.so (2013.1, Build901 2013/11/27)

>  <Rbt.Parameter_File>
/export/apps/rDock/src/rDock_2013.1_src/data/scripts/dock_solv.prm

>  <Rbt.Receptor>
prm/blind_docking_40.prm

>  <SCORE>
26.9649

>  <SCORE.INTER>
4.31969

>  <SCORE.INTER.CONST>
1

>  <SCORE.INTER.POLAR>
0

>  <SCORE.INTER.ROT>
16

>  <SCORE.INTER.SOLV>
22.271

>  <SCORE.INTER.VDW>
-18.8105

>  <SCORE.INTER.norm>
0.088157

>  <SCORE.INTRA>
-1.86825

>  <SCORE.INTRA.DIHEDRAL>
-14.3452

>  <SCORE.INTRA.DIHEDRAL.0>
36.0842

>  <SCORE.INTRA.POLAR>
0

>  <SCORE.INTRA.POLAR.0>
0

>  <SCORE.INTRA.REPUL>
0

>  <SCORE.INTRA.REPUL.0>
0

>  <SCORE.INTRA.SOLV>
0.929402

>  <SCORE.INTRA.SOLV.lig_0>
-126.444

>  <SCORE.INTRA.VDW>
4.83964

>  <SCORE.INTRA.VDW.0>
-7.40469

>  <SCORE.INTRA.norm>
-0.0381276

>  <SCORE.RESTR>
24.5135

>  <SCORE.RESTR.CAVITY>
24.5135

>  <SCORE.RESTR.norm>
0.500275

>  <SCORE.SYSTEM>
0

>  <SCORE.SYSTEM.CONST>
0

>  <SCORE.SYSTEM.DIHEDRAL>
0

>  <SCORE.SYSTEM.SOLV>
0

>  <SCORE.SYSTEM.norm>
0

>  <SCORE.heavy>
49

>  <SCORE.norm>
0.550304

>  <RMSD>
23.758

$$$$
2bee_lig
 OpenBabel11021811423D
libRbt.so/2013.1/901 2013/11/27
 49 52  0  0  0  0  0  0  0  0999 V2000
   30.7109   21.1977   -0.0236 C   0  0  2  0  0  0  0  0  0  0  0  0
   29.5638   20.5224   -0.5239 O   0  0  0  0  0  0  0  0  0  0  0  0
   31.1344   18.9567   -4.3260 C   0  0  2  0  0  0  0  0  0  0  0  0
   31.1922   18.1922   -5.6016 N   0  0  0  0  0  0  0  0  0  0  0  0
   27.9289   22.0709   -3.7956 C   0  0  1  0  0  0  0  0  0  0  0  0
   24.4054   19.2762   -4.0414 C   0  0  1  0  0  0  0  0  0  0  0  0
   30.4385   22.9587   -7.5192 C   0  0  0  0  0  0  0  0  0  0  0  0
   30.7305   21.1503    1.5532 C   0  0  2  0  0  0  0  0  0  0  0  0
   30.6379   19.7688    2.0131 N   0  0  0  0  0  0  0  0  0  0  0  0
   30.8398   17.9525   -3.1207 C   0  0  0  0  0  0  0  0  0  0  0  0
   27.1940   21.8939   -5.0845 C   0  0  2  0  0  0  0  0  0  0  0  0
   27.1547   23.1224   -5.8966 O   0  0  0  0  0  0  0  0  0  0  0  0
   23.6933   18.3458   -5.1632 C   0  0  2  0  0  0  0  0  0  0  0  0
   22.6365   19.1646   -5.8457 N   0  0  0  0  0  0  0  0  0  0  0  0
   31.6209   23.1946   -6.7795 C   0  0  0  0  0  0  0  0  0  0  0  0
   32.4758   22.1360   -6.4806 N   0  0  0  0  0  0  0  0  0  0  0  0
   29.5378   22.0378    2.1205 C   0  0  1  0  0  0  0  0  0  0  0  0
   29.5663   21.9929    3.5397 O   0  0  0  0  0  0  0  0  0  0  0  0
   30.7553   18.7573   -1.7006 C   0  0  2  0  0  0  0  0  0  0  0  0
   30.5018   17.8687   -0.6179 N   0  0  0  0  0  0  0  0  0  0  0  0
   25.9433   21.2934   -4.4895 C   0  0  2  0  0  0  0  0  0  0  0  0
   24.9181   20.4182   -4.7686 O   0  0  0  0  0  0  0  0  0  0  0  0
   23.0571   17.1021   -4.4459 C   0  0  1  0  0  0  0  0  0  0  0  0
   24.1530   16.3490   -3.8188 O   0  0  0  0  0  0  0  0  0  0  0  0
   29.6954   23.4865    1.6029 C   0  0  2  0  0  0  0  0  0  0  0  0
   28.5910   24.3476    2.0976 O   0  0  0  0  0  0  0  0  0  0  0  0
   29.6157   19.8471   -1.7702 C   0  0  2  0  0  0  0  0  0  0  0  0
   25.7911   22.0907   -3.1007 C   0  0  2  0  0  0  0  0  0  0  0  0
   27.0783   22.1870   -2.6908 O   0  0  0  0  0  0  0  0  0  0  0  0
   21.9732   17.6182   -3.3403 C   0  0  2  0  0  0  0  0  0  0  0  0
   20.8764   18.3769   -3.9828 O   0  0  0  0  0  0  0  0  0  0  0  0
   29.6805   23.5196    0.0381 C   0  0  2  0  0  0  0  0  0  0  0  0
   30.7713   22.6552   -0.3708 O   0  0  0  0  0  0  0  0  0  0  0  0
   29.9498   20.8008   -2.9665 C   0  0  2  0  0  0  0  0  0  0  0  0
   28.8971   21.7335   -2.9214 O   0  0  0  0  0  0  0  0  0  0  0  0
   25.0068   21.3905   -1.9301 C   0  0  0  0  0  0  0  0  0  0  0  0
   24.2837   22.4002   -1.1574 O   0  0  0  0  0  0  0  0  0  0  0  0
   22.6861   18.5658   -2.2758 C   0  0  1  0  0  0  0  0  0  0  0  0
   23.3144   19.7055   -3.0503 O   0  0  0  0  0  0  0  0  0  0  0  0
   29.8592   24.9277   -0.3635 C   0  0  0  0  0  0  0  0  0  0  0  0
   30.2761   25.0029   -1.6346 O   0  0  0  0  0  0  0  0  0  0  0  0
   29.9937   19.9986   -4.3365 C   0  0  1  0  0  0  0  0  0  0  0  0
   30.3006   20.8568   -5.3927 O   0  0  0  0  0  0  0  0  0  0  0  0
   26.3832   23.2933   -7.1386 C   0  0  0  0  0  0  0  0  0  0  0  0
   21.5552   19.0119   -1.2883 C   0  0  0  0  0  0  0  0  0  0  0  0
   22.0622   19.4596   -0.0229 N   0  0  0  0  0  0  0  0  0  0  0  0
   27.3482   23.4286   -8.3173 C   0  0  0  0  0  0  0  0  0  0  0  0
   28.3790   24.4044   -7.9131 N   0  0  0  0  0  0  0  0  0  0  0  0
   29.8198   24.1631   -8.3685 C   0  0  0  0  0  0  0  0  0  0  0  0
  1  2  1  1  0  0  0
  1  8  1  0  0  0  0
  1 33  1  0  0  0  0
  3  4  1  6  0  0  0
  3 10  1  0  0  0  0
  3 42  1  0  0  0  0
  5 11  1  0  0  0  0
  5 29  1  0  0  0  0
  5 35  1  1  0  0  0
  6 13  1  0  0  0  0
  6 39  1  0  0  0  0
  6 22  1  6  0  0  0
  7 15  1  0  0  0  0
  8  9  1  6  0  0  0
  8 17  1  0  0  0  0
 10 19  1  0  0  0  0
 11 12  1  1  0  0  0
 11 21  1  0  0  0  0
 12 44  1  0  0  0  0
 13 14  1  1  0  0  0
 13 23  1  0  0  0  0
 15 16  1  0  0  0  0
 17 18  1  1  0  0  0
 17 25  1  0  0  0  0
 19 20  1  1  0  0  0
 19 27  1  0  0  0  0
 21 22  1  6  0  0  0
 21 28  1  0  0  0  0
 23 24  1  1  0  0  0
 23 30  1  0  0  0  0
 25 26  1  1  0  0  0
 25 32  1  0  0  0  0
 27  2  1  1  0  0  0
 27 34  1  0  0  0  0
 28 29  1  0  0  0  0
 28 36  1  1  0  0  0
 30 31  1  6  0  0  0
 30 38  1  0  0  0  0
 32 33  1  0  0  0  0
 32 40  1  1  0  0  0
 34 35  1  6  0  0  0
 34 42  1  0  0  0  0
 36 37  1  0  0  0  0
 38 39  1  0  0  0  0
 38 45  1  1  0  0  0
 40 41  1  0  0  0  0
 42 43  1  6  0  0  0
 44 47  1  0  0  0  0
 45 46  1  0  0  0  0
 47 48  1  0  0  0  0
 48 49  1  0  0  0  0
 49  7  1  0  0  0  0
M  END
>  <CHROM.1>
-148.22701127,4.42573327,-155.81789669,-154.28481997,-173.03215109,-112.21865542
127.78084752,58.30085041,-145.82779819,160.49532678,-118.93936384,159.01746842
-47.09921407,142.92156591,-73.56979037,-122.78980677,27.63286345,21.03208071
-2.95204755,0.26543559,0.42254009,1.67078308

>  <Name>
2bee_lig

>  <RI>
0

>  <Rbt.Current_Directory>
/home/itssahil/PROJECTS/Mol_Feturizer/New_Systems/rnas/2bee

>  <Rbt.Executable>
rbdock ($Id: //depot/dev/client3/rdock/2013.1/src/exe/rbdock.cxx#4 $)

>  <Rbt.Library>
libRbt.so (2013.1, Build901 2013/11/27)

>  <Rbt.Parameter_File>
/export/apps/rDock/src/rDock_2013.1_src/data/scripts/dock_solv.prm

>  <Rbt.Receptor>
prm/blind_docking_40.prm

>  <SCORE>
27.51

>  <SCORE.INTER>
3.36791

>  <SCORE.INTER.CONST>
1

>  <SCORE.INTER.POLAR>
-0.257614

>  <SCORE.INTER.ROT>
16

>  <SCORE.INTER.SOLV>
35.462

>  <SCORE.INTER.VDW>
-22.9834

>  <SCORE.INTER.norm>
0.0687328

>  <SCORE.INTRA>
7.41267

>  <SCORE.INTRA.DIHEDRAL>
8.77462

>  <SCORE.INTRA.DIHEDRAL.0>
36.0842

>  <SCORE.INTRA.POLAR>
0

>  <SCORE.INTRA.POLAR.0>
0

>  <SCORE.INTRA.REPUL>
0

>  <SCORE.INTRA.REPUL.0>
0

>  <SCORE.INTRA.SOLV>
1.41807

>  <SCORE.INTRA.SOLV.lig_0>
-126.444

>  <SCORE.INTRA.VDW>
2.31632

>  <SCORE.INTRA.VDW.0>
-7.40469

>  <SCORE.INTRA.norm>
0.151279

>  <SCORE.RESTR>
16.7295

>  <SCORE.RESTR.CAVITY>
16.7295

>  <SCORE.RESTR.norm>
0.341417

>  <SCORE.SYSTEM>
0

>  <SCORE.SYSTEM.CONST>
0

>  <SCORE.SYSTEM.DIHEDRAL>
0

>  <SCORE.SYSTEM.SOLV>
0

>  <SCORE.SYSTEM.norm>
0

>  <SCORE.heavy>
49

>  <SCORE.norm>
0.561429

>  <RMSD>
23.763

$$$$
2bee_lig
 OpenBabel11021811423D
libRbt.so/2013.1/901 2013/11/27
 49 52  0  0  0  0  0  0  0  0999 V2000
   30.6892   23.5508   -0.7334 C   0  0  2  0  0  0  0  0  0  0  0  0
   31.0046   22.1919   -0.4573 O   0  0  0  0  0  0  0  0  0  0  0  0
   29.1226   18.2228   -0.7363 C   0  0  2  0  0  0  0  0  0  0  0  0
   28.0588   17.1822   -0.7551 N   0  0  0  0  0  0  0  0  0  0  0  0
   29.6189   21.2352   -4.1614 C   0  0  1  0  0  0  0  0  0  0  0  0
   25.5698   19.6149   -5.1112 C   0  0  1  0  0  0  0  0  0  0  0  0
   31.6962   22.9955   -5.5161 C   0  0  0  0  0  0  0  0  0  0  0  0
   30.8342   24.4234    0.5729 C   0  0  2  0  0  0  0  0  0  0  0  0
   32.1664   24.2530    1.1427 N   0  0  0  0  0  0  0  0  0  0  0  0
   29.0359   19.0427    0.6304 C   0  0  0  0  0  0  0  0  0  0  0  0
   29.2676   20.4649   -5.3926 C   0  0  2  0  0  0  0  0  0  0  0  0
   30.1708   20.7447   -6.5223 O   0  0  0  0  0  0  0  0  0  0  0  0
   24.3333   19.4769   -6.1518 C   0  0  2  0  0  0  0  0  0  0  0  0
   23.8870   20.8588   -6.5317 N   0  0  0  0  0  0  0  0  0  0  0  0
   32.7490   22.0929   -5.2375 C   0  0  0  0  0  0  0  0  0  0  0  0
   33.2764   21.3049   -6.2581 N   0  0  0  0  0  0  0  0  0  0  0  0
   29.6974   24.0130    1.6079 C   0  0  1  0  0  0  0  0  0  0  0  0
   29.8330   24.8065    2.7779 O   0  0  0  0  0  0  0  0  0  0  0  0
   30.1822   20.2067    0.6840 C   0  0  2  0  0  0  0  0  0  0  0  0
   30.1188   20.9380    1.9036 N   0  0  0  0  0  0  0  0  0  0  0  0
   27.8083   20.8496   -5.4270 C   0  0  2  0  0  0  0  0  0  0  0  0
   26.5708   20.3882   -5.8153 O   0  0  0  0  0  0  0  0  0  0  0  0
   23.1724   18.6924   -5.4424 C   0  0  1  0  0  0  0  0  0  0  0  0
   23.6825   17.3522   -5.1182 O   0  0  0  0  0  0  0  0  0  0  0  0
   28.3144   24.2203    0.9479 C   0  0  2  0  0  0  0  0  0  0  0  0
   27.2221   23.8334    1.8770 O   0  0  0  0  0  0  0  0  0  0  0  0
   30.0012   21.1925   -0.5353 C   0  0  2  0  0  0  0  0  0  0  0  0
   27.8288   22.3719   -4.9076 C   0  0  2  0  0  0  0  0  0  0  0  0
   28.7685   22.3226   -3.9337 O   0  0  0  0  0  0  0  0  0  0  0  0
   22.7198   19.5038   -4.1006 C   0  0  2  0  0  0  0  0  0  0  0  0
   22.2107   20.8520   -4.4392 O   0  0  0  0  0  0  0  0  0  0  0  0
   28.1850   23.3544   -0.3495 C   0  0  2  0  0  0  0  0  0  0  0  0
   29.2820   23.7769   -1.1994 O   0  0  0  0  0  0  0  0  0  0  0  0
   30.0907   20.3402   -1.8461 C   0  0  2  0  0  0  0  0  0  0  0  0
   29.9422   21.3092   -2.8555 O   0  0  0  0  0  0  0  0  0  0  0  0
   26.5249   22.9392   -4.2340 C   0  0  0  0  0  0  0  0  0  0  0  0
   25.5860   23.3626   -5.2726 O   0  0  0  0  0  0  0  0  0  0  0  0
   23.9609   19.6661   -3.1145 C   0  0  1  0  0  0  0  0  0  0  0  0
   25.0486   20.3820   -3.8878 O   0  0  0  0  0  0  0  0  0  0  0  0
   26.8536   23.6321   -0.9204 C   0  0  0  0  0  0  0  0  0  0  0  0
   26.7624   24.9158   -1.2934 O   0  0  0  0  0  0  0  0  0  0  0  0
   28.9467   19.2393   -1.8863 C   0  0  1  0  0  0  0  0  0  0  0  0
   29.0423   18.4814   -3.0537 O   0  0  0  0  0  0  0  0  0  0  0  0
   29.7686   21.3625   -7.7965 C   0  0  0  0  0  0  0  0  0  0  0  0
   23.4170   20.4698   -1.8852 C   0  0  0  0  0  0  0  0  0  0  0  0
   22.5014   19.7115   -1.0819 N   0  0  0  0  0  0  0  0  0  0  0  0
   29.6675   22.8774   -7.6129 C   0  0  0  0  0  0  0  0  0  0  0  0
   30.9982   23.4335   -7.9261 N   0  0  0  0  0  0  0  0  0  0  0  0
   31.8451   23.9733   -6.7717 C   0  0  0  0  0  0  0  0  0  0  0  0
  1  2  1  1  0  0  0
  1  8  1  0  0  0  0
  1 33  1  0  0  0  0
  3  4  1  1  0  0  0
  3 10  1  0  0  0  0
  3 42  1  0  0  0  0
  5 11  1  0  0  0  0
  5 29  1  0  0  0  0
  5 35  1  1  0  0  0
  6 13  1  0  0  0  0
  6 39  1  0  0  0  0
  6 22  1  6  0  0  0
  7 15  1  0  0  0  0
  8  9  1  1  0  0  0
  8 17  1  0  0  0  0
 10 19  1  0  0  0  0
 11 12  1  6  0  0  0
 11 21  1  0  0  0  0
 12 44  1  0  0  0  0
 13 14  1  1  0  0  0
 13 23  1  0  0  0  0
 15 16  1  0  0  0  0
 17 18  1  1  0  0  0
 17 25  1  0  0  0  0
 19 20  1  1  0  0  0
 19 27  1  0  0  0  0
 21 22  1  6  0  0  0
 21 28  1  0  0  0  0
 23 24  1  1  0  0  0
 23 30  1  0  0  0  0
 25 26  1  1  0  0  0
 25 32  1  0  0  0  0
 27  2  1  6  0  0  0
 27 34  1  0  0  0  0
 28 29  1  0  0  0  0
 28 36  1  1  0  0  0
 30 31  1  6  0  0  0
 30 38  1  0  0  0  0
 32 33  1  0  0  0  0
 32 40  1  6  0  0  0
 34 35  1  6  0  0  0
 34 42  1  0  0  0  0
 36 37  1  0  0  0  0
 38 39  1  0  0  0  0
 38 45  1  1  0  0  0
 40 41  1  0  0  0  0
 42 43  1  6  0  0  0
 44 47  1  0  0  0  0
 45 46  1  0  0  0  0
 47 48  1  0  0  0  0
 48 49  1  0  0  0  0
 49  7  1  0  0  0  0
M  END
>  <CHROM.1>
113.66270241,-1.80572711,177.93979408,-48.84404141,-116.55942942,79.96788974
89.63353115,-138.42781923,-81.76425201,63.81969800,-161.88598550,69.64284811
90.02565233,-108.46846598,40.41975796,102.55311912,28.10445490,21.50036128
-2.94998164,-0.73869141,-0.37941296,-1.72742230

>  <Name>
2bee_lig

>  <RI>
0

>  <Rbt.Current_Directory>
/home/itssahil/PROJECTS/Mol_Feturizer/New_Systems/rnas/2bee

>  <Rbt.Executable>
rbdock ($Id: //depot/dev/client3/rdock/2013.1/src/exe/rbdock.cxx#4 $)

>  <Rbt.Library>
libRbt.so (2013.1, Build901 2013/11/27)

>  <Rbt.Parameter_File>
/export/apps/rDock/src/rDock_2013.1_src/data/scripts/dock_solv.prm

>  <Rbt.Receptor>
prm/blind_docking_40.prm

>  <SCORE>
39.7036

>  <SCORE.INTER>
19.9355

>  <SCORE.INTER.CONST>
1

>  <SCORE.INTER.POLAR>
-0.966791

>  <SCORE.INTER.ROT>
16

>  <SCORE.INTER.SOLV>
32.238

>  <SCORE.INTER.VDW>
-8.49971

>  <SCORE.INTER.norm>
0.406846

>  <SCORE.INTRA>
7.87791

>  <SCORE.INTRA.DIHEDRAL>
7.98427

>  <SCORE.INTRA.DIHEDRAL.0>
36.0842

>  <SCORE.INTRA.POLAR>
0

>  <SCORE.INTRA.POLAR.0>
0

>  <SCORE.INTRA.REPUL>
0.223609

>  <SCORE.INTRA.REPUL.0>
0

>  <SCORE.INTRA.SOLV>
5.79984

>  <SCORE.INTRA.SOLV.lig_0>
-126.444

>  <SCORE.INTRA.VDW>
-0.13219

>  <SCORE.INTRA.VDW.0>
-7.40469

>  <SCORE.INTRA.norm>
0.160774

>  <SCORE.RESTR>
11.8902

>  <SCORE.RESTR.CAVITY>
11.8902

>  <SCORE.RESTR.norm>
0.242657

>  <SCORE.SYSTEM>
0

>  <SCORE.SYSTEM.CONST>
0

>  <SCORE.SYSTEM.DIHEDRAL>
0

>  <SCORE.SYSTEM.SOLV>
0

>  <SCORE.SYSTEM.norm>
0

>  <SCORE.heavy>
49

>  <SCORE.norm>
0.810277

>  <RMSD>
23.793

$$$$
2bee_lig
 OpenBabel11021811423D
libRbt.so/2013.1/901 2013/11/27
 49 52  0  0  0  0  0  0  0  0999 V2000
   24.9728   21.0850   -3.6864 C   0  0  2  0  0  0  0  0  0  0  0  0
   26.3058   20.6022   -3.5769 O   0  0  0  0  0  0  0  0  0  0  0  0
   29.6882   21.6798   -6.1793 C   0  0  2  0  0  0  0  0  0  0  0  0
   30.7763   22.4935   -6.7865 N   0  0  0  0  0  0  0  0  0  0  0  0
   28.9587   21.2240   -1.6083 C   0  0  1  0  0  0  0  0  0  0  0  0
   26.5685   22.4756    2.3432 C   0  0  1  0  0  0  0  0  0  0  0  0
   32.1624   20.0986    0.2516 C   0  0  0  0  0  0  0  0  0  0  0  0
   24.1495   20.7199   -2.3911 C   0  0  2  0  0  0  0  0  0  0  0  0
   24.8385   21.2155   -1.2044 N   0  0  0  0  0  0  0  0  0  0  0  0
   28.3023   22.4585   -6.3235 C   0  0  0  0  0  0  0  0  0  0  0  0
   28.4312   22.3710   -0.8092 C   0  0  2  0  0  0  0  0  0  0  0  0
   29.4288   23.4356   -0.6049 O   0  0  0  0  0  0  0  0  0  0  0  0
   27.9908   22.9609    2.9536 C   0  0  2  0  0  0  0  0  0  0  0  0
   28.7298   21.7468    3.4363 N   0  0  0  0  0  0  0  0  0  0  0  0
   31.6045   20.0111    1.5485 C   0  0  0  0  0  0  0  0  0  0  0  0
   30.9693   21.1180    2.1071 N   0  0  0  0  0  0  0  0  0  0  0  0
   23.9374   19.1440   -2.3301 C   0  0  1  0  0  0  0  0  0  0  0  0
   23.1919   18.8254   -1.1640 O   0  0  0  0  0  0  0  0  0  0  0  0
   27.0814   21.6016   -5.6552 C   0  0  2  0  0  0  0  0  0  0  0  0
   25.8392   22.2840   -5.7869 N   0  0  0  0  0  0  0  0  0  0  0  0
   27.8972   21.5504    0.3398 C   0  0  2  0  0  0  0  0  0  0  0  0
   26.9084   21.5341    1.2973 O   0  0  0  0  0  0  0  0  0  0  0  0
   27.7103   23.9502    4.1405 C   0  0  1  0  0  0  0  0  0  0  0  0
   27.0016   25.1124    3.5849 O   0  0  0  0  0  0  0  0  0  0  0  0
   23.2004   18.6835   -3.6091 C   0  0  2  0  0  0  0  0  0  0  0  0
   22.9952   17.2125   -3.6002 O   0  0  0  0  0  0  0  0  0  0  0  0
   27.3839   21.3409   -4.1282 C   0  0  2  0  0  0  0  0  0  0  0  0
   28.9845   20.3724    0.4719 C   0  0  2  0  0  0  0  0  0  0  0  0
   29.2681   20.1065   -0.8254 O   0  0  0  0  0  0  0  0  0  0  0  0
   26.8174   23.1872    5.2736 C   0  0  2  0  0  0  0  0  0  0  0  0
   27.5398   22.0180    5.8235 O   0  0  0  0  0  0  0  0  0  0  0  0
   24.0237   19.0565   -4.8869 C   0  0  2  0  0  0  0  0  0  0  0  0
   24.1927   20.4959   -4.8234 O   0  0  0  0  0  0  0  0  0  0  0  0
   28.7503   20.5805   -4.0429 C   0  0  2  0  0  0  0  0  0  0  0  0
   28.9073   20.3817   -2.6588 O   0  0  0  0  0  0  0  0  0  0  0  0
   28.5228   19.0104    1.1104 C   0  0  0  0  0  0  0  0  0  0  0  0
   27.7266   18.2628    0.1375 O   0  0  0  0  0  0  0  0  0  0  0  0
   25.4459   22.6806    4.6400 C   0  0  1  0  0  0  0  0  0  0  0  0
   25.8033   21.7788    3.4770 O   0  0  0  0  0  0  0  0  0  0  0  0
   23.2390   18.6039   -6.0510 C   0  0  0  0  0  0  0  0  0  0  0  0
   23.9264   18.8001   -7.1842 O   0  0  0  0  0  0  0  0  0  0  0  0
   29.9230   21.4489   -4.6698 C   0  0  1  0  0  0  0  0  0  0  0  0
   31.1326   20.7577   -4.5959 O   0  0  0  0  0  0  0  0  0  0  0  0
   30.4425   23.8479   -1.5896 C   0  0  0  0  0  0  0  0  0  0  0  0
   24.6903   21.9532    5.8033 C   0  0  0  0  0  0  0  0  0  0  0  0
   25.1803   20.6265    6.0450 N   0  0  0  0  0  0  0  0  0  0  0  0
   31.5087   22.7574   -1.7028 C   0  0  0  0  0  0  0  0  0  0  0  0
   32.0721   22.5714   -0.3515 N   0  0  0  0  0  0  0  0  0  0  0  0
   33.0216   21.3939   -0.1208 C   0  0  0  0  0  0  0  0  0  0  0  0
  1  2  1  1  0  0  0
  1  8  1  0  0  0  0
  1 33  1  0  0  0  0
  3  4  1  1  0  0  0
  3 10  1  0  0  0  0
  3 42  1  0  0  0  0
  5 11  1  0  0  0  0
  5 29  1  0  0  0  0
  5 35  1  6  0  0  0
  6 13  1  0  0  0  0
  6 39  1  0  0  0  0
  6 22  1  6  0  0  0
  7 15  1  0  0  0  0
  8  9  1  1  0  0  0
  8 17  1  0  0  0  0
 10 19  1  0  0  0  0
 11 12  1  1  0  0  0
 11 21  1  0  0  0  0
 12 44  1  0  0  0  0
 13 14  1  1  0  0  0
 13 23  1  0  0  0  0
 15 16  1  0  0  0  0
 17 18  1  1  0  0  0
 17 25  1  0  0  0  0
 19 20  1  1  0  0  0
 19 27  1  0  0  0  0
 21 22  1  1  0  0  0
 21 28  1  0  0  0  0
 23 24  1  6  0  0  0
 23 30  1  0  0  0  0
 25 26  1  1  0  0  0
 25 32  1  0  0  0  0
 27  2  1  6  0  0  0
 27 34  1  0  0  0  0
 28 29  1  0  0  0  0
 28 36  1  6  0  0  0
 30 31  1  6  0  0  0
 30 38  1  0  0  0  0
 32 33  1  0  0  0  0
 32 40  1  6  0  0  0
 34 35  1  1  0  0  0
 34 42  1  0  0  0  0
 36 37  1  0  0  0  0
 38 39  1  0  0  0  0
 38 45  1  1  0  0  0
 40 41  1  0  0  0  0
 42 43  1  6  0  0  0
 44 47  1  0  0  0  0
 45 46  1  0  0  0  0
 47 48  1  0  0  0  0
 48 49  1  0  0  0  0
 49  7  1  0  0  0  0
M  END
>  <CHROM.1>
-144.74967774,48.93228328,-41.07908752,44.65155524,35.83512836,-71.61487315
-57.75080391,-54.92771315,75.82521382,-175.43175611,-58.00089722,-78.87285676
-57.93309038,171.15289970,-87.02583561,-75.11574626,27.49787304,21.15024344
-0.97825610,1.75046718,-0.28086996,-1.73182052

>  <Name>
2bee_lig

>  <RI>
0

>  <Rbt.Current_Directory>
/home/itssahil/PROJECTS/Mol_Feturizer/New_Systems/rnas/2bee

>  <Rbt.Executable>
rbdock ($Id: //depot/dev/client3/rdock/2013.1/src/exe/rbdock.cxx#4 $)

>  <Rbt.Library>
libRbt.so (2013.1, Build901 2013/11/27)

>  <Rbt.Parameter_File>
/export/apps/rDock/src/rDock_2013.1_src/data/scripts/dock_solv.prm

>  <Rbt.Receptor>
prm/blind_docking_40.prm

>  <SCORE>
31.2914

>  <SCORE.INTER>
3.33073

>  <SCORE.INTER.CONST>
1

>  <SCORE.INTER.POLAR>
-0.329438

>  <SCORE.INTER.ROT>
16

>  <SCORE.INTER.SOLV>
22.6804

>  <SCORE.INTER.VDW>
-18.5082

>  <SCORE.INTER.norm>
0.0679741

>  <SCORE.INTRA>
2.85034

>  <SCORE.INTRA.DIHEDRAL>
-16.0363

>  <SCORE.INTRA.DIHEDRAL.0>
36.0842

>  <SCORE.INTRA.POLAR>
0

>  <SCORE.INTRA.POLAR.0>
0

>  <SCORE.INTRA.REPUL>
0

>  <SCORE.INTRA.REPUL.0>
0

>  <SCORE.INTRA.SOLV>
14.3064

>  <SCORE.INTRA.SOLV.lig_0>
-126.444

>  <SCORE.INTRA.VDW>
3.71526

>  <SCORE.INTRA.VDW.0>
-7.40469

>  <SCORE.INTRA.norm>
0.0581701

>  <SCORE.RESTR>
25.1104

>  <SCORE.RESTR.CAVITY>
25.1104

>  <SCORE.RESTR.norm>
0.512456

>  <SCORE.SYSTEM>
0

>  <SCORE.SYSTEM.CONST>
0

>  <SCORE.SYSTEM.DIHEDRAL>
0

>  <SCORE.SYSTEM.SOLV>
0

>  <SCORE.SYSTEM.norm>
0

>  <SCORE.heavy>
49

>  <SCORE.norm>
0.638601

>  <RMSD>
23.804

$$$$
2bee_lig
 OpenBabel11021811423D
libRbt.so/2013.1/901 2013/11/27
 49 52  0  0  0  0  0  0  0  0999 V2000
   30.2418   20.3049   -5.2755 C   0  0  2  0  0  0  0  0  0  0  0  0
   29.5942   19.3329   -4.4644 O   0  0  0  0  0  0  0  0  0  0  0  0
   29.8063   18.4283   -0.1619 C   0  0  2  0  0  0  0  0  0  0  0  0
   29.7848   18.6423    1.3107 N   0  0  0  0  0  0  0  0  0  0  0  0
   26.5232   19.9948   -3.0021 C   0  0  1  0  0  0  0  0  0  0  0  0
   22.0497   20.0425   -1.7606 C   0  0  1  0  0  0  0  0  0  0  0  0
   30.2181   22.4832   -0.7586 C   0  0  0  0  0  0  0  0  0  0  0  0
   29.6548   21.7402   -4.9848 C   0  0  2  0  0  0  0  0  0  0  0  0
   29.7443   22.0377   -3.5593 N   0  0  0  0  0  0  0  0  0  0  0  0
   30.8957   19.3913   -0.8203 C   0  0  0  0  0  0  0  0  0  0  0  0
   25.5424   20.9283   -3.6341 C   0  0  2  0  0  0  0  0  0  0  0  0
   26.0391   22.3126   -3.7180 O   0  0  0  0  0  0  0  0  0  0  0  0
   22.1457   18.4234   -1.7432 C   0  0  2  0  0  0  0  0  0  0  0  0
   21.8293   17.9226   -3.1224 N   0  0  0  0  0  0  0  0  0  0  0  0
   31.2453   22.6768    0.1943 C   0  0  0  0  0  0  0  0  0  0  0  0
   31.0925   23.6335    1.1953 N   0  0  0  0  0  0  0  0  0  0  0  0
   28.1524   21.8087   -5.5044 C   0  0  1  0  0  0  0  0  0  0  0  0
   27.6343   23.1049   -5.2429 O   0  0  0  0  0  0  0  0  0  0  0  0
   30.9406   19.1955   -2.4424 C   0  0  2  0  0  0  0  0  0  0  0  0
   31.9160   20.0440   -3.0381 N   0  0  0  0  0  0  0  0  0  0  0  0
   24.3653   20.5570   -2.7649 C   0  0  2  0  0  0  0  0  0  0  0  0
   22.9918   20.4654   -2.7753 O   0  0  0  0  0  0  0  0  0  0  0  0
   21.1074   17.8756   -0.7002 C   0  0  1  0  0  0  0  0  0  0  0  0
   21.4941   18.3964    0.6192 O   0  0  0  0  0  0  0  0  0  0  0  0
   28.1260   21.4899   -7.0174 C   0  0  2  0  0  0  0  0  0  0  0  0
   26.7368   21.5278   -7.5413 O   0  0  0  0  0  0  0  0  0  0  0  0
   29.5209   19.5055   -3.0584 C   0  0  2  0  0  0  0  0  0  0  0  0
   25.0486   20.2958   -1.3323 C   0  0  2  0  0  0  0  0  0  0  0  0
   26.1984   19.6706   -1.6804 O   0  0  0  0  0  0  0  0  0  0  0  0
   19.6107   18.3681   -1.1255 C   0  0  2  0  0  0  0  0  0  0  0  0
   19.2336   17.8399   -2.4560 O   0  0  0  0  0  0  0  0  0  0  0  0
   28.7160   20.0666   -7.2934 C   0  0  2  0  0  0  0  0  0  0  0  0
   30.0606   20.1006   -6.7498 O   0  0  0  0  0  0  0  0  0  0  0  0
   28.4925   18.5397   -2.3787 C   0  0  2  0  0  0  0  0  0  0  0  0
   27.2828   18.8820   -3.0106 O   0  0  0  0  0  0  0  0  0  0  0  0
   24.3113   19.3355   -0.3273 C   0  0  0  0  0  0  0  0  0  0  0  0
   24.7991   19.5842    1.0290 O   0  0  0  0  0  0  0  0  0  0  0  0
   19.5531   19.9596   -1.1796 C   0  0  1  0  0  0  0  0  0  0  0  0
   20.6139   20.4066   -2.1637 O   0  0  0  0  0  0  0  0  0  0  0  0
   28.6733   19.8595   -8.7532 C   0  0  0  0  0  0  0  0  0  0  0  0
   29.4797   20.7312   -9.3738 O   0  0  0  0  0  0  0  0  0  0  0  0
   28.4463   18.7738   -0.8085 C   0  0  1  0  0  0  0  0  0  0  0  0
   27.5338   17.9022   -0.2137 O   0  0  0  0  0  0  0  0  0  0  0  0
   25.8578   23.3427   -2.6821 C   0  0  0  0  0  0  0  0  0  0  0  0
   18.0901   20.3114   -1.6143 C   0  0  0  0  0  0  0  0  0  0  0  0
   17.8271   20.0063   -2.9914 N   0  0  0  0  0  0  0  0  0  0  0  0
   26.3473   22.7990   -1.3390 C   0  0  0  0  0  0  0  0  0  0  0  0
   27.7819   22.4931   -1.5014 N   0  0  0  0  0  0  0  0  0  0  0  0
   28.7020   22.6832   -0.2936 C   0  0  0  0  0  0  0  0  0  0  0  0
  1  2  1  1  0  0  0
  1  8  1  0  0  0  0
  1 33  1  0  0  0  0
  3  4  1  1  0  0  0
  3 10  1  0  0  0  0
  3 42  1  0  0  0  0
  5 11  1  0  0  0  0
  5 29  1  0  0  0  0
  5 35  1  6  0  0  0
  6 13  1  0  0  0  0
  6 39  1  0  0  0  0
  6 22  1  6  0  0  0
  7 15  1  0  0  0  0
  8  9  1  1  0  0  0
  8 17  1  0  0  0  0
 10 19  1  0  0  0  0
 11 12  1  1  0  0  0
 11 21  1  0  0  0  0
 12 44  1  0  0  0  0
 13 14  1  6  0  0  0
 13 23  1  0  0  0  0
 15 16  1  0  0  0  0
 17 18  1  6  0  0  0
 17 25  1  0  0  0  0
 19 20  1  6  0  0  0
 19 27  1  0  0  0  0
 21 22  1  1  0  0  0
 21 28  1  0  0  0  0
 23 24  1  1  0  0  0
 23 30  1  0  0  0  0
 25 26  1  1  0  0  0
 25 32  1  0  0  0  0
 27  2  1  6  0  0  0
 27 34  1  0  0  0  0
 28 29  1  0  0  0  0
 28 36  1  1  0  0  0
 30 31  1  6  0  0  0
 30 38  1  0  0  0  0
 32 33  1  0  0  0  0
 32 40  1  6  0  0  0
 34 35  1  6  0  0  0
 34 42  1  0  0  0  0
 36 37  1  0  0  0  0
 38 39  1  0  0  0  0
 38 45  1  6  0  0  0
 40 41  1  0  0  0  0
 42 43  1  1  0  0  0
 44 47  1  0  0  0  0
 45 46  1  0  0  0  0
 47 48  1  0  0  0  0
 48 49  1  0  0  0  0
 49  7  1  0  0  0  0
M  END
>  <CHROM.1>
-52.87711715,152.25942836,-76.75006513,-33.46539539,-89.68160526,52.84413794
179.03351712,-74.93096433,-160.26279587,64.57645667,-66.30911694,-71.78064894
61.07166283,146.67704174,-172.46005011,177.11828656,26.34570539,20.29263420
-2.71550734,0.24929955,-0.14422158,-1.47048601

>  <Name>
2bee_lig

>  <RI>
0

>  <Rbt.Current_Directory>
/home/itssahil/PROJECTS/Mol_Feturizer/New_Systems/rnas/2bee

>  <Rbt.Executable>
rbdock ($Id: //depot/dev/client3/rdock/2013.1/src/exe/rbdock.cxx#4 $)

>  <Rbt.Library>
libRbt.so (2013.1, Build901 2013/11/27)

>  <Rbt.Parameter_File>
/export/apps/rDock/src/rDock_2013.1_src/data/scripts/dock_solv.prm

>  <Rbt.Receptor>
prm/blind_docking_40.prm

>  <SCORE>
51.9527

>  <SCORE.INTER>
16.7988

>  <SCORE.INTER.CONST>
1

>  <SCORE.INTER.POLAR>
-0.848528

>  <SCORE.INTER.ROT>
16

>  <SCORE.INTER.SOLV>
23.5905

>  <SCORE.INTER.VDW>
-8.10252

>  <SCORE.INTER.norm>
0.342833

>  <SCORE.INTRA>
11.4441

>  <SCORE.INTRA.DIHEDRAL>
-16.5343

>  <SCORE.INTRA.DIHEDRAL.0>
36.0842

>  <SCORE.INTRA.POLAR>
0

>  <SCORE.INTRA.POLAR.0>
0

>  <SCORE.INTRA.REPUL>
0.450831

>  <SCORE.INTRA.REPUL.0>
0

>  <SCORE.INTRA.SOLV>
14.4217

>  <SCORE.INTRA.SOLV.lig_0>
-126.444

>  <SCORE.INTRA.VDW>
10.2462

>  <SCORE.INTRA.VDW.0>
-7.40469

>  <SCORE.INTRA.norm>
0.233553

>  <SCORE.RESTR>
23.7097

>  <SCORE.RESTR.CAVITY>
23.7097

>  <SCORE.RESTR.norm>
0.483872

>  <SCORE.SYSTEM>
0

>  <SCORE.SYSTEM.CONST>
0

>  <SCORE.SYSTEM.DIHEDRAL>
0

>  <SCORE.SYSTEM.SOLV>
0

>  <SCORE.SYSTEM.norm>
0

>  <SCORE.heavy>
49

>  <SCORE.norm>
1.06026

>  <RMSD>
23.808

$$$$
2bee_lig
 OpenBabel11021811423D
libRbt.so/2013.1/901 2013/11/27
 49 52  0  0  0  0  0  0  0  0999 V2000
   29.8243   22.0108    2.4629 C   0  0  2  0  0  0  0  0  0  0  0  0
   29.5963   20.9746    1.5161 O   0  0  0  0  0  0  0  0  0  0  0  0
   32.8412   21.7498   -1.3552 C   0  0  2  0  0  0  0  0  0  0  0  0
   33.7912   21.5279   -2.4790 N   0  0  0  0  0  0  0  0  0  0  0  0
   28.3906   21.3647   -2.0584 C   0  0  1  0  0  0  0  0  0  0  0  0
   24.5211   18.7289   -3.1580 C   0  0  1  0  0  0  0  0  0  0  0  0
   31.0733   22.1843   -7.5923 C   0  0  0  0  0  0  0  0  0  0  0  0
   28.4679   22.4357    3.1474 C   0  0  2  0  0  0  0  0  0  0  0  0
   27.8136   21.2682    3.7282 N   0  0  0  0  0  0  0  0  0  0  0  0
   32.9927   20.5674   -0.2936 C   0  0  0  0  0  0  0  0  0  0  0  0
   27.9762   20.1749   -2.8617 C   0  0  2  0  0  0  0  0  0  0  0  0
   28.3797   20.2677   -4.2755 O   0  0  0  0  0  0  0  0  0  0  0  0
   24.0192   19.9297   -4.1261 C   0  0  2  0  0  0  0  0  0  0  0  0
   23.4090   20.9980   -3.2662 N   0  0  0  0  0  0  0  0  0  0  0  0
   31.0309   23.5978   -7.6207 C   0  0  0  0  0  0  0  0  0  0  0  0
   32.1910   24.3321   -7.3850 N   0  0  0  0  0  0  0  0  0  0  0  0
   27.5394   23.1538    2.0731 C   0  0  1  0  0  0  0  0  0  0  0  0
   26.3234   23.5367    2.6992 O   0  0  0  0  0  0  0  0  0  0  0  0
   31.9542   20.7681    0.9525 C   0  0  2  0  0  0  0  0  0  0  0  0
   32.0881   19.7229    1.9096 N   0  0  0  0  0  0  0  0  0  0  0  0
   26.5248   20.1830   -2.4467 C   0  0  2  0  0  0  0  0  0  0  0  0
   25.4491   19.3500   -2.2367 O   0  0  0  0  0  0  0  0  0  0  0  0
   22.9590   19.3491   -5.1287 C   0  0  1  0  0  0  0  0  0  0  0  0
   23.6358   18.3261   -5.9394 O   0  0  0  0  0  0  0  0  0  0  0  0
   28.2852   24.3815    1.5007 C   0  0  2  0  0  0  0  0  0  0  0  0
   27.4579   25.0739    0.4798 O   0  0  0  0  0  0  0  0  0  0  0  0
   30.4715   20.8059    0.4127 C   0  0  2  0  0  0  0  0  0  0  0  0
   26.1942   21.7534   -2.3374 C   0  0  2  0  0  0  0  0  0  0  0  0
   27.3337   22.2420   -1.7925 O   0  0  0  0  0  0  0  0  0  0  0  0
   21.7127   18.7189   -4.2844 C   0  0  2  0  0  0  0  0  0  0  0  0
   21.0410   19.7571   -3.4705 O   0  0  0  0  0  0  0  0  0  0  0  0
   29.6313   23.9480    0.8299 C   0  0  2  0  0  0  0  0  0  0  0  0
   30.3776   23.2747    1.8758 O   0  0  0  0  0  0  0  0  0  0  0  0
   30.3784   21.9765   -0.6235 C   0  0  2  0  0  0  0  0  0  0  0  0
   29.0280   21.9342   -1.0169 O   0  0  0  0  0  0  0  0  0  0  0  0
   25.0240   22.1962   -1.3833 C   0  0  0  0  0  0  0  0  0  0  0  0
   25.0498   21.3786   -0.1707 O   0  0  0  0  0  0  0  0  0  0  0  0
   22.2364   17.5733   -3.3085 C   0  0  1  0  0  0  0  0  0  0  0  0
   23.2861   18.2003   -2.4149 O   0  0  0  0  0  0  0  0  0  0  0  0
   30.2811   25.1771    0.3370 C   0  0  0  0  0  0  0  0  0  0  0  0
   31.1986   24.8810   -0.5935 O   0  0  0  0  0  0  0  0  0  0  0  0
   31.3737   21.7396   -1.8382 C   0  0  1  0  0  0  0  0  0  0  0  0
   31.2880   22.7925   -2.7494 O   0  0  0  0  0  0  0  0  0  0  0  0
   29.5584   20.9946   -4.7749 C   0  0  0  0  0  0  0  0  0  0  0  0
   20.9688   17.0628   -2.5432 C   0  0  0  0  0  0  0  0  0  0  0  0
   20.4909   17.9984   -1.5660 N   0  0  0  0  0  0  0  0  0  0  0  0
   30.4181   20.0467   -5.6124 C   0  0  0  0  0  0  0  0  0  0  0  0
   29.8443   20.0414   -6.9721 N   0  0  0  0  0  0  0  0  0  0  0  0
   29.6961   21.3799   -7.6986 C   0  0  0  0  0  0  0  0  0  0  0  0
  1  2  1  6  0  0  0
  1  8  1  0  0  0  0
  1 33  1  0  0  0  0
  3  4  1  6  0  0  0
  3 10  1  0  0  0  0
  3 42  1  0  0  0  0
  5 11  1  0  0  0  0
  5 29  1  0  0  0  0
  5 35  1  1  0  0  0
  6 13  1  0  0  0  0
  6 39  1  0  0  0  0
  6 22  1  1  0  0  0
  7 15  1  0  0  0  0
  8  9  1  6  0  0  0
  8 17  1  0  0  0  0
 10 19  1  0  0  0  0
 11 12  1  6  0  0  0
 11 21  1  0  0  0  0
 12 44  1  0  0  0  0
 13 14  1  1  0  0  0
 13 23  1  0  0  0  0
 15 16  1  0  0  0  0
 17 18  1  1  0  0  0
 17 25  1  0  0  0  0
 19 20  1  1  0  0  0
 19 27  1  0  0  0  0
 21 22  1  6  0  0  0
 21 28  1  0  0  0  0
 23 24  1  1  0  0  0
 23 30  1  0  0  0  0
 25 26  1  6  0  0  0
 25 32  1  0  0  0  0
 27  2  1  1  0  0  0
 27 34  1  0  0  0  0
 28 29  1  0  0  0  0
 28 36  1  1  0  0  0
 30 31  1  1  0  0  0
 30 38  1  0  0  0  0
 32 33  1  0  0  0  0
 32 40  1  1  0  0  0
 34 35  1  6  0  0  0
 34 42  1  0  0  0  0
 36 37  1  0  0  0  0
 38 39  1  0  0  0  0
 38 45  1  1  0  0  0
 40 41  1  0  0  0  0
 42 43  1  6  0  0  0
 44 47  1  0  0  0  0
 45 46  1  0  0  0  0
 47 48  1  0  0  0  0
 48 49  1  0  0  0  0
 49  7  1  0  0  0  0
M  END
>  <CHROM.1>
153.56491460,61.62281914,-49.40357208,173.02813346,29.15680480,125.71574588
-79.31887500,50.47260329,38.85330915,-160.69828372,-95.93668103,-72.59131777
83.92618161,55.96064661,48.58417458,-151.63131912,27.84127901,21.27887912
-1.90303696,0.39588613,0.35024821,1.37705459

>  <Name>
2bee_lig

>  <RI>
0

>  <Rbt.Current_Directory>
/home/itssahil/PROJECTS/Mol_Feturizer/New_Systems/rnas/2bee

>  <Rbt.Executable>
rbdock ($Id: //depot/dev/client3/rdock/2013.1/src/exe/rbdock.cxx#4 $)

>  <Rbt.Library>
libRbt.so (2013.1, Build901 2013/11/27)

>  <Rbt.Parameter_File>
/export/apps/rDock/src/rDock_2013.1_src/data/scripts/dock_solv.prm

>  <Rbt.Receptor>
prm/blind_docking_40.prm

>  <SCORE>
38.3568

>  <SCORE.INTER>
5.90121

>  <SCORE.INTER.CONST>
1

>  <SCORE.INTER.POLAR>
-0.321114

>  <SCORE.INTER.ROT>
16

>  <SCORE.INTER.SOLV>
24.7378

>  <SCORE.INTER.VDW>
-17.5081

>  <SCORE.INTER.norm>
0.120433

>  <SCORE.INTRA>
7.47678

>  <SCORE.INTRA.DIHEDRAL>
-3.46237

>  <SCORE.INTRA.DIHEDRAL.0>
36.0842

>  <SCORE.INTRA.POLAR>
0

>  <SCORE.INTRA.POLAR.0>
0

>  <SCORE.INTRA.REPUL>
0

>  <SCORE.INTRA.REPUL.0>
0

>  <SCORE.INTRA.SOLV>
2.60241

>  <SCORE.INTRA.SOLV.lig_0>
-126.444

>  <SCORE.INTRA.VDW>
7.90676

>  <SCORE.INTRA.VDW.0>
-7.40469

>  <SCORE.INTRA.norm>
0.152587

>  <SCORE.RESTR>
24.9789

>  <SCORE.RESTR.CAVITY>
24.9789

>  <SCORE.RESTR.norm>
0.509773

>  <SCORE.SYSTEM>
0

>  <SCORE.SYSTEM.CONST>
0

>  <SCORE.SYSTEM.DIHEDRAL>
0

>  <SCORE.SYSTEM.SOLV>
0

>  <SCORE.SYSTEM.norm>
0

>  <SCORE.heavy>
49

>  <SCORE.norm>
0.782793

>  <RMSD>
23.846

$$$$
2bee_lig
 OpenBabel11021811423D
libRbt.so/2013.1/901 2013/11/27
 49 52  0  0  0  0  0  0  0  0999 V2000
   30.1356   22.4064    0.7153 C   0  0  2  0  0  0  0  0  0  0  0  0
   28.7267   22.5278    0.5660 O   0  0  0  0  0  0  0  0  0  0  0  0
   27.4662   22.6975    4.7799 C   0  0  2  0  0  0  0  0  0  0  0  0
   26.5910   22.8996    5.9665 N   0  0  0  0  0  0  0  0  0  0  0  0
   26.7601   20.4399    0.5425 C   0  0  1  0  0  0  0  0  0  0  0  0
   27.9775   21.3971   -3.8625 C   0  0  1  0  0  0  0  0  0  0  0  0
   23.4403   19.3363   -5.1008 C   0  0  0  0  0  0  0  0  0  0  0  0
   30.8745   23.0311   -0.5307 C   0  0  2  0  0  0  0  0  0  0  0  0
   30.4402   24.4096   -0.7303 N   0  0  0  0  0  0  0  0  0  0  0  0
   27.4957   24.0359    3.9106 C   0  0  0  0  0  0  0  0  0  0  0  0
   26.3723   21.1383   -0.7203 C   0  0  2  0  0  0  0  0  0  0  0  0
   24.9132   21.2321   -0.8999 O   0  0  0  0  0  0  0  0  0  0  0  0
   26.5674   21.2470   -4.6500 C   0  0  2  0  0  0  0  0  0  0  0  0
   26.4687   19.8408   -5.1658 N   0  0  0  0  0  0  0  0  0  0  0  0
   23.5610   17.9288   -5.0288 C   0  0  0  0  0  0  0  0  0  0  0  0
   22.9979   17.2375   -3.9584 N   0  0  0  0  0  0  0  0  0  0  0  0
   30.5892   22.1352   -1.8145 C   0  0  1  0  0  0  0  0  0  0  0  0
   31.2618   22.7024   -2.9294 O   0  0  0  0  0  0  0  0  0  0  0  0
   28.4379   23.8498    2.5881 C   0  0  2  0  0  0  0  0  0  0  0  0
   28.4778   25.0416    1.8107 N   0  0  0  0  0  0  0  0  0  0  0  0
   27.2363   20.3156   -1.6453 C   0  0  2  0  0  0  0  0  0  0  0  0
   27.9401   20.3870   -2.8261 O   0  0  0  0  0  0  0  0  0  0  0  0
   26.5482   22.2772   -5.8350 C   0  0  1  0  0  0  0  0  0  0  0  0
   26.6328   23.6227   -5.2483 O   0  0  0  0  0  0  0  0  0  0  0  0
   31.0750   20.6926   -1.5420 C   0  0  2  0  0  0  0  0  0  0  0  0
   30.8128   19.8168   -2.7125 O   0  0  0  0  0  0  0  0  0  0  0  0
   27.8932   22.6596    1.7062 C   0  0  2  0  0  0  0  0  0  0  0  0
   27.1591   18.8472   -0.9929 C   0  0  2  0  0  0  0  0  0  0  0  0
   27.1958   19.1272    0.3316 O   0  0  0  0  0  0  0  0  0  0  0  0
   27.8076   21.9746   -6.8279 C   0  0  2  0  0  0  0  0  0  0  0  0
   27.7130   20.6170   -7.4103 O   0  0  0  0  0  0  0  0  0  0  0  0
   30.3394   20.0862   -0.3007 C   0  0  2  0  0  0  0  0  0  0  0  0
   30.6300   20.9930    0.7937 O   0  0  0  0  0  0  0  0  0  0  0  0
   27.8815   21.3765    2.6040 C   0  0  2  0  0  0  0  0  0  0  0  0
   27.4081   20.3870    1.7226 O   0  0  0  0  0  0  0  0  0  0  0  0
   28.3489   17.8548   -1.2670 C   0  0  0  0  0  0  0  0  0  0  0  0
   28.4919   17.6537   -2.7087 O   0  0  0  0  0  0  0  0  0  0  0  0
   29.1782   22.0837   -6.0223 C   0  0  1  0  0  0  0  0  0  0  0  0
   29.0943   21.1007   -4.8733 O   0  0  0  0  0  0  0  0  0  0  0  0
   30.8792   18.7279   -0.1026 C   0  0  0  0  0  0  0  0  0  0  0  0
   30.2955   18.1409    0.9509 O   0  0  0  0  0  0  0  0  0  0  0  0
   26.9339   21.5736    3.8631 C   0  0  1  0  0  0  0  0  0  0  0  0
   26.9387   20.4280    4.6592 O   0  0  0  0  0  0  0  0  0  0  0  0
   23.9783   20.0960   -0.8520 C   0  0  0  0  0  0  0  0  0  0  0  0
   30.3026   21.7559   -7.0621 C   0  0  0  0  0  0  0  0  0  0  0  0
   31.5979   21.6181   -6.4605 N   0  0  0  0  0  0  0  0  0  0  0  0
   22.6341   20.5236   -1.4430 C   0  0  0  0  0  0  0  0  0  0  0  0
   22.5494   19.9208   -2.7874 N   0  0  0  0  0  0  0  0  0  0  0  0
   23.6891   20.1897   -3.7724 C   0  0  0  0  0  0  0  0  0  0  0  0
  1  2  1  6  0  0  0
  1  8  1  0  0  0  0
  1 33  1  0  0  0  0
  3  4  1  1  0  0  0
  3 10  1  0  0  0  0
  3 42  1  0  0  0  0
  5 11  1  0  0  0  0
  5 29  1  0  0  0  0
  5 35  1  6  0  0  0
  6 13  1  0  0  0  0
  6 39  1  0  0  0  0
  6 22  1  1  0  0  0
  7 15  1  0  0  0  0
  8  9  1  6  0  0  0
  8 17  1  0  0  0  0
 10 19  1  0  0  0  0
 11 12  1  6  0  0  0
 11 21  1  0  0  0  0
 12 44  1  0  0  0  0
 13 14  1  6  0  0  0
 13 23  1  0  0  0  0
 15 16  1  0  0  0  0
 17 18  1  6  0  0  0
 17 25  1  0  0  0  0
 19 20  1  6  0  0  0
 19 27  1  0  0  0  0
 21 22  1  6  0  0  0
 21 28  1  0  0  0  0
 23 24  1  1  0  0  0
 23 30  1  0  0  0  0
 25 26  1  6  0  0  0
 25 32  1  0  0  0  0
 27  2  1  6  0  0  0
 27 34  1  0  0  0  0
 28 29  1  0  0  0  0
 28 36  1  6  0  0  0
 30 31  1  1  0  0  0
 30 38  1  0  0  0  0
 32 33  1  0  0  0  0
 32 40  1  1  0  0  0
 34 35  1  6  0  0  0
 34 42  1  0  0  0  0
 36 37  1  0  0  0  0
 38 39  1  0  0  0  0
 38 45  1  6  0  0  0
 40 41  1  0  0  0  0
 42 43  1  1  0  0  0
 44 47  1  0  0  0  0
 45 46  1  0  0  0  0
 47 48  1  0  0  0  0
 48 49  1  0  0  0  0
 49  7  1  0  0  0  0
M  END
>  <CHROM.1>
-149.58243788,23.00074919,-73.45455121,44.08158473,-53.48562751,-165.02575336
-10.53970382,52.67313853,-58.54394570,179.90275742,-17.26550611,-171.49465355
104.53901779,-54.28722394,175.06725037,-68.94803772,27.74241309,20.99655771
-1.45507320,-1.42894228,-0.34471288,-1.69976252

>  <Name>
2bee_lig

>  <RI>
0

>  <Rbt.Current_Directory>
/home/itssahil/PROJECTS/Mol_Feturizer/New_Systems/rnas/2bee

>  <Rbt.Executable>
rbdock ($Id: //depot/dev/client3/rdock/2013.1/src/exe/rbdock.cxx#4 $)

>  <Rbt.Library>
libRbt.so (2013.1, Build901 2013/11/27)

>  <Rbt.Parameter_File>
/export/apps/rDock/src/rDock_2013.1_src/data/scripts/dock_solv.prm

>  <Rbt.Receptor>
prm/blind_docking_40.prm

>  <SCORE>
18.3093

>  <SCORE.INTER>
-0.844287

>  <SCORE.INTER.CONST>
1

>  <SCORE.INTER.POLAR>
-0.168327

>  <SCORE.INTER.ROT>
16

>  <SCORE.INTER.SOLV>
29.5177

>  <SCORE.INTER.VDW>
-24.1077

>  <SCORE.INTER.norm>
-0.0172304

>  <SCORE.INTRA>
-1.09724

>  <SCORE.INTRA.DIHEDRAL>
-10.4398

>  <SCORE.INTRA.DIHEDRAL.0>
36.0842

>  <SCORE.INTRA.POLAR>
0

>  <SCORE.INTRA.POLAR.0>
0

>  <SCORE.INTRA.REPUL>
0

>  <SCORE.INTRA.REPUL.0>
0

>  <SCORE.INTRA.SOLV>
7.46068

>  <SCORE.INTRA.SOLV.lig_0>
-126.444

>  <SCORE.INTRA.VDW>
0.392293

>  <SCORE.INTRA.VDW.0>
-7.40469

>  <SCORE.INTRA.norm>
-0.0223927

>  <SCORE.RESTR>
20.2508

>  <SCORE.RESTR.CAVITY>
20.2508

>  <SCORE.RESTR.norm>
0.413282

>  <SCORE.SYSTEM>
0

>  <SCORE.SYSTEM.CONST>
0

>  <SCORE.SYSTEM.DIHEDRAL>
0

>  <SCORE.SYSTEM.SOLV>
0

>  <SCORE.SYSTEM.norm>
0

>  <SCORE.heavy>
49

>  <SCORE.norm>
0.373659

>  <RMSD>
23.853

$$$$
2bee_lig
 OpenBabel11021811423D
libRbt.so/2013.1/901 2013/11/27
 49 52  0  0  0  0  0  0  0  0999 V2000
   30.0386   24.3430    0.4872 C   0  0  2  0  0  0  0  0  0  0  0  0
   28.6960   24.1552    0.0579 O   0  0  0  0  0  0  0  0  0  0  0  0
   27.3510   20.8945    2.6909 C   0  0  2  0  0  0  0  0  0  0  0  0
   26.4334   20.0243    3.4755 N   0  0  0  0  0  0  0  0  0  0  0  0
   27.9574   20.9046   -2.0067 C   0  0  1  0  0  0  0  0  0  0  0  0
   24.3611   19.5791   -4.2946 C   0  0  1  0  0  0  0  0  0  0  0  0
   30.0270   21.5713   -7.4410 C   0  0  0  0  0  0  0  0  0  0  0  0
   30.9947   24.5028   -0.7575 C   0  0  2  0  0  0  0  0  0  0  0  0
   30.5174   25.5786   -1.6199 N   0  0  0  0  0  0  0  0  0  0  0  0
   27.1685   22.4105    3.1560 C   0  0  0  0  0  0  0  0  0  0  0  0
   27.7934   19.5582   -2.6336 C   0  0  2  0  0  0  0  0  0  0  0  0
   29.0787   18.9078   -2.9420 O   0  0  0  0  0  0  0  0  0  0  0  0
   24.1468   20.4969   -2.9744 C   0  0  2  0  0  0  0  0  0  0  0  0
   24.9050   19.8687   -1.8415 N   0  0  0  0  0  0  0  0  0  0  0  0
   30.9186   22.6578   -7.2820 C   0  0  0  0  0  0  0  0  0  0  0  0
   32.0767   22.5004   -6.5239 N   0  0  0  0  0  0  0  0  0  0  0  0
   31.0768   23.1188   -1.5383 C   0  0  1  0  0  0  0  0  0  0  0  0
   31.9428   23.2710   -2.6537 O   0  0  0  0  0  0  0  0  0  0  0  0
   28.1518   23.4019    2.3064 C   0  0  2  0  0  0  0  0  0  0  0  0
   28.0029   24.7556    2.7205 N   0  0  0  0  0  0  0  0  0  0  0  0
   26.8387   19.9886   -3.7208 C   0  0  2  0  0  0  0  0  0  0  0  0
   25.7944   19.5339   -4.4938 O   0  0  0  0  0  0  0  0  0  0  0  0
   22.6107   20.5530   -2.6527 C   0  0  1  0  0  0  0  0  0  0  0  0
   21.9455   21.1915   -3.7979 O   0  0  0  0  0  0  0  0  0  0  0  0
   31.5921   22.0248   -0.5745 C   0  0  2  0  0  0  0  0  0  0  0  0
   31.6694   20.7097   -1.2606 O   0  0  0  0  0  0  0  0  0  0  0  0
   27.8324   23.2805    0.7656 C   0  0  2  0  0  0  0  0  0  0  0  0
   27.3767   21.4544   -4.1076 C   0  0  2  0  0  0  0  0  0  0  0  0
   27.7153   21.9568   -2.8964 O   0  0  0  0  0  0  0  0  0  0  0  0
   22.0596   19.0367   -2.4066 C   0  0  2  0  0  0  0  0  0  0  0  0
   22.7381   18.4035   -1.2533 O   0  0  0  0  0  0  0  0  0  0  0  0
   30.6390   21.8799    0.6585 C   0  0  2  0  0  0  0  0  0  0  0  0
   30.6046   23.1954    1.2689 O   0  0  0  0  0  0  0  0  0  0  0  0
   28.0224   21.7791    0.3630 C   0  0  2  0  0  0  0  0  0  0  0  0
   27.7391   21.7904   -1.0152 O   0  0  0  0  0  0  0  0  0  0  0  0
   26.3558   22.4725   -4.7377 C   0  0  0  0  0  0  0  0  0  0  0  0
   27.0659   23.3750   -5.6435 O   0  0  0  0  0  0  0  0  0  0  0  0
   22.3216   18.1426   -3.6993 C   0  0  1  0  0  0  0  0  0  0  0  0
   23.8112   18.1832   -3.9697 O   0  0  0  0  0  0  0  0  0  0  0  0
   31.2176   20.8390    1.5288 C   0  0  0  0  0  0  0  0  0  0  0  0
   31.0312   19.6246    0.9942 O   0  0  0  0  0  0  0  0  0  0  0  0
   27.0331   20.8430    1.1799 C   0  0  1  0  0  0  0  0  0  0  0  0
   27.2179   19.5081    0.8191 O   0  0  0  0  0  0  0  0  0  0  0  0
   30.3298   19.6132   -3.2649 C   0  0  0  0  0  0  0  0  0  0  0  0
   21.7762   16.7187   -3.3415 C   0  0  0  0  0  0  0  0  0  0  0  0
   21.9197   15.7785   -4.4158 N   0  0  0  0  0  0  0  0  0  0  0  0
   30.8964   19.0618   -4.5741 C   0  0  0  0  0  0  0  0  0  0  0  0
   30.9701   20.1952   -5.5164 N   0  0  0  0  0  0  0  0  0  0  0  0
   29.6708   20.6859   -6.1587 C   0  0  0  0  0  0  0  0  0  0  0  0
  1  2  1  6  0  0  0
  1  8  1  0  0  0  0
  1 33  1  0  0  0  0
  3  4  1  1  0  0  0
  3 10  1  0  0  0  0
  3 42  1  0  0  0  0
  5 11  1  0  0  0  0
  5 29  1  0  0  0  0
  5 35  1  1  0  0  0
  6 13  1  0  0  0  0
  6 39  1  0  0  0  0
  6 22  1  1  0  0  0
  7 15  1  0  0  0  0
  8  9  1  6  0  0  0
  8 17  1  0  0  0  0
 10 19  1  0  0  0  0
 11 12  1  6  0  0  0
 11 21  1  0  0  0  0
 12 44  1  0  0  0  0
 13 14  1  1  0  0  0
 13 23  1  0  0  0  0
 15 16  1  0  0  0  0
 17 18  1  6  0  0  0
 17 25  1  0  0  0  0
 19 20  1  1  0  0  0
 19 27  1  0  0  0  0
 21 22  1  6  0  0  0
 21 28  1  0  0  0  0
 23 24  1  6  0  0  0
 23 30  1  0  0  0  0
 25 26  1  6  0  0  0
 25 32  1  0  0  0  0
 27  2  1  6  0  0  0
 27 34  1  0  0  0  0
 28 29  1  0  0  0  0
 28 36  1  1  0  0  0
 30 31  1  1  0  0  0
 30 38  1  0  0  0  0
 32 33  1  0  0  0  0
 32 40  1  1  0  0  0
 34 35  1  6  0  0  0
 34 42  1  0  0  0  0
 36 37  1  0  0  0  0
 38 39  1  0  0  0  0
 38 45  1  1  0  0  0
 40 41  1  0  0  0  0
 42 43  1  6  0  0  0
 44 47  1  0  0  0  0
 45 46  1  0  0  0  0
 47 48  1  0  0  0  0
 48 49  1  0  0  0  0
 49  7  1  0  0  0  0
M  END
>  <CHROM.1>
143.39906032,58.78678394,7.30468555,43.73022922,-29.13315131,-127.67412837
91.46237674,36.71556979,-149.49558999,-73.96841580,165.23827633,179.27986064
120.25199919,-75.81714525,-162.53085746,-53.84209347,27.73244262,21.09685656
-1.96877810,0.44242443,0.43317225,1.37489549

>  <Name>
2bee_lig

>  <RI>
0

>  <Rbt.Current_Directory>
/home/itssahil/PROJECTS/Mol_Feturizer/New_Systems/rnas/2bee

>  <Rbt.Executable>
rbdock ($Id: //depot/dev/client3/rdock/2013.1/src/exe/rbdock.cxx#4 $)

>  <Rbt.Library>
libRbt.so (2013.1, Build901 2013/11/27)

>  <Rbt.Parameter_File>
/export/apps/rDock/src/rDock_2013.1_src/data/scripts/dock_solv.prm

>  <Rbt.Receptor>
prm/blind_docking_40.prm

>  <SCORE>
23.643

>  <SCORE.INTER>
-9.92595

>  <SCORE.INTER.CONST>
1

>  <SCORE.INTER.POLAR>
-1.85161

>  <SCORE.INTER.ROT>
16

>  <SCORE.INTER.SOLV>
32.8449

>  <SCORE.INTER.VDW>
-25.6602

>  <SCORE.INTER.norm>
-0.20257

>  <SCORE.INTRA>
11.0154

>  <SCORE.INTRA.DIHEDRAL>
4.55399

>  <SCORE.INTRA.DIHEDRAL.0>
36.0842

>  <SCORE.INTRA.POLAR>
0

>  <SCORE.INTRA.POLAR.0>
0

>  <SCORE.INTRA.REPUL>
0

>  <SCORE.INTRA.REPUL.0>
0

>  <SCORE.INTRA.SOLV>
5.96949

>  <SCORE.INTRA.SOLV.lig_0>
-126.444

>  <SCORE.INTRA.VDW>
5.75367

>  <SCORE.INTRA.VDW.0>
-7.40469

>  <SCORE.INTRA.norm>
0.224804

>  <SCORE.RESTR>
22.5536

>  <SCORE.RESTR.CAVITY>
22.5536

>  <SCORE.RESTR.norm>
0.460277

>  <SCORE.SYSTEM>
0

>  <SCORE.SYSTEM.CONST>
0

>  <SCORE.SYSTEM.DIHEDRAL>
0

>  <SCORE.SYSTEM.SOLV>
0

>  <SCORE.SYSTEM.norm>
0

>  <SCORE.heavy>
49

>  <SCORE.norm>
0.48251

>  <RMSD>
23.858

$$$$
2bee_lig
 OpenBabel11021811423D
libRbt.so/2013.1/901 2013/11/27
 49 52  0  0  0  0  0  0  0  0999 V2000
   29.7474   22.5124    0.4827 C   0  0  2  0  0  0  0  0  0  0  0  0
   29.6826   21.8319   -0.7642 O   0  0  0  0  0  0  0  0  0  0  0  0
   28.6328   17.5589   -0.8819 C   0  0  2  0  0  0  0  0  0  0  0  0
   27.7972   16.3301   -0.9627 N   0  0  0  0  0  0  0  0  0  0  0  0
   28.2480   20.9686   -3.9175 C   0  0  1  0  0  0  0  0  0  0  0  0
   24.1153   19.5476   -2.9108 C   0  0  1  0  0  0  0  0  0  0  0  0
   29.6162   21.9368   -7.4910 C   0  0  0  0  0  0  0  0  0  0  0  0
   29.6068   24.0687    0.2657 C   0  0  2  0  0  0  0  0  0  0  0  0
   28.3872   24.3615   -0.4796 N   0  0  0  0  0  0  0  0  0  0  0  0
   28.1285   18.4621    0.3337 C   0  0  0  0  0  0  0  0  0  0  0  0
   27.0553   20.7153   -4.7812 C   0  0  2  0  0  0  0  0  0  0  0  0
   27.1296   21.4066   -6.0800 O   0  0  0  0  0  0  0  0  0  0  0  0
   23.0905   19.1339   -4.0981 C   0  0  2  0  0  0  0  0  0  0  0  0
   22.1227   20.2643   -4.2938 N   0  0  0  0  0  0  0  0  0  0  0  0
   30.3347   21.8763   -6.2741 C   0  0  0  0  0  0  0  0  0  0  0  0
   31.5464   22.5523   -6.1489 N   0  0  0  0  0  0  0  0  0  0  0  0
   30.8986   24.6131   -0.4874 C   0  0  1  0  0  0  0  0  0  0  0  0
   30.7652   26.0146   -0.6740 O   0  0  0  0  0  0  0  0  0  0  0  0
   29.0145   19.8309    0.4480 C   0  0  2  0  0  0  0  0  0  0  0  0
   28.5780   20.6392    1.5353 N   0  0  0  0  0  0  0  0  0  0  0  0
   26.0144   21.0733   -3.7481 C   0  0  2  0  0  0  0  0  0  0  0  0
   24.7279   20.7821   -3.3544 O   0  0  0  0  0  0  0  0  0  0  0  0
   22.3373   17.8241   -3.6699 C   0  0  1  0  0  0  0  0  0  0  0  0
   23.3479   16.7676   -3.5143 O   0  0  0  0  0  0  0  0  0  0  0  0
   32.1525   24.2768    0.3528 C   0  0  2  0  0  0  0  0  0  0  0  0
   33.3855   24.7550   -0.3232 O   0  0  0  0  0  0  0  0  0  0  0  0
   28.9097   20.6500   -0.8971 C   0  0  2  0  0  0  0  0  0  0  0  0
   26.7054   22.2884   -2.9522 C   0  0  2  0  0  0  0  0  0  0  0  0
   27.9963   21.8837   -2.8896 O   0  0  0  0  0  0  0  0  0  0  0  0
   21.5359   18.0990   -2.2751 C   0  0  2  0  0  0  0  0  0  0  0  0
   20.5234   19.1658   -2.4434 O   0  0  0  0  0  0  0  0  0  0  0  0
   32.2776   22.7313    0.5662 C   0  0  2  0  0  0  0  0  0  0  0  0
   31.0428   22.3363    1.2171 O   0  0  0  0  0  0  0  0  0  0  0  0
   29.4113   19.7207   -2.0536 C   0  0  2  0  0  0  0  0  0  0  0  0
   29.2986   20.5484   -3.1859 O   0  0  0  0  0  0  0  0  0  0  0  0
   26.2528   22.5504   -1.4682 C   0  0  0  0  0  0  0  0  0  0  0  0
   26.3211   21.3005   -0.7115 O   0  0  0  0  0  0  0  0  0  0  0  0
   22.5567   18.5473   -1.1366 C   0  0  1  0  0  0  0  0  0  0  0  0
   23.2746   19.7791   -1.6473 O   0  0  0  0  0  0  0  0  0  0  0  0
   33.4792   22.5075    1.3918 C   0  0  0  0  0  0  0  0  0  0  0  0
   33.2907   22.9801    2.6313 O   0  0  0  0  0  0  0  0  0  0  0  0
   28.5135   18.4152   -2.1623 C   0  0  1  0  0  0  0  0  0  0  0  0
   28.9753   17.5919   -3.1895 O   0  0  0  0  0  0  0  0  0  0  0  0
   25.9932   22.0380   -6.7706 C   0  0  0  0  0  0  0  0  0  0  0  0
   21.6799   18.8010    0.1362 C   0  0  0  0  0  0  0  0  0  0  0  0
   20.8325   19.9521    0.0112 N   0  0  0  0  0  0  0  0  0  0  0  0
   26.5211   22.9761   -7.8569 C   0  0  0  0  0  0  0  0  0  0  0  0
   27.7234   23.6310   -7.3059 N   0  0  0  0  0  0  0  0  0  0  0  0
   29.0688   23.3564   -7.9811 C   0  0  0  0  0  0  0  0  0  0  0  0
  1  2  1  6  0  0  0
  1  8  1  0  0  0  0
  1 33  1  0  0  0  0
  3  4  1  6  0  0  0
  3 10  1  0  0  0  0
  3 42  1  0  0  0  0
  5 11  1  0  0  0  0
  5 29  1  0  0  0  0
  5 35  1  1  0  0  0
  6 13  1  0  0  0  0
  6 39  1  0  0  0  0
  6 22  1  6  0  0  0
  7 15  1  0  0  0  0
  8  9  1  6  0  0  0
  8 17  1  0  0  0  0
 10 19  1  0  0  0  0
 11 12  1  6  0  0  0
 11 21  1  0  0  0  0
 12 44  1  0  0  0  0
 13 14  1  1  0  0  0
 13 23  1  0  0  0  0
 15 16  1  0  0  0  0
 17 18  1  1  0  0  0
 17 25  1  0  0  0  0
 19 20  1  1  0  0  0
 19 27  1  0  0  0  0
 21 22  1  6  0  0  0
 21 28  1  0  0  0  0
 23 24  1  1  0  0  0
 23 30  1  0  0  0  0
 25 26  1  6  0  0  0
 25 32  1  0  0  0  0
 27  2  1  1  0  0  0
 27 34  1  0  0  0  0
 28 29  1  0  0  0  0
 28 36  1  1  0  0  0
 30 31  1  6  0  0  0
 30 38  1  0  0  0  0
 32 33  1  0  0  0  0
 32 40  1  1  0  0  0
 34 35  1  6  0  0  0
 34 42  1  0  0  0  0
 36 37  1  0  0  0  0
 38 39  1  0  0  0  0
 38 45  1  1  0  0  0
 40 41  1  0  0  0  0
 42 43  1  6  0  0  0
 44 47  1  0  0  0  0
 45 46  1  0  0  0  0
 47 48  1  0  0  0  0
 48 49  1  0  0  0  0
 49  7  1  0  0  0  0
M  END
>  <CHROM.1>
-136.30538105,-59.51242495,-111.28105917,-63.30426611,-141.62162986,163.91404478
60.64798961,-36.00741688,50.91048390,68.03362383,-75.05356611,-68.91721082
-38.36405616,116.06101025,-79.35002348,-84.47981109,27.53921072,21.07776909
-2.28774917,0.16003599,0.49048992,1.80075142

>  <Name>
2bee_lig

>  <RI>
0

>  <Rbt.Current_Directory>
/home/itssahil/PROJECTS/Mol_Feturizer/New_Systems/rnas/2bee

>  <Rbt.Executable>
rbdock ($Id: //depot/dev/client3/rdock/2013.1/src/exe/rbdock.cxx#4 $)

>  <Rbt.Library>
libRbt.so (2013.1, Build901 2013/11/27)

>  <Rbt.Parameter_File>
/export/apps/rDock/src/rDock_2013.1_src/data/scripts/dock_solv.prm

>  <Rbt.Receptor>
prm/blind_docking_40.prm

>  <SCORE>
26.6487

>  <SCORE.INTER>
0.155568

>  <SCORE.INTER.CONST>
1

>  <SCORE.INTER.POLAR>
-0.595488

>  <SCORE.INTER.ROT>
16

>  <SCORE.INTER.SOLV>
28.9281

>  <SCORE.INTER.VDW>
-21.8207

>  <SCORE.INTER.norm>
0.00317486

>  <SCORE.INTRA>
9.04769

>  <SCORE.INTRA.DIHEDRAL>
-1.90212

>  <SCORE.INTRA.DIHEDRAL.0>
36.0842

>  <SCORE.INTRA.POLAR>
0

>  <SCORE.INTRA.POLAR.0>
0

>  <SCORE.INTRA.REPUL>
0

>  <SCORE.INTRA.REPUL.0>
0

>  <SCORE.INTRA.SOLV>
6.85952

>  <SCORE.INTRA.SOLV.lig_0>
-126.444

>  <SCORE.INTRA.VDW>
6.56898

>  <SCORE.INTRA.VDW.0>
-7.40469

>  <SCORE.INTRA.norm>
0.184647

>  <SCORE.RESTR>
17.4454

>  <SCORE.RESTR.CAVITY>
17.4454

>  <SCORE.RESTR.norm>
0.356029

>  <SCORE.SYSTEM>
0

>  <SCORE.SYSTEM.CONST>
0

>  <SCORE.SYSTEM.DIHEDRAL>
0

>  <SCORE.SYSTEM.SOLV>
0

>  <SCORE.SYSTEM.norm>
0

>  <SCORE.heavy>
49

>  <SCORE.norm>
0.543851

>  <RMSD>
23.862

$$$$
2bee_lig
 OpenBabel11021811423D
libRbt.so/2013.1/901 2013/11/27
 49 52  0  0  0  0  0  0  0  0999 V2000
   28.8121   22.3966    1.4885 C   0  0  2  0  0  0  0  0  0  0  0  0
   27.9771   22.2149    0.3519 O   0  0  0  0  0  0  0  0  0  0  0  0
   28.3827   17.8786   -0.2858 C   0  0  2  0  0  0  0  0  0  0  0  0
   28.1042   16.5145   -0.8115 N   0  0  0  0  0  0  0  0  0  0  0  0
   29.1117   21.2835   -3.1652 C   0  0  1  0  0  0  0  0  0  0  0  0
   25.3528   19.2743   -4.5043 C   0  0  1  0  0  0  0  0  0  0  0  0
   25.7836   22.2136   -6.8137 C   0  0  0  0  0  0  0  0  0  0  0  0
   29.2663   23.9034    1.5995 C   0  0  2  0  0  0  0  0  0  0  0  0
   28.0988   24.7783    1.6055 N   0  0  0  0  0  0  0  0  0  0  0  0
   27.0689   18.4536    0.4151 C   0  0  0  0  0  0  0  0  0  0  0  0
   28.9627   20.6300   -4.5006 C   0  0  2  0  0  0  0  0  0  0  0  0
   29.8487   21.2088   -5.5254 O   0  0  0  0  0  0  0  0  0  0  0  0
   24.1989   19.1037   -5.6314 C   0  0  2  0  0  0  0  0  0  0  0  0
   23.6921   20.4702   -5.9906 N   0  0  0  0  0  0  0  0  0  0  0  0
   26.1069   23.5729   -6.5932 C   0  0  0  0  0  0  0  0  0  0  0  0
   27.3987   24.0292   -6.8457 N   0  0  0  0  0  0  0  0  0  0  0  0
   30.2491   24.2461    0.3960 C   0  0  1  0  0  0  0  0  0  0  0  0
   30.6561   25.6023    0.5069 O   0  0  0  0  0  0  0  0  0  0  0  0
   27.3306   19.9591    0.9950 C   0  0  2  0  0  0  0  0  0  0  0  0
   26.1669   20.4772    1.6303 N   0  0  0  0  0  0  0  0  0  0  0  0
   27.4606   20.7527   -4.5867 C   0  0  2  0  0  0  0  0  0  0  0  0
   26.3471   20.1349   -5.1097 O   0  0  0  0  0  0  0  0  0  0  0  0
   23.0457   18.2222   -5.0321 C   0  0  1  0  0  0  0  0  0  0  0  0
   23.6171   16.9033   -4.7225 O   0  0  0  0  0  0  0  0  0  0  0  0
   31.4641   23.2909    0.4481 C   0  0  2  0  0  0  0  0  0  0  0  0
   32.4017   23.5669   -0.6702 O   0  0  0  0  0  0  0  0  0  0  0  0
   27.7638   20.9180   -0.1814 C   0  0  2  0  0  0  0  0  0  0  0  0
   27.1787   22.1742   -3.8886 C   0  0  2  0  0  0  0  0  0  0  0  0
   28.0672   22.1652   -2.8666 O   0  0  0  0  0  0  0  0  0  0  0  0
   22.4550   18.9496   -3.6959 C   0  0  2  0  0  0  0  0  0  0  0  0
   21.8850   20.2769   -4.0194 O   0  0  0  0  0  0  0  0  0  0  0  0
   31.0004   21.7996    0.3431 C   0  0  2  0  0  0  0  0  0  0  0  0
   30.0863   21.6068    1.4528 O   0  0  0  0  0  0  0  0  0  0  0  0
   29.0500   20.3088   -0.8349 C   0  0  2  0  0  0  0  0  0  0  0  0
   29.3576   21.2431   -1.8411 O   0  0  0  0  0  0  0  0  0  0  0  0
   25.7642   22.4105   -3.2411 C   0  0  0  0  0  0  0  0  0  0  0  0
   25.7880   23.6465   -2.4593 O   0  0  0  0  0  0  0  0  0  0  0  0
   23.6155   19.1470   -2.6219 C   0  0  1  0  0  0  0  0  0  0  0  0
   24.7044   19.9583   -3.2925 O   0  0  0  0  0  0  0  0  0  0  0  0
   32.2142   20.9656    0.4249 C   0  0  0  0  0  0  0  0  0  0  0  0
   32.7172   20.9909    1.6666 O   0  0  0  0  0  0  0  0  0  0  0  0
   28.7587   18.8604   -1.4179 C   0  0  1  0  0  0  0  0  0  0  0  0
   29.9134   18.3251   -1.9891 O   0  0  0  0  0  0  0  0  0  0  0  0
   29.8868   20.8037   -6.9401 C   0  0  0  0  0  0  0  0  0  0  0  0
   22.9418   19.8658   -1.4043 C   0  0  0  0  0  0  0  0  0  0  0  0
   22.2773   21.0833   -1.7713 N   0  0  0  0  0  0  0  0  0  0  0  0
   28.8664   21.6264   -7.7281 C   0  0  0  0  0  0  0  0  0  0  0  0
   27.6452   20.8040   -7.8308 N   0  0  0  0  0  0  0  0  0  0  0  0
   26.3238   21.5095   -8.1431 C   0  0  0  0  0  0  0  0  0  0  0  0
  1  2  1  6  0  0  0
  1  8  1  0  0  0  0
  1 33  1  0  0  0  0
  3  4  1  6  0  0  0
  3 10  1  0  0  0  0
  3 42  1  0  0  0  0
  5 11  1  0  0  0  0
  5 29  1  0  0  0  0
  5 35  1  1  0  0  0
  6 13  1  0  0  0  0
  6 39  1  0  0  0  0
  6 22  1  6  0  0  0
  7 15  1  0  0  0  0
  8  9  1  6  0  0  0
  8 17  1  0  0  0  0
 10 19  1  0  0  0  0
 11 12  1  6  0  0  0
 11 21  1  0  0  0  0
 12 44  1  0  0  0  0
 13 14  1  1  0  0  0
 13 23  1  0  0  0  0
 15 16  1  0  0  0  0
 17 18  1  1  0  0  0
 17 25  1  0  0  0  0
 19 20  1  6  0  0  0
 19 27  1  0  0  0  0
 21 22  1  6  0  0  0
 21 28  1  0  0  0  0
 23 24  1  1  0  0  0
 23 30  1  0  0  0  0
 25 26  1  6  0  0  0
 25 32  1  0  0  0  0
 27  2  1  1  0  0  0
 27 34  1  0  0  0  0
 28 29  1  0  0  0  0
 28 36  1  1  0  0  0
 30 31  1  6  0  0  0
 30 38  1  0  0  0  0
 32 33  1  0  0  0  0
 32 40  1  1  0  0  0
 34 35  1  6  0  0  0
 34 42  1  0  0  0  0
 36 37  1  0  0  0  0
 38 39  1  0  0  0  0
 38 45  1  1  0  0  0
 40 41  1  0  0  0  0
 42 43  1  1  0  0  0
 44 47  1  0  0  0  0
 45 46  1  0  0  0  0
 47 48  1  0  0  0  0
 48 49  1  0  0  0  0
 49  7  1  0  0  0  0
M  END
>  <CHROM.1>
161.53674452,-36.20371768,171.14137028,-43.08318981,-177.62707256,88.40629667
100.94757157,50.82336680,169.85948482,70.90796785,-97.94801515,-55.00450547
-96.58876531,160.00505914,-77.73238999,94.07819504,27.47554621,21.05008718
-2.52236287,0.69995317,0.51768951,1.76309989

>  <Name>
2bee_lig

>  <RI>
0

>  <Rbt.Current_Directory>
/home/itssahil/PROJECTS/Mol_Feturizer/New_Systems/rnas/2bee

>  <Rbt.Executable>
rbdock ($Id: //depot/dev/client3/rdock/2013.1/src/exe/rbdock.cxx#4 $)

>  <Rbt.Library>
libRbt.so (2013.1, Build901 2013/11/27)

>  <Rbt.Parameter_File>
/export/apps/rDock/src/rDock_2013.1_src/data/scripts/dock_solv.prm

>  <Rbt.Receptor>
prm/blind_docking_40.prm

>  <SCORE>
26.0187

>  <SCORE.INTER>
5.19853

>  <SCORE.INTER.CONST>
1

>  <SCORE.INTER.POLAR>
-1.05296

>  <SCORE.INTER.ROT>
16

>  <SCORE.INTER.SOLV>
33.7648

>  <SCORE.INTER.VDW>
-18.5461

>  <SCORE.INTER.norm>
0.106092

>  <SCORE.INTRA>
2.6281

>  <SCORE.INTRA.DIHEDRAL>
-9.78993

>  <SCORE.INTRA.DIHEDRAL.0>
36.0842

>  <SCORE.INTRA.POLAR>
0

>  <SCORE.INTRA.POLAR.0>
0

>  <SCORE.INTRA.REPUL>
0

>  <SCORE.INTRA.REPUL.0>
0

>  <SCORE.INTRA.SOLV>
8.81781

>  <SCORE.INTRA.SOLV.lig_0>
-126.444

>  <SCORE.INTRA.VDW>
3.11416

>  <SCORE.INTRA.VDW.0>
-7.40469

>  <SCORE.INTRA.norm>
0.0536346

>  <SCORE.RESTR>
18.1921

>  <SCORE.RESTR.CAVITY>
18.1921

>  <SCORE.RESTR.norm>
0.371266

>  <SCORE.SYSTEM>
0

>  <SCORE.SYSTEM.CONST>
0

>  <SCORE.SYSTEM.DIHEDRAL>
0

>  <SCORE.SYSTEM.SOLV>
0

>  <SCORE.SYSTEM.norm>
0

>  <SCORE.heavy>
49

>  <SCORE.norm>
0.530994

>  <RMSD>
23.892

$$$$
2bee_lig
 OpenBabel11021811423D
libRbt.so/2013.1/901 2013/11/27
 49 52  0  0  0  0  0  0  0  0999 V2000
   30.4833   21.4936    1.2803 C   0  0  2  0  0  0  0  0  0  0  0  0
   29.5979   20.4336    0.9416 O   0  0  0  0  0  0  0  0  0  0  0  0
   31.4167   18.9051   -2.7637 C   0  0  2  0  0  0  0  0  0  0  0  0
   31.7696   17.9582   -3.8564 N   0  0  0  0  0  0  0  0  0  0  0  0
   27.1869   20.6311   -2.3299 C   0  0  1  0  0  0  0  0  0  0  0  0
   22.4909   20.5952   -2.4148 C   0  0  1  0  0  0  0  0  0  0  0  0
   30.6571   22.1138   -7.3320 C   0  0  0  0  0  0  0  0  0  0  0  0
   29.7558   22.5388    2.2115 C   0  0  2  0  0  0  0  0  0  0  0  0
   29.2007   21.8655    3.3808 N   0  0  0  0  0  0  0  0  0  0  0  0
   31.8356   18.2719   -1.3596 C   0  0  0  0  0  0  0  0  0  0  0  0
   25.9589   20.2168   -3.0734 C   0  0  2  0  0  0  0  0  0  0  0  0
   26.1350   20.2477   -4.5357 O   0  0  0  0  0  0  0  0  0  0  0  0
   21.4948   20.6198   -1.1349 C   0  0  2  0  0  0  0  0  0  0  0  0
   22.1901   19.9430    0.0103 N   0  0  0  0  0  0  0  0  0  0  0  0
   30.9328   21.9988   -5.9494 C   0  0  0  0  0  0  0  0  0  0  0  0
   31.8095   22.8933   -5.3394 N   0  0  0  0  0  0  0  0  0  0  0  0
   28.6279   23.2901    1.3776 C   0  0  1  0  0  0  0  0  0  0  0  0
   27.9821   24.2316    2.2222 O   0  0  0  0  0  0  0  0  0  0  0  0
   31.4515   19.2781   -0.1302 C   0  0  2  0  0  0  0  0  0  0  0  0
   31.8295   18.7259    1.1262 N   0  0  0  0  0  0  0  0  0  0  0  0
   25.0058   21.1504   -2.3672 C   0  0  2  0  0  0  0  0  0  0  0  0
   23.6930   21.2683   -1.9702 O   0  0  0  0  0  0  0  0  0  0  0  0
   20.1772   19.8553   -1.5163 C   0  0  1  0  0  0  0  0  0  0  0  0
   19.5522   20.5858   -2.6287 O   0  0  0  0  0  0  0  0  0  0  0  0
   29.2788   23.9850    0.1591 C   0  0  2  0  0  0  0  0  0  0  0  0
   28.2560   24.6872   -0.6575 O   0  0  0  0  0  0  0  0  0  0  0  0
   29.8994   19.5645   -0.1380 C   0  0  2  0  0  0  0  0  0  0  0  0
   25.9024   22.4654   -2.1341 C   0  0  2  0  0  0  0  0  0  0  0  0
   27.1063   21.9310   -1.8190 O   0  0  0  0  0  0  0  0  0  0  0  0
   20.5501   18.3233   -1.9378 C   0  0  2  0  0  0  0  0  0  0  0  0
   21.1806   17.5990   -0.8112 O   0  0  0  0  0  0  0  0  0  0  0  0
   30.0020   22.9390   -0.7534 C   0  0  2  0  0  0  0  0  0  0  0  0
   30.9723   22.2899    0.1077 O   0  0  0  0  0  0  0  0  0  0  0  0
   29.5419   20.1792   -1.5333 C   0  0  2  0  0  0  0  0  0  0  0  0
   28.1589   20.4139   -1.4224 O   0  0  0  0  0  0  0  0  0  0  0  0
   25.5179   23.4189   -0.9429 C   0  0  0  0  0  0  0  0  0  0  0  0
   24.8714   24.6200   -1.4711 O   0  0  0  0  0  0  0  0  0  0  0  0
   21.5639   18.3253   -3.1671 C   0  0  1  0  0  0  0  0  0  0  0  0
   22.7780   19.1219   -2.7368 O   0  0  0  0  0  0  0  0  0  0  0  0
   30.6093   23.6891   -1.8688 C   0  0  0  0  0  0  0  0  0  0  0  0
   30.8170   22.8820   -2.9180 O   0  0  0  0  0  0  0  0  0  0  0  0
   29.8954   19.1683   -2.7061 C   0  0  1  0  0  0  0  0  0  0  0  0
   29.5809   19.7304   -3.9436 O   0  0  0  0  0  0  0  0  0  0  0  0
   26.7858   21.3325   -5.2885 C   0  0  0  0  0  0  0  0  0  0  0  0
   21.8630   16.8172   -3.4660 C   0  0  0  0  0  0  0  0  0  0  0  0
   20.6976   16.0859   -3.8732 N   0  0  0  0  0  0  0  0  0  0  0  0
   27.2147   20.8082   -6.6597 C   0  0  0  0  0  0  0  0  0  0  0  0
   28.1298   21.8144   -7.2326 N   0  0  0  0  0  0  0  0  0  0  0  0
   29.4020   21.3219   -7.9256 C   0  0  0  0  0  0  0  0  0  0  0  0
  1  2  1  6  0  0  0
  1  8  1  0  0  0  0
  1 33  1  0  0  0  0
  3  4  1  6  0  0  0
  3 10  1  0  0  0  0
  3 42  1  0  0  0  0
  5 11  1  0  0  0  0
  5 29  1  0  0  0  0
  5 35  1  1  0  0  0
  6 13  1  0  0  0  0
  6 39  1  0  0  0  0
  6 22  1  1  0  0  0
  7 15  1  0  0  0  0
  8  9  1  1  0  0  0
  8 17  1  0  0  0  0
 10 19  1  0  0  0  0
 11 12  1  6  0  0  0
 11 21  1  0  0  0  0
 12 44  1  0  0  0  0
 13 14  1  1  0  0  0
 13 23  1  0  0  0  0
 15 16  1  0  0  0  0
 17 18  1  1  0  0  0
 17 25  1  0  0  0  0
 19 20  1  1  0  0  0
 19 27  1  0  0  0  0
 21 22  1  6  0  0  0
 21 28  1  0  0  0  0
 23 24  1  6  0  0  0
 23 30  1  0  0  0  0
 25 26  1  6  0  0  0
 25 32  1  0  0  0  0
 27  2  1  1  0  0  0
 27 34  1  0  0  0  0
 28 29  1  0  0  0  0
 28 36  1  1  0  0  0
 30 31  1  1  0  0  0
 30 38  1  0  0  0  0
 32 33  1  0  0  0  0
 32 40  1  6  0  0  0
 34 35  1  1  0  0  0
 34 42  1  0  0  0  0
 36 37  1  0  0  0  0
 38 39  1  0  0  0  0
 38 45  1  1  0  0  0
 40 41  1  0  0  0  0
 42 43  1  6  0  0  0
 44 47  1  0  0  0  0
 45 46  1  0  0  0  0
 47 48  1  0  0  0  0
 48 49  1  0  0  0  0
 49  7  1  0  0  0  0
M  END
>  <CHROM.1>
163.98984437,110.36618922,152.66482695,-165.35215224,-44.41257824,160.23880061
-19.96947667,38.75003250,-105.08482120,-157.63746612,-162.04940461,63.00392971
-166.77066314,136.61501437,-129.21481676,60.53430256,27.16005067,20.89675106
-2.06990954,0.13286903,0.21526660,1.32201564

>  <Name>
2bee_lig

>  <RI>
0

>  <Rbt.Current_Directory>
/home/itssahil/PROJECTS/Mol_Feturizer/New_Systems/rnas/2bee

>  <Rbt.Executable>
rbdock ($Id: //depot/dev/client3/rdock/2013.1/src/exe/rbdock.cxx#4 $)

>  <Rbt.Library>
libRbt.so (2013.1, Build901 2013/11/27)

>  <Rbt.Parameter_File>
/export/apps/rDock/src/rDock_2013.1_src/data/scripts/dock_solv.prm

>  <Rbt.Receptor>
prm/blind_docking_40.prm

>  <SCORE>
16.9186

>  <SCORE.INTER>
1.31153

>  <SCORE.INTER.CONST>
1

>  <SCORE.INTER.POLAR>
0

>  <SCORE.INTER.ROT>
16

>  <SCORE.INTER.SOLV>
27.7175

>  <SCORE.INTER.VDW>
-22.6315

>  <SCORE.INTER.norm>
0.026766

>  <SCORE.INTRA>
-2.91175

>  <SCORE.INTRA.DIHEDRAL>
-6.64369

>  <SCORE.INTRA.DIHEDRAL.0>
36.0842

>  <SCORE.INTRA.POLAR>
0

>  <SCORE.INTRA.POLAR.0>
0

>  <SCORE.INTRA.REPUL>
0

>  <SCORE.INTRA.REPUL.0>
0

>  <SCORE.INTRA.SOLV>
1.24995

>  <SCORE.INTRA.SOLV.lig_0>
-126.444

>  <SCORE.INTRA.VDW>
-0.214882

>  <SCORE.INTRA.VDW.0>
-7.40469

>  <SCORE.INTRA.norm>
-0.0594235

>  <SCORE.RESTR>
18.5189

>  <SCORE.RESTR.CAVITY>
18.5189

>  <SCORE.RESTR.norm>
0.377936

>  <SCORE.SYSTEM>
0

>  <SCORE.SYSTEM.CONST>
0

>  <SCORE.SYSTEM.DIHEDRAL>
0

>  <SCORE.SYSTEM.SOLV>
0

>  <SCORE.SYSTEM.norm>
0

>  <SCORE.heavy>
49

>  <SCORE.norm>
0.345278

>  <RMSD>
23.900

$$$$
2bee_lig
 OpenBabel11021811423D
libRbt.so/2013.1/901 2013/11/27
 49 52  0  0  0  0  0  0  0  0999 V2000
   29.3675   21.4551    1.0257 C   0  0  2  0  0  0  0  0  0  0  0  0
   28.6072   21.1586   -0.1388 O   0  0  0  0  0  0  0  0  0  0  0  0
   31.2408   18.9017   -2.8488 C   0  0  2  0  0  0  0  0  0  0  0  0
   31.7097   17.8201   -3.7572 N   0  0  0  0  0  0  0  0  0  0  0  0
   27.1971   20.9683   -3.4259 C   0  0  1  0  0  0  0  0  0  0  0  0
   22.8866   19.4294   -1.9685 C   0  0  1  0  0  0  0  0  0  0  0  0
   29.6916   22.2230   -6.2134 C   0  0  0  0  0  0  0  0  0  0  0  0
   28.7359   22.6787    1.7958 C   0  0  2  0  0  0  0  0  0  0  0  0
   27.3305   22.4154    2.0857 N   0  0  0  0  0  0  0  0  0  0  0  0
   30.8262   18.2689   -1.4432 C   0  0  0  0  0  0  0  0  0  0  0  0
   26.2745   19.8710   -3.8470 C   0  0  2  0  0  0  0  0  0  0  0  0
   25.9095   19.9428   -5.2724 O   0  0  0  0  0  0  0  0  0  0  0  0
   22.4876   19.7025   -0.4202 C   0  0  2  0  0  0  0  0  0  0  0  0
   23.0874   18.6095    0.4157 N   0  0  0  0  0  0  0  0  0  0  0  0
   30.2403   22.2274   -7.5171 C   0  0  0  0  0  0  0  0  0  0  0  0
   31.6228   22.2245   -7.6886 N   0  0  0  0  0  0  0  0  0  0  0  0
   28.9173   23.9981    0.9249 C   0  0  1  0  0  0  0  0  0  0  0  0
   28.3503   25.0942    1.6278 O   0  0  0  0  0  0  0  0  0  0  0  0
   30.2918   19.4258   -0.4196 C   0  0  2  0  0  0  0  0  0  0  0  0
   29.9280   18.8723    0.8403 N   0  0  0  0  0  0  0  0  0  0  0  0
   25.2537   20.0741   -2.7535 C   0  0  2  0  0  0  0  0  0  0  0  0
   24.3338   19.3971   -1.9851 O   0  0  0  0  0  0  0  0  0  0  0  0
   20.9217   19.6975   -0.3026 C   0  0  1  0  0  0  0  0  0  0  0  0
   20.4157   20.8000   -1.1333 O   0  0  0  0  0  0  0  0  0  0  0  0
   30.4235   24.2235    0.6570 C   0  0  2  0  0  0  0  0  0  0  0  0
   30.6373   25.4398   -0.1682 O   0  0  0  0  0  0  0  0  0  0  0  0
   29.0501   20.1673   -1.0515 C   0  0  2  0  0  0  0  0  0  0  0  0
   25.2413   21.6721   -2.5700 C   0  0  2  0  0  0  0  0  0  0  0  0
   26.5534   21.9794   -2.7043 O   0  0  0  0  0  0  0  0  0  0  0  0
   20.3514   18.2541   -0.8076 C   0  0  2  0  0  0  0  0  0  0  0  0
   20.8695   17.1522    0.0343 O   0  0  0  0  0  0  0  0  0  0  0  0
   31.0397   23.0010   -0.1017 C   0  0  2  0  0  0  0  0  0  0  0  0
   30.7863   21.8564    0.7527 O   0  0  0  0  0  0  0  0  0  0  0  0
   29.5082   20.7646   -2.4248 C   0  0  2  0  0  0  0  0  0  0  0  0
   28.3466   21.4139   -2.8822 O   0  0  0  0  0  0  0  0  0  0  0  0
   24.7932   22.2513   -1.1773 C   0  0  0  0  0  0  0  0  0  0  0  0
   25.3695   21.4401   -0.1054 O   0  0  0  0  0  0  0  0  0  0  0  0
   20.7937   17.9881   -2.3152 C   0  0  1  0  0  0  0  0  0  0  0  0
   22.3060   18.0607   -2.3511 O   0  0  0  0  0  0  0  0  0  0  0  0
   32.4733   23.2914   -0.2917 C   0  0  0  0  0  0  0  0  0  0  0  0
   33.1061   23.3190    0.8890 O   0  0  0  0  0  0  0  0  0  0  0  0
   29.9914   19.6164   -3.4100 C   0  0  1  0  0  0  0  0  0  0  0  0
   30.4049   20.1613   -4.6259 O   0  0  0  0  0  0  0  0  0  0  0  0
   25.2200   21.0735   -5.9151 C   0  0  0  0  0  0  0  0  0  0  0  0
   20.2133   16.5798   -2.6798 C   0  0  0  0  0  0  0  0  0  0  0  0
   20.1377   15.6968   -1.5515 N   0  0  0  0  0  0  0  0  0  0  0  0
   25.9771   21.4712   -7.1831 C   0  0  0  0  0  0  0  0  0  0  0  0
   27.4140   21.3056   -6.8901 N   0  0  0  0  0  0  0  0  0  0  0  0
   28.1091   22.3821   -6.0538 C   0  0  0  0  0  0  0  0  0  0  0  0
  1  2  1  6  0  0  0
  1  8  1  0  0  0  0
  1 33  1  0  0  0  0
  3  4  1  6  0  0  0
  3 10  1  0  0  0  0
  3 42  1  0  0  0  0
  5 11  1  0  0  0  0
  5 29  1  0  0  0  0
  5 35  1  1  0  0  0
  6 13  1  0  0  0  0
  6 39  1  0  0  0  0
  6 22  1  1  0  0  0
  7 15  1  0  0  0  0
  8  9  1  6  0  0  0
  8 17  1  0  0  0  0
 10 19  1  0  0  0  0
 11 12  1  6  0  0  0
 11 21  1  0  0  0  0
 12 44  1  0  0  0  0
 13 14  1  1  0  0  0
 13 23  1  0  0  0  0
 15 16  1  0  0  0  0
 17 18  1  1  0  0  0
 17 25  1  0  0  0  0
 19 20  1  1  0  0  0
 19 27  1  0  0  0  0
 21 22  1  6  0  0  0
 21 28  1  0  0  0  0
 23 24  1  6  0  0  0
 23 30  1  0  0  0  0
 25 26  1  6  0  0  0
 25 32  1  0  0  0  0
 27  2  1  1  0  0  0
 27 34  1  0  0  0  0
 28 29  1  0  0  0  0
 28 36  1  1  0  0  0
 30 31  1  1  0  0  0
 30 38  1  0  0  0  0
 32 33  1  0  0  0  0
 32 40  1  1  0  0  0
 34 35  1  6  0  0  0
 34 42  1  0  0  0  0
 36 37  1  0  0  0  0
 38 39  1  0  0  0  0
 38 45  1  1  0  0  0
 40 41  1  0  0  0  0
 42 43  1  6  0  0  0
 44 47  1  0  0  0  0
 45 46  1  0  0  0  0
 47 48  1  0  0  0  0
 48 49  1  0  0  0  0
 49  7  1  0  0  0  0
M  END
>  <CHROM.1>
174.63957003,5.77670783,-127.67628056,173.64340815,-60.00858514,130.60567944
-110.82783357,7.92161043,41.26504746,66.37826878,-76.05743378,-31.05002155
-36.78808710,-77.60036543,-164.09656910,54.75238289,27.03380486,20.75391125
-1.97847112,0.07012179,0.37453121,1.37638155

>  <Name>
2bee_lig

>  <RI>
0

>  <Rbt.Current_Directory>
/home/itssahil/PROJECTS/Mol_Feturizer/New_Systems/rnas/2bee

>  <Rbt.Executable>
rbdock ($Id: //depot/dev/client3/rdock/2013.1/src/exe/rbdock.cxx#4 $)

>  <Rbt.Library>
libRbt.so (2013.1, Build901 2013/11/27)

>  <Rbt.Parameter_File>
/export/apps/rDock/src/rDock_2013.1_src/data/scripts/dock_solv.prm

>  <Rbt.Receptor>
prm/blind_docking_40.prm

>  <SCORE>
22.4578

>  <SCORE.INTER>
-5.68883

>  <SCORE.INTER.CONST>
1

>  <SCORE.INTER.POLAR>
-0.970729

>  <SCORE.INTER.ROT>
16

>  <SCORE.INTER.SOLV>
23.89

>  <SCORE.INTER.VDW>
-22.7868

>  <SCORE.INTER.norm>
-0.116099

>  <SCORE.INTRA>
10.1294

>  <SCORE.INTRA.DIHEDRAL>
1.04008

>  <SCORE.INTRA.DIHEDRAL.0>
36.0842

>  <SCORE.INTRA.POLAR>
0

>  <SCORE.INTRA.POLAR.0>
0

>  <SCORE.INTRA.REPUL>
0.0123033

>  <SCORE.INTRA.REPUL.0>
0

>  <SCORE.INTRA.SOLV>
4.41036

>  <SCORE.INTRA.SOLV.lig_0>
-126.444

>  <SCORE.INTRA.VDW>
7.34262

>  <SCORE.INTRA.VDW.0>
-7.40469

>  <SCORE.INTRA.norm>
0.206722

>  <SCORE.RESTR>
18.0173

>  <SCORE.RESTR.CAVITY>
18.0173

>  <SCORE.RESTR.norm>
0.3677

>  <SCORE.SYSTEM>
0

>  <SCORE.SYSTEM.CONST>
0

>  <SCORE.SYSTEM.DIHEDRAL>
0

>  <SCORE.SYSTEM.SOLV>
0

>  <SCORE.SYSTEM.norm>
0

>  <SCORE.heavy>
49

>  <SCORE.norm>
0.458323

>  <RMSD>
23.902

$$$$
2bee_lig
 OpenBabel11021811423D
libRbt.so/2013.1/901 2013/11/27
 49 52  0  0  0  0  0  0  0  0999 V2000
   22.5773   19.6545   -2.6552 C   0  0  2  0  0  0  0  0  0  0  0  0
   23.7271   19.4535   -1.8430 O   0  0  0  0  0  0  0  0  0  0  0  0
   25.5637   23.4508   -1.9940 C   0  0  2  0  0  0  0  0  0  0  0  0
   26.4443   24.5952   -1.6340 N   0  0  0  0  0  0  0  0  0  0  0  0
   27.3554   19.3742   -2.8236 C   0  0  1  0  0  0  0  0  0  0  0  0
   29.7576   21.2801    0.4632 C   0  0  1  0  0  0  0  0  0  0  0  0
   29.5236   21.9105   -5.4360 C   0  0  0  0  0  0  0  0  0  0  0  0
   21.7808   18.3029   -2.8216 C   0  0  2  0  0  0  0  0  0  0  0  0
   21.4616   17.7461   -1.5114 N   0  0  0  0  0  0  0  0  0  0  0  0
   24.7005   23.0267   -0.7201 C   0  0  0  0  0  0  0  0  0  0  0  0
   28.8239   19.5517   -2.6121 C   0  0  2  0  0  0  0  0  0  0  0  0
   29.6364   18.6229   -3.4167 O   0  0  0  0  0  0  0  0  0  0  0  0
   28.7076   22.2431   -0.3121 C   0  0  2  0  0  0  0  0  0  0  0  0
   28.8779   22.0263   -1.7876 N   0  0  0  0  0  0  0  0  0  0  0  0
   28.3935   22.1330   -6.2571 C   0  0  0  0  0  0  0  0  0  0  0  0
   28.3892   21.6726   -7.5719 N   0  0  0  0  0  0  0  0  0  0  0  0
   22.6421   17.2894   -3.6949 C   0  0  1  0  0  0  0  0  0  0  0  0
   21.9155   16.0781   -3.8432 O   0  0  0  0  0  0  0  0  0  0  0  0
   23.7278   21.7611   -1.0719 C   0  0  2  0  0  0  0  0  0  0  0  0
   22.9468   21.3811    0.0560 N   0  0  0  0  0  0  0  0  0  0  0  0
   28.7917   19.4789   -1.1046 C   0  0  2  0  0  0  0  0  0  0  0  0
   29.4376   19.9394    0.0204 O   0  0  0  0  0  0  0  0  0  0  0  0
   29.0234   23.7328    0.0717 C   0  0  1  0  0  0  0  0  0  0  0  0
   28.8198   23.8650    1.5218 O   0  0  0  0  0  0  0  0  0  0  0  0
   22.9420   17.9341   -5.0681 C   0  0  2  0  0  0  0  0  0  0  0  0
   23.7595   17.0252   -5.9115 O   0  0  0  0  0  0  0  0  0  0  0  0
   24.5977   20.5348   -1.5519 C   0  0  2  0  0  0  0  0  0  0  0  0
   27.6445   18.3865   -0.8250 C   0  0  2  0  0  0  0  0  0  0  0  0
   26.7287   18.6933   -1.7743 O   0  0  0  0  0  0  0  0  0  0  0  0
   30.5601   24.0810   -0.3534 C   0  0  2  0  0  0  0  0  0  0  0  0
   30.7536   23.9420   -1.8145 O   0  0  0  0  0  0  0  0  0  0  0  0
   23.7268   19.2765   -4.8896 C   0  0  2  0  0  0  0  0  0  0  0  0
   22.8785   20.1045   -4.0535 O   0  0  0  0  0  0  0  0  0  0  0  0
   25.4244   21.0036   -2.7967 C   0  0  2  0  0  0  0  0  0  0  0  0
   26.1350   19.8419   -3.1510 O   0  0  0  0  0  0  0  0  0  0  0  0
   26.8882   18.4472    0.5534 C   0  0  0  0  0  0  0  0  0  0  0  0
   26.1826   19.7235    0.6648 O   0  0  0  0  0  0  0  0  0  0  0  0
   31.5694   23.0937    0.3854 C   0  0  1  0  0  0  0  0  0  0  0  0
   31.1660   21.6843    0.0052 O   0  0  0  0  0  0  0  0  0  0  0  0
   23.9464   19.8285   -6.2397 C   0  0  0  0  0  0  0  0  0  0  0  0
   24.7434   20.9041   -6.1820 O   0  0  0  0  0  0  0  0  0  0  0  0
   26.3833   22.2119   -2.4186 C   0  0  1  0  0  0  0  0  0  0  0  0
   27.1074   22.6260   -3.5368 O   0  0  0  0  0  0  0  0  0  0  0  0
   31.0484   18.2933   -3.1628 C   0  0  0  0  0  0  0  0  0  0  0  0
   32.9968   23.5051   -0.1111 C   0  0  0  0  0  0  0  0  0  0  0  0
   33.4018   24.7982    0.3605 N   0  0  0  0  0  0  0  0  0  0  0  0
   31.9339   19.1043   -4.1100 C   0  0  0  0  0  0  0  0  0  0  0  0
   31.2471   20.3905   -4.3377 N   0  0  0  0  0  0  0  0  0  0  0  0
   30.2050   20.4647   -5.4557 C   0  0  0  0  0  0  0  0  0  0  0  0
  1  2  1  1  0  0  0
  1  8  1  0  0  0  0
  1 33  1  0  0  0  0
  3  4  1  1  0  0  0
  3 10  1  0  0  0  0
  3 42  1  0  0  0  0
  5 11  1  0  0  0  0
  5 29  1  0  0  0  0
  5 35  1  1  0  0  0
  6 13  1  0  0  0  0
  6 39  1  0  0  0  0
  6 22  1  6  0  0  0
  7 15  1  0  0  0  0
  8  9  1  1  0  0  0
  8 17  1  0  0  0  0
 10 19  1  0  0  0  0
 11 12  1  6  0  0  0
 11 21  1  0  0  0  0
 12 44  1  0  0  0  0
 13 14  1  6  0  0  0
 13 23  1  0  0  0  0
 15 16  1  0  0  0  0
 17 18  1  6  0  0  0
 17 25  1  0  0  0  0
 19 20  1  1  0  0  0
 19 27  1  0  0  0  0
 21 22  1  6  0  0  0
 21 28  1  0  0  0  0
 23 24  1  1  0  0  0
 23 30  1  0  0  0  0
 25 26  1  6  0  0  0
 25 32  1  0  0  0  0
 27  2  1  6  0  0  0
 27 34  1  0  0  0  0
 28 29  1  0  0  0  0
 28 36  1  1  0  0  0
 30 31  1  6  0  0  0
 30 38  1  0  0  0  0
 32 33  1  0  0  0  0
 32 40  1  6  0  0  0
 34 35  1  1  0  0  0
 34 42  1  0  0  0  0
 36 37  1  0  0  0  0
 38 39  1  0  0  0  0
 38 45  1  6  0  0  0
 40 41  1  0  0  0  0
 42 43  1  6  0  0  0
 44 47  1  0  0  0  0
 45 46  1  0  0  0  0
 47 48  1  0  0  0  0
 48 49  1  0  0  0  0
 49  7  1  0  0  0  0
M  END
>  <CHROM.1>
-179.84685318,-45.37701268,22.23946016,-44.24090357,-162.01402606,-99.94969704
54.24120828,48.54062174,61.99570717,-173.09727819,-92.50249259,68.06193602
32.40644603,-86.46495663,175.68561857,-170.83153554,27.08277084,20.68342943
-2.39591832,2.67041400,-0.28735137,-2.02438773

>  <Name>
2bee_lig

>  <RI>
0

>  <Rbt.Current_Directory>
/home/itssahil/PROJECTS/Mol_Feturizer/New_Systems/rnas/2bee

>  <Rbt.Executable>
rbdock ($Id: //depot/dev/client3/rdock/2013.1/src/exe/rbdock.cxx#4 $)

>  <Rbt.Library>
libRbt.so (2013.1, Build901 2013/11/27)

>  <Rbt.Parameter_File>
/export/apps/rDock/src/rDock_2013.1_src/data/scripts/dock_solv.prm

>  <Rbt.Receptor>
prm/blind_docking_40.prm

>  <SCORE>
28.3795

>  <SCORE.INTER>
3.41693

>  <SCORE.INTER.CONST>
1

>  <SCORE.INTER.POLAR>
0

>  <SCORE.INTER.ROT>
16

>  <SCORE.INTER.SOLV>
19.4897

>  <SCORE.INTER.VDW>
-18.4853

>  <SCORE.INTER.norm>
0.0697333

>  <SCORE.INTRA>
3.85955

>  <SCORE.INTRA.DIHEDRAL>
-8.45489

>  <SCORE.INTRA.DIHEDRAL.0>
36.0842

>  <SCORE.INTRA.POLAR>
0

>  <SCORE.INTRA.POLAR.0>
0

>  <SCORE.INTRA.REPUL>
0.121501

>  <SCORE.INTRA.REPUL.0>
0

>  <SCORE.INTRA.SOLV>
10.7099

>  <SCORE.INTRA.SOLV.lig_0>
-126.444

>  <SCORE.INTRA.VDW>
2.12456

>  <SCORE.INTRA.VDW.0>
-7.40469

>  <SCORE.INTRA.norm>
0.0787663

>  <SCORE.RESTR>
21.103

>  <SCORE.RESTR.CAVITY>
21.103

>  <SCORE.RESTR.norm>
0.430674

>  <SCORE.SYSTEM>
0

>  <SCORE.SYSTEM.CONST>
0

>  <SCORE.SYSTEM.DIHEDRAL>
0

>  <SCORE.SYSTEM.SOLV>
0

>  <SCORE.SYSTEM.norm>
0

>  <SCORE.heavy>
49

>  <SCORE.norm>
0.579173

>  <RMSD>
23.906

$$$$
2bee_lig
 OpenBabel11021811423D
libRbt.so/2013.1/901 2013/11/27
 49 52  0  0  0  0  0  0  0  0999 V2000
   30.0480   19.3998   -2.3196 C   0  0  2  0  0  0  0  0  0  0  0  0
   29.3488   20.4459   -2.9821 O   0  0  0  0  0  0  0  0  0  0  0  0
   30.3175   22.4991   -6.7530 C   0  0  2  0  0  0  0  0  0  0  0  0
   30.5729   22.7008   -8.2052 N   0  0  0  0  0  0  0  0  0  0  0  0
   26.5971   21.2632   -3.5276 C   0  0  1  0  0  0  0  0  0  0  0  0
   22.3307   19.4660   -2.3284 C   0  0  1  0  0  0  0  0  0  0  0  0
   30.9065   23.9736   -0.0902 C   0  0  0  0  0  0  0  0  0  0  0  0
   29.0299   18.3592   -1.7119 C   0  0  2  0  0  0  0  0  0  0  0  0
   28.1311   17.8725   -2.7529 N   0  0  0  0  0  0  0  0  0  0  0  0
   31.2971   21.3687   -6.1959 C   0  0  0  0  0  0  0  0  0  0  0  0
   25.5338   21.7768   -2.6121 C   0  0  2  0  0  0  0  0  0  0  0  0
   26.0258   22.0334   -1.2474 O   0  0  0  0  0  0  0  0  0  0  0  0
   20.8120   20.0084   -2.5032 C   0  0  2  0  0  0  0  0  0  0  0  0
   20.7269   21.3679   -1.8728 N   0  0  0  0  0  0  0  0  0  0  0  0
   30.5999   23.5367   -1.4001 C   0  0  0  0  0  0  0  0  0  0  0  0
   31.4832   22.6988   -2.0771 N   0  0  0  0  0  0  0  0  0  0  0  0
   28.2290   19.0427   -0.5189 C   0  0  1  0  0  0  0  0  0  0  0  0
   27.3188   18.0976    0.0247 O   0  0  0  0  0  0  0  0  0  0  0  0
   31.0379   21.1079   -4.6033 C   0  0  2  0  0  0  0  0  0  0  0  0
   31.9135   20.1072   -4.0948 N   0  0  0  0  0  0  0  0  0  0  0  0
   24.5195   20.6969   -2.9019 C   0  0  2  0  0  0  0  0  0  0  0  0
   23.1638   20.4662   -2.9619 O   0  0  0  0  0  0  0  0  0  0  0  0
   19.8401   19.0022   -1.7898 C   0  0  1  0  0  0  0  0  0  0  0  0
   19.9716   17.7065   -2.4721 O   0  0  0  0  0  0  0  0  0  0  0  0
   29.2341   19.5310    0.5501 C   0  0  2  0  0  0  0  0  0  0  0  0
   28.5275   20.1911    1.6774 O   0  0  0  0  0  0  0  0  0  0  0  0
   29.5397   20.6699   -4.3696 C   0  0  2  0  0  0  0  0  0  0  0  0
   25.4361   19.3886   -3.0906 C   0  0  2  0  0  0  0  0  0  0  0  0
   26.5008   19.8874   -3.7626 O   0  0  0  0  0  0  0  0  0  0  0  0
   20.2446   18.8943   -0.2124 C   0  0  2  0  0  0  0  0  0  0  0  0
   20.1108   20.2047    0.4630 O   0  0  0  0  0  0  0  0  0  0  0  0
   30.2420   20.5578   -0.0661 C   0  0  2  0  0  0  0  0  0  0  0  0
   30.8832   19.8518   -1.1592 O   0  0  0  0  0  0  0  0  0  0  0  0
   28.6239   21.8076   -4.9348 C   0  0  2  0  0  0  0  0  0  0  0  0
   27.3300   21.3299   -4.6563 O   0  0  0  0  0  0  0  0  0  0  0  0
   24.8711   18.2125   -3.9700 C   0  0  0  0  0  0  0  0  0  0  0  0
   23.7210   17.6107   -3.2958 O   0  0  0  0  0  0  0  0  0  0  0  0
   21.7535   18.4032   -0.0667 C   0  0  1  0  0  0  0  0  0  0  0  0
   22.6150   19.3940   -0.8215 O   0  0  0  0  0  0  0  0  0  0  0  0
   31.1705   20.9480    1.0115 C   0  0  0  0  0  0  0  0  0  0  0  0
   31.7956   19.8702    1.5043 O   0  0  0  0  0  0  0  0  0  0  0  0
   28.8735   22.0174   -6.4892 C   0  0  1  0  0  0  0  0  0  0  0  0
   28.0589   23.0386   -6.9789 O   0  0  0  0  0  0  0  0  0  0  0  0
   27.4221   22.3353   -0.8923 C   0  0  0  0  0  0  0  0  0  0  0  0
   22.0326   18.3583    1.4738 C   0  0  0  0  0  0  0  0  0  0  0  0
   23.4265   18.2236    1.7860 N   0  0  0  0  0  0  0  0  0  0  0  0
   27.4614   23.5959   -0.0273 C   0  0  0  0  0  0  0  0  0  0  0  0
   28.6125   23.4500    0.8848 N   0  0  0  0  0  0  0  0  0  0  0  0
   29.7152   24.5095    0.8310 C   0  0  0  0  0  0  0  0  0  0  0  0
  1  2  1  1  0  0  0
  1  8  1  0  0  0  0
  1 33  1  0  0  0  0
  3  4  1  6  0  0  0
  3 10  1  0  0  0  0
  3 42  1  0  0  0  0
  5 11  1  0  0  0  0
  5 29  1  0  0  0  0
  5 35  1  6  0  0  0
  6 13  1  0  0  0  0
  6 39  1  0  0  0  0
  6 22  1  6  0  0  0
  7 15  1  0  0  0  0
  8  9  1  6  0  0  0
  8 17  1  0  0  0  0
 10 19  1  0  0  0  0
 11 12  1  1  0  0  0
 11 21  1  0  0  0  0
 12 44  1  0  0  0  0
 13 14  1  1  0  0  0
 13 23  1  0  0  0  0
 15 16  1  0  0  0  0
 17 18  1  1  0  0  0
 17 25  1  0  0  0  0
 19 20  1  6  0  0  0
 19 27  1  0  0  0  0
 21 22  1  1  0  0  0
 21 28  1  0  0  0  0
 23 24  1  6  0  0  0
 23 30  1  0  0  0  0
 25 26  1  1  0  0  0
 25 32  1  0  0  0  0
 27  2  1  1  0  0  0
 27 34  1  0  0  0  0
 28 29  1  0  0  0  0
 28 36  1  6  0  0  0
 30 31  1  6  0  0  0
 30 38  1  0  0  0  0
 32 33  1  0  0  0  0
 32 40  1  1  0  0  0
 34 35  1  6  0  0  0
 34 42  1  0  0  0  0
 36 37  1  0  0  0  0
 38 39  1  0  0  0  0
 38 45  1  1  0  0  0
 40 41  1  0  0  0  0
 42 43  1  1  0  0  0
 44 47  1  0  0  0  0
 45 46  1  0  0  0  0
 47 48  1  0  0  0  0
 48 49  1  0  0  0  0
 49  7  1  0  0  0  0
M  END
>  <CHROM.1>
-119.00481152,99.37303745,165.03953262,-160.14010349,25.18162176,129.04858031
-126.47682069,-64.38909208,-67.17483020,58.07902089,76.19428929,-166.97236387
148.84117358,120.88600559,-97.21990145,53.72026392,26.87792032,20.54458830
-2.06932007,-0.22301632,0.25141682,1.68583648

>  <Name>
2bee_lig

>  <RI>
0

>  <Rbt.Current_Directory>
/home/itssahil/PROJECTS/Mol_Feturizer/New_Systems/rnas/2bee

>  <Rbt.Executable>
rbdock ($Id: //depot/dev/client3/rdock/2013.1/src/exe/rbdock.cxx#4 $)

>  <Rbt.Library>
libRbt.so (2013.1, Build901 2013/11/27)

>  <Rbt.Parameter_File>
/export/apps/rDock/src/rDock_2013.1_src/data/scripts/dock_solv.prm

>  <Rbt.Receptor>
prm/blind_docking_40.prm

>  <SCORE>
10.8591

>  <SCORE.INTER>
-11.0841

>  <SCORE.INTER.CONST>
1

>  <SCORE.INTER.POLAR>
0

>  <SCORE.INTER.ROT>
16

>  <SCORE.INTER.SOLV>
22.7376

>  <SCORE.INTER.VDW>
-29.2352

>  <SCORE.INTER.norm>
-0.226205

>  <SCORE.INTRA>
5.9459

>  <SCORE.INTRA.DIHEDRAL>
-0.319887

>  <SCORE.INTRA.DIHEDRAL.0>
36.0842

>  <SCORE.INTRA.POLAR>
0

>  <SCORE.INTRA.POLAR.0>
0

>  <SCORE.INTRA.REPUL>
0.104639

>  <SCORE.INTRA.REPUL.0>
0

>  <SCORE.INTRA.SOLV>
11.115

>  <SCORE.INTRA.SOLV.lig_0>
-126.444

>  <SCORE.INTRA.VDW>
0.0251462

>  <SCORE.INTRA.VDW.0>
-7.40469

>  <SCORE.INTRA.norm>
0.121345

>  <SCORE.RESTR>
15.9972

>  <SCORE.RESTR.CAVITY>
15.9972

>  <SCORE.RESTR.norm>
0.326474

>  <SCORE.SYSTEM>
0

>  <SCORE.SYSTEM.CONST>
0

>  <SCORE.SYSTEM.DIHEDRAL>
0

>  <SCORE.SYSTEM.SOLV>
0

>  <SCORE.SYSTEM.norm>
0

>  <SCORE.heavy>
49

>  <SCORE.norm>
0.221613

>  <RMSD>
23.943

$$$$
2bee_lig
 OpenBabel11021811423D
libRbt.so/2013.1/901 2013/11/27
 49 52  0  0  0  0  0  0  0  0999 V2000
   29.0636   21.0343   -5.7283 C   0  0  2  0  0  0  0  0  0  0  0  0
   29.4852   21.6298   -4.5077 O   0  0  0  0  0  0  0  0  0  0  0  0
   29.0839   18.2194   -1.7541 C   0  0  2  0  0  0  0  0  0  0  0  0
   29.2033   17.4087   -0.5118 N   0  0  0  0  0  0  0  0  0  0  0  0
   26.2326   21.8208   -2.0854 C   0  0  1  0  0  0  0  0  0  0  0  0
   26.5144   24.0393    1.7930 C   0  0  1  0  0  0  0  0  0  0  0  0
   22.4212   16.8230   -4.0228 C   0  0  0  0  0  0  0  0  0  0  0  0
   29.1065   22.0924   -6.8977 C   0  0  2  0  0  0  0  0  0  0  0  0
   30.4354   22.6882   -6.9845 N   0  0  0  0  0  0  0  0  0  0  0  0
   30.5361   18.6915   -2.2190 C   0  0  0  0  0  0  0  0  0  0  0  0
   25.2279   21.6358   -0.9949 C   0  0  2  0  0  0  0  0  0  0  0  0
   23.8936   21.2683   -1.4997 O   0  0  0  0  0  0  0  0  0  0  0  0
   27.5582   22.8039    1.9167 C   0  0  2  0  0  0  0  0  0  0  0  0
   26.8177   21.6211    2.4695 N   0  0  0  0  0  0  0  0  0  0  0  0
   23.6759   17.2303   -4.5333 C   0  0  0  0  0  0  0  0  0  0  0  0
   24.5972   17.8543   -3.6951 N   0  0  0  0  0  0  0  0  0  0  0  0
   27.9854   23.1943   -6.6508 C   0  0  1  0  0  0  0  0  0  0  0  0
   28.0285   24.1392   -7.7103 O   0  0  0  0  0  0  0  0  0  0  0  0
   30.4461   19.5979   -3.5762 C   0  0  2  0  0  0  0  0  0  0  0  0
   31.7377   20.0164   -4.0041 N   0  0  0  0  0  0  0  0  0  0  0  0
   25.4810   22.9524   -0.3013 C   0  0  2  0  0  0  0  0  0  0  0  0
   25.4530   23.5520    0.9375 O   0  0  0  0  0  0  0  0  0  0  0  0
   28.7222   23.2317    2.8802 C   0  0  1  0  0  0  0  0  0  0  0  0
   29.4032   24.3794    2.2631 O   0  0  0  0  0  0  0  0  0  0  0  0
   26.6048   22.5021   -6.5737 C   0  0  2  0  0  0  0  0  0  0  0  0
   25.5284   23.4956   -6.3279 O   0  0  0  0  0  0  0  0  0  0  0  0
   29.5382   20.8624   -3.3159 C   0  0  2  0  0  0  0  0  0  0  0  0
   25.7768   23.9503   -1.5278 C   0  0  2  0  0  0  0  0  0  0  0  0
   26.5053   23.1658   -2.3572 O   0  0  0  0  0  0  0  0  0  0  0  0
   28.0966   23.6168    4.3375 C   0  0  2  0  0  0  0  0  0  0  0  0
   27.4116   22.4549    4.9475 O   0  0  0  0  0  0  0  0  0  0  0  0
   26.5767   21.4511   -5.4143 C   0  0  2  0  0  0  0  0  0  0  0  0
   27.6531   20.5258   -5.7139 O   0  0  0  0  0  0  0  0  0  0  0  0
   28.1317   20.3456   -2.8609 C   0  0  2  0  0  0  0  0  0  0  0  0
   27.4072   21.5385   -2.6820 O   0  0  0  0  0  0  0  0  0  0  0  0
   26.6526   25.2267   -1.2457 C   0  0  0  0  0  0  0  0  0  0  0  0
   26.2502   25.8201    0.0292 O   0  0  0  0  0  0  0  0  0  0  0  0
   27.0416   24.8013    4.1845 C   0  0  1  0  0  0  0  0  0  0  0  0
   25.9870   24.3295    3.2053 O   0  0  0  0  0  0  0  0  0  0  0  0
   25.2397   20.8284   -5.4311 C   0  0  0  0  0  0  0  0  0  0  0  0
   25.0434   20.1712   -6.5821 O   0  0  0  0  0  0  0  0  0  0  0  0
   28.2448   19.4960   -1.5238 C   0  0  1  0  0  0  0  0  0  0  0  0
   26.9875   19.0341   -1.1337 O   0  0  0  0  0  0  0  0  0  0  0  0
   23.6014   20.1079   -2.3569 C   0  0  0  0  0  0  0  0  0  0  0  0
   26.4980   25.0674    5.6291 C   0  0  0  0  0  0  0  0  0  0  0  0
   25.6381   26.2137    5.7008 N   0  0  0  0  0  0  0  0  0  0  0  0
   22.1215   20.1253   -2.7424 C   0  0  0  0  0  0  0  0  0  0  0  0
   21.6189   18.7494   -2.5626 N   0  0  0  0  0  0  0  0  0  0  0  0
   21.2892   17.9319   -3.8134 C   0  0  0  0  0  0  0  0  0  0  0  0
  1  2  1  1  0  0  0
  1  8  1  0  0  0  0
  1 33  1  0  0  0  0
  3  4  1  1  0  0  0
  3 10  1  0  0  0  0
  3 42  1  0  0  0  0
  5 11  1  0  0  0  0
  5 29  1  0  0  0  0
  5 35  1  1  0  0  0
  6 13  1  0  0  0  0
  6 39  1  0  0  0  0
  6 22  1  6  0  0  0
  7 15  1  0  0  0  0
  8  9  1  1  0  0  0
  8 17  1  0  0  0  0
 10 19  1  0  0  0  0
 11 12  1  6  0  0  0
 11 21  1  0  0  0  0
 12 44  1  0  0  0  0
 13 14  1  1  0  0  0
 13 23  1  0  0  0  0
 15 16  1  0  0  0  0
 17 18  1  6  0  0  0
 17 25  1  0  0  0  0
 19 20  1  1  0  0  0
 19 27  1  0  0  0  0
 21 22  1  6  0  0  0
 21 28  1  0  0  0  0
 23 24  1  6  0  0  0
 23 30  1  0  0  0  0
 25 26  1  1  0  0  0
 25 32  1  0  0  0  0
 27  2  1  6  0  0  0
 27 34  1  0  0  0  0
 28 29  1  0  0  0  0
 28 36  1  1  0  0  0
 30 31  1  6  0  0  0
 30 38  1  0  0  0  0
 32 33  1  0  0  0  0
 32 40  1  6  0  0  0
 34 35  1  1  0  0  0
 34 42  1  0  0  0  0
 36 37  1  0  0  0  0
 38 39  1  0  0  0  0
 38 45  1  1  0  0  0
 40 41  1  0  0  0  0
 42 43  1  6  0  0  0
 44 47  1  0  0  0  0
 45 46  1  0  0  0  0
 47 48  1  0  0  0  0
 48 49  1  0  0  0  0
 49  7  1  0  0  0  0
M  END
>  <CHROM.1>
-179.49341454,38.18091797,-51.55932676,78.01283641,56.22955940,-176.13916442
110.92607523,55.24629777,-41.98075078,63.05064988,-166.32752176,173.45596423
-134.76076243,-108.82294783,106.45505777,-75.75813330,26.76292137,21.65380002
-1.87324075,-1.59955613,0.47723241,1.19337462

>  <Name>
2bee_lig

>  <RI>
0

>  <Rbt.Current_Directory>
/home/itssahil/PROJECTS/Mol_Feturizer/New_Systems/rnas/2bee

>  <Rbt.Executable>
rbdock ($Id: //depot/dev/client3/rdock/2013.1/src/exe/rbdock.cxx#4 $)

>  <Rbt.Library>
libRbt.so (2013.1, Build901 2013/11/27)

>  <Rbt.Parameter_File>
/export/apps/rDock/src/rDock_2013.1_src/data/scripts/dock_solv.prm

>  <Rbt.Receptor>
prm/blind_docking_40.prm

>  <SCORE>
21.5331

>  <SCORE.INTER>
-2.56583

>  <SCORE.INTER.CONST>
1

>  <SCORE.INTER.POLAR>
0

>  <SCORE.INTER.ROT>
16

>  <SCORE.INTER.SOLV>
28.0765

>  <SCORE.INTER.VDW>
-25.336

>  <SCORE.INTER.norm>
-0.052364

>  <SCORE.INTRA>
-5.40781

>  <SCORE.INTRA.DIHEDRAL>
-18.9993

>  <SCORE.INTRA.DIHEDRAL.0>
36.0842

>  <SCORE.INTRA.POLAR>
0

>  <SCORE.INTRA.POLAR.0>
0

>  <SCORE.INTRA.REPUL>
0

>  <SCORE.INTRA.REPUL.0>
0

>  <SCORE.INTRA.SOLV>
3.39934

>  <SCORE.INTRA.SOLV.lig_0>
-126.444

>  <SCORE.INTRA.VDW>
2.39218

>  <SCORE.INTRA.VDW.0>
-7.40469

>  <SCORE.INTRA.norm>
-0.110363

>  <SCORE.RESTR>
29.5067

>  <SCORE.RESTR.CAVITY>
29.5067

>  <SCORE.RESTR.norm>
0.602178

>  <SCORE.SYSTEM>
0

>  <SCORE.SYSTEM.CONST>
0

>  <SCORE.SYSTEM.DIHEDRAL>
0

>  <SCORE.SYSTEM.SOLV>
0

>  <SCORE.SYSTEM.norm>
0

>  <SCORE.heavy>
49

>  <SCORE.norm>
0.43945

>  <RMSD>
23.983

$$$$
2bee_lig
 OpenBabel11021811423D
libRbt.so/2013.1/901 2013/11/27
 49 52  0  0  0  0  0  0  0  0999 V2000
   30.6792   21.2322   -0.0266 C   0  0  2  0  0  0  0  0  0  0  0  0
   29.5572   20.5363   -0.5548 O   0  0  0  0  0  0  0  0  0  0  0  0
   31.2136   19.0800   -4.3640 C   0  0  2  0  0  0  0  0  0  0  0  0
   31.3260   18.3074   -5.6310 N   0  0  0  0  0  0  0  0  0  0  0  0
   27.4965   21.5332   -3.4698 C   0  0  1  0  0  0  0  0  0  0  0  0
   23.0790   19.9615   -2.3895 C   0  0  1  0  0  0  0  0  0  0  0  0
   28.9093   22.7793   -7.7877 C   0  0  0  0  0  0  0  0  0  0  0  0
   30.6553   21.1935    1.5503 C   0  0  2  0  0  0  0  0  0  0  0  0
   30.5714   19.8132    2.0154 N   0  0  0  0  0  0  0  0  0  0  0  0
   31.0382   18.0684   -3.1417 C   0  0  0  0  0  0  0  0  0  0  0  0
   26.3782   20.7373   -4.0600 C   0  0  2  0  0  0  0  0  0  0  0  0
   25.9395   21.2474   -5.3706 O   0  0  0  0  0  0  0  0  0  0  0  0
   22.4405   21.1050   -1.4326 C   0  0  2  0  0  0  0  0  0  0  0  0
   22.8824   20.8344   -0.0238 N   0  0  0  0  0  0  0  0  0  0  0  0
   30.2758   22.7170   -7.4278 C   0  0  0  0  0  0  0  0  0  0  0  0
   31.2428   22.5030   -8.4075 N   0  0  0  0  0  0  0  0  0  0  0  0
   29.4336   22.0652    2.0791 C   0  0  1  0  0  0  0  0  0  0  0  0
   29.4231   22.0283    3.4988 O   0  0  0  0  0  0  0  0  0  0  0  0
   30.8975   18.8805   -1.7303 C   0  0  2  0  0  0  0  0  0  0  0  0
   30.7497   17.9863   -0.6327 N   0  0  0  0  0  0  0  0  0  0  0  0
   25.4783   20.7786   -2.8487 C   0  0  2  0  0  0  0  0  0  0  0  0
   24.5095   20.0570   -2.1885 O   0  0  0  0  0  0  0  0  0  0  0  0
   20.8760   21.0330   -1.5486 C   0  0  1  0  0  0  0  0  0  0  0  0
   20.5259   21.3226   -2.9469 O   0  0  0  0  0  0  0  0  0  0  0  0
   29.5832   23.5133    1.5577 C   0  0  2  0  0  0  0  0  0  0  0  0
   28.4521   24.3597    2.0165 O   0  0  0  0  0  0  0  0  0  0  0  0
   29.6554   19.8523   -1.7935 C   0  0  2  0  0  0  0  0  0  0  0  0
   25.7452   22.2502   -2.2566 C   0  0  2  0  0  0  0  0  0  0  0  0
   27.0788   22.3904   -2.4460 O   0  0  0  0  0  0  0  0  0  0  0  0
   20.3737   19.5467   -1.0990 C   0  0  2  0  0  0  0  0  0  0  0  0
   20.7339   19.2655    0.3090 O   0  0  0  0  0  0  0  0  0  0  0  0
   29.6115   23.5380   -0.0070 C   0  0  2  0  0  0  0  0  0  0  0  0
   30.7266   22.6886   -0.3804 O   0  0  0  0  0  0  0  0  0  0  0  0
   29.8752   20.8177   -3.0069 C   0  0  2  0  0  0  0  0  0  0  0  0
   28.7369   21.6432   -2.9551 O   0  0  0  0  0  0  0  0  0  0  0  0
   25.4907   22.4852   -0.7217 C   0  0  0  0  0  0  0  0  0  0  0  0
   26.0816   23.7617   -0.3209 O   0  0  0  0  0  0  0  0  0  0  0  0
   21.0485   18.4380   -2.0235 C   0  0  1  0  0  0  0  0  0  0  0  0
   22.5478   18.6087   -1.8949 O   0  0  0  0  0  0  0  0  0  0  0  0
   29.7795   24.9465   -0.4115 C   0  0  0  0  0  0  0  0  0  0  0  0
   30.3505   25.0215   -1.6214 O   0  0  0  0  0  0  0  0  0  0  0  0
   29.9760   20.0049   -4.3676 C   0  0  1  0  0  0  0  0  0  0  0  0
   30.1805   20.8744   -5.4392 O   0  0  0  0  0  0  0  0  0  0  0  0
   26.1345   20.5588   -6.6569 C   0  0  0  0  0  0  0  0  0  0  0  0
   20.5141   17.0657   -1.4902 C   0  0  0  0  0  0  0  0  0  0  0  0
   20.7424   16.8844   -0.0854 N   0  0  0  0  0  0  0  0  0  0  0  0
   26.0379   21.5771   -7.7939 C   0  0  0  0  0  0  0  0  0  0  0  0
   26.4266   22.8838   -7.2287 N   0  0  0  0  0  0  0  0  0  0  0  0
   27.8297   23.0252   -6.6349 C   0  0  0  0  0  0  0  0  0  0  0  0
  1  2  1  6  0  0  0
  1  8  1  0  0  0  0
  1 33  1  0  0  0  0
  3  4  1  6  0  0  0
  3 10  1  0  0  0  0
  3 42  1  0  0  0  0
  5 11  1  0  0  0  0
  5 29  1  0  0  0  0
  5 35  1  1  0  0  0
  6 13  1  0  0  0  0
  6 39  1  0  0  0  0
  6 22  1  1  0  0  0
  7 15  1  0  0  0  0
  8  9  1  6  0  0  0
  8 17  1  0  0  0  0
 10 19  1  0  0  0  0
 11 12  1  6  0  0  0
 11 21  1  0  0  0  0
 12 44  1  0  0  0  0
 13 14  1  1  0  0  0
 13 23  1  0  0  0  0
 15 16  1  0  0  0  0
 17 18  1  1  0  0  0
 17 25  1  0  0  0  0
 19 20  1  1  0  0  0
 19 27  1  0  0  0  0
 21 22  1  6  0  0  0
 21 28  1  0  0  0  0
 23 24  1  6  0  0  0
 23 30  1  0  0  0  0
 25 26  1  6  0  0  0
 25 32  1  0  0  0  0
 27  2  1  1  0  0  0
 27 34  1  0  0  0  0
 28 29  1  0  0  0  0
 28 36  1  1  0  0  0
 30 31  1  1  0  0  0
 30 38  1  0  0  0  0
 32 33  1  0  0  0  0
 32 40  1  1  0  0  0
 34 35  1  6  0  0  0
 34 42  1  0  0  0  0
 36 37  1  0  0  0  0
 38 39  1  0  0  0  0
 38 45  1  1  0  0  0
 40 41  1  0  0  0  0
 42 43  1  6  0  0  0
 44 47  1  0  0  0  0
 45 46  1  0  0  0  0
 47 48  1  0  0  0  0
 48 49  1  0  0  0  0
 49  7  1  0  0  0  0
M  END
>  <CHROM.1>
-148.05731600,18.50367131,-91.39551857,179.95782815,111.07536388,-159.05861084
-83.95920730,52.82252751,166.64180236,154.57392203,-87.30320987,-54.35723058
26.49866078,60.09449517,62.26211083,-173.15617787,27.11558994,21.08951751
-2.30216121,-0.13292986,0.23051729,1.53216981

>  <Name>
2bee_lig

>  <RI>
0

>  <Rbt.Current_Directory>
/home/itssahil/PROJECTS/Mol_Feturizer/New_Systems/rnas/2bee

>  <Rbt.Executable>
rbdock ($Id: //depot/dev/client3/rdock/2013.1/src/exe/rbdock.cxx#4 $)

>  <Rbt.Library>
libRbt.so (2013.1, Build901 2013/11/27)

>  <Rbt.Parameter_File>
/export/apps/rDock/src/rDock_2013.1_src/data/scripts/dock_solv.prm

>  <Rbt.Receptor>
prm/blind_docking_40.prm

>  <SCORE>
24.6225

>  <SCORE.INTER>
0.90019

>  <SCORE.INTER.CONST>
1

>  <SCORE.INTER.POLAR>
-0.280399

>  <SCORE.INTER.ROT>
16

>  <SCORE.INTER.SOLV>
32.6142

>  <SCORE.INTER.VDW>
-23.6033

>  <SCORE.INTER.norm>
0.0183712

>  <SCORE.INTRA>
4.75689

>  <SCORE.INTRA.DIHEDRAL>
-0.83236

>  <SCORE.INTRA.DIHEDRAL.0>
36.0842

>  <SCORE.INTRA.POLAR>
0

>  <SCORE.INTRA.POLAR.0>
0

>  <SCORE.INTRA.REPUL>
0

>  <SCORE.INTRA.REPUL.0>
0

>  <SCORE.INTRA.SOLV>
3.29205

>  <SCORE.INTRA.SOLV.lig_0>
-126.444

>  <SCORE.INTRA.VDW>
3.52705

>  <SCORE.INTRA.VDW.0>
-7.40469

>  <SCORE.INTRA.norm>
0.0970794

>  <SCORE.RESTR>
18.9655

>  <SCORE.RESTR.CAVITY>
18.9655

>  <SCORE.RESTR.norm>
0.38705

>  <SCORE.SYSTEM>
0

>  <SCORE.SYSTEM.CONST>
0

>  <SCORE.SYSTEM.DIHEDRAL>
0

>  <SCORE.SYSTEM.SOLV>
0

>  <SCORE.SYSTEM.norm>
0

>  <SCORE.heavy>
49

>  <SCORE.norm>
0.502501

>  <RMSD>
24.032

$$$$
2bee_lig
 OpenBabel11021811423D
libRbt.so/2013.1/901 2013/11/27
 49 52  0  0  0  0  0  0  0  0999 V2000
   29.9243   21.4388    1.1968 C   0  0  2  0  0  0  0  0  0  0  0  0
   28.8244   20.7782    0.5836 O   0  0  0  0  0  0  0  0  0  0  0  0
   30.6703   19.1536   -3.0671 C   0  0  2  0  0  0  0  0  0  0  0  0
   30.8949   18.2642   -4.2390 N   0  0  0  0  0  0  0  0  0  0  0  0
   26.7310   21.3006   -2.6633 C   0  0  1  0  0  0  0  0  0  0  0  0
   22.4626   19.1226   -2.3498 C   0  0  1  0  0  0  0  0  0  0  0  0
   30.7334   22.0630   -7.5201 C   0  0  0  0  0  0  0  0  0  0  0  0
   29.4253   22.6980    2.0057 C   0  0  2  0  0  0  0  0  0  0  0  0
   28.3949   22.3031    2.9601 N   0  0  0  0  0  0  0  0  0  0  0  0
   30.6554   18.2770   -1.7332 C   0  0  0  0  0  0  0  0  0  0  0  0
   25.8824   20.5191   -3.6129 C   0  0  2  0  0  0  0  0  0  0  0  0
   25.5609   21.2642   -4.8425 O   0  0  0  0  0  0  0  0  0  0  0  0
   22.0064   19.6247   -0.8765 C   0  0  2  0  0  0  0  0  0  0  0  0
   22.6130   18.7011    0.1395 N   0  0  0  0  0  0  0  0  0  0  0  0
   31.4592   22.8471   -6.5932 C   0  0  0  0  0  0  0  0  0  0  0  0
   31.7778   22.3251   -5.3415 N   0  0  0  0  0  0  0  0  0  0  0  0
   28.8908   23.7984    0.9882 C   0  0  1  0  0  0  0  0  0  0  0  0
   28.4484   24.9293    1.7248 O   0  0  0  0  0  0  0  0  0  0  0  0
   30.3974   19.2178   -0.4218 C   0  0  2  0  0  0  0  0  0  0  0  0
   30.3914   18.4460    0.7742 N   0  0  0  0  0  0  0  0  0  0  0  0
   24.8171   20.1331   -2.6155 C   0  0  2  0  0  0  0  0  0  0  0  0
   23.9100   19.1399   -2.3228 O   0  0  0  0  0  0  0  0  0  0  0  0
   20.4384   19.5826   -0.8009 C   0  0  1  0  0  0  0  0  0  0  0  0
   19.9250   20.5197   -1.8108 O   0  0  0  0  0  0  0  0  0  0  0  0
   30.0272   24.1768    0.0101 C   0  0  2  0  0  0  0  0  0  0  0  0
   29.5649   25.1929   -0.9695 O   0  0  0  0  0  0  0  0  0  0  0  0
   29.0215   19.9768   -0.5701 C   0  0  2  0  0  0  0  0  0  0  0  0
   24.7136   21.4387   -1.6815 C   0  0  2  0  0  0  0  0  0  0  0  0
   26.0111   21.8126   -1.5784 O   0  0  0  0  0  0  0  0  0  0  0  0
   19.9296   18.0577   -1.0827 C   0  0  2  0  0  0  0  0  0  0  0  0
   20.4546   17.1233   -0.0616 O   0  0  0  0  0  0  0  0  0  0  0  0
   30.5174   22.9188   -0.7818 C   0  0  2  0  0  0  0  0  0  0  0  0
   30.9412   21.9724    0.2327 O   0  0  0  0  0  0  0  0  0  0  0  0
   29.0874   20.8158   -1.8908 C   0  0  2  0  0  0  0  0  0  0  0  0
   27.8368   21.4603   -1.9101 O   0  0  0  0  0  0  0  0  0  0  0  0
   24.1899   21.2530   -0.2094 C   0  0  0  0  0  0  0  0  0  0  0  0
   24.9339   20.1731    0.4385 O   0  0  0  0  0  0  0  0  0  0  0  0
   20.4276   17.5706   -2.5159 C   0  0  1  0  0  0  0  0  0  0  0  0
   21.9372   17.6906   -2.5230 O   0  0  0  0  0  0  0  0  0  0  0  0
   31.6097   23.3667   -1.6661 C   0  0  0  0  0  0  0  0  0  0  0  0
   31.1205   24.0747   -2.6931 O   0  0  0  0  0  0  0  0  0  0  0  0
   29.3063   19.8742   -3.1508 C   0  0  1  0  0  0  0  0  0  0  0  0
   29.3721   20.6334   -4.3194 O   0  0  0  0  0  0  0  0  0  0  0  0
   26.4769   21.4623   -5.9777 C   0  0  0  0  0  0  0  0  0  0  0  0
   19.9031   16.1024   -2.6650 C   0  0  0  0  0  0  0  0  0  0  0  0
   20.5804   15.1763   -1.8035 N   0  0  0  0  0  0  0  0  0  0  0  0
   27.4493   22.5962   -5.6493 C   0  0  0  0  0  0  0  0  0  0  0  0
   28.3786   22.7034   -6.7908 N   0  0  0  0  0  0  0  0  0  0  0  0
   29.2947   21.5150   -7.0903 C   0  0  0  0  0  0  0  0  0  0  0  0
  1  2  1  6  0  0  0
  1  8  1  0  0  0  0
  1 33  1  0  0  0  0
  3  4  1  6  0  0  0
  3 10  1  0  0  0  0
  3 42  1  0  0  0  0
  5 11  1  0  0  0  0
  5 29  1  0  0  0  0
  5 35  1  1  0  0  0
  6 13  1  0  0  0  0
  6 39  1  0  0  0  0
  6 22  1  1  0  0  0
  7 15  1  0  0  0  0
  8  9  1  1  0  0  0
  8 17  1  0  0  0  0
 10 19  1  0  0  0  0
 11 12  1  6  0  0  0
 11 21  1  0  0  0  0
 12 44  1  0  0  0  0
 13 14  1  1  0  0  0
 13 23  1  0  0  0  0
 15 16  1  0  0  0  0
 17 18  1  1  0  0  0
 17 25  1  0  0  0  0
 19 20  1  1  0  0  0
 19 27  1  0  0  0  0
 21 22  1  6  0  0  0
 21 28  1  0  0  0  0
 23 24  1  6  0  0  0
 23 30  1  0  0  0  0
 25 26  1  6  0  0  0
 25 32  1  0  0  0  0
 27  2  1  1  0  0  0
 27 34  1  0  0  0  0
 28 29  1  0  0  0  0
 28 36  1  1  0  0  0
 30 31  1  1  0  0  0
 30 38  1  0  0  0  0
 32 33  1  0  0  0  0
 32 40  1  6  0  0  0
 34 35  1  6  0  0  0
 34 42  1  0  0  0  0
 36 37  1  0  0  0  0
 38 39  1  0  0  0  0
 38 45  1  1  0  0  0
 40 41  1  0  0  0  0
 42 43  1  6  0  0  0
 44 47  1  0  0  0  0
 45 46  1  0  0  0  0
 47 48  1  0  0  0  0
 48 49  1  0  0  0  0
 49  7  1  0  0  0  0
M  END
>  <CHROM.1>
155.52050800,16.01105025,-88.59455621,58.24516324,77.86764123,-80.07965708
-112.03410243,37.26025516,50.44404094,-73.60026429,-108.26714312,-70.27090319
177.32136633,-63.76699787,-140.80881266,60.75866189,26.89160208,20.74859688
-1.98455170,-0.03241859,0.42030353,1.43361871

>  <Name>
2bee_lig

>  <RI>
0

>  <Rbt.Current_Directory>
/home/itssahil/PROJECTS/Mol_Feturizer/New_Systems/rnas/2bee

>  <Rbt.Executable>
rbdock ($Id: //depot/dev/client3/rdock/2013.1/src/exe/rbdock.cxx#4 $)

>  <Rbt.Library>
libRbt.so (2013.1, Build901 2013/11/27)

>  <Rbt.Parameter_File>
/export/apps/rDock/src/rDock_2013.1_src/data/scripts/dock_solv.prm

>  <Rbt.Receptor>
prm/blind_docking_40.prm

>  <SCORE>
19.4696

>  <SCORE.INTER>
-2.25436

>  <SCORE.INTER.CONST>
1

>  <SCORE.INTER.POLAR>
-0.180548

>  <SCORE.INTER.ROT>
16

>  <SCORE.INTER.SOLV>
23.5502

>  <SCORE.INTER.VDW>
-23.0178

>  <SCORE.INTER.norm>
-0.0460074

>  <SCORE.INTRA>
4.2491

>  <SCORE.INTRA.DIHEDRAL>
-7.56055

>  <SCORE.INTRA.DIHEDRAL.0>
36.0842

>  <SCORE.INTRA.POLAR>
0

>  <SCORE.INTRA.POLAR.0>
0

>  <SCORE.INTRA.REPUL>
0.00073401

>  <SCORE.INTRA.REPUL.0>
0

>  <SCORE.INTRA.SOLV>
7.205

>  <SCORE.INTRA.SOLV.lig_0>
-126.444

>  <SCORE.INTRA.VDW>
4.4232

>  <SCORE.INTRA.VDW.0>
-7.40469

>  <SCORE.INTRA.norm>
0.0867163

>  <SCORE.RESTR>
17.4749

>  <SCORE.RESTR.CAVITY>
17.4749

>  <SCORE.RESTR.norm>
0.35663

>  <SCORE.SYSTEM>
0

>  <SCORE.SYSTEM.CONST>
0

>  <SCORE.SYSTEM.DIHEDRAL>
0

>  <SCORE.SYSTEM.SOLV>
0

>  <SCORE.SYSTEM.norm>
0

>  <SCORE.heavy>
49

>  <SCORE.norm>
0.397339

>  <RMSD>
24.041

$$$$
2bee_lig
 OpenBabel11021811423D
libRbt.so/2013.1/901 2013/11/27
 49 52  0  0  0  0  0  0  0  0999 V2000
   29.6031   21.5945    1.2554 C   0  0  2  0  0  0  0  0  0  0  0  0
   28.3902   21.2366    0.6049 O   0  0  0  0  0  0  0  0  0  0  0  0
   29.9027   18.5181   -2.5090 C   0  0  2  0  0  0  0  0  0  0  0  0
   29.8950   17.5082   -3.6021 N   0  0  0  0  0  0  0  0  0  0  0  0
   27.3514   22.2660   -2.7983 C   0  0  1  0  0  0  0  0  0  0  0  0
   23.0323   20.5634   -2.7505 C   0  0  1  0  0  0  0  0  0  0  0  0
   31.0046   21.8364   -7.4356 C   0  0  0  0  0  0  0  0  0  0  0  0
   29.3866   22.8737    2.1530 C   0  0  2  0  0  0  0  0  0  0  0  0
   28.2858   22.6507    3.0842 N   0  0  0  0  0  0  0  0  0  0  0  0
   29.1617   17.9174   -1.2291 C   0  0  0  0  0  0  0  0  0  0  0  0
   26.2139   21.8080   -3.6521 C   0  0  2  0  0  0  0  0  0  0  0  0
   26.2019   22.4427   -4.9815 O   0  0  0  0  0  0  0  0  0  0  0  0
   23.5606   19.2021   -2.0443 C   0  0  2  0  0  0  0  0  0  0  0  0
   25.0127   19.0332   -2.3848 N   0  0  0  0  0  0  0  0  0  0  0  0
   31.4418   23.1191   -7.0303 C   0  0  0  0  0  0  0  0  0  0  0  0
   31.0305   24.2479   -7.7356 N   0  0  0  0  0  0  0  0  0  0  0  0
   29.1169   24.1326    1.2178 C   0  0  1  0  0  0  0  0  0  0  0  0
   28.9280   25.2794    2.0339 O   0  0  0  0  0  0  0  0  0  0  0  0
   29.1373   19.0037   -0.0081 C   0  0  2  0  0  0  0  0  0  0  0  0
   28.4862   18.4737    1.1415 N   0  0  0  0  0  0  0  0  0  0  0  0
   25.1238   22.0629   -2.6393 C   0  0  2  0  0  0  0  0  0  0  0  0
   23.8875   21.6119   -2.2355 O   0  0  0  0  0  0  0  0  0  0  0  0
   22.7163   17.9975   -2.5941 C   0  0  1  0  0  0  0  0  0  0  0  0
   21.3168   18.2301   -2.2080 O   0  0  0  0  0  0  0  0  0  0  0  0
   30.3176   24.3177    0.2611 C   0  0  2  0  0  0  0  0  0  0  0  0
   30.0995   25.4760   -0.6427 O   0  0  0  0  0  0  0  0  0  0  0  0
   28.4000   20.3184   -0.4762 C   0  0  2  0  0  0  0  0  0  0  0  0
   25.6301   23.3984   -1.8993 C   0  0  2  0  0  0  0  0  0  0  0  0
   26.9644   23.1827   -1.8148 O   0  0  0  0  0  0  0  0  0  0  0  0
   22.8872   17.9196   -4.2152 C   0  0  2  0  0  0  0  0  0  0  0  0
   24.3000   17.6879   -4.5917 O   0  0  0  0  0  0  0  0  0  0  0  0
   30.5257   23.0405   -0.6194 C   0  0  2  0  0  0  0  0  0  0  0  0
   30.7213   21.9562    0.3242 O   0  0  0  0  0  0  0  0  0  0  0  0
   29.1619   20.8630   -1.7314 C   0  0  2  0  0  0  0  0  0  0  0  0
   28.4440   22.0318   -2.0455 O   0  0  0  0  0  0  0  0  0  0  0  0
   25.1321   23.6617   -0.4302 C   0  0  0  0  0  0  0  0  0  0  0  0
   25.9632   24.6951    0.1869 O   0  0  0  0  0  0  0  0  0  0  0  0
   22.4044   19.2837   -4.8826 C   0  0  1  0  0  0  0  0  0  0  0  0
   23.2280   20.3938   -4.2637 O   0  0  0  0  0  0  0  0  0  0  0  0
   31.6978   23.2965   -1.4775 C   0  0  0  0  0  0  0  0  0  0  0  0
   31.3233   23.8972   -2.6151 O   0  0  0  0  0  0  0  0  0  0  0  0
   29.1421   19.8010   -2.9121 C   0  0  1  0  0  0  0  0  0  0  0  0
   29.8310   20.2938   -4.0207 O   0  0  0  0  0  0  0  0  0  0  0  0
   27.2504   22.2899   -6.0034 C   0  0  0  0  0  0  0  0  0  0  0  0
   22.6328   19.1012   -6.4213 C   0  0  0  0  0  0  0  0  0  0  0  0
   24.0213   19.0803   -6.7821 N   0  0  0  0  0  0  0  0  0  0  0  0
   27.4689   20.8024   -6.2835 C   0  0  0  0  0  0  0  0  0  0  0  0
   28.8808   20.6480   -6.6844 N   0  0  0  0  0  0  0  0  0  0  0  0
   29.4471   21.6194   -7.7222 C   0  0  0  0  0  0  0  0  0  0  0  0
  1  2  1  6  0  0  0
  1  8  1  0  0  0  0
  1 33  1  0  0  0  0
  3  4  1  6  0  0  0
  3 10  1  0  0  0  0
  3 42  1  0  0  0  0
  5 11  1  0  0  0  0
  5 29  1  0  0  0  0
  5 35  1  1  0  0  0
  6 13  1  0  0  0  0
  6 39  1  0  0  0  0
  6 22  1  1  0  0  0
  7 15  1  0  0  0  0
  8  9  1  1  0  0  0
  8 17  1  0  0  0  0
 10 19  1  0  0  0  0
 11 12  1  6  0  0  0
 11 21  1  0  0  0  0
 12 44  1  0  0  0  0
 13 14  1  6  0  0  0
 13 23  1  0  0  0  0
 15 16  1  0  0  0  0
 17 18  1  1  0  0  0
 17 25  1  0  0  0  0
 19 20  1  1  0  0  0
 19 27  1  0  0  0  0
 21 22  1  6  0  0  0
 21 28  1  0  0  0  0
 23 24  1  6  0  0  0
 23 30  1  0  0  0  0
 25 26  1  6  0  0  0
 25 32  1  0  0  0  0
 27  2  1  1  0  0  0
 27 34  1  0  0  0  0
 28 29  1  0  0  0  0
 28 36  1  1  0  0  0
 30 31  1  1  0  0  0
 30 38  1  0  0  0  0
 32 33  1  0  0  0  0
 32 40  1  6  0  0  0
 34 35  1  6  0  0  0
 34 42  1  0  0  0  0
 36 37  1  0  0  0  0
 38 39  1  0  0  0  0
 38 45  1  6  0  0  0
 40 41  1  0  0  0  0
 42 43  1  6  0  0  0
 44 47  1  0  0  0  0
 45 46  1  0  0  0  0
 47 48  1  0  0  0  0
 48 49  1  0  0  0  0
 49  7  1  0  0  0  0
M  END
>  <CHROM.1>
165.67347936,3.58391709,85.02296407,-48.47308607,63.29585652,54.79973726
-1.77395799,53.70653910,164.73842475,-88.25920065,-87.08874213,-69.92103163
-150.37395558,-46.94620556,149.15399820,-114.20398378,27.42815860,21.31664258
-2.53169018,0.62908993,0.44962059,1.37179717

>  <Name>
2bee_lig

>  <RI>
0

>  <Rbt.Current_Directory>
/home/itssahil/PROJECTS/Mol_Feturizer/New_Systems/rnas/2bee

>  <Rbt.Executable>
rbdock ($Id: //depot/dev/client3/rdock/2013.1/src/exe/rbdock.cxx#4 $)

>  <Rbt.Library>
libRbt.so (2013.1, Build901 2013/11/27)

>  <Rbt.Parameter_File>
/export/apps/rDock/src/rDock_2013.1_src/data/scripts/dock_solv.prm

>  <Rbt.Receptor>
prm/blind_docking_40.prm

>  <SCORE>
24.3929

>  <SCORE.INTER>
9.96136

>  <SCORE.INTER.CONST>
1

>  <SCORE.INTER.POLAR>
-0.959166

>  <SCORE.INTER.ROT>
16

>  <SCORE.INTER.SOLV>
33.0063

>  <SCORE.INTER.VDW>
-15.4307

>  <SCORE.INTER.norm>
0.203293

>  <SCORE.INTRA>
0.99953

>  <SCORE.INTRA.DIHEDRAL>
-7.06381

>  <SCORE.INTRA.DIHEDRAL.0>
36.0842

>  <SCORE.INTRA.POLAR>
0

>  <SCORE.INTRA.POLAR.0>
0

>  <SCORE.INTRA.REPUL>
0.104883

>  <SCORE.INTRA.REPUL.0>
0

>  <SCORE.INTRA.SOLV>
3.53941

>  <SCORE.INTRA.SOLV.lig_0>
-126.444

>  <SCORE.INTRA.VDW>
2.23731

>  <SCORE.INTRA.VDW.0>
-7.40469

>  <SCORE.INTRA.norm>
0.0203986

>  <SCORE.RESTR>
13.432

>  <SCORE.RESTR.CAVITY>
13.432

>  <SCORE.RESTR.norm>
0.274122

>  <SCORE.SYSTEM>
0

>  <SCORE.SYSTEM.CONST>
0

>  <SCORE.SYSTEM.DIHEDRAL>
0

>  <SCORE.SYSTEM.SOLV>
0

>  <SCORE.SYSTEM.norm>
0

>  <SCORE.heavy>
49

>  <SCORE.norm>
0.497814

>  <RMSD>
24.053

$$$$
2bee_lig
 OpenBabel11021811423D
libRbt.so/2013.1/901 2013/11/27
 49 52  0  0  0  0  0  0  0  0999 V2000
   28.9499   22.2702    0.6125 C   0  0  2  0  0  0  0  0  0  0  0  0
   27.8138   21.9834   -0.1932 O   0  0  0  0  0  0  0  0  0  0  0  0
   28.2029   17.6236   -0.6566 C   0  0  2  0  0  0  0  0  0  0  0  0
   27.8347   16.2164   -0.9715 N   0  0  0  0  0  0  0  0  0  0  0  0
   27.4960   21.0631   -3.6083 C   0  0  1  0  0  0  0  0  0  0  0  0
   23.2567   20.6281   -2.2557 C   0  0  1  0  0  0  0  0  0  0  0  0
   31.5910   22.7895   -6.2055 C   0  0  0  0  0  0  0  0  0  0  0  0
   29.3137   23.8026    0.5211 C   0  0  2  0  0  0  0  0  0  0  0  0
   28.1515   24.6140    0.8668 N   0  0  0  0  0  0  0  0  0  0  0  0
   27.1699   18.2149    0.4070 C   0  0  0  0  0  0  0  0  0  0  0  0
   26.4124   20.5584   -4.5047 C   0  0  2  0  0  0  0  0  0  0  0  0
   26.6702   20.8338   -5.9287 O   0  0  0  0  0  0  0  0  0  0  0  0
   23.8831   19.1777   -1.8885 C   0  0  2  0  0  0  0  0  0  0  0  0
   23.6495   18.2603   -3.0534 N   0  0  0  0  0  0  0  0  0  0  0  0
   32.8997   22.2539   -6.2391 C   0  0  0  0  0  0  0  0  0  0  0  0
   33.9960   23.0854   -6.0218 N   0  0  0  0  0  0  0  0  0  0  0  0
   29.8427   24.1307   -0.9433 C   0  0  1  0  0  0  0  0  0  0  0  0
   30.1720   25.5104   -1.0146 O   0  0  0  0  0  0  0  0  0  0  0  0
   27.5332   19.7667    0.7697 C   0  0  2  0  0  0  0  0  0  0  0  0
   26.6225   20.3004    1.7248 N   0  0  0  0  0  0  0  0  0  0  0  0
   25.2634   21.2008   -3.7658 C   0  0  2  0  0  0  0  0  0  0  0  0
   23.9290   21.0323   -3.4725 O   0  0  0  0  0  0  0  0  0  0  0  0
   23.1636   18.6374   -0.6015 C   0  0  1  0  0  0  0  0  0  0  0  0
   23.4523   19.5785    0.4905 O   0  0  0  0  0  0  0  0  0  0  0  0
   31.0736   23.2449   -1.2461 C   0  0  2  0  0  0  0  0  0  0  0  0
   31.5911   23.5088   -2.6131 O   0  0  0  0  0  0  0  0  0  0  0  0
   27.5011   20.6444   -0.5416 C   0  0  2  0  0  0  0  0  0  0  0  0
   25.8895   22.6012   -3.2817 C   0  0  2  0  0  0  0  0  0  0  0  0
   27.1486   22.2405   -2.9372 O   0  0  0  0  0  0  0  0  0  0  0  0
   21.5613   18.5261   -0.8908 C   0  0  2  0  0  0  0  0  0  0  0  0
   21.2832   17.5781   -1.9933 O   0  0  0  0  0  0  0  0  0  0  0  0
   30.7015   21.7279   -1.1465 C   0  0  2  0  0  0  0  0  0  0  0  0
   30.1980   21.5478    0.2019 O   0  0  0  0  0  0  0  0  0  0  0  0
   28.5256   20.0218   -1.5491 C   0  0  2  0  0  0  0  0  0  0  0  0
   28.4332   20.8847   -2.6567 O   0  0  0  0  0  0  0  0  0  0  0  0
   25.2648   23.2890   -2.0119 C   0  0  0  0  0  0  0  0  0  0  0  0
   25.9382   24.5645   -1.7692 O   0  0  0  0  0  0  0  0  0  0  0  0
   20.9773   19.9531   -1.2930 C   0  0  1  0  0  0  0  0  0  0  0  0
   21.7556   20.4232   -2.5041 O   0  0  0  0  0  0  0  0  0  0  0  0
   31.9325   20.9645   -1.4251 C   0  0  0  0  0  0  0  0  0  0  0  0
   31.6428   19.6772   -1.6579 O   0  0  0  0  0  0  0  0  0  0  0  0
   28.1305   18.5261   -1.9084 C   0  0  1  0  0  0  0  0  0  0  0  0
   29.0549   17.9797   -2.7992 O   0  0  0  0  0  0  0  0  0  0  0  0
   27.3051   22.0532   -6.4551 C   0  0  0  0  0  0  0  0  0  0  0  0
   19.4525   19.7204   -1.5649 C   0  0  0  0  0  0  0  0  0  0  0  0
   18.7470   20.9325   -1.8674 N   0  0  0  0  0  0  0  0  0  0  0  0
   28.7786   21.7681   -6.7491 C   0  0  0  0  0  0  0  0  0  0  0  0
   29.3329   22.9885   -7.3667 N   0  0  0  0  0  0  0  0  0  0  0  0
   30.8445   23.0608   -7.5926 C   0  0  0  0  0  0  0  0  0  0  0  0
  1  2  1  6  0  0  0
  1  8  1  0  0  0  0
  1 33  1  0  0  0  0
  3  4  1  6  0  0  0
  3 10  1  0  0  0  0
  3 42  1  0  0  0  0
  5 11  1  0  0  0  0
  5 29  1  0  0  0  0
  5 35  1  1  0  0  0
  6 13  1  0  0  0  0
  6 39  1  0  0  0  0
  6 22  1  6  0  0  0
  7 15  1  0  0  0  0
  8  9  1  6  0  0  0
  8 17  1  0  0  0  0
 10 19  1  0  0  0  0
 11 12  1  6  0  0  0
 11 21  1  0  0  0  0
 12 44  1  0  0  0  0
 13 14  1  6  0  0  0
 13 23  1  0  0  0  0
 15 16  1  0  0  0  0
 17 18  1  1  0  0  0
 17 25  1  0  0  0  0
 19 20  1  1  0  0  0
 19 27  1  0  0  0  0
 21 22  1  6  0  0  0
 21 28  1  0  0  0  0
 23 24  1  1  0  0  0
 23 30  1  0  0  0  0
 25 26  1  6  0  0  0
 25 32  1  0  0  0  0
 27  2  1  1  0  0  0
 27 34  1  0  0  0  0
 28 29  1  0  0  0  0
 28 36  1  1  0  0  0
 30 31  1  6  0  0  0
 30 38  1  0  0  0  0
 32 33  1  0  0  0  0
 32 40  1  1  0  0  0
 34 35  1  6  0  0  0
 34 42  1  0  0  0  0
 36 37  1  0  0  0  0
 38 39  1  0  0  0  0
 38 45  1  6  0  0  0
 40 41  1  0  0  0  0
 42 43  1  6  0  0  0
 44 47  1  0  0  0  0
 45 46  1  0  0  0  0
 47 48  1  0  0  0  0
 48 49  1  0  0  0  0
 49  7  1  0  0  0  0
M  END
>  <CHROM.1>
164.05139147,-31.99294302,-57.36552728,102.45501585,-36.82514319,99.67206345
105.41316384,49.18792117,-177.95859806,-166.01904253,-73.42922934,176.54963353
175.78022810,171.70628019,-54.71169629,153.58513198,27.15867938,21.07626007
-2.28979266,-0.28662670,0.28285666,1.77724743

>  <Name>
2bee_lig

>  <RI>
0

>  <Rbt.Current_Directory>
/home/itssahil/PROJECTS/Mol_Feturizer/New_Systems/rnas/2bee

>  <Rbt.Executable>
rbdock ($Id: //depot/dev/client3/rdock/2013.1/src/exe/rbdock.cxx#4 $)

>  <Rbt.Library>
libRbt.so (2013.1, Build901 2013/11/27)

>  <Rbt.Parameter_File>
/export/apps/rDock/src/rDock_2013.1_src/data/scripts/dock_solv.prm

>  <Rbt.Receptor>
prm/blind_docking_40.prm

>  <SCORE>
24.2875

>  <SCORE.INTER>
9.57263

>  <SCORE.INTER.CONST>
1

>  <SCORE.INTER.POLAR>
0

>  <SCORE.INTER.ROT>
16

>  <SCORE.INTER.SOLV>
29.944

>  <SCORE.INTER.VDW>
-17.8662

>  <SCORE.INTER.norm>
0.19536

>  <SCORE.INTRA>
-5.41793

>  <SCORE.INTRA.DIHEDRAL>
-11.8054

>  <SCORE.INTRA.DIHEDRAL.0>
36.0842

>  <SCORE.INTRA.POLAR>
0

>  <SCORE.INTRA.POLAR.0>
0

>  <SCORE.INTRA.REPUL>
0.01972

>  <SCORE.INTRA.REPUL.0>
0

>  <SCORE.INTRA.SOLV>
-0.49209

>  <SCORE.INTRA.SOLV.lig_0>
-126.444

>  <SCORE.INTRA.VDW>
0.632212

>  <SCORE.INTRA.VDW.0>
-7.40469

>  <SCORE.INTRA.norm>
-0.11057

>  <SCORE.RESTR>
20.1328

>  <SCORE.RESTR.CAVITY>
20.1328

>  <SCORE.RESTR.norm>
0.410874

>  <SCORE.SYSTEM>
0

>  <SCORE.SYSTEM.CONST>
0

>  <SCORE.SYSTEM.DIHEDRAL>
0

>  <SCORE.SYSTEM.SOLV>
0

>  <SCORE.SYSTEM.norm>
0

>  <SCORE.heavy>
49

>  <SCORE.norm>
0.495664

>  <RMSD>
24.073

$$$$
2bee_lig
 OpenBabel11021811423D
libRbt.so/2013.1/901 2013/11/27
 49 52  0  0  0  0  0  0  0  0999 V2000
   31.1251   21.0276   -5.2711 C   0  0  2  0  0  0  0  0  0  0  0  0
   29.9411   21.7131   -5.6588 O   0  0  0  0  0  0  0  0  0  0  0  0
   25.6194   21.0018   -6.0958 C   0  0  2  0  0  0  0  0  0  0  0  0
   24.3183   20.2792   -6.0980 N   0  0  0  0  0  0  0  0  0  0  0  0
   27.8290   22.0409   -2.2012 C   0  0  1  0  0  0  0  0  0  0  0  0
   24.3741   19.5100   -0.8618 C   0  0  1  0  0  0  0  0  0  0  0  0
   26.1559   23.9957    4.9225 C   0  0  0  0  0  0  0  0  0  0  0  0
   30.9335   20.3615   -3.8539 C   0  0  2  0  0  0  0  0  0  0  0  0
   29.7547   19.5019   -3.8606 N   0  0  0  0  0  0  0  0  0  0  0  0
   26.6445   20.2480   -7.0595 C   0  0  0  0  0  0  0  0  0  0  0  0
   26.8162   22.5657   -1.2360 C   0  0  2  0  0  0  0  0  0  0  0  0
   27.3795   23.5405   -0.2859 O   0  0  0  0  0  0  0  0  0  0  0  0
   24.0272   19.9590   -2.3813 C   0  0  2  0  0  0  0  0  0  0  0  0
   23.3059   21.2742   -2.3259 N   0  0  0  0  0  0  0  0  0  0  0  0
   27.3456   23.8515    5.6739 C   0  0  0  0  0  0  0  0  0  0  0  0
   27.8487   24.9340    6.3922 N   0  0  0  0  0  0  0  0  0  0  0  0
   30.8217   21.5007   -2.7486 C   0  0  1  0  0  0  0  0  0  0  0  0
   30.6543   20.8919   -1.4764 O   0  0  0  0  0  0  0  0  0  0  0  0
   28.0930   21.0051   -7.0741 C   0  0  2  0  0  0  0  0  0  0  0  0
   29.0117   20.3451   -7.9382 N   0  0  0  0  0  0  0  0  0  0  0  0
   26.2966   21.2227   -0.7832 C   0  0  2  0  0  0  0  0  0  0  0  0
   25.1626   20.5958   -0.3184 O   0  0  0  0  0  0  0  0  0  0  0  0
   23.1202   18.8537   -3.0309 C   0  0  1  0  0  0  0  0  0  0  0  0
   23.9005   17.6080   -3.0617 O   0  0  0  0  0  0  0  0  0  0  0  0
   32.0992   22.3711   -2.7890 C   0  0  2  0  0  0  0  0  0  0  0  0
   32.0294   23.4594   -1.7807 O   0  0  0  0  0  0  0  0  0  0  0  0
   28.6843   21.0572   -5.6117 C   0  0  2  0  0  0  0  0  0  0  0  0
   27.6212   20.3101   -0.7819 C   0  0  2  0  0  0  0  0  0  0  0  0
   28.2636   20.7477   -1.8909 O   0  0  0  0  0  0  0  0  0  0  0  0
   21.7597   18.6887   -2.1447 C   0  0  2  0  0  0  0  0  0  0  0  0
   20.9841   19.9494   -2.1190 O   0  0  0  0  0  0  0  0  0  0  0  0
   32.2814   23.0213   -4.2011 C   0  0  2  0  0  0  0  0  0  0  0  0
   32.3310   21.9072   -5.1289 O   0  0  0  0  0  0  0  0  0  0  0  0
   27.6423   21.8008   -4.7096 C   0  0  2  0  0  0  0  0  0  0  0  0
   28.2736   21.8106   -3.4521 O   0  0  0  0  0  0  0  0  0  0  0  0
   27.4467   18.7562   -0.9577 C   0  0  0  0  0  0  0  0  0  0  0  0
   28.7608   18.1142   -0.9372 O   0  0  0  0  0  0  0  0  0  0  0  0
   22.1275   18.2919   -0.6460 C   0  0  1  0  0  0  0  0  0  0  0  0
   23.0404   19.3766   -0.1134 O   0  0  0  0  0  0  0  0  0  0  0  0
   33.5282   23.8080   -4.1543 C   0  0  0  0  0  0  0  0  0  0  0  0
   33.2535   25.1186   -4.1075 O   0  0  0  0  0  0  0  0  0  0  0  0
   26.2557   21.0267   -4.6882 C   0  0  1  0  0  0  0  0  0  0  0  0
   25.3337   21.7030   -3.8889 O   0  0  0  0  0  0  0  0  0  0  0  0
   28.1811   23.2015    0.9013 C   0  0  0  0  0  0  0  0  0  0  0  0
   20.7583   18.1832    0.1068 C   0  0  0  0  0  0  0  0  0  0  0  0
   20.0351   19.4221    0.1340 N   0  0  0  0  0  0  0  0  0  0  0  0
   27.2740   23.1774    2.1324 C   0  0  0  0  0  0  0  0  0  0  0  0
   27.3196   24.5300    2.7208 N   0  0  0  0  0  0  0  0  0  0  0  0
   26.1756   24.9548    3.6440 C   0  0  0  0  0  0  0  0  0  0  0  0
  1  2  1  1  0  0  0
  1  8  1  0  0  0  0
  1 33  1  0  0  0  0
  3  4  1  1  0  0  0
  3 10  1  0  0  0  0
  3 42  1  0  0  0  0
  5 11  1  0  0  0  0
  5 29  1  0  0  0  0
  5 35  1  6  0  0  0
  6 13  1  0  0  0  0
  6 39  1  0  0  0  0
  6 22  1  1  0  0  0
  7 15  1  0  0  0  0
  8  9  1  6  0  0  0
  8 17  1  0  0  0  0
 10 19  1  0  0  0  0
 11 12  1  1  0  0  0
 11 21  1  0  0  0  0
 12 44  1  0  0  0  0
 13 14  1  1  0  0  0
 13 23  1  0  0  0  0
 15 16  1  0  0  0  0
 17 18  1  1  0  0  0
 17 25  1  0  0  0  0
 19 20  1  6  0  0  0
 19 27  1  0  0  0  0
 21 22  1  1  0  0  0
 21 28  1  0  0  0  0
 23 24  1  1  0  0  0
 23 30  1  0  0  0  0
 25 26  1  1  0  0  0
 25 32  1  0  0  0  0
 27  2  1  6  0  0  0
 27 34  1  0  0  0  0
 28 29  1  0  0  0  0
 28 36  1  6  0  0  0
 30 31  1  1  0  0  0
 30 38  1  0  0  0  0
 32 33  1  0  0  0  0
 32 40  1  1  0  0  0
 34 35  1  1  0  0  0
 34 42  1  0  0  0  0
 36 37  1  0  0  0  0
 38 39  1  0  0  0  0
 38 45  1  1  0  0  0
 40 41  1  0  0  0  0
 42 43  1  1  0  0  0
 44 47  1  0  0  0  0
 45 46  1  0  0  0  0
 47 48  1  0  0  0  0
 48 49  1  0  0  0  0
 49  7  1  0  0  0  0
M  END
>  <CHROM.1>
-51.07174015,-16.93793265,-52.57365680,67.20920730,-78.22842170,-96.84576299
118.37257442,-118.35016047,179.65586410,-106.13833653,-164.11911588,-61.90479064
-92.04191472,159.10297214,62.50416013,53.79625000,27.20598138,21.28653623
-2.04667180,0.42232898,-0.39814742,-1.93108318

>  <Name>
2bee_lig

>  <RI>
0

>  <Rbt.Current_Directory>
/home/itssahil/PROJECTS/Mol_Feturizer/New_Systems/rnas/2bee

>  <Rbt.Executable>
rbdock ($Id: //depot/dev/client3/rdock/2013.1/src/exe/rbdock.cxx#4 $)

>  <Rbt.Library>
libRbt.so (2013.1, Build901 2013/11/27)

>  <Rbt.Parameter_File>
/export/apps/rDock/src/rDock_2013.1_src/data/scripts/dock_solv.prm

>  <Rbt.Receptor>
prm/blind_docking_40.prm

>  <SCORE>
39.4388

>  <SCORE.INTER>
5.83331

>  <SCORE.INTER.CONST>
1

>  <SCORE.INTER.POLAR>
-1.43305

>  <SCORE.INTER.ROT>
16

>  <SCORE.INTER.SOLV>
22.0121

>  <SCORE.INTER.VDW>
-12.9383

>  <SCORE.INTER.norm>
0.119047

>  <SCORE.INTRA>
6.89039

>  <SCORE.INTRA.DIHEDRAL>
-4.26418

>  <SCORE.INTRA.DIHEDRAL.0>
36.0842

>  <SCORE.INTRA.POLAR>
0

>  <SCORE.INTRA.POLAR.0>
0

>  <SCORE.INTRA.REPUL>
0

>  <SCORE.INTRA.REPUL.0>
0

>  <SCORE.INTRA.SOLV>
11.0921

>  <SCORE.INTRA.SOLV.lig_0>
-126.444

>  <SCORE.INTRA.VDW>
3.47641

>  <SCORE.INTRA.VDW.0>
-7.40469

>  <SCORE.INTRA.norm>
0.14062

>  <SCORE.RESTR>
26.7151

>  <SCORE.RESTR.CAVITY>
26.7151

>  <SCORE.RESTR.norm>
0.545206

>  <SCORE.SYSTEM>
0

>  <SCORE.SYSTEM.CONST>
0

>  <SCORE.SYSTEM.DIHEDRAL>
0

>  <SCORE.SYSTEM.SOLV>
0

>  <SCORE.SYSTEM.norm>
0

>  <SCORE.heavy>
49

>  <SCORE.norm>
0.804873

>  <RMSD>
24.130

$$$$
2bee_lig
 OpenBabel11021811423D
libRbt.so/2013.1/901 2013/11/27
 49 52  0  0  0  0  0  0  0  0999 V2000
   29.0080   21.4537    1.0586 C   0  0  2  0  0  0  0  0  0  0  0  0
   28.1601   21.3418   -0.0775 O   0  0  0  0  0  0  0  0  0  0  0  0
   30.2899   18.5376   -2.7184 C   0  0  2  0  0  0  0  0  0  0  0  0
   30.5116   17.4322   -3.6899 N   0  0  0  0  0  0  0  0  0  0  0  0
   27.1753   21.8962   -3.3333 C   0  0  1  0  0  0  0  0  0  0  0  0
   23.3995   19.6137   -2.0736 C   0  0  1  0  0  0  0  0  0  0  0  0
   31.2354   21.5181   -6.5556 C   0  0  0  0  0  0  0  0  0  0  0  0
   28.5624   22.6715    1.9571 C   0  0  2  0  0  0  0  0  0  0  0  0
   27.1525   22.5432    2.3098 N   0  0  0  0  0  0  0  0  0  0  0  0
   29.4896   17.9788   -1.4554 C   0  0  0  0  0  0  0  0  0  0  0  0
   25.9736   21.2185   -3.9072 C   0  0  2  0  0  0  0  0  0  0  0  0
   25.6450   21.6850   -5.2653 O   0  0  0  0  0  0  0  0  0  0  0  0
   22.6879   19.4756   -3.5246 C   0  0  2  0  0  0  0  0  0  0  0  0
   21.6861   20.5851   -3.6603 N   0  0  0  0  0  0  0  0  0  0  0  0
   31.7171   22.7774   -6.1278 C   0  0  0  0  0  0  0  0  0  0  0  0
   31.7100   23.8584   -7.0064 N   0  0  0  0  0  0  0  0  0  0  0  0
   28.8509   24.0304    1.1812 C   0  0  1  0  0  0  0  0  0  0  0  0
   28.4512   25.1204    1.9992 O   0  0  0  0  0  0  0  0  0  0  0  0
   29.2141   19.1683   -0.3688 C   0  0  2  0  0  0  0  0  0  0  0  0
   28.5085   18.6776    0.7660 N   0  0  0  0  0  0  0  0  0  0  0  0
   25.0561   21.4719   -2.7355 C   0  0  2  0  0  0  0  0  0  0  0  0
   23.9793   20.9402   -2.0626 O   0  0  0  0  0  0  0  0  0  0  0  0
   21.9811   18.0752   -3.5998 C   0  0  1  0  0  0  0  0  0  0  0  0
   23.0263   17.0488   -3.4750 O   0  0  0  0  0  0  0  0  0  0  0  0
   30.3575   24.1082    0.8415 C   0  0  2  0  0  0  0  0  0  0  0  0
   30.6685   25.3576    0.1011 O   0  0  0  0  0  0  0  0  0  0  0  0
   28.3875   20.3302   -1.0455 C   0  0  2  0  0  0  0  0  0  0  0  0
   25.5085   22.9333   -2.2382 C   0  0  2  0  0  0  0  0  0  0  0  0
   26.8532   22.8759   -2.3879 O   0  0  0  0  0  0  0  0  0  0  0  0
   20.8834   17.9643   -2.3972 C   0  0  2  0  0  0  0  0  0  0  0  0
   19.8381   19.0038   -2.5319 O   0  0  0  0  0  0  0  0  0  0  0  0
   30.7885   22.8922   -0.0447 C   0  0  2  0  0  0  0  0  0  0  0  0
   30.4479   21.7157    0.7326 O   0  0  0  0  0  0  0  0  0  0  0  0
   29.2120   20.8386   -2.2760 C   0  0  2  0  0  0  0  0  0  0  0  0
   28.4048   21.8739   -2.7824 O   0  0  0  0  0  0  0  0  0  0  0  0
   25.2481   23.3140   -0.7339 C   0  0  0  0  0  0  0  0  0  0  0  0
   23.8494   23.0466   -0.4000 O   0  0  0  0  0  0  0  0  0  0  0  0
   21.5984   18.1479   -0.9850 C   0  0  1  0  0  0  0  0  0  0  0  0
   22.2951   19.4922   -1.0142 O   0  0  0  0  0  0  0  0  0  0  0  0
   32.2345   23.0359   -0.2975 C   0  0  0  0  0  0  0  0  0  0  0  0
   32.9113   23.0669    0.8585 O   0  0  0  0  0  0  0  0  0  0  0  0
   29.4370   19.6716   -3.3295 C   0  0  1  0  0  0  0  0  0  0  0  0
   30.1796   20.1342   -4.4161 O   0  0  0  0  0  0  0  0  0  0  0  0
   26.4234   21.3818   -6.4774 C   0  0  0  0  0  0  0  0  0  0  0  0
   20.4549   18.0444    0.0803 C   0  0  0  0  0  0  0  0  0  0  0  0
   20.9466   18.0173    1.4279 N   0  0  0  0  0  0  0  0  0  0  0  0
   27.4710   22.4755   -6.6910 C   0  0  0  0  0  0  0  0  0  0  0  0
   28.7513   21.9424   -6.1865 N   0  0  0  0  0  0  0  0  0  0  0  0
   29.7772   21.4426   -7.2059 C   0  0  0  0  0  0  0  0  0  0  0  0
  1  2  1  6  0  0  0
  1  8  1  0  0  0  0
  1 33  1  0  0  0  0
  3  4  1  6  0  0  0
  3 10  1  0  0  0  0
  3 42  1  0  0  0  0
  5 11  1  0  0  0  0
  5 29  1  0  0  0  0
  5 35  1  1  0  0  0
  6 13  1  0  0  0  0
  6 39  1  0  0  0  0
  6 22  1  6  0  0  0
  7 15  1  0  0  0  0
  8  9  1  6  0  0  0
  8 17  1  0  0  0  0
 10 19  1  0  0  0  0
 11 12  1  6  0  0  0
 11 21  1  0  0  0  0
 12 44  1  0  0  0  0
 13 14  1  1  0  0  0
 13 23  1  0  0  0  0
 15 16  1  0  0  0  0
 17 18  1  1  0  0  0
 17 25  1  0  0  0  0
 19 20  1  1  0  0  0
 19 27  1  0  0  0  0
 21 22  1  6  0  0  0
 21 28  1  0  0  0  0
 23 24  1  1  0  0  0
 23 30  1  0  0  0  0
 25 26  1  6  0  0  0
 25 32  1  0  0  0  0
 27  2  1  1  0  0  0
 27 34  1  0  0  0  0
 28 29  1  0  0  0  0
 28 36  1  1  0  0  0
 30 31  1  6  0  0  0
 30 38  1  0  0  0  0
 32 33  1  0  0  0  0
 32 40  1  1  0  0  0
 34 35  1  6  0  0  0
 34 42  1  0  0  0  0
 36 37  1  0  0  0  0
 38 39  1  0  0  0  0
 38 45  1  1  0  0  0
 40 41  1  0  0  0  0
 42 43  1  6  0  0  0
 44 47  1  0  0  0  0
 45 46  1  0  0  0  0
 47 48  1  0  0  0  0
 48 49  1  0  0  0  0
 49  7  1  0  0  0  0
M  END
>  <CHROM.1>
178.73880297,-10.02923597,-71.09139654,-52.74562889,71.39831978,-90.92398755
16.24358763,22.35427312,-51.35815228,58.42941898,-64.77571630,172.48559424
99.97906069,102.49703005,155.72417291,-59.77801269,27.06591243,21.09637956
-2.06746088,0.07436762,0.36481871,1.36757590

>  <Name>
2bee_lig

>  <RI>
0

>  <Rbt.Current_Directory>
/home/itssahil/PROJECTS/Mol_Feturizer/New_Systems/rnas/2bee

>  <Rbt.Executable>
rbdock ($Id: //depot/dev/client3/rdock/2013.1/src/exe/rbdock.cxx#4 $)

>  <Rbt.Library>
libRbt.so (2013.1, Build901 2013/11/27)

>  <Rbt.Parameter_File>
/export/apps/rDock/src/rDock_2013.1_src/data/scripts/dock_solv.prm

>  <Rbt.Receptor>
prm/blind_docking_40.prm

>  <SCORE>
8.68523

>  <SCORE.INTER>
-3.78345

>  <SCORE.INTER.CONST>
1

>  <SCORE.INTER.POLAR>
-1.04551

>  <SCORE.INTER.ROT>
16

>  <SCORE.INTER.SOLV>
25.5586

>  <SCORE.INTER.VDW>
-21.8234

>  <SCORE.INTER.norm>
-0.0772133

>  <SCORE.INTRA>
-2.525

>  <SCORE.INTRA.DIHEDRAL>
-10.6611

>  <SCORE.INTRA.DIHEDRAL.0>
36.0842

>  <SCORE.INTRA.POLAR>
0

>  <SCORE.INTRA.POLAR.0>
0

>  <SCORE.INTRA.REPUL>
0.00404855

>  <SCORE.INTRA.REPUL.0>
0

>  <SCORE.INTRA.SOLV>
1.89895

>  <SCORE.INTRA.SOLV.lig_0>
-126.444

>  <SCORE.INTRA.VDW>
1.83583

>  <SCORE.INTRA.VDW.0>
-7.40469

>  <SCORE.INTRA.norm>
-0.0515307

>  <SCORE.RESTR>
14.9937

>  <SCORE.RESTR.CAVITY>
14.9937

>  <SCORE.RESTR.norm>
0.305993

>  <SCORE.SYSTEM>
0

>  <SCORE.SYSTEM.CONST>
0

>  <SCORE.SYSTEM.DIHEDRAL>
0

>  <SCORE.SYSTEM.SOLV>
0

>  <SCORE.SYSTEM.norm>
0

>  <SCORE.heavy>
49

>  <SCORE.norm>
0.177249

>  <RMSD>
24.184

$$$$
2bee_lig
 OpenBabel11021811423D
libRbt.so/2013.1/901 2013/11/27
 49 52  0  0  0  0  0  0  0  0999 V2000
   23.9205   18.8870   -2.2467 C   0  0  2  0  0  0  0  0  0  0  0  0
   23.7249   20.2418   -2.6320 O   0  0  0  0  0  0  0  0  0  0  0  0
   24.0544   19.9839   -7.0137 C   0  0  2  0  0  0  0  0  0  0  0  0
   24.1783   20.4212   -8.4309 N   0  0  0  0  0  0  0  0  0  0  0  0
   27.5235   20.0816   -3.8876 C   0  0  1  0  0  0  0  0  0  0  0  0
   30.3050   21.0414   -0.4597 C   0  0  1  0  0  0  0  0  0  0  0  0
   30.9263   23.7317   -8.4265 C   0  0  0  0  0  0  0  0  0  0  0  0
   23.4111   17.9157   -3.3807 C   0  0  2  0  0  0  0  0  0  0  0  0
   24.0546   18.2454   -4.6479 N   0  0  0  0  0  0  0  0  0  0  0  0
   22.7726   20.6731   -6.3581 C   0  0  0  0  0  0  0  0  0  0  0  0
   28.9547   20.4918   -3.7608 C   0  0  2  0  0  0  0  0  0  0  0  0
   29.7488   20.1852   -4.9631 O   0  0  0  0  0  0  0  0  0  0  0  0
   30.5973   20.4151    1.0077 C   0  0  2  0  0  0  0  0  0  0  0  0
   29.3722   19.6682    1.4485 N   0  0  0  0  0  0  0  0  0  0  0  0
   29.7091   23.0244   -8.2889 C   0  0  0  0  0  0  0  0  0  0  0  0
   28.7689   23.4372   -7.3474 N   0  0  0  0  0  0  0  0  0  0  0  0
   21.8264   18.0151   -3.4850 C   0  0  1  0  0  0  0  0  0  0  0  0
   21.3768   17.1344   -4.5045 O   0  0  0  0  0  0  0  0  0  0  0  0
   22.6088   20.2275   -4.7940 C   0  0  2  0  0  0  0  0  0  0  0  0
   21.4627   20.8302   -4.2028 N   0  0  0  0  0  0  0  0  0  0  0  0
   29.2143   19.8076   -2.4404 C   0  0  2  0  0  0  0  0  0  0  0  0
   29.9703   19.9069   -1.2943 O   0  0  0  0  0  0  0  0  0  0  0  0
   30.9168   21.5930    1.9959 C   0  0  1  0  0  0  0  0  0  0  0  0
   32.1314   22.2605    1.5051 O   0  0  0  0  0  0  0  0  0  0  0  0
   21.2060   17.6504   -2.1163 C   0  0  2  0  0  0  0  0  0  0  0  0
   19.7246   17.7457   -2.1653 O   0  0  0  0  0  0  0  0  0  0  0  0
   23.9002   20.6356   -3.9834 C   0  0  2  0  0  0  0  0  0  0  0  0
   28.3388   18.4632   -2.5574 C   0  0  2  0  0  0  0  0  0  0  0  0
   27.2250   18.9086   -3.1860 O   0  0  0  0  0  0  0  0  0  0  0  0
   29.6453   22.6153    2.0391 C   0  0  2  0  0  0  0  0  0  0  0  0
   28.4283   21.9317    2.5321 O   0  0  0  0  0  0  0  0  0  0  0  0
   21.7234   18.6168   -0.9991 C   0  0  2  0  0  0  0  0  0  0  0  0
   23.1674   18.4788   -1.0160 O   0  0  0  0  0  0  0  0  0  0  0  0
   25.1243   19.9384   -4.6674 C   0  0  2  0  0  0  0  0  0  0  0  0
   26.2026   20.3462   -3.8606 O   0  0  0  0  0  0  0  0  0  0  0  0
   27.8511   17.7822   -1.2255 C   0  0  0  0  0  0  0  0  0  0  0  0
   27.4360   18.8142   -0.2757 O   0  0  0  0  0  0  0  0  0  0  0  0
   29.3492   23.1825    0.5797 C   0  0  1  0  0  0  0  0  0  0  0  0
   29.1041   21.9871   -0.3172 O   0  0  0  0  0  0  0  0  0  0  0  0
   21.1025   18.1821    0.2663 C   0  0  0  0  0  0  0  0  0  0  0  0
   21.9530   17.4210    0.9682 O   0  0  0  0  0  0  0  0  0  0  0  0
   25.2785   20.4137   -6.1749 C   0  0  1  0  0  0  0  0  0  0  0  0
   26.3663   19.7796   -6.7757 O   0  0  0  0  0  0  0  0  0  0  0  0
   30.1507   21.1644   -5.9861 C   0  0  0  0  0  0  0  0  0  0  0  0
   28.1089   24.1252    0.7402 C   0  0  0  0  0  0  0  0  0  0  0  0
   27.5161   24.4883   -0.5150 N   0  0  0  0  0  0  0  0  0  0  0  0
   31.2108   22.0987   -5.4011 C   0  0  0  0  0  0  0  0  0  0  0  0
   32.0846   22.5036   -6.5194 N   0  0  0  0  0  0  0  0  0  0  0  0
   31.8667   23.8838   -7.1430 C   0  0  0  0  0  0  0  0  0  0  0  0
  1  2  1  6  0  0  0
  1  8  1  0  0  0  0
  1 33  1  0  0  0  0
  3  4  1  6  0  0  0
  3 10  1  0  0  0  0
  3 42  1  0  0  0  0
  5 11  1  0  0  0  0
  5 29  1  0  0  0  0
  5 35  1  1  0  0  0
  6 13  1  0  0  0  0
  6 39  1  0  0  0  0
  6 22  1  6  0  0  0
  7 15  1  0  0  0  0
  8  9  1  6  0  0  0
  8 17  1  0  0  0  0
 10 19  1  0  0  0  0
 11 12  1  6  0  0  0
 11 21  1  0  0  0  0
 12 44  1  0  0  0  0
 13 14  1  1  0  0  0
 13 23  1  0  0  0  0
 15 16  1  0  0  0  0
 17 18  1  6  0  0  0
 17 25  1  0  0  0  0
 19 20  1  1  0  0  0
 19 27  1  0  0  0  0
 21 22  1  6  0  0  0
 21 28  1  0  0  0  0
 23 24  1  6  0  0  0
 23 30  1  0  0  0  0
 25 26  1  6  0  0  0
 25 32  1  0  0  0  0
 27  2  1  1  0  0  0
 27 34  1  0  0  0  0
 28 29  1  0  0  0  0
 28 36  1  1  0  0  0
 30 31  1  6  0  0  0
 30 38  1  0  0  0  0
 32 33  1  0  0  0  0
 32 40  1  1  0  0  0
 34 35  1  1  0  0  0
 34 42  1  0  0  0  0
 36 37  1  0  0  0  0
 38 39  1  0  0  0  0
 38 45  1  1  0  0  0
 40 41  1  0  0  0  0
 42 43  1  6  0  0  0
 44 47  1  0  0  0  0
 45 46  1  0  0  0  0
 47 48  1  0  0  0  0
 48 49  1  0  0  0  0
 49  7  1  0  0  0  0
M  END
>  <CHROM.1>
-36.58685060,139.16799458,154.40244438,57.39247099,102.31839354,70.65224064
43.03026750,79.11234592,39.99197675,98.42006463,178.69655728,-166.75906962
149.10204906,100.95610200,-95.54372919,51.05952101,26.63850673,20.37668732
-2.91666598,3.12479185,-0.40600871,-1.45088919

>  <Name>
2bee_lig

>  <RI>
0

>  <Rbt.Current_Directory>
/home/itssahil/PROJECTS/Mol_Feturizer/New_Systems/rnas/2bee

>  <Rbt.Executable>
rbdock ($Id: //depot/dev/client3/rdock/2013.1/src/exe/rbdock.cxx#4 $)

>  <Rbt.Library>
libRbt.so (2013.1, Build901 2013/11/27)

>  <Rbt.Parameter_File>
/export/apps/rDock/src/rDock_2013.1_src/data/scripts/dock_solv.prm

>  <Rbt.Receptor>
prm/blind_docking_40.prm

>  <SCORE>
62.3186

>  <SCORE.INTER>
17.6535

>  <SCORE.INTER.CONST>
1

>  <SCORE.INTER.POLAR>
0

>  <SCORE.INTER.ROT>
16

>  <SCORE.INTER.SOLV>
23.5779

>  <SCORE.INTER.VDW>
-10.3569

>  <SCORE.INTER.norm>
0.360276

>  <SCORE.INTRA>
29.9761

>  <SCORE.INTRA.DIHEDRAL>
-3.00007

>  <SCORE.INTRA.DIHEDRAL.0>
36.0842

>  <SCORE.INTRA.POLAR>
0

>  <SCORE.INTRA.POLAR.0>
0

>  <SCORE.INTRA.REPUL>
0

>  <SCORE.INTRA.REPUL.0>
0

>  <SCORE.INTRA.SOLV>
12.6738

>  <SCORE.INTRA.SOLV.lig_0>
-126.444

>  <SCORE.INTRA.VDW>
25.1393

>  <SCORE.INTRA.VDW.0>
-7.40469

>  <SCORE.INTRA.norm>
0.611758

>  <SCORE.RESTR>
14.6889

>  <SCORE.RESTR.CAVITY>
14.6889

>  <SCORE.RESTR.norm>
0.299774

>  <SCORE.SYSTEM>
0

>  <SCORE.SYSTEM.CONST>
0

>  <SCORE.SYSTEM.DIHEDRAL>
0

>  <SCORE.SYSTEM.SOLV>
0

>  <SCORE.SYSTEM.norm>
0

>  <SCORE.heavy>
49

>  <SCORE.norm>
1.27181

>  <RMSD>
24.229

$$$$
2bee_lig
 OpenBabel11021811423D
libRbt.so/2013.1/901 2013/11/27
 49 52  0  0  0  0  0  0  0  0999 V2000
   25.1742   20.0714   -4.4912 C   0  0  2  0  0  0  0  0  0  0  0  0
   24.2092   20.7597   -3.7056 O   0  0  0  0  0  0  0  0  0  0  0  0
   21.4083   19.9394   -0.4107 C   0  0  2  0  0  0  0  0  0  0  0  0
   20.4808   19.1854    0.4759 N   0  0  0  0  0  0  0  0  0  0  0  0
   26.2553   20.0406   -1.9427 C   0  0  1  0  0  0  0  0  0  0  0  0
   30.0765   21.1758    0.2214 C   0  0  1  0  0  0  0  0  0  0  0  0
   30.8249   21.8896   -7.5303 C   0  0  0  0  0  0  0  0  0  0  0  0
   25.3673   20.7949   -5.8798 C   0  0  2  0  0  0  0  0  0  0  0  0
   25.7016   22.1994   -5.6697 N   0  0  0  0  0  0  0  0  0  0  0  0
   20.9045   19.8265   -1.9211 C   0  0  0  0  0  0  0  0  0  0  0  0
   27.3849   20.9986   -2.1403 C   0  0  2  0  0  0  0  0  0  0  0  0
   27.5064   21.4638   -3.5328 O   0  0  0  0  0  0  0  0  0  0  0  0
   28.8505   21.2919    1.2770 C   0  0  2  0  0  0  0  0  0  0  0  0
   27.6279   21.7317    0.5253 N   0  0  0  0  0  0  0  0  0  0  0  0
   31.6978   21.9795   -6.4209 C   0  0  0  0  0  0  0  0  0  0  0  0
   31.7515   23.1536   -5.6730 N   0  0  0  0  0  0  0  0  0  0  0  0
   24.0427   20.6312   -6.7463 C   0  0  1  0  0  0  0  0  0  0  0  0
   24.2275   21.2811   -7.9955 O   0  0  0  0  0  0  0  0  0  0  0  0
   21.9065   20.6323   -2.9302 C   0  0  2  0  0  0  0  0  0  0  0  0
   21.4604   20.5451   -4.2791 N   0  0  0  0  0  0  0  0  0  0  0  0
   28.4491   20.1478   -1.4903 C   0  0  2  0  0  0  0  0  0  0  0  0
   29.6247   20.2320   -0.7792 O   0  0  0  0  0  0  0  0  0  0  0  0
   29.2382   22.3461    2.3745 C   0  0  1  0  0  0  0  0  0  0  0  0
   30.4286   21.8368    3.0711 O   0  0  0  0  0  0  0  0  0  0  0  0
   23.7465   19.1255   -6.9370 C   0  0  2  0  0  0  0  0  0  0  0  0
   22.5061   18.9271   -7.7295 O   0  0  0  0  0  0  0  0  0  0  0  0
   23.3670   20.0451   -2.8156 C   0  0  2  0  0  0  0  0  0  0  0  0
   28.0270   18.6571   -1.9230 C   0  0  2  0  0  0  0  0  0  0  0  0
   26.6769   18.7111   -1.8323 O   0  0  0  0  0  0  0  0  0  0  0  0
   29.5306   23.7827    1.6573 C   0  0  2  0  0  0  0  0  0  0  0  0
   28.3263   24.2839    0.9574 O   0  0  0  0  0  0  0  0  0  0  0  0
   23.5630   18.4181   -5.5529 C   0  0  2  0  0  0  0  0  0  0  0  0
   24.8000   18.6607   -4.8350 O   0  0  0  0  0  0  0  0  0  0  0  0
   23.8104   20.1765   -1.3194 C   0  0  2  0  0  0  0  0  0  0  0  0
   25.1161   19.6523   -1.3370 O   0  0  0  0  0  0  0  0  0  0  0  0
   28.4834   17.4648   -1.0032 C   0  0  0  0  0  0  0  0  0  0  0  0
   29.8393   17.7180   -0.5165 O   0  0  0  0  0  0  0  0  0  0  0  0
   30.7073   23.6338    0.5932 C   0  0  1  0  0  0  0  0  0  0  0  0
   30.2780   22.5680   -0.3934 O   0  0  0  0  0  0  0  0  0  0  0  0
   23.3098   16.9915   -5.8297 C   0  0  0  0  0  0  0  0  0  0  0  0
   22.6887   16.4159   -4.7914 O   0  0  0  0  0  0  0  0  0  0  0  0
   22.8390   19.3582   -0.3659 C   0  0  1  0  0  0  0  0  0  0  0  0
   23.2389   19.4901    0.9642 O   0  0  0  0  0  0  0  0  0  0  0  0
   28.7481   21.9438   -4.1610 C   0  0  0  0  0  0  0  0  0  0  0  0
   30.8827   25.0559   -0.0394 C   0  0  0  0  0  0  0  0  0  0  0  0
   29.9028   25.3446   -1.0469 N   0  0  0  0  0  0  0  0  0  0  0  0
   29.3041   20.8531   -5.0776 C   0  0  0  0  0  0  0  0  0  0  0  0
   28.6949   21.0621   -6.4055 N   0  0  0  0  0  0  0  0  0  0  0  0
   29.2679   22.1657   -7.2972 C   0  0  0  0  0  0  0  0  0  0  0  0
  1  2  1  6  0  0  0
  1  8  1  0  0  0  0
  1 33  1  0  0  0  0
  3  4  1  1  0  0  0
  3 10  1  0  0  0  0
  3 42  1  0  0  0  0
  5 11  1  0  0  0  0
  5 29  1  0  0  0  0
  5 35  1  1  0  0  0
  6 13  1  0  0  0  0
  6 39  1  0  0  0  0
  6 22  1  6  0  0  0
  7 15  1  0  0  0  0
  8  9  1  1  0  0  0
  8 17  1  0  0  0  0
 10 19  1  0  0  0  0
 11 12  1  6  0  0  0
 11 21  1  0  0  0  0
 12 44  1  0  0  0  0
 13 14  1  6  0  0  0
 13 23  1  0  0  0  0
 15 16  1  0  0  0  0
 17 18  1  6  0  0  0
 17 25  1  0  0  0  0
 19 20  1  6  0  0  0
 19 27  1  0  0  0  0
 21 22  1  6  0  0  0
 21 28  1  0  0  0  0
 23 24  1  6  0  0  0
 23 30  1  0  0  0  0
 25 26  1  6  0  0  0
 25 32  1  0  0  0  0
 27  2  1  6  0  0  0
 27 34  1  0  0  0  0
 28 29  1  0  0  0  0
 28 36  1  1  0  0  0
 30 31  1  6  0  0  0
 30 38  1  0  0  0  0
 32 33  1  0  0  0  0
 32 40  1  6  0  0  0
 34 35  1  6  0  0  0
 34 42  1  0  0  0  0
 36 37  1  0  0  0  0
 38 39  1  0  0  0  0
 38 45  1  6  0  0  0
 40 41  1  0  0  0  0
 42 43  1  1  0  0  0
 44 47  1  0  0  0  0
 45 46  1  0  0  0  0
 47 48  1  0  0  0  0
 48 49  1  0  0  0  0
 49  7  1  0  0  0  0
M  END
>  <CHROM.1>
147.23751279,66.06855872,48.59004717,-56.26853826,-154.35296347,103.58547786
35.39222904,-137.97959723,-38.83864542,-158.16728833,63.69480645,-79.71452462
89.17127092,78.73085995,57.43419270,-66.26057739,26.58548076,20.68783745
-2.70950582,-2.61736730,0.39967103,1.51801575

>  <Name>
2bee_lig

>  <RI>
0

>  <Rbt.Current_Directory>
/home/itssahil/PROJECTS/Mol_Feturizer/New_Systems/rnas/2bee

>  <Rbt.Executable>
rbdock ($Id: //depot/dev/client3/rdock/2013.1/src/exe/rbdock.cxx#4 $)

>  <Rbt.Library>
libRbt.so (2013.1, Build901 2013/11/27)

>  <Rbt.Parameter_File>
/export/apps/rDock/src/rDock_2013.1_src/data/scripts/dock_solv.prm

>  <Rbt.Receptor>
prm/blind_docking_40.prm

>  <SCORE>
26.1711

>  <SCORE.INTER>
2.57568

>  <SCORE.INTER.CONST>
1

>  <SCORE.INTER.POLAR>
-0.105518

>  <SCORE.INTER.ROT>
16

>  <SCORE.INTER.SOLV>
22.51

>  <SCORE.INTER.VDW>
-19.7012

>  <SCORE.INTER.norm>
0.0525649

>  <SCORE.INTRA>
6.81664

>  <SCORE.INTRA.DIHEDRAL>
-4.38696

>  <SCORE.INTRA.DIHEDRAL.0>
36.0842

>  <SCORE.INTRA.POLAR>
0

>  <SCORE.INTRA.POLAR.0>
0

>  <SCORE.INTRA.REPUL>
0

>  <SCORE.INTRA.REPUL.0>
0

>  <SCORE.INTRA.SOLV>
11.0944

>  <SCORE.INTRA.SOLV.lig_0>
-126.444

>  <SCORE.INTRA.VDW>
3.46292

>  <SCORE.INTRA.VDW.0>
-7.40469

>  <SCORE.INTRA.norm>
0.139115

>  <SCORE.RESTR>
16.7787

>  <SCORE.RESTR.CAVITY>
16.7787

>  <SCORE.RESTR.norm>
0.342423

>  <SCORE.SYSTEM>
0

>  <SCORE.SYSTEM.CONST>
0

>  <SCORE.SYSTEM.DIHEDRAL>
0

>  <SCORE.SYSTEM.SOLV>
0

>  <SCORE.SYSTEM.norm>
0

>  <SCORE.heavy>
49

>  <SCORE.norm>
0.534103

>  <RMSD>
24.319

$$$$
2bee_lig
 OpenBabel11021811423D
libRbt.so/2013.1/901 2013/11/27
 49 52  0  0  0  0  0  0  0  0999 V2000
   24.9647   21.2060   -2.0257 C   0  0  2  0  0  0  0  0  0  0  0  0
   25.8036   20.2638   -1.3695 O   0  0  0  0  0  0  0  0  0  0  0  0
   29.9878   18.8974   -1.3717 C   0  0  2  0  0  0  0  0  0  0  0  0
   31.3970   18.7216   -1.8166 N   0  0  0  0  0  0  0  0  0  0  0  0
   28.4884   22.9353    0.1364 C   0  0  1  0  0  0  0  0  0  0  0  0
   27.3111   24.3227    4.2684 C   0  0  1  0  0  0  0  0  0  0  0  0
   30.3629   21.7881   -4.1643 C   0  0  0  0  0  0  0  0  0  0  0  0
   23.8356   20.4618   -2.8383 C   0  0  2  0  0  0  0  0  0  0  0  0
   23.0993   19.5594   -1.9596 N   0  0  0  0  0  0  0  0  0  0  0  0
   29.0030   18.4255   -2.5360 C   0  0  0  0  0  0  0  0  0  0  0  0
   28.6042   24.3792    0.5027 C   0  0  2  0  0  0  0  0  0  0  0  0
   29.7582   25.0414   -0.1298 O   0  0  0  0  0  0  0  0  0  0  0  0
   26.0290   25.3135    4.3434 C   0  0  2  0  0  0  0  0  0  0  0  0
   26.5337   26.7175    4.5083 N   0  0  0  0  0  0  0  0  0  0  0  0
   30.1865   21.2495   -5.4603 C   0  0  0  0  0  0  0  0  0  0  0  0
   30.5016   19.9150   -5.7064 N   0  0  0  0  0  0  0  0  0  0  0  0
   24.4939   19.6827   -4.0596 C   0  0  1  0  0  0  0  0  0  0  0  0
   23.4701   19.0201   -4.7875 O   0  0  0  0  0  0  0  0  0  0  0  0
   27.4421   18.6158   -2.0901 C   0  0  2  0  0  0  0  0  0  0  0  0
   26.5556   18.1890   -3.1189 N   0  0  0  0  0  0  0  0  0  0  0  0
   28.5190   24.1859    1.9974 C   0  0  2  0  0  0  0  0  0  0  0  0
   28.0959   24.8053    3.1517 O   0  0  0  0  0  0  0  0  0  0  0  0
   25.1464   24.8914    5.5718 C   0  0  1  0  0  0  0  0  0  0  0  0
   24.6817   23.5182    5.3271 O   0  0  0  0  0  0  0  0  0  0  0  0
   25.2526   20.6917   -4.9527 C   0  0  2  0  0  0  0  0  0  0  0  0
   25.8970   20.0020   -6.0995 O   0  0  0  0  0  0  0  0  0  0  0  0
   27.1647   20.1310   -1.7460 C   0  0  2  0  0  0  0  0  0  0  0  0
   29.3122   22.8050    2.2239 C   0  0  2  0  0  0  0  0  0  0  0  0
   28.9149   22.0754    1.1544 O   0  0  0  0  0  0  0  0  0  0  0  0
   26.0415   24.9892    6.9329 C   0  0  2  0  0  0  0  0  0  0  0  0
   26.5056   26.3752    7.1674 O   0  0  0  0  0  0  0  0  0  0  0  0
   26.3654   21.4275   -4.1342 C   0  0  2  0  0  0  0  0  0  0  0  0
   25.6686   22.0650   -3.0331 O   0  0  0  0  0  0  0  0  0  0  0  0
   28.1555   20.5429   -0.6052 C   0  0  2  0  0  0  0  0  0  0  0  0
   27.8089   21.8852   -0.3648 O   0  0  0  0  0  0  0  0  0  0  0  0
   28.9576   21.9507    3.4967 C   0  0  0  0  0  0  0  0  0  0  0  0
   27.7079   21.2272    3.2638 O   0  0  0  0  0  0  0  0  0  0  0  0
   27.3179   24.0423    6.8177 C   0  0  1  0  0  0  0  0  0  0  0  0
   28.0828   24.4802    5.5861 O   0  0  0  0  0  0  0  0  0  0  0  0
   27.0160   22.3801   -5.0534 C   0  0  0  0  0  0  0  0  0  0  0  0
   27.5676   21.7308   -6.0875 O   0  0  0  0  0  0  0  0  0  0  0  0
   29.6632   20.3788   -1.0766 C   0  0  1  0  0  0  0  0  0  0  0  0
   30.5356   20.7401   -0.0496 O   0  0  0  0  0  0  0  0  0  0  0  0
   30.9527   24.3531   -0.6458 C   0  0  0  0  0  0  0  0  0  0  0  0
   28.1039   24.2336    8.1589 C   0  0  0  0  0  0  0  0  0  0  0  0
   28.3683   25.6111    8.4607 N   0  0  0  0  0  0  0  0  0  0  0  0
   30.5840   23.5879   -1.9177 C   0  0  0  0  0  0  0  0  0  0  0  0
   31.7719   22.7998   -2.2993 N   0  0  0  0  0  0  0  0  0  0  0  0
   31.8333   22.2267   -3.7168 C   0  0  0  0  0  0  0  0  0  0  0  0
  1  2  1  6  0  0  0
  1  8  1  0  0  0  0
  1 33  1  0  0  0  0
  3  4  1  6  0  0  0
  3 10  1  0  0  0  0
  3 42  1  0  0  0  0
  5 11  1  0  0  0  0
  5 29  1  0  0  0  0
  5 35  1  1  0  0  0
  6 13  1  0  0  0  0
  6 39  1  0  0  0  0
  6 22  1  6  0  0  0
  7 15  1  0  0  0  0
  8  9  1  1  0  0  0
  8 17  1  0  0  0  0
 10 19  1  0  0  0  0
 11 12  1  1  0  0  0
 11 21  1  0  0  0  0
 12 44  1  0  0  0  0
 13 14  1  1  0  0  0
 13 23  1  0  0  0  0
 15 16  1  0  0  0  0
 17 18  1  6  0  0  0
 17 25  1  0  0  0  0
 19 20  1  6  0  0  0
 19 27  1  0  0  0  0
 21 22  1  1  0  0  0
 21 28  1  0  0  0  0
 23 24  1  6  0  0  0
 23 30  1  0  0  0  0
 25 26  1  6  0  0  0
 25 32  1  0  0  0  0
 27  2  1  1  0  0  0
 27 34  1  0  0  0  0
 28 29  1  0  0  0  0
 28 36  1  1  0  0  0
 30 31  1  6  0  0  0
 30 38  1  0  0  0  0
 32 33  1  0  0  0  0
 32 40  1  6  0  0  0
 34 35  1  6  0  0  0
 34 42  1  0  0  0  0
 36 37  1  0  0  0  0
 38 39  1  0  0  0  0
 38 45  1  1  0  0  0
 40 41  1  0  0  0  0
 42 43  1  1  0  0  0
 44 47  1  0  0  0  0
 45 46  1  0  0  0  0
 47 48  1  0  0  0  0
 48 49  1  0  0  0  0
 49  7  1  0  0  0  0
M  END
>  <CHROM.1>
114.08492349,175.97972243,-122.07977368,79.96760622,-21.69219693,71.35997151
133.00446200,-125.83346563,77.88176350,-60.56112061,-154.81744359,-52.31985645
-173.67821158,-164.12900066,-35.94235661,178.92295257,27.74767990,22.15003510
-0.04409400,1.54996263,-0.18648392,-1.99641934

>  <Name>
2bee_lig

>  <RI>
0

>  <Rbt.Current_Directory>
/home/itssahil/PROJECTS/Mol_Feturizer/New_Systems/rnas/2bee

>  <Rbt.Executable>
rbdock ($Id: //depot/dev/client3/rdock/2013.1/src/exe/rbdock.cxx#4 $)

>  <Rbt.Library>
libRbt.so (2013.1, Build901 2013/11/27)

>  <Rbt.Parameter_File>
/export/apps/rDock/src/rDock_2013.1_src/data/scripts/dock_solv.prm

>  <Rbt.Receptor>
prm/blind_docking_40.prm

>  <SCORE>
17.7788

>  <SCORE.INTER>
-11.4996

>  <SCORE.INTER.CONST>
1

>  <SCORE.INTER.POLAR>
-1.30865

>  <SCORE.INTER.ROT>
16

>  <SCORE.INTER.SOLV>
28.3793

>  <SCORE.INTER.VDW>
-27.0306

>  <SCORE.INTER.norm>
-0.234685

>  <SCORE.INTRA>
14.4031

>  <SCORE.INTRA.DIHEDRAL>
0.739791

>  <SCORE.INTRA.DIHEDRAL.0>
36.0842

>  <SCORE.INTRA.POLAR>
0

>  <SCORE.INTRA.POLAR.0>
0

>  <SCORE.INTRA.REPUL>
0

>  <SCORE.INTRA.REPUL.0>
0

>  <SCORE.INTRA.SOLV>
8.96616

>  <SCORE.INTRA.SOLV.lig_0>
-126.444

>  <SCORE.INTRA.VDW>
9.5501

>  <SCORE.INTRA.VDW.0>
-7.40469

>  <SCORE.INTRA.norm>
0.29394

>  <SCORE.RESTR>
14.8753

>  <SCORE.RESTR.CAVITY>
14.8753

>  <SCORE.RESTR.norm>
0.303577

>  <SCORE.SYSTEM>
0

>  <SCORE.SYSTEM.CONST>
0

>  <SCORE.SYSTEM.DIHEDRAL>
0

>  <SCORE.SYSTEM.SOLV>
0

>  <SCORE.SYSTEM.norm>
0

>  <SCORE.heavy>
49

>  <SCORE.norm>
0.362832

>  <RMSD>
24.344

$$$$
2bee_lig
 OpenBabel11021811423D
libRbt.so/2013.1/901 2013/11/27
 49 52  0  0  0  0  0  0  0  0999 V2000
   22.8544   20.1317   -2.7076 C   0  0  2  0  0  0  0  0  0  0  0  0
   23.9830   19.8973   -1.8749 O   0  0  0  0  0  0  0  0  0  0  0  0
   25.5693   23.9452   -1.1878 C   0  0  2  0  0  0  0  0  0  0  0  0
   26.5322   25.0247   -0.8381 N   0  0  0  0  0  0  0  0  0  0  0  0
   26.6256   20.7310   -4.2436 C   0  0  1  0  0  0  0  0  0  0  0  0
   30.6648   20.9534   -2.0755 C   0  0  1  0  0  0  0  0  0  0  0  0
   32.0186   24.5395   -7.1003 C   0  0  0  0  0  0  0  0  0  0  0  0
   21.5544   19.5235   -2.0526 C   0  0  2  0  0  0  0  0  0  0  0  0
   21.3832   20.0472   -0.7017 N   0  0  0  0  0  0  0  0  0  0  0  0
   25.4503   22.9263    0.0351 C   0  0  0  0  0  0  0  0  0  0  0  0
   28.0860   20.9073   -4.5058 C   0  0  2  0  0  0  0  0  0  0  0  0
   28.4682   20.5572   -5.8848 O   0  0  0  0  0  0  0  0  0  0  0  0
   30.1737   21.6516   -0.6962 C   0  0  2  0  0  0  0  0  0  0  0  0
   28.8413   22.2954   -0.9481 N   0  0  0  0  0  0  0  0  0  0  0  0
   31.2045   24.7300   -8.2412 C   0  0  0  0  0  0  0  0  0  0  0  0
   29.8601   24.3669   -8.2033 N   0  0  0  0  0  0  0  0  0  0  0  0
   21.6573   17.9356   -2.0568 C   0  0  1  0  0  0  0  0  0  0  0  0
   20.4813   17.3973   -1.4700 O   0  0  0  0  0  0  0  0  0  0  0  0
   24.4096   21.7157   -0.3157 C   0  0  2  0  0  0  0  0  0  0  0  0
   24.2897   20.8063    0.7728 N   0  0  0  0  0  0  0  0  0  0  0  0
   28.5722   20.1109   -3.3192 C   0  0  2  0  0  0  0  0  0  0  0  0
   29.6124   20.0215   -2.4220 O   0  0  0  0  0  0  0  0  0  0  0  0
   31.2400   22.7251   -0.2760 C   0  0  1  0  0  0  0  0  0  0  0  0
   32.5051   22.0160   -0.0344 O   0  0  0  0  0  0  0  0  0  0  0  0
   21.8319   17.4444   -3.5127 C   0  0  2  0  0  0  0  0  0  0  0  0
   21.9480   15.9645   -3.5608 O   0  0  0  0  0  0  0  0  0  0  0  0
   24.9017   20.9427   -1.6008 C   0  0  2  0  0  0  0  0  0  0  0  0
   27.4879   18.9272   -3.2160 C   0  0  2  0  0  0  0  0  0  0  0  0
   26.3360   19.5767   -3.5079 O   0  0  0  0  0  0  0  0  0  0  0  0
   31.3881   23.8283   -1.4695 C   0  0  2  0  0  0  0  0  0  0  0  0
   30.1082   24.5337   -1.7053 O   0  0  0  0  0  0  0  0  0  0  0  0
   23.1210   18.0590   -4.1532 C   0  0  2  0  0  0  0  0  0  0  0  0
   22.9425   19.4958   -4.0627 O   0  0  0  0  0  0  0  0  0  0  0  0
   25.0044   21.9845   -2.7655 C   0  0  2  0  0  0  0  0  0  0  0  0
   25.4223   21.1936   -3.8516 O   0  0  0  0  0  0  0  0  0  0  0  0
   27.2681   18.2482   -1.8137 C   0  0  0  0  0  0  0  0  0  0  0  0
   25.8358   18.0616   -1.5833 O   0  0  0  0  0  0  0  0  0  0  0  0
   31.8272   23.1134   -2.8242 C   0  0  1  0  0  0  0  0  0  0  0  0
   30.7791   22.0638   -3.1294 O   0  0  0  0  0  0  0  0  0  0  0  0
   23.1931   17.5581   -5.5387 C   0  0  0  0  0  0  0  0  0  0  0  0
   23.7887   18.4587   -6.3321 O   0  0  0  0  0  0  0  0  0  0  0  0
   26.0452   23.1306   -2.4113 C   0  0  1  0  0  0  0  0  0  0  0  0
   26.1213   24.0567   -3.4520 O   0  0  0  0  0  0  0  0  0  0  0  0
   29.2918   21.3923   -6.7743 C   0  0  0  0  0  0  0  0  0  0  0  0
   31.9160   24.2563   -3.8915 C   0  0  0  0  0  0  0  0  0  0  0  0
   33.2626   24.5382   -4.2985 N   0  0  0  0  0  0  0  0  0  0  0  0
   30.7665   21.2165   -6.4088 C   0  0  0  0  0  0  0  0  0  0  0  0
   31.5400   22.0503   -7.3492 N   0  0  0  0  0  0  0  0  0  0  0  0
   32.5313   23.0619   -6.7701 C   0  0  0  0  0  0  0  0  0  0  0  0
  1  2  1  1  0  0  0
  1  8  1  0  0  0  0
  1 33  1  0  0  0  0
  3  4  1  1  0  0  0
  3 10  1  0  0  0  0
  3 42  1  0  0  0  0
  5 11  1  0  0  0  0
  5 29  1  0  0  0  0
  5 35  1  1  0  0  0
  6 13  1  0  0  0  0
  6 39  1  0  0  0  0
  6 22  1  6  0  0  0
  7 15  1  0  0  0  0
  8  9  1  1  0  0  0
  8 17  1  0  0  0  0
 10 19  1  0  0  0  0
 11 12  1  6  0  0  0
 11 21  1  0  0  0  0
 12 44  1  0  0  0  0
 13 14  1  6  0  0  0
 13 23  1  0  0  0  0
 15 16  1  0  0  0  0
 17 18  1  6  0  0  0
 17 25  1  0  0  0  0
 19 20  1  1  0  0  0
 19 27  1  0  0  0  0
 21 22  1  6  0  0  0
 21 28  1  0  0  0  0
 23 24  1  6  0  0  0
 23 30  1  0  0  0  0
 25 26  1  1  0  0  0
 25 32  1  0  0  0  0
 27  2  1  6  0  0  0
 27 34  1  0  0  0  0
 28 29  1  0  0  0  0
 28 36  1  1  0  0  0
 30 31  1  6  0  0  0
 30 38  1  0  0  0  0
 32 33  1  0  0  0  0
 32 40  1  6  0  0  0
 34 35  1  6  0  0  0
 34 42  1  0  0  0  0
 36 37  1  0  0  0  0
 38 39  1  0  0  0  0
 38 45  1  6  0  0  0
 40 41  1  0  0  0  0
 42 43  1  6  0  0  0
 44 47  1  0  0  0  0
 45 46  1  0  0  0  0
 47 48  1  0  0  0  0
 48 49  1  0  0  0  0
 49  7  1  0  0  0  0
M  END
>  <CHROM.1>
-133.99612798,-44.61806554,99.93047592,76.79833641,131.14298320,79.84037011
15.79005483,89.20369407,136.90260796,149.28154267,-81.65995085,110.26830203
178.76386851,126.57320434,-113.49049112,-26.59375079,27.14203248,21.15484985
-3.20742395,3.09044593,0.51181202,1.28139876

>  <Name>
2bee_lig

>  <RI>
0

>  <Rbt.Current_Directory>
/home/itssahil/PROJECTS/Mol_Feturizer/New_Systems/rnas/2bee

>  <Rbt.Executable>
rbdock ($Id: //depot/dev/client3/rdock/2013.1/src/exe/rbdock.cxx#4 $)

>  <Rbt.Library>
libRbt.so (2013.1, Build901 2013/11/27)

>  <Rbt.Parameter_File>
/export/apps/rDock/src/rDock_2013.1_src/data/scripts/dock_solv.prm

>  <Rbt.Receptor>
prm/blind_docking_40.prm

>  <SCORE>
84.6297

>  <SCORE.INTER>
45.7745

>  <SCORE.INTER.CONST>
1

>  <SCORE.INTER.POLAR>
0

>  <SCORE.INTER.ROT>
16

>  <SCORE.INTER.SOLV>
21.8575

>  <SCORE.INTER.VDW>
8.96382

>  <SCORE.INTER.norm>
0.934173

>  <SCORE.INTRA>
11.9548

>  <SCORE.INTRA.DIHEDRAL>
12.5295

>  <SCORE.INTRA.DIHEDRAL.0>
36.0842

>  <SCORE.INTRA.POLAR>
0

>  <SCORE.INTRA.POLAR.0>
0

>  <SCORE.INTRA.REPUL>
0.137992

>  <SCORE.INTRA.REPUL.0>
0

>  <SCORE.INTRA.SOLV>
10.197

>  <SCORE.INTRA.SOLV.lig_0>
-126.444

>  <SCORE.INTRA.VDW>
-0.098354

>  <SCORE.INTRA.VDW.0>
-7.40469

>  <SCORE.INTRA.norm>
0.243976

>  <SCORE.RESTR>
26.9004

>  <SCORE.RESTR.CAVITY>
26.9004

>  <SCORE.RESTR.norm>
0.548988

>  <SCORE.SYSTEM>
0

>  <SCORE.SYSTEM.CONST>
0

>  <SCORE.SYSTEM.DIHEDRAL>
0

>  <SCORE.SYSTEM.SOLV>
0

>  <SCORE.SYSTEM.norm>
0

>  <SCORE.heavy>
49

>  <SCORE.norm>
1.72714

>  <RMSD>
24.471

$$$$
2bee_lig
 OpenBabel11021811423D
libRbt.so/2013.1/901 2013/11/27
 49 52  0  0  0  0  0  0  0  0999 V2000
   23.1999   18.5306   -0.9934 C   0  0  2  0  0  0  0  0  0  0  0  0
   22.6011   18.3067   -2.2636 O   0  0  0  0  0  0  0  0  0  0  0  0
   22.5829   20.1685   -6.2520 C   0  0  2  0  0  0  0  0  0  0  0  0
   22.5946   21.2294   -7.2957 N   0  0  0  0  0  0  0  0  0  0  0  0
   26.2525   19.4471   -3.6671 C   0  0  1  0  0  0  0  0  0  0  0  0
   29.1326   21.7656   -0.9282 C   0  0  1  0  0  0  0  0  0  0  0  0
   31.7768   19.3461   -3.3255 C   0  0  0  0  0  0  0  0  0  0  0  0
   22.0923   18.8288    0.0897 C   0  0  2  0  0  0  0  0  0  0  0  0
   21.1072   17.7527    0.1069 N   0  0  0  0  0  0  0  0  0  0  0  0
   21.3572   20.4163   -5.2600 C   0  0  0  0  0  0  0  0  0  0  0  0
   27.3402   20.4712   -3.6920 C   0  0  2  0  0  0  0  0  0  0  0  0
   28.0164   20.5592   -4.9978 O   0  0  0  0  0  0  0  0  0  0  0  0
   30.5698   21.6361   -0.1873 C   0  0  2  0  0  0  0  0  0  0  0  0
   30.4433   20.6084    0.8995 N   0  0  0  0  0  0  0  0  0  0  0  0
   30.6305   18.6882   -3.8295 C   0  0  0  0  0  0  0  0  0  0  0  0
   30.6120   17.2984   -3.9219 N   0  0  0  0  0  0  0  0  0  0  0  0
   21.4176   20.2358   -0.2220 C   0  0  1  0  0  0  0  0  0  0  0  0
   20.4258   20.4976    0.7603 O   0  0  0  0  0  0  0  0  0  0  0  0
   21.3176   19.2770   -4.0887 C   0  0  2  0  0  0  0  0  0  0  0  0
   20.2220   19.4842   -3.2038 N   0  0  0  0  0  0  0  0  0  0  0  0
   28.0592   19.9901   -2.4549 C   0  0  2  0  0  0  0  0  0  0  0  0
   28.8328   20.4321   -1.4056 O   0  0  0  0  0  0  0  0  0  0  0  0
   30.9471   23.0373    0.4128 C   0  0  1  0  0  0  0  0  0  0  0  0
   31.0661   23.9783   -0.7106 O   0  0  0  0  0  0  0  0  0  0  0  0
   22.5094   21.3309   -0.2211 C   0  0  2  0  0  0  0  0  0  0  0  0
   21.9234   22.6616   -0.5241 O   0  0  0  0  0  0  0  0  0  0  0  0
   22.6691   19.3001   -3.2738 C   0  0  2  0  0  0  0  0  0  0  0  0
   27.8884   18.3930   -2.5420 C   0  0  2  0  0  0  0  0  0  0  0  0
   26.6209   18.2719   -3.0034 O   0  0  0  0  0  0  0  0  0  0  0  0
   29.7870   23.4997    1.4635 C   0  0  2  0  0  0  0  0  0  0  0  0
   29.6748   22.5439    2.5883 O   0  0  0  0  0  0  0  0  0  0  0  0
   23.6050   21.0210   -1.2950 C   0  0  2  0  0  0  0  0  0  0  0  0
   24.1221   19.7119   -0.9437 O   0  0  0  0  0  0  0  0  0  0  0  0
   23.8351   19.0566   -4.2904 C   0  0  2  0  0  0  0  0  0  0  0  0
   24.9740   19.0734   -3.4641 O   0  0  0  0  0  0  0  0  0  0  0  0
   27.9504   17.5703   -1.2022 C   0  0  0  0  0  0  0  0  0  0  0  0
   27.2409   18.2991   -0.1510 O   0  0  0  0  0  0  0  0  0  0  0  0
   28.3777   23.5762    0.7238 C   0  0  1  0  0  0  0  0  0  0  0  0
   28.1145   22.2070    0.1326 O   0  0  0  0  0  0  0  0  0  0  0  0
   24.6099   22.0971   -1.2066 C   0  0  0  0  0  0  0  0  0  0  0  0
   25.2218   22.2647   -2.3868 O   0  0  0  0  0  0  0  0  0  0  0  0
   23.8697   20.1949   -5.3974 C   0  0  1  0  0  0  0  0  0  0  0  0
   24.9064   19.9624   -6.3015 O   0  0  0  0  0  0  0  0  0  0  0  0
   29.4078   20.9933   -5.2045 C   0  0  0  0  0  0  0  0  0  0  0  0
   27.3494   24.0046    1.8248 C   0  0  0  0  0  0  0  0  0  0  0  0
   27.8733   24.9902    2.7263 N   0  0  0  0  0  0  0  0  0  0  0  0
   29.7273   22.1381   -4.2422 C   0  0  0  0  0  0  0  0  0  0  0  0
   30.5336   21.5619   -3.1486 N   0  0  0  0  0  0  0  0  0  0  0  0
   31.8825   20.9313   -3.5009 C   0  0  0  0  0  0  0  0  0  0  0  0
  1  2  1  6  0  0  0
  1  8  1  0  0  0  0
  1 33  1  0  0  0  0
  3  4  1  6  0  0  0
  3 10  1  0  0  0  0
  3 42  1  0  0  0  0
  5 11  1  0  0  0  0
  5 29  1  0  0  0  0
  5 35  1  1  0  0  0
  6 13  1  0  0  0  0
  6 39  1  0  0  0  0
  6 22  1  1  0  0  0
  7 15  1  0  0  0  0
  8  9  1  6  0  0  0
  8 17  1  0  0  0  0
 10 19  1  0  0  0  0
 11 12  1  6  0  0  0
 11 21  1  0  0  0  0
 12 44  1  0  0  0  0
 13 14  1  1  0  0  0
 13 23  1  0  0  0  0
 15 16  1  0  0  0  0
 17 18  1  1  0  0  0
 17 25  1  0  0  0  0
 19 20  1  1  0  0  0
 19 27  1  0  0  0  0
 21 22  1  6  0  0  0
 21 28  1  0  0  0  0
 23 24  1  6  0  0  0
 23 30  1  0  0  0  0
 25 26  1  6  0  0  0
 25 32  1  0  0  0  0
 27  2  1  1  0  0  0
 27 34  1  0  0  0  0
 28 29  1  0  0  0  0
 28 36  1  1  0  0  0
 30 31  1  1  0  0  0
 30 38  1  0  0  0  0
 32 33  1  0  0  0  0
 32 40  1  1  0  0  0
 34 35  1  1  0  0  0
 34 42  1  0  0  0  0
 36 37  1  0  0  0  0
 38 39  1  0  0  0  0
 38 45  1  1  0  0  0
 40 41  1  0  0  0  0
 42 43  1  6  0  0  0
 44 47  1  0  0  0  0
 45 46  1  0  0  0  0
 47 48  1  0  0  0  0
 48 49  1  0  0  0  0
 49  7  1  0  0  0  0
M  END
>  <CHROM.1>
105.38051127,87.39234224,-153.70528550,168.03528687,-152.53273541,-38.12181331
11.88818817,-144.23783264,40.03263090,-152.83867935,-149.05075208,39.37489481
102.92132877,61.31839330,-109.54334676,44.28564662,26.27922431,20.56799050
-2.01222411,2.84780888,-0.11630688,-2.01315189

>  <Name>
2bee_lig

>  <RI>
0

>  <Rbt.Current_Directory>
/home/itssahil/PROJECTS/Mol_Feturizer/New_Systems/rnas/2bee

>  <Rbt.Executable>
rbdock ($Id: //depot/dev/client3/rdock/2013.1/src/exe/rbdock.cxx#4 $)

>  <Rbt.Library>
libRbt.so (2013.1, Build901 2013/11/27)

>  <Rbt.Parameter_File>
/export/apps/rDock/src/rDock_2013.1_src/data/scripts/dock_solv.prm

>  <Rbt.Receptor>
prm/blind_docking_40.prm

>  <SCORE>
34.4537

>  <SCORE.INTER>
3.91488

>  <SCORE.INTER.CONST>
1

>  <SCORE.INTER.POLAR>
-1.08823

>  <SCORE.INTER.ROT>
16

>  <SCORE.INTER.SOLV>
27.2681

>  <SCORE.INTER.VDW>
-17.1187

>  <SCORE.INTER.norm>
0.0798954

>  <SCORE.INTRA>
8.05969

>  <SCORE.INTRA.DIHEDRAL>
4.71835

>  <SCORE.INTRA.DIHEDRAL.0>
36.0842

>  <SCORE.INTRA.POLAR>
0

>  <SCORE.INTRA.POLAR.0>
0

>  <SCORE.INTRA.REPUL>
0

>  <SCORE.INTRA.REPUL.0>
0

>  <SCORE.INTRA.SOLV>
8.13143

>  <SCORE.INTRA.SOLV.lig_0>
-126.444

>  <SCORE.INTRA.VDW>
1.63481

>  <SCORE.INTRA.VDW.0>
-7.40469

>  <SCORE.INTRA.norm>
0.164484

>  <SCORE.RESTR>
22.4791

>  <SCORE.RESTR.CAVITY>
22.4791

>  <SCORE.RESTR.norm>
0.458758

>  <SCORE.SYSTEM>
0

>  <SCORE.SYSTEM.CONST>
0

>  <SCORE.SYSTEM.DIHEDRAL>
0

>  <SCORE.SYSTEM.SOLV>
0

>  <SCORE.SYSTEM.norm>
0

>  <SCORE.heavy>
49

>  <SCORE.norm>
0.703137

>  <RMSD>
24.532

$$$$
2bee_lig
 OpenBabel11021811423D
libRbt.so/2013.1/901 2013/11/27
 49 52  0  0  0  0  0  0  0  0999 V2000
   27.6115   18.5075   -2.2656 C   0  0  2  0  0  0  0  0  0  0  0  0
   26.4484   19.2666   -1.9607 O   0  0  0  0  0  0  0  0  0  0  0  0
   25.7796   21.3231   -5.7944 C   0  0  2  0  0  0  0  0  0  0  0  0
   25.0943   22.1186   -6.8491 N   0  0  0  0  0  0  0  0  0  0  0  0
   26.2955   21.9277   -0.9912 C   0  0  1  0  0  0  0  0  0  0  0  0
   27.2461   22.7517    3.5730 C   0  0  1  0  0  0  0  0  0  0  0  0
   20.9077   17.9410   -0.7221 C   0  0  0  0  0  0  0  0  0  0  0  0
   28.3978   18.1549   -0.9441 C   0  0  2  0  0  0  0  0  0  0  0  0
   27.5118   17.4836    0.0009 N   0  0  0  0  0  0  0  0  0  0  0  0
   24.8700   20.0718   -5.4011 C   0  0  0  0  0  0  0  0  0  0  0  0
   26.1939   21.4321    0.4148 C   0  0  2  0  0  0  0  0  0  0  0  0
   24.9095   20.7688    0.6985 O   0  0  0  0  0  0  0  0  0  0  0  0
   25.7743   22.1284    3.8492 C   0  0  2  0  0  0  0  0  0  0  0  0
   24.7582   23.2061    3.6061 N   0  0  0  0  0  0  0  0  0  0  0  0
   19.8977   17.2980   -1.4753 C   0  0  0  0  0  0  0  0  0  0  0  0
   19.7596   17.5778   -2.8329 N   0  0  0  0  0  0  0  0  0  0  0  0
   29.0120   19.4867   -0.3268 C   0  0  1  0  0  0  0  0  0  0  0  0
   29.7214   19.1590    0.8591 O   0  0  0  0  0  0  0  0  0  0  0  0
   25.5836   19.1784   -4.2331 C   0  0  2  0  0  0  0  0  0  0  0  0
   24.7837   18.0545   -3.8817 N   0  0  0  0  0  0  0  0  0  0  0  0
   26.5846   22.7278    1.0836 C   0  0  2  0  0  0  0  0  0  0  0  0
   27.2034   23.2285    2.2067 O   0  0  0  0  0  0  0  0  0  0  0  0
   25.7159   21.6342    5.3387 C   0  0  1  0  0  0  0  0  0  0  0  0
   26.7248   20.5754    5.4897 O   0  0  0  0  0  0  0  0  0  0  0  0
   29.9421   20.1458   -1.3717 C   0  0  2  0  0  0  0  0  0  0  0  0
   30.5261   21.4038   -0.8405 O   0  0  0  0  0  0  0  0  0  0  0  0
   25.8351   20.0704   -2.9556 C   0  0  2  0  0  0  0  0  0  0  0  0
   25.9124   23.8369    0.1319 C   0  0  2  0  0  0  0  0  0  0  0  0
   26.1184   23.3113   -1.0991 O   0  0  0  0  0  0  0  0  0  0  0  0
   26.0135   22.8939    6.3328 C   0  0  2  0  0  0  0  0  0  0  0  0
   24.9932   23.9540    6.1700 O   0  0  0  0  0  0  0  0  0  0  0  0
   29.1523   20.4852   -2.6797 C   0  0  2  0  0  0  0  0  0  0  0  0
   28.6057   19.2201   -3.1327 O   0  0  0  0  0  0  0  0  0  0  0  0
   26.7261   21.2808   -3.3955 C   0  0  2  0  0  0  0  0  0  0  0  0
   26.9051   21.9865   -2.1914 O   0  0  0  0  0  0  0  0  0  0  0  0
   26.5508   25.2749    0.1099 C   0  0  0  0  0  0  0  0  0  0  0  0
   26.5859   25.7700   -1.2660 O   0  0  0  0  0  0  0  0  0  0  0  0
   27.4445   23.5174    6.0127 C   0  0  1  0  0  0  0  0  0  0  0  0
   27.4346   23.9188    4.5524 O   0  0  0  0  0  0  0  0  0  0  0  0
   30.1172   21.0837   -3.6211 C   0  0  0  0  0  0  0  0  0  0  0  0
   29.5059   21.4280   -4.7627 O   0  0  0  0  0  0  0  0  0  0  0  0
   25.9953   22.1490   -4.5066 C   0  0  1  0  0  0  0  0  0  0  0  0
   26.8019   23.2184   -4.8964 O   0  0  0  0  0  0  0  0  0  0  0  0
   24.4615   19.4990    0.1037 C   0  0  0  0  0  0  0  0  0  0  0  0
   27.6093   24.7188    7.0039 C   0  0  0  0  0  0  0  0  0  0  0  0
   27.5384   24.3217    8.3808 N   0  0  0  0  0  0  0  0  0  0  0  0
   23.2924   19.7706   -0.8442 C   0  0  0  0  0  0  0  0  0  0  0  0
   22.1183   20.0619    0.0012 N   0  0  0  0  0  0  0  0  0  0  0  0
   20.7603   19.5061   -0.4327 C   0  0  0  0  0  0  0  0  0  0  0  0
  1  2  1  1  0  0  0
  1  8  1  0  0  0  0
  1 33  1  0  0  0  0
  3  4  1  6  0  0  0
  3 10  1  0  0  0  0
  3 42  1  0  0  0  0
  5 11  1  0  0  0  0
  5 29  1  0  0  0  0
  5 35  1  1  0  0  0
  6 13  1  0  0  0  0
  6 39  1  0  0  0  0
  6 22  1  6  0  0  0
  7 15  1  0  0  0  0
  8  9  1  1  0  0  0
  8 17  1  0  0  0  0
 10 19  1  0  0  0  0
 11 12  1  1  0  0  0
 11 21  1  0  0  0  0
 12 44  1  0  0  0  0
 13 14  1  1  0  0  0
 13 23  1  0  0  0  0
 15 16  1  0  0  0  0
 17 18  1  1  0  0  0
 17 25  1  0  0  0  0
 19 20  1  1  0  0  0
 19 27  1  0  0  0  0
 21 22  1  1  0  0  0
 21 28  1  0  0  0  0
 23 24  1  6  0  0  0
 23 30  1  0  0  0  0
 25 26  1  1  0  0  0
 25 32  1  0  0  0  0
 27  2  1  1  0  0  0
 27 34  1  0  0  0  0
 28 29  1  0  0  0  0
 28 36  1  6  0  0  0
 30 31  1  6  0  0  0
 30 38  1  0  0  0  0
 32 33  1  0  0  0  0
 32 40  1  6  0  0  0
 34 35  1  1  0  0  0
 34 42  1  0  0  0  0
 36 37  1  0  0  0  0
 38 39  1  0  0  0  0
 38 45  1  1  0  0  0
 40 41  1  0  0  0  0
 42 43  1  6  0  0  0
 44 47  1  0  0  0  0
 45 46  1  0  0  0  0
 47 48  1  0  0  0  0
 48 49  1  0  0  0  0
 49  7  1  0  0  0  0
M  END
>  <CHROM.1>
158.75143808,94.53797826,-36.38659178,69.54707130,66.68713631,-111.04711227
-33.83105774,51.90449261,138.51116349,-178.75522602,-14.10196081,59.54391305
-73.63660710,-140.73509369,51.07358110,-162.92000875,26.22399962,21.22906770
-0.19318540,-1.68187080,0.40722648,1.27467935

>  <Name>
2bee_lig

>  <RI>
0

>  <Rbt.Current_Directory>
/home/itssahil/PROJECTS/Mol_Feturizer/New_Systems/rnas/2bee

>  <Rbt.Executable>
rbdock ($Id: //depot/dev/client3/rdock/2013.1/src/exe/rbdock.cxx#4 $)

>  <Rbt.Library>
libRbt.so (2013.1, Build901 2013/11/27)

>  <Rbt.Parameter_File>
/export/apps/rDock/src/rDock_2013.1_src/data/scripts/dock_solv.prm

>  <Rbt.Receptor>
prm/blind_docking_40.prm

>  <SCORE>
41.0748

>  <SCORE.INTER>
6.22783

>  <SCORE.INTER.CONST>
1

>  <SCORE.INTER.POLAR>
0

>  <SCORE.INTER.ROT>
16

>  <SCORE.INTER.SOLV>
25.991

>  <SCORE.INTER.VDW>
-18.7784

>  <SCORE.INTER.norm>
0.127099

>  <SCORE.INTRA>
4.7948

>  <SCORE.INTRA.DIHEDRAL>
-2.698

>  <SCORE.INTRA.DIHEDRAL.0>
36.0842

>  <SCORE.INTRA.POLAR>
0

>  <SCORE.INTRA.POLAR.0>
0

>  <SCORE.INTRA.REPUL>
0

>  <SCORE.INTRA.REPUL.0>
0

>  <SCORE.INTRA.SOLV>
2.08629

>  <SCORE.INTRA.SOLV.lig_0>
-126.444

>  <SCORE.INTRA.VDW>
5.10065

>  <SCORE.INTRA.VDW.0>
-7.40469

>  <SCORE.INTRA.norm>
0.0978531

>  <SCORE.RESTR>
30.0521

>  <SCORE.RESTR.CAVITY>
30.0521

>  <SCORE.RESTR.norm>
0.613309

>  <SCORE.SYSTEM>
0

>  <SCORE.SYSTEM.CONST>
0

>  <SCORE.SYSTEM.DIHEDRAL>
0

>  <SCORE.SYSTEM.SOLV>
0

>  <SCORE.SYSTEM.norm>
0

>  <SCORE.heavy>
49

>  <SCORE.norm>
0.83826

>  <RMSD>
24.632

$$$$
2bee_lig
 OpenBabel11021811423D
libRbt.so/2013.1/901 2013/11/27
 49 52  0  0  0  0  0  0  0  0999 V2000
   25.0528   19.5991   -2.1466 C   0  0  2  0  0  0  0  0  0  0  0  0
   25.0737   20.9063   -2.7062 O   0  0  0  0  0  0  0  0  0  0  0  0
   28.9163   20.9100   -4.8528 C   0  0  2  0  0  0  0  0  0  0  0  0
   30.0977   21.4261   -5.5964 N   0  0  0  0  0  0  0  0  0  0  0  0
   27.9960   22.5593   -0.7609 C   0  0  1  0  0  0  0  0  0  0  0  0
   26.8153   23.6782    3.4243 C   0  0  1  0  0  0  0  0  0  0  0  0
   32.1128   23.8537   -4.7750 C   0  0  0  0  0  0  0  0  0  0  0  0
   24.3980   18.5805   -3.1578 C   0  0  2  0  0  0  0  0  0  0  0  0
   25.0869   18.6385   -4.4426 N   0  0  0  0  0  0  0  0  0  0  0  0
   27.5824   21.3306   -5.6220 C   0  0  0  0  0  0  0  0  0  0  0  0
   27.9238   23.8762   -0.0586 C   0  0  2  0  0  0  0  0  0  0  0  0
   28.7290   24.9214   -0.7139 O   0  0  0  0  0  0  0  0  0  0  0  0
   27.1259   24.7551    4.5968 C   0  0  2  0  0  0  0  0  0  0  0  0
   28.3103   24.2652    5.3781 N   0  0  0  0  0  0  0  0  0  0  0  0
   32.2139   23.0963   -5.9654 C   0  0  0  0  0  0  0  0  0  0  0  0
   33.4052   22.4433   -6.2737 N   0  0  0  0  0  0  0  0  0  0  0  0
   22.8489   18.9118   -3.3083 C   0  0  1  0  0  0  0  0  0  0  0  0
   22.2673   17.9874   -4.2162 O   0  0  0  0  0  0  0  0  0  0  0  0
   26.2590   20.7926   -4.8280 C   0  0  2  0  0  0  0  0  0  0  0  0
   25.0640   21.1551   -5.5113 N   0  0  0  0  0  0  0  0  0  0  0  0
   28.2626   23.3571    1.3178 C   0  0  2  0  0  0  0  0  0  0  0  0
   28.0389   23.5946    2.6551 O   0  0  0  0  0  0  0  0  0  0  0  0
   25.8588   24.8657    5.5179 C   0  0  1  0  0  0  0  0  0  0  0  0
   24.7535   25.3633    4.6858 O   0  0  0  0  0  0  0  0  0  0  0  0
   22.1771   18.8291   -1.9179 C   0  0  2  0  0  0  0  0  0  0  0  0
   20.7294   19.1474   -2.0106 O   0  0  0  0  0  0  0  0  0  0  0  0
   26.2343   21.3858   -3.3656 C   0  0  2  0  0  0  0  0  0  0  0  0
   29.3359   22.1997    1.0079 C   0  0  2  0  0  0  0  0  0  0  0  0
   28.8248   21.6370   -0.1130 O   0  0  0  0  0  0  0  0  0  0  0  0
   25.5238   23.3972    6.1462 C   0  0  2  0  0  0  0  0  0  0  0  0
   26.6443   22.9057    6.9795 O   0  0  0  0  0  0  0  0  0  0  0  0
   22.8391   19.8394   -0.9225 C   0  0  2  0  0  0  0  0  0  0  0  0
   24.2433   19.4767   -0.8904 O   0  0  0  0  0  0  0  0  0  0  0  0
   27.5614   20.9484   -2.6585 C   0  0  2  0  0  0  0  0  0  0  0  0
   27.4242   21.5039   -1.3730 O   0  0  0  0  0  0  0  0  0  0  0  0
   29.4888   21.0356    2.0554 C   0  0  0  0  0  0  0  0  0  0  0  0
   30.0344   21.5721    3.3019 O   0  0  0  0  0  0  0  0  0  0  0  0
   25.2668   22.3468    4.9758 C   0  0  1  0  0  0  0  0  0  0  0  0
   26.5087   22.3389    4.1091 O   0  0  0  0  0  0  0  0  0  0  0  0
   22.1559   19.6749    0.3744 C   0  0  0  0  0  0  0  0  0  0  0  0
   20.8686   20.0329    0.2745 O   0  0  0  0  0  0  0  0  0  0  0  0
   28.8289   21.5114   -3.4324 C   0  0  1  0  0  0  0  0  0  0  0  0
   30.0043   21.1080   -2.7984 O   0  0  0  0  0  0  0  0  0  0  0  0
   30.1761   25.1176   -0.5286 C   0  0  0  0  0  0  0  0  0  0  0  0
   24.9792   20.9838    5.6918 C   0  0  0  0  0  0  0  0  0  0  0  0
   26.1729   20.3203    6.1317 N   0  0  0  0  0  0  0  0  0  0  0  0
   30.9263   23.9175   -1.1081 C   0  0  0  0  0  0  0  0  0  0  0  0
   30.8382   24.0298   -2.5770 N   0  0  0  0  0  0  0  0  0  0  0  0
   31.7070   23.0990   -3.4257 C   0  0  0  0  0  0  0  0  0  0  0  0
  1  2  1  6  0  0  0
  1  8  1  0  0  0  0
  1 33  1  0  0  0  0
  3  4  1  6  0  0  0
  3 10  1  0  0  0  0
  3 42  1  0  0  0  0
  5 11  1  0  0  0  0
  5 29  1  0  0  0  0
  5 35  1  1  0  0  0
  6 13  1  0  0  0  0
  6 39  1  0  0  0  0
  6 22  1  6  0  0  0
  7 15  1  0  0  0  0
  8  9  1  6  0  0  0
  8 17  1  0  0  0  0
 10 19  1  0  0  0  0
 11 12  1  6  0  0  0
 11 21  1  0  0  0  0
 12 44  1  0  0  0  0
 13 14  1  1  0  0  0
 13 23  1  0  0  0  0
 15 16  1  0  0  0  0
 17 18  1  6  0  0  0
 17 25  1  0  0  0  0
 19 20  1  6  0  0  0
 19 27  1  0  0  0  0
 21 22  1  1  0  0  0
 21 28  1  0  0  0  0
 23 24  1  6  0  0  0
 23 30  1  0  0  0  0
 25 26  1  6  0  0  0
 25 32  1  0  0  0  0
 27  2  1  1  0  0  0
 27 34  1  0  0  0  0
 28 29  1  0  0  0  0
 28 36  1  1  0  0  0
 30 31  1  6  0  0  0
 30 38  1  0  0  0  0
 32 33  1  0  0  0  0
 32 40  1  1  0  0  0
 34 35  1  1  0  0  0
 34 42  1  0  0  0  0
 36 37  1  0  0  0  0
 38 39  1  0  0  0  0
 38 45  1  1  0  0  0
 40 41  1  0  0  0  0
 42 43  1  1  0  0  0
 44 47  1  0  0  0  0
 45 46  1  0  0  0  0
 47 48  1  0  0  0  0
 48 49  1  0  0  0  0
 49  7  1  0  0  0  0
M  END
>  <CHROM.1>
-95.98282378,121.48449718,-148.03768792,-85.90545323,-82.72331790,66.31036658
57.07650186,80.09932699,-66.29034214,-64.69351225,-105.95960148,-79.68748465
72.69629107,169.46287587,-148.06261940,-144.64086332,26.99422922,21.81572445
-0.44534568,1.31999398,-0.45122712,-1.85234919

>  <Name>
2bee_lig

>  <RI>
0

>  <Rbt.Current_Directory>
/home/itssahil/PROJECTS/Mol_Feturizer/New_Systems/rnas/2bee

>  <Rbt.Executable>
rbdock ($Id: //depot/dev/client3/rdock/2013.1/src/exe/rbdock.cxx#4 $)

>  <Rbt.Library>
libRbt.so (2013.1, Build901 2013/11/27)

>  <Rbt.Parameter_File>
/export/apps/rDock/src/rDock_2013.1_src/data/scripts/dock_solv.prm

>  <Rbt.Receptor>
prm/blind_docking_40.prm

>  <SCORE>
38.0843

>  <SCORE.INTER>
6.59544

>  <SCORE.INTER.CONST>
1

>  <SCORE.INTER.POLAR>
-0.493158

>  <SCORE.INTER.ROT>
16

>  <SCORE.INTER.SOLV>
26.6907

>  <SCORE.INTER.VDW>
-17.1228

>  <SCORE.INTER.norm>
0.134601

>  <SCORE.INTRA>
12.4179

>  <SCORE.INTRA.DIHEDRAL>
2.80089

>  <SCORE.INTRA.DIHEDRAL.0>
36.0842

>  <SCORE.INTRA.POLAR>
0

>  <SCORE.INTRA.POLAR.0>
0

>  <SCORE.INTRA.REPUL>
0

>  <SCORE.INTRA.REPUL.0>
0

>  <SCORE.INTRA.SOLV>
10.5035

>  <SCORE.INTRA.SOLV.lig_0>
-126.444

>  <SCORE.INTRA.VDW>
5.76573

>  <SCORE.INTRA.VDW.0>
-7.40469

>  <SCORE.INTRA.norm>
0.253428

>  <SCORE.RESTR>
19.0709

>  <SCORE.RESTR.CAVITY>
19.0709

>  <SCORE.RESTR.norm>
0.389203

>  <SCORE.SYSTEM>
0

>  <SCORE.SYSTEM.CONST>
0

>  <SCORE.SYSTEM.DIHEDRAL>
0

>  <SCORE.SYSTEM.SOLV>
0

>  <SCORE.SYSTEM.norm>
0

>  <SCORE.heavy>
49

>  <SCORE.norm>
0.777231

>  <RMSD>
24.880

$$$$
2bee_lig
 OpenBabel11021811423D
libRbt.so/2013.1/901 2013/11/27
 49 52  0  0  0  0  0  0  0  0999 V2000
   21.4160   19.6714   -1.3977 C   0  0  2  0  0  0  0  0  0  0  0  0
   22.2326   19.1456   -2.4363 O   0  0  0  0  0  0  0  0  0  0  0  0
   22.6159   20.3601   -6.6497 C   0  0  2  0  0  0  0  0  0  0  0  0
   22.8832   21.2209   -7.8340 N   0  0  0  0  0  0  0  0  0  0  0  0
   25.8420   19.7723   -3.5457 C   0  0  1  0  0  0  0  0  0  0  0  0
   29.4046   20.3483   -0.3653 C   0  0  1  0  0  0  0  0  0  0  0  0
   30.9936   22.0569   -6.9275 C   0  0  0  0  0  0  0  0  0  0  0  0
   22.2739   19.9154   -0.0964 C   0  0  2  0  0  0  0  0  0  0  0  0
   23.4194   20.7647   -0.4046 N   0  0  0  0  0  0  0  0  0  0  0  0
   21.5215   21.0610   -5.7229 C   0  0  0  0  0  0  0  0  0  0  0  0
   26.6321   20.9123   -2.9900 C   0  0  2  0  0  0  0  0  0  0  0  0
   27.3021   21.7089   -4.0326 O   0  0  0  0  0  0  0  0  0  0  0  0
   29.3680   20.8278    1.1838 C   0  0  2  0  0  0  0  0  0  0  0  0
   28.5697   22.0965    1.2607 N   0  0  0  0  0  0  0  0  0  0  0  0
   31.8471   23.1781   -7.0506 C   0  0  0  0  0  0  0  0  0  0  0  0
   32.1660   23.6727   -8.3133 N   0  0  0  0  0  0  0  0  0  0  0  0
   22.7285   18.5136    0.5038 C   0  0  1  0  0  0  0  0  0  0  0  0
   23.4958   18.7429    1.6768 O   0  0  0  0  0  0  0  0  0  0  0  0
   21.2094   20.1510   -4.4016 C   0  0  2  0  0  0  0  0  0  0  0  0
   20.2274   20.7637   -3.5730 N   0  0  0  0  0  0  0  0  0  0  0  0
   27.4128   20.1059   -1.9806 C   0  0  2  0  0  0  0  0  0  0  0  0
   28.0161   20.1987   -0.7467 O   0  0  0  0  0  0  0  0  0  0  0  0
   30.8436   21.0687    1.6641 C   0  0  1  0  0  0  0  0  0  0  0  0
   31.5503   19.7826    1.5733 O   0  0  0  0  0  0  0  0  0  0  0  0
   21.4732   17.6652    0.8129 C   0  0  2  0  0  0  0  0  0  0  0  0
   21.8538   16.3387    1.3621 O   0  0  0  0  0  0  0  0  0  0  0  0
   22.5372   19.9319   -3.5769 C   0  0  2  0  0  0  0  0  0  0  0  0
   27.6585   18.7145   -2.7493 C   0  0  2  0  0  0  0  0  0  0  0  0
   26.4785   18.5363   -3.3895 O   0  0  0  0  0  0  0  0  0  0  0  0
   31.5364   22.2031    0.7171 C   0  0  2  0  0  0  0  0  0  0  0  0
   30.8151   23.4921    0.8148 O   0  0  0  0  0  0  0  0  0  0  0  0
   20.6276   17.4352   -0.4840 C   0  0  2  0  0  0  0  0  0  0  0  0
   20.3027   18.7641   -0.9665 O   0  0  0  0  0  0  0  0  0  0  0  0
   23.5746   19.2473   -4.5296 C   0  0  2  0  0  0  0  0  0  0  0  0
   24.6959   19.0799   -3.6962 O   0  0  0  0  0  0  0  0  0  0  0  0
   27.8887   17.4226   -1.8811 C   0  0  0  0  0  0  0  0  0  0  0  0
   27.7502   17.7583   -0.4642 O   0  0  0  0  0  0  0  0  0  0  0  0
   31.5202   21.7300   -0.8045 C   0  0  1  0  0  0  0  0  0  0  0  0
   30.0738   21.4708   -1.1709 O   0  0  0  0  0  0  0  0  0  0  0  0
   19.4467   16.6431   -0.0921 C   0  0  0  0  0  0  0  0  0  0  0  0
   18.8257   17.2122    0.9499 O   0  0  0  0  0  0  0  0  0  0  0  0
   23.8831   20.1669   -5.7872 C   0  0  1  0  0  0  0  0  0  0  0  0
   24.8011   19.5428   -6.6322 O   0  0  0  0  0  0  0  0  0  0  0  0
   26.6233   22.3848   -5.1503 C   0  0  0  0  0  0  0  0  0  0  0  0
   32.1846   22.8956   -1.6127 C   0  0  0  0  0  0  0  0  0  0  0  0
   31.2573   23.5870   -2.4617 N   0  0  0  0  0  0  0  0  0  0  0  0
   27.6719   22.9660   -6.0999 C   0  0  0  0  0  0  0  0  0  0  0  0
   28.4795   21.8311   -6.5877 N   0  0  0  0  0  0  0  0  0  0  0  0
   29.5606   22.1110   -7.6337 C   0  0  0  0  0  0  0  0  0  0  0  0
  1  2  1  6  0  0  0
  1  8  1  0  0  0  0
  1 33  1  0  0  0  0
  3  4  1  6  0  0  0
  3 10  1  0  0  0  0
  3 42  1  0  0  0  0
  5 11  1  0  0  0  0
  5 29  1  0  0  0  0
  5 35  1  1  0  0  0
  6 13  1  0  0  0  0
  6 39  1  0  0  0  0
  6 22  1  6  0  0  0
  7 15  1  0  0  0  0
  8  9  1  6  0  0  0
  8 17  1  0  0  0  0
 10 19  1  0  0  0  0
 11 12  1  6  0  0  0
 11 21  1  0  0  0  0
 12 44  1  0  0  0  0
 13 14  1  6  0  0  0
 13 23  1  0  0  0  0
 15 16  1  0  0  0  0
 17 18  1  1  0  0  0
 17 25  1  0  0  0  0
 19 20  1  1  0  0  0
 19 27  1  0  0  0  0
 21 22  1  6  0  0  0
 21 28  1  0  0  0  0
 23 24  1  6  0  0  0
 23 30  1  0  0  0  0
 25 26  1  6  0  0  0
 25 32  1  0  0  0  0
 27  2  1  1  0  0  0
 27 34  1  0  0  0  0
 28 29  1  0  0  0  0
 28 36  1  1  0  0  0
 30 31  1  6  0  0  0
 30 38  1  0  0  0  0
 32 33  1  0  0  0  0
 32 40  1  1  0  0  0
 34 35  1  1  0  0  0
 34 42  1  0  0  0  0
 36 37  1  0  0  0  0
 38 39  1  0  0  0  0
 38 45  1  6  0  0  0
 40 41  1  0  0  0  0
 42 43  1  6  0  0  0
 44 47  1  0  0  0  0
 45 46  1  0  0  0  0
 47 48  1  0  0  0  0
 48 49  1  0  0  0  0
 49  7  1  0  0  0  0
M  END
>  <CHROM.1>
-110.63564806,81.22026111,163.66727553,-54.35506565,57.86967737,-173.45528417
-101.68538682,-67.52756332,3.30624918,51.47385909,-99.76786278,-111.42750059
60.18049883,176.21289348,105.09174930,-124.92072402,26.03004625,20.28399183
-2.45223155,2.88290512,0.30839416,1.83451877

>  <Name>
2bee_lig

>  <RI>
0

>  <Rbt.Current_Directory>
/home/itssahil/PROJECTS/Mol_Feturizer/New_Systems/rnas/2bee

>  <Rbt.Executable>
rbdock ($Id: //depot/dev/client3/rdock/2013.1/src/exe/rbdock.cxx#4 $)

>  <Rbt.Library>
libRbt.so (2013.1, Build901 2013/11/27)

>  <Rbt.Parameter_File>
/export/apps/rDock/src/rDock_2013.1_src/data/scripts/dock_solv.prm

>  <Rbt.Receptor>
prm/blind_docking_40.prm

>  <SCORE>
26.7028

>  <SCORE.INTER>
-1.86875

>  <SCORE.INTER.CONST>
1

>  <SCORE.INTER.POLAR>
0

>  <SCORE.INTER.ROT>
16

>  <SCORE.INTER.SOLV>
19.3297

>  <SCORE.INTER.VDW>
-21.9557

>  <SCORE.INTER.norm>
-0.0381377

>  <SCORE.INTRA>
5.22081

>  <SCORE.INTRA.DIHEDRAL>
0.380079

>  <SCORE.INTRA.DIHEDRAL.0>
36.0842

>  <SCORE.INTRA.POLAR>
0

>  <SCORE.INTRA.POLAR.0>
0

>  <SCORE.INTRA.REPUL>
0.264302

>  <SCORE.INTRA.REPUL.0>
0

>  <SCORE.INTRA.SOLV>
0.897319

>  <SCORE.INTRA.SOLV.lig_0>
-126.444

>  <SCORE.INTRA.VDW>
3.2606

>  <SCORE.INTRA.VDW.0>
-7.40469

>  <SCORE.INTRA.norm>
0.106547

>  <SCORE.RESTR>
23.3507

>  <SCORE.RESTR.CAVITY>
23.3507

>  <SCORE.RESTR.norm>
0.476545

>  <SCORE.SYSTEM>
0

>  <SCORE.SYSTEM.CONST>
0

>  <SCORE.SYSTEM.DIHEDRAL>
0

>  <SCORE.SYSTEM.SOLV>
0

>  <SCORE.SYSTEM.norm>
0

>  <SCORE.heavy>
49

>  <SCORE.norm>
0.544954

>  <RMSD>
24.980

$$$$
2bee_lig
 OpenBabel11021811423D
libRbt.so/2013.1/901 2013/11/27
 49 52  0  0  0  0  0  0  0  0999 V2000
   23.3266   21.0037   -2.7765 C   0  0  2  0  0  0  0  0  0  0  0  0
   24.6314   20.5578   -2.4291 O   0  0  0  0  0  0  0  0  0  0  0  0
   28.6476   20.7723   -4.2177 C   0  0  2  0  0  0  0  0  0  0  0  0
   29.8093   21.3109   -4.9761 N   0  0  0  0  0  0  0  0  0  0  0  0
   27.3557   22.3390   -0.0457 C   0  0  1  0  0  0  0  0  0  0  0  0
   26.1526   23.1874    4.3600 C   0  0  1  0  0  0  0  0  0  0  0  0
   31.1150   21.1704    1.4181 C   0  0  0  0  0  0  0  0  0  0  0  0
   22.3906   21.0017   -1.5065 C   0  0  2  0  0  0  0  0  0  0  0  0
   22.9956   21.7899   -0.4382 N   0  0  0  0  0  0  0  0  0  0  0  0
   27.3625   20.7505   -5.1642 C   0  0  0  0  0  0  0  0  0  0  0  0
   27.5175   23.2818    1.1022 C   0  0  2  0  0  0  0  0  0  0  0  0
   28.7924   24.0190    1.0646 O   0  0  0  0  0  0  0  0  0  0  0  0
   26.9451   24.5499    3.9772 C   0  0  2  0  0  0  0  0  0  0  0  0
   28.4164   24.2901    4.1222 N   0  0  0  0  0  0  0  0  0  0  0  0
   30.6123   19.8970    1.0623 C   0  0  0  0  0  0  0  0  0  0  0  0
   31.1200   19.2375   -0.0549 N   0  0  0  0  0  0  0  0  0  0  0  0
   22.1275   19.5003   -1.0499 C   0  0  1  0  0  0  0  0  0  0  0  0
   21.2808   19.5083    0.0903 O   0  0  0  0  0  0  0  0  0  0  0  0
   26.0591   20.1765   -4.3621 C   0  0  2  0  0  0  0  0  0  0  0  0
   24.9095   20.1446   -5.2009 N   0  0  0  0  0  0  0  0  0  0  0  0
   27.2080   22.2832    2.1912 C   0  0  2  0  0  0  0  0  0  0  0  0
   26.6691   22.1833    3.4540 O   0  0  0  0  0  0  0  0  0  0  0  0
   26.4814   25.6861    4.9570 C   0  0  1  0  0  0  0  0  0  0  0  0
   25.0410   25.8891    4.7434 O   0  0  0  0  0  0  0  0  0  0  0  0
   21.4832   18.7217   -2.2204 C   0  0  2  0  0  0  0  0  0  0  0  0
   21.2344   17.3075   -1.8410 O   0  0  0  0  0  0  0  0  0  0  0  0
   25.7689   21.0771   -3.0988 C   0  0  2  0  0  0  0  0  0  0  0  0
   27.8641   20.9268    1.6278 C   0  0  2  0  0  0  0  0  0  0  0  0
   27.5732   21.0028    0.3074 O   0  0  0  0  0  0  0  0  0  0  0  0
   26.8032   25.2339    6.4918 C   0  0  2  0  0  0  0  0  0  0  0  0
   28.2554   25.0302    6.6941 O   0  0  0  0  0  0  0  0  0  0  0  0
   22.4181   18.7360   -3.4756 C   0  0  2  0  0  0  0  0  0  0  0  0
   22.6241   20.1392   -3.7802 O   0  0  0  0  0  0  0  0  0  0  0  0
   27.0573   21.0673   -2.2086 C   0  0  2  0  0  0  0  0  0  0  0  0
   26.6835   21.8700   -1.1151 O   0  0  0  0  0  0  0  0  0  0  0  0
   27.2744   19.5576    2.1313 C   0  0  0  0  0  0  0  0  0  0  0  0
   27.8852   18.4604    1.3813 O   0  0  0  0  0  0  0  0  0  0  0  0
   26.0505   23.8707    6.8299 C   0  0  1  0  0  0  0  0  0  0  0  0
   26.5122   22.8475    5.8133 O   0  0  0  0  0  0  0  0  0  0  0  0
   21.7172   17.9960   -4.5418 C   0  0  0  0  0  0  0  0  0  0  0  0
   21.8808   16.6759   -4.3812 O   0  0  0  0  0  0  0  0  0  0  0  0
   28.2994   21.6594   -3.0016 C   0  0  1  0  0  0  0  0  0  0  0  0
   29.4422   21.6372   -2.2017 O   0  0  0  0  0  0  0  0  0  0  0  0
   29.5100   24.4098   -0.1599 C   0  0  0  0  0  0  0  0  0  0  0  0
   26.4471   23.5281    8.3059 C   0  0  0  0  0  0  0  0  0  0  0  0
   25.6781   22.4485    8.8554 N   0  0  0  0  0  0  0  0  0  0  0  0
   30.9477   24.7896    0.1975 C   0  0  0  0  0  0  0  0  0  0  0  0
   31.5354   23.6262    0.8898 N   0  0  0  0  0  0  0  0  0  0  0  0
   31.3559   22.2439    0.2586 C   0  0  0  0  0  0  0  0  0  0  0  0
  1  2  1  1  0  0  0
  1  8  1  0  0  0  0
  1 33  1  0  0  0  0
  3  4  1  6  0  0  0
  3 10  1  0  0  0  0
  3 42  1  0  0  0  0
  5 11  1  0  0  0  0
  5 29  1  0  0  0  0
  5 35  1  1  0  0  0
  6 13  1  0  0  0  0
  6 39  1  0  0  0  0
  6 22  1  6  0  0  0
  7 15  1  0  0  0  0
  8  9  1  1  0  0  0
  8 17  1  0  0  0  0
 10 19  1  0  0  0  0
 11 12  1  1  0  0  0
 11 21  1  0  0  0  0
 12 44  1  0  0  0  0
 13 14  1  1  0  0  0
 13 23  1  0  0  0  0
 15 16  1  0  0  0  0
 17 18  1  1  0  0  0
 17 25  1  0  0  0  0
 19 20  1  6  0  0  0
 19 27  1  0  0  0  0
 21 22  1  1  0  0  0
 21 28  1  0  0  0  0
 23 24  1  1  0  0  0
 23 30  1  0  0  0  0
 25 26  1  1  0  0  0
 25 32  1  0  0  0  0
 27  2  1  1  0  0  0
 27 34  1  0  0  0  0
 28 29  1  0  0  0  0
 28 36  1  1  0  0  0
 30 31  1  6  0  0  0
 30 38  1  0  0  0  0
 32 33  1  0  0  0  0
 32 40  1  6  0  0  0
 34 35  1  1  0  0  0
 34 42  1  0  0  0  0
 36 37  1  0  0  0  0
 38 39  1  0  0  0  0
 38 45  1  1  0  0  0
 40 41  1  0  0  0  0
 42 43  1  1  0  0  0
 44 47  1  0  0  0  0
 45 46  1  0  0  0  0
 47 48  1  0  0  0  0
 48 49  1  0  0  0  0
 49  7  1  0  0  0  0
M  END
>  <CHROM.1>
-147.28090368,161.66265215,-27.35440667,43.20508468,31.30368285,-164.01216884
-2.55100669,-89.44643830,172.86504224,-81.40287559,-174.51678834,169.98352441
56.38585845,47.81272800,-141.91441939,165.15024904,26.49943240,21.59826193
0.38138753,1.95962638,-0.28123812,-1.94129545

>  <Name>
2bee_lig

>  <RI>
0

>  <Rbt.Current_Directory>
/home/itssahil/PROJECTS/Mol_Feturizer/New_Systems/rnas/2bee

>  <Rbt.Executable>
rbdock ($Id: //depot/dev/client3/rdock/2013.1/src/exe/rbdock.cxx#4 $)

>  <Rbt.Library>
libRbt.so (2013.1, Build901 2013/11/27)

>  <Rbt.Parameter_File>
/export/apps/rDock/src/rDock_2013.1_src/data/scripts/dock_solv.prm

>  <Rbt.Receptor>
prm/blind_docking_40.prm

>  <SCORE>
18.2143

>  <SCORE.INTER>
-4.65507

>  <SCORE.INTER.CONST>
1

>  <SCORE.INTER.POLAR>
-2.06893

>  <SCORE.INTER.ROT>
16

>  <SCORE.INTER.SOLV>
23.3179

>  <SCORE.INTER.VDW>
-18.2463

>  <SCORE.INTER.norm>
-0.0950014

>  <SCORE.INTRA>
0.818883

>  <SCORE.INTRA.DIHEDRAL>
-10.0913

>  <SCORE.INTRA.DIHEDRAL.0>
36.0842

>  <SCORE.INTRA.POLAR>
0

>  <SCORE.INTRA.POLAR.0>
0

>  <SCORE.INTRA.REPUL>
0

>  <SCORE.INTRA.REPUL.0>
0

>  <SCORE.INTRA.SOLV>
4.15741

>  <SCORE.INTRA.SOLV.lig_0>
-126.444

>  <SCORE.INTRA.VDW>
3.78583

>  <SCORE.INTRA.VDW.0>
-7.40469

>  <SCORE.INTRA.norm>
0.0167119

>  <SCORE.RESTR>
22.0505

>  <SCORE.RESTR.CAVITY>
22.0505

>  <SCORE.RESTR.norm>
0.45001

>  <SCORE.SYSTEM>
0

>  <SCORE.SYSTEM.CONST>
0

>  <SCORE.SYSTEM.DIHEDRAL>
0

>  <SCORE.SYSTEM.SOLV>
0

>  <SCORE.SYSTEM.norm>
0

>  <SCORE.heavy>
49

>  <SCORE.norm>
0.37172

>  <RMSD>
25.155

$$$$
2bee_lig
 OpenBabel11021811423D
libRbt.so/2013.1/901 2013/11/27
 49 52  0  0  0  0  0  0  0  0999 V2000
   28.1586   23.3307    4.0667 C   0  0  2  0  0  0  0  0  0  0  0  0
   27.7493   23.3345    2.7048 O   0  0  0  0  0  0  0  0  0  0  0  0
   29.9177   23.8132   -1.0956 C   0  0  2  0  0  0  0  0  0  0  0  0
   30.9552   23.6136   -2.1438 N   0  0  0  0  0  0  0  0  0  0  0  0
   26.4184   20.8389   -0.0723 C   0  0  1  0  0  0  0  0  0  0  0  0
   27.2857   20.2730   -4.4362 C   0  0  1  0  0  0  0  0  0  0  0  0
   22.8646   19.4361   -6.1117 C   0  0  0  0  0  0  0  0  0  0  0  0
   27.3292   22.2670    4.8851 C   0  0  2  0  0  0  0  0  0  0  0  0
   27.4377   20.9558    4.2547 N   0  0  0  0  0  0  0  0  0  0  0  0
   30.6232   24.2323    0.2735 C   0  0  0  0  0  0  0  0  0  0  0  0
   25.3149   20.6922   -1.0690 C   0  0  2  0  0  0  0  0  0  0  0  0
   24.1125   20.0548   -0.5048 O   0  0  0  0  0  0  0  0  0  0  0  0
   27.4583   21.8739   -4.2403 C   0  0  2  0  0  0  0  0  0  0  0  0
   26.1310   22.5221   -4.5071 N   0  0  0  0  0  0  0  0  0  0  0  0
   24.2424   19.7510   -6.0549 C   0  0  0  0  0  0  0  0  0  0  0  0
   24.6587   21.0733   -6.1930 N   0  0  0  0  0  0  0  0  0  0  0  0
   25.8150   22.7454    4.9854 C   0  0  1  0  0  0  0  0  0  0  0  0
   25.0777   21.7846    5.7273 O   0  0  0  0  0  0  0  0  0  0  0  0
   29.5157   24.4482    1.4560 C   0  0  2  0  0  0  0  0  0  0  0  0
   30.1347   24.8312    2.6794 N   0  0  0  0  0  0  0  0  0  0  0  0
   26.1394   20.0245   -2.1429 C   0  0  2  0  0  0  0  0  0  0  0  0
   26.2420   19.8898   -3.5090 O   0  0  0  0  0  0  0  0  0  0  0  0
   28.5414   22.3847   -5.2561 C   0  0  1  0  0  0  0  0  0  0  0  0
   29.8078   21.7178   -4.9197 O   0  0  0  0  0  0  0  0  0  0  0  0
   25.7676   24.1339    5.6646 C   0  0  2  0  0  0  0  0  0  0  0  0
   24.3699   24.6260    5.7645 O   0  0  0  0  0  0  0  0  0  0  0  0
   28.6956   23.1169    1.6708 C   0  0  2  0  0  0  0  0  0  0  0  0
   27.1459   19.0990   -1.2956 C   0  0  2  0  0  0  0  0  0  0  0  0
   27.4386   19.8965   -0.2409 O   0  0  0  0  0  0  0  0  0  0  0  0
   28.0606   22.0298   -6.7748 C   0  0  2  0  0  0  0  0  0  0  0  0
   26.7840   22.7045   -7.1011 O   0  0  0  0  0  0  0  0  0  0  0  0
   26.5984   25.1784    4.8469 C   0  0  2  0  0  0  0  0  0  0  0  0
   27.9399   24.6302    4.7821 O   0  0  0  0  0  0  0  0  0  0  0  0
   28.0290   22.7495    0.3022 C   0  0  2  0  0  0  0  0  0  0  0  0
   27.3145   21.5774    0.6112 O   0  0  0  0  0  0  0  0  0  0  0  0
   28.5228   18.7131   -1.9522 C   0  0  0  0  0  0  0  0  0  0  0  0
   29.3557   19.9094   -2.0732 O   0  0  0  0  0  0  0  0  0  0  0  0
   27.8544   20.4574   -6.9303 C   0  0  1  0  0  0  0  0  0  0  0  0
   26.8396   20.0399   -5.8865 O   0  0  0  0  0  0  0  0  0  0  0  0
   26.5170   26.4579    5.5763 C   0  0  0  0  0  0  0  0  0  0  0  0
   27.5722   26.6016    6.3894 O   0  0  0  0  0  0  0  0  0  0  0  0
   29.1285   22.5140   -0.8194 C   0  0  1  0  0  0  0  0  0  0  0  0
   28.5225   22.1963   -2.0351 O   0  0  0  0  0  0  0  0  0  0  0  0
   23.0703   19.3695   -1.2866 C   0  0  0  0  0  0  0  0  0  0  0  0
   27.3778   20.2412   -8.4065 C   0  0  0  0  0  0  0  0  0  0  0  0
   28.3750   20.5988   -9.3742 N   0  0  0  0  0  0  0  0  0  0  0  0
   22.6748   20.2449   -2.4766 C   0  0  0  0  0  0  0  0  0  0  0  0
   22.4134   19.3330   -3.6071 N   0  0  0  0  0  0  0  0  0  0  0  0
   21.9204   19.9376   -4.9235 C   0  0  0  0  0  0  0  0  0  0  0  0
  1  2  1  6  0  0  0
  1  8  1  0  0  0  0
  1 33  1  0  0  0  0
  3  4  1  6  0  0  0
  3 10  1  0  0  0  0
  3 42  1  0  0  0  0
  5 11  1  0  0  0  0
  5 29  1  0  0  0  0
  5 35  1  6  0  0  0
  6 13  1  0  0  0  0
  6 39  1  0  0  0  0
  6 22  1  1  0  0  0
  7 15  1  0  0  0  0
  8  9  1  6  0  0  0
  8 17  1  0  0  0  0
 10 19  1  0  0  0  0
 11 12  1  1  0  0  0
 11 21  1  0  0  0  0
 12 44  1  0  0  0  0
 13 14  1  6  0  0  0
 13 23  1  0  0  0  0
 15 16  1  0  0  0  0
 17 18  1  1  0  0  0
 17 25  1  0  0  0  0
 19 20  1  1  0  0  0
 19 27  1  0  0  0  0
 21 22  1  6  0  0  0
 21 28  1  0  0  0  0
 23 24  1  1  0  0  0
 23 30  1  0  0  0  0
 25 26  1  6  0  0  0
 25 32  1  0  0  0  0
 27  2  1  1  0  0  0
 27 34  1  0  0  0  0
 28 29  1  0  0  0  0
 28 36  1  6  0  0  0
 30 31  1  1  0  0  0
 30 38  1  0  0  0  0
 32 33  1  0  0  0  0
 32 40  1  1  0  0  0
 34 35  1  1  0  0  0
 34 42  1  0  0  0  0
 36 37  1  0  0  0  0
 38 39  1  0  0  0  0
 38 45  1  6  0  0  0
 40 41  1  0  0  0  0
 42 43  1  6  0  0  0
 44 47  1  0  0  0  0
 45 46  1  0  0  0  0
 47 48  1  0  0  0  0
 48 49  1  0  0  0  0
 49  7  1  0  0  0  0
M  END
>  <CHROM.1>
-123.77666519,-31.21149126,-58.12966135,-68.07845973,-158.06037352,-47.18509503
116.98848611,-77.51172084,67.88529107,94.53008326,171.56852111,65.04465430
143.29888579,176.76086249,127.30230002,-60.06125648,26.93235771,21.88097274
-1.01552065,-1.48705120,-0.44258615,-1.85689722

>  <Name>
2bee_lig

>  <RI>
0

>  <Rbt.Current_Directory>
/home/itssahil/PROJECTS/Mol_Feturizer/New_Systems/rnas/2bee

>  <Rbt.Executable>
rbdock ($Id: //depot/dev/client3/rdock/2013.1/src/exe/rbdock.cxx#4 $)

>  <Rbt.Library>
libRbt.so (2013.1, Build901 2013/11/27)

>  <Rbt.Parameter_File>
/export/apps/rDock/src/rDock_2013.1_src/data/scripts/dock_solv.prm

>  <Rbt.Receptor>
prm/blind_docking_40.prm

>  <SCORE>
38.2217

>  <SCORE.INTER>
4.42339

>  <SCORE.INTER.CONST>
1

>  <SCORE.INTER.POLAR>
-1.01876

>  <SCORE.INTER.ROT>
16

>  <SCORE.INTER.SOLV>
27.8862

>  <SCORE.INTER.VDW>
-17.2173

>  <SCORE.INTER.norm>
0.0902732

>  <SCORE.INTRA>
6.54446

>  <SCORE.INTRA.DIHEDRAL>
-9.43969

>  <SCORE.INTRA.DIHEDRAL.0>
36.0842

>  <SCORE.INTRA.POLAR>
0

>  <SCORE.INTRA.POLAR.0>
0

>  <SCORE.INTRA.REPUL>
0

>  <SCORE.INTRA.REPUL.0>
0

>  <SCORE.INTRA.SOLV>
13.9336

>  <SCORE.INTRA.SOLV.lig_0>
-126.444

>  <SCORE.INTRA.VDW>
4.29751

>  <SCORE.INTRA.VDW.0>
-7.40469

>  <SCORE.INTRA.norm>
0.13356

>  <SCORE.RESTR>
27.2539

>  <SCORE.RESTR.CAVITY>
27.2539

>  <SCORE.RESTR.norm>
0.556201

>  <SCORE.SYSTEM>
0

>  <SCORE.SYSTEM.CONST>
0

>  <SCORE.SYSTEM.DIHEDRAL>
0

>  <SCORE.SYSTEM.SOLV>
0

>  <SCORE.SYSTEM.norm>
0

>  <SCORE.heavy>
49

>  <SCORE.norm>
0.780035

>  <RMSD>
25.234

$$$$
2bee_lig
 OpenBabel11021811423D
libRbt.so/2013.1/901 2013/11/27
 49 52  0  0  0  0  0  0  0  0999 V2000
   23.1505   18.0900   -2.5524 C   0  0  2  0  0  0  0  0  0  0  0  0
   24.2995   18.3429   -3.3511 O   0  0  0  0  0  0  0  0  0  0  0  0
   26.7283   21.7310   -4.7639 C   0  0  2  0  0  0  0  0  0  0  0  0
   27.1026   23.1281   -5.1141 N   0  0  0  0  0  0  0  0  0  0  0  0
   26.2992   20.2755   -0.4034 C   0  0  1  0  0  0  0  0  0  0  0  0
   25.7100   20.2420    4.3714 C   0  0  1  0  0  0  0  0  0  0  0  0
   28.2546   23.8003    2.5640 C   0  0  0  0  0  0  0  0  0  0  0  0
   22.1346   17.1672   -3.3305 C   0  0  2  0  0  0  0  0  0  0  0  0
   22.8027   15.9465   -3.7689 N   0  0  0  0  0  0  0  0  0  0  0  0
   25.4053   21.3231   -5.5583 C   0  0  0  0  0  0  0  0  0  0  0  0
   26.4576   21.1610    0.7896 C   0  0  2  0  0  0  0  0  0  0  0  0
   27.8098   21.7344    0.9038 O   0  0  0  0  0  0  0  0  0  0  0  0
   24.6294   19.4198    5.2587 C   0  0  2  0  0  0  0  0  0  0  0  0
   23.2735   20.0141    5.0106 N   0  0  0  0  0  0  0  0  0  0  0  0
   26.9411   24.2226    2.2522 C   0  0  0  0  0  0  0  0  0  0  0  0
   26.4271   24.0068    0.9755 N   0  0  0  0  0  0  0  0  0  0  0  0
   21.5253   17.9749   -4.5586 C   0  0  1  0  0  0  0  0  0  0  0  0
   20.6091   17.1383   -5.2498 O   0  0  0  0  0  0  0  0  0  0  0  0
   24.9530   19.7963   -5.1897 C   0  0  2  0  0  0  0  0  0  0  0  0
   23.7785   19.4200   -5.9004 N   0  0  0  0  0  0  0  0  0  0  0  0
   25.9209   20.1812    1.8048 C   0  0  2  0  0  0  0  0  0  0  0  0
   25.2491   20.1168    3.0047 O   0  0  0  0  0  0  0  0  0  0  0  0
   25.0264   19.5517    6.7723 C   0  0  1  0  0  0  0  0  0  0  0  0
   26.3519   18.9362    6.9335 O   0  0  0  0  0  0  0  0  0  0  0  0
   20.8292   19.2502   -4.0292 C   0  0  2  0  0  0  0  0  0  0  0  0
   20.2584   20.0438   -5.1474 O   0  0  0  0  0  0  0  0  0  0  0  0
   24.6952   19.6746   -3.6373 C   0  0  2  0  0  0  0  0  0  0  0  0
   26.4609   18.7686    1.2568 C   0  0  2  0  0  0  0  0  0  0  0  0
   26.3161   18.9140   -0.0819 O   0  0  0  0  0  0  0  0  0  0  0  0
   25.0428   21.1303    7.1859 C   0  0  2  0  0  0  0  0  0  0  0  0
   23.7042   21.7395    7.0171 O   0  0  0  0  0  0  0  0  0  0  0  0
   21.8454   20.1542   -3.2544 C   0  0  2  0  0  0  0  0  0  0  0  0
   22.3660   19.3158   -2.1912 O   0  0  0  0  0  0  0  0  0  0  0  0
   26.0178   20.0875   -2.9074 C   0  0  2  0  0  0  0  0  0  0  0  0
   25.6864   19.9215   -1.5500 O   0  0  0  0  0  0  0  0  0  0  0  0
   25.6616   17.4710    1.6483 C   0  0  0  0  0  0  0  0  0  0  0  0
   25.5842   17.3691    3.1054 O   0  0  0  0  0  0  0  0  0  0  0  0
   26.0778   21.9250    6.2713 C   0  0  1  0  0  0  0  0  0  0  0  0
   25.6560   21.7049    4.8335 O   0  0  0  0  0  0  0  0  0  0  0  0
   21.0937   21.3267   -2.7688 C   0  0  0  0  0  0  0  0  0  0  0  0
   20.5605   22.0001   -3.7971 O   0  0  0  0  0  0  0  0  0  0  0  0
   26.4158   21.5845   -3.2580 C   0  0  1  0  0  0  0  0  0  0  0  0
   27.5994   21.9375   -2.6093 O   0  0  0  0  0  0  0  0  0  0  0  0
   29.0491   20.9572    1.0690 C   0  0  0  0  0  0  0  0  0  0  0  0
   25.9921   23.4168    6.7406 C   0  0  0  0  0  0  0  0  0  0  0  0
   26.9900   24.2516    6.1358 N   0  0  0  0  0  0  0  0  0  0  0  0
   29.9496   21.6546    2.0897 C   0  0  0  0  0  0  0  0  0  0  0  0
   30.3843   22.9243    1.4759 N   0  0  0  0  0  0  0  0  0  0  0  0
   29.4224   24.1135    1.5185 C   0  0  0  0  0  0  0  0  0  0  0  0
  1  2  1  6  0  0  0
  1  8  1  0  0  0  0
  1 33  1  0  0  0  0
  3  4  1  1  0  0  0
  3 10  1  0  0  0  0
  3 42  1  0  0  0  0
  5 11  1  0  0  0  0
  5 29  1  0  0  0  0
  5 35  1  1  0  0  0
  6 13  1  0  0  0  0
  6 39  1  0  0  0  0
  6 22  1  6  0  0  0
  7 15  1  0  0  0  0
  8  9  1  6  0  0  0
  8 17  1  0  0  0  0
 10 19  1  0  0  0  0
 11 12  1  1  0  0  0
 11 21  1  0  0  0  0
 12 44  1  0  0  0  0
 13 14  1  1  0  0  0
 13 23  1  0  0  0  0
 15 16  1  0  0  0  0
 17 18  1  1  0  0  0
 17 25  1  0  0  0  0
 19 20  1  6  0  0  0
 19 27  1  0  0  0  0
 21 22  1  1  0  0  0
 21 28  1  0  0  0  0
 23 24  1  6  0  0  0
 23 30  1  0  0  0  0
 25 26  1  6  0  0  0
 25 32  1  0  0  0  0
 27  2  1  6  0  0  0
 27 34  1  0  0  0  0
 28 29  1  0  0  0  0
 28 36  1  1  0  0  0
 30 31  1  6  0  0  0
 30 38  1  0  0  0  0
 32 33  1  0  0  0  0
 32 40  1  1  0  0  0
 34 35  1  1  0  0  0
 34 42  1  0  0  0  0
 36 37  1  0  0  0  0
 38 39  1  0  0  0  0
 38 45  1  1  0  0  0
 40 41  1  0  0  0  0
 42 43  1  1  0  0  0
 44 47  1  0  0  0  0
 45 46  1  0  0  0  0
 47 48  1  0  0  0  0
 48 49  1  0  0  0  0
 49  7  1  0  0  0  0
M  END
>  <CHROM.1>
124.10752106,102.17856408,-154.63245432,45.28379602,-61.55378641,-138.69002035
-82.67041952,-131.10646657,-57.16094359,-59.87219919,-169.15352253,172.42805120
-67.35995245,80.92315075,13.89342395,-141.94488880,25.17618044,20.51145166
0.13254476,2.00303803,-0.62593396,-1.53082512

>  <Name>
2bee_lig

>  <RI>
0

>  <Rbt.Current_Directory>
/home/itssahil/PROJECTS/Mol_Feturizer/New_Systems/rnas/2bee

>  <Rbt.Executable>
rbdock ($Id: //depot/dev/client3/rdock/2013.1/src/exe/rbdock.cxx#4 $)

>  <Rbt.Library>
libRbt.so (2013.1, Build901 2013/11/27)

>  <Rbt.Parameter_File>
/export/apps/rDock/src/rDock_2013.1_src/data/scripts/dock_solv.prm

>  <Rbt.Receptor>
prm/blind_docking_80.prm

>  <SCORE>
23.7876

>  <SCORE.INTER>
3.88756

>  <SCORE.INTER.CONST>
1

>  <SCORE.INTER.POLAR>
-0.43335

>  <SCORE.INTER.ROT>
16

>  <SCORE.INTER.SOLV>
30.1012

>  <SCORE.INTER.VDW>
-20.2642

>  <SCORE.INTER.norm>
0.0793379

>  <SCORE.INTRA>
10.5543

>  <SCORE.INTRA.DIHEDRAL>
2.51347

>  <SCORE.INTRA.DIHEDRAL.0>
36.0842

>  <SCORE.INTRA.POLAR>
0

>  <SCORE.INTRA.POLAR.0>
0

>  <SCORE.INTRA.REPUL>
0

>  <SCORE.INTRA.REPUL.0>
0

>  <SCORE.INTRA.SOLV>
6.22688

>  <SCORE.INTRA.SOLV.lig_0>
-126.444

>  <SCORE.INTRA.VDW>
6.18416

>  <SCORE.INTRA.VDW.0>
-7.40469

>  <SCORE.INTRA.norm>
0.215395

>  <SCORE.RESTR>
9.34568

>  <SCORE.RESTR.CAVITY>
9.34568

>  <SCORE.RESTR.norm>
0.190728

>  <SCORE.SYSTEM>
0

>  <SCORE.SYSTEM.CONST>
0

>  <SCORE.SYSTEM.DIHEDRAL>
0

>  <SCORE.SYSTEM.SOLV>
0

>  <SCORE.SYSTEM.norm>
0

>  <SCORE.heavy>
49

>  <SCORE.norm>
0.485461

>  <RMSD>
25.296

$$$$
2bee_lig
 OpenBabel11021811423D
libRbt.so/2013.1/901 2013/11/27
 49 52  0  0  0  0  0  0  0  0999 V2000
   25.2663   21.8492   -1.2695 C   0  0  2  0  0  0  0  0  0  0  0  0
   26.3979   21.4360   -0.5139 O   0  0  0  0  0  0  0  0  0  0  0  0
   30.5735   22.7316   -0.0044 C   0  0  2  0  0  0  0  0  0  0  0  0
   31.7553   23.6336    0.0628 N   0  0  0  0  0  0  0  0  0  0  0  0
   27.1703   22.2615    3.2486 C   0  0  1  0  0  0  0  0  0  0  0  0
   28.1758   24.3970    7.4090 C   0  0  1  0  0  0  0  0  0  0  0  0
   23.2041   19.8623    4.1690 C   0  0  0  0  0  0  0  0  0  0  0  0
   24.0190   20.9460   -0.9267 C   0  0  2  0  0  0  0  0  0  0  0  0
   23.7763   20.9538    0.5119 N   0  0  0  0  0  0  0  0  0  0  0  0
   29.8649   22.8936   -1.4255 C   0  0  0  0  0  0  0  0  0  0  0  0
   27.7708   22.0808    4.6048 C   0  0  2  0  0  0  0  0  0  0  0  0
   27.2977   20.8625    5.2846 O   0  0  0  0  0  0  0  0  0  0  0  0
   26.8414   24.9838    8.1204 C   0  0  2  0  0  0  0  0  0  0  0  0
   26.5902   26.3603    7.5771 N   0  0  0  0  0  0  0  0  0  0  0  0
   23.5113   19.1677    2.9757 C   0  0  0  0  0  0  0  0  0  0  0  0
   24.7804   18.6216    2.7972 N   0  0  0  0  0  0  0  0  0  0  0  0
   24.2722   19.4721   -1.4702 C   0  0  1  0  0  0  0  0  0  0  0  0
   23.1429   18.6680   -1.1613 O   0  0  0  0  0  0  0  0  0  0  0  0
   28.5516   21.9267   -1.5341 C   0  0  2  0  0  0  0  0  0  0  0  0
   27.9176   22.0574   -2.8019 N   0  0  0  0  0  0  0  0  0  0  0  0
   27.4428   23.4597    5.1243 C   0  0  2  0  0  0  0  0  0  0  0  0
   27.8927   24.4313    5.9896 O   0  0  0  0  0  0  0  0  0  0  0  0
   27.0862   25.0335    9.6708 C   0  0  1  0  0  0  0  0  0  0  0  0
   27.3078   23.6527   10.1246 O   0  0  0  0  0  0  0  0  0  0  0  0
   24.5170   19.5312   -2.9959 C   0  0  2  0  0  0  0  0  0  0  0  0
   24.7738   18.1745   -3.5429 O   0  0  0  0  0  0  0  0  0  0  0  0
   27.5264   22.2862   -0.3891 C   0  0  2  0  0  0  0  0  0  0  0  0
   26.0103   23.7605    4.4572 C   0  0  2  0  0  0  0  0  0  0  0  0
   26.1607   23.2297    3.2204 O   0  0  0  0  0  0  0  0  0  0  0  0
   28.3783   25.9818    9.9787 C   0  0  2  0  0  0  0  0  0  0  0  0
   28.1445   27.3682    9.5153 O   0  0  0  0  0  0  0  0  0  0  0  0
   25.7526   20.4344   -3.3234 C   0  0  2  0  0  0  0  0  0  0  0  0
   25.4371   21.7310   -2.7545 O   0  0  0  0  0  0  0  0  0  0  0  0
   28.2701   22.1149    0.9784 C   0  0  2  0  0  0  0  0  0  0  0  0
   27.2702   22.4333    1.9159 O   0  0  0  0  0  0  0  0  0  0  0  0
   25.5965   25.2636    4.2447 C   0  0  0  0  0  0  0  0  0  0  0  0
   24.1535   25.3432    4.0194 O   0  0  0  0  0  0  0  0  0  0  0  0
   29.6660   25.4111    9.2335 C   0  0  1  0  0  0  0  0  0  0  0  0
   29.3301   25.3470    7.7581 O   0  0  0  0  0  0  0  0  0  0  0  0
   25.8951   20.4516   -4.7915 C   0  0  0  0  0  0  0  0  0  0  0  0
   26.8399   21.3272   -5.1602 O   0  0  0  0  0  0  0  0  0  0  0  0
   29.5217   23.0883    1.0695 C   0  0  1  0  0  0  0  0  0  0  0  0
   30.1806   22.9202    2.2876 O   0  0  0  0  0  0  0  0  0  0  0  0
   25.9115   20.3674    5.2699 C   0  0  0  0  0  0  0  0  0  0  0  0
   30.8261   26.4041    9.5816 C   0  0  0  0  0  0  0  0  0  0  0  0
   31.1984   26.3658   10.9667 N   0  0  0  0  0  0  0  0  0  0  0  0
   25.3720   20.3355    6.7006 C   0  0  0  0  0  0  0  0  0  0  0  0
   23.9168   20.1103    6.6016 N   0  0  0  0  0  0  0  0  0  0  0  0
   23.4104   19.1075    5.5628 C   0  0  0  0  0  0  0  0  0  0  0  0
  1  2  1  1  0  0  0
  1  8  1  0  0  0  0
  1 33  1  0  0  0  0
  3  4  1  6  0  0  0
  3 10  1  0  0  0  0
  3 42  1  0  0  0  0
  5 11  1  0  0  0  0
  5 29  1  0  0  0  0
  5 35  1  6  0  0  0
  6 13  1  0  0  0  0
  6 39  1  0  0  0  0
  6 22  1  6  0  0  0
  7 15  1  0  0  0  0
  8  9  1  1  0  0  0
  8 17  1  0  0  0  0
 10 19  1  0  0  0  0
 11 12  1  1  0  0  0
 11 21  1  0  0  0  0
 12 44  1  0  0  0  0
 13 14  1  6  0  0  0
 13 23  1  0  0  0  0
 15 16  1  0  0  0  0
 17 18  1  6  0  0  0
 17 25  1  0  0  0  0
 19 20  1  6  0  0  0
 19 27  1  0  0  0  0
 21 22  1  1  0  0  0
 21 28  1  0  0  0  0
 23 24  1  6  0  0  0
 23 30  1  0  0  0  0
 25 26  1  1  0  0  0
 25 32  1  0  0  0  0
 27  2  1  1  0  0  0
 27 34  1  0  0  0  0
 28 29  1  0  0  0  0
 28 36  1  6  0  0  0
 30 31  1  6  0  0  0
 30 38  1  0  0  0  0
 32 33  1  0  0  0  0
 32 40  1  6  0  0  0
 34 35  1  1  0  0  0
 34 42  1  0  0  0  0
 36 37  1  0  0  0  0
 38 39  1  0  0  0  0
 38 45  1  6  0  0  0
 40 41  1  0  0  0  0
 42 43  1  1  0  0  0
 44 47  1  0  0  0  0
 45 46  1  0  0  0  0
 47 48  1  0  0  0  0
 48 49  1  0  0  0  0
 49  7  1  0  0  0  0
M  END
>  <CHROM.1>
-163.92951043,24.59438864,-97.10328017,-55.84895180,-40.62824405,-118.83908667
-56.85272515,-92.63111693,-163.03238545,172.96552919,166.29193951,67.71420075
168.37378474,40.63439323,-87.26880879,143.42562288,26.81605027,22.46160021
2.99224710,-1.82317555,0.62988389,1.32476111

>  <Name>
2bee_lig

>  <RI>
0

>  <Rbt.Current_Directory>
/home/itssahil/PROJECTS/Mol_Feturizer/New_Systems/rnas/2bee

>  <Rbt.Executable>
rbdock ($Id: //depot/dev/client3/rdock/2013.1/src/exe/rbdock.cxx#4 $)

>  <Rbt.Library>
libRbt.so (2013.1, Build901 2013/11/27)

>  <Rbt.Parameter_File>
/export/apps/rDock/src/rDock_2013.1_src/data/scripts/dock_solv.prm

>  <Rbt.Receptor>
prm/blind_docking_80.prm

>  <SCORE>
11.1232

>  <SCORE.INTER>
-9.85291

>  <SCORE.INTER.CONST>
1

>  <SCORE.INTER.POLAR>
-1.54435

>  <SCORE.INTER.ROT>
16

>  <SCORE.INTER.SOLV>
22.4093

>  <SCORE.INTER.VDW>
-23.1572

>  <SCORE.INTER.norm>
-0.20108

>  <SCORE.INTRA>
7.53286

>  <SCORE.INTRA.DIHEDRAL>
-0.52352

>  <SCORE.INTRA.DIHEDRAL.0>
36.0842

>  <SCORE.INTRA.POLAR>
0

>  <SCORE.INTRA.POLAR.0>
0

>  <SCORE.INTRA.REPUL>
0.00652779

>  <SCORE.INTRA.REPUL.0>
0

>  <SCORE.INTRA.SOLV>
5.69021

>  <SCORE.INTRA.SOLV.lig_0>
-126.444

>  <SCORE.INTRA.VDW>
4.91688

>  <SCORE.INTRA.VDW.0>
-7.40469

>  <SCORE.INTRA.norm>
0.153732

>  <SCORE.RESTR>
13.4432

>  <SCORE.RESTR.CAVITY>
13.4432

>  <SCORE.RESTR.norm>
0.274351

>  <SCORE.SYSTEM>
0

>  <SCORE.SYSTEM.CONST>
0

>  <SCORE.SYSTEM.DIHEDRAL>
0

>  <SCORE.SYSTEM.SOLV>
0

>  <SCORE.SYSTEM.norm>
0

>  <SCORE.heavy>
49

>  <SCORE.norm>
0.227003

>  <RMSD>
25.726

$$$$
2bee_lig
 OpenBabel11021811423D
libRbt.so/2013.1/901 2013/11/27
 49 52  0  0  0  0  0  0  0  0999 V2000
   27.5629   24.5359    4.2560 C   0  0  2  0  0  0  0  0  0  0  0  0
   27.1221   24.0944    2.9782 O   0  0  0  0  0  0  0  0  0  0  0  0
   29.1928   23.5598   -0.8690 C   0  0  2  0  0  0  0  0  0  0  0  0
   30.2177   23.1111   -1.8504 N   0  0  0  0  0  0  0  0  0  0  0  0
   26.1905   20.6461    1.0401 C   0  0  1  0  0  0  0  0  0  0  0  0
   26.1711   18.8285   -3.1829 C   0  0  1  0  0  0  0  0  0  0  0  0
   23.7619   18.9221    5.7311 C   0  0  0  0  0  0  0  0  0  0  0  0
   26.9263   23.6464    5.3928 C   0  0  2  0  0  0  0  0  0  0  0  0
   27.2158   22.2378    5.1466 N   0  0  0  0  0  0  0  0  0  0  0  0
   29.9053   24.3750    0.3039 C   0  0  0  0  0  0  0  0  0  0  0  0
   25.3356   19.8607    0.0993 C   0  0  2  0  0  0  0  0  0  0  0  0
   24.2965   19.0750    0.7873 O   0  0  0  0  0  0  0  0  0  0  0  0
   25.9614   20.4233   -3.3920 C   0  0  2  0  0  0  0  0  0  0  0  0
   25.1355   20.9389   -2.2495 N   0  0  0  0  0  0  0  0  0  0  0  0
   25.0523   19.2791    6.1872 C   0  0  0  0  0  0  0  0  0  0  0  0
   25.2980   20.5771    6.6294 N   0  0  0  0  0  0  0  0  0  0  0  0
   25.3601   23.9197    5.4591 C   0  0  1  0  0  0  0  0  0  0  0  0
   24.7969   23.1186    6.4877 O   0  0  0  0  0  0  0  0  0  0  0  0
   28.8123   24.8749    1.4117 C   0  0  2  0  0  0  0  0  0  0  0  0
   29.4372   25.6111    2.4577 N   0  0  0  0  0  0  0  0  0  0  0  0
   26.4664   19.1994   -0.6510 C   0  0  2  0  0  0  0  0  0  0  0  0
   26.8045   18.6981   -1.8876 O   0  0  0  0  0  0  0  0  0  0  0  0
   25.2240   20.6521   -4.7595 C   0  0  1  0  0  0  0  0  0  0  0  0
   26.1000   20.1369   -5.8220 O   0  0  0  0  0  0  0  0  0  0  0  0
   25.1206   25.4239    5.7263 C   0  0  2  0  0  0  0  0  0  0  0  0
   23.6675   25.7263    5.7805 O   0  0  0  0  0  0  0  0  0  0  0  0
   28.0570   23.6289    2.0183 C   0  0  2  0  0  0  0  0  0  0  0  0
   27.5588   18.9456    0.5022 C   0  0  2  0  0  0  0  0  0  0  0  0
   27.4511   20.0742    1.2429 O   0  0  0  0  0  0  0  0  0  0  0  0
   23.7906   19.8724   -4.7318 C   0  0  2  0  0  0  0  0  0  0  0  0
   22.9186   20.3977   -3.6570 O   0  0  0  0  0  0  0  0  0  0  0  0
   25.7616   26.2958    4.5955 C   0  0  2  0  0  0  0  0  0  0  0  0
   27.1686   25.9425    4.5945 O   0  0  0  0  0  0  0  0  0  0  0  0
   27.3811   22.8648    0.8301 C   0  0  2  0  0  0  0  0  0  0  0  0
   26.7259   21.8020    1.4789 O   0  0  0  0  0  0  0  0  0  0  0  0
   29.0699   18.8399    0.0765 C   0  0  0  0  0  0  0  0  0  0  0  0
   29.9167   18.9210    1.2664 O   0  0  0  0  0  0  0  0  0  0  0  0
   24.0192   18.3156   -4.4804 C   0  0  1  0  0  0  0  0  0  0  0  0
   24.7771   18.1856   -3.1757 O   0  0  0  0  0  0  0  0  0  0  0  0
   25.5062   27.7062    4.9436 C   0  0  0  0  0  0  0  0  0  0  0  0
   25.9621   28.5167    3.9789 O   0  0  0  0  0  0  0  0  0  0  0  0
   28.4681   22.3632   -0.2135 C   0  0  1  0  0  0  0  0  0  0  0  0
   27.8535   21.6922   -1.2710 O   0  0  0  0  0  0  0  0  0  0  0  0
   24.5515   17.9740    1.7305 C   0  0  0  0  0  0  0  0  0  0  0  0
   22.5875   17.6809   -4.4531 C   0  0  0  0  0  0  0  0  0  0  0  0
   22.6109   16.2466   -4.4839 N   0  0  0  0  0  0  0  0  0  0  0  0
   25.2917   18.5183    2.9531 C   0  0  0  0  0  0  0  0  0  0  0  0
   24.5279   19.6891    3.4263 N   0  0  0  0  0  0  0  0  0  0  0  0
   23.2923   19.4423    4.2945 C   0  0  0  0  0  0  0  0  0  0  0  0
  1  2  1  6  0  0  0
  1  8  1  0  0  0  0
  1 33  1  0  0  0  0
  3  4  1  6  0  0  0
  3 10  1  0  0  0  0
  3 42  1  0  0  0  0
  5 11  1  0  0  0  0
  5 29  1  0  0  0  0
  5 35  1  6  0  0  0
  6 13  1  0  0  0  0
  6 39  1  0  0  0  0
  6 22  1  1  0  0  0
  7 15  1  0  0  0  0
  8  9  1  6  0  0  0
  8 17  1  0  0  0  0
 10 19  1  0  0  0  0
 11 12  1  1  0  0  0
 11 21  1  0  0  0  0
 12 44  1  0  0  0  0
 13 14  1  1  0  0  0
 13 23  1  0  0  0  0
 15 16  1  0  0  0  0
 17 18  1  1  0  0  0
 17 25  1  0  0  0  0
 19 20  1  1  0  0  0
 19 27  1  0  0  0  0
 21 22  1  1  0  0  0
 21 28  1  0  0  0  0
 23 24  1  6  0  0  0
 23 30  1  0  0  0  0
 25 26  1  6  0  0  0
 25 32  1  0  0  0  0
 27  2  1  1  0  0  0
 27 34  1  0  0  0  0
 28 29  1  0  0  0  0
 28 36  1  6  0  0  0
 30 31  1  1  0  0  0
 30 38  1  0  0  0  0
 32 33  1  0  0  0  0
 32 40  1  1  0  0  0
 34 35  1  1  0  0  0
 34 42  1  0  0  0  0
 36 37  1  0  0  0  0
 38 39  1  0  0  0  0
 38 45  1  1  0  0  0
 40 41  1  0  0  0  0
 42 43  1  6  0  0  0
 44 47  1  0  0  0  0
 45 46  1  0  0  0  0
 47 48  1  0  0  0  0
 48 49  1  0  0  0  0
 49  7  1  0  0  0  0
M  END
>  <CHROM.1>
-119.05334052,-47.78543009,51.78423669,74.54520562,-63.67092096,63.21007237
13.16717883,-75.26411244,167.01920440,-176.52206878,-164.62962704,169.09722034
50.69766895,81.09684765,70.70479303,25.75724479,26.15982871,21.53982258,1.08503735
-1.36887003,-0.96484030,-2.01193784

>  <Name>
2bee_lig

>  <RI>
0

>  <Rbt.Current_Directory>
/home/itssahil/PROJECTS/Mol_Feturizer/New_Systems/rnas/2bee

>  <Rbt.Executable>
rbdock ($Id: //depot/dev/client3/rdock/2013.1/src/exe/rbdock.cxx#4 $)

>  <Rbt.Library>
libRbt.so (2013.1, Build901 2013/11/27)

>  <Rbt.Parameter_File>
/export/apps/rDock/src/rDock_2013.1_src/data/scripts/dock_solv.prm

>  <Rbt.Receptor>
prm/blind_docking_80.prm

>  <SCORE>
17.0761

>  <SCORE.INTER>
4.32391

>  <SCORE.INTER.CONST>
1

>  <SCORE.INTER.POLAR>
-0.591036

>  <SCORE.INTER.ROT>
16

>  <SCORE.INTER.SOLV>
32.4596

>  <SCORE.INTER.VDW>
-20.2338

>  <SCORE.INTER.norm>
0.088243

>  <SCORE.INTRA>
1.56731

>  <SCORE.INTRA.DIHEDRAL>
-15.787

>  <SCORE.INTRA.DIHEDRAL.0>
36.0842

>  <SCORE.INTRA.POLAR>
0

>  <SCORE.INTRA.POLAR.0>
0

>  <SCORE.INTRA.REPUL>
0.159043

>  <SCORE.INTRA.REPUL.0>
0

>  <SCORE.INTRA.SOLV>
10.7176

>  <SCORE.INTRA.SOLV.lig_0>
-126.444

>  <SCORE.INTRA.VDW>
3.30677

>  <SCORE.INTRA.VDW.0>
-7.40469

>  <SCORE.INTRA.norm>
0.0319858

>  <SCORE.RESTR>
11.1849

>  <SCORE.RESTR.CAVITY>
11.1849

>  <SCORE.RESTR.norm>
0.228264

>  <SCORE.SYSTEM>
0

>  <SCORE.SYSTEM.CONST>
0

>  <SCORE.SYSTEM.DIHEDRAL>
0

>  <SCORE.SYSTEM.SOLV>
0

>  <SCORE.SYSTEM.norm>
0

>  <SCORE.heavy>
49

>  <SCORE.norm>
0.348493

>  <RMSD>
25.775

$$$$
2bee_lig
 OpenBabel11021811423D
libRbt.so/2013.1/901 2013/11/27
 49 52  0  0  0  0  0  0  0  0999 V2000
   26.2632   20.7773   -0.7410 C   0  0  2  0  0  0  0  0  0  0  0  0
   26.0008   22.0522   -0.1683 O   0  0  0  0  0  0  0  0  0  0  0  0
   30.0316   23.6269    0.6360 C   0  0  2  0  0  0  0  0  0  0  0  0
   31.1087   24.4626    1.2329 N   0  0  0  0  0  0  0  0  0  0  0  0
   27.1447   21.3363    3.2895 C   0  0  1  0  0  0  0  0  0  0  0  0
   27.8859   24.3548    6.9365 C   0  0  1  0  0  0  0  0  0  0  0  0
   23.8544   22.3435    8.4089 C   0  0  0  0  0  0  0  0  0  0  0  0
   26.5612   20.9203   -2.2836 C   0  0  2  0  0  0  0  0  0  0  0  0
   27.6446   21.8738   -2.4972 N   0  0  0  0  0  0  0  0  0  0  0  0
   28.9313   24.5756   -0.0250 C   0  0  0  0  0  0  0  0  0  0  0  0
   27.5036   21.4268    4.7371 C   0  0  2  0  0  0  0  0  0  0  0  0
   26.7057   20.5234    5.5842 O   0  0  0  0  0  0  0  0  0  0  0  0
   26.8068   25.5594    7.0610 C   0  0  2  0  0  0  0  0  0  0  0  0
   27.2476   26.6754    6.1593 N   0  0  0  0  0  0  0  0  0  0  0  0
   24.4901   23.3880    7.6980 C   0  0  0  0  0  0  0  0  0  0  0  0
   25.2051   23.1028    6.5368 N   0  0  0  0  0  0  0  0  0  0  0  0
   25.2320   21.3654   -3.0366 C   0  0  1  0  0  0  0  0  0  0  0  0
   25.5087   21.4869   -4.4243 O   0  0  0  0  0  0  0  0  0  0  0  0
   27.7217   23.6939   -0.6814 C   0  0  2  0  0  0  0  0  0  0  0  0
   26.7394   24.5312   -1.2817 N   0  0  0  0  0  0  0  0  0  0  0  0
   27.3918   22.9280    4.8496 C   0  0  2  0  0  0  0  0  0  0  0  0
   27.9045   24.0087    5.5309 O   0  0  0  0  0  0  0  0  0  0  0  0
   26.7648   26.0359    8.5568 C   0  0  1  0  0  0  0  0  0  0  0  0
   26.3121   24.8963    9.3679 O   0  0  0  0  0  0  0  0  0  0  0  0
   24.1276   20.3149   -2.7758 C   0  0  2  0  0  0  0  0  0  0  0  0
   22.8615   20.7005   -3.4498 O   0  0  0  0  0  0  0  0  0  0  0  0
   27.0478   22.7988    0.4303 C   0  0  2  0  0  0  0  0  0  0  0  0
   26.1552   23.2670    3.8782 C   0  0  2  0  0  0  0  0  0  0  0  0
   26.3646   22.4112    2.8497 O   0  0  0  0  0  0  0  0  0  0  0  0
   28.2534   26.5360    9.0013 C   0  0  2  0  0  0  0  0  0  0  0  0
   28.6994   27.6814    8.1764 O   0  0  0  0  0  0  0  0  0  0  0  0
   23.8453   20.1778   -1.2424 C   0  0  2  0  0  0  0  0  0  0  0  0
   25.1191   19.8120   -0.6526 O   0  0  0  0  0  0  0  0  0  0  0  0
   28.1668   21.8931    1.0467 C   0  0  2  0  0  0  0  0  0  0  0  0
   27.4600   21.1315    1.9956 O   0  0  0  0  0  0  0  0  0  0  0  0
   26.0861   24.7066    3.2470 C   0  0  0  0  0  0  0  0  0  0  0  0
   25.7337   25.6757    4.2843 O   0  0  0  0  0  0  0  0  0  0  0  0
   29.3036   25.3501    8.8279 C   0  0  1  0  0  0  0  0  0  0  0  0
   29.2447   24.9167    7.3780 O   0  0  0  0  0  0  0  0  0  0  0  0
   22.8036   19.1450   -1.0879 C   0  0  0  0  0  0  0  0  0  0  0  0
   22.9068   18.2268   -2.0582 O   0  0  0  0  0  0  0  0  0  0  0  0
   29.3119   22.7749    1.7051 C   0  0  1  0  0  0  0  0  0  0  0  0
   30.3065   21.9575    2.2426 O   0  0  0  0  0  0  0  0  0  0  0  0
   25.2349   20.4836    5.6307 C   0  0  0  0  0  0  0  0  0  0  0  0
   30.6854   25.9476    9.2600 C   0  0  0  0  0  0  0  0  0  0  0  0
   30.7302   26.3060   10.6486 N   0  0  0  0  0  0  0  0  0  0  0  0
   24.7892   19.8291    6.9391 C   0  0  0  0  0  0  0  0  0  0  0  0
   25.5496   20.4824    8.0221 N   0  0  0  0  0  0  0  0  0  0  0  0
   24.7677   21.2308    9.1037 C   0  0  0  0  0  0  0  0  0  0  0  0
  1  2  1  6  0  0  0
  1  8  1  0  0  0  0
  1 33  1  0  0  0  0
  3  4  1  1  0  0  0
  3 10  1  0  0  0  0
  3 42  1  0  0  0  0
  5 11  1  0  0  0  0
  5 29  1  0  0  0  0
  5 35  1  6  0  0  0
  6 13  1  0  0  0  0
  6 39  1  0  0  0  0
  6 22  1  6  0  0  0
  7 15  1  0  0  0  0
  8  9  1  1  0  0  0
  8 17  1  0  0  0  0
 10 19  1  0  0  0  0
 11 12  1  1  0  0  0
 11 21  1  0  0  0  0
 12 44  1  0  0  0  0
 13 14  1  6  0  0  0
 13 23  1  0  0  0  0
 15 16  1  0  0  0  0
 17 18  1  6  0  0  0
 17 25  1  0  0  0  0
 19 20  1  1  0  0  0
 19 27  1  0  0  0  0
 21 22  1  1  0  0  0
 21 28  1  0  0  0  0
 23 24  1  1  0  0  0
 23 30  1  0  0  0  0
 25 26  1  6  0  0  0
 25 32  1  0  0  0  0
 27  2  1  6  0  0  0
 27 34  1  0  0  0  0
 28 29  1  0  0  0  0
 28 36  1  6  0  0  0
 30 31  1  6  0  0  0
 30 38  1  0  0  0  0
 32 33  1  0  0  0  0
 32 40  1  6  0  0  0
 34 35  1  1  0  0  0
 34 42  1  0  0  0  0
 36 37  1  0  0  0  0
 38 39  1  0  0  0  0
 38 45  1  6  0  0  0
 40 41  1  0  0  0  0
 42 43  1  6  0  0  0
 44 47  1  0  0  0  0
 45 46  1  0  0  0  0
 47 48  1  0  0  0  0
 48 49  1  0  0  0  0
 49  7  1  0  0  0  0
M  END
>  <CHROM.1>
-93.53104645,-72.45115312,-106.10442760,65.96764736,-54.65519668,-159.36536427
-62.31716694,89.01786490,-71.86835721,31.37793512,-87.82330075,65.00707655
48.53036886,118.92656421,-56.61818205,-62.93320256,26.76529119,22.83687735
3.35434103,-1.85035775,0.71213544,1.39027570

>  <Name>
2bee_lig

>  <RI>
0

>  <Rbt.Current_Directory>
/home/itssahil/PROJECTS/Mol_Feturizer/New_Systems/rnas/2bee

>  <Rbt.Executable>
rbdock ($Id: //depot/dev/client3/rdock/2013.1/src/exe/rbdock.cxx#4 $)

>  <Rbt.Library>
libRbt.so (2013.1, Build901 2013/11/27)

>  <Rbt.Parameter_File>
/export/apps/rDock/src/rDock_2013.1_src/data/scripts/dock_solv.prm

>  <Rbt.Receptor>
prm/blind_docking_80.prm

>  <SCORE>
14.3014

>  <SCORE.INTER>
-4.82741

>  <SCORE.INTER.CONST>
1

>  <SCORE.INTER.POLAR>
-1.6924

>  <SCORE.INTER.ROT>
16

>  <SCORE.INTER.SOLV>
31.3486

>  <SCORE.INTER.VDW>
-22.2931

>  <SCORE.INTER.norm>
-0.0985186

>  <SCORE.INTRA>
12.2416

>  <SCORE.INTRA.DIHEDRAL>
-5.64572

>  <SCORE.INTRA.DIHEDRAL.0>
36.0842

>  <SCORE.INTRA.POLAR>
0

>  <SCORE.INTRA.POLAR.0>
0

>  <SCORE.INTRA.REPUL>
0

>  <SCORE.INTRA.REPUL.0>
0

>  <SCORE.INTRA.SOLV>
16.2422

>  <SCORE.INTRA.SOLV.lig_0>
-126.444

>  <SCORE.INTRA.VDW>
6.94336

>  <SCORE.INTRA.VDW.0>
-7.40469

>  <SCORE.INTRA.norm>
0.249828

>  <SCORE.RESTR>
6.88721

>  <SCORE.RESTR.CAVITY>
6.88721

>  <SCORE.RESTR.norm>
0.140555

>  <SCORE.SYSTEM>
0

>  <SCORE.SYSTEM.CONST>
0

>  <SCORE.SYSTEM.DIHEDRAL>
0

>  <SCORE.SYSTEM.SOLV>
0

>  <SCORE.SYSTEM.norm>
0

>  <SCORE.heavy>
49

>  <SCORE.norm>
0.291865

>  <RMSD>
26.251

$$$$
2bee_lig
 OpenBabel11021811423D
libRbt.so/2013.1/901 2013/11/27
 49 52  0  0  0  0  0  0  0  0999 V2000
   27.3029   19.4328    0.2583 C   0  0  2  0  0  0  0  0  0  0  0  0
   28.4276   20.2840    0.0773 O   0  0  0  0  0  0  0  0  0  0  0  0
   29.7493   24.2559    1.4379 C   0  0  2  0  0  0  0  0  0  0  0  0
   29.6843   25.6956    1.8091 N   0  0  0  0  0  0  0  0  0  0  0  0
   27.2134   21.3048    3.6996 C   0  0  1  0  0  0  0  0  0  0  0  0
   26.1254   24.6885    6.8552 C   0  0  1  0  0  0  0  0  0  0  0  0
   22.6038   22.9658   10.2965 C   0  0  0  0  0  0  0  0  0  0  0  0
   27.2067   18.3930   -0.9244 C   0  0  2  0  0  0  0  0  0  0  0  0
   28.4616   17.6592   -1.0484 N   0  0  0  0  0  0  0  0  0  0  0  0
   29.2165   24.0703   -0.0553 C   0  0  0  0  0  0  0  0  0  0  0  0
   26.8716   21.6192    5.1198 C   0  0  2  0  0  0  0  0  0  0  0  0
   25.9276   20.6547    5.7104 O   0  0  0  0  0  0  0  0  0  0  0  0
   27.0690   25.9665    7.1825 C   0  0  2  0  0  0  0  0  0  0  0  0
   28.5001   25.5429    7.0221 N   0  0  0  0  0  0  0  0  0  0  0  0
   23.5405   23.9531   10.6821 C   0  0  0  0  0  0  0  0  0  0  0  0
   23.1968   24.8970   11.6473 N   0  0  0  0  0  0  0  0  0  0  0  0
   26.8410   19.1598   -2.2699 C   0  0  1  0  0  0  0  0  0  0  0  0
   26.7520   18.2159   -3.3272 O   0  0  0  0  0  0  0  0  0  0  0  0
   29.2595   22.4972   -0.4968 C   0  0  2  0  0  0  0  0  0  0  0  0
   28.7946   22.3224   -1.8308 N   0  0  0  0  0  0  0  0  0  0  0  0
   26.4945   23.0630    4.8913 C   0  0  2  0  0  0  0  0  0  0  0  0
   26.4791   24.2936    5.5080 O   0  0  0  0  0  0  0  0  0  0  0  0
   26.7869   26.4276    8.6569 C   0  0  1  0  0  0  0  0  0  0  0  0
   25.3769   26.8382    8.7262 O   0  0  0  0  0  0  0  0  0  0  0  0
   25.5033   19.9110   -2.0757 C   0  0  2  0  0  0  0  0  0  0  0  0
   25.1315   20.6549   -3.3063 O   0  0  0  0  0  0  0  0  0  0  0  0
   28.3745   21.6401    0.4898 C   0  0  2  0  0  0  0  0  0  0  0  0
   25.7845   23.0219    3.4485 C   0  0  2  0  0  0  0  0  0  0  0  0
   26.5575   22.1320    2.7816 O   0  0  0  0  0  0  0  0  0  0  0  0
   27.1033   25.1912    9.6742 C   0  0  2  0  0  0  0  0  0  0  0  0
   28.5246   24.7851    9.5938 O   0  0  0  0  0  0  0  0  0  0  0  0
   25.6095   20.9347   -0.8965 C   0  0  2  0  0  0  0  0  0  0  0  0
   25.9828   20.1438    0.2609 O   0  0  0  0  0  0  0  0  0  0  0  0
   28.9351   21.8597    1.9354 C   0  0  2  0  0  0  0  0  0  0  0  0
   28.0990   21.0426    2.7185 O   0  0  0  0  0  0  0  0  0  0  0  0
   25.7857   24.3391    2.5879 C   0  0  0  0  0  0  0  0  0  0  0  0
   25.6323   25.4959    3.4697 O   0  0  0  0  0  0  0  0  0  0  0  0
   26.1974   23.9333    9.3051 C   0  0  1  0  0  0  0  0  0  0  0  0
   26.4904   23.5870    7.8602 O   0  0  0  0  0  0  0  0  0  0  0  0
   24.2905   21.5825   -0.7698 C   0  0  0  0  0  0  0  0  0  0  0  0
   24.4307   22.9080   -0.6336 O   0  0  0  0  0  0  0  0  0  0  0  0
   28.8514   23.3905    2.3500 C   0  0  1  0  0  0  0  0  0  0  0  0
   29.3615   23.5746    3.6354 O   0  0  0  0  0  0  0  0  0  0  0  0
   25.5109   20.6320    7.1220 C   0  0  0  0  0  0  0  0  0  0  0  0
   26.5996   22.8139   10.3241 C   0  0  0  0  0  0  0  0  0  0  0  0
   25.8647   21.5961   10.1360 N   0  0  0  0  0  0  0  0  0  0  0  0
   24.0698   21.1323    7.2307 C   0  0  0  0  0  0  0  0  0  0  0  0
   24.0210   22.0394    8.3938 N   0  0  0  0  0  0  0  0  0  0  0  0
   23.1448   21.6415    9.5835 C   0  0  0  0  0  0  0  0  0  0  0  0
  1  2  1  6  0  0  0
  1  8  1  0  0  0  0
  1 33  1  0  0  0  0
  3  4  1  1  0  0  0
  3 10  1  0  0  0  0
  3 42  1  0  0  0  0
  5 11  1  0  0  0  0
  5 29  1  0  0  0  0
  5 35  1  1  0  0  0
  6 13  1  0  0  0  0
  6 39  1  0  0  0  0
  6 22  1  6  0  0  0
  7 15  1  0  0  0  0
  8  9  1  6  0  0  0
  8 17  1  0  0  0  0
 10 19  1  0  0  0  0
 11 12  1  6  0  0  0
 11 21  1  0  0  0  0
 12 44  1  0  0  0  0
 13 14  1  1  0  0  0
 13 23  1  0  0  0  0
 15 16  1  0  0  0  0
 17 18  1  6  0  0  0
 17 25  1  0  0  0  0
 19 20  1  6  0  0  0
 19 27  1  0  0  0  0
 21 22  1  1  0  0  0
 21 28  1  0  0  0  0
 23 24  1  6  0  0  0
 23 30  1  0  0  0  0
 25 26  1  6  0  0  0
 25 32  1  0  0  0  0
 27  2  1  6  0  0  0
 27 34  1  0  0  0  0
 28 29  1  0  0  0  0
 28 36  1  6  0  0  0
 30 31  1  6  0  0  0
 30 38  1  0  0  0  0
 32 33  1  0  0  0  0
 32 40  1  1  0  0  0
 34 35  1  1  0  0  0
 34 42  1  0  0  0  0
 36 37  1  0  0  0  0
 38 39  1  0  0  0  0
 38 45  1  1  0  0  0
 40 41  1  0  0  0  0
 42 43  1  1  0  0  0
 44 47  1  0  0  0  0
 45 46  1  0  0  0  0
 47 48  1  0  0  0  0
 48 49  1  0  0  0  0
 49  7  1  0  0  0  0
M  END
>  <CHROM.1>
145.92813763,-79.82598850,148.41778489,-160.05925062,173.83379297,107.19099916
-41.59789153,-147.21939267,-36.40596403,-134.56194726,-116.15505115,179.70756507
-136.95536676,-116.27391327,-149.51919177,-52.75360900,26.59172158,22.53395827
3.96501026,1.34336084,-0.81958049,-2.05611641

>  <Name>
2bee_lig

>  <RI>
0

>  <Rbt.Current_Directory>
/home/itssahil/PROJECTS/Mol_Feturizer/New_Systems/rnas/2bee

>  <Rbt.Executable>
rbdock ($Id: //depot/dev/client3/rdock/2013.1/src/exe/rbdock.cxx#4 $)

>  <Rbt.Library>
libRbt.so (2013.1, Build901 2013/11/27)

>  <Rbt.Parameter_File>
/export/apps/rDock/src/rDock_2013.1_src/data/scripts/dock_solv.prm

>  <Rbt.Receptor>
prm/blind_docking_80.prm

>  <SCORE>
33.4843

>  <SCORE.INTER>
10.7707

>  <SCORE.INTER.CONST>
1

>  <SCORE.INTER.POLAR>
-1.40818

>  <SCORE.INTER.ROT>
16

>  <SCORE.INTER.SOLV>
38.7858

>  <SCORE.INTER.VDW>
-15.3209

>  <SCORE.INTER.norm>
0.219809

>  <SCORE.INTRA>
10.7221

>  <SCORE.INTRA.DIHEDRAL>
10.7341

>  <SCORE.INTRA.DIHEDRAL.0>
36.0842

>  <SCORE.INTRA.POLAR>
0

>  <SCORE.INTRA.POLAR.0>
0

>  <SCORE.INTRA.REPUL>
0

>  <SCORE.INTRA.REPUL.0>
0

>  <SCORE.INTRA.SOLV>
8.603

>  <SCORE.INTRA.SOLV.lig_0>
-126.444

>  <SCORE.INTRA.VDW>
1.05357

>  <SCORE.INTRA.VDW.0>
-7.40469

>  <SCORE.INTRA.norm>
0.218819

>  <SCORE.RESTR>
11.9915

>  <SCORE.RESTR.CAVITY>
11.9915

>  <SCORE.RESTR.norm>
0.244725

>  <SCORE.SYSTEM>
0

>  <SCORE.SYSTEM.CONST>
0

>  <SCORE.SYSTEM.DIHEDRAL>
0

>  <SCORE.SYSTEM.SOLV>
0

>  <SCORE.SYSTEM.norm>
0

>  <SCORE.heavy>
49

>  <SCORE.norm>
0.683353

>  <RMSD>
26.339

$$$$
2bee_lig
 OpenBabel11021811423D
libRbt.so/2013.1/901 2013/11/27
 49 52  0  0  0  0  0  0  0  0999 V2000
   25.9377   20.3852   -0.1024 C   0  0  2  0  0  0  0  0  0  0  0  0
   25.6800   21.7766    0.0379 O   0  0  0  0  0  0  0  0  0  0  0  0
   29.5941   23.5350    1.0190 C   0  0  2  0  0  0  0  0  0  0  0  0
   30.5967   24.4777    1.5855 N   0  0  0  0  0  0  0  0  0  0  0  0
   26.6451   21.5280    3.7761 C   0  0  1  0  0  0  0  0  0  0  0  0
   27.5510   24.8341    7.1544 C   0  0  1  0  0  0  0  0  0  0  0  0
   24.0270   21.2179    7.8677 C   0  0  0  0  0  0  0  0  0  0  0  0
   26.9781   20.1347   -1.2616 C   0  0  2  0  0  0  0  0  0  0  0  0
   28.1872   20.9163   -1.0258 N   0  0  0  0  0  0  0  0  0  0  0  0
   28.5785   24.3403    0.0874 C   0  0  0  0  0  0  0  0  0  0  0  0
   27.0725   21.6090    5.2056 C   0  0  2  0  0  0  0  0  0  0  0  0
   26.2090   20.8281    6.1083 O   0  0  0  0  0  0  0  0  0  0  0  0
   27.4939   23.6690    8.2815 C   0  0  2  0  0  0  0  0  0  0  0  0
   26.4252   22.6912    7.8877 N   0  0  0  0  0  0  0  0  0  0  0  0
   23.8976   21.4993    9.2479 C   0  0  0  0  0  0  0  0  0  0  0  0
   22.8026   22.2270    9.7085 N   0  0  0  0  0  0  0  0  0  0  0  0
   26.3074   20.4998   -2.6577 C   0  0  1  0  0  0  0  0  0  0  0  0
   27.2493   20.2668   -3.6949 O   0  0  0  0  0  0  0  0  0  0  0  0
   27.4510   23.3399   -0.5447 C   0  0  2  0  0  0  0  0  0  0  0  0
   26.5456   24.0476   -1.3848 N   0  0  0  0  0  0  0  0  0  0  0  0
   27.1448   23.1150    5.2795 C   0  0  2  0  0  0  0  0  0  0  0  0
   27.8105   24.1421    5.9095 O   0  0  0  0  0  0  0  0  0  0  0  0
   27.1589   24.3323    9.6649 C   0  0  1  0  0  0  0  0  0  0  0  0
   28.2547   25.2593    9.9839 O   0  0  0  0  0  0  0  0  0  0  0  0
   25.0384   19.6372   -2.8495 C   0  0  2  0  0  0  0  0  0  0  0  0
   24.3709   19.9581   -4.1370 O   0  0  0  0  0  0  0  0  0  0  0  0
   26.6524   22.6313    0.6176 C   0  0  2  0  0  0  0  0  0  0  0  0
   25.9178   23.5769    4.3476 C   0  0  2  0  0  0  0  0  0  0  0  0
   25.9806   22.6781    3.3365 O   0  0  0  0  0  0  0  0  0  0  0  0
   25.7280   25.1092    9.5537 C   0  0  2  0  0  0  0  0  0  0  0  0
   24.6334   24.1666    9.2299 O   0  0  0  0  0  0  0  0  0  0  0  0
   24.0171   19.8900   -1.6908 C   0  0  2  0  0  0  0  0  0  0  0  0
   24.7365   19.5678   -0.4730 O   0  0  0  0  0  0  0  0  0  0  0  0
   27.6917   21.8613    1.5005 C   0  0  2  0  0  0  0  0  0  0  0  0
   26.8793   21.2564    2.4773 O   0  0  0  0  0  0  0  0  0  0  0  0
   25.9939   24.9991    3.6788 C   0  0  0  0  0  0  0  0  0  0  0  0
   25.7574   26.0263    4.6929 O   0  0  0  0  0  0  0  0  0  0  0  0
   25.7943   26.2173    8.4106 C   0  0  1  0  0  0  0  0  0  0  0  0
   26.1711   25.5062    7.1276 O   0  0  0  0  0  0  0  0  0  0  0  0
   22.8571   19.0142   -1.9418 C   0  0  0  0  0  0  0  0  0  0  0  0
   22.0185   19.0364   -0.8970 O   0  0  0  0  0  0  0  0  0  0  0  0
   28.7548   22.8609    2.1272 C   0  0  1  0  0  0  0  0  0  0  0  0
   29.6797   22.1626    2.9039 O   0  0  0  0  0  0  0  0  0  0  0  0
   25.6941   19.4772    5.8308 C   0  0  0  0  0  0  0  0  0  0  0  0
   24.3733   26.8754    8.3820 C   0  0  0  0  0  0  0  0  0  0  0  0
   24.2838   27.9736    7.4630 N   0  0  0  0  0  0  0  0  0  0  0  0
   24.2938   19.5855    5.2255 C   0  0  0  0  0  0  0  0  0  0  0  0
   23.3369   19.3189    6.3170 N   0  0  0  0  0  0  0  0  0  0  0  0
   22.8057   20.5093    7.1185 C   0  0  0  0  0  0  0  0  0  0  0  0
  1  2  1  6  0  0  0
  1  8  1  0  0  0  0
  1 33  1  0  0  0  0
  3  4  1  1  0  0  0
  3 10  1  0  0  0  0
  3 42  1  0  0  0  0
  5 11  1  0  0  0  0
  5 29  1  0  0  0  0
  5 35  1  6  0  0  0
  6 13  1  0  0  0  0
  6 39  1  0  0  0  0
  6 22  1  6  0  0  0
  7 15  1  0  0  0  0
  8  9  1  1  0  0  0
  8 17  1  0  0  0  0
 10 19  1  0  0  0  0
 11 12  1  1  0  0  0
 11 21  1  0  0  0  0
 12 44  1  0  0  0  0
 13 14  1  6  0  0  0
 13 23  1  0  0  0  0
 15 16  1  0  0  0  0
 17 18  1  6  0  0  0
 17 25  1  0  0  0  0
 19 20  1  1  0  0  0
 19 27  1  0  0  0  0
 21 22  1  1  0  0  0
 21 28  1  0  0  0  0
 23 24  1  6  0  0  0
 23 30  1  0  0  0  0
 25 26  1  6  0  0  0
 25 32  1  0  0  0  0
 27  2  1  6  0  0  0
 27 34  1  0  0  0  0
 28 29  1  0  0  0  0
 28 36  1  6  0  0  0
 30 31  1  6  0  0  0
 30 38  1  0  0  0  0
 32 33  1  0  0  0  0
 32 40  1  6  0  0  0
 34 35  1  1  0  0  0
 34 42  1  0  0  0  0
 36 37  1  0  0  0  0
 38 39  1  0  0  0  0
 38 45  1  6  0  0  0
 40 41  1  0  0  0  0
 42 43  1  1  0  0  0
 44 47  1  0  0  0  0
 45 46  1  0  0  0  0
 47 48  1  0  0  0  0
 48 49  1  0  0  0  0
 49  7  1  0  0  0  0
M  END
>  <CHROM.1>
-73.35330203,-68.14330864,55.61986009,-53.73269715,42.55322661,-94.95620873
-88.28017799,98.07402937,-73.79931106,171.54625638,-104.54542061,175.77417870
-100.07420245,92.01069545,-62.70865483,-130.74310228,26.08443036,22.45236485
3.59477303,1.54355944,-0.76318514,-1.92709118

>  <Name>
2bee_lig

>  <RI>
0

>  <Rbt.Current_Directory>
/home/itssahil/PROJECTS/Mol_Feturizer/New_Systems/rnas/2bee

>  <Rbt.Executable>
rbdock ($Id: //depot/dev/client3/rdock/2013.1/src/exe/rbdock.cxx#4 $)

>  <Rbt.Library>
libRbt.so (2013.1, Build901 2013/11/27)

>  <Rbt.Parameter_File>
/export/apps/rDock/src/rDock_2013.1_src/data/scripts/dock_solv.prm

>  <Rbt.Receptor>
prm/blind_docking_80.prm

>  <SCORE>
22.7099

>  <SCORE.INTER>
0.656965

>  <SCORE.INTER.CONST>
1

>  <SCORE.INTER.POLAR>
-0.609156

>  <SCORE.INTER.ROT>
16

>  <SCORE.INTER.SOLV>
23.2314

>  <SCORE.INTER.VDW>
-19.542

>  <SCORE.INTER.norm>
0.0134075

>  <SCORE.INTRA>
13.348

>  <SCORE.INTRA.DIHEDRAL>
-1.85291

>  <SCORE.INTRA.DIHEDRAL.0>
36.0842

>  <SCORE.INTRA.POLAR>
0

>  <SCORE.INTRA.POLAR.0>
0

>  <SCORE.INTRA.REPUL>
0.506456

>  <SCORE.INTRA.REPUL.0>
0

>  <SCORE.INTRA.SOLV>
11.0196

>  <SCORE.INTRA.SOLV.lig_0>
-126.444

>  <SCORE.INTRA.VDW>
6.23242

>  <SCORE.INTRA.VDW.0>
-7.40469

>  <SCORE.INTRA.norm>
0.272409

>  <SCORE.RESTR>
8.70486

>  <SCORE.RESTR.CAVITY>
8.70486

>  <SCORE.RESTR.norm>
0.17765

>  <SCORE.SYSTEM>
0

>  <SCORE.SYSTEM.CONST>
0

>  <SCORE.SYSTEM.DIHEDRAL>
0

>  <SCORE.SYSTEM.SOLV>
0

>  <SCORE.SYSTEM.norm>
0

>  <SCORE.heavy>
49

>  <SCORE.norm>
0.463467

>  <RMSD>
26.390

$$$$
2bee_lig
 OpenBabel11021811423D
libRbt.so/2013.1/901 2013/11/27
 49 52  0  0  0  0  0  0  0  0999 V2000
   25.8275   21.0160   -0.7157 C   0  0  2  0  0  0  0  0  0  0  0  0
   25.5161   22.1642    0.0634 O   0  0  0  0  0  0  0  0  0  0  0  0
   29.5575   23.5571    1.1124 C   0  0  2  0  0  0  0  0  0  0  0  0
   30.6349   24.4278    1.6566 N   0  0  0  0  0  0  0  0  0  0  0  0
   26.4446   21.9268    3.9246 C   0  0  1  0  0  0  0  0  0  0  0  0
   27.6982   25.2245    7.1896 C   0  0  1  0  0  0  0  0  0  0  0  0
   23.5162   18.8797    6.1059 C   0  0  0  0  0  0  0  0  0  0  0  0
   24.5067   20.3565   -1.2720 C   0  0  2  0  0  0  0  0  0  0  0  0
   23.7239   21.3461   -2.0046 N   0  0  0  0  0  0  0  0  0  0  0  0
   28.6827   24.3888    0.0680 C   0  0  0  0  0  0  0  0  0  0  0  0
   27.0086   21.8993    5.3080 C   0  0  2  0  0  0  0  0  0  0  0  0
   26.1885   21.1145    6.2470 O   0  0  0  0  0  0  0  0  0  0  0  0
   27.9162   24.3093    8.5109 C   0  0  2  0  0  0  0  0  0  0  0  0
   26.9853   23.1350    8.4238 N   0  0  0  0  0  0  0  0  0  0  0  0
   24.7918   18.2807    6.2277 C   0  0  0  0  0  0  0  0  0  0  0  0
   25.6898   18.7479    7.1847 N   0  0  0  0  0  0  0  0  0  0  0  0
   23.6804   19.7342   -0.0628 C   0  0  1  0  0  0  0  0  0  0  0  0
   22.4963   19.1391   -0.5735 O   0  0  0  0  0  0  0  0  0  0  0  0
   27.4777   23.4692   -0.5437 C   0  0  2  0  0  0  0  0  0  0  0  0
   26.6970   24.1997   -1.4835 N   0  0  0  0  0  0  0  0  0  0  0  0
   27.1779   23.3920    5.4556 C   0  0  2  0  0  0  0  0  0  0  0  0
   27.9603   24.3421    6.0722 O   0  0  0  0  0  0  0  0  0  0  0  0
   27.5956   25.1809    9.7772 C   0  0  1  0  0  0  0  0  0  0  0  0
   28.5550   26.2948    9.7976 O   0  0  0  0  0  0  0  0  0  0  0  0
   24.5602   18.6932    0.6676 C   0  0  2  0  0  0  0  0  0  0  0  0
   23.8308   18.0974    1.8159 O   0  0  0  0  0  0  0  0  0  0  0  0
   26.5528   22.9520    0.6259 C   0  0  2  0  0  0  0  0  0  0  0  0
   25.8986   23.9747    4.6737 C   0  0  2  0  0  0  0  0  0  0  0  0
   25.8120   23.1355    3.6143 O   0  0  0  0  0  0  0  0  0  0  0  0
   26.0564   25.7154    9.6835 C   0  0  2  0  0  0  0  0  0  0  0  0
   25.1002   24.5856    9.6611 O   0  0  0  0  0  0  0  0  0  0  0  0
   25.8696   19.3579    1.2093 C   0  0  2  0  0  0  0  0  0  0  0  0
   26.5199   19.9231    0.0422 O   0  0  0  0  0  0  0  0  0  0  0  0
   27.4574   22.1487    1.6204 C   0  0  2  0  0  0  0  0  0  0  0  0
   26.5389   21.7203    2.5965 O   0  0  0  0  0  0  0  0  0  0  0  0
   25.9967   25.4278    4.0782 C   0  0  0  0  0  0  0  0  0  0  0  0
   25.3510   26.3715    4.9904 O   0  0  0  0  0  0  0  0  0  0  0  0
   25.8549   26.5734    8.3560 C   0  0  1  0  0  0  0  0  0  0  0  0
   26.2325   25.6811    7.1920 O   0  0  0  0  0  0  0  0  0  0  0  0
   26.6522   18.2934    1.8651 C   0  0  0  0  0  0  0  0  0  0  0  0
   27.9371   18.6571    1.9757 O   0  0  0  0  0  0  0  0  0  0  0  0
   28.5986   23.0742    2.2233 C   0  0  1  0  0  0  0  0  0  0  0  0
   29.4026   22.3455    3.1002 O   0  0  0  0  0  0  0  0  0  0  0  0
   25.2038   21.6760    7.1863 C   0  0  0  0  0  0  0  0  0  0  0  0
   24.3509   27.0104    8.3638 C   0  0  0  0  0  0  0  0  0  0  0  0
   24.0568   28.0202    7.3879 N   0  0  0  0  0  0  0  0  0  0  0  0
   24.1020   22.3852    6.3978 C   0  0  0  0  0  0  0  0  0  0  0  0
   23.0489   21.3832    6.1430 N   0  0  0  0  0  0  0  0  0  0  0  0
   23.3798   20.2056    5.2237 C   0  0  0  0  0  0  0  0  0  0  0  0
  1  2  1  1  0  0  0
  1  8  1  0  0  0  0
  1 33  1  0  0  0  0
  3  4  1  1  0  0  0
  3 10  1  0  0  0  0
  3 42  1  0  0  0  0
  5 11  1  0  0  0  0
  5 29  1  0  0  0  0
  5 35  1  6  0  0  0
  6 13  1  0  0  0  0
  6 39  1  0  0  0  0
  6 22  1  6  0  0  0
  7 15  1  0  0  0  0
  8  9  1  1  0  0  0
  8 17  1  0  0  0  0
 10 19  1  0  0  0  0
 11 12  1  1  0  0  0
 11 21  1  0  0  0  0
 12 44  1  0  0  0  0
 13 14  1  6  0  0  0
 13 23  1  0  0  0  0
 15 16  1  0  0  0  0
 17 18  1  6  0  0  0
 17 25  1  0  0  0  0
 19 20  1  6  0  0  0
 19 27  1  0  0  0  0
 21 22  1  1  0  0  0
 21 28  1  0  0  0  0
 23 24  1  6  0  0  0
 23 30  1  0  0  0  0
 25 26  1  1  0  0  0
 25 32  1  0  0  0  0
 27  2  1  6  0  0  0
 27 34  1  0  0  0  0
 28 29  1  0  0  0  0
 28 36  1  6  0  0  0
 30 31  1  6  0  0  0
 30 38  1  0  0  0  0
 32 33  1  0  0  0  0
 32 40  1  6  0  0  0
 34 35  1  1  0  0  0
 34 42  1  0  0  0  0
 36 37  1  0  0  0  0
 38 39  1  0  0  0  0
 38 45  1  6  0  0  0
 40 41  1  0  0  0  0
 42 43  1  1  0  0  0
 44 47  1  0  0  0  0
 45 46  1  0  0  0  0
 47 48  1  0  0  0  0
 48 49  1  0  0  0  0
 49  7  1  0  0  0  0
M  END
>  <CHROM.1>
-177.59381263,-53.90788498,80.35742911,83.89522248,-98.14538245,61.80897643
-106.94869657,58.31730047,-98.68846231,160.37483095,-120.05177537,167.79501295
90.83271414,-66.32696017,107.70974471,-112.22115081,26.12773970,22.51745233
4.03712017,-1.71512325,1.00298106,1.16439374

>  <Name>
2bee_lig

>  <RI>
0

>  <Rbt.Current_Directory>
/home/itssahil/PROJECTS/Mol_Feturizer/New_Systems/rnas/2bee

>  <Rbt.Executable>
rbdock ($Id: //depot/dev/client3/rdock/2013.1/src/exe/rbdock.cxx#4 $)

>  <Rbt.Library>
libRbt.so (2013.1, Build901 2013/11/27)

>  <Rbt.Parameter_File>
/export/apps/rDock/src/rDock_2013.1_src/data/scripts/dock_solv.prm

>  <Rbt.Receptor>
prm/blind_docking_80.prm

>  <SCORE>
44.3124

>  <SCORE.INTER>
28.4275

>  <SCORE.INTER.CONST>
1

>  <SCORE.INTER.POLAR>
-0.973152

>  <SCORE.INTER.ROT>
16

>  <SCORE.INTER.SOLV>
35.5699

>  <SCORE.INTER.VDW>
-3.92783

>  <SCORE.INTER.norm>
0.580152

>  <SCORE.INTRA>
5.04677

>  <SCORE.INTRA.DIHEDRAL>
-1.23735

>  <SCORE.INTRA.DIHEDRAL.0>
36.0842

>  <SCORE.INTRA.POLAR>
0

>  <SCORE.INTRA.POLAR.0>
0

>  <SCORE.INTRA.REPUL>
0

>  <SCORE.INTRA.REPUL.0>
0

>  <SCORE.INTRA.SOLV>
7.67435

>  <SCORE.INTRA.SOLV.lig_0>
-126.444

>  <SCORE.INTRA.VDW>
1.82828

>  <SCORE.INTRA.VDW.0>
-7.40469

>  <SCORE.INTRA.norm>
0.102995

>  <SCORE.RESTR>
10.8381

>  <SCORE.RESTR.CAVITY>
10.8381

>  <SCORE.RESTR.norm>
0.221186

>  <SCORE.SYSTEM>
0

>  <SCORE.SYSTEM.CONST>
0

>  <SCORE.SYSTEM.DIHEDRAL>
0

>  <SCORE.SYSTEM.SOLV>
0

>  <SCORE.SYSTEM.norm>
0

>  <SCORE.heavy>
49

>  <SCORE.norm>
0.904334

>  <RMSD>
26.533

$$$$
2bee_lig
 OpenBabel11021811423D
libRbt.so/2013.1/901 2013/11/27
 49 52  0  0  0  0  0  0  0  0999 V2000
   24.4969   21.0153    0.0387 C   0  0  2  0  0  0  0  0  0  0  0  0
   25.5113   20.0886    0.4051 O   0  0  0  0  0  0  0  0  0  0  0  0
   29.8989   19.7519    0.5056 C   0  0  2  0  0  0  0  0  0  0  0  0
   31.3289   20.0842    0.2613 N   0  0  0  0  0  0  0  0  0  0  0  0
   26.7512   21.6563    3.6183 C   0  0  1  0  0  0  0  0  0  0  0  0
   27.1074   25.0801    6.9804 C   0  0  1  0  0  0  0  0  0  0  0  0
   25.8512   23.7944   10.0438 C   0  0  0  0  0  0  0  0  0  0  0  0
   23.8716   20.6207   -1.3550 C   0  0  2  0  0  0  0  0  0  0  0  0
   23.3961   19.2420   -1.3173 N   0  0  0  0  0  0  0  0  0  0  0  0
   29.1321   19.6572   -0.8912 C   0  0  0  0  0  0  0  0  0  0  0  0
   27.2101   21.7632    5.0362 C   0  0  2  0  0  0  0  0  0  0  0  0
   26.5165   20.8259    5.9366 O   0  0  0  0  0  0  0  0  0  0  0  0
   25.8384   25.9584    6.4812 C   0  0  2  0  0  0  0  0  0  0  0  0
   26.2957   26.8413    5.3567 N   0  0  0  0  0  0  0  0  0  0  0  0
   24.4627   23.7637   10.3125 C   0  0  0  0  0  0  0  0  0  0  0  0
   23.8833   24.7657   11.0877 N   0  0  0  0  0  0  0  0  0  0  0  0
   24.9579   20.8348   -2.4979 C   0  0  1  0  0  0  0  0  0  0  0  0
   24.3849   20.4818   -3.7485 O   0  0  0  0  0  0  0  0  0  0  0  0
   27.5519   19.3063   -0.6644 C   0  0  2  0  0  0  0  0  0  0  0  0
   26.8611   19.2107   -1.9054 N   0  0  0  0  0  0  0  0  0  0  0  0
   27.0408   23.2581    5.1607 C   0  0  2  0  0  0  0  0  0  0  0  0
   27.5536   24.3606    5.8059 O   0  0  0  0  0  0  0  0  0  0  0  0
   25.3234   26.8184    7.6900 C   0  0  1  0  0  0  0  0  0  0  0  0
   24.8826   25.8847    8.7367 O   0  0  0  0  0  0  0  0  0  0  0  0
   25.4164   22.3116   -2.4889 C   0  0  2  0  0  0  0  0  0  0  0  0
   26.4448   22.5521   -3.5333 O   0  0  0  0  0  0  0  0  0  0  0  0
   26.8801   20.4180    0.2322 C   0  0  2  0  0  0  0  0  0  0  0  0
   25.7231   23.5417    4.2827 C   0  0  2  0  0  0  0  0  0  0  0  0
   25.8946   22.6956    3.2393 O   0  0  0  0  0  0  0  0  0  0  0  0
   26.5316   27.7821    8.2146 C   0  0  2  0  0  0  0  0  0  0  0  0
   26.9685   28.7156    7.1520 O   0  0  0  0  0  0  0  0  0  0  0  0
   26.0290   22.6925   -1.0999 C   0  0  2  0  0  0  0  0  0  0  0  0
   24.9794   22.4243   -0.1351 O   0  0  0  0  0  0  0  0  0  0  0  0
   27.6693   20.4720    1.5838 C   0  0  2  0  0  0  0  0  0  0  0  0
   26.9803   21.4650    2.3044 O   0  0  0  0  0  0  0  0  0  0  0  0
   25.5449   24.9766    3.6621 C   0  0  0  0  0  0  0  0  0  0  0  0
   24.5373   24.9263    2.6031 O   0  0  0  0  0  0  0  0  0  0  0  0
   27.7826   26.8998    8.6568 C   0  0  1  0  0  0  0  0  0  0  0  0
   28.1823   26.0674    7.4564 O   0  0  0  0  0  0  0  0  0  0  0  0
   26.4139   24.1144   -1.1754 C   0  0  0  0  0  0  0  0  0  0  0  0
   26.3436   24.6836    0.0356 O   0  0  0  0  0  0  0  0  0  0  0  0
   29.1928   20.8463    1.3367 C   0  0  1  0  0  0  0  0  0  0  0  0
   29.8868   20.8827    2.5464 O   0  0  0  0  0  0  0  0  0  0  0  0
   25.0979   20.9117    6.3202 C   0  0  0  0  0  0  0  0  0  0  0  0
   28.8756   27.9231    9.1166 C   0  0  0  0  0  0  0  0  0  0  0  0
   28.3633   28.9277   10.0037 N   0  0  0  0  0  0  0  0  0  0  0  0
   24.8860   22.1474    7.1961 C   0  0  0  0  0  0  0  0  0  0  0  0
   25.3491   21.7923    8.5517 N   0  0  0  0  0  0  0  0  0  0  0  0
   26.4821   22.6165    9.1667 C   0  0  0  0  0  0  0  0  0  0  0  0
  1  2  1  6  0  0  0
  1  8  1  0  0  0  0
  1 33  1  0  0  0  0
  3  4  1  6  0  0  0
  3 10  1  0  0  0  0
  3 42  1  0  0  0  0
  5 11  1  0  0  0  0
  5 29  1  0  0  0  0
  5 35  1  6  0  0  0
  6 13  1  0  0  0  0
  6 39  1  0  0  0  0
  6 22  1  6  0  0  0
  7 15  1  0  0  0  0
  8  9  1  1  0  0  0
  8 17  1  0  0  0  0
 10 19  1  0  0  0  0
 11 12  1  1  0  0  0
 11 21  1  0  0  0  0
 12 44  1  0  0  0  0
 13 14  1  6  0  0  0
 13 23  1  0  0  0  0
 15 16  1  0  0  0  0
 17 18  1  6  0  0  0
 17 25  1  0  0  0  0
 19 20  1  6  0  0  0
 19 27  1  0  0  0  0
 21 22  1  1  0  0  0
 21 28  1  0  0  0  0
 23 24  1  1  0  0  0
 23 30  1  0  0  0  0
 25 26  1  6  0  0  0
 25 32  1  0  0  0  0
 27  2  1  1  0  0  0
 27 34  1  0  0  0  0
 28 29  1  0  0  0  0
 28 36  1  6  0  0  0
 30 31  1  6  0  0  0
 30 38  1  0  0  0  0
 32 33  1  0  0  0  0
 32 40  1  6  0  0  0
 34 35  1  1  0  0  0
 34 42  1  0  0  0  0
 36 37  1  0  0  0  0
 38 39  1  0  0  0  0
 38 45  1  6  0  0  0
 40 41  1  0  0  0  0
 42 43  1  1  0  0  0
 44 47  1  0  0  0  0
 45 46  1  0  0  0  0
 47 48  1  0  0  0  0
 48 49  1  0  0  0  0
 49  7  1  0  0  0  0
M  END
>  <CHROM.1>
101.20375498,50.65379625,-75.99454926,179.20488640,-69.06189597,-68.02592002
-98.70243893,-123.88572184,163.22894879,150.89263594,148.99678194,47.39314283
-79.02509109,120.36941693,93.39916239,10.86832708,26.45290476,23.03730660
3.58920615,1.58164533,1.46479541,-2.04942216

>  <Name>
2bee_lig

>  <RI>
0

>  <Rbt.Current_Directory>
/home/itssahil/PROJECTS/Mol_Feturizer/New_Systems/rnas/2bee

>  <Rbt.Executable>
rbdock ($Id: //depot/dev/client3/rdock/2013.1/src/exe/rbdock.cxx#4 $)

>  <Rbt.Library>
libRbt.so (2013.1, Build901 2013/11/27)

>  <Rbt.Parameter_File>
/export/apps/rDock/src/rDock_2013.1_src/data/scripts/dock_solv.prm

>  <Rbt.Receptor>
prm/blind_docking_80.prm

>  <SCORE>
22.4864

>  <SCORE.INTER>
-2.08366

>  <SCORE.INTER.CONST>
1

>  <SCORE.INTER.POLAR>
-1.49062

>  <SCORE.INTER.ROT>
16

>  <SCORE.INTER.SOLV>
27.73

>  <SCORE.INTER.VDW>
-19.9304

>  <SCORE.INTER.norm>
-0.0425236

>  <SCORE.INTRA>
9.69281

>  <SCORE.INTRA.DIHEDRAL>
-0.769363

>  <SCORE.INTRA.DIHEDRAL.0>
36.0842

>  <SCORE.INTRA.POLAR>
0

>  <SCORE.INTRA.POLAR.0>
0

>  <SCORE.INTRA.REPUL>
0.0493343

>  <SCORE.INTRA.REPUL.0>
0

>  <SCORE.INTRA.SOLV>
8.29347

>  <SCORE.INTRA.SOLV.lig_0>
-126.444

>  <SCORE.INTRA.VDW>
5.68408

>  <SCORE.INTRA.VDW.0>
-7.40469

>  <SCORE.INTRA.norm>
0.197812

>  <SCORE.RESTR>
14.8772

>  <SCORE.RESTR.CAVITY>
14.8772

>  <SCORE.RESTR.norm>
0.303617

>  <SCORE.SYSTEM>
0

>  <SCORE.SYSTEM.CONST>
0

>  <SCORE.SYSTEM.DIHEDRAL>
0

>  <SCORE.SYSTEM.SOLV>
0

>  <SCORE.SYSTEM.norm>
0

>  <SCORE.heavy>
49

>  <SCORE.norm>
0.458905

>  <RMSD>
26.603

$$$$
2bee_lig
 OpenBabel11021811423D
libRbt.so/2013.1/901 2013/11/27
 49 52  0  0  0  0  0  0  0  0999 V2000
   25.9754   20.2201   -0.4237 C   0  0  2  0  0  0  0  0  0  0  0  0
   25.6703   21.5510   -0.0265 O   0  0  0  0  0  0  0  0  0  0  0  0
   29.6646   23.1565    0.8915 C   0  0  2  0  0  0  0  0  0  0  0  0
   30.7115   24.0806    1.4060 N   0  0  0  0  0  0  0  0  0  0  0  0
   26.3083   21.6860    3.5902 C   0  0  1  0  0  0  0  0  0  0  0  0
   27.1862   25.6044    6.1916 C   0  0  1  0  0  0  0  0  0  0  0  0
   24.4939   21.8570    9.6688 C   0  0  0  0  0  0  0  0  0  0  0  0
   24.8018   19.6254   -1.2942 C   0  0  2  0  0  0  0  0  0  0  0  0
   24.5209   20.5059   -2.4232 N   0  0  0  0  0  0  0  0  0  0  0  0
   28.7077   23.9476   -0.1117 C   0  0  0  0  0  0  0  0  0  0  0  0
   26.3259   21.9115    5.0672 C   0  0  2  0  0  0  0  0  0  0  0  0
   25.0615   21.5324    5.7211 O   0  0  0  0  0  0  0  0  0  0  0  0
   27.0336   25.4617    7.8002 C   0  0  2  0  0  0  0  0  0  0  0  0
   25.9819   24.4276    8.0790 N   0  0  0  0  0  0  0  0  0  0  0  0
   24.3283   23.2174   10.0192 C   0  0  0  0  0  0  0  0  0  0  0  0
   23.3494   23.9825    9.3892 N   0  0  0  0  0  0  0  0  0  0  0  0
   23.5179   19.4216   -0.3766 C   0  0  1  0  0  0  0  0  0  0  0  0
   22.4688   18.8819   -1.1673 O   0  0  0  0  0  0  0  0  0  0  0  0
   27.5337   22.9681   -0.6895 C   0  0  2  0  0  0  0  0  0  0  0  0
   26.6801   23.6625   -1.5926 N   0  0  0  0  0  0  0  0  0  0  0  0
   26.7972   23.3448    5.0177 C   0  0  2  0  0  0  0  0  0  0  0  0
   27.5232   24.2759    5.7254 O   0  0  0  0  0  0  0  0  0  0  0  0
   26.6111   26.8567    8.3846 C   0  0  1  0  0  0  0  0  0  0  0  0
   27.6943   27.8045    8.0846 O   0  0  0  0  0  0  0  0  0  0  0  0
   23.8785   18.4783    0.7946 C   0  0  2  0  0  0  0  0  0  0  0  0
   22.7092   18.2729    1.6870 O   0  0  0  0  0  0  0  0  0  0  0  0
   26.6819   22.3901    0.5069 C   0  0  2  0  0  0  0  0  0  0  0  0
   26.0604   23.9171    3.7073 C   0  0  2  0  0  0  0  0  0  0  0  0
   26.1455   22.8664    2.8571 O   0  0  0  0  0  0  0  0  0  0  0  0
   25.2024   27.3187    7.7022 C   0  0  2  0  0  0  0  0  0  0  0  0
   24.1205   26.3559    8.0089 O   0  0  0  0  0  0  0  0  0  0  0  0
   25.0474   19.0761    1.6468 C   0  0  2  0  0  0  0  0  0  0  0  0
   26.1434   19.2580    0.7140 O   0  0  0  0  0  0  0  0  0  0  0  0
   27.6651   21.6294    1.4594 C   0  0  2  0  0  0  0  0  0  0  0  0
   26.8079   21.1421    2.4632 O   0  0  0  0  0  0  0  0  0  0  0  0
   26.7181   25.1390    2.9655 C   0  0  0  0  0  0  0  0  0  0  0  0
   28.1743   25.0395    3.0620 O   0  0  0  0  0  0  0  0  0  0  0  0
   25.3644   27.4082    6.1195 C   0  0  1  0  0  0  0  0  0  0  0  0
   25.8210   26.0445    5.6446 O   0  0  0  0  0  0  0  0  0  0  0  0
   25.3377   18.1052    2.7186 C   0  0  0  0  0  0  0  0  0  0  0  0
   26.0073   17.0531    2.2288 O   0  0  0  0  0  0  0  0  0  0  0  0
   28.7749   22.6113    2.0309 C   0  0  1  0  0  0  0  0  0  0  0  0
   29.6493   21.9206    2.8703 O   0  0  0  0  0  0  0  0  0  0  0  0
   24.6007   20.1515    5.9395 C   0  0  0  0  0  0  0  0  0  0  0  0
   23.9582   27.8350    5.5778 C   0  0  0  0  0  0  0  0  0  0  0  0
   23.4838   26.9859    4.5231 N   0  0  0  0  0  0  0  0  0  0  0  0
   25.5923   19.4269    6.8509 C   0  0  0  0  0  0  0  0  0  0  0  0
   25.4128   19.9865    8.2047 N   0  0  0  0  0  0  0  0  0  0  0  0
   25.3302   21.5073    8.3523 C   0  0  0  0  0  0  0  0  0  0  0  0
  1  2  1  1  0  0  0
  1  8  1  0  0  0  0
  1 33  1  0  0  0  0
  3  4  1  1  0  0  0
  3 10  1  0  0  0  0
  3 42  1  0  0  0  0
  5 11  1  0  0  0  0
  5 29  1  0  0  0  0
  5 35  1  6  0  0  0
  6 13  1  0  0  0  0
  6 39  1  0  0  0  0
  6 22  1  6  0  0  0
  7 15  1  0  0  0  0
  8  9  1  6  0  0  0
  8 17  1  0  0  0  0
 10 19  1  0  0  0  0
 11 12  1  6  0  0  0
 11 21  1  0  0  0  0
 12 44  1  0  0  0  0
 13 14  1  6  0  0  0
 13 23  1  0  0  0  0
 15 16  1  0  0  0  0
 17 18  1  6  0  0  0
 17 25  1  0  0  0  0
 19 20  1  6  0  0  0
 19 27  1  0  0  0  0
 21 22  1  1  0  0  0
 21 28  1  0  0  0  0
 23 24  1  6  0  0  0
 23 30  1  0  0  0  0
 25 26  1  1  0  0  0
 25 32  1  0  0  0  0
 27  2  1  6  0  0  0
 27 34  1  0  0  0  0
 28 29  1  0  0  0  0
 28 36  1  6  0  0  0
 30 31  1  6  0  0  0
 30 38  1  0  0  0  0
 32 33  1  0  0  0  0
 32 40  1  1  0  0  0
 34 35  1  1  0  0  0
 34 42  1  0  0  0  0
 36 37  1  0  0  0  0
 38 39  1  0  0  0  0
 38 45  1  6  0  0  0
 40 41  1  0  0  0  0
 42 43  1  1  0  0  0
 44 47  1  0  0  0  0
 45 46  1  0  0  0  0
 47 48  1  0  0  0  0
 48 49  1  0  0  0  0
 49  7  1  0  0  0  0
M  END
>  <CHROM.1>
-166.12921448,-97.13526935,108.38591966,80.81439939,72.75219859,62.19223224
-125.12034986,79.80779155,34.12384260,75.29158783,-84.35852452,-129.04593027
72.18203480,-46.19899076,153.88783906,178.15468015,25.98335854,22.63248795
3.79248991,-1.58226853,1.04724383,0.97007852

>  <Name>
2bee_lig

>  <RI>
0

>  <Rbt.Current_Directory>
/home/itssahil/PROJECTS/Mol_Feturizer/New_Systems/rnas/2bee

>  <Rbt.Executable>
rbdock ($Id: //depot/dev/client3/rdock/2013.1/src/exe/rbdock.cxx#4 $)

>  <Rbt.Library>
libRbt.so (2013.1, Build901 2013/11/27)

>  <Rbt.Parameter_File>
/export/apps/rDock/src/rDock_2013.1_src/data/scripts/dock_solv.prm

>  <Rbt.Receptor>
prm/blind_docking_80.prm

>  <SCORE>
47.7954

>  <SCORE.INTER>
26.162

>  <SCORE.INTER.CONST>
1

>  <SCORE.INTER.POLAR>
-1.16519

>  <SCORE.INTER.ROT>
16

>  <SCORE.INTER.SOLV>
26.8802

>  <SCORE.INTER.VDW>
-1.90144

>  <SCORE.INTER.norm>
0.533918

>  <SCORE.INTRA>
11.5851

>  <SCORE.INTRA.DIHEDRAL>
-5.7164

>  <SCORE.INTRA.DIHEDRAL.0>
36.0842

>  <SCORE.INTRA.POLAR>
0

>  <SCORE.INTRA.POLAR.0>
0

>  <SCORE.INTRA.REPUL>
0.0298826

>  <SCORE.INTRA.REPUL.0>
0

>  <SCORE.INTRA.SOLV>
9.26541

>  <SCORE.INTRA.SOLV.lig_0>
-126.444

>  <SCORE.INTRA.VDW>
9.66115

>  <SCORE.INTRA.VDW.0>
-7.40469

>  <SCORE.INTRA.norm>
0.23643

>  <SCORE.RESTR>
10.0483

>  <SCORE.RESTR.CAVITY>
10.0483

>  <SCORE.RESTR.norm>
0.205068

>  <SCORE.SYSTEM>
0

>  <SCORE.SYSTEM.CONST>
0

>  <SCORE.SYSTEM.DIHEDRAL>
0

>  <SCORE.SYSTEM.SOLV>
0

>  <SCORE.SYSTEM.norm>
0

>  <SCORE.heavy>
49

>  <SCORE.norm>
0.975416

>  <RMSD>
26.776

$$$$
2bee_lig
 OpenBabel11021811423D
libRbt.so/2013.1/901 2013/11/27
 49 52  0  0  0  0  0  0  0  0999 V2000
   26.2684   24.9532    7.1920 C   0  0  2  0  0  0  0  0  0  0  0  0
   26.9550   24.1714    6.2227 O   0  0  0  0  0  0  0  0  0  0  0  0
   26.0061   20.1919    4.5986 C   0  0  2  0  0  0  0  0  0  0  0  0
   25.2506   19.1117    3.9078 N   0  0  0  0  0  0  0  0  0  0  0  0
   28.1637   23.7127    2.4272 C   0  0  1  0  0  0  0  0  0  0  0  0
   26.8743   21.3700   -1.1572 C   0  0  1  0  0  0  0  0  0  0  0  0
   31.9087   22.4570   -0.4941 C   0  0  0  0  0  0  0  0  0  0  0  0
   26.8517   26.4187    7.2270 C   0  0  2  0  0  0  0  0  0  0  0  0
   26.8121   27.0047    5.8915 N   0  0  0  0  0  0  0  0  0  0  0  0
   25.1062   20.8023    5.7672 C   0  0  0  0  0  0  0  0  0  0  0  0
   28.9987   23.1481    1.3242 C   0  0  2  0  0  0  0  0  0  0  0  0
   30.3070   23.8132    1.1962 O   0  0  0  0  0  0  0  0  0  0  0  0
   27.6029   20.7652   -2.4743 C   0  0  2  0  0  0  0  0  0  0  0  0
   27.4451   21.7560   -3.5908 N   0  0  0  0  0  0  0  0  0  0  0  0
   32.9974   23.2395   -0.0434 C   0  0  0  0  0  0  0  0  0  0  0  0
   33.5721   22.9795    1.1987 N   0  0  0  0  0  0  0  0  0  0  0  0
   28.3332   26.3810    7.8066 C   0  0  1  0  0  0  0  0  0  0  0  0
   28.8479   27.7042    7.8387 O   0  0  0  0  0  0  0  0  0  0  0  0
   25.8973   22.0038    6.5432 C   0  0  2  0  0  0  0  0  0  0  0  0
   25.1061   22.5487    7.5936 N   0  0  0  0  0  0  0  0  0  0  0  0
   27.9481   23.2454    0.2446 C   0  0  2  0  0  0  0  0  0  0  0  0
   27.5236   22.6415   -0.9173 O   0  0  0  0  0  0  0  0  0  0  0  0
   26.9161   19.4010   -2.8395 C   0  0  1  0  0  0  0  0  0  0  0  0
   27.1275   18.4865   -1.7079 O   0  0  0  0  0  0  0  0  0  0  0  0
   28.3068   25.7559    9.2207 C   0  0  2  0  0  0  0  0  0  0  0  0
   29.6753   25.6872    9.7938 O   0  0  0  0  0  0  0  0  0  0  0  0
   26.2767   23.1433    5.5192 C   0  0  2  0  0  0  0  0  0  0  0  0
   27.1817   24.6102    0.6151 C   0  0  2  0  0  0  0  0  0  0  0  0
   27.1417   24.5504    1.9675 O   0  0  0  0  0  0  0  0  0  0  0  0
   25.3282   19.6581   -3.1156 C   0  0  2  0  0  0  0  0  0  0  0  0
   25.1280   20.5819   -4.2548 O   0  0  0  0  0  0  0  0  0  0  0  0
   27.7209   24.3053    9.1738 C   0  0  2  0  0  0  0  0  0  0  0  0
   26.3971   24.4485    8.5981 O   0  0  0  0  0  0  0  0  0  0  0  0
   27.1530   22.4932    4.3958 C   0  0  2  0  0  0  0  0  0  0  0  0
   27.4497   23.5878    3.5630 O   0  0  0  0  0  0  0  0  0  0  0  0
   25.6916   24.7729    0.1367 C   0  0  0  0  0  0  0  0  0  0  0  0
   24.8402   23.8384    0.8723 O   0  0  0  0  0  0  0  0  0  0  0  0
   24.6441   20.2936   -1.8243 C   0  0  1  0  0  0  0  0  0  0  0  0
   25.3941   21.5714   -1.5109 O   0  0  0  0  0  0  0  0  0  0  0  0
   27.7117   23.8005   10.5597 C   0  0  0  0  0  0  0  0  0  0  0  0
   27.1153   22.6022   10.6179 O   0  0  0  0  0  0  0  0  0  0  0  0
   26.3490   21.3523    3.6380 C   0  0  1  0  0  0  0  0  0  0  0  0
   27.1426   20.7752    2.6463 O   0  0  0  0  0  0  0  0  0  0  0  0
   30.5438   25.0928    0.5081 C   0  0  0  0  0  0  0  0  0  0  0  0
   23.1423   20.5132   -2.2111 C   0  0  0  0  0  0  0  0  0  0  0  0
   22.2557   20.4192   -1.0869 N   0  0  0  0  0  0  0  0  0  0  0  0
   29.9414   25.0294   -0.8962 C   0  0  0  0  0  0  0  0  0  0  0  0
   30.9744   24.4494   -1.7764 N   0  0  0  0  0  0  0  0  0  0  0  0
   31.1260   22.9271   -1.8061 C   0  0  0  0  0  0  0  0  0  0  0  0
  1  2  1  6  0  0  0
  1  8  1  0  0  0  0
  1 33  1  0  0  0  0
  3  4  1  6  0  0  0
  3 10  1  0  0  0  0
  3 42  1  0  0  0  0
  5 11  1  0  0  0  0
  5 29  1  0  0  0  0
  5 35  1  6  0  0  0
  6 13  1  0  0  0  0
  6 39  1  0  0  0  0
  6 22  1  6  0  0  0
  7 15  1  0  0  0  0
  8  9  1  6  0  0  0
  8 17  1  0  0  0  0
 10 19  1  0  0  0  0
 11 12  1  6  0  0  0
 11 21  1  0  0  0  0
 12 44  1  0  0  0  0
 13 14  1  6  0  0  0
 13 23  1  0  0  0  0
 15 16  1  0  0  0  0
 17 18  1  1  0  0  0
 17 25  1  0  0  0  0
 19 20  1  1  0  0  0
 19 27  1  0  0  0  0
 21 22  1  6  0  0  0
 21 28  1  0  0  0  0
 23 24  1  1  0  0  0
 23 30  1  0  0  0  0
 25 26  1  6  0  0  0
 25 32  1  0  0  0  0
 27  2  1  1  0  0  0
 27 34  1  0  0  0  0
 28 29  1  0  0  0  0
 28 36  1  6  0  0  0
 30 31  1  6  0  0  0
 30 38  1  0  0  0  0
 32 33  1  0  0  0  0
 32 40  1  1  0  0  0
 34 35  1  6  0  0  0
 34 42  1  0  0  0  0
 36 37  1  0  0  0  0
 38 39  1  0  0  0  0
 38 45  1  6  0  0  0
 40 41  1  0  0  0  0
 42 43  1  6  0  0  0
 44 47  1  0  0  0  0
 45 46  1  0  0  0  0
 47 48  1  0  0  0  0
 48 49  1  0  0  0  0
 49  7  1  0  0  0  0
M  END
>  <CHROM.1>
-147.90867804,0.89912501,-138.08416592,170.29599222,-80.97967298,-51.66610532
70.90244717,-66.88297512,68.54452780,174.69861419,179.85536707,150.17069439
-87.12828530,82.10155679,-77.20291428,-40.23198801,27.42119588,22.96348901
2.60506976,1.52721862,0.53816492,1.28460131

>  <Name>
2bee_lig

>  <RI>
0

>  <Rbt.Current_Directory>
/home/itssahil/PROJECTS/Mol_Feturizer/New_Systems/rnas/2bee

>  <Rbt.Executable>
rbdock ($Id: //depot/dev/client3/rdock/2013.1/src/exe/rbdock.cxx#4 $)

>  <Rbt.Library>
libRbt.so (2013.1, Build901 2013/11/27)

>  <Rbt.Parameter_File>
/export/apps/rDock/src/rDock_2013.1_src/data/scripts/dock_solv.prm

>  <Rbt.Receptor>
prm/blind_docking_80.prm

>  <SCORE>
1.27791

>  <SCORE.INTER>
-16.6258

>  <SCORE.INTER.CONST>
1

>  <SCORE.INTER.POLAR>
-1.50928

>  <SCORE.INTER.ROT>
16

>  <SCORE.INTER.SOLV>
28.8577

>  <SCORE.INTER.VDW>
-29.9389

>  <SCORE.INTER.norm>
-0.339303

>  <SCORE.INTRA>
2.87218

>  <SCORE.INTRA.DIHEDRAL>
-5.33859

>  <SCORE.INTRA.DIHEDRAL.0>
36.0842

>  <SCORE.INTRA.POLAR>
0

>  <SCORE.INTRA.POLAR.0>
0

>  <SCORE.INTRA.REPUL>
0

>  <SCORE.INTRA.REPUL.0>
0

>  <SCORE.INTRA.SOLV>
1.99611

>  <SCORE.INTRA.SOLV.lig_0>
-126.444

>  <SCORE.INTRA.VDW>
4.54343

>  <SCORE.INTRA.VDW.0>
-7.40469

>  <SCORE.INTRA.norm>
0.058616

>  <SCORE.RESTR>
15.0316

>  <SCORE.RESTR.CAVITY>
15.0316

>  <SCORE.RESTR.norm>
0.306767

>  <SCORE.SYSTEM>
0

>  <SCORE.SYSTEM.CONST>
0

>  <SCORE.SYSTEM.DIHEDRAL>
0

>  <SCORE.SYSTEM.SOLV>
0

>  <SCORE.SYSTEM.norm>
0

>  <SCORE.heavy>
49

>  <SCORE.norm>
0.0260799

>  <RMSD>
26.801

$$$$
2bee_lig
 OpenBabel11021811423D
libRbt.so/2013.1/901 2013/11/27
 49 52  0  0  0  0  0  0  0  0999 V2000
   28.8152   21.6715    0.3549 C   0  0  2  0  0  0  0  0  0  0  0  0
   28.5596   21.3155    1.7077 O   0  0  0  0  0  0  0  0  0  0  0  0
   25.0379   18.7148    1.2519 C   0  0  2  0  0  0  0  0  0  0  0  0
   24.0104   17.6890    1.5786 N   0  0  0  0  0  0  0  0  0  0  0  0
   26.1695   22.1340    4.1221 C   0  0  1  0  0  0  0  0  0  0  0  0
   28.3631   24.4856    7.6432 C   0  0  1  0  0  0  0  0  0  0  0  0
   24.0066   23.9545   10.1527 C   0  0  0  0  0  0  0  0  0  0  0  0
   29.7159   22.9651    0.2894 C   0  0  2  0  0  0  0  0  0  0  0  0
   30.9352   22.7653    1.0653 N   0  0  0  0  0  0  0  0  0  0  0  0
   26.4906   18.0631    1.3660 C   0  0  0  0  0  0  0  0  0  0  0  0
   26.8943   22.0186    5.4237 C   0  0  2  0  0  0  0  0  0  0  0  0
   26.2419   21.0909    6.3640 O   0  0  0  0  0  0  0  0  0  0  0  0
   27.2126   25.1164    8.5968 C   0  0  2  0  0  0  0  0  0  0  0  0
   26.8372   26.4618    8.0473 N   0  0  0  0  0  0  0  0  0  0  0  0
   23.8197   25.0020   11.0846 C   0  0  0  0  0  0  0  0  0  0  0  0
   23.5499   24.7047   12.4186 N   0  0  0  0  0  0  0  0  0  0  0  0
   28.8826   24.2130    0.8187 C   0  0  1  0  0  0  0  0  0  0  0  0
   29.6994   25.3729    0.7517 O   0  0  0  0  0  0  0  0  0  0  0  0
   27.6501   19.1640    1.0269 C   0  0  2  0  0  0  0  0  0  0  0  0
   28.9495   18.5897    1.1172 N   0  0  0  0  0  0  0  0  0  0  0  0
   26.9862   23.4994    5.7024 C   0  0  2  0  0  0  0  0  0  0  0  0
   27.7753   24.4426    6.3209 O   0  0  0  0  0  0  0  0  0  0  0  0
   27.7910   25.2506   10.0506 C   0  0  1  0  0  0  0  0  0  0  0  0
   28.1179   23.8960   10.5197 O   0  0  0  0  0  0  0  0  0  0  0  0
   27.6099   24.3737   -0.0449 C   0  0  2  0  0  0  0  0  0  0  0  0
   26.7929   25.5211    0.4263 O   0  0  0  0  0  0  0  0  0  0  0  0
   27.5387   20.3829    2.0234 C   0  0  2  0  0  0  0  0  0  0  0  0
   25.5893   24.0568    5.1318 C   0  0  2  0  0  0  0  0  0  0  0  0
   25.4303   23.3164    4.0090 O   0  0  0  0  0  0  0  0  0  0  0  0
   29.1115   26.2090   10.0151 C   0  0  2  0  0  0  0  0  0  0  0  0
   28.7707   27.5686    9.5391 O   0  0  0  0  0  0  0  0  0  0  0  0
   26.7281   23.0824    0.0235 C   0  0  2  0  0  0  0  0  0  0  0  0
   27.5885   22.0097   -0.4383 O   0  0  0  0  0  0  0  0  0  0  0  0
   26.0992   20.9816    1.8746 C   0  0  2  0  0  0  0  0  0  0  0  0
   26.1184   22.0604    2.7777 O   0  0  0  0  0  0  0  0  0  0  0  0
   25.5252   25.5625    4.6799 C   0  0  0  0  0  0  0  0  0  0  0  0
   26.4779   25.7846    3.5924 O   0  0  0  0  0  0  0  0  0  0  0  0
   30.2089   25.5926    9.0379 C   0  0  1  0  0  0  0  0  0  0  0  0
   29.5582   25.4486    7.6780 O   0  0  0  0  0  0  0  0  0  0  0  0
   25.5569   23.3156   -0.8424 C   0  0  0  0  0  0  0  0  0  0  0  0
   25.0745   22.1527   -1.3010 O   0  0  0  0  0  0  0  0  0  0  0  0
   24.9946   19.9008    2.2409 C   0  0  1  0  0  0  0  0  0  0  0  0
   23.7173   20.4430    2.0962 O   0  0  0  0  0  0  0  0  0  0  0  0
   24.8671   21.2267    6.8724 C   0  0  0  0  0  0  0  0  0  0  0  0
   31.4091   26.5985    9.0680 C   0  0  0  0  0  0  0  0  0  0  0  0
   32.0868   26.6229   10.3324 N   0  0  0  0  0  0  0  0  0  0  0  0
   24.7779   22.4689    7.7601 C   0  0  0  0  0  0  0  0  0  0  0  0
   25.3775   22.1073    9.0592 N   0  0  0  0  0  0  0  0  0  0  0  0
   25.3962   23.1646   10.1652 C   0  0  0  0  0  0  0  0  0  0  0  0
  1  2  1  1  0  0  0
  1  8  1  0  0  0  0
  1 33  1  0  0  0  0
  3  4  1  1  0  0  0
  3 10  1  0  0  0  0
  3 42  1  0  0  0  0
  5 11  1  0  0  0  0
  5 29  1  0  0  0  0
  5 35  1  6  0  0  0
  6 13  1  0  0  0  0
  6 39  1  0  0  0  0
  6 22  1  6  0  0  0
  7 15  1  0  0  0  0
  8  9  1  1  0  0  0
  8 17  1  0  0  0  0
 10 19  1  0  0  0  0
 11 12  1  1  0  0  0
 11 21  1  0  0  0  0
 12 44  1  0  0  0  0
 13 14  1  6  0  0  0
 13 23  1  0  0  0  0
 15 16  1  0  0  0  0
 17 18  1  6  0  0  0
 17 25  1  0  0  0  0
 19 20  1  1  0  0  0
 19 27  1  0  0  0  0
 21 22  1  1  0  0  0
 21 28  1  0  0  0  0
 23 24  1  6  0  0  0
 23 30  1  0  0  0  0
 25 26  1  1  0  0  0
 25 32  1  0  0  0  0
 27  2  1  6  0  0  0
 27 34  1  0  0  0  0
 28 29  1  0  0  0  0
 28 36  1  6  0  0  0
 30 31  1  6  0  0  0
 30 38  1  0  0  0  0
 32 33  1  0  0  0  0
 32 40  1  6  0  0  0
 34 35  1  1  0  0  0
 34 42  1  0  0  0  0
 36 37  1  0  0  0  0
 38 39  1  0  0  0  0
 38 45  1  6  0  0  0
 40 41  1  0  0  0  0
 42 43  1  6  0  0  0
 44 47  1  0  0  0  0
 45 46  1  0  0  0  0
 47 48  1  0  0  0  0
 48 49  1  0  0  0  0
 49  7  1  0  0  0  0
M  END
>  <CHROM.1>
165.62754826,73.60602724,-86.12301165,-76.22058958,-59.35250588,-66.70809366
-48.87788528,44.86235546,60.90417422,153.49830890,-68.71091002,68.44564482
-77.67098917,-178.69203299,40.43606502,-178.78575309,27.03185976,23.14013506
4.75178310,-1.64494581,0.71128396,1.21780258

>  <Name>
2bee_lig

>  <RI>
0

>  <Rbt.Current_Directory>
/home/itssahil/PROJECTS/Mol_Feturizer/New_Systems/rnas/2bee

>  <Rbt.Executable>
rbdock ($Id: //depot/dev/client3/rdock/2013.1/src/exe/rbdock.cxx#4 $)

>  <Rbt.Library>
libRbt.so (2013.1, Build901 2013/11/27)

>  <Rbt.Parameter_File>
/export/apps/rDock/src/rDock_2013.1_src/data/scripts/dock_solv.prm

>  <Rbt.Receptor>
prm/blind_docking_80.prm

>  <SCORE>
-12.4495

>  <SCORE.INTER>
-17.6203

>  <SCORE.INTER.CONST>
1

>  <SCORE.INTER.POLAR>
-3.19537

>  <SCORE.INTER.ROT>
16

>  <SCORE.INTER.SOLV>
34.7105

>  <SCORE.INTER.VDW>
-26.9324

>  <SCORE.INTER.norm>
-0.359598

>  <SCORE.INTRA>
-6.61306

>  <SCORE.INTRA.DIHEDRAL>
-19.4635

>  <SCORE.INTRA.DIHEDRAL.0>
36.0842

>  <SCORE.INTRA.POLAR>
0

>  <SCORE.INTRA.POLAR.0>
0

>  <SCORE.INTRA.REPUL>
0

>  <SCORE.INTRA.REPUL.0>
0

>  <SCORE.INTRA.SOLV>
1.34531

>  <SCORE.INTRA.SOLV.lig_0>
-126.444

>  <SCORE.INTRA.VDW>
2.44602

>  <SCORE.INTRA.VDW.0>
-7.40469

>  <SCORE.INTRA.norm>
-0.13496

>  <SCORE.RESTR>
11.7838

>  <SCORE.RESTR.CAVITY>
11.7838

>  <SCORE.RESTR.norm>
0.240486

>  <SCORE.SYSTEM>
0

>  <SCORE.SYSTEM.CONST>
0

>  <SCORE.SYSTEM.DIHEDRAL>
0

>  <SCORE.SYSTEM.SOLV>
0

>  <SCORE.SYSTEM.norm>
0

>  <SCORE.heavy>
49

>  <SCORE.norm>
-0.254072

>  <RMSD>
26.820

$$$$
2bee_lig
 OpenBabel11021811423D
libRbt.so/2013.1/901 2013/11/27
 49 52  0  0  0  0  0  0  0  0999 V2000
   26.7053   20.5181    0.6561 C   0  0  2  0  0  0  0  0  0  0  0  0
   28.0110   21.0025    0.9433 O   0  0  0  0  0  0  0  0  0  0  0  0
   30.4803   24.5990    0.3587 C   0  0  2  0  0  0  0  0  0  0  0  0
   30.8749   25.9613   -0.0921 N   0  0  0  0  0  0  0  0  0  0  0  0
   27.5749   23.4723    3.9388 C   0  0  1  0  0  0  0  0  0  0  0  0
   24.2672   23.5569    7.4102 C   0  0  1  0  0  0  0  0  0  0  0  0
   25.0809   28.3468    7.0694 C   0  0  0  0  0  0  0  0  0  0  0  0
   26.7827   19.0727    0.0286 C   0  0  2  0  0  0  0  0  0  0  0  0
   27.5380   18.1860    0.9072 N   0  0  0  0  0  0  0  0  0  0  0  0
   30.0388   23.7309   -0.9060 C   0  0  0  0  0  0  0  0  0  0  0  0
   27.0001   24.3033    5.0395 C   0  0  2  0  0  0  0  0  0  0  0  0
   28.0277   24.8529    5.9408 O   0  0  0  0  0  0  0  0  0  0  0  0
   25.5263   23.3162    8.4041 C   0  0  2  0  0  0  0  0  0  0  0  0
   25.9424   21.8786    8.2900 N   0  0  0  0  0  0  0  0  0  0  0  0
   25.6577   29.6379    7.1072 C   0  0  0  0  0  0  0  0  0  0  0  0
   25.0645   30.6842    6.4043 N   0  0  0  0  0  0  0  0  0  0  0  0
   27.4389   19.1623   -1.4182 C   0  0  1  0  0  0  0  0  0  0  0  0
   27.5001   17.8579   -1.9766 O   0  0  0  0  0  0  0  0  0  0  0  0
   29.5843   22.2286   -0.4501 C   0  0  2  0  0  0  0  0  0  0  0  0
   29.1972   21.4434   -1.5725 N   0  0  0  0  0  0  0  0  0  0  0  0
   25.9881   23.2880    5.5125 C   0  0  2  0  0  0  0  0  0  0  0  0
   24.7462   23.1812    6.0968 O   0  0  0  0  0  0  0  0  0  0  0  0
   25.0726   23.6497    9.8701 C   0  0  1  0  0  0  0  0  0  0  0  0
   24.6979   25.0710    9.9010 O   0  0  0  0  0  0  0  0  0  0  0  0
   26.5920   20.1096   -2.2994 C   0  0  2  0  0  0  0  0  0  0  0  0
   27.1798   20.2342   -3.6577 O   0  0  0  0  0  0  0  0  0  0  0  0
   28.3853   22.3194    0.5723 C   0  0  2  0  0  0  0  0  0  0  0  0
   26.7654   21.8931    5.3187 C   0  0  2  0  0  0  0  0  0  0  0  0
   27.4213   22.0981    4.1517 O   0  0  0  0  0  0  0  0  0  0  0  0
   23.8169   22.6884   10.2736 C   0  0  2  0  0  0  0  0  0  0  0  0
   24.2053   21.2604   10.2365 O   0  0  0  0  0  0  0  0  0  0  0  0
   26.5178   21.5379   -1.6637 C   0  0  2  0  0  0  0  0  0  0  0  0
   25.9475   21.3379   -0.3450 O   0  0  0  0  0  0  0  0  0  0  0  0
   28.8682   23.1808    1.7877 C   0  0  2  0  0  0  0  0  0  0  0  0
   27.7451   23.1764    2.6353 O   0  0  0  0  0  0  0  0  0  0  0  0
   25.9053   20.5909    5.1184 C   0  0  0  0  0  0  0  0  0  0  0  0
   26.0639   20.1101    3.7462 O   0  0  0  0  0  0  0  0  0  0  0  0
   22.6097   22.9095    9.2572 C   0  0  1  0  0  0  0  0  0  0  0  0
   23.1421   22.6189    7.8695 O   0  0  0  0  0  0  0  0  0  0  0  0
   25.6768   22.3609   -2.5532 C   0  0  0  0  0  0  0  0  0  0  0  0
   24.4587   21.8175   -2.6809 O   0  0  0  0  0  0  0  0  0  0  0  0
   29.2726   24.6441    1.3211 C   0  0  1  0  0  0  0  0  0  0  0  0
   29.7091   25.3985    2.4104 O   0  0  0  0  0  0  0  0  0  0  0  0
   28.0252   24.7251    7.4073 C   0  0  0  0  0  0  0  0  0  0  0  0
   21.4819   21.9293    9.7266 C   0  0  0  0  0  0  0  0  0  0  0  0
   21.8656   20.5499    9.6342 N   0  0  0  0  0  0  0  0  0  0  0  0
   28.1594   26.1133    8.0348 C   0  0  0  0  0  0  0  0  0  0  0  0
   27.2293   26.9999    7.3090 N   0  0  0  0  0  0  0  0  0  0  0  0
   25.8110   27.1644    7.8592 C   0  0  0  0  0  0  0  0  0  0  0  0
  1  2  1  6  0  0  0
  1  8  1  0  0  0  0
  1 33  1  0  0  0  0
  3  4  1  6  0  0  0
  3 10  1  0  0  0  0
  3 42  1  0  0  0  0
  5 11  1  0  0  0  0
  5 29  1  0  0  0  0
  5 35  1  6  0  0  0
  6 13  1  0  0  0  0
  6 39  1  0  0  0  0
  6 22  1  6  0  0  0
  7 15  1  0  0  0  0
  8  9  1  1  0  0  0
  8 17  1  0  0  0  0
 10 19  1  0  0  0  0
 11 12  1  1  0  0  0
 11 21  1  0  0  0  0
 12 44  1  0  0  0  0
 13 14  1  1  0  0  0
 13 23  1  0  0  0  0
 15 16  1  0  0  0  0
 17 18  1  6  0  0  0
 17 25  1  0  0  0  0
 19 20  1  6  0  0  0
 19 27  1  0  0  0  0
 21 22  1  1  0  0  0
 21 28  1  0  0  0  0
 23 24  1  6  0  0  0
 23 30  1  0  0  0  0
 25 26  1  6  0  0  0
 25 32  1  0  0  0  0
 27  2  1  1  0  0  0
 27 34  1  0  0  0  0
 28 29  1  0  0  0  0
 28 36  1  6  0  0  0
 30 31  1  6  0  0  0
 30 38  1  0  0  0  0
 32 33  1  0  0  0  0
 32 40  1  6  0  0  0
 34 35  1  1  0  0  0
 34 42  1  0  0  0  0
 36 37  1  0  0  0  0
 38 39  1  0  0  0  0
 38 45  1  1  0  0  0
 40 41  1  0  0  0  0
 42 43  1  1  0  0  0
 44 47  1  0  0  0  0
 45 46  1  0  0  0  0
 47 48  1  0  0  0  0
 48 49  1  0  0  0  0
 49  7  1  0  0  0  0
M  END
>  <CHROM.1>
133.61043632,115.21074586,-33.62371979,178.50475612,-127.83108797,-126.66676532
-65.17651317,-118.23210833,110.71309335,58.56116178,163.30065277,-63.26315085
45.27850946,91.88975039,170.30427408,-59.28329799,26.54910037,22.97653087
3.84449573,1.04711221,-0.97896144,-2.34132310

>  <Name>
2bee_lig

>  <RI>
0

>  <Rbt.Current_Directory>
/home/itssahil/PROJECTS/Mol_Feturizer/New_Systems/rnas/2bee

>  <Rbt.Executable>
rbdock ($Id: //depot/dev/client3/rdock/2013.1/src/exe/rbdock.cxx#4 $)

>  <Rbt.Library>
libRbt.so (2013.1, Build901 2013/11/27)

>  <Rbt.Parameter_File>
/export/apps/rDock/src/rDock_2013.1_src/data/scripts/dock_solv.prm

>  <Rbt.Receptor>
prm/blind_docking_80.prm

>  <SCORE>
27.0441

>  <SCORE.INTER>
-0.957179

>  <SCORE.INTER.CONST>
1

>  <SCORE.INTER.POLAR>
-1.33374

>  <SCORE.INTER.ROT>
16

>  <SCORE.INTER.SOLV>
32.1697

>  <SCORE.INTER.VDW>
-21.1822

>  <SCORE.INTER.norm>
-0.0195343

>  <SCORE.INTRA>
12.5816

>  <SCORE.INTRA.DIHEDRAL>
12.7539

>  <SCORE.INTRA.DIHEDRAL.0>
36.0842

>  <SCORE.INTRA.POLAR>
0

>  <SCORE.INTRA.POLAR.0>
0

>  <SCORE.INTRA.REPUL>
0

>  <SCORE.INTRA.REPUL.0>
0

>  <SCORE.INTRA.SOLV>
7.81212

>  <SCORE.INTRA.SOLV.lig_0>
-126.444

>  <SCORE.INTRA.VDW>
2.29861

>  <SCORE.INTRA.VDW.0>
-7.40469

>  <SCORE.INTRA.norm>
0.256768

>  <SCORE.RESTR>
15.4196

>  <SCORE.RESTR.CAVITY>
15.4196

>  <SCORE.RESTR.norm>
0.314686

>  <SCORE.SYSTEM>
0

>  <SCORE.SYSTEM.CONST>
0

>  <SCORE.SYSTEM.DIHEDRAL>
0

>  <SCORE.SYSTEM.SOLV>
0

>  <SCORE.SYSTEM.norm>
0

>  <SCORE.heavy>
49

>  <SCORE.norm>
0.551919

>  <RMSD>
26.825

$$$$
2bee_lig
 OpenBabel11021811423D
libRbt.so/2013.1/901 2013/11/27
 49 52  0  0  0  0  0  0  0  0999 V2000
   26.6606   25.1104    7.8485 C   0  0  2  0  0  0  0  0  0  0  0  0
   27.1485   24.3675    6.7384 O   0  0  0  0  0  0  0  0  0  0  0  0
   25.9200   20.2732    5.6886 C   0  0  2  0  0  0  0  0  0  0  0  0
   25.0795   19.1585    5.1729 N   0  0  0  0  0  0  0  0  0  0  0  0
   27.7376   23.3318    2.8403 C   0  0  1  0  0  0  0  0  0  0  0  0
   26.8551   20.5693   -0.9986 C   0  0  1  0  0  0  0  0  0  0  0  0
   30.2012   22.3704   -2.0666 C   0  0  0  0  0  0  0  0  0  0  0  0
   27.2445   26.5758    7.8264 C   0  0  2  0  0  0  0  0  0  0  0  0
   26.9541   27.2105    6.5452 N   0  0  0  0  0  0  0  0  0  0  0  0
   25.1034   21.0826    6.7958 C   0  0  0  0  0  0  0  0  0  0  0  0
   28.4310   22.7370    1.6580 C   0  0  2  0  0  0  0  0  0  0  0  0
   29.1411   23.7391    0.8445 O   0  0  0  0  0  0  0  0  0  0  0  0
   26.5939   22.0093   -1.6980 C   0  0  2  0  0  0  0  0  0  0  0  0
   25.3202   22.5745   -1.1401 N   0  0  0  0  0  0  0  0  0  0  0  0
   29.5753   21.6913   -0.9951 C   0  0  0  0  0  0  0  0  0  0  0  0
   30.3492   21.1357    0.0213 N   0  0  0  0  0  0  0  0  0  0  0  0
   28.8089   26.5226    8.1126 C   0  0  1  0  0  0  0  0  0  0  0  0
   29.3245   27.8458    8.0954 O   0  0  0  0  0  0  0  0  0  0  0  0
   25.9895   22.3262    7.3787 C   0  0  2  0  0  0  0  0  0  0  0  0
   25.2728   23.0491    8.3738 N   0  0  0  0  0  0  0  0  0  0  0  0
   27.2409   21.9773    1.1236 C   0  0  2  0  0  0  0  0  0  0  0  0
   26.9006   20.8427    0.4223 O   0  0  0  0  0  0  0  0  0  0  0  0
   26.4749   21.7939   -3.2490 C   0  0  1  0  0  0  0  0  0  0  0  0
   27.7605   21.2557   -3.7173 O   0  0  0  0  0  0  0  0  0  0  0  0
   29.0493   25.8458    9.4821 C   0  0  2  0  0  0  0  0  0  0  0  0
   30.5014   25.7614    9.7823 O   0  0  0  0  0  0  0  0  0  0  0  0
   26.3873   23.2983    6.2005 C   0  0  2  0  0  0  0  0  0  0  0  0
   26.0135   22.9660    1.4451 C   0  0  2  0  0  0  0  0  0  0  0  0
   26.3547   23.4487    2.6635 O   0  0  0  0  0  0  0  0  0  0  0  0
   25.2459   20.7642   -3.5536 C   0  0  2  0  0  0  0  0  0  0  0  0
   23.9578   21.3153   -3.0757 O   0  0  0  0  0  0  0  0  0  0  0  0
   28.4606   24.3956    9.4935 C   0  0  2  0  0  0  0  0  0  0  0  0
   27.0521   24.5547    9.1850 O   0  0  0  0  0  0  0  0  0  0  0  0
   27.1802   22.4568    5.1443 C   0  0  2  0  0  0  0  0  0  0  0  0
   27.5009   23.4141    4.1642 O   0  0  0  0  0  0  0  0  0  0  0  0
   24.5809   22.3355    1.6059 C   0  0  0  0  0  0  0  0  0  0  0  0
   24.7015   20.8846    1.7470 O   0  0  0  0  0  0  0  0  0  0  0  0
   25.5027   19.3731   -2.8201 C   0  0  1  0  0  0  0  0  0  0  0  0
   25.6567   19.6742   -1.3439 O   0  0  0  0  0  0  0  0  0  0  0  0
   28.7129   23.8401   10.8364 C   0  0  0  0  0  0  0  0  0  0  0  0
   28.1666   24.6223   11.7772 O   0  0  0  0  0  0  0  0  0  0  0  0
   26.2852   21.2762    4.5718 C   0  0  1  0  0  0  0  0  0  0  0  0
   27.0049   20.5291    3.6390 O   0  0  0  0  0  0  0  0  0  0  0  0
   30.2111   24.6241    1.3333 C   0  0  0  0  0  0  0  0  0  0  0  0
   24.2610   18.4825   -3.1640 C   0  0  0  0  0  0  0  0  0  0  0  0
   24.1441   18.2034   -4.5665 N   0  0  0  0  0  0  0  0  0  0  0  0
   30.8448   25.3522    0.1470 C   0  0  0  0  0  0  0  0  0  0  0  0
   30.3183   24.7133   -1.0747 N   0  0  0  0  0  0  0  0  0  0  0  0
   31.1522   23.6100   -1.7294 C   0  0  0  0  0  0  0  0  0  0  0  0
  1  2  1  6  0  0  0
  1  8  1  0  0  0  0
  1 33  1  0  0  0  0
  3  4  1  6  0  0  0
  3 10  1  0  0  0  0
  3 42  1  0  0  0  0
  5 11  1  0  0  0  0
  5 29  1  0  0  0  0
  5 35  1  1  0  0  0
  6 13  1  0  0  0  0
  6 39  1  0  0  0  0
  6 22  1  1  0  0  0
  7 15  1  0  0  0  0
  8  9  1  6  0  0  0
  8 17  1  0  0  0  0
 10 19  1  0  0  0  0
 11 12  1  6  0  0  0
 11 21  1  0  0  0  0
 12 44  1  0  0  0  0
 13 14  1  1  0  0  0
 13 23  1  0  0  0  0
 15 16  1  0  0  0  0
 17 18  1  1  0  0  0
 17 25  1  0  0  0  0
 19 20  1  1  0  0  0
 19 27  1  0  0  0  0
 21 22  1  6  0  0  0
 21 28  1  0  0  0  0
 23 24  1  1  0  0  0
 23 30  1  0  0  0  0
 25 26  1  6  0  0  0
 25 32  1  0  0  0  0
 27  2  1  1  0  0  0
 27 34  1  0  0  0  0
 28 29  1  0  0  0  0
 28 36  1  1  0  0  0
 30 31  1  1  0  0  0
 30 38  1  0  0  0  0
 32 33  1  0  0  0  0
 32 40  1  1  0  0  0
 34 35  1  6  0  0  0
 34 42  1  0  0  0  0
 36 37  1  0  0  0  0
 38 39  1  0  0  0  0
 38 45  1  1  0  0  0
 40 41  1  0  0  0  0
 42 43  1  6  0  0  0
 44 47  1  0  0  0  0
 45 46  1  0  0  0  0
 47 48  1  0  0  0  0
 48 49  1  0  0  0  0
 49  7  1  0  0  0  0
M  END
>  <CHROM.1>
-152.53706032,-50.65467016,-26.74012886,-57.27757435,58.85729278,170.85950636
-82.87225958,-51.68054308,13.77894596,57.29343429,-152.90744949,63.38059471
-10.26740004,-95.32787258,133.05489458,-63.29647933,27.25908018,22.76970675
2.94143255,1.42001006,0.70638014,1.32547065

>  <Name>
2bee_lig

>  <RI>
0

>  <Rbt.Current_Directory>
/home/itssahil/PROJECTS/Mol_Feturizer/New_Systems/rnas/2bee

>  <Rbt.Executable>
rbdock ($Id: //depot/dev/client3/rdock/2013.1/src/exe/rbdock.cxx#4 $)

>  <Rbt.Library>
libRbt.so (2013.1, Build901 2013/11/27)

>  <Rbt.Parameter_File>
/export/apps/rDock/src/rDock_2013.1_src/data/scripts/dock_solv.prm

>  <Rbt.Receptor>
prm/blind_docking_80.prm

>  <SCORE>
16.0456

>  <SCORE.INTER>
-7.68994

>  <SCORE.INTER.CONST>
1

>  <SCORE.INTER.POLAR>
0

>  <SCORE.INTER.ROT>
16

>  <SCORE.INTER.SOLV>
27.2269

>  <SCORE.INTER.VDW>
-28.4689

>  <SCORE.INTER.norm>
-0.156938

>  <SCORE.INTRA>
9.31339

>  <SCORE.INTRA.DIHEDRAL>
-7.87878

>  <SCORE.INTRA.DIHEDRAL.0>
36.0842

>  <SCORE.INTRA.POLAR>
0

>  <SCORE.INTRA.POLAR.0>
0

>  <SCORE.INTRA.REPUL>
0.0948766

>  <SCORE.INTRA.REPUL.0>
0

>  <SCORE.INTRA.SOLV>
12.2047

>  <SCORE.INTRA.SOLV.lig_0>
-126.444

>  <SCORE.INTRA.VDW>
6.67605

>  <SCORE.INTRA.VDW.0>
-7.40469

>  <SCORE.INTRA.norm>
0.190069

>  <SCORE.RESTR>
14.4222

>  <SCORE.RESTR.CAVITY>
14.4222

>  <SCORE.RESTR.norm>
0.29433

>  <SCORE.SYSTEM>
0

>  <SCORE.SYSTEM.CONST>
0

>  <SCORE.SYSTEM.DIHEDRAL>
0

>  <SCORE.SYSTEM.SOLV>
0

>  <SCORE.SYSTEM.norm>
0

>  <SCORE.heavy>
49

>  <SCORE.norm>
0.327462

>  <RMSD>
26.873

$$$$
2bee_lig
 OpenBabel11021811423D
libRbt.so/2013.1/901 2013/11/27
 49 52  0  0  0  0  0  0  0  0999 V2000
   27.4981   22.5987    0.3940 C   0  0  2  0  0  0  0  0  0  0  0  0
   26.3890   22.1393    1.1561 O   0  0  0  0  0  0  0  0  0  0  0  0
   25.3305   18.2633    2.9533 C   0  0  2  0  0  0  0  0  0  0  0  0
   25.4760   16.9939    3.7164 N   0  0  0  0  0  0  0  0  0  0  0  0
   25.5762   22.2188    5.1317 C   0  0  1  0  0  0  0  0  0  0  0  0
   27.9096   24.8510    8.4080 C   0  0  1  0  0  0  0  0  0  0  0  0
   23.2241   24.8988   10.5699 C   0  0  0  0  0  0  0  0  0  0  0  0
   27.2196   24.0497   -0.1592 C   0  0  2  0  0  0  0  0  0  0  0  0
   26.8737   24.9457    0.9390 N   0  0  0  0  0  0  0  0  0  0  0  0
   26.4466   18.3262    1.8140 C   0  0  0  0  0  0  0  0  0  0  0  0
   26.0856   21.9928    6.5181 C   0  0  2  0  0  0  0  0  0  0  0  0
   25.0340   21.5546    7.4521 O   0  0  0  0  0  0  0  0  0  0  0  0
   28.9665   25.9952    7.9555 C   0  0  2  0  0  0  0  0  0  0  0  0
   30.2704   25.3247    7.6339 N   0  0  0  0  0  0  0  0  0  0  0  0
   23.0693   24.9295   11.9755 C   0  0  0  0  0  0  0  0  0  0  0  0
   24.1502   25.2695   12.7859 N   0  0  0  0  0  0  0  0  0  0  0  0
   26.0614   23.9836   -1.2484 C   0  0  1  0  0  0  0  0  0  0  0  0
   25.8211   25.2928   -1.7437 O   0  0  0  0  0  0  0  0  0  0  0  0
   26.3284   19.7149    0.9602 C   0  0  2  0  0  0  0  0  0  0  0  0
   27.3144   19.7763   -0.0647 N   0  0  0  0  0  0  0  0  0  0  0  0
   26.7771   23.3263    6.6679 C   0  0  2  0  0  0  0  0  0  0  0  0
   27.8444   23.9342    7.2895 O   0  0  0  0  0  0  0  0  0  0  0  0
   29.1398   27.0086    9.1425 C   0  0  1  0  0  0  0  0  0  0  0  0
   27.8294   27.6301    9.3838 O   0  0  0  0  0  0  0  0  0  0  0  0
   26.4897   23.0252   -2.3838 C   0  0  2  0  0  0  0  0  0  0  0  0
   25.4278   22.9220   -3.4171 O   0  0  0  0  0  0  0  0  0  0  0  0
   26.4901   20.9525    1.9263 C   0  0  2  0  0  0  0  0  0  0  0  0
   25.7953   24.3273    5.8796 C   0  0  2  0  0  0  0  0  0  0  0  0
   25.4198   23.5735    4.8190 O   0  0  0  0  0  0  0  0  0  0  0  0
   29.6752   26.2054   10.4584 C   0  0  2  0  0  0  0  0  0  0  0  0
   30.9934   25.5822   10.2028 O   0  0  0  0  0  0  0  0  0  0  0  0
   26.7688   21.5912   -1.8219 C   0  0  2  0  0  0  0  0  0  0  0  0
   27.8012   21.7705   -0.8187 O   0  0  0  0  0  0  0  0  0  0  0  0
   25.3776   20.8411    3.0229 C   0  0  2  0  0  0  0  0  0  0  0  0
   25.5975   21.9907    3.8040 O   0  0  0  0  0  0  0  0  0  0  0  0
   26.4102   25.6484    5.2859 C   0  0  0  0  0  0  0  0  0  0  0  0
   27.5565   25.3140    4.4412 O   0  0  0  0  0  0  0  0  0  0  0  0
   28.6435   25.0582   10.8568 C   0  0  1  0  0  0  0  0  0  0  0  0
   28.4945   24.1590    9.6473 O   0  0  0  0  0  0  0  0  0  0  0  0
   27.1912   20.7573   -2.9629 C   0  0  0  0  0  0  0  0  0  0  0  0
   26.1606   20.5399   -3.7910 O   0  0  0  0  0  0  0  0  0  0  0  0
   25.5359   19.4991    3.8574 C   0  0  1  0  0  0  0  0  0  0  0  0
   24.5348   19.4072    4.8246 O   0  0  0  0  0  0  0  0  0  0  0  0
   25.2273   21.3046    8.8898 C   0  0  0  0  0  0  0  0  0  0  0  0
   29.2670   24.3493   12.1065 C   0  0  0  0  0  0  0  0  0  0  0  0
   30.5284   23.7264   11.8247 N   0  0  0  0  0  0  0  0  0  0  0  0
   25.9963   22.4740    9.5063 C   0  0  0  0  0  0  0  0  0  0  0  0
   25.1207   23.6579    9.4079 N   0  0  0  0  0  0  0  0  0  0  0  0
   23.6724   23.5264    9.8840 C   0  0  0  0  0  0  0  0  0  0  0  0
  1  2  1  6  0  0  0
  1  8  1  0  0  0  0
  1 33  1  0  0  0  0
  3  4  1  1  0  0  0
  3 10  1  0  0  0  0
  3 42  1  0  0  0  0
  5 11  1  0  0  0  0
  5 29  1  0  0  0  0
  5 35  1  6  0  0  0
  6 13  1  0  0  0  0
  6 39  1  0  0  0  0
  6 22  1  6  0  0  0
  7 15  1  0  0  0  0
  8  9  1  1  0  0  0
  8 17  1  0  0  0  0
 10 19  1  0  0  0  0
 11 12  1  1  0  0  0
 11 21  1  0  0  0  0
 12 44  1  0  0  0  0
 13 14  1  1  0  0  0
 13 23  1  0  0  0  0
 15 16  1  0  0  0  0
 17 18  1  6  0  0  0
 17 25  1  0  0  0  0
 19 20  1  6  0  0  0
 19 27  1  0  0  0  0
 21 22  1  1  0  0  0
 21 28  1  0  0  0  0
 23 24  1  1  0  0  0
 23 30  1  0  0  0  0
 25 26  1  6  0  0  0
 25 32  1  0  0  0  0
 27  2  1  6  0  0  0
 27 34  1  0  0  0  0
 28 29  1  0  0  0  0
 28 36  1  6  0  0  0
 30 31  1  6  0  0  0
 30 38  1  0  0  0  0
 32 33  1  0  0  0  0
 32 40  1  6  0  0  0
 34 35  1  1  0  0  0
 34 42  1  0  0  0  0
 36 37  1  0  0  0  0
 38 39  1  0  0  0  0
 38 45  1  1  0  0  0
 40 41  1  0  0  0  0
 42 43  1  1  0  0  0
 44 47  1  0  0  0  0
 45 46  1  0  0  0  0
 47 48  1  0  0  0  0
 48 49  1  0  0  0  0
 49  7  1  0  0  0  0
M  END
>  <CHROM.1>
-170.06871252,62.44025575,-135.79604814,90.33660715,-177.59636412,47.55915590
-106.80104748,-79.08998696,53.68477691,-69.61519905,-139.17026556,-62.47329267
65.53534111,49.15183759,143.84000213,-107.94378239,26.66669972,23.01748499
4.97769657,-1.71554056,0.99119875,1.40627631

>  <Name>
2bee_lig

>  <RI>
0

>  <Rbt.Current_Directory>
/home/itssahil/PROJECTS/Mol_Feturizer/New_Systems/rnas/2bee

>  <Rbt.Executable>
rbdock ($Id: //depot/dev/client3/rdock/2013.1/src/exe/rbdock.cxx#4 $)

>  <Rbt.Library>
libRbt.so (2013.1, Build901 2013/11/27)

>  <Rbt.Parameter_File>
/export/apps/rDock/src/rDock_2013.1_src/data/scripts/dock_solv.prm

>  <Rbt.Receptor>
prm/blind_docking_80.prm

>  <SCORE>
26.697

>  <SCORE.INTER>
8.89776

>  <SCORE.INTER.CONST>
1

>  <SCORE.INTER.POLAR>
-0.863517

>  <SCORE.INTER.ROT>
16

>  <SCORE.INTER.SOLV>
48.5779

>  <SCORE.INTER.VDW>
-21.6491

>  <SCORE.INTER.norm>
0.181587

>  <SCORE.INTRA>
8.4857

>  <SCORE.INTRA.DIHEDRAL>
-8.35746

>  <SCORE.INTRA.DIHEDRAL.0>
36.0842

>  <SCORE.INTRA.POLAR>
0

>  <SCORE.INTRA.POLAR.0>
0

>  <SCORE.INTRA.REPUL>
0.0086005

>  <SCORE.INTRA.REPUL.0>
0

>  <SCORE.INTRA.SOLV>
6.38094

>  <SCORE.INTRA.SOLV.lig_0>
-126.444

>  <SCORE.INTRA.VDW>
9.43096

>  <SCORE.INTRA.VDW.0>
-7.40469

>  <SCORE.INTRA.norm>
0.173178

>  <SCORE.RESTR>
9.31349

>  <SCORE.RESTR.CAVITY>
9.31349

>  <SCORE.RESTR.norm>
0.190071

>  <SCORE.SYSTEM>
0

>  <SCORE.SYSTEM.CONST>
0

>  <SCORE.SYSTEM.DIHEDRAL>
0

>  <SCORE.SYSTEM.SOLV>
0

>  <SCORE.SYSTEM.norm>
0

>  <SCORE.heavy>
49

>  <SCORE.norm>
0.544836

>  <RMSD>
27.125

$$$$
2bee_lig
 OpenBabel11021811423D
libRbt.so/2013.1/901 2013/11/27
 49 52  0  0  0  0  0  0  0  0999 V2000
   25.2867   22.5954   -2.1410 C   0  0  2  0  0  0  0  0  0  0  0  0
   24.4758   22.0602   -1.1027 O   0  0  0  0  0  0  0  0  0  0  0  0
   24.7477   19.2866    2.3042 C   0  0  2  0  0  0  0  0  0  0  0  0
   25.3168   18.2791    3.2401 N   0  0  0  0  0  0  0  0  0  0  0  0
   26.0296   23.7572    2.1976 C   0  0  1  0  0  0  0  0  0  0  0  0
   26.6151   23.6906    6.8344 C   0  0  1  0  0  0  0  0  0  0  0  0
   24.8975   30.4885    6.2852 C   0  0  0  0  0  0  0  0  0  0  0  0
   25.7191   21.4550   -3.1417 C   0  0  2  0  0  0  0  0  0  0  0  0
   24.5404   20.7564   -3.6431 N   0  0  0  0  0  0  0  0  0  0  0  0
   24.8019   18.7147    0.8150 C   0  0  0  0  0  0  0  0  0  0  0  0
   25.8003   24.4843    3.4826 C   0  0  2  0  0  0  0  0  0  0  0  0
   25.7872   25.9484    3.3195 O   0  0  0  0  0  0  0  0  0  0  0  0
   26.3900   25.2968    6.8132 C   0  0  2  0  0  0  0  0  0  0  0  0
   27.7181   25.9507    6.5651 N   0  0  0  0  0  0  0  0  0  0  0  0
   25.7196   30.0159    7.3348 C   0  0  0  0  0  0  0  0  0  0  0  0
   25.3224   28.9104    8.0838 N   0  0  0  0  0  0  0  0  0  0  0  0
   26.7200   20.4612   -2.4051 C   0  0  1  0  0  0  0  0  0  0  0  0
   27.1072   19.4413   -3.3145 O   0  0  0  0  0  0  0  0  0  0  0  0
   24.1966   19.7998   -0.2470 C   0  0  2  0  0  0  0  0  0  0  0  0
   24.2323   19.2951   -1.5776 N   0  0  0  0  0  0  0  0  0  0  0  0
   26.8773   23.7819    4.2735 C   0  0  2  0  0  0  0  0  0  0  0  0
   27.1999   23.3748    5.5483 O   0  0  0  0  0  0  0  0  0  0  0  0
   25.8052   25.7347    8.2034 C   0  0  1  0  0  0  0  0  0  0  0  0
   24.5050   25.0670    8.3625 O   0  0  0  0  0  0  0  0  0  0  0  0
   27.9460   21.2589   -1.9033 C   0  0  2  0  0  0  0  0  0  0  0  0
   28.9011   20.3695   -1.1942 O   0  0  0  0  0  0  0  0  0  0  0  0
   25.0205   21.1436   -0.1673 C   0  0  2  0  0  0  0  0  0  0  0  0
   28.0416   23.5737    3.1833 C   0  0  2  0  0  0  0  0  0  0  0  0
   27.3323   23.2624    2.0724 O   0  0  0  0  0  0  0  0  0  0  0  0
   26.8490   25.3059    9.3823 C   0  0  2  0  0  0  0  0  0  0  0  0
   28.1546   25.9821    9.2103 O   0  0  0  0  0  0  0  0  0  0  0  0
   27.5038   22.3905   -0.9166 C   0  0  2  0  0  0  0  0  0  0  0  0
   26.5714   23.2081   -1.6692 O   0  0  0  0  0  0  0  0  0  0  0  0
   24.9381   21.6586    1.3093 C   0  0  2  0  0  0  0  0  0  0  0  0
   25.6762   22.8556    1.2608 O   0  0  0  0  0  0  0  0  0  0  0  0
   29.0563   22.3917    3.4042 C   0  0  0  0  0  0  0  0  0  0  0  0
   29.9832   22.3293    2.2744 O   0  0  0  0  0  0  0  0  0  0  0  0
   27.0890   23.7309    9.3546 C   0  0  1  0  0  0  0  0  0  0  0  0
   27.6006   23.3865    7.9714 O   0  0  0  0  0  0  0  0  0  0  0  0
   28.7266   23.1089   -0.5111 C   0  0  0  0  0  0  0  0  0  0  0  0
   28.4188   24.3160   -0.0176 O   0  0  0  0  0  0  0  0  0  0  0  0
   25.5619   20.5995    2.3152 C   0  0  1  0  0  0  0  0  0  0  0  0
   25.4747   21.0655    3.6273 O   0  0  0  0  0  0  0  0  0  0  0  0
   25.6680   26.9226    4.4167 C   0  0  0  0  0  0  0  0  0  0  0  0
   28.1130   23.4427   10.5042 C   0  0  0  0  0  0  0  0  0  0  0  0
   29.2671   24.2935   10.4514 N   0  0  0  0  0  0  0  0  0  0  0  0
   24.2336   26.9122    4.9470 C   0  0  0  0  0  0  0  0  0  0  0  0
   24.0662   28.1425    5.7448 N   0  0  0  0  0  0  0  0  0  0  0  0
   24.4930   29.4723    5.1197 C   0  0  0  0  0  0  0  0  0  0  0  0
  1  2  1  1  0  0  0
  1  8  1  0  0  0  0
  1 33  1  0  0  0  0
  3  4  1  1  0  0  0
  3 10  1  0  0  0  0
  3 42  1  0  0  0  0
  5 11  1  0  0  0  0
  5 29  1  0  0  0  0
  5 35  1  1  0  0  0
  6 13  1  0  0  0  0
  6 39  1  0  0  0  0
  6 22  1  6  0  0  0
  7 15  1  0  0  0  0
  8  9  1  1  0  0  0
  8 17  1  0  0  0  0
 10 19  1  0  0  0  0
 11 12  1  6  0  0  0
 11 21  1  0  0  0  0
 12 44  1  0  0  0  0
 13 14  1  1  0  0  0
 13 23  1  0  0  0  0
 15 16  1  0  0  0  0
 17 18  1  6  0  0  0
 17 25  1  0  0  0  0
 19 20  1  6  0  0  0
 19 27  1  0  0  0  0
 21 22  1  1  0  0  0
 21 28  1  0  0  0  0
 23 24  1  1  0  0  0
 23 30  1  0  0  0  0
 25 26  1  1  0  0  0
 25 32  1  0  0  0  0
 27  2  1  6  0  0  0
 27 34  1  0  0  0  0
 28 29  1  0  0  0  0
 28 36  1  1  0  0  0
 30 31  1  6  0  0  0
 30 38  1  0  0  0  0
 32 33  1  0  0  0  0
 32 40  1  6  0  0  0
 34 35  1  6  0  0  0
 34 42  1  0  0  0  0
 36 37  1  0  0  0  0
 38 39  1  0  0  0  0
 38 45  1  1  0  0  0
 40 41  1  0  0  0  0
 42 43  1  1  0  0  0
 44 47  1  0  0  0  0
 45 46  1  0  0  0  0
 47 48  1  0  0  0  0
 48 49  1  0  0  0  0
 49  7  1  0  0  0  0
M  END
>  <CHROM.1>
65.94205933,-29.05518448,-45.05172587,-56.42508406,-175.94568975,-72.91568618
-12.13516840,-120.98152876,176.95002263,160.83294871,-177.20596771,-50.14658398
-163.94242819,49.77396670,-152.87639436,45.19570575,26.36556921,23.47100436
3.18244888,1.65069911,1.24592679,-2.19001805

>  <Name>
2bee_lig

>  <RI>
0

>  <Rbt.Current_Directory>
/home/itssahil/PROJECTS/Mol_Feturizer/New_Systems/rnas/2bee

>  <Rbt.Executable>
rbdock ($Id: //depot/dev/client3/rdock/2013.1/src/exe/rbdock.cxx#4 $)

>  <Rbt.Library>
libRbt.so (2013.1, Build901 2013/11/27)

>  <Rbt.Parameter_File>
/export/apps/rDock/src/rDock_2013.1_src/data/scripts/dock_solv.prm

>  <Rbt.Receptor>
prm/blind_docking_80.prm

>  <SCORE>
10.2176

>  <SCORE.INTER>
-5.68187

>  <SCORE.INTER.CONST>
1

>  <SCORE.INTER.POLAR>
-1.46412

>  <SCORE.INTER.ROT>
16

>  <SCORE.INTER.SOLV>
27.8251

>  <SCORE.INTER.VDW>
-22.4492

>  <SCORE.INTER.norm>
-0.115957

>  <SCORE.INTRA>
2.32804

>  <SCORE.INTRA.DIHEDRAL>
-15.9863

>  <SCORE.INTRA.DIHEDRAL.0>
36.0842

>  <SCORE.INTRA.POLAR>
0

>  <SCORE.INTRA.POLAR.0>
0

>  <SCORE.INTRA.REPUL>
0

>  <SCORE.INTRA.REPUL.0>
0

>  <SCORE.INTRA.SOLV>
14.3904

>  <SCORE.INTRA.SOLV.lig_0>
-126.444

>  <SCORE.INTRA.VDW>
3.12598

>  <SCORE.INTRA.VDW.0>
-7.40469

>  <SCORE.INTRA.norm>
0.047511

>  <SCORE.RESTR>
13.5714

>  <SCORE.RESTR.CAVITY>
13.5714

>  <SCORE.RESTR.norm>
0.276968

>  <SCORE.SYSTEM>
0

>  <SCORE.SYSTEM.CONST>
0

>  <SCORE.SYSTEM.DIHEDRAL>
0

>  <SCORE.SYSTEM.SOLV>
0

>  <SCORE.SYSTEM.norm>
0

>  <SCORE.heavy>
49

>  <SCORE.norm>
0.208523

>  <RMSD>
27.222

$$$$
2bee_lig
 OpenBabel11021811423D
libRbt.so/2013.1/901 2013/11/27
 49 52  0  0  0  0  0  0  0  0999 V2000
   27.3238   18.4399    1.6940 C   0  0  2  0  0  0  0  0  0  0  0  0
   28.1118   19.5708    2.0438 O   0  0  0  0  0  0  0  0  0  0  0  0
   28.0903   23.9512    1.6130 C   0  0  2  0  0  0  0  0  0  0  0  0
   27.6204   25.3135    1.2414 N   0  0  0  0  0  0  0  0  0  0  0  0
   26.2359   21.4994    5.0673 C   0  0  1  0  0  0  0  0  0  0  0  0
   25.3496   25.8376    6.6185 C   0  0  1  0  0  0  0  0  0  0  0  0
   28.3470   23.7555   10.5254 C   0  0  0  0  0  0  0  0  0  0  0  0
   27.1568   18.3517    0.1277 C   0  0  2  0  0  0  0  0  0  0  0  0
   28.4662   18.3539   -0.5157 N   0  0  0  0  0  0  0  0  0  0  0  0
   28.1260   23.0304    0.3097 C   0  0  0  0  0  0  0  0  0  0  0  0
   26.3323   21.9081    6.5013 C   0  0  2  0  0  0  0  0  0  0  0  0
   25.5981   21.0066    7.4060 O   0  0  0  0  0  0  0  0  0  0  0  0
   26.3911   26.8546    5.9029 C   0  0  2  0  0  0  0  0  0  0  0  0
   27.5907   26.9969    6.7939 N   0  0  0  0  0  0  0  0  0  0  0  0
   28.9250   24.5718    9.5252 C   0  0  0  0  0  0  0  0  0  0  0  0
   28.7280   25.9506    9.5547 N   0  0  0  0  0  0  0  0  0  0  0  0
   26.2556   19.5634   -0.3738 C   0  0  1  0  0  0  0  0  0  0  0  0
   26.1070   19.4731   -1.7833 O   0  0  0  0  0  0  0  0  0  0  0  0
   28.6255   21.5186    0.6793 C   0  0  2  0  0  0  0  0  0  0  0  0
   28.6693   20.6919   -0.4787 N   0  0  0  0  0  0  0  0  0  0  0  0
   25.9157   23.3450    6.3000 C   0  0  2  0  0  0  0  0  0  0  0  0
   26.0931   24.6106    6.8117 O   0  0  0  0  0  0  0  0  0  0  0  0
   25.6770   28.2392    5.7056 C   0  0  1  0  0  0  0  0  0  0  0  0
   24.5289   28.0178    4.8143 O   0  0  0  0  0  0  0  0  0  0  0  0
   24.8846   19.5022    0.3389 C   0  0  2  0  0  0  0  0  0  0  0  0
   24.0153   20.6276   -0.0899 O   0  0  0  0  0  0  0  0  0  0  0  0
   27.6560   20.8813    1.7494 C   0  0  2  0  0  0  0  0  0  0  0  0
   24.8101   23.2359    5.1367 C   0  0  2  0  0  0  0  0  0  0  0  0
   25.3440   22.2870    4.3314 O   0  0  0  0  0  0  0  0  0  0  0  0
   25.2069   28.8112    7.1600 C   0  0  2  0  0  0  0  0  0  0  0  0
   26.3705   29.0277    8.0491 O   0  0  0  0  0  0  0  0  0  0  0  0
   25.0639   19.5845    1.8916 C   0  0  2  0  0  0  0  0  0  0  0  0
   25.9255   18.4690    2.2344 O   0  0  0  0  0  0  0  0  0  0  0  0
   27.6548   21.8218    3.0016 C   0  0  2  0  0  0  0  0  0  0  0  0
   26.7893   21.1548    3.8881 O   0  0  0  0  0  0  0  0  0  0  0  0
   24.5667   24.4982    4.2296 C   0  0  0  0  0  0  0  0  0  0  0  0
   23.6370   24.1522    3.1547 O   0  0  0  0  0  0  0  0  0  0  0  0
   24.2207   27.7755    7.8627 C   0  0  1  0  0  0  0  0  0  0  0  0
   24.9638   26.4600    7.9677 O   0  0  0  0  0  0  0  0  0  0  0  0
   23.7164   19.4953    2.4849 C   0  0  0  0  0  0  0  0  0  0  0  0
   23.7931   19.4893    3.8226 O   0  0  0  0  0  0  0  0  0  0  0  0
   27.1352   23.2734    2.6205 C   0  0  1  0  0  0  0  0  0  0  0  0
   27.1470   24.1037    3.7415 O   0  0  0  0  0  0  0  0  0  0  0  0
   24.5566   21.4251    8.3585 C   0  0  0  0  0  0  0  0  0  0  0  0
   23.8568   28.4153    9.2452 C   0  0  0  0  0  0  0  0  0  0  0  0
   22.9913   27.5867   10.0345 N   0  0  0  0  0  0  0  0  0  0  0  0
   24.9357   22.7805    8.9570 C   0  0  0  0  0  0  0  0  0  0  0  0
   26.2993   22.6378    9.5032 N   0  0  0  0  0  0  0  0  0  0  0  0
   26.7544   23.6285   10.5768 C   0  0  0  0  0  0  0  0  0  0  0  0
  1  2  1  6  0  0  0
  1  8  1  0  0  0  0
  1 33  1  0  0  0  0
  3  4  1  6  0  0  0
  3 10  1  0  0  0  0
  3 42  1  0  0  0  0
  5 11  1  0  0  0  0
  5 29  1  0  0  0  0
  5 35  1  6  0  0  0
  6 13  1  0  0  0  0
  6 39  1  0  0  0  0
  6 22  1  1  0  0  0
  7 15  1  0  0  0  0
  8  9  1  6  0  0  0
  8 17  1  0  0  0  0
 10 19  1  0  0  0  0
 11 12  1  1  0  0  0
 11 21  1  0  0  0  0
 12 44  1  0  0  0  0
 13 14  1  1  0  0  0
 13 23  1  0  0  0  0
 15 16  1  0  0  0  0
 17 18  1  6  0  0  0
 17 25  1  0  0  0  0
 19 20  1  6  0  0  0
 19 27  1  0  0  0  0
 21 22  1  1  0  0  0
 21 28  1  0  0  0  0
 23 24  1  6  0  0  0
 23 30  1  0  0  0  0
 25 26  1  6  0  0  0
 25 32  1  0  0  0  0
 27  2  1  1  0  0  0
 27 34  1  0  0  0  0
 28 29  1  0  0  0  0
 28 36  1  6  0  0  0
 30 31  1  1  0  0  0
 30 38  1  0  0  0  0
 32 33  1  0  0  0  0
 32 40  1  1  0  0  0
 34 35  1  1  0  0  0
 34 42  1  0  0  0  0
 36 37  1  0  0  0  0
 38 39  1  0  0  0  0
 38 45  1  1  0  0  0
 40 41  1  0  0  0  0
 42 43  1  1  0  0  0
 44 47  1  0  0  0  0
 45 46  1  0  0  0  0
 47 48  1  0  0  0  0
 48 49  1  0  0  0  0
 49  7  1  0  0  0  0
M  END
>  <CHROM.1>
63.25046125,-60.64466491,-116.49880862,66.83330763,-124.70123462,-37.10272479
-164.57217525,-114.13673549,174.03303143,176.80340531,-170.86888190,-178.46821580
-53.57811972,-158.61316151,-153.71052919,79.21131849,26.14787590,23.09387097
4.62182593,0.17957142,-1.48095101,2.61581456

>  <Name>
2bee_lig

>  <RI>
0

>  <Rbt.Current_Directory>
/home/itssahil/PROJECTS/Mol_Feturizer/New_Systems/rnas/2bee

>  <Rbt.Executable>
rbdock ($Id: //depot/dev/client3/rdock/2013.1/src/exe/rbdock.cxx#4 $)

>  <Rbt.Library>
libRbt.so (2013.1, Build901 2013/11/27)

>  <Rbt.Parameter_File>
/export/apps/rDock/src/rDock_2013.1_src/data/scripts/dock_solv.prm

>  <Rbt.Receptor>
prm/blind_docking_80.prm

>  <SCORE>
25.1776

>  <SCORE.INTER>
0.813849

>  <SCORE.INTER.CONST>
1

>  <SCORE.INTER.POLAR>
-0.709064

>  <SCORE.INTER.ROT>
16

>  <SCORE.INTER.SOLV>
25.2303

>  <SCORE.INTER.VDW>
-19.7707

>  <SCORE.INTER.norm>
0.0166092

>  <SCORE.INTRA>
9.97058

>  <SCORE.INTRA.DIHEDRAL>
-4.19275

>  <SCORE.INTRA.DIHEDRAL.0>
36.0842

>  <SCORE.INTRA.POLAR>
0

>  <SCORE.INTRA.POLAR.0>
0

>  <SCORE.INTRA.REPUL>
0.0332664

>  <SCORE.INTRA.REPUL.0>
0

>  <SCORE.INTRA.SOLV>
9.84853

>  <SCORE.INTRA.SOLV.lig_0>
-126.444

>  <SCORE.INTRA.VDW>
6.97635

>  <SCORE.INTRA.VDW.0>
-7.40469

>  <SCORE.INTRA.norm>
0.203481

>  <SCORE.RESTR>
14.3932

>  <SCORE.RESTR.CAVITY>
14.3932

>  <SCORE.RESTR.norm>
0.293739

>  <SCORE.SYSTEM>
0

>  <SCORE.SYSTEM.CONST>
0

>  <SCORE.SYSTEM.DIHEDRAL>
0

>  <SCORE.SYSTEM.SOLV>
0

>  <SCORE.SYSTEM.norm>
0

>  <SCORE.heavy>
49

>  <SCORE.norm>
0.51383

>  <RMSD>
27.393

$$$$
2bee_lig
 OpenBabel11021811423D
libRbt.so/2013.1/901 2013/11/27
 49 52  0  0  0  0  0  0  0  0999 V2000
   25.9459   22.2300   -0.1646 C   0  0  2  0  0  0  0  0  0  0  0  0
   25.9367   20.8622    0.2245 O   0  0  0  0  0  0  0  0  0  0  0  0
   24.2499   19.5308    4.0659 C   0  0  2  0  0  0  0  0  0  0  0  0
   24.1926   19.1022    5.4899 N   0  0  0  0  0  0  0  0  0  0  0  0
   25.6311   23.7103    3.0743 C   0  0  1  0  0  0  0  0  0  0  0  0
   25.7886   23.2922    7.7089 C   0  0  1  0  0  0  0  0  0  0  0  0
   24.5183   28.9971    8.1679 C   0  0  0  0  0  0  0  0  0  0  0  0
   26.1811   22.3557   -1.7196 C   0  0  2  0  0  0  0  0  0  0  0  0
   25.1890   21.5656   -2.4409 N   0  0  0  0  0  0  0  0  0  0  0  0
   25.2413   18.5704    3.2642 C   0  0  0  0  0  0  0  0  0  0  0  0
   25.1836   24.8039    3.9889 C   0  0  2  0  0  0  0  0  0  0  0  0
   25.7358   26.1200    3.6238 O   0  0  0  0  0  0  0  0  0  0  0  0
   24.5813   23.0869    8.7724 C   0  0  2  0  0  0  0  0  0  0  0  0
   24.0497   24.4412    9.1418 N   0  0  0  0  0  0  0  0  0  0  0  0
   25.7605   28.3531    8.3753 C   0  0  0  0  0  0  0  0  0  0  0  0
   26.7604   28.9921    9.1052 N   0  0  0  0  0  0  0  0  0  0  0  0
   27.6635   21.8926   -2.0661 C   0  0  1  0  0  0  0  0  0  0  0  0
   27.8673   22.0137   -3.4664 O   0  0  0  0  0  0  0  0  0  0  0  0
   25.3421   19.0175    1.6953 C   0  0  2  0  0  0  0  0  0  0  0  0
   26.2173   18.1610    0.9696 N   0  0  0  0  0  0  0  0  0  0  0  0
   25.5576   24.1146    5.2788 C   0  0  2  0  0  0  0  0  0  0  0  0
   25.1988   24.0187    6.6043 O   0  0  0  0  0  0  0  0  0  0  0  0
   25.1524   22.3496   10.0359 C   0  0  1  0  0  0  0  0  0  0  0  0
   25.6362   21.0332    9.5945 O   0  0  0  0  0  0  0  0  0  0  0  0
   28.6639   22.7686   -1.2768 C   0  0  2  0  0  0  0  0  0  0  0  0
   30.0631   22.3586   -1.5598 O   0  0  0  0  0  0  0  0  0  0  0  0
   25.8544   20.5070    1.5953 C   0  0  2  0  0  0  0  0  0  0  0  0
   26.9067   23.3315    4.8861 C   0  0  2  0  0  0  0  0  0  0  0  0
   26.6255   22.9004    3.6335 O   0  0  0  0  0  0  0  0  0  0  0  0
   26.3540   23.2458   10.6811 C   0  0  2  0  0  0  0  0  0  0  0  0
   25.8558   24.5691   11.1193 O   0  0  0  0  0  0  0  0  0  0  0  0
   28.4168   22.6401    0.2634 C   0  0  2  0  0  0  0  0  0  0  0  0
   27.0379   23.0443    0.4621 O   0  0  0  0  0  0  0  0  0  0  0  0
   24.8524   21.4037    2.3980 C   0  0  2  0  0  0  0  0  0  0  0  0
   25.3851   22.6944    2.2241 O   0  0  0  0  0  0  0  0  0  0  0  0
   27.2853   22.0510    5.7185 C   0  0  0  0  0  0  0  0  0  0  0  0
   28.1871   21.2094    4.9324 O   0  0  0  0  0  0  0  0  0  0  0  0
   27.5068   23.4720    9.6045 C   0  0  1  0  0  0  0  0  0  0  0  0
   26.8657   24.1367    8.4042 O   0  0  0  0  0  0  0  0  0  0  0  0
   29.3935   23.5215    0.9303 C   0  0  0  0  0  0  0  0  0  0  0  0
   30.5359   22.8619    1.1650 O   0  0  0  0  0  0  0  0  0  0  0  0
   24.7987   20.9681    3.9244 C   0  0  1  0  0  0  0  0  0  0  0  0
   23.8968   21.7679    4.6266 O   0  0  0  0  0  0  0  0  0  0  0  0
   25.8897   27.2594    4.5430 C   0  0  0  0  0  0  0  0  0  0  0  0
   28.5840   24.3533   10.3228 C   0  0  0  0  0  0  0  0  0  0  0  0
   29.6433   24.7660    9.4475 N   0  0  0  0  0  0  0  0  0  0  0  0
   24.6334   28.1294    4.4827 C   0  0  0  0  0  0  0  0  0  0  0  0
   24.0347   28.1059    5.8314 N   0  0  0  0  0  0  0  0  0  0  0  0
   24.1015   29.3818    6.6735 C   0  0  0  0  0  0  0  0  0  0  0  0
  1  2  1  1  0  0  0
  1  8  1  0  0  0  0
  1 33  1  0  0  0  0
  3  4  1  1  0  0  0
  3 10  1  0  0  0  0
  3 42  1  0  0  0  0
  5 11  1  0  0  0  0
  5 29  1  0  0  0  0
  5 35  1  1  0  0  0
  6 13  1  0  0  0  0
  6 39  1  0  0  0  0
  6 22  1  6  0  0  0
  7 15  1  0  0  0  0
  8  9  1  6  0  0  0
  8 17  1  0  0  0  0
 10 19  1  0  0  0  0
 11 12  1  6  0  0  0
 11 21  1  0  0  0  0
 12 44  1  0  0  0  0
 13 14  1  1  0  0  0
 13 23  1  0  0  0  0
 15 16  1  0  0  0  0
 17 18  1  6  0  0  0
 17 25  1  0  0  0  0
 19 20  1  6  0  0  0
 19 27  1  0  0  0  0
 21 22  1  1  0  0  0
 21 28  1  0  0  0  0
 23 24  1  6  0  0  0
 23 30  1  0  0  0  0
 25 26  1  1  0  0  0
 25 32  1  0  0  0  0
 27  2  1  6  0  0  0
 27 34  1  0  0  0  0
 28 29  1  0  0  0  0
 28 36  1  1  0  0  0
 30 31  1  6  0  0  0
 30 38  1  0  0  0  0
 32 33  1  0  0  0  0
 32 40  1  1  0  0  0
 34 35  1  1  0  0  0
 34 42  1  0  0  0  0
 36 37  1  0  0  0  0
 38 39  1  0  0  0  0
 38 45  1  1  0  0  0
 40 41  1  0  0  0  0
 42 43  1  1  0  0  0
 44 47  1  0  0  0  0
 45 46  1  0  0  0  0
 47 48  1  0  0  0  0
 48 49  1  0  0  0  0
 49  7  1  0  0  0  0
M  END
>  <CHROM.1>
174.62782837,-69.32778651,-156.27462790,115.60198128,-156.97793387,-91.49280508
-176.57740782,159.61074523,158.03152510,-88.48511767,-133.24996302,-174.23514815
117.74429500,109.42738291,-135.92462714,60.05404139,26.25070193,23.27422457
4.36207394,-0.74145021,1.40997037,0.35441537

>  <Name>
2bee_lig

>  <RI>
0

>  <Rbt.Current_Directory>
/home/itssahil/PROJECTS/Mol_Feturizer/New_Systems/rnas/2bee

>  <Rbt.Executable>
rbdock ($Id: //depot/dev/client3/rdock/2013.1/src/exe/rbdock.cxx#4 $)

>  <Rbt.Library>
libRbt.so (2013.1, Build901 2013/11/27)

>  <Rbt.Parameter_File>
/export/apps/rDock/src/rDock_2013.1_src/data/scripts/dock_solv.prm

>  <Rbt.Receptor>
prm/blind_docking_80.prm

>  <SCORE>
33.0417

>  <SCORE.INTER>
8.00975

>  <SCORE.INTER.CONST>
1

>  <SCORE.INTER.POLAR>
-0.959637

>  <SCORE.INTER.ROT>
16

>  <SCORE.INTER.SOLV>
34.8322

>  <SCORE.INTER.VDW>
-17.3388

>  <SCORE.INTER.norm>
0.163464

>  <SCORE.INTRA>
7.60672

>  <SCORE.INTRA.DIHEDRAL>
4.18737

>  <SCORE.INTRA.DIHEDRAL.0>
36.0842

>  <SCORE.INTRA.POLAR>
0

>  <SCORE.INTRA.POLAR.0>
0

>  <SCORE.INTRA.REPUL>
0.043423

>  <SCORE.INTRA.REPUL.0>
0

>  <SCORE.INTRA.SOLV>
-2.2395

>  <SCORE.INTRA.SOLV.lig_0>
-126.444

>  <SCORE.INTRA.VDW>
6.41567

>  <SCORE.INTRA.VDW.0>
-7.40469

>  <SCORE.INTRA.norm>
0.155239

>  <SCORE.RESTR>
17.4253

>  <SCORE.RESTR.CAVITY>
17.4253

>  <SCORE.RESTR.norm>
0.355618

>  <SCORE.SYSTEM>
0

>  <SCORE.SYSTEM.CONST>
0

>  <SCORE.SYSTEM.DIHEDRAL>
0

>  <SCORE.SYSTEM.SOLV>
0

>  <SCORE.SYSTEM.norm>
0

>  <SCORE.heavy>
49

>  <SCORE.norm>
0.674321

>  <RMSD>
27.478

$$$$
2bee_lig
 OpenBabel11021811423D
libRbt.so/2013.1/901 2013/11/27
 49 52  0  0  0  0  0  0  0  0999 V2000
   26.3947   20.8104   -0.9397 C   0  0  2  0  0  0  0  0  0  0  0  0
   26.2537   22.0857   -0.3266 O   0  0  0  0  0  0  0  0  0  0  0  0
   30.2959   23.6667    0.4049 C   0  0  2  0  0  0  0  0  0  0  0  0
   31.4517   24.6040    0.3828 N   0  0  0  0  0  0  0  0  0  0  0  0
   26.5623   24.4973    2.9368 C   0  0  1  0  0  0  0  0  0  0  0  0
   25.1638   23.6511    7.4423 C   0  0  1  0  0  0  0  0  0  0  0  0
   24.5314   28.6872    8.3729 C   0  0  0  0  0  0  0  0  0  0  0  0
   25.4996   20.7236   -2.2360 C   0  0  2  0  0  0  0  0  0  0  0  0
   25.8166   21.8263   -3.1372 N   0  0  0  0  0  0  0  0  0  0  0  0
   29.8202   23.3787   -1.0913 C   0  0  0  0  0  0  0  0  0  0  0  0
   25.7149   25.2669    3.8972 C   0  0  2  0  0  0  0  0  0  0  0  0
   26.2122   26.6331    4.1347 O   0  0  0  0  0  0  0  0  0  0  0  0
   25.5099   22.0910    7.7202 C   0  0  2  0  0  0  0  0  0  0  0  0
   24.3531   21.2639    7.2397 N   0  0  0  0  0  0  0  0  0  0  0  0
   23.7096   28.5153    9.5113 C   0  0  0  0  0  0  0  0  0  0  0  0
   22.3299   28.3961    9.3600 N   0  0  0  0  0  0  0  0  0  0  0  0
   23.9648   20.7325   -1.8164 C   0  0  1  0  0  0  0  0  0  0  0  0
   23.1674   20.6494   -2.9887 O   0  0  0  0  0  0  0  0  0  0  0  0
   28.5410   22.3614   -1.1091 C   0  0  2  0  0  0  0  0  0  0  0  0
   28.1148   22.0910   -2.4401 N   0  0  0  0  0  0  0  0  0  0  0  0
   25.7010   24.2247    4.9892 C   0  0  2  0  0  0  0  0  0  0  0  0
   24.9259   23.7366    6.0168 O   0  0  0  0  0  0  0  0  0  0  0  0
   25.7291   21.8981    9.2632 C   0  0  1  0  0  0  0  0  0  0  0  0
   26.8820   22.7247    9.6494 O   0  0  0  0  0  0  0  0  0  0  0  0
   23.6931   19.5410   -0.8688 C   0  0  2  0  0  0  0  0  0  0  0  0
   22.2714   19.5207   -0.4394 O   0  0  0  0  0  0  0  0  0  0  0  0
   27.3479   22.9875   -0.2872 C   0  0  2  0  0  0  0  0  0  0  0  0
   27.1796   23.5974    4.9021 C   0  0  2  0  0  0  0  0  0  0  0  0
   27.3891   23.5595    3.5646 O   0  0  0  0  0  0  0  0  0  0  0  0
   24.3753   22.3472   10.0565 C   0  0  2  0  0  0  0  0  0  0  0  0
   23.2214   21.5101    9.6578 O   0  0  0  0  0  0  0  0  0  0  0  0
   24.5908   19.6351    0.4099 C   0  0  2  0  0  0  0  0  0  0  0  0
   25.9545   19.6604   -0.0840 O   0  0  0  0  0  0  0  0  0  0  0  0
   27.8667   23.2528    1.1664 C   0  0  2  0  0  0  0  0  0  0  0  0
   26.7313   23.7811    1.8081 O   0  0  0  0  0  0  0  0  0  0  0  0
   27.3895   22.1277    5.4232 C   0  0  0  0  0  0  0  0  0  0  0  0
   28.1772   21.3741    4.4479 O   0  0  0  0  0  0  0  0  0  0  0  0
   24.0306   23.8689    9.7327 C   0  0  1  0  0  0  0  0  0  0  0  0
   23.8870   23.9788    8.2291 O   0  0  0  0  0  0  0  0  0  0  0  0
   24.2835   18.4540    1.2384 C   0  0  0  0  0  0  0  0  0  0  0  0
   25.0475   18.4424    2.3391 O   0  0  0  0  0  0  0  0  0  0  0  0
   29.0877   24.2685    1.1564 C   0  0  1  0  0  0  0  0  0  0  0  0
   29.5463   24.4899    2.4552 O   0  0  0  0  0  0  0  0  0  0  0  0
   25.7580   27.5250    5.2141 C   0  0  0  0  0  0  0  0  0  0  0  0
   22.7148   24.1779   10.5241 C   0  0  0  0  0  0  0  0  0  0  0  0
   22.9520   24.4865   11.9050 N   0  0  0  0  0  0  0  0  0  0  0  0
   26.4583   27.1372    6.5172 C   0  0  0  0  0  0  0  0  0  0  0  0
   26.7821   28.3957    7.2169 N   0  0  0  0  0  0  0  0  0  0  0  0
   26.1175   28.6616    8.5693 C   0  0  0  0  0  0  0  0  0  0  0  0
  1  2  1  1  0  0  0
  1  8  1  0  0  0  0
  1 33  1  0  0  0  0
  3  4  1  6  0  0  0
  3 10  1  0  0  0  0
  3 42  1  0  0  0  0
  5 11  1  0  0  0  0
  5 29  1  0  0  0  0
  5 35  1  6  0  0  0
  6 13  1  0  0  0  0
  6 39  1  0  0  0  0
  6 22  1  6  0  0  0
  7 15  1  0  0  0  0
  8  9  1  6  0  0  0
  8 17  1  0  0  0  0
 10 19  1  0  0  0  0
 11 12  1  1  0  0  0
 11 21  1  0  0  0  0
 12 44  1  0  0  0  0
 13 14  1  1  0  0  0
 13 23  1  0  0  0  0
 15 16  1  0  0  0  0
 17 18  1  6  0  0  0
 17 25  1  0  0  0  0
 19 20  1  6  0  0  0
 19 27  1  0  0  0  0
 21 22  1  1  0  0  0
 21 28  1  0  0  0  0
 23 24  1  1  0  0  0
 23 30  1  0  0  0  0
 25 26  1  1  0  0  0
 25 32  1  0  0  0  0
 27  2  1  1  0  0  0
 27 34  1  0  0  0  0
 28 29  1  0  0  0  0
 28 36  1  6  0  0  0
 30 31  1  6  0  0  0
 30 38  1  0  0  0  0
 32 33  1  0  0  0  0
 32 40  1  1  0  0  0
 34 35  1  1  0  0  0
 34 42  1  0  0  0  0
 36 37  1  0  0  0  0
 38 39  1  0  0  0  0
 38 45  1  1  0  0  0
 40 41  1  0  0  0  0
 42 43  1  1  0  0  0
 44 47  1  0  0  0  0
 45 46  1  0  0  0  0
 47 48  1  0  0  0  0
 48 49  1  0  0  0  0
 49  7  1  0  0  0  0
M  END
>  <CHROM.1>
-113.28163070,174.57474604,-104.09681477,-173.48192173,-167.10939551,80.05735910
-119.70948305,5.02263344,133.76819973,178.11169887,-161.53643732,81.56141544
140.89721457,116.30673623,-60.08787519,161.28504396,25.89224505,23.27102056
3.88720064,1.30846202,-0.87324077,-2.15321823

>  <Name>
2bee_lig

>  <RI>
0

>  <Rbt.Current_Directory>
/home/itssahil/PROJECTS/Mol_Feturizer/New_Systems/rnas/2bee

>  <Rbt.Executable>
rbdock ($Id: //depot/dev/client3/rdock/2013.1/src/exe/rbdock.cxx#4 $)

>  <Rbt.Library>
libRbt.so (2013.1, Build901 2013/11/27)

>  <Rbt.Parameter_File>
/export/apps/rDock/src/rDock_2013.1_src/data/scripts/dock_solv.prm

>  <Rbt.Receptor>
prm/blind_docking_80.prm

>  <SCORE>
21.3333

>  <SCORE.INTER>
-2.15761

>  <SCORE.INTER.CONST>
1

>  <SCORE.INTER.POLAR>
-0.959166

>  <SCORE.INTER.ROT>
16

>  <SCORE.INTER.SOLV>
24.8353

>  <SCORE.INTER.VDW>
-20.7863

>  <SCORE.INTER.norm>
-0.0440328

>  <SCORE.INTRA>
13.225

>  <SCORE.INTRA.DIHEDRAL>
4.49727

>  <SCORE.INTRA.DIHEDRAL.0>
36.0842

>  <SCORE.INTRA.POLAR>
0

>  <SCORE.INTRA.POLAR.0>
0

>  <SCORE.INTRA.REPUL>
0

>  <SCORE.INTRA.REPUL.0>
0

>  <SCORE.INTRA.SOLV>
1.36351

>  <SCORE.INTRA.SOLV.lig_0>
-126.444

>  <SCORE.INTRA.VDW>
10.2947

>  <SCORE.INTRA.VDW.0>
-7.40469

>  <SCORE.INTRA.norm>
0.269899

>  <SCORE.RESTR>
10.2659

>  <SCORE.RESTR.CAVITY>
10.2659

>  <SCORE.RESTR.norm>
0.209508

>  <SCORE.SYSTEM>
0

>  <SCORE.SYSTEM.CONST>
0

>  <SCORE.SYSTEM.DIHEDRAL>
0

>  <SCORE.SYSTEM.SOLV>
0

>  <SCORE.SYSTEM.norm>
0

>  <SCORE.heavy>
49

>  <SCORE.norm>
0.435374

>  <RMSD>
27.517

$$$$
2bee_lig
 OpenBabel11021811423D
libRbt.so/2013.1/901 2013/11/27
 49 52  0  0  0  0  0  0  0  0999 V2000
   26.1376   22.3304    7.4664 C   0  0  2  0  0  0  0  0  0  0  0  0
   25.2734   23.1078    6.6473 O   0  0  0  0  0  0  0  0  0  0  0  0
   25.2967   26.8305    4.2988 C   0  0  2  0  0  0  0  0  0  0  0  0
   25.7563   28.1449    3.7734 N   0  0  0  0  0  0  0  0  0  0  0  0
   26.8879   22.4617    3.2028 C   0  0  1  0  0  0  0  0  0  0  0  0
   27.3356   22.5891   -1.5563 C   0  0  1  0  0  0  0  0  0  0  0  0
   21.6508   19.7201   -0.9724 C   0  0  0  0  0  0  0  0  0  0  0  0
   25.2983   21.4845    8.5003 C   0  0  2  0  0  0  0  0  0  0  0  0
   24.3040   20.6802    7.7982 N   0  0  0  0  0  0  0  0  0  0  0  0
   25.1993   26.9023    5.8905 C   0  0  0  0  0  0  0  0  0  0  0  0
   26.4528   21.8461    1.9127 C   0  0  2  0  0  0  0  0  0  0  0  0
   26.5070   20.3741    1.9317 O   0  0  0  0  0  0  0  0  0  0  0  0
   26.0762   23.3203   -2.2705 C   0  0  2  0  0  0  0  0  0  0  0  0
   24.8665   23.1159   -1.4057 N   0  0  0  0  0  0  0  0  0  0  0  0
   20.5504   19.4475   -1.8184 C   0  0  0  0  0  0  0  0  0  0  0  0
   20.6993   19.5338   -3.2008 N   0  0  0  0  0  0  0  0  0  0  0  0
   24.6205   22.4652    9.5543 C   0  0  1  0  0  0  0  0  0  0  0  0
   23.8715   21.6949   10.4831 O   0  0  0  0  0  0  0  0  0  0  0  0
   24.7094   25.4705    6.5082 C   0  0  2  0  0  0  0  0  0  0  0  0
   24.6107   25.5272    7.9272 N   0  0  0  0  0  0  0  0  0  0  0  0
   27.3532   22.6636    1.0185 C   0  0  2  0  0  0  0  0  0  0  0  0
   27.4333   23.1993   -0.2471 O   0  0  0  0  0  0  0  0  0  0  0  0
   25.8640   22.6740   -3.6859 C   0  0  1  0  0  0  0  0  0  0  0  0
   27.0800   22.9298   -4.4719 O   0  0  0  0  0  0  0  0  0  0  0  0
   25.7235   23.2829   10.2657 C   0  0  2  0  0  0  0  0  0  0  0  0
   25.1316   24.2248   11.2497 O   0  0  0  0  0  0  0  0  0  0  0  0
   25.7220   24.3336    6.0922 C   0  0  2  0  0  0  0  0  0  0  0  0
   28.6870   22.8209    1.9038 C   0  0  2  0  0  0  0  0  0  0  0  0
   28.1788   22.9984    3.1464 O   0  0  0  0  0  0  0  0  0  0  0  0
   25.5885   21.0752   -3.5086 C   0  0  2  0  0  0  0  0  0  0  0  0
   24.3638   20.8303   -2.7140 O   0  0  0  0  0  0  0  0  0  0  0  0
   26.5526   24.1126    9.2294 C   0  0  2  0  0  0  0  0  0  0  0  0
   27.0884   23.1350    8.3012 O   0  0  0  0  0  0  0  0  0  0  0  0
   25.7828   24.3079    4.5275 C   0  0  2  0  0  0  0  0  0  0  0  0
   26.6833   23.2577    4.2705 O   0  0  0  0  0  0  0  0  0  0  0  0
   29.6152   24.0607    1.6257 C   0  0  0  0  0  0  0  0  0  0  0  0
   30.0206   24.0587    0.2204 O   0  0  0  0  0  0  0  0  0  0  0  0
   26.8184   20.3871   -2.7651 C   0  0  1  0  0  0  0  0  0  0  0  0
   26.9869   21.0987   -1.4389 O   0  0  0  0  0  0  0  0  0  0  0  0
   27.5889   24.8367    9.9893 C   0  0  0  0  0  0  0  0  0  0  0  0
   28.0458   25.8791    9.2822 O   0  0  0  0  0  0  0  0  0  0  0  0
   26.2921   25.6996    3.9565 C   0  0  1  0  0  0  0  0  0  0  0  0
   26.3335   25.6672    2.5624 O   0  0  0  0  0  0  0  0  0  0  0  0
   26.0772   19.4956    0.8315 C   0  0  0  0  0  0  0  0  0  0  0  0
   26.4353   18.8741   -2.6337 C   0  0  0  0  0  0  0  0  0  0  0  0
   25.6158   18.4086   -3.7155 N   0  0  0  0  0  0  0  0  0  0  0  0
   24.8190   20.0762    0.1844 C   0  0  0  0  0  0  0  0  0  0  0  0
   23.8348   18.9791    0.1085 N   0  0  0  0  0  0  0  0  0  0  0  0
   22.9842   18.8584   -1.1578 C   0  0  0  0  0  0  0  0  0  0  0  0
  1  2  1  1  0  0  0
  1  8  1  0  0  0  0
  1 33  1  0  0  0  0
  3  4  1  1  0  0  0
  3 10  1  0  0  0  0
  3 42  1  0  0  0  0
  5 11  1  0  0  0  0
  5 29  1  0  0  0  0
  5 35  1  6  0  0  0
  6 13  1  0  0  0  0
  6 39  1  0  0  0  0
  6 22  1  1  0  0  0
  7 15  1  0  0  0  0
  8  9  1  6  0  0  0
  8 17  1  0  0  0  0
 10 19  1  0  0  0  0
 11 12  1  1  0  0  0
 11 21  1  0  0  0  0
 12 44  1  0  0  0  0
 13 14  1  1  0  0  0
 13 23  1  0  0  0  0
 15 16  1  0  0  0  0
 17 18  1  1  0  0  0
 17 25  1  0  0  0  0
 19 20  1  1  0  0  0
 19 27  1  0  0  0  0
 21 22  1  6  0  0  0
 21 28  1  0  0  0  0
 23 24  1  6  0  0  0
 23 30  1  0  0  0  0
 25 26  1  1  0  0  0
 25 32  1  0  0  0  0
 27  2  1  6  0  0  0
 27 34  1  0  0  0  0
 28 29  1  0  0  0  0
 28 36  1  6  0  0  0
 30 31  1  1  0  0  0
 30 38  1  0  0  0  0
 32 33  1  0  0  0  0
 32 40  1  1  0  0  0
 34 35  1  1  0  0  0
 34 42  1  0  0  0  0
 36 37  1  0  0  0  0
 38 39  1  0  0  0  0
 38 45  1  1  0  0  0
 40 41  1  0  0  0  0
 42 43  1  6  0  0  0
 44 47  1  0  0  0  0
 45 46  1  0  0  0  0
 47 48  1  0  0  0  0
 48 49  1  0  0  0  0
 49  7  1  0  0  0  0
M  END
>  <CHROM.1>
151.71775248,-18.69308511,120.09310438,-57.65628759,176.85077367,-38.36684257
-55.93789115,-125.21031300,-56.90923251,-159.70729080,157.26930697,31.46443392
-130.05722005,-139.44591766,-89.73782442,-161.29108031,25.83582538,22.63945934
2.81001774,1.48474700,0.82664883,1.33602041

>  <Name>
2bee_lig

>  <RI>
0

>  <Rbt.Current_Directory>
/home/itssahil/PROJECTS/Mol_Feturizer/New_Systems/rnas/2bee

>  <Rbt.Executable>
rbdock ($Id: //depot/dev/client3/rdock/2013.1/src/exe/rbdock.cxx#4 $)

>  <Rbt.Library>
libRbt.so (2013.1, Build901 2013/11/27)

>  <Rbt.Parameter_File>
/export/apps/rDock/src/rDock_2013.1_src/data/scripts/dock_solv.prm

>  <Rbt.Receptor>
prm/blind_docking_80.prm

>  <SCORE>
29.0907

>  <SCORE.INTER>
15.1208

>  <SCORE.INTER.CONST>
1

>  <SCORE.INTER.POLAR>
-0.0115884

>  <SCORE.INTER.ROT>
16

>  <SCORE.INTER.SOLV>
33.6978

>  <SCORE.INTER.VDW>
-15.3801

>  <SCORE.INTER.norm>
0.308587

>  <SCORE.INTRA>
7.95877

>  <SCORE.INTRA.DIHEDRAL>
7.42981

>  <SCORE.INTRA.DIHEDRAL.0>
36.0842

>  <SCORE.INTRA.POLAR>
0

>  <SCORE.INTRA.POLAR.0>
0

>  <SCORE.INTRA.REPUL>
0.0890233

>  <SCORE.INTRA.REPUL.0>
0

>  <SCORE.INTRA.SOLV>
6.55734

>  <SCORE.INTRA.SOLV.lig_0>
-126.444

>  <SCORE.INTRA.VDW>
0.52008

>  <SCORE.INTRA.VDW.0>
-7.40469

>  <SCORE.INTRA.norm>
0.162424

>  <SCORE.RESTR>
6.0111

>  <SCORE.RESTR.CAVITY>
6.0111

>  <SCORE.RESTR.norm>
0.122676

>  <SCORE.SYSTEM>
0

>  <SCORE.SYSTEM.CONST>
0

>  <SCORE.SYSTEM.DIHEDRAL>
0

>  <SCORE.SYSTEM.SOLV>
0

>  <SCORE.SYSTEM.norm>
0

>  <SCORE.heavy>
49

>  <SCORE.norm>
0.593687

>  <RMSD>
27.529

$$$$
2bee_lig
 OpenBabel11021811423D
libRbt.so/2013.1/901 2013/11/27
 49 52  0  0  0  0  0  0  0  0999 V2000
   29.4205   25.3188    7.9922 C   0  0  2  0  0  0  0  0  0  0  0  0
   28.7820   24.3515    8.8160 O   0  0  0  0  0  0  0  0  0  0  0  0
   25.0252   22.0795    8.5022 C   0  0  2  0  0  0  0  0  0  0  0  0
   23.5666   21.8051    8.3921 N   0  0  0  0  0  0  0  0  0  0  0  0
   27.7736   23.6408    5.0334 C   0  0  1  0  0  0  0  0  0  0  0  0
   25.3915   21.1341    1.9154 C   0  0  1  0  0  0  0  0  0  0  0  0
   26.4426   23.2083   -0.7822 C   0  0  0  0  0  0  0  0  0  0  0  0
   30.3326   26.2654    8.8646 C   0  0  2  0  0  0  0  0  0  0  0  0
   31.2754   25.4712    9.6449 N   0  0  0  0  0  0  0  0  0  0  0  0
   25.2981   22.9786    9.7925 C   0  0  0  0  0  0  0  0  0  0  0  0
   27.8800   22.6990    3.8783 C   0  0  2  0  0  0  0  0  0  0  0  0
   29.1214   22.8764    3.1051 O   0  0  0  0  0  0  0  0  0  0  0  0
   25.6564   20.0489    3.0914 C   0  0  2  0  0  0  0  0  0  0  0  0
   27.0078   20.3240    3.6841 N   0  0  0  0  0  0  0  0  0  0  0  0
   25.2960   22.9933   -1.5821 C   0  0  0  0  0  0  0  0  0  0  0  0
   24.7823   21.7066   -1.7277 N   0  0  0  0  0  0  0  0  0  0  0  0
   29.4124   27.1670    9.7986 C   0  0  1  0  0  0  0  0  0  0  0  0
   30.2414   28.0185   10.5763 O   0  0  0  0  0  0  0  0  0  0  0  0
   26.8908   23.3138    9.9415 C   0  0  2  0  0  0  0  0  0  0  0  0
   27.1456   24.1081   11.0950 N   0  0  0  0  0  0  0  0  0  0  0  0
   26.5243   22.9980    3.2856 C   0  0  2  0  0  0  0  0  0  0  0  0
   25.5038   22.4250    2.5610 O   0  0  0  0  0  0  0  0  0  0  0  0
   25.6072   18.6114    2.4611 C   0  0  1  0  0  0  0  0  0  0  0  0
   24.2545   18.4158    1.9194 O   0  0  0  0  0  0  0  0  0  0  0  0
   28.4425   27.9849    8.9144 C   0  0  2  0  0  0  0  0  0  0  0  0
   27.5523   28.8311    9.7495 O   0  0  0  0  0  0  0  0  0  0  0  0
   27.4013   24.0702    8.6536 C   0  0  2  0  0  0  0  0  0  0  0  0
   26.3552   24.5740    3.5601 C   0  0  2  0  0  0  0  0  0  0  0  0
   26.8933   24.7021    4.7962 O   0  0  0  0  0  0  0  0  0  0  0  0
   26.7434   18.4991    1.2949 C   0  0  2  0  0  0  0  0  0  0  0  0
   28.1003   18.7002    1.8515 O   0  0  0  0  0  0  0  0  0  0  0  0
   27.5478   27.0353    8.0498 C   0  0  2  0  0  0  0  0  0  0  0  0
   28.4788   26.2382    7.2737 O   0  0  0  0  0  0  0  0  0  0  0  0
   27.1078   23.1500    7.4209 C   0  0  2  0  0  0  0  0  0  0  0  0
   27.6174   23.9016    6.3460 O   0  0  0  0  0  0  0  0  0  0  0  0
   24.8956   25.1544    3.6521 C   0  0  0  0  0  0  0  0  0  0  0  0
   24.5226   25.3108    5.0577 O   0  0  0  0  0  0  0  0  0  0  0  0
   26.4888   19.6033    0.1746 C   0  0  1  0  0  0  0  0  0  0  0  0
   26.5003   20.9486    0.8700 O   0  0  0  0  0  0  0  0  0  0  0  0
   26.6775   27.8963    7.2271 C   0  0  0  0  0  0  0  0  0  0  0  0
   25.8199   27.1522    6.5157 O   0  0  0  0  0  0  0  0  0  0  0  0
   25.5511   22.8674    7.2817 C   0  0  1  0  0  0  0  0  0  0  0  0
   25.3034   22.0401    6.1860 O   0  0  0  0  0  0  0  0  0  0  0  0
   29.1891   23.1283    1.6563 C   0  0  0  0  0  0  0  0  0  0  0  0
   27.6410   19.4144   -0.8694 C   0  0  0  0  0  0  0  0  0  0  0  0
   27.4799   20.2356   -2.0349 N   0  0  0  0  0  0  0  0  0  0  0  0
   28.5744   24.4954    1.3527 C   0  0  0  0  0  0  0  0  0  0  0  0
   28.4702   24.5982   -0.1159 N   0  0  0  0  0  0  0  0  0  0  0  0
   27.0740   24.6760   -0.7370 C   0  0  0  0  0  0  0  0  0  0  0  0
  1  2  1  1  0  0  0
  1  8  1  0  0  0  0
  1 33  1  0  0  0  0
  3  4  1  6  0  0  0
  3 10  1  0  0  0  0
  3 42  1  0  0  0  0
  5 11  1  0  0  0  0
  5 29  1  0  0  0  0
  5 35  1  1  0  0  0
  6 13  1  0  0  0  0
  6 39  1  0  0  0  0
  6 22  1  1  0  0  0
  7 15  1  0  0  0  0
  8  9  1  1  0  0  0
  8 17  1  0  0  0  0
 10 19  1  0  0  0  0
 11 12  1  6  0  0  0
 11 21  1  0  0  0  0
 12 44  1  0  0  0  0
 13 14  1  6  0  0  0
 13 23  1  0  0  0  0
 15 16  1  0  0  0  0
 17 18  1  6  0  0  0
 17 25  1  0  0  0  0
 19 20  1  1  0  0  0
 19 27  1  0  0  0  0
 21 22  1  6  0  0  0
 21 28  1  0  0  0  0
 23 24  1  6  0  0  0
 23 30  1  0  0  0  0
 25 26  1  1  0  0  0
 25 32  1  0  0  0  0
 27  2  1  1  0  0  0
 27 34  1  0  0  0  0
 28 29  1  0  0  0  0
 28 36  1  1  0  0  0
 30 31  1  1  0  0  0
 30 38  1  0  0  0  0
 32 33  1  0  0  0  0
 32 40  1  6  0  0  0
 34 35  1  6  0  0  0
 34 42  1  0  0  0  0
 36 37  1  0  0  0  0
 38 39  1  0  0  0  0
 38 45  1  6  0  0  0
 40 41  1  0  0  0  0
 42 43  1  6  0  0  0
 44 47  1  0  0  0  0
 45 46  1  0  0  0  0
 47 48  1  0  0  0  0
 48 49  1  0  0  0  0
 49  7  1  0  0  0  0
M  END
>  <CHROM.1>
134.73586342,-19.12784262,56.65103487,174.97843460,-124.99261760,65.76883985
-6.18720261,-163.30788135,99.65661859,-176.18017441,174.05724239,173.34515412
-171.03352298,115.00110700,-78.83727638,-165.92043270,27.03977484,23.43461870
4.78020887,-1.20305926,-1.11880864,-1.76622513

>  <Name>
2bee_lig

>  <RI>
0

>  <Rbt.Current_Directory>
/home/itssahil/PROJECTS/Mol_Feturizer/New_Systems/rnas/2bee

>  <Rbt.Executable>
rbdock ($Id: //depot/dev/client3/rdock/2013.1/src/exe/rbdock.cxx#4 $)

>  <Rbt.Library>
libRbt.so (2013.1, Build901 2013/11/27)

>  <Rbt.Parameter_File>
/export/apps/rDock/src/rDock_2013.1_src/data/scripts/dock_solv.prm

>  <Rbt.Receptor>
prm/blind_docking_80.prm

>  <SCORE>
2.20703

>  <SCORE.INTER>
-10.8029

>  <SCORE.INTER.CONST>
1

>  <SCORE.INTER.POLAR>
-0.994481

>  <SCORE.INTER.ROT>
16

>  <SCORE.INTER.SOLV>
32.068

>  <SCORE.INTER.VDW>
-28.843

>  <SCORE.INTER.norm>
-0.220468

>  <SCORE.INTRA>
2.18048

>  <SCORE.INTRA.DIHEDRAL>
-6.90069

>  <SCORE.INTRA.DIHEDRAL.0>
36.0842

>  <SCORE.INTRA.POLAR>
0

>  <SCORE.INTRA.POLAR.0>
0

>  <SCORE.INTRA.REPUL>
0.260715

>  <SCORE.INTRA.REPUL.0>
0

>  <SCORE.INTRA.SOLV>
8.31239

>  <SCORE.INTRA.SOLV.lig_0>
-126.444

>  <SCORE.INTRA.VDW>
0.171058

>  <SCORE.INTRA.VDW.0>
-7.40469

>  <SCORE.INTRA.norm>
0.0444997

>  <SCORE.RESTR>
10.8295

>  <SCORE.RESTR.CAVITY>
10.8295

>  <SCORE.RESTR.norm>
0.22101

>  <SCORE.SYSTEM>
0

>  <SCORE.SYSTEM.CONST>
0

>  <SCORE.SYSTEM.DIHEDRAL>
0

>  <SCORE.SYSTEM.SOLV>
0

>  <SCORE.SYSTEM.norm>
0

>  <SCORE.heavy>
49

>  <SCORE.norm>
0.0450414

>  <RMSD>
27.706

$$$$
2bee_lig
 OpenBabel11021811423D
libRbt.so/2013.1/901 2013/11/27
 49 52  0  0  0  0  0  0  0  0999 V2000
   28.9815   24.7377    7.7876 C   0  0  2  0  0  0  0  0  0  0  0  0
   28.2857   23.8635    8.6672 O   0  0  0  0  0  0  0  0  0  0  0  0
   24.2346   23.2015   10.2561 C   0  0  2  0  0  0  0  0  0  0  0  0
   22.8053   23.4583   10.5818 N   0  0  0  0  0  0  0  0  0  0  0  0
   26.3048   21.9371    6.0891 C   0  0  1  0  0  0  0  0  0  0  0  0
   26.9202   21.9900    1.3690 C   0  0  1  0  0  0  0  0  0  0  0  0
   23.9449   19.3836    2.8631 C   0  0  0  0  0  0  0  0  0  0  0  0
   29.4206   26.0471    8.5504 C   0  0  2  0  0  0  0  0  0  0  0  0
   30.1952   25.6987    9.7367 N   0  0  0  0  0  0  0  0  0  0  0  0
   25.1322   24.3802   10.8501 C   0  0  0  0  0  0  0  0  0  0  0  0
   25.6520   21.0850    5.0497 C   0  0  2  0  0  0  0  0  0  0  0  0
   25.8124   19.6431    5.3054 O   0  0  0  0  0  0  0  0  0  0  0  0
   26.3641   23.1349    0.3635 C   0  0  2  0  0  0  0  0  0  0  0  0
   24.9209   22.8406    0.0743 N   0  0  0  0  0  0  0  0  0  0  0  0
   23.9572   18.5461    1.7233 C   0  0  0  0  0  0  0  0  0  0  0  0
   25.1187   18.4240    0.9639 N   0  0  0  0  0  0  0  0  0  0  0  0
   28.1279   26.8966    8.9233 C   0  0  1  0  0  0  0  0  0  0  0  0
   28.5331   28.0748    9.6050 O   0  0  0  0  0  0  0  0  0  0  0  0
   26.7110   24.1413   10.5011 C   0  0  2  0  0  0  0  0  0  0  0  0
   27.5211   25.1831   11.0347 N   0  0  0  0  0  0  0  0  0  0  0  0
   26.2841   21.7557    3.8541 C   0  0  2  0  0  0  0  0  0  0  0  0
   26.0578   22.0562    2.5299 O   0  0  0  0  0  0  0  0  0  0  0  0
   27.2156   23.0939   -0.9553 C   0  0  1  0  0  0  0  0  0  0  0  0
   28.6054   23.4055   -0.5903 O   0  0  0  0  0  0  0  0  0  0  0  0
   27.3557   27.2370    7.6275 C   0  0  2  0  0  0  0  0  0  0  0  0
   26.1301   28.0185    7.9324 O   0  0  0  0  0  0  0  0  0  0  0  0
   26.9078   24.0649    8.9370 C   0  0  2  0  0  0  0  0  0  0  0  0
   27.7600   22.1128    4.3847 C   0  0  2  0  0  0  0  0  0  0  0  0
   27.5138   22.4956    5.6602 O   0  0  0  0  0  0  0  0  0  0  0  0
   27.0890   21.6126   -1.6285 C   0  0  2  0  0  0  0  0  0  0  0  0
   25.6857   21.3093   -1.9893 O   0  0  0  0  0  0  0  0  0  0  0  0
   26.9310   25.9307    6.8771 C   0  0  2  0  0  0  0  0  0  0  0  0
   28.1691   25.2188    6.6228 O   0  0  0  0  0  0  0  0  0  0  0  0
   26.0063   22.8994    8.4062 C   0  0  2  0  0  0  0  0  0  0  0  0
   26.2744   22.9060    7.0249 O   0  0  0  0  0  0  0  0  0  0  0  0
   28.5192   23.3108    3.7035 C   0  0  0  0  0  0  0  0  0  0  0  0
   29.2803   22.8149    2.5571 O   0  0  0  0  0  0  0  0  0  0  0  0
   27.5986   20.5015   -0.6063 C   0  0  1  0  0  0  0  0  0  0  0  0
   26.7653   20.6423    0.6504 O   0  0  0  0  0  0  0  0  0  0  0  0
   26.2268   26.3495    5.6506 C   0  0  0  0  0  0  0  0  0  0  0  0
   25.0422   26.8970    5.9543 O   0  0  0  0  0  0  0  0  0  0  0  0
   24.4759   23.1732    8.7304 C   0  0  1  0  0  0  0  0  0  0  0  0
   23.6844   22.1247    8.2608 O   0  0  0  0  0  0  0  0  0  0  0  0
   24.7123   18.7015    5.5703 C   0  0  0  0  0  0  0  0  0  0  0  0
   27.4116   19.1339   -1.3465 C   0  0  0  0  0  0  0  0  0  0  0  0
   27.7527   18.0047   -0.5297 N   0  0  0  0  0  0  0  0  0  0  0  0
   23.5231   19.4663    6.1533 C   0  0  0  0  0  0  0  0  0  0  0  0
   22.9076   20.2105    5.0374 N   0  0  0  0  0  0  0  0  0  0  0  0
   22.6111   19.4535    3.7411 C   0  0  0  0  0  0  0  0  0  0  0  0
  1  2  1  1  0  0  0
  1  8  1  0  0  0  0
  1 33  1  0  0  0  0
  3  4  1  6  0  0  0
  3 10  1  0  0  0  0
  3 42  1  0  0  0  0
  5 11  1  0  0  0  0
  5 29  1  0  0  0  0
  5 35  1  6  0  0  0
  6 13  1  0  0  0  0
  6 39  1  0  0  0  0
  6 22  1  1  0  0  0
  7 15  1  0  0  0  0
  8  9  1  1  0  0  0
  8 17  1  0  0  0  0
 10 19  1  0  0  0  0
 11 12  1  1  0  0  0
 11 21  1  0  0  0  0
 12 44  1  0  0  0  0
 13 14  1  6  0  0  0
 13 23  1  0  0  0  0
 15 16  1  0  0  0  0
 17 18  1  6  0  0  0
 17 25  1  0  0  0  0
 19 20  1  6  0  0  0
 19 27  1  0  0  0  0
 21 22  1  6  0  0  0
 21 28  1  0  0  0  0
 23 24  1  1  0  0  0
 23 30  1  0  0  0  0
 25 26  1  1  0  0  0
 25 32  1  0  0  0  0
 27  2  1  1  0  0  0
 27 34  1  0  0  0  0
 28 29  1  0  0  0  0
 28 36  1  6  0  0  0
 30 31  1  1  0  0  0
 30 38  1  0  0  0  0
 32 33  1  0  0  0  0
 32 40  1  6  0  0  0
 34 35  1  6  0  0  0
 34 42  1  0  0  0  0
 36 37  1  0  0  0  0
 38 39  1  0  0  0  0
 38 45  1  6  0  0  0
 40 41  1  0  0  0  0
 42 43  1  6  0  0  0
 44 47  1  0  0  0  0
 45 46  1  0  0  0  0
 47 48  1  0  0  0  0
 48 49  1  0  0  0  0
 49  7  1  0  0  0  0
M  END
>  <CHROM.1>
81.82561653,88.96983550,-151.33508741,-177.65578789,116.98307458,-25.27159207
-137.84529512,-126.27832509,-89.16418506,-69.65468837,148.47386938,-176.53838993
74.47100470,48.84112485,-82.54589063,170.02195720,26.40191231,22.81882054
5.05190814,-1.47856792,-0.86099878,-1.99962657

>  <Name>
2bee_lig

>  <RI>
0

>  <Rbt.Current_Directory>
/home/itssahil/PROJECTS/Mol_Feturizer/New_Systems/rnas/2bee

>  <Rbt.Executable>
rbdock ($Id: //depot/dev/client3/rdock/2013.1/src/exe/rbdock.cxx#4 $)

>  <Rbt.Library>
libRbt.so (2013.1, Build901 2013/11/27)

>  <Rbt.Parameter_File>
/export/apps/rDock/src/rDock_2013.1_src/data/scripts/dock_solv.prm

>  <Rbt.Receptor>
prm/blind_docking_80.prm

>  <SCORE>
16.226

>  <SCORE.INTER>
-4.09411

>  <SCORE.INTER.CONST>
1

>  <SCORE.INTER.POLAR>
-0.905369

>  <SCORE.INTER.ROT>
16

>  <SCORE.INTER.SOLV>
26.6497

>  <SCORE.INTER.VDW>
-22.8614

>  <SCORE.INTER.norm>
-0.0835533

>  <SCORE.INTRA>
10.027

>  <SCORE.INTRA.DIHEDRAL>
2.85219

>  <SCORE.INTRA.DIHEDRAL.0>
36.0842

>  <SCORE.INTRA.POLAR>
0

>  <SCORE.INTRA.POLAR.0>
0

>  <SCORE.INTRA.REPUL>
0.0475876

>  <SCORE.INTRA.REPUL.0>
0

>  <SCORE.INTRA.SOLV>
9.07549

>  <SCORE.INTRA.SOLV.lig_0>
-126.444

>  <SCORE.INTRA.VDW>
3.82527

>  <SCORE.INTRA.VDW.0>
-7.40469

>  <SCORE.INTRA.norm>
0.204634

>  <SCORE.RESTR>
10.293

>  <SCORE.RESTR.CAVITY>
10.293

>  <SCORE.RESTR.norm>
0.210062

>  <SCORE.SYSTEM>
0

>  <SCORE.SYSTEM.CONST>
0

>  <SCORE.SYSTEM.DIHEDRAL>
0

>  <SCORE.SYSTEM.SOLV>
0

>  <SCORE.SYSTEM.norm>
0

>  <SCORE.heavy>
49

>  <SCORE.norm>
0.331142

>  <RMSD>
27.736

$$$$
2bee_lig
 OpenBabel11021811423D
libRbt.so/2013.1/901 2013/11/27
 49 52  0  0  0  0  0  0  0  0999 V2000
   28.0378   25.0155    8.0863 C   0  0  2  0  0  0  0  0  0  0  0  0
   27.2291   26.1639    8.3080 O   0  0  0  0  0  0  0  0  0  0  0  0
   24.6020   28.2323    5.4455 C   0  0  2  0  0  0  0  0  0  0  0  0
   24.1821   29.1321    4.3369 N   0  0  0  0  0  0  0  0  0  0  0  0
   26.7427   23.8819    5.4039 C   0  0  1  0  0  0  0  0  0  0  0  0
   26.5174   21.1002    1.4853 C   0  0  1  0  0  0  0  0  0  0  0  0
   24.7987   17.6228    1.9957 C   0  0  0  0  0  0  0  0  0  0  0  0
   27.3669   23.7404    8.7289 C   0  0  2  0  0  0  0  0  0  0  0  0
   26.0064   23.5840    8.2258 N   0  0  0  0  0  0  0  0  0  0  0  0
   25.3964   29.0786    6.5411 C   0  0  0  0  0  0  0  0  0  0  0  0
   25.9173   22.7312    4.9270 C   0  0  2  0  0  0  0  0  0  0  0  0
   25.9365   21.5871    5.8550 O   0  0  0  0  0  0  0  0  0  0  0  0
   28.0116   21.3308    0.8980 C   0  0  2  0  0  0  0  0  0  0  0  0
   28.0038   22.5929    0.0855 N   0  0  0  0  0  0  0  0  0  0  0  0
   23.6624   18.1071    1.3065 C   0  0  0  0  0  0  0  0  0  0  0  0
   22.6291   18.7173    2.0140 N   0  0  0  0  0  0  0  0  0  0  0  0
   27.3935   23.8751   10.3142 C   0  0  1  0  0  0  0  0  0  0  0  0
   26.7921   22.7214   10.8837 O   0  0  0  0  0  0  0  0  0  0  0  0
   25.8874   28.1215    7.7717 C   0  0  2  0  0  0  0  0  0  0  0  0
   26.5893   28.8691    8.7589 N   0  0  0  0  0  0  0  0  0  0  0  0
   26.5214   22.6454    3.5462 C   0  0  2  0  0  0  0  0  0  0  0  0
   26.2237   22.2946    2.2488 O   0  0  0  0  0  0  0  0  0  0  0  0
   28.3901   20.0960    0.0046 C   0  0  1  0  0  0  0  0  0  0  0  0
   28.3904   18.9096    0.8730 O   0  0  0  0  0  0  0  0  0  0  0  0
   28.8585   24.0324   10.7835 C   0  0  2  0  0  0  0  0  0  0  0  0
   28.9278   24.1773   12.2600 O   0  0  0  0  0  0  0  0  0  0  0  0
   26.8159   26.9716    7.2177 C   0  0  2  0  0  0  0  0  0  0  0  0
   28.0659   23.0095    3.8098 C   0  0  2  0  0  0  0  0  0  0  0  0
   27.9676   23.9917    4.7369 O   0  0  0  0  0  0  0  0  0  0  0  0
   27.3020   19.9559   -1.2037 C   0  0  2  0  0  0  0  0  0  0  0  0
   27.3091   21.1567   -2.0693 O   0  0  0  0  0  0  0  0  0  0  0  0
   29.5147   25.2967   10.1348 C   0  0  2  0  0  0  0  0  0  0  0  0
   29.4024   25.0911    8.7033 O   0  0  0  0  0  0  0  0  0  0  0  0
   25.9927   26.1770    6.1483 C   0  0  2  0  0  0  0  0  0  0  0  0
   26.8958   25.1765    5.7441 O   0  0  0  0  0  0  0  0  0  0  0  0
   28.8961   23.6112    2.6162 C   0  0  0  0  0  0  0  0  0  0  0  0
   28.1816   24.7585    2.0570 O   0  0  0  0  0  0  0  0  0  0  0  0
   25.8372   19.7756   -0.6029 C   0  0  1  0  0  0  0  0  0  0  0  0
   25.5722   20.9757    0.2821 O   0  0  0  0  0  0  0  0  0  0  0  0
   30.9076   25.3530   10.6169 C   0  0  0  0  0  0  0  0  0  0  0  0
   31.5798   26.3302    9.9936 O   0  0  0  0  0  0  0  0  0  0  0  0
   25.5568   27.1235    4.9498 C   0  0  1  0  0  0  0  0  0  0  0  0
   24.8173   26.4068    4.0086 O   0  0  0  0  0  0  0  0  0  0  0  0
   26.2599   20.1998    5.4838 C   0  0  0  0  0  0  0  0  0  0  0  0
   24.8854   19.6739   -1.8426 C   0  0  0  0  0  0  0  0  0  0  0  0
   23.5024   19.8455   -1.5015 N   0  0  0  0  0  0  0  0  0  0  0  0
   24.9746   19.4698    5.0915 C   0  0  0  0  0  0  0  0  0  0  0  0
   24.8537   19.5798    3.6248 N   0  0  0  0  0  0  0  0  0  0  0  0
   25.7309   18.6740    2.7580 C   0  0  0  0  0  0  0  0  0  0  0  0
  1  2  1  1  0  0  0
  1  8  1  0  0  0  0
  1 33  1  0  0  0  0
  3  4  1  6  0  0  0
  3 10  1  0  0  0  0
  3 42  1  0  0  0  0
  5 11  1  0  0  0  0
  5 29  1  0  0  0  0
  5 35  1  6  0  0  0
  6 13  1  0  0  0  0
  6 39  1  0  0  0  0
  6 22  1  1  0  0  0
  7 15  1  0  0  0  0
  8  9  1  6  0  0  0
  8 17  1  0  0  0  0
 10 19  1  0  0  0  0
 11 12  1  1  0  0  0
 11 21  1  0  0  0  0
 12 44  1  0  0  0  0
 13 14  1  6  0  0  0
 13 23  1  0  0  0  0
 15 16  1  0  0  0  0
 17 18  1  1  0  0  0
 17 25  1  0  0  0  0
 19 20  1  1  0  0  0
 19 27  1  0  0  0  0
 21 22  1  1  0  0  0
 21 28  1  0  0  0  0
 23 24  1  1  0  0  0
 23 30  1  0  0  0  0
 25 26  1  1  0  0  0
 25 32  1  0  0  0  0
 27  2  1  1  0  0  0
 27 34  1  0  0  0  0
 28 29  1  0  0  0  0
 28 36  1  6  0  0  0
 30 31  1  6  0  0  0
 30 38  1  0  0  0  0
 32 33  1  0  0  0  0
 32 40  1  6  0  0  0
 34 35  1  6  0  0  0
 34 42  1  0  0  0  0
 36 37  1  0  0  0  0
 38 39  1  0  0  0  0
 38 45  1  6  0  0  0
 40 41  1  0  0  0  0
 42 43  1  6  0  0  0
 44 47  1  0  0  0  0
 45 46  1  0  0  0  0
 47 48  1  0  0  0  0
 48 49  1  0  0  0  0
 49  7  1  0  0  0  0
M  END
>  <CHROM.1>
-125.85331636,21.57705139,-84.67102327,-63.95639911,-127.69775127,-90.60703384
-100.84237214,177.56558738,52.26316782,173.44052835,143.07322670,-165.20683152
94.26694617,77.00030582,112.51623766,49.34611503,26.75495487,23.19949373
4.74191789,-0.91485233,1.25665726,-2.80836208

>  <Name>
2bee_lig

>  <RI>
0

>  <Rbt.Current_Directory>
/home/itssahil/PROJECTS/Mol_Feturizer/New_Systems/rnas/2bee

>  <Rbt.Executable>
rbdock ($Id: //depot/dev/client3/rdock/2013.1/src/exe/rbdock.cxx#4 $)

>  <Rbt.Library>
libRbt.so (2013.1, Build901 2013/11/27)

>  <Rbt.Parameter_File>
/export/apps/rDock/src/rDock_2013.1_src/data/scripts/dock_solv.prm

>  <Rbt.Receptor>
prm/blind_docking_80.prm

>  <SCORE>
3.68143

>  <SCORE.INTER>
-11.3362

>  <SCORE.INTER.CONST>
1

>  <SCORE.INTER.POLAR>
-0.331072

>  <SCORE.INTER.ROT>
16

>  <SCORE.INTER.SOLV>
28.0109

>  <SCORE.INTER.VDW>
-30.0575

>  <SCORE.INTER.norm>
-0.231351

>  <SCORE.INTRA>
7.58183

>  <SCORE.INTRA.DIHEDRAL>
3.30646

>  <SCORE.INTRA.DIHEDRAL.0>
36.0842

>  <SCORE.INTRA.POLAR>
0

>  <SCORE.INTRA.POLAR.0>
0

>  <SCORE.INTRA.REPUL>
0

>  <SCORE.INTRA.REPUL.0>
0

>  <SCORE.INTRA.SOLV>
9.55739

>  <SCORE.INTRA.SOLV.lig_0>
-126.444

>  <SCORE.INTRA.VDW>
1.14991

>  <SCORE.INTRA.VDW.0>
-7.40469

>  <SCORE.INTRA.norm>
0.154731

>  <SCORE.RESTR>
7.43579

>  <SCORE.RESTR.CAVITY>
7.43579

>  <SCORE.RESTR.norm>
0.151751

>  <SCORE.SYSTEM>
0

>  <SCORE.SYSTEM.CONST>
0

>  <SCORE.SYSTEM.DIHEDRAL>
0

>  <SCORE.SYSTEM.SOLV>
0

>  <SCORE.SYSTEM.norm>
0

>  <SCORE.heavy>
49

>  <SCORE.norm>
0.0751313

>  <RMSD>
27.750

$$$$
2bee_lig
 OpenBabel11021811423D
libRbt.so/2013.1/901 2013/11/27
 49 52  0  0  0  0  0  0  0  0999 V2000
   28.2000   25.0146    7.8726 C   0  0  2  0  0  0  0  0  0  0  0  0
   27.2620   26.0580    8.1042 O   0  0  0  0  0  0  0  0  0  0  0  0
   24.3208   27.7784    5.3179 C   0  0  2  0  0  0  0  0  0  0  0  0
   23.7654   28.6036    4.2109 N   0  0  0  0  0  0  0  0  0  0  0  0
   26.8802   23.6881    5.1975 C   0  0  1  0  0  0  0  0  0  0  0  0
   26.3180   20.8766    1.3453 C   0  0  1  0  0  0  0  0  0  0  0  0
   22.8462   19.6002    4.9691 C   0  0  0  0  0  0  0  0  0  0  0  0
   28.0575   23.8950    8.9750 C   0  0  2  0  0  0  0  0  0  0  0  0
   26.6794   23.4194    9.0295 N   0  0  0  0  0  0  0  0  0  0  0  0
   25.0686   28.7275    6.3609 C   0  0  0  0  0  0  0  0  0  0  0  0
   26.1501   22.4862    4.6923 C   0  0  2  0  0  0  0  0  0  0  0  0
   26.2786   21.3198    5.5829 O   0  0  0  0  0  0  0  0  0  0  0  0
   27.6647   20.0576    1.7285 C   0  0  2  0  0  0  0  0  0  0  0  0
   28.8459   20.8580    1.2624 N   0  0  0  0  0  0  0  0  0  0  0  0
   21.9258   18.9786    5.8451 C   0  0  0  0  0  0  0  0  0  0  0  0
   21.9926   19.2287    7.2139 N   0  0  0  0  0  0  0  0  0  0  0  0
   28.5329   24.4756   10.3782 C   0  0  1  0  0  0  0  0  0  0  0  0
   28.4056   23.4599   11.3627 O   0  0  0  0  0  0  0  0  0  0  0  0
   25.7055   27.8554    7.5878 C   0  0  2  0  0  0  0  0  0  0  0  0
   26.3671   28.6943    8.5285 N   0  0  0  0  0  0  0  0  0  0  0  0
   26.7418   22.4954    3.3036 C   0  0  2  0  0  0  0  0  0  0  0  0
   26.4587   22.1608    1.9986 O   0  0  0  0  0  0  0  0  0  0  0  0
   27.6190   18.6623    1.0094 C   0  0  1  0  0  0  0  0  0  0  0  0
   26.4494   17.9387    1.5292 O   0  0  0  0  0  0  0  0  0  0  0  0
   29.9974   24.9567   10.2561 C   0  0  2  0  0  0  0  0  0  0  0  0
   30.4772   25.5219   11.5431 O   0  0  0  0  0  0  0  0  0  0  0  0
   26.7235   26.7928    7.0170 C   0  0  2  0  0  0  0  0  0  0  0  0
   28.2528   22.9822    3.5632 C   0  0  2  0  0  0  0  0  0  0  0  0
   28.0827   23.9231    4.5223 O   0  0  0  0  0  0  0  0  0  0  0  0
   27.5144   18.8941   -0.6027 C   0  0  2  0  0  0  0  0  0  0  0  0
   28.6956   19.6254   -1.1139 O   0  0  0  0  0  0  0  0  0  0  0  0
   30.1268   26.0623    9.1558 C   0  0  2  0  0  0  0  0  0  0  0  0
   29.6344   25.4464    7.9382 O   0  0  0  0  0  0  0  0  0  0  0  0
   25.9429   25.8929    6.0005 C   0  0  2  0  0  0  0  0  0  0  0  0
   26.9265   24.9800    5.5774 O   0  0  0  0  0  0  0  0  0  0  0  0
   29.0134   23.6896    2.3814 C   0  0  0  0  0  0  0  0  0  0  0  0
   28.2822   24.8923    1.9836 O   0  0  0  0  0  0  0  0  0  0  0  0
   26.2086   19.7386   -0.9506 C   0  0  1  0  0  0  0  0  0  0  0  0
   26.3062   21.0394   -0.1812 O   0  0  0  0  0  0  0  0  0  0  0  0
   31.5509   26.4413    9.0929 C   0  0  0  0  0  0  0  0  0  0  0  0
   31.9759   26.8661   10.2905 O   0  0  0  0  0  0  0  0  0  0  0  0
   25.3632   26.7608    4.8033 C   0  0  1  0  0  0  0  0  0  0  0  0
   24.6630   25.9499    3.9097 O   0  0  0  0  0  0  0  0  0  0  0  0
   25.3886   21.0157    6.7154 C   0  0  0  0  0  0  0  0  0  0  0  0
   26.2256   19.9145   -2.5068 C   0  0  0  0  0  0  0  0  0  0  0  0
   26.6277   21.2294   -2.9167 N   0  0  0  0  0  0  0  0  0  0  0  0
   25.6480   19.5855    7.1909 C   0  0  0  0  0  0  0  0  0  0  0  0
   24.7341   18.7118    6.4298 N   0  0  0  0  0  0  0  0  0  0  0  0
   24.3699   19.1183    5.0003 C   0  0  0  0  0  0  0  0  0  0  0  0
  1  2  1  1  0  0  0
  1  8  1  0  0  0  0
  1 33  1  0  0  0  0
  3  4  1  6  0  0  0
  3 10  1  0  0  0  0
  3 42  1  0  0  0  0
  5 11  1  0  0  0  0
  5 29  1  0  0  0  0
  5 35  1  6  0  0  0
  6 13  1  0  0  0  0
  6 39  1  0  0  0  0
  6 22  1  1  0  0  0
  7 15  1  0  0  0  0
  8  9  1  1  0  0  0
  8 17  1  0  0  0  0
 10 19  1  0  0  0  0
 11 12  1  1  0  0  0
 11 21  1  0  0  0  0
 12 44  1  0  0  0  0
 13 14  1  6  0  0  0
 13 23  1  0  0  0  0
 15 16  1  0  0  0  0
 17 18  1  1  0  0  0
 17 25  1  0  0  0  0
 19 20  1  1  0  0  0
 19 27  1  0  0  0  0
 21 22  1  1  0  0  0
 21 28  1  0  0  0  0
 23 24  1  1  0  0  0
 23 30  1  0  0  0  0
 25 26  1  1  0  0  0
 25 32  1  0  0  0  0
 27  2  1  1  0  0  0
 27 34  1  0  0  0  0
 28 29  1  0  0  0  0
 28 36  1  6  0  0  0
 30 31  1  1  0  0  0
 30 38  1  0  0  0  0
 32 33  1  0  0  0  0
 32 40  1  6  0  0  0
 34 35  1  6  0  0  0
 34 42  1  0  0  0  0
 36 37  1  0  0  0  0
 38 39  1  0  0  0  0
 38 45  1  6  0  0  0
 40 41  1  0  0  0  0
 42 43  1  6  0  0  0
 44 47  1  0  0  0  0
 45 46  1  0  0  0  0
 47 48  1  0  0  0  0
 48 49  1  0  0  0  0
 49  7  1  0  0  0  0
M  END
>  <CHROM.1>
-148.97825327,20.28758440,-51.99242719,71.03581756,88.24691209,167.43020128
-70.58820296,179.13747388,59.68795461,-57.62159567,147.51229828,-103.96827786
-90.31222206,32.07917667,-108.78703958,-33.30810246,26.91362182,23.19126649
5.07697438,-1.01619400,-1.20669606,-1.68540285

>  <Name>
2bee_lig

>  <RI>
0

>  <Rbt.Current_Directory>
/home/itssahil/PROJECTS/Mol_Feturizer/New_Systems/rnas/2bee

>  <Rbt.Executable>
rbdock ($Id: //depot/dev/client3/rdock/2013.1/src/exe/rbdock.cxx#4 $)

>  <Rbt.Library>
libRbt.so (2013.1, Build901 2013/11/27)

>  <Rbt.Parameter_File>
/export/apps/rDock/src/rDock_2013.1_src/data/scripts/dock_solv.prm

>  <Rbt.Receptor>
prm/blind_docking_80.prm

>  <SCORE>
0.136029

>  <SCORE.INTER>
-17.1995

>  <SCORE.INTER.CONST>
1

>  <SCORE.INTER.POLAR>
-0.804125

>  <SCORE.INTER.ROT>
16

>  <SCORE.INTER.SOLV>
29.7836

>  <SCORE.INTER.VDW>
-32.9804

>  <SCORE.INTER.norm>
-0.35101

>  <SCORE.INTRA>
7.67493

>  <SCORE.INTRA.DIHEDRAL>
-2.67774

>  <SCORE.INTRA.DIHEDRAL.0>
36.0842

>  <SCORE.INTRA.POLAR>
0

>  <SCORE.INTRA.POLAR.0>
0

>  <SCORE.INTRA.REPUL>
0

>  <SCORE.INTRA.REPUL.0>
0

>  <SCORE.INTRA.SOLV>
4.76856

>  <SCORE.INTRA.SOLV.lig_0>
-126.444

>  <SCORE.INTRA.VDW>
6.62952

>  <SCORE.INTRA.VDW.0>
-7.40469

>  <SCORE.INTRA.norm>
0.156631

>  <SCORE.RESTR>
9.66058

>  <SCORE.RESTR.CAVITY>
9.66058

>  <SCORE.RESTR.norm>
0.197155

>  <SCORE.SYSTEM>
0

>  <SCORE.SYSTEM.CONST>
0

>  <SCORE.SYSTEM.DIHEDRAL>
0

>  <SCORE.SYSTEM.SOLV>
0

>  <SCORE.SYSTEM.norm>
0

>  <SCORE.heavy>
49

>  <SCORE.norm>
0.00277611

>  <RMSD>
27.751

$$$$
2bee_lig
 OpenBabel11021811423D
libRbt.so/2013.1/901 2013/11/27
 49 52  0  0  0  0  0  0  0  0999 V2000
   27.0913   23.5856    6.6490 C   0  0  2  0  0  0  0  0  0  0  0  0
   25.9553   24.3308    6.2293 O   0  0  0  0  0  0  0  0  0  0  0  0
   24.7367   28.4943    5.4845 C   0  0  2  0  0  0  0  0  0  0  0  0
   24.7914   29.9815    5.4676 N   0  0  0  0  0  0  0  0  0  0  0  0
   27.1069   24.4117    3.6043 C   0  0  1  0  0  0  0  0  0  0  0  0
   26.4739   22.3619   -0.4712 C   0  0  1  0  0  0  0  0  0  0  0  0
   24.2151   18.3842    6.3120 C   0  0  0  0  0  0  0  0  0  0  0  0
   26.7797   22.8226    7.9942 C   0  0  2  0  0  0  0  0  0  0  0  0
   25.5855   21.9993    7.8371 N   0  0  0  0  0  0  0  0  0  0  0  0
   24.8995   27.9764    6.9855 C   0  0  0  0  0  0  0  0  0  0  0  0
   26.6886   23.1215    2.9774 C   0  0  2  0  0  0  0  0  0  0  0  0
   26.8637   21.9647    3.8727 O   0  0  0  0  0  0  0  0  0  0  0  0
   26.3878   20.8050   -0.0245 C   0  0  2  0  0  0  0  0  0  0  0  0
   27.7479   20.1941   -0.1979 N   0  0  0  0  0  0  0  0  0  0  0  0
   22.9142   18.9389    6.2825 C   0  0  0  0  0  0  0  0  0  0  0  0
   22.3997   19.4391    5.0884 N   0  0  0  0  0  0  0  0  0  0  0  0
   26.6117   23.8800    9.1714 C   0  0  1  0  0  0  0  0  0  0  0  0
   26.3363   23.1841   10.3784 O   0  0  0  0  0  0  0  0  0  0  0  0
   24.8580   26.3435    7.0450 C   0  0  2  0  0  0  0  0  0  0  0  0
   24.9935   25.8719    8.3812 N   0  0  0  0  0  0  0  0  0  0  0  0
   27.4944   23.2756    1.7103 C   0  0  2  0  0  0  0  0  0  0  0  0
   27.4958   22.9411    0.3749 O   0  0  0  0  0  0  0  0  0  0  0  0
   25.3333   20.0839   -0.9378 C   0  0  1  0  0  0  0  0  0  0  0  0
   24.0330   20.7273   -0.6991 O   0  0  0  0  0  0  0  0  0  0  0  0
   27.9081   24.7147    9.2896 C   0  0  2  0  0  0  0  0  0  0  0  0
   27.7880   25.7273   10.3695 O   0  0  0  0  0  0  0  0  0  0  0  0
   26.0143   25.7459    6.1521 C   0  0  2  0  0  0  0  0  0  0  0  0
   28.8345   24.0007    2.2261 C   0  0  2  0  0  0  0  0  0  0  0  0
   28.3474   24.8676    3.1454 O   0  0  0  0  0  0  0  0  0  0  0  0
   25.7937   20.2202   -2.4976 C   0  0  2  0  0  0  0  0  0  0  0  0
   27.1046   19.5713   -2.7251 O   0  0  0  0  0  0  0  0  0  0  0  0
   28.2095   25.4617    7.9476 C   0  0  2  0  0  0  0  0  0  0  0  0
   28.3029   24.4181    6.9444 O   0  0  0  0  0  0  0  0  0  0  0  0
   25.8105   26.2857    4.6962 C   0  0  2  0  0  0  0  0  0  0  0  0
   26.8670   25.6799    3.9914 O   0  0  0  0  0  0  0  0  0  0  0  0
   29.6501   24.8642    1.1942 C   0  0  0  0  0  0  0  0  0  0  0  0
   31.0079   24.3322    1.0810 O   0  0  0  0  0  0  0  0  0  0  0  0
   25.9149   21.7572   -2.9001 C   0  0  1  0  0  0  0  0  0  0  0  0
   26.9062   22.3872   -1.9440 O   0  0  0  0  0  0  0  0  0  0  0  0
   29.4668   26.2075    8.1441 C   0  0  0  0  0  0  0  0  0  0  0  0
   30.5215   25.3934    8.0019 O   0  0  0  0  0  0  0  0  0  0  0  0
   25.8877   27.8717    4.6631 C   0  0  1  0  0  0  0  0  0  0  0  0
   25.6961   28.3407    3.3633 O   0  0  0  0  0  0  0  0  0  0  0  0
   26.4357   20.5885    3.5731 C   0  0  0  0  0  0  0  0  0  0  0  0
   26.3786   21.7633   -4.3962 C   0  0  0  0  0  0  0  0  0  0  0  0
   27.6355   21.1005   -4.5948 N   0  0  0  0  0  0  0  0  0  0  0  0
   25.2478   20.2243    4.4649 C   0  0  0  0  0  0  0  0  0  0  0  0
   25.6908   20.4103    5.8604 N   0  0  0  0  0  0  0  0  0  0  0  0
   25.4143   19.2868    6.8616 C   0  0  0  0  0  0  0  0  0  0  0  0
  1  2  1  1  0  0  0
  1  8  1  0  0  0  0
  1 33  1  0  0  0  0
  3  4  1  1  0  0  0
  3 10  1  0  0  0  0
  3 42  1  0  0  0  0
  5 11  1  0  0  0  0
  5 29  1  0  0  0  0
  5 35  1  6  0  0  0
  6 13  1  0  0  0  0
  6 39  1  0  0  0  0
  6 22  1  1  0  0  0
  7 15  1  0  0  0  0
  8  9  1  6  0  0  0
  8 17  1  0  0  0  0
 10 19  1  0  0  0  0
 11 12  1  1  0  0  0
 11 21  1  0  0  0  0
 12 44  1  0  0  0  0
 13 14  1  6  0  0  0
 13 23  1  0  0  0  0
 15 16  1  0  0  0  0
 17 18  1  1  0  0  0
 17 25  1  0  0  0  0
 19 20  1  1  0  0  0
 19 27  1  0  0  0  0
 21 22  1  1  0  0  0
 21 28  1  0  0  0  0
 23 24  1  6  0  0  0
 23 30  1  0  0  0  0
 25 26  1  1  0  0  0
 25 32  1  0  0  0  0
 27  2  1  6  0  0  0
 27 34  1  0  0  0  0
 28 29  1  0  0  0  0
 28 36  1  6  0  0  0
 30 31  1  1  0  0  0
 30 38  1  0  0  0  0
 32 33  1  0  0  0  0
 32 40  1  1  0  0  0
 34 35  1  6  0  0  0
 34 42  1  0  0  0  0
 36 37  1  0  0  0  0
 38 39  1  0  0  0  0
 38 45  1  6  0  0  0
 40 41  1  0  0  0  0
 42 43  1  6  0  0  0
 44 47  1  0  0  0  0
 45 46  1  0  0  0  0
 47 48  1  0  0  0  0
 48 49  1  0  0  0  0
 49  7  1  0  0  0  0
M  END
>  <CHROM.1>
116.53957662,47.49726988,-73.36325326,99.96475139,174.63679744,-109.61543410
10.41566555,-123.91952158,-120.97782387,80.41436989,71.13217302,-59.65686195
-56.98298211,-131.62476174,-21.63702918,-69.58522867,26.57713653,23.39724677
3.92237229,1.54887484,1.22033138,1.17854713

>  <Name>
2bee_lig

>  <RI>
0

>  <Rbt.Current_Directory>
/home/itssahil/PROJECTS/Mol_Feturizer/New_Systems/rnas/2bee

>  <Rbt.Executable>
rbdock ($Id: //depot/dev/client3/rdock/2013.1/src/exe/rbdock.cxx#4 $)

>  <Rbt.Library>
libRbt.so (2013.1, Build901 2013/11/27)

>  <Rbt.Parameter_File>
/export/apps/rDock/src/rDock_2013.1_src/data/scripts/dock_solv.prm

>  <Rbt.Receptor>
prm/blind_docking_80.prm

>  <SCORE>
4.23372

>  <SCORE.INTER>
-13.8674

>  <SCORE.INTER.CONST>
1

>  <SCORE.INTER.POLAR>
-2.5514

>  <SCORE.INTER.ROT>
16

>  <SCORE.INTER.SOLV>
25.7443

>  <SCORE.INTER.VDW>
-23.5883

>  <SCORE.INTER.norm>
-0.283008

>  <SCORE.INTRA>
12.4295

>  <SCORE.INTRA.DIHEDRAL>
3.76451

>  <SCORE.INTRA.DIHEDRAL.0>
36.0842

>  <SCORE.INTRA.POLAR>
0

>  <SCORE.INTRA.POLAR.0>
0

>  <SCORE.INTRA.REPUL>
0.0672157

>  <SCORE.INTRA.REPUL.0>
0

>  <SCORE.INTRA.SOLV>
10.4776

>  <SCORE.INTRA.SOLV.lig_0>
-126.444

>  <SCORE.INTRA.VDW>
4.97241

>  <SCORE.INTRA.VDW.0>
-7.40469

>  <SCORE.INTRA.norm>
0.253664

>  <SCORE.RESTR>
5.67155

>  <SCORE.RESTR.CAVITY>
5.67155

>  <SCORE.RESTR.norm>
0.115746

>  <SCORE.SYSTEM>
0

>  <SCORE.SYSTEM.CONST>
0

>  <SCORE.SYSTEM.DIHEDRAL>
0

>  <SCORE.SYSTEM.SOLV>
0

>  <SCORE.SYSTEM.norm>
0

>  <SCORE.heavy>
49

>  <SCORE.norm>
0.0864025

>  <RMSD>
27.761

$$$$
2bee_lig
 OpenBabel11021811423D
libRbt.so/2013.1/901 2013/11/27
 49 52  0  0  0  0  0  0  0  0999 V2000
   26.0803   23.4842    7.1122 C   0  0  2  0  0  0  0  0  0  0  0  0
   25.1358   24.5371    7.2587 O   0  0  0  0  0  0  0  0  0  0  0  0
   24.7754   28.6255    5.6682 C   0  0  2  0  0  0  0  0  0  0  0  0
   25.1322   30.0355    5.3529 N   0  0  0  0  0  0  0  0  0  0  0  0
   26.3382   24.6051    3.6026 C   0  0  1  0  0  0  0  0  0  0  0  0
   29.3579   22.0110    0.8975 C   0  0  1  0  0  0  0  0  0  0  0  0
   24.6224   21.5399   -2.5002 C   0  0  0  0  0  0  0  0  0  0  0  0
   25.7840   22.3339    8.1505 C   0  0  2  0  0  0  0  0  0  0  0  0
   24.4031   21.8825    8.0161 N   0  0  0  0  0  0  0  0  0  0  0  0
   24.8650   28.3975    7.2455 C   0  0  0  0  0  0  0  0  0  0  0  0
   26.8363   24.5498    2.1950 C   0  0  2  0  0  0  0  0  0  0  0  0
   25.7502   24.4449    1.2052 O   0  0  0  0  0  0  0  0  0  0  0  0
   28.7701   22.6798   -0.4583 C   0  0  2  0  0  0  0  0  0  0  0  0
   27.2988   22.9069   -0.2664 N   0  0  0  0  0  0  0  0  0  0  0  0
   24.0177   20.3910   -3.0616 C   0  0  0  0  0  0  0  0  0  0  0  0
   24.3208   19.1292   -2.5552 N   0  0  0  0  0  0  0  0  0  0  0  0
   26.0873   22.8620    9.6206 C   0  0  1  0  0  0  0  0  0  0  0  0
   25.8224   21.8189   10.5474 O   0  0  0  0  0  0  0  0  0  0  0  0
   24.4925   26.8537    7.6321 C   0  0  2  0  0  0  0  0  0  0  0  0
   24.5607   26.6427    9.0382 N   0  0  0  0  0  0  0  0  0  0  0  0
   27.8300   23.4333    2.4067 C   0  0  2  0  0  0  0  0  0  0  0  0
   29.0357   22.9497    1.9515 O   0  0  0  0  0  0  0  0  0  0  0  0
   29.0299   21.6929   -1.6519 C   0  0  1  0  0  0  0  0  0  0  0  0
   30.4859   21.5361   -1.7827 O   0  0  0  0  0  0  0  0  0  0  0  0
   27.5624   23.3193    9.6989 C   0  0  2  0  0  0  0  0  0  0  0  0
   27.8845   23.8355   11.0538 O   0  0  0  0  0  0  0  0  0  0  0  0
   25.4806   25.8652    6.8990 C   0  0  2  0  0  0  0  0  0  0  0  0
   27.0819   22.4878    3.4716 C   0  0  2  0  0  0  0  0  0  0  0  0
   26.4948   23.3953    4.2876 O   0  0  0  0  0  0  0  0  0  0  0  0
   28.2981   20.2684   -1.3377 C   0  0  2  0  0  0  0  0  0  0  0  0
   26.8336   20.4391   -1.2056 O   0  0  0  0  0  0  0  0  0  0  0  0
   27.8453   24.4559    8.6606 C   0  0  2  0  0  0  0  0  0  0  0  0
   27.5012   23.8870    7.3713 O   0  0  0  0  0  0  0  0  0  0  0  0
   25.3566   26.1315    5.3607 C   0  0  2  0  0  0  0  0  0  0  0  0
   26.2499   25.1932    4.8117 O   0  0  0  0  0  0  0  0  0  0  0  0
   27.9676   21.5722    4.3952 C   0  0  0  0  0  0  0  0  0  0  0  0
   29.3650   21.6625    3.9727 O   0  0  0  0  0  0  0  0  0  0  0  0
   28.8589   19.6529    0.0210 C   0  0  1  0  0  0  0  0  0  0  0  0
   28.6171   20.6825    1.1050 O   0  0  0  0  0  0  0  0  0  0  0  0
   29.2713   24.8101    8.7892 C   0  0  0  0  0  0  0  0  0  0  0  0
   29.6512   25.5996    7.7754 O   0  0  0  0  0  0  0  0  0  0  0  0
   25.7550   27.6284    5.0101 C   0  0  1  0  0  0  0  0  0  0  0  0
   25.6322   27.8557    3.6392 O   0  0  0  0  0  0  0  0  0  0  0  0
   24.3189   24.3236    1.5267 C   0  0  0  0  0  0  0  0  0  0  0  0
   28.0765   18.3120    0.2280 C   0  0  0  0  0  0  0  0  0  0  0  0
   26.7544   18.5106    0.7490 N   0  0  0  0  0  0  0  0  0  0  0  0
   23.5642   23.8306    0.2912 C   0  0  0  0  0  0  0  0  0  0  0  0
   24.5725   23.2617   -0.6241 N   0  0  0  0  0  0  0  0  0  0  0  0
   24.5135   21.7618   -0.9210 C   0  0  0  0  0  0  0  0  0  0  0  0
  1  2  1  1  0  0  0
  1  8  1  0  0  0  0
  1 33  1  0  0  0  0
  3  4  1  1  0  0  0
  3 10  1  0  0  0  0
  3 42  1  0  0  0  0
  5 11  1  0  0  0  0
  5 29  1  0  0  0  0
  5 35  1  1  0  0  0
  6 13  1  0  0  0  0
  6 39  1  0  0  0  0
  6 22  1  1  0  0  0
  7 15  1  0  0  0  0
  8  9  1  1  0  0  0
  8 17  1  0  0  0  0
 10 19  1  0  0  0  0
 11 12  1  6  0  0  0
 11 21  1  0  0  0  0
 12 44  1  0  0  0  0
 13 14  1  1  0  0  0
 13 23  1  0  0  0  0
 15 16  1  0  0  0  0
 17 18  1  1  0  0  0
 17 25  1  0  0  0  0
 19 20  1  1  0  0  0
 19 27  1  0  0  0  0
 21 22  1  6  0  0  0
 21 28  1  0  0  0  0
 23 24  1  1  0  0  0
 23 30  1  0  0  0  0
 25 26  1  1  0  0  0
 25 32  1  0  0  0  0
 27  2  1  6  0  0  0
 27 34  1  0  0  0  0
 28 29  1  0  0  0  0
 28 36  1  1  0  0  0
 30 31  1  1  0  0  0
 30 38  1  0  0  0  0
 32 33  1  0  0  0  0
 32 40  1  6  0  0  0
 34 35  1  6  0  0  0
 34 42  1  0  0  0  0
 36 37  1  0  0  0  0
 38 39  1  0  0  0  0
 38 45  1  1  0  0  0
 40 41  1  0  0  0  0
 42 43  1  6  0  0  0
 44 47  1  0  0  0  0
 45 46  1  0  0  0  0
 47 48  1  0  0  0  0
 48 49  1  0  0  0  0
 49  7  1  0  0  0  0
M  END
>  <CHROM.1>
152.80098686,90.12313555,60.22684787,-53.30325877,-3.48018354,-163.39053934
-89.97279210,-159.67360828,-6.58593267,168.79031182,156.18085364,-78.79590292
17.29849982,114.92528236,132.13604407,-152.08010062,26.64440032,23.41857979
3.69771687,-1.69523693,1.01209457,-1.89902850

>  <Name>
2bee_lig

>  <RI>
0

>  <Rbt.Current_Directory>
/home/itssahil/PROJECTS/Mol_Feturizer/New_Systems/rnas/2bee

>  <Rbt.Executable>
rbdock ($Id: //depot/dev/client3/rdock/2013.1/src/exe/rbdock.cxx#4 $)

>  <Rbt.Library>
libRbt.so (2013.1, Build901 2013/11/27)

>  <Rbt.Parameter_File>
/export/apps/rDock/src/rDock_2013.1_src/data/scripts/dock_solv.prm

>  <Rbt.Receptor>
prm/blind_docking_80.prm

>  <SCORE>
30.7082

>  <SCORE.INTER>
7.87811

>  <SCORE.INTER.CONST>
1

>  <SCORE.INTER.POLAR>
-0.8718

>  <SCORE.INTER.ROT>
16

>  <SCORE.INTER.SOLV>
27.8168

>  <SCORE.INTER.VDW>
-15.3808

>  <SCORE.INTER.norm>
0.160778

>  <SCORE.INTRA>
10.2133

>  <SCORE.INTRA.DIHEDRAL>
2.93517

>  <SCORE.INTRA.DIHEDRAL.0>
36.0842

>  <SCORE.INTRA.POLAR>
0

>  <SCORE.INTRA.POLAR.0>
0

>  <SCORE.INTRA.REPUL>
0.367263

>  <SCORE.INTRA.REPUL.0>
0

>  <SCORE.INTRA.SOLV>
7.77089

>  <SCORE.INTRA.SOLV.lig_0>
-126.444

>  <SCORE.INTRA.VDW>
3.02391

>  <SCORE.INTRA.VDW.0>
-7.40469

>  <SCORE.INTRA.norm>
0.208434

>  <SCORE.RESTR>
12.6168

>  <SCORE.RESTR.CAVITY>
12.6168

>  <SCORE.RESTR.norm>
0.257487

>  <SCORE.SYSTEM>
0

>  <SCORE.SYSTEM.CONST>
0

>  <SCORE.SYSTEM.DIHEDRAL>
0

>  <SCORE.SYSTEM.SOLV>
0

>  <SCORE.SYSTEM.norm>
0

>  <SCORE.heavy>
49

>  <SCORE.norm>
0.626698

>  <RMSD>
27.781

$$$$
2bee_lig
 OpenBabel11021811423D
libRbt.so/2013.1/901 2013/11/27
 49 52  0  0  0  0  0  0  0  0999 V2000
   25.3921   19.8386    2.1069 C   0  0  2  0  0  0  0  0  0  0  0  0
   24.6187   20.9484    1.6685 O   0  0  0  0  0  0  0  0  0  0  0  0
   26.5930   22.1730   -2.0701 C   0  0  2  0  0  0  0  0  0  0  0  0
   26.7553   22.6753   -3.4616 N   0  0  0  0  0  0  0  0  0  0  0  0
   25.6759   24.4620    2.1205 C   0  0  1  0  0  0  0  0  0  0  0  0
   27.5766   23.9384    6.3424 C   0  0  1  0  0  0  0  0  0  0  0  0
   23.9627   28.6366    8.6557 C   0  0  0  0  0  0  0  0  0  0  0  0
   24.5223   18.8912    3.0205 C   0  0  2  0  0  0  0  0  0  0  0  0
   23.3072   18.4954    2.3166 N   0  0  0  0  0  0  0  0  0  0  0  0
   25.6076   20.9173   -2.0728 C   0  0  0  0  0  0  0  0  0  0  0  0
   25.7396   24.9983    3.5137 C   0  0  2  0  0  0  0  0  0  0  0  0
   25.4712   26.4451    3.5850 O   0  0  0  0  0  0  0  0  0  0  0  0
   26.2359   24.8305    6.5367 C   0  0  2  0  0  0  0  0  0  0  0  0
   26.4978   26.1955    5.9698 N   0  0  0  0  0  0  0  0  0  0  0  0
   23.3863   27.9260    9.7345 C   0  0  0  0  0  0  0  0  0  0  0  0
   23.0634   28.5950   10.9130 N   0  0  0  0  0  0  0  0  0  0  0  0
   24.1914   19.6371    4.3866 C   0  0  1  0  0  0  0  0  0  0  0  0
   23.4126   18.7754    5.2038 O   0  0  0  0  0  0  0  0  0  0  0  0
   25.3925   20.3435   -0.5576 C   0  0  2  0  0  0  0  0  0  0  0  0
   24.5219   19.2173   -0.5507 N   0  0  0  0  0  0  0  0  0  0  0  0
   27.0914   24.4222    3.8593 C   0  0  2  0  0  0  0  0  0  0  0  0
   27.8336   23.9491    4.9177 O   0  0  0  0  0  0  0  0  0  0  0  0
   25.9153   24.9174    8.0715 C   0  0  1  0  0  0  0  0  0  0  0  0
   25.6576   23.5492    8.5441 O   0  0  0  0  0  0  0  0  0  0  0  0
   25.5159   20.0247    5.0843 C   0  0  2  0  0  0  0  0  0  0  0  0
   25.2522   20.7391    6.3594 O   0  0  0  0  0  0  0  0  0  0  0  0
   24.7990   21.4782    0.3651 C   0  0  2  0  0  0  0  0  0  0  0  0
   27.8949   24.5412    2.4709 C   0  0  2  0  0  0  0  0  0  0  0  0
   26.9383   24.2250    1.5659 O   0  0  0  0  0  0  0  0  0  0  0  0
   27.1837   25.5916    8.8461 C   0  0  2  0  0  0  0  0  0  0  0  0
   27.4350   26.9672    8.3603 O   0  0  0  0  0  0  0  0  0  0  0  0
   26.3723   20.9592    4.1661 C   0  0  2  0  0  0  0  0  0  0  0  0
   26.5806   20.2049    2.9447 O   0  0  0  0  0  0  0  0  0  0  0  0
   25.7985   22.6833    0.3300 C   0  0  2  0  0  0  0  0  0  0  0  0
   25.1906   23.6141    1.1926 O   0  0  0  0  0  0  0  0  0  0  0  0
   29.0860   23.5441    2.2200 C   0  0  0  0  0  0  0  0  0  0  0  0
   30.0714   24.1751    1.3423 O   0  0  0  0  0  0  0  0  0  0  0  0
   28.4975   24.7231    8.6038 C   0  0  1  0  0  0  0  0  0  0  0  0
   28.7054   24.6454    7.1057 O   0  0  0  0  0  0  0  0  0  0  0  0
   27.6182   21.2560    4.8977 C   0  0  0  0  0  0  0  0  0  0  0  0
   28.5676   21.6806    4.0531 O   0  0  0  0  0  0  0  0  0  0  0  0
   25.9635   23.2408   -1.1479 C   0  0  1  0  0  0  0  0  0  0  0  0
   26.8623   24.3076   -1.1675 O   0  0  0  0  0  0  0  0  0  0  0  0
   25.8389   27.3212    4.7093 C   0  0  0  0  0  0  0  0  0  0  0  0
   29.6413   25.4709    9.3692 C   0  0  0  0  0  0  0  0  0  0  0  0
   29.6325   25.2114   10.7803 N   0  0  0  0  0  0  0  0  0  0  0  0
   24.8079   28.4441    4.8320 C   0  0  0  0  0  0  0  0  0  0  0  0
   24.7807   28.8432    6.2526 N   0  0  0  0  0  0  0  0  0  0  0  0
   24.1552   27.8782    7.2619 C   0  0  0  0  0  0  0  0  0  0  0  0
  1  2  1  1  0  0  0
  1  8  1  0  0  0  0
  1 33  1  0  0  0  0
  3  4  1  6  0  0  0
  3 10  1  0  0  0  0
  3 42  1  0  0  0  0
  5 11  1  0  0  0  0
  5 29  1  0  0  0  0
  5 35  1  1  0  0  0
  6 13  1  0  0  0  0
  6 39  1  0  0  0  0
  6 22  1  6  0  0  0
  7 15  1  0  0  0  0
  8  9  1  6  0  0  0
  8 17  1  0  0  0  0
 10 19  1  0  0  0  0
 11 12  1  6  0  0  0
 11 21  1  0  0  0  0
 12 44  1  0  0  0  0
 13 14  1  1  0  0  0
 13 23  1  0  0  0  0
 15 16  1  0  0  0  0
 17 18  1  1  0  0  0
 17 25  1  0  0  0  0
 19 20  1  6  0  0  0
 19 27  1  0  0  0  0
 21 22  1  1  0  0  0
 21 28  1  0  0  0  0
 23 24  1  1  0  0  0
 23 30  1  0  0  0  0
 25 26  1  1  0  0  0
 25 32  1  0  0  0  0
 27  2  1  1  0  0  0
 27 34  1  0  0  0  0
 28 29  1  0  0  0  0
 28 36  1  1  0  0  0
 30 31  1  6  0  0  0
 30 38  1  0  0  0  0
 32 33  1  0  0  0  0
 32 40  1  1  0  0  0
 34 35  1  1  0  0  0
 34 42  1  0  0  0  0
 36 37  1  0  0  0  0
 38 39  1  0  0  0  0
 38 45  1  1  0  0  0
 40 41  1  0  0  0  0
 42 43  1  1  0  0  0
 44 47  1  0  0  0  0
 45 46  1  0  0  0  0
 47 48  1  0  0  0  0
 48 49  1  0  0  0  0
 49  7  1  0  0  0  0
M  END
>  <CHROM.1>
-143.56298117,-123.17985165,-7.94100042,-172.67524366,-161.02469164,-148.46347125
-7.27533728,24.37813963,-151.27835260,160.51155650,140.34275668,79.59232347
151.77586871,-71.31020169,-168.30718888,179.54246653,26.17455168,23.60956530
4.16564952,1.81797911,-1.41217318,-1.91058452

>  <Name>
2bee_lig

>  <RI>
0

>  <Rbt.Current_Directory>
/home/itssahil/PROJECTS/Mol_Feturizer/New_Systems/rnas/2bee

>  <Rbt.Executable>
rbdock ($Id: //depot/dev/client3/rdock/2013.1/src/exe/rbdock.cxx#4 $)

>  <Rbt.Library>
libRbt.so (2013.1, Build901 2013/11/27)

>  <Rbt.Parameter_File>
/export/apps/rDock/src/rDock_2013.1_src/data/scripts/dock_solv.prm

>  <Rbt.Receptor>
prm/blind_docking_80.prm

>  <SCORE>
49.9617

>  <SCORE.INTER>
0.737046

>  <SCORE.INTER.CONST>
1

>  <SCORE.INTER.POLAR>
-1.07239

>  <SCORE.INTER.ROT>
16

>  <SCORE.INTER.SOLV>
28.6662

>  <SCORE.INTER.VDW>
-19.7561

>  <SCORE.INTER.norm>
0.0150418

>  <SCORE.INTRA>
34.6222

>  <SCORE.INTRA.DIHEDRAL>
7.91143

>  <SCORE.INTRA.DIHEDRAL.0>
36.0842

>  <SCORE.INTRA.POLAR>
0

>  <SCORE.INTRA.POLAR.0>
0

>  <SCORE.INTRA.REPUL>
0.116189

>  <SCORE.INTRA.REPUL.0>
0

>  <SCORE.INTRA.SOLV>
6.84816

>  <SCORE.INTRA.SOLV.lig_0>
-126.444

>  <SCORE.INTRA.VDW>
26.6615

>  <SCORE.INTRA.VDW.0>
-7.40469

>  <SCORE.INTRA.norm>
0.706576

>  <SCORE.RESTR>
14.6024

>  <SCORE.RESTR.CAVITY>
14.6024

>  <SCORE.RESTR.norm>
0.298008

>  <SCORE.SYSTEM>
0

>  <SCORE.SYSTEM.CONST>
0

>  <SCORE.SYSTEM.DIHEDRAL>
0

>  <SCORE.SYSTEM.SOLV>
0

>  <SCORE.SYSTEM.norm>
0

>  <SCORE.heavy>
49

>  <SCORE.norm>
1.01963

>  <RMSD>
27.891

$$$$
2bee_lig
 OpenBabel11021811423D
libRbt.so/2013.1/901 2013/11/27
 49 52  0  0  0  0  0  0  0  0999 V2000
   28.0000   24.9906    8.0042 C   0  0  2  0  0  0  0  0  0  0  0  0
   26.9427   25.9410    8.0387 O   0  0  0  0  0  0  0  0  0  0  0  0
   24.7508   28.1814    4.9483 C   0  0  2  0  0  0  0  0  0  0  0  0
   24.5015   29.1091    3.8116 N   0  0  0  0  0  0  0  0  0  0  0  0
   27.3087   24.5292    4.2820 C   0  0  1  0  0  0  0  0  0  0  0  0
   26.5264   20.4636    1.9966 C   0  0  1  0  0  0  0  0  0  0  0  0
   26.7194   24.9153   -0.7880 C   0  0  0  0  0  0  0  0  0  0  0  0
   27.6077   23.7044    8.8292 C   0  0  2  0  0  0  0  0  0  0  0  0
   26.3420   23.1654    8.3432 N   0  0  0  0  0  0  0  0  0  0  0  0
   25.4848   28.9721    6.1248 C   0  0  0  0  0  0  0  0  0  0  0  0
   28.3114   23.7528    3.4920 C   0  0  2  0  0  0  0  0  0  0  0  0
   28.9932   24.5670    2.4709 O   0  0  0  0  0  0  0  0  0  0  0  0
   27.1440   18.9653    2.0659 C   0  0  2  0  0  0  0  0  0  0  0  0
   28.5690   19.0262    1.5981 N   0  0  0  0  0  0  0  0  0  0  0  0
   25.4047   24.4874   -0.4894 C   0  0  0  0  0  0  0  0  0  0  0  0
   24.9087   23.3176   -1.0606 N   0  0  0  0  0  0  0  0  0  0  0  0
   27.5320   24.0743   10.3750 C   0  0  1  0  0  0  0  0  0  0  0  0
   27.1830   22.9100   11.1096 O   0  0  0  0  0  0  0  0  0  0  0  0
   25.7888   27.9822    7.3894 C   0  0  2  0  0  0  0  0  0  0  0  0
   26.4354   28.6807    8.4479 N   0  0  0  0  0  0  0  0  0  0  0  0
   27.3934   22.6142    3.1185 C   0  0  2  0  0  0  0  0  0  0  0  0
   27.3913   21.2672    2.8345 O   0  0  0  0  0  0  0  0  0  0  0  0
   26.2913   18.0331    1.1331 C   0  0  1  0  0  0  0  0  0  0  0  0
   24.9207   18.0154    1.6649 O   0  0  0  0  0  0  0  0  0  0  0  0
   28.9006   24.6333   10.8284 C   0  0  2  0  0  0  0  0  0  0  0  0
   28.8691   25.0068   12.2656 O   0  0  0  0  0  0  0  0  0  0  0  0
   26.6924   26.7764    6.9200 C   0  0  2  0  0  0  0  0  0  0  0  0
   25.9803   23.3519    2.9027 C   0  0  2  0  0  0  0  0  0  0  0  0
   25.9884   24.2690    3.8992 O   0  0  0  0  0  0  0  0  0  0  0  0
   26.3370   18.6146   -0.3911 C   0  0  2  0  0  0  0  0  0  0  0  0
   27.7216   18.6300   -0.9146 O   0  0  0  0  0  0  0  0  0  0  0  0
   29.2813   25.9049    9.9990 C   0  0  2  0  0  0  0  0  0  0  0  0
   29.2828   25.4697    8.6152 O   0  0  0  0  0  0  0  0  0  0  0  0
   25.9307   26.0391    5.7673 C   0  0  2  0  0  0  0  0  0  0  0  0
   26.8037   24.9835    5.4457 O   0  0  0  0  0  0  0  0  0  0  0  0
   24.6687   22.5041    3.0943 C   0  0  0  0  0  0  0  0  0  0  0  0
   24.3211   21.8544    1.8307 O   0  0  0  0  0  0  0  0  0  0  0  0
   25.7676   20.1025   -0.4265 C   0  0  1  0  0  0  0  0  0  0  0  0
   26.6074   20.9195    0.5330 O   0  0  0  0  0  0  0  0  0  0  0  0
   30.6021   26.3519   10.4799 C   0  0  0  0  0  0  0  0  0  0  0  0
   31.5595   25.5081   10.0716 O   0  0  0  0  0  0  0  0  0  0  0  0
   25.6774   27.0146    4.5399 C   0  0  1  0  0  0  0  0  0  0  0  0
   24.9909   26.3493    3.5238 O   0  0  0  0  0  0  0  0  0  0  0  0
   29.9856   24.0624    1.5079 C   0  0  0  0  0  0  0  0  0  0  0  0
   25.8796   20.5585   -1.9207 C   0  0  0  0  0  0  0  0  0  0  0  0
   27.2300   20.5600   -2.4053 N   0  0  0  0  0  0  0  0  0  0  0  0
   30.1646   25.0854    0.3852 C   0  0  0  0  0  0  0  0  0  0  0  0
   29.2545   24.6840   -0.7050 N   0  0  0  0  0  0  0  0  0  0  0  0
   27.9418   23.9919   -0.3319 C   0  0  0  0  0  0  0  0  0  0  0  0
  1  2  1  1  0  0  0
  1  8  1  0  0  0  0
  1 33  1  0  0  0  0
  3  4  1  6  0  0  0
  3 10  1  0  0  0  0
  3 42  1  0  0  0  0
  5 11  1  0  0  0  0
  5 29  1  0  0  0  0
  5 35  1  1  0  0  0
  6 13  1  0  0  0  0
  6 39  1  0  0  0  0
  6 22  1  1  0  0  0
  7 15  1  0  0  0  0
  8  9  1  6  0  0  0
  8 17  1  0  0  0  0
 10 19  1  0  0  0  0
 11 12  1  6  0  0  0
 11 21  1  0  0  0  0
 12 44  1  0  0  0  0
 13 14  1  6  0  0  0
 13 23  1  0  0  0  0
 15 16  1  0  0  0  0
 17 18  1  1  0  0  0
 17 25  1  0  0  0  0
 19 20  1  1  0  0  0
 19 27  1  0  0  0  0
 21 22  1  6  0  0  0
 21 28  1  0  0  0  0
 23 24  1  1  0  0  0
 23 30  1  0  0  0  0
 25 26  1  1  0  0  0
 25 32  1  0  0  0  0
 27  2  1  1  0  0  0
 27 34  1  0  0  0  0
 28 29  1  0  0  0  0
 28 36  1  1  0  0  0
 30 31  1  1  0  0  0
 30 38  1  0  0  0  0
 32 33  1  0  0  0  0
 32 40  1  1  0  0  0
 34 35  1  6  0  0  0
 34 42  1  0  0  0  0
 36 37  1  0  0  0  0
 38 39  1  0  0  0  0
 38 45  1  6  0  0  0
 40 41  1  0  0  0  0
 42 43  1  6  0  0  0
 44 47  1  0  0  0  0
 45 46  1  0  0  0  0
 47 48  1  0  0  0  0
 48 49  1  0  0  0  0
 49  7  1  0  0  0  0
M  END
>  <CHROM.1>
-146.29986930,161.06499892,177.29613167,-64.11541869,-177.28309013,164.22430972
-150.96696853,-163.20590211,-87.60009768,71.91365425,-130.42492983,-60.85385279
-94.16757589,31.74809418,116.48334416,-177.50678439,27.09119671,23.75583732
4.16156256,-1.15721946,1.26162760,-2.45981261

>  <Name>
2bee_lig

>  <RI>
0

>  <Rbt.Current_Directory>
/home/itssahil/PROJECTS/Mol_Feturizer/New_Systems/rnas/2bee

>  <Rbt.Executable>
rbdock ($Id: //depot/dev/client3/rdock/2013.1/src/exe/rbdock.cxx#4 $)

>  <Rbt.Library>
libRbt.so (2013.1, Build901 2013/11/27)

>  <Rbt.Parameter_File>
/export/apps/rDock/src/rDock_2013.1_src/data/scripts/dock_solv.prm

>  <Rbt.Receptor>
prm/blind_docking_80.prm

>  <SCORE>
32.0737

>  <SCORE.INTER>
16.7737

>  <SCORE.INTER.CONST>
1

>  <SCORE.INTER.POLAR>
-0.825039

>  <SCORE.INTER.ROT>
16

>  <SCORE.INTER.SOLV>
38.0437

>  <SCORE.INTER.VDW>
-13.0153

>  <SCORE.INTER.norm>
0.342319

>  <SCORE.INTRA>
6.74839

>  <SCORE.INTRA.DIHEDRAL>
-8.53127

>  <SCORE.INTRA.DIHEDRAL.0>
36.0842

>  <SCORE.INTRA.POLAR>
0

>  <SCORE.INTRA.POLAR.0>
0

>  <SCORE.INTRA.REPUL>
0

>  <SCORE.INTRA.REPUL.0>
0

>  <SCORE.INTRA.SOLV>
5.73768

>  <SCORE.INTRA.SOLV.lig_0>
-126.444

>  <SCORE.INTRA.VDW>
8.14519

>  <SCORE.INTRA.VDW.0>
-7.40469

>  <SCORE.INTRA.norm>
0.137722

>  <SCORE.RESTR>
8.55165

>  <SCORE.RESTR.CAVITY>
8.55165

>  <SCORE.RESTR.norm>
0.174524

>  <SCORE.SYSTEM>
0

>  <SCORE.SYSTEM.CONST>
0

>  <SCORE.SYSTEM.DIHEDRAL>
0

>  <SCORE.SYSTEM.SOLV>
0

>  <SCORE.SYSTEM.norm>
0

>  <SCORE.heavy>
49

>  <SCORE.norm>
0.654565

>  <RMSD>
27.913

$$$$
2bee_lig
 OpenBabel11021811423D
libRbt.so/2013.1/901 2013/11/27
 49 52  0  0  0  0  0  0  0  0999 V2000
   27.0366   23.1961    0.8239 C   0  0  2  0  0  0  0  0  0  0  0  0
   28.0225   22.3983    1.4670 O   0  0  0  0  0  0  0  0  0  0  0  0
   25.4782   19.4222    3.4778 C   0  0  2  0  0  0  0  0  0  0  0  0
   25.0963   18.2208    4.2687 N   0  0  0  0  0  0  0  0  0  0  0  0
   27.1953   23.6563    4.9663 C   0  0  1  0  0  0  0  0  0  0  0  0
   24.0178   27.1992    5.5182 C   0  0  1  0  0  0  0  0  0  0  0  0
   25.7891   22.2771    9.2722 C   0  0  0  0  0  0  0  0  0  0  0  0
   25.5919   22.6592    1.1610 C   0  0  2  0  0  0  0  0  0  0  0  0
   25.4104   22.5861    2.6068 N   0  0  0  0  0  0  0  0  0  0  0  0
   26.3920   18.9765    2.2473 C   0  0  0  0  0  0  0  0  0  0  0  0
   27.0392   25.1220    5.2112 C   0  0  2  0  0  0  0  0  0  0  0  0
   27.8461   25.6039    6.3456 O   0  0  0  0  0  0  0  0  0  0  0  0
   24.5983   28.3129    4.4917 C   0  0  2  0  0  0  0  0  0  0  0  0
   26.0875   28.1427    4.4122 N   0  0  0  0  0  0  0  0  0  0  0  0
   24.4930   22.3939    9.8266 C   0  0  0  0  0  0  0  0  0  0  0  0
   23.5001   21.4849    9.4682 N   0  0  0  0  0  0  0  0  0  0  0  0
   25.3847   21.2399    0.4721 C   0  0  1  0  0  0  0  0  0  0  0  0
   24.0807   20.7670    0.7770 O   0  0  0  0  0  0  0  0  0  0  0  0
   26.8444   20.2722    1.3596 C   0  0  2  0  0  0  0  0  0  0  0  0
   27.6526   19.8839    0.2540 N   0  0  0  0  0  0  0  0  0  0  0  0
   25.5301   25.1315    5.2478 C   0  0  2  0  0  0  0  0  0  0  0  0
   24.4405   25.9266    4.9726 O   0  0  0  0  0  0  0  0  0  0  0  0
   24.2294   29.7364    5.0428 C   0  0  1  0  0  0  0  0  0  0  0  0
   22.7623   29.8278    5.0753 O   0  0  0  0  0  0  0  0  0  0  0  0
   25.5849   21.3851   -1.0544 C   0  0  2  0  0  0  0  0  0  0  0  0
   25.4153   20.0768   -1.7365 O   0  0  0  0  0  0  0  0  0  0  0  0
   27.6396   21.2906    2.2660 C   0  0  2  0  0  0  0  0  0  0  0  0
   25.1822   23.7336    5.9635 C   0  0  2  0  0  0  0  0  0  0  0  0
   26.1074   22.9050    5.4237 O   0  0  0  0  0  0  0  0  0  0  0  0
   24.8758   29.9187    6.5303 C   0  0  2  0  0  0  0  0  0  0  0  0
   26.3523   29.8223    6.4853 O   0  0  0  0  0  0  0  0  0  0  0  0
   27.0189   21.9239   -1.3756 C   0  0  2  0  0  0  0  0  0  0  0  0
   27.1155   23.1896   -0.6734 O   0  0  0  0  0  0  0  0  0  0  0  0
   26.7031   21.6919    3.4553 C   0  0  2  0  0  0  0  0  0  0  0  0
   27.4931   22.6068    4.1755 O   0  0  0  0  0  0  0  0  0  0  0  0
   23.7808   23.0821    5.6680 C   0  0  0  0  0  0  0  0  0  0  0  0
   22.7210   24.0180    6.0430 O   0  0  0  0  0  0  0  0  0  0  0  0
   24.3258   28.7873    7.5084 C   0  0  1  0  0  0  0  0  0  0  0  0
   24.6756   27.4537    6.8818 O   0  0  0  0  0  0  0  0  0  0  0  0
   27.1110   22.0526   -2.8421 C   0  0  0  0  0  0  0  0  0  0  0  0
   26.1114   22.8128   -3.3093 O   0  0  0  0  0  0  0  0  0  0  0  0
   26.3058   20.4195    4.3188 C   0  0  1  0  0  0  0  0  0  0  0  0
   25.4650   20.7882    5.3692 O   0  0  0  0  0  0  0  0  0  0  0  0
   27.7821   25.0736    7.7174 C   0  0  0  0  0  0  0  0  0  0  0  0
   25.0243   29.0484    8.8857 C   0  0  0  0  0  0  0  0  0  0  0  0
   26.4452   28.8548    8.8379 N   0  0  0  0  0  0  0  0  0  0  0  0
   26.4168   25.4035    8.3225 C   0  0  0  0  0  0  0  0  0  0  0  0
   26.3603   24.7324    9.6357 N   0  0  0  0  0  0  0  0  0  0  0  0
   26.9139   23.3101    9.7442 C   0  0  0  0  0  0  0  0  0  0  0  0
  1  2  1  1  0  0  0
  1  8  1  0  0  0  0
  1 33  1  0  0  0  0
  3  4  1  1  0  0  0
  3 10  1  0  0  0  0
  3 42  1  0  0  0  0
  5 11  1  0  0  0  0
  5 29  1  0  0  0  0
  5 35  1  6  0  0  0
  6 13  1  0  0  0  0
  6 39  1  0  0  0  0
  6 22  1  6  0  0  0
  7 15  1  0  0  0  0
  8  9  1  1  0  0  0
  8 17  1  0  0  0  0
 10 19  1  0  0  0  0
 11 12  1  1  0  0  0
 11 21  1  0  0  0  0
 12 44  1  0  0  0  0
 13 14  1  1  0  0  0
 13 23  1  0  0  0  0
 15 16  1  0  0  0  0
 17 18  1  6  0  0  0
 17 25  1  0  0  0  0
 19 20  1  6  0  0  0
 19 27  1  0  0  0  0
 21 22  1  1  0  0  0
 21 28  1  0  0  0  0
 23 24  1  1  0  0  0
 23 30  1  0  0  0  0
 25 26  1  6  0  0  0
 25 32  1  0  0  0  0
 27  2  1  6  0  0  0
 27 34  1  0  0  0  0
 28 29  1  0  0  0  0
 28 36  1  6  0  0  0
 30 31  1  6  0  0  0
 30 38  1  0  0  0  0
 32 33  1  0  0  0  0
 32 40  1  6  0  0  0
 34 35  1  1  0  0  0
 34 42  1  0  0  0  0
 36 37  1  0  0  0  0
 38 39  1  0  0  0  0
 38 45  1  1  0  0  0
 40 41  1  0  0  0  0
 42 43  1  1  0  0  0
 44 47  1  0  0  0  0
 45 46  1  0  0  0  0
 47 48  1  0  0  0  0
 48 49  1  0  0  0  0
 49  7  1  0  0  0  0
M  END
>  <CHROM.1>
0.54256429,-100.07693256,95.32168355,-178.04387897,-56.03403776,-66.83093366
-61.68528321,60.16625995,-58.03516945,54.66078924,151.68881793,-65.30224194
174.34132233,-41.58626427,-83.43320791,-49.95351930,25.77689555,23.86285857
4.29295645,0.23064354,1.45474423,-0.92767597

>  <Name>
2bee_lig

>  <RI>
0

>  <Rbt.Current_Directory>
/home/itssahil/PROJECTS/Mol_Feturizer/New_Systems/rnas/2bee

>  <Rbt.Executable>
rbdock ($Id: //depot/dev/client3/rdock/2013.1/src/exe/rbdock.cxx#4 $)

>  <Rbt.Library>
libRbt.so (2013.1, Build901 2013/11/27)

>  <Rbt.Parameter_File>
/export/apps/rDock/src/rDock_2013.1_src/data/scripts/dock_solv.prm

>  <Rbt.Receptor>
prm/blind_docking_80.prm

>  <SCORE>
73.0984

>  <SCORE.INTER>
2.12092

>  <SCORE.INTER.CONST>
1

>  <SCORE.INTER.POLAR>
-1.24378

>  <SCORE.INTER.ROT>
16

>  <SCORE.INTER.SOLV>
26.1052

>  <SCORE.INTER.VDW>
-17.4085

>  <SCORE.INTER.norm>
0.0432841

>  <SCORE.INTRA>
53.6597

>  <SCORE.INTRA.DIHEDRAL>
-9.45786

>  <SCORE.INTRA.DIHEDRAL.0>
36.0842

>  <SCORE.INTRA.POLAR>
0

>  <SCORE.INTRA.POLAR.0>
0

>  <SCORE.INTRA.REPUL>
0.00623581

>  <SCORE.INTRA.REPUL.0>
0

>  <SCORE.INTRA.SOLV>
18.4613

>  <SCORE.INTRA.SOLV.lig_0>
-126.444

>  <SCORE.INTRA.VDW>
49.1268

>  <SCORE.INTRA.VDW.0>
-7.40469

>  <SCORE.INTRA.norm>
1.0951

>  <SCORE.RESTR>
17.3177

>  <SCORE.RESTR.CAVITY>
17.3177

>  <SCORE.RESTR.norm>
0.353423

>  <SCORE.SYSTEM>
0

>  <SCORE.SYSTEM.CONST>
0

>  <SCORE.SYSTEM.DIHEDRAL>
0

>  <SCORE.SYSTEM.SOLV>
0

>  <SCORE.SYSTEM.norm>
0

>  <SCORE.heavy>
49

>  <SCORE.norm>
1.4918

>  <RMSD>
27.923

$$$$
2bee_lig
 OpenBabel11021811423D
libRbt.so/2013.1/901 2013/11/27
 49 52  0  0  0  0  0  0  0  0999 V2000
   27.0628   25.9185    9.1063 C   0  0  2  0  0  0  0  0  0  0  0  0
   27.4597   25.6868    7.7606 O   0  0  0  0  0  0  0  0  0  0  0  0
   24.7322   27.9776    5.1746 C   0  0  2  0  0  0  0  0  0  0  0  0
   24.2763   28.9229    4.1194 N   0  0  0  0  0  0  0  0  0  0  0  0
   26.5531   23.4981    4.8747 C   0  0  1  0  0  0  0  0  0  0  0  0
   26.8004   22.5884    0.5097 C   0  0  1  0  0  0  0  0  0  0  0  0
   26.7715   18.5195    1.4141 C   0  0  0  0  0  0  0  0  0  0  0  0
   28.0858   25.2477   10.1025 C   0  0  2  0  0  0  0  0  0  0  0  0
   29.4386   25.7151    9.8199 N   0  0  0  0  0  0  0  0  0  0  0  0
   25.6791   28.7491    6.2022 C   0  0  0  0  0  0  0  0  0  0  0  0
   25.7106   22.4706    4.1913 C   0  0  2  0  0  0  0  0  0  0  0  0
   25.2588   21.4021    5.0992 O   0  0  0  0  0  0  0  0  0  0  0  0
   25.3682   23.3341    0.3557 C   0  0  2  0  0  0  0  0  0  0  0  0
   24.2963   22.2838    0.3262 N   0  0  0  0  0  0  0  0  0  0  0  0
   27.4474   18.3765    0.1798 C   0  0  0  0  0  0  0  0  0  0  0  0
   27.0655   19.1495   -0.9144 N   0  0  0  0  0  0  0  0  0  0  0  0
   27.9757   23.6649    9.9822 C   0  0  1  0  0  0  0  0  0  0  0  0
   28.8963   23.0701   10.8854 O   0  0  0  0  0  0  0  0  0  0  0  0
   26.2127   27.7396    7.3717 C   0  0  2  0  0  0  0  0  0  0  0  0
   27.0512   28.4207    8.2987 N   0  0  0  0  0  0  0  0  0  0  0  0
   26.6621   22.1966    3.0519 C   0  0  2  0  0  0  0  0  0  0  0  0
   26.6942   21.8158    1.7294 O   0  0  0  0  0  0  0  0  0  0  0  0
   25.3781   24.1570   -0.9818 C   0  0  1  0  0  0  0  0  0  0  0  0
   26.4391   25.1683   -0.8671 O   0  0  0  0  0  0  0  0  0  0  0  0
   26.5244   23.2339   10.2972 C   0  0  2  0  0  0  0  0  0  0  0  0
   26.3734   21.7609   10.1808 O   0  0  0  0  0  0  0  0  0  0  0  0
   27.0058   26.5396    6.7219 C   0  0  2  0  0  0  0  0  0  0  0  0
   28.1039   22.3175    3.7548 C   0  0  2  0  0  0  0  0  0  0  0  0
   27.9176   23.3608    4.5979 O   0  0  0  0  0  0  0  0  0  0  0  0
   25.6470   23.1432   -2.2322 C   0  0  2  0  0  0  0  0  0  0  0  0
   24.5742   22.1285   -2.3360 O   0  0  0  0  0  0  0  0  0  0  0  0
   25.5189   23.9102    9.3065 C   0  0  2  0  0  0  0  0  0  0  0  0
   25.7287   25.3366    9.4668 O   0  0  0  0  0  0  0  0  0  0  0  0
   26.0363   25.8212    5.7237 C   0  0  2  0  0  0  0  0  0  0  0  0
   26.8279   24.7692    5.2271 O   0  0  0  0  0  0  0  0  0  0  0  0
   29.3358   22.6949    2.8516 C   0  0  0  0  0  0  0  0  0  0  0  0
   29.4459   24.1508    2.7636 O   0  0  0  0  0  0  0  0  0  0  0  0
   27.0372   22.3894   -2.0363 C   0  0  1  0  0  0  0  0  0  0  0  0
   26.9643   21.6670   -0.7072 O   0  0  0  0  0  0  0  0  0  0  0  0
   24.1676   23.4637    9.6944 C   0  0  0  0  0  0  0  0  0  0  0  0
   23.2366   24.1246    8.9931 O   0  0  0  0  0  0  0  0  0  0  0  0
   25.5595   26.8157    4.5809 C   0  0  1  0  0  0  0  0  0  0  0  0
   24.6901   26.1671    3.7036 O   0  0  0  0  0  0  0  0  0  0  0  0
   24.5849   20.1622    4.6802 C   0  0  0  0  0  0  0  0  0  0  0  0
   27.1762   21.4385   -3.2730 C   0  0  0  0  0  0  0  0  0  0  0  0
   28.5398   21.2294   -3.6674 N   0  0  0  0  0  0  0  0  0  0  0  0
   25.5267   19.3531    3.7873 C   0  0  0  0  0  0  0  0  0  0  0  0
   24.6760   18.5817    2.8604 N   0  0  0  0  0  0  0  0  0  0  0  0
   25.1816   18.3567    1.4338 C   0  0  0  0  0  0  0  0  0  0  0  0
  1  2  1  6  0  0  0
  1  8  1  0  0  0  0
  1 33  1  0  0  0  0
  3  4  1  6  0  0  0
  3 10  1  0  0  0  0
  3 42  1  0  0  0  0
  5 11  1  0  0  0  0
  5 29  1  0  0  0  0
  5 35  1  6  0  0  0
  6 13  1  0  0  0  0
  6 39  1  0  0  0  0
  6 22  1  1  0  0  0
  7 15  1  0  0  0  0
  8  9  1  6  0  0  0
  8 17  1  0  0  0  0
 10 19  1  0  0  0  0
 11 12  1  1  0  0  0
 11 21  1  0  0  0  0
 12 44  1  0  0  0  0
 13 14  1  6  0  0  0
 13 23  1  0  0  0  0
 15 16  1  0  0  0  0
 17 18  1  1  0  0  0
 17 25  1  0  0  0  0
 19 20  1  1  0  0  0
 19 27  1  0  0  0  0
 21 22  1  1  0  0  0
 21 28  1  0  0  0  0
 23 24  1  1  0  0  0
 23 30  1  0  0  0  0
 25 26  1  6  0  0  0
 25 32  1  0  0  0  0
 27  2  1  1  0  0  0
 27 34  1  0  0  0  0
 28 29  1  0  0  0  0
 28 36  1  6  0  0  0
 30 31  1  1  0  0  0
 30 38  1  0  0  0  0
 32 33  1  0  0  0  0
 32 40  1  1  0  0  0
 34 35  1  6  0  0  0
 34 42  1  0  0  0  0
 36 37  1  0  0  0  0
 38 39  1  0  0  0  0
 38 45  1  6  0  0  0
 40 41  1  0  0  0  0
 42 43  1  6  0  0  0
 44 47  1  0  0  0  0
 45 46  1  0  0  0  0
 47 48  1  0  0  0  0
 48 49  1  0  0  0  0
 49  7  1  0  0  0  0
M  END
>  <CHROM.1>
-157.95475112,44.33735032,-71.48797248,54.43279436,-170.72252219,62.61753384
97.66368323,6.13665468,87.26164122,172.65437762,143.88730881,148.92691558
-150.63945793,144.77146926,22.11140422,-178.79538816,26.40394621,23.43010054
4.17455373,1.38587617,-1.49914467,0.99717265

>  <Name>
2bee_lig

>  <RI>
0

>  <Rbt.Current_Directory>
/home/itssahil/PROJECTS/Mol_Feturizer/New_Systems/rnas/2bee

>  <Rbt.Executable>
rbdock ($Id: //depot/dev/client3/rdock/2013.1/src/exe/rbdock.cxx#4 $)

>  <Rbt.Library>
libRbt.so (2013.1, Build901 2013/11/27)

>  <Rbt.Parameter_File>
/export/apps/rDock/src/rDock_2013.1_src/data/scripts/dock_solv.prm

>  <Rbt.Receptor>
prm/blind_docking_80.prm

>  <SCORE>
14.7235

>  <SCORE.INTER>
-0.366829

>  <SCORE.INTER.CONST>
1

>  <SCORE.INTER.POLAR>
-0.61041

>  <SCORE.INTER.ROT>
16

>  <SCORE.INTER.SOLV>
31.006

>  <SCORE.INTER.VDW>
-22.8119

>  <SCORE.INTER.norm>
-0.0074863

>  <SCORE.INTRA>
5.12475

>  <SCORE.INTRA.DIHEDRAL>
-6.35709

>  <SCORE.INTRA.DIHEDRAL.0>
36.0842

>  <SCORE.INTRA.POLAR>
0

>  <SCORE.INTRA.POLAR.0>
0

>  <SCORE.INTRA.REPUL>
0.0189157

>  <SCORE.INTRA.REPUL.0>
0

>  <SCORE.INTRA.SOLV>
3.48252

>  <SCORE.INTRA.SOLV.lig_0>
-126.444

>  <SCORE.INTRA.VDW>
6.46745

>  <SCORE.INTRA.VDW.0>
-7.40469

>  <SCORE.INTRA.norm>
0.104587

>  <SCORE.RESTR>
9.96556

>  <SCORE.RESTR.CAVITY>
9.96556

>  <SCORE.RESTR.norm>
0.203379

>  <SCORE.SYSTEM>
0

>  <SCORE.SYSTEM.CONST>
0

>  <SCORE.SYSTEM.DIHEDRAL>
0

>  <SCORE.SYSTEM.SOLV>
0

>  <SCORE.SYSTEM.norm>
0

>  <SCORE.heavy>
49

>  <SCORE.norm>
0.300479

>  <RMSD>
28.008

$$$$
2bee_lig
 OpenBabel11021811423D
libRbt.so/2013.1/901 2013/11/27
 49 52  0  0  0  0  0  0  0  0999 V2000
   27.0343   25.9031    9.0121 C   0  0  2  0  0  0  0  0  0  0  0  0
   27.4892   25.6933    7.6812 O   0  0  0  0  0  0  0  0  0  0  0  0
   24.8043   27.9372    5.0108 C   0  0  2  0  0  0  0  0  0  0  0  0
   24.3649   28.8791    3.9456 N   0  0  0  0  0  0  0  0  0  0  0  0
   26.7532   23.6986    4.3468 C   0  0  1  0  0  0  0  0  0  0  0  0
   27.4092   22.3596   -0.2181 C   0  0  1  0  0  0  0  0  0  0  0  0
   23.9550   20.4559    6.6070 C   0  0  0  0  0  0  0  0  0  0  0  0
   27.9933   25.1848   10.0385 C   0  0  2  0  0  0  0  0  0  0  0  0
   29.3684   25.6260    9.8310 N   0  0  0  0  0  0  0  0  0  0  0  0
   25.6937   28.7235    6.0779 C   0  0  0  0  0  0  0  0  0  0  0  0
   25.9437   22.9283    3.3549 C   0  0  2  0  0  0  0  0  0  0  0  0
   25.5736   21.5854    3.8345 O   0  0  0  0  0  0  0  0  0  0  0  0
   26.4491   22.5965   -1.5039 C   0  0  2  0  0  0  0  0  0  0  0  0
   25.0380   22.2883   -1.0954 N   0  0  0  0  0  0  0  0  0  0  0  0
   25.2540   20.4201    7.1657 C   0  0  0  0  0  0  0  0  0  0  0  0
   25.8245   19.1992    7.5189 N   0  0  0  0  0  0  0  0  0  0  0  0
   27.8527   23.6083    9.8745 C   0  0  1  0  0  0  0  0  0  0  0  0
   28.7156   22.9707   10.8051 O   0  0  0  0  0  0  0  0  0  0  0  0
   26.2080   27.7184    7.2597 C   0  0  2  0  0  0  0  0  0  0  0  0
   26.9949   28.4126    8.2216 N   0  0  0  0  0  0  0  0  0  0  0  0
   26.8736   23.1256    2.1822 C   0  0  2  0  0  0  0  0  0  0  0  0
   26.8854   23.2340    0.8099 O   0  0  0  0  0  0  0  0  0  0  0  0
   26.9169   21.6379   -2.6564 C   0  0  1  0  0  0  0  0  0  0  0  0
   28.2947   22.0127   -3.0069 O   0  0  0  0  0  0  0  0  0  0  0  0
   26.3786   23.2052   10.1106 C   0  0  2  0  0  0  0  0  0  0  0  0
   26.1995   21.7395    9.9515 O   0  0  0  0  0  0  0  0  0  0  0  0
   27.0534   26.5426    6.6320 C   0  0  2  0  0  0  0  0  0  0  0  0
   28.3277   23.0759    2.8682 C   0  0  2  0  0  0  0  0  0  0  0  0
   28.1141   23.7457    4.0256 O   0  0  0  0  0  0  0  0  0  0  0  0
   26.8283   20.0932   -2.1370 C   0  0  2  0  0  0  0  0  0  0  0  0
   25.4375   19.7283   -1.7848 O   0  0  0  0  0  0  0  0  0  0  0  0
   25.4370   23.9284    9.0907 C   0  0  2  0  0  0  0  0  0  0  0  0
   25.6716   25.3452    9.2954 O   0  0  0  0  0  0  0  0  0  0  0  0
   26.1391   25.8086    5.5938 C   0  0  2  0  0  0  0  0  0  0  0  0
   26.9738   24.7797    5.1201 O   0  0  0  0  0  0  0  0  0  0  0  0
   29.5115   23.8159    2.1424 C   0  0  0  0  0  0  0  0  0  0  0  0
   29.2702   25.2584    2.1661 O   0  0  0  0  0  0  0  0  0  0  0  0
   27.7436   19.8959   -0.8477 C   0  0  1  0  0  0  0  0  0  0  0  0
   27.2625   20.8873    0.1912 O   0  0  0  0  0  0  0  0  0  0  0  0
   24.0590   23.5058    9.4039 C   0  0  0  0  0  0  0  0  0  0  0  0
   23.6947   23.9545   10.6128 O   0  0  0  0  0  0  0  0  0  0  0  0
   25.6809   26.7999    4.4407 C   0  0  1  0  0  0  0  0  0  0  0  0
   24.8605   26.1372    3.5275 O   0  0  0  0  0  0  0  0  0  0  0  0
   24.7713   20.6075    3.0816 C   0  0  0  0  0  0  0  0  0  0  0  0
   27.5635   18.3968   -0.4314 C   0  0  0  0  0  0  0  0  0  0  0  0
   26.7679   18.2367    0.7518 N   0  0  0  0  0  0  0  0  0  0  0  0
   25.2683   19.1963    3.3987 C   0  0  0  0  0  0  0  0  0  0  0  0
   24.9462   18.9404    4.8160 N   0  0  0  0  0  0  0  0  0  0  0  0
   23.6326   19.4965    5.3698 C   0  0  0  0  0  0  0  0  0  0  0  0
  1  2  1  6  0  0  0
  1  8  1  0  0  0  0
  1 33  1  0  0  0  0
  3  4  1  6  0  0  0
  3 10  1  0  0  0  0
  3 42  1  0  0  0  0
  5 11  1  0  0  0  0
  5 29  1  0  0  0  0
  5 35  1  6  0  0  0
  6 13  1  0  0  0  0
  6 39  1  0  0  0  0
  6 22  1  1  0  0  0
  7 15  1  0  0  0  0
  8  9  1  6  0  0  0
  8 17  1  0  0  0  0
 10 19  1  0  0  0  0
 11 12  1  1  0  0  0
 11 21  1  0  0  0  0
 12 44  1  0  0  0  0
 13 14  1  1  0  0  0
 13 23  1  0  0  0  0
 15 16  1  0  0  0  0
 17 18  1  1  0  0  0
 17 25  1  0  0  0  0
 19 20  1  1  0  0  0
 19 27  1  0  0  0  0
 21 22  1  6  0  0  0
 21 28  1  0  0  0  0
 23 24  1  1  0  0  0
 23 30  1  0  0  0  0
 25 26  1  6  0  0  0
 25 32  1  0  0  0  0
 27  2  1  1  0  0  0
 27 34  1  0  0  0  0
 28 29  1  0  0  0  0
 28 36  1  6  0  0  0
 30 31  1  1  0  0  0
 30 38  1  0  0  0  0
 32 33  1  0  0  0  0
 32 40  1  1  0  0  0
 34 35  1  6  0  0  0
 34 42  1  0  0  0  0
 36 37  1  0  0  0  0
 38 39  1  0  0  0  0
 38 45  1  1  0  0  0
 40 41  1  0  0  0  0
 42 43  1  6  0  0  0
 44 47  1  0  0  0  0
 45 46  1  0  0  0  0
 47 48  1  0  0  0  0
 48 49  1  0  0  0  0
 49  7  1  0  0  0  0
M  END
>  <CHROM.1>
-160.99415496,18.83857455,149.70334727,-50.57595509,179.46803809,145.62653223
-111.94205497,6.31479635,66.77999578,65.51541211,170.12407894,-106.91970881
67.07898645,36.87914155,-121.99703298,-13.36183222,26.43870454,23.23519815
4.54505403,-1.79101268,-1.39086549,-2.19982314

>  <Name>
2bee_lig

>  <RI>
0

>  <Rbt.Current_Directory>
/home/itssahil/PROJECTS/Mol_Feturizer/New_Systems/rnas/2bee

>  <Rbt.Executable>
rbdock ($Id: //depot/dev/client3/rdock/2013.1/src/exe/rbdock.cxx#4 $)

>  <Rbt.Library>
libRbt.so (2013.1, Build901 2013/11/27)

>  <Rbt.Parameter_File>
/export/apps/rDock/src/rDock_2013.1_src/data/scripts/dock_solv.prm

>  <Rbt.Receptor>
prm/blind_docking_80.prm

>  <SCORE>
24.1727

>  <SCORE.INTER>
5.9266

>  <SCORE.INTER.CONST>
1

>  <SCORE.INTER.POLAR>
-0.152432

>  <SCORE.INTER.ROT>
16

>  <SCORE.INTER.SOLV>
39.3636

>  <SCORE.INTER.VDW>
-22.9287

>  <SCORE.INTER.norm>
0.120951

>  <SCORE.INTRA>
9.41356

>  <SCORE.INTRA.DIHEDRAL>
0.950753

>  <SCORE.INTRA.DIHEDRAL.0>
36.0842

>  <SCORE.INTRA.POLAR>
0

>  <SCORE.INTRA.POLAR.0>
0

>  <SCORE.INTRA.REPUL>
0.00918261

>  <SCORE.INTRA.REPUL.0>
0

>  <SCORE.INTRA.SOLV>
4.92538

>  <SCORE.INTRA.SOLV.lig_0>
-126.444

>  <SCORE.INTRA.VDW>
6.42958

>  <SCORE.INTRA.VDW.0>
-7.40469

>  <SCORE.INTRA.norm>
0.192113

>  <SCORE.RESTR>
8.83257

>  <SCORE.RESTR.CAVITY>
8.83257

>  <SCORE.RESTR.norm>
0.180256

>  <SCORE.SYSTEM>
0

>  <SCORE.SYSTEM.CONST>
0

>  <SCORE.SYSTEM.DIHEDRAL>
0

>  <SCORE.SYSTEM.SOLV>
0

>  <SCORE.SYSTEM.norm>
0

>  <SCORE.heavy>
49

>  <SCORE.norm>
0.493321

>  <RMSD>
28.035

$$$$
2bee_lig
 OpenBabel11021811423D
libRbt.so/2013.1/901 2013/11/27
 49 52  0  0  0  0  0  0  0  0999 V2000
   27.4917   25.9870    7.3680 C   0  0  2  0  0  0  0  0  0  0  0  0
   27.5869   26.7321    6.1606 O   0  0  0  0  0  0  0  0  0  0  0  0
   23.4826   26.4233    4.6006 C   0  0  2  0  0  0  0  0  0  0  0  0
   22.3388   26.5299    3.6545 N   0  0  0  0  0  0  0  0  0  0  0  0
   26.9873   23.2286    4.5267 C   0  0  1  0  0  0  0  0  0  0  0  0
   26.8201   21.4714    0.4272 C   0  0  1  0  0  0  0  0  0  0  0  0
   24.8817   22.5325    9.4929 C   0  0  0  0  0  0  0  0  0  0  0  0
   26.9662   26.9051    8.5385 C   0  0  2  0  0  0  0  0  0  0  0  0
   25.7053   27.5311    8.1553 N   0  0  0  0  0  0  0  0  0  0  0  0
   24.1492   27.8614    4.7882 C   0  0  0  0  0  0  0  0  0  0  0  0
   26.4856   21.8614    4.1924 C   0  0  2  0  0  0  0  0  0  0  0  0
   26.5651   20.9267    5.3283 O   0  0  0  0  0  0  0  0  0  0  0  0
   25.4146   20.6860    0.2303 C   0  0  2  0  0  0  0  0  0  0  0  0
   25.6854   19.2130    0.3306 N   0  0  0  0  0  0  0  0  0  0  0  0
   24.7399   23.4323    8.4108 C   0  0  0  0  0  0  0  0  0  0  0  0
   25.8548   23.7940    7.6579 N   0  0  0  0  0  0  0  0  0  0  0  0
   28.0748   27.9899    8.8937 C   0  0  1  0  0  0  0  0  0  0  0  0
   27.5950   28.8082    9.9507 O   0  0  0  0  0  0  0  0  0  0  0  0
   25.4207   27.7839    5.8124 C   0  0  2  0  0  0  0  0  0  0  0  0
   26.0167   29.0639    5.9934 N   0  0  0  0  0  0  0  0  0  0  0  0
   27.3170   21.6718    2.9467 C   0  0  2  0  0  0  0  0  0  0  0  0
   27.3119   21.0460    1.7206 O   0  0  0  0  0  0  0  0  0  0  0  0
   24.8357   21.0505   -1.1832 C   0  0  1  0  0  0  0  0  0  0  0  0
   24.5850   22.4992   -1.1946 O   0  0  0  0  0  0  0  0  0  0  0  0
   29.3806   27.2653    9.2950 C   0  0  2  0  0  0  0  0  0  0  0  0
   30.4494   28.2438    9.6205 O   0  0  0  0  0  0  0  0  0  0  0  0
   26.4962   26.7723    5.2546 C   0  0  2  0  0  0  0  0  0  0  0  0
   28.6988   22.4027    3.3260 C   0  0  2  0  0  0  0  0  0  0  0  0
   28.2634   23.4851    4.0137 O   0  0  0  0  0  0  0  0  0  0  0  0
   25.9129   20.6182   -2.3305 C   0  0  2  0  0  0  0  0  0  0  0  0
   26.1591   19.1587   -2.3078 O   0  0  0  0  0  0  0  0  0  0  0  0
   29.8884   26.3535    8.1285 C   0  0  2  0  0  0  0  0  0  0  0  0
   28.7968   25.4366    7.8600 O   0  0  0  0  0  0  0  0  0  0  0  0
   25.7924   25.3835    5.0863 C   0  0  2  0  0  0  0  0  0  0  0  0
   26.8342   24.5644    4.6132 O   0  0  0  0  0  0  0  0  0  0  0  0
   29.5880   22.9550    2.1512 C   0  0  0  0  0  0  0  0  0  0  0  0
   28.7309   23.5892    1.1499 O   0  0  0  0  0  0  0  0  0  0  0  0
   27.2986   21.3674   -2.0903 C   0  0  1  0  0  0  0  0  0  0  0  0
   27.7598   21.0057   -0.6939 O   0  0  0  0  0  0  0  0  0  0  0  0
   31.1155   25.6887    8.6059 C   0  0  0  0  0  0  0  0  0  0  0  0
   31.0360   25.4474    9.9215 O   0  0  0  0  0  0  0  0  0  0  0  0
   24.5823   25.4810    4.0623 C   0  0  1  0  0  0  0  0  0  0  0  0
   23.9583   24.2406    3.9276 O   0  0  0  0  0  0  0  0  0  0  0  0
   25.6432   19.8047    5.5691 C   0  0  0  0  0  0  0  0  0  0  0  0
   28.2502   20.8633   -3.2276 C   0  0  0  0  0  0  0  0  0  0  0  0
   29.3540   21.7482   -3.4667 N   0  0  0  0  0  0  0  0  0  0  0  0
   25.5511   19.5413    7.0729 C   0  0  0  0  0  0  0  0  0  0  0  0
   24.9509   20.7454    7.6795 N   0  0  0  0  0  0  0  0  0  0  0  0
   25.1872   20.9971    9.1702 C   0  0  0  0  0  0  0  0  0  0  0  0
  1  2  1  6  0  0  0
  1  8  1  0  0  0  0
  1 33  1  0  0  0  0
  3  4  1  6  0  0  0
  3 10  1  0  0  0  0
  3 42  1  0  0  0  0
  5 11  1  0  0  0  0
  5 29  1  0  0  0  0
  5 35  1  6  0  0  0
  6 13  1  0  0  0  0
  6 39  1  0  0  0  0
  6 22  1  1  0  0  0
  7 15  1  0  0  0  0
  8  9  1  6  0  0  0
  8 17  1  0  0  0  0
 10 19  1  0  0  0  0
 11 12  1  1  0  0  0
 11 21  1  0  0  0  0
 12 44  1  0  0  0  0
 13 14  1  6  0  0  0
 13 23  1  0  0  0  0
 15 16  1  0  0  0  0
 17 18  1  1  0  0  0
 17 25  1  0  0  0  0
 19 20  1  6  0  0  0
 19 27  1  0  0  0  0
 21 22  1  1  0  0  0
 21 28  1  0  0  0  0
 23 24  1  1  0  0  0
 23 30  1  0  0  0  0
 25 26  1  6  0  0  0
 25 32  1  0  0  0  0
 27  2  1  1  0  0  0
 27 34  1  0  0  0  0
 28 29  1  0  0  0  0
 28 36  1  6  0  0  0
 30 31  1  1  0  0  0
 30 38  1  0  0  0  0
 32 33  1  0  0  0  0
 32 40  1  1  0  0  0
 34 35  1  6  0  0  0
 34 42  1  0  0  0  0
 36 37  1  0  0  0  0
 38 39  1  0  0  0  0
 38 45  1  6  0  0  0
 40 41  1  0  0  0  0
 42 43  1  1  0  0  0
 44 47  1  0  0  0  0
 45 46  1  0  0  0  0
 47 48  1  0  0  0  0
 48 49  1  0  0  0  0
 49  7  1  0  0  0  0
M  END
>  <CHROM.1>
-91.80966301,44.56891034,-102.67870832,-70.88052350,149.19045392,-150.87372749
88.63632918,78.01757697,41.53866242,33.44060069,163.99473125,159.21398980
64.08959363,-158.26989996,161.57117911,-12.87216768,26.80809095,23.83335164
4.47758875,-1.32348525,-1.20046360,-1.88448635

>  <Name>
2bee_lig

>  <RI>
0

>  <Rbt.Current_Directory>
/home/itssahil/PROJECTS/Mol_Feturizer/New_Systems/rnas/2bee

>  <Rbt.Executable>
rbdock ($Id: //depot/dev/client3/rdock/2013.1/src/exe/rbdock.cxx#4 $)

>  <Rbt.Library>
libRbt.so (2013.1, Build901 2013/11/27)

>  <Rbt.Parameter_File>
/export/apps/rDock/src/rDock_2013.1_src/data/scripts/dock_solv.prm

>  <Rbt.Receptor>
prm/blind_docking_80.prm

>  <SCORE>
27.5778

>  <SCORE.INTER>
2.1561

>  <SCORE.INTER.CONST>
1

>  <SCORE.INTER.POLAR>
-0.460082

>  <SCORE.INTER.ROT>
16

>  <SCORE.INTER.SOLV>
26.2954

>  <SCORE.INTER.VDW>
-20.0608

>  <SCORE.INTER.norm>
0.0440019

>  <SCORE.INTRA>
12.384

>  <SCORE.INTRA.DIHEDRAL>
-0.217436

>  <SCORE.INTRA.DIHEDRAL.0>
36.0842

>  <SCORE.INTRA.POLAR>
0

>  <SCORE.INTRA.POLAR.0>
0

>  <SCORE.INTRA.REPUL>
0

>  <SCORE.INTRA.REPUL.0>
0

>  <SCORE.INTRA.SOLV>
11.2149

>  <SCORE.INTRA.SOLV.lig_0>
-126.444

>  <SCORE.INTRA.VDW>
6.88527

>  <SCORE.INTRA.VDW.0>
-7.40469

>  <SCORE.INTRA.norm>
0.252735

>  <SCORE.RESTR>
13.0377

>  <SCORE.RESTR.CAVITY>
13.0377

>  <SCORE.RESTR.norm>
0.266076

>  <SCORE.SYSTEM>
0

>  <SCORE.SYSTEM.CONST>
0

>  <SCORE.SYSTEM.DIHEDRAL>
0

>  <SCORE.SYSTEM.SOLV>
0

>  <SCORE.SYSTEM.norm>
0

>  <SCORE.heavy>
49

>  <SCORE.norm>
0.562812

>  <RMSD>
28.112

$$$$
2bee_lig
 OpenBabel11021811423D
libRbt.so/2013.1/901 2013/11/27
 49 52  0  0  0  0  0  0  0  0999 V2000
   27.3806   26.8081    8.1530 C   0  0  2  0  0  0  0  0  0  0  0  0
   27.4355   26.4443    6.7794 O   0  0  0  0  0  0  0  0  0  0  0  0
   23.3648   27.1751    5.2727 C   0  0  2  0  0  0  0  0  0  0  0  0
   22.2731   27.6114    4.3603 N   0  0  0  0  0  0  0  0  0  0  0  0
   25.9883   23.4745    4.4290 C   0  0  1  0  0  0  0  0  0  0  0  0
   28.0702   22.2596    0.6071 C   0  0  1  0  0  0  0  0  0  0  0  0
   25.1770   20.0660   -0.9823 C   0  0  0  0  0  0  0  0  0  0  0  0
   28.6326   26.2340    8.9223 C   0  0  2  0  0  0  0  0  0  0  0  0
   29.8629   26.6663    8.2681 N   0  0  0  0  0  0  0  0  0  0  0  0
   24.3289   28.4114    5.5727 C   0  0  0  0  0  0  0  0  0  0  0  0
   25.6158   22.6846    3.2165 C   0  0  2  0  0  0  0  0  0  0  0  0
   24.4537   21.8066    3.4378 O   0  0  0  0  0  0  0  0  0  0  0  0
   28.5461   23.7864    0.8777 C   0  0  2  0  0  0  0  0  0  0  0  0
   27.4562   24.4873    1.6353 N   0  0  0  0  0  0  0  0  0  0  0  0
   23.8002   19.7489   -0.9133 C   0  0  0  0  0  0  0  0  0  0  0  0
   22.9031   20.3570   -1.7885 N   0  0  0  0  0  0  0  0  0  0  0  0
   28.5287   24.6474    8.9853 C   0  0  1  0  0  0  0  0  0  0  0  0
   29.6569   24.1403    9.6832 O   0  0  0  0  0  0  0  0  0  0  0  0
   25.5515   27.9686    6.5631 C   0  0  2  0  0  0  0  0  0  0  0  0
   26.4121   29.0672    6.8439 N   0  0  0  0  0  0  0  0  0  0  0  0
   26.9922   22.1283    2.9429 C   0  0  2  0  0  0  0  0  0  0  0  0
   27.8113   21.7069    1.9199 O   0  0  0  0  0  0  0  0  0  0  0  0
   28.7964   24.4816   -0.5080 C   0  0  1  0  0  0  0  0  0  0  0  0
   29.8815   23.7490   -1.1769 O   0  0  0  0  0  0  0  0  0  0  0  0
   27.2103   24.2550    9.6918 C   0  0  2  0  0  0  0  0  0  0  0  0
   27.0656   22.7783    9.7583 O   0  0  0  0  0  0  0  0  0  0  0  0
   26.3811   26.8010    5.9002 C   0  0  2  0  0  0  0  0  0  0  0  0
   27.5790   21.8861    4.4209 C   0  0  2  0  0  0  0  0  0  0  0  0
   27.1151   22.9701    5.0872 O   0  0  0  0  0  0  0  0  0  0  0  0
   27.4186   24.4446   -1.3821 C   0  0  2  0  0  0  0  0  0  0  0  0
   26.3332   25.1829   -0.6978 O   0  0  0  0  0  0  0  0  0  0  0  0
   25.9766   24.8350    8.9229 C   0  0  2  0  0  0  0  0  0  0  0  0
   26.1901   26.2694    8.8885 O   0  0  0  0  0  0  0  0  0  0  0  0
   25.3915   25.6190    5.6245 C   0  0  2  0  0  0  0  0  0  0  0  0
   26.2301   24.6384    5.0632 O   0  0  0  0  0  0  0  0  0  0  0  0
   29.1417   21.8912    4.6043 C   0  0  0  0  0  0  0  0  0  0  0  0
   29.7773   22.2840    3.3468 O   0  0  0  0  0  0  0  0  0  0  0  0
   26.9468   22.9378   -1.5965 C   0  0  1  0  0  0  0  0  0  0  0  0
   26.7790   22.3277   -0.2205 O   0  0  0  0  0  0  0  0  0  0  0  0
   24.7735   24.4339    9.6762 C   0  0  0  0  0  0  0  0  0  0  0  0
   23.6653   24.7613    8.9979 O   0  0  0  0  0  0  0  0  0  0  0  0
   24.2332   26.0679    4.6348 C   0  0  1  0  0  0  0  0  0  0  0  0
   23.3538   25.0098    4.4041 O   0  0  0  0  0  0  0  0  0  0  0  0
   23.8739   20.8988    2.4345 C   0  0  0  0  0  0  0  0  0  0  0  0
   25.6183   23.0280   -2.4212 C   0  0  0  0  0  0  0  0  0  0  0  0
   25.5921   22.1295   -3.5395 N   0  0  0  0  0  0  0  0  0  0  0  0
   24.7846   19.6812    2.2698 C   0  0  0  0  0  0  0  0  0  0  0  0
   25.9319   20.1161    1.4497 N   0  0  0  0  0  0  0  0  0  0  0  0
   26.1601   19.4257    0.1034 C   0  0  0  0  0  0  0  0  0  0  0  0
  1  2  1  6  0  0  0
  1  8  1  0  0  0  0
  1 33  1  0  0  0  0
  3  4  1  6  0  0  0
  3 10  1  0  0  0  0
  3 42  1  0  0  0  0
  5 11  1  0  0  0  0
  5 29  1  0  0  0  0
  5 35  1  6  0  0  0
  6 13  1  0  0  0  0
  6 39  1  0  0  0  0
  6 22  1  1  0  0  0
  7 15  1  0  0  0  0
  8  9  1  6  0  0  0
  8 17  1  0  0  0  0
 10 19  1  0  0  0  0
 11 12  1  1  0  0  0
 11 21  1  0  0  0  0
 12 44  1  0  0  0  0
 13 14  1  6  0  0  0
 13 23  1  0  0  0  0
 15 16  1  0  0  0  0
 17 18  1  1  0  0  0
 17 25  1  0  0  0  0
 19 20  1  6  0  0  0
 19 27  1  0  0  0  0
 21 22  1  6  0  0  0
 21 28  1  0  0  0  0
 23 24  1  6  0  0  0
 23 30  1  0  0  0  0
 25 26  1  6  0  0  0
 25 32  1  0  0  0  0
 27  2  1  1  0  0  0
 27 34  1  0  0  0  0
 28 29  1  0  0  0  0
 28 36  1  6  0  0  0
 30 31  1  1  0  0  0
 30 38  1  0  0  0  0
 32 33  1  0  0  0  0
 32 40  1  1  0  0  0
 34 35  1  6  0  0  0
 34 42  1  0  0  0  0
 36 37  1  0  0  0  0
 38 39  1  0  0  0  0
 38 45  1  1  0  0  0
 40 41  1  0  0  0  0
 42 43  1  1  0  0  0
 44 47  1  0  0  0  0
 45 46  1  0  0  0  0
 47 48  1  0  0  0  0
 48 49  1  0  0  0  0
 49  7  1  0  0  0  0
M  END
>  <CHROM.1>
177.20958068,79.96019384,55.37757010,175.82042760,-178.99802126,74.86818820
42.65114372,18.68056214,6.56179986,-172.86680639,-168.44931639,132.38390034
-76.93735156,-118.80419157,80.60306045,-73.10960039,26.38407136,23.86713702
3.86180607,-1.51121865,0.67966911,-2.02871240

>  <Name>
2bee_lig

>  <RI>
0

>  <Rbt.Current_Directory>
/home/itssahil/PROJECTS/Mol_Feturizer/New_Systems/rnas/2bee

>  <Rbt.Executable>
rbdock ($Id: //depot/dev/client3/rdock/2013.1/src/exe/rbdock.cxx#4 $)

>  <Rbt.Library>
libRbt.so (2013.1, Build901 2013/11/27)

>  <Rbt.Parameter_File>
/export/apps/rDock/src/rDock_2013.1_src/data/scripts/dock_solv.prm

>  <Rbt.Receptor>
prm/blind_docking_80.prm

>  <SCORE>
64.2868

>  <SCORE.INTER>
47.1454

>  <SCORE.INTER.CONST>
1

>  <SCORE.INTER.POLAR>
-1.03921

>  <SCORE.INTER.ROT>
16

>  <SCORE.INTER.SOLV>
29.6577

>  <SCORE.INTER.VDW>
10.7418

>  <SCORE.INTER.norm>
0.962152

>  <SCORE.INTRA>
2.51366

>  <SCORE.INTRA.DIHEDRAL>
-8.75294

>  <SCORE.INTRA.DIHEDRAL.0>
36.0842

>  <SCORE.INTRA.POLAR>
0

>  <SCORE.INTRA.POLAR.0>
0

>  <SCORE.INTRA.REPUL>
0.0697214

>  <SCORE.INTRA.REPUL.0>
0

>  <SCORE.INTRA.SOLV>
7.44008

>  <SCORE.INTRA.SOLV.lig_0>
-126.444

>  <SCORE.INTRA.VDW>
2.82148

>  <SCORE.INTRA.VDW.0>
-7.40469

>  <SCORE.INTRA.norm>
0.0512991

>  <SCORE.RESTR>
14.6277

>  <SCORE.RESTR.CAVITY>
14.6277

>  <SCORE.RESTR.norm>
0.298525

>  <SCORE.SYSTEM>
0

>  <SCORE.SYSTEM.CONST>
0

>  <SCORE.SYSTEM.DIHEDRAL>
0

>  <SCORE.SYSTEM.SOLV>
0

>  <SCORE.SYSTEM.norm>
0

>  <SCORE.heavy>
49

>  <SCORE.norm>
1.31198

>  <RMSD>
28.116

$$$$
2bee_lig
 OpenBabel11021811423D
libRbt.so/2013.1/901 2013/11/27
 49 52  0  0  0  0  0  0  0  0999 V2000
   27.7091   22.4098    2.7170 C   0  0  2  0  0  0  0  0  0  0  0  0
   26.3788   22.1006    3.1129 O   0  0  0  0  0  0  0  0  0  0  0  0
   24.1887   19.2160    5.6144 C   0  0  2  0  0  0  0  0  0  0  0  0
   23.9428   18.0670    6.5276 N   0  0  0  0  0  0  0  0  0  0  0  0
   26.0019   23.3711    6.8552 C   0  0  1  0  0  0  0  0  0  0  0  0
   28.6018   26.4892    9.2566 C   0  0  1  0  0  0  0  0  0  0  0  0
   23.0988   26.1192   14.5529 C   0  0  0  0  0  0  0  0  0  0  0  0
   27.7250   23.7012    1.8109 C   0  0  2  0  0  0  0  0  0  0  0  0
   27.0658   24.8046    2.5013 N   0  0  0  0  0  0  0  0  0  0  0  0
   24.9690   18.7045    4.3193 C   0  0  0  0  0  0  0  0  0  0  0  0
   26.3708   23.9203    8.1949 C   0  0  2  0  0  0  0  0  0  0  0  0
   25.2343   23.9618    9.1313 O   0  0  0  0  0  0  0  0  0  0  0  0
   30.0338   27.1488    8.8755 C   0  0  2  0  0  0  0  0  0  0  0  0
   30.8384   26.1208    8.1345 N   0  0  0  0  0  0  0  0  0  0  0  0
   22.3989   27.2005   13.9683 C   0  0  0  0  0  0  0  0  0  0  0  0
   22.6869   27.5889   12.6618 N   0  0  0  0  0  0  0  0  0  0  0  0
   27.0222   23.3765    0.4207 C   0  0  1  0  0  0  0  0  0  0  0  0
   27.0454   24.5428   -0.3895 O   0  0  0  0  0  0  0  0  0  0  0  0
   25.2705   19.9423    3.2953 C   0  0  2  0  0  0  0  0  0  0  0  0
   25.9584   19.4943    2.1324 N   0  0  0  0  0  0  0  0  0  0  0  0
   27.0314   25.1801    7.6896 C   0  0  2  0  0  0  0  0  0  0  0  0
   28.0248   26.0837    7.9923 O   0  0  0  0  0  0  0  0  0  0  0  0
   30.7566   27.5690   10.2048 C   0  0  1  0  0  0  0  0  0  0  0  0
   29.9168   28.5829   10.8593 O   0  0  0  0  0  0  0  0  0  0  0  0
   27.7679   22.2060   -0.2612 C   0  0  2  0  0  0  0  0  0  0  0  0
   27.1333   21.8593   -1.5585 O   0  0  0  0  0  0  0  0  0  0  0  0
   26.1295   21.0455    4.0276 C   0  0  2  0  0  0  0  0  0  0  0  0
   26.1250   25.5731    6.4202 C   0  0  2  0  0  0  0  0  0  0  0  0
   25.8654   24.3607    5.8756 O   0  0  0  0  0  0  0  0  0  0  0  0
   30.9520   26.2512   11.1475 C   0  0  2  0  0  0  0  0  0  0  0  0
   31.7967   25.2368   10.4774 O   0  0  0  0  0  0  0  0  0  0  0  0
   27.7504   20.9332    0.6495 C   0  0  2  0  0  0  0  0  0  0  0  0
   28.3723   21.3470    1.8930 O   0  0  0  0  0  0  0  0  0  0  0  0
   25.3235   21.5091    5.2877 C   0  0  2  0  0  0  0  0  0  0  0  0
   26.1592   22.4953    5.8434 O   0  0  0  0  0  0  0  0  0  0  0  0
   26.7846   26.4359    5.2816 C   0  0  0  0  0  0  0  0  0  0  0  0
   25.7591   27.2564    4.6377 O   0  0  0  0  0  0  0  0  0  0  0  0
   29.5365   25.5950   11.4712 C   0  0  1  0  0  0  0  0  0  0  0  0
   28.8871   25.2684   10.1426 O   0  0  0  0  0  0  0  0  0  0  0  0
   28.4996   19.8829   -0.0657 C   0  0  0  0  0  0  0  0  0  0  0  0
   28.0825   18.6680    0.3155 O   0  0  0  0  0  0  0  0  0  0  0  0
   25.0731   20.2942    6.2796 C   0  0  1  0  0  0  0  0  0  0  0  0
   24.3471   20.7176    7.3931 O   0  0  0  0  0  0  0  0  0  0  0  0
   25.3261   24.2973   10.5617 C   0  0  0  0  0  0  0  0  0  0  0  0
   29.8486   24.3401   12.3549 C   0  0  0  0  0  0  0  0  0  0  0  0
   30.3962   24.6808   13.6366 N   0  0  0  0  0  0  0  0  0  0  0  0
   23.9227   24.5624   11.1088 C   0  0  0  0  0  0  0  0  0  0  0  0
   24.0881   25.3825   12.3245 N   0  0  0  0  0  0  0  0  0  0  0  0
   23.4763   24.8699   13.6300 C   0  0  0  0  0  0  0  0  0  0  0  0
  1  2  1  6  0  0  0
  1  8  1  0  0  0  0
  1 33  1  0  0  0  0
  3  4  1  1  0  0  0
  3 10  1  0  0  0  0
  3 42  1  0  0  0  0
  5 11  1  0  0  0  0
  5 29  1  0  0  0  0
  5 35  1  6  0  0  0
  6 13  1  0  0  0  0
  6 39  1  0  0  0  0
  6 22  1  6  0  0  0
  7 15  1  0  0  0  0
  8  9  1  1  0  0  0
  8 17  1  0  0  0  0
 10 19  1  0  0  0  0
 11 12  1  1  0  0  0
 11 21  1  0  0  0  0
 12 44  1  0  0  0  0
 13 14  1  1  0  0  0
 13 23  1  0  0  0  0
 15 16  1  0  0  0  0
 17 18  1  6  0  0  0
 17 25  1  0  0  0  0
 19 20  1  6  0  0  0
 19 27  1  0  0  0  0
 21 22  1  1  0  0  0
 21 28  1  0  0  0  0
 23 24  1  1  0  0  0
 23 30  1  0  0  0  0
 25 26  1  6  0  0  0
 25 32  1  0  0  0  0
 27  2  1  6  0  0  0
 27 34  1  0  0  0  0
 28 29  1  0  0  0  0
 28 36  1  6  0  0  0
 30 31  1  6  0  0  0
 30 38  1  0  0  0  0
 32 33  1  0  0  0  0
 32 40  1  6  0  0  0
 34 35  1  1  0  0  0
 34 42  1  0  0  0  0
 36 37  1  0  0  0  0
 38 39  1  0  0  0  0
 38 45  1  1  0  0  0
 40 41  1  0  0  0  0
 42 43  1  1  0  0  0
 44 47  1  0  0  0  0
 45 46  1  0  0  0  0
 47 48  1  0  0  0  0
 48 49  1  0  0  0  0
 49  7  1  0  0  0  0
M  END
>  <CHROM.1>
-174.56145610,116.94797010,160.17244921,-36.93931712,172.22584291,166.42747975
-27.11600117,-117.03233080,-150.31092439,-153.85401015,172.57535325,66.08827607
-158.15203879,-124.48321995,-151.11784472,47.16296197,26.85735608,23.69774344
6.69399404,-1.57554518,0.59197788,1.13747954

>  <Name>
2bee_lig

>  <RI>
0

>  <Rbt.Current_Directory>
/home/itssahil/PROJECTS/Mol_Feturizer/New_Systems/rnas/2bee

>  <Rbt.Executable>
rbdock ($Id: //depot/dev/client3/rdock/2013.1/src/exe/rbdock.cxx#4 $)

>  <Rbt.Library>
libRbt.so (2013.1, Build901 2013/11/27)

>  <Rbt.Parameter_File>
/export/apps/rDock/src/rDock_2013.1_src/data/scripts/dock_solv.prm

>  <Rbt.Receptor>
prm/blind_docking_80.prm

>  <SCORE>
1.13499

>  <SCORE.INTER>
-7.37674

>  <SCORE.INTER.CONST>
1

>  <SCORE.INTER.POLAR>
-0.868014

>  <SCORE.INTER.ROT>
16

>  <SCORE.INTER.SOLV>
38.9024

>  <SCORE.INTER.VDW>
-29.2586

>  <SCORE.INTER.norm>
-0.150546

>  <SCORE.INTRA>
0.673573

>  <SCORE.INTRA.DIHEDRAL>
-5.18472

>  <SCORE.INTRA.DIHEDRAL.0>
36.0842

>  <SCORE.INTRA.POLAR>
0

>  <SCORE.INTRA.POLAR.0>
0

>  <SCORE.INTRA.REPUL>
0.00107561

>  <SCORE.INTRA.REPUL.0>
0

>  <SCORE.INTRA.SOLV>
4.3846

>  <SCORE.INTRA.SOLV.lig_0>
-126.444

>  <SCORE.INTRA.VDW>
1.06826

>  <SCORE.INTRA.VDW.0>
-7.40469

>  <SCORE.INTRA.norm>
0.0137464

>  <SCORE.RESTR>
7.83816

>  <SCORE.RESTR.CAVITY>
7.83816

>  <SCORE.RESTR.norm>
0.159962

>  <SCORE.SYSTEM>
0

>  <SCORE.SYSTEM.CONST>
0

>  <SCORE.SYSTEM.DIHEDRAL>
0

>  <SCORE.SYSTEM.SOLV>
0

>  <SCORE.SYSTEM.norm>
0

>  <SCORE.heavy>
49

>  <SCORE.norm>
0.0231631

>  <RMSD>
28.304

$$$$
2bee_lig
 OpenBabel11021811423D
libRbt.so/2013.1/901 2013/11/27
 49 52  0  0  0  0  0  0  0  0999 V2000
   24.4469   26.3681    8.1493 C   0  0  2  0  0  0  0  0  0  0  0  0
   24.5252   24.9563    8.3004 O   0  0  0  0  0  0  0  0  0  0  0  0
   28.4507   24.5484   10.2494 C   0  0  2  0  0  0  0  0  0  0  0  0
   29.6365   23.9024   10.8750 N   0  0  0  0  0  0  0  0  0  0  0  0
   26.5625   23.2140    6.2253 C   0  0  1  0  0  0  0  0  0  0  0  0
   25.5746   21.1534    1.9960 C   0  0  1  0  0  0  0  0  0  0  0  0
   23.2369   19.6174    5.5959 C   0  0  0  0  0  0  0  0  0  0  0  0
   22.9701   26.8010    7.8019 C   0  0  2  0  0  0  0  0  0  0  0  0
   22.0480   26.2844    8.8075 N   0  0  0  0  0  0  0  0  0  0  0  0
   27.1320   24.1016   11.0300 C   0  0  0  0  0  0  0  0  0  0  0  0
   25.6662   22.2027    5.5876 C   0  0  2  0  0  0  0  0  0  0  0  0
   25.6923   20.8988    6.2729 O   0  0  0  0  0  0  0  0  0  0  0  0
   26.9580   20.3075    2.0366 C   0  0  2  0  0  0  0  0  0  0  0  0
   28.0697   21.2095    1.5856 N   0  0  0  0  0  0  0  0  0  0  0  0
   22.4146   18.5005    5.8735 C   0  0  0  0  0  0  0  0  0  0  0  0
   22.4722   17.8896    7.1241 N   0  0  0  0  0  0  0  0  0  0  0  0
   22.5991   26.2809    6.3445 C   0  0  1  0  0  0  0  0  0  0  0  0
   21.2705   26.6791    6.0389 O   0  0  0  0  0  0  0  0  0  0  0  0
   25.8032   24.7811   10.3633 C   0  0  2  0  0  0  0  0  0  0  0  0
   24.6223   24.3957   11.0585 N   0  0  0  0  0  0  0  0  0  0  0  0
   26.1872   22.3724    4.1810 C   0  0  2  0  0  0  0  0  0  0  0  0
   25.8027   22.2912    2.8617 O   0  0  0  0  0  0  0  0  0  0  0  0
   26.8153   19.0756    1.0732 C   0  0  1  0  0  0  0  0  0  0  0  0
   25.7222   18.2388    1.5897 O   0  0  0  0  0  0  0  0  0  0  0  0
   23.6068   26.8656    5.3276 C   0  0  2  0  0  0  0  0  0  0  0  0
   23.3053   26.3916    3.9527 O   0  0  0  0  0  0  0  0  0  0  0  0
   25.6886   24.3569    8.8474 C   0  0  2  0  0  0  0  0  0  0  0  0
   27.7574   22.6343    4.4117 C   0  0  2  0  0  0  0  0  0  0  0  0
   27.7511   23.4180    5.5161 O   0  0  0  0  0  0  0  0  0  0  0  0
   26.5008   19.6102   -0.4364 C   0  0  2  0  0  0  0  0  0  0  0  0
   27.6065   20.4531   -0.9445 O   0  0  0  0  0  0  0  0  0  0  0  0
   25.0680   26.4343    5.6862 C   0  0  2  0  0  0  0  0  0  0  0  0
   25.2869   26.9187    7.0359 O   0  0  0  0  0  0  0  0  0  0  0  0
   27.0039   24.8137    8.1307 C   0  0  2  0  0  0  0  0  0  0  0  0
   26.7861   24.4120    6.7999 O   0  0  0  0  0  0  0  0  0  0  0  0
   28.5419   23.4348    3.3074 C   0  0  0  0  0  0  0  0  0  0  0  0
   27.9329   24.7539    3.1385 O   0  0  0  0  0  0  0  0  0  0  0  0
   25.1627   20.4754   -0.4429 C   0  0  1  0  0  0  0  0  0  0  0  0
   25.3632   21.6061    0.5444 O   0  0  0  0  0  0  0  0  0  0  0  0
   25.9566   27.0527    4.6844 C   0  0  0  0  0  0  0  0  0  0  0  0
   25.8772   26.3963    3.5190 O   0  0  0  0  0  0  0  0  0  0  0  0
   28.2747   24.1141    8.7773 C   0  0  1  0  0  0  0  0  0  0  0  0
   29.4401   24.5354    8.1365 O   0  0  0  0  0  0  0  0  0  0  0  0
   25.4572   20.6922    7.7113 C   0  0  0  0  0  0  0  0  0  0  0  0
   24.9760   20.9472   -1.9247 C   0  0  0  0  0  0  0  0  0  0  0  0
   26.0762   21.7337   -2.4041 N   0  0  0  0  0  0  0  0  0  0  0  0
   24.3410   21.6271    8.1794 C   0  0  0  0  0  0  0  0  0  0  0  0
   23.0719   21.0501    7.6952 N   0  0  0  0  0  0  0  0  0  0  0  0
   22.8119   21.0402    6.1874 C   0  0  0  0  0  0  0  0  0  0  0  0
  1  2  1  6  0  0  0
  1  8  1  0  0  0  0
  1 33  1  0  0  0  0
  3  4  1  1  0  0  0
  3 10  1  0  0  0  0
  3 42  1  0  0  0  0
  5 11  1  0  0  0  0
  5 29  1  0  0  0  0
  5 35  1  6  0  0  0
  6 13  1  0  0  0  0
  6 39  1  0  0  0  0
  6 22  1  1  0  0  0
  7 15  1  0  0  0  0
  8  9  1  1  0  0  0
  8 17  1  0  0  0  0
 10 19  1  0  0  0  0
 11 12  1  1  0  0  0
 11 21  1  0  0  0  0
 12 44  1  0  0  0  0
 13 14  1  6  0  0  0
 13 23  1  0  0  0  0
 15 16  1  0  0  0  0
 17 18  1  6  0  0  0
 17 25  1  0  0  0  0
 19 20  1  1  0  0  0
 19 27  1  0  0  0  0
 21 22  1  6  0  0  0
 21 28  1  0  0  0  0
 23 24  1  1  0  0  0
 23 30  1  0  0  0  0
 25 26  1  6  0  0  0
 25 32  1  0  0  0  0
 27  2  1  6  0  0  0
 27 34  1  0  0  0  0
 28 29  1  0  0  0  0
 28 36  1  6  0  0  0
 30 31  1  1  0  0  0
 30 38  1  0  0  0  0
 32 33  1  0  0  0  0
 32 40  1  6  0  0  0
 34 35  1  6  0  0  0
 34 42  1  0  0  0  0
 36 37  1  0  0  0  0
 38 39  1  0  0  0  0
 38 45  1  6  0  0  0
 40 41  1  0  0  0  0
 42 43  1  6  0  0  0
 44 47  1  0  0  0  0
 45 46  1  0  0  0  0
 47 48  1  0  0  0  0
 48 49  1  0  0  0  0
 49  7  1  0  0  0  0
M  END
>  <CHROM.1>
-168.57136504,104.64000291,-55.96488015,-77.27656942,53.21964595,38.78812313
-76.16959396,66.92097668,58.76577008,-75.69991780,-60.25741914,-59.58861261
75.69453008,-67.90564671,96.01314354,72.92378812,25.60298904,23.11226244
5.31771951,-2.04525754,-1.42995024,-2.54352772

>  <Name>
2bee_lig

>  <RI>
0

>  <Rbt.Current_Directory>
/home/itssahil/PROJECTS/Mol_Feturizer/New_Systems/rnas/2bee

>  <Rbt.Executable>
rbdock ($Id: //depot/dev/client3/rdock/2013.1/src/exe/rbdock.cxx#4 $)

>  <Rbt.Library>
libRbt.so (2013.1, Build901 2013/11/27)

>  <Rbt.Parameter_File>
/export/apps/rDock/src/rDock_2013.1_src/data/scripts/dock_solv.prm

>  <Rbt.Receptor>
prm/blind_docking_80.prm

>  <SCORE>
29.5495

>  <SCORE.INTER>
12.312

>  <SCORE.INTER.CONST>
1

>  <SCORE.INTER.POLAR>
-0.507437

>  <SCORE.INTER.ROT>
16

>  <SCORE.INTER.SOLV>
30.3786

>  <SCORE.INTER.VDW>
-14.4934

>  <SCORE.INTER.norm>
0.251266

>  <SCORE.INTRA>
-3.26662

>  <SCORE.INTRA.DIHEDRAL>
-18.5531

>  <SCORE.INTRA.DIHEDRAL.0>
36.0842

>  <SCORE.INTRA.POLAR>
0

>  <SCORE.INTRA.POLAR.0>
0

>  <SCORE.INTRA.REPUL>
0.0712993

>  <SCORE.INTRA.REPUL.0>
0

>  <SCORE.INTRA.SOLV>
6.10922

>  <SCORE.INTRA.SOLV.lig_0>
-126.444

>  <SCORE.INTRA.VDW>
2.59884

>  <SCORE.INTRA.VDW.0>
-7.40469

>  <SCORE.INTRA.norm>
-0.0666658

>  <SCORE.RESTR>
20.5041

>  <SCORE.RESTR.CAVITY>
20.5041

>  <SCORE.RESTR.norm>
0.418452

>  <SCORE.SYSTEM>
0

>  <SCORE.SYSTEM.CONST>
0

>  <SCORE.SYSTEM.DIHEDRAL>
0

>  <SCORE.SYSTEM.SOLV>
0

>  <SCORE.SYSTEM.norm>
0

>  <SCORE.heavy>
49

>  <SCORE.norm>
0.603052

>  <RMSD>
28.314

$$$$
2bee_lig
 OpenBabel11021811423D
libRbt.so/2013.1/901 2013/11/27
 49 52  0  0  0  0  0  0  0  0999 V2000
   28.0652   25.2670    8.0467 C   0  0  2  0  0  0  0  0  0  0  0  0
   27.0123   26.2142    8.1746 O   0  0  0  0  0  0  0  0  0  0  0  0
   24.4348   28.2916    5.2737 C   0  0  2  0  0  0  0  0  0  0  0  0
   24.0373   29.1720    4.1415 N   0  0  0  0  0  0  0  0  0  0  0  0
   26.4162   23.8537    5.3905 C   0  0  1  0  0  0  0  0  0  0  0  0
   26.8798   22.4971    1.0971 C   0  0  1  0  0  0  0  0  0  0  0  0
   23.1812   19.8821    4.9609 C   0  0  0  0  0  0  0  0  0  0  0  0
   27.6762   23.9155    8.7616 C   0  0  2  0  0  0  0  0  0  0  0  0
   26.4033   23.4246    8.2444 N   0  0  0  0  0  0  0  0  0  0  0  0
   25.2721   29.1405    6.3348 C   0  0  0  0  0  0  0  0  0  0  0  0
   25.5906   22.7202    4.8743 C   0  0  2  0  0  0  0  0  0  0  0  0
   25.3649   21.6690    5.8814 O   0  0  0  0  0  0  0  0  0  0  0  0
   26.3923   24.0390    0.9716 C   0  0  2  0  0  0  0  0  0  0  0  0
   24.8915   24.0567    0.9904 N   0  0  0  0  0  0  0  0  0  0  0  0
   23.9650   19.7497    3.7909 C   0  0  0  0  0  0  0  0  0  0  0  0
   23.5604   18.8824    2.7786 N   0  0  0  0  0  0  0  0  0  0  0  0
   27.6181   24.1505   10.3343 C   0  0  1  0  0  0  0  0  0  0  0  0
   27.2720   22.9282   10.9692 O   0  0  0  0  0  0  0  0  0  0  0  0
   25.7397   28.2038    7.5900 C   0  0  2  0  0  0  0  0  0  0  0  0
   26.4798   28.9544    8.5467 N   0  0  0  0  0  0  0  0  0  0  0  0
   26.4045   22.4666    3.6286 C   0  0  2  0  0  0  0  0  0  0  0  0
   26.2969   22.0165    2.3321 O   0  0  0  0  0  0  0  0  0  0  0  0
   26.9390   24.6243   -0.3793 C   0  0  1  0  0  0  0  0  0  0  0  0
   28.4072   24.5860   -0.3119 O   0  0  0  0  0  0  0  0  0  0  0  0
   28.9937   24.6638   10.8196 C   0  0  2  0  0  0  0  0  0  0  0  0
   28.9787   24.9117   12.2839 O   0  0  0  0  0  0  0  0  0  0  0  0
   26.6183   27.0030    7.0635 C   0  0  2  0  0  0  0  0  0  0  0  0
   27.9089   22.7514    4.1217 C   0  0  2  0  0  0  0  0  0  0  0  0
   27.7389   23.8201    4.9359 O   0  0  0  0  0  0  0  0  0  0  0  0
   26.3709   23.7286   -1.6196 C   0  0  2  0  0  0  0  0  0  0  0  0
   24.8923   23.7727   -1.6757 O   0  0  0  0  0  0  0  0  0  0  0  0
   29.3710   26.0011   10.0992 C   0  0  2  0  0  0  0  0  0  0  0  0
   29.3563   25.6872    8.6830 O   0  0  0  0  0  0  0  0  0  0  0  0
   25.7545   26.2077    6.0272 C   0  0  2  0  0  0  0  0  0  0  0  0
   26.6150   25.1616    5.6460 O   0  0  0  0  0  0  0  0  0  0  0  0
   28.9697   23.1833    3.0428 C   0  0  0  0  0  0  0  0  0  0  0  0
   28.7268   24.5714    2.6510 O   0  0  0  0  0  0  0  0  0  0  0  0
   26.8243   22.2103   -1.4510 C   0  0  1  0  0  0  0  0  0  0  0  0
   26.3041   21.7407   -0.1084 O   0  0  0  0  0  0  0  0  0  0  0  0
   30.6986   26.4006   10.6027 C   0  0  0  0  0  0  0  0  0  0  0  0
   31.6413   25.5592   10.1571 O   0  0  0  0  0  0  0  0  0  0  0  0
   25.3419   27.1326    4.8039 C   0  0  1  0  0  0  0  0  0  0  0  0
   24.5660   26.4157    3.8926 O   0  0  0  0  0  0  0  0  0  0  0  0
   26.1380   20.4212    5.9923 C   0  0  0  0  0  0  0  0  0  0  0  0
   26.2095   21.4509   -2.6751 C   0  0  0  0  0  0  0  0  0  0  0  0
   26.3692   20.0277   -2.5880 N   0  0  0  0  0  0  0  0  0  0  0  0
   25.5213   19.5407    7.0802 C   0  0  0  0  0  0  0  0  0  0  0  0
   24.7585   18.4828    6.3896 N   0  0  0  0  0  0  0  0  0  0  0  0
   23.2832   18.7430    6.0775 C   0  0  0  0  0  0  0  0  0  0  0  0
  1  2  1  1  0  0  0
  1  8  1  0  0  0  0
  1 33  1  0  0  0  0
  3  4  1  6  0  0  0
  3 10  1  0  0  0  0
  3 42  1  0  0  0  0
  5 11  1  0  0  0  0
  5 29  1  0  0  0  0
  5 35  1  6  0  0  0
  6 13  1  0  0  0  0
  6 39  1  0  0  0  0
  6 22  1  1  0  0  0
  7 15  1  0  0  0  0
  8  9  1  6  0  0  0
  8 17  1  0  0  0  0
 10 19  1  0  0  0  0
 11 12  1  1  0  0  0
 11 21  1  0  0  0  0
 12 44  1  0  0  0  0
 13 14  1  6  0  0  0
 13 23  1  0  0  0  0
 15 16  1  0  0  0  0
 17 18  1  1  0  0  0
 17 25  1  0  0  0  0
 19 20  1  1  0  0  0
 19 27  1  0  0  0  0
 21 22  1  1  0  0  0
 21 28  1  0  0  0  0
 23 24  1  1  0  0  0
 23 30  1  0  0  0  0
 25 26  1  1  0  0  0
 25 32  1  0  0  0  0
 27  2  1  1  0  0  0
 27 34  1  0  0  0  0
 28 29  1  0  0  0  0
 28 36  1  6  0  0  0
 30 31  1  1  0  0  0
 30 38  1  0  0  0  0
 32 33  1  0  0  0  0
 32 40  1  1  0  0  0
 34 35  1  6  0  0  0
 34 42  1  0  0  0  0
 36 37  1  0  0  0  0
 38 39  1  0  0  0  0
 38 45  1  6  0  0  0
 40 41  1  0  0  0  0
 42 43  1  6  0  0  0
 44 47  1  0  0  0  0
 45 46  1  0  0  0  0
 47 48  1  0  0  0  0
 48 49  1  0  0  0  0
 49  7  1  0  0  0  0
M  END
>  <CHROM.1>
-136.53827555,34.11461952,-57.58041769,78.30484028,-97.80733871,-175.07245281
138.05028832,-164.58087417,74.31889400,69.37264553,140.49309067,-172.10749870
103.15987216,-90.66358628,68.58793066,49.86062548,26.60196120,23.87387192
4.96259104,-0.52675383,-1.31856948,-0.90337839

>  <Name>
2bee_lig

>  <RI>
0

>  <Rbt.Current_Directory>
/home/itssahil/PROJECTS/Mol_Feturizer/New_Systems/rnas/2bee

>  <Rbt.Executable>
rbdock ($Id: //depot/dev/client3/rdock/2013.1/src/exe/rbdock.cxx#4 $)

>  <Rbt.Library>
libRbt.so (2013.1, Build901 2013/11/27)

>  <Rbt.Parameter_File>
/export/apps/rDock/src/rDock_2013.1_src/data/scripts/dock_solv.prm

>  <Rbt.Receptor>
prm/blind_docking_80.prm

>  <SCORE>
-0.396111

>  <SCORE.INTER>
-9.81202

>  <SCORE.INTER.CONST>
1

>  <SCORE.INTER.POLAR>
0

>  <SCORE.INTER.ROT>
16

>  <SCORE.INTER.SOLV>
34.2314

>  <SCORE.INTER.VDW>
-32.2185

>  <SCORE.INTER.norm>
-0.200245

>  <SCORE.INTRA>
1.48519

>  <SCORE.INTRA.DIHEDRAL>
-4.43183

>  <SCORE.INTRA.DIHEDRAL.0>
36.0842

>  <SCORE.INTRA.POLAR>
0

>  <SCORE.INTRA.POLAR.0>
0

>  <SCORE.INTRA.REPUL>
0

>  <SCORE.INTRA.REPUL.0>
0

>  <SCORE.INTRA.SOLV>
3.97965

>  <SCORE.INTRA.SOLV.lig_0>
-126.444

>  <SCORE.INTRA.VDW>
1.71128

>  <SCORE.INTRA.VDW.0>
-7.40469

>  <SCORE.INTRA.norm>
0.0303099

>  <SCORE.RESTR>
7.93072

>  <SCORE.RESTR.CAVITY>
7.93072

>  <SCORE.RESTR.norm>
0.161851

>  <SCORE.SYSTEM>
0

>  <SCORE.SYSTEM.CONST>
0

>  <SCORE.SYSTEM.DIHEDRAL>
0

>  <SCORE.SYSTEM.SOLV>
0

>  <SCORE.SYSTEM.norm>
0

>  <SCORE.heavy>
49

>  <SCORE.norm>
-0.0080839

>  <RMSD>
28.319

$$$$
2bee_lig
 OpenBabel11021811423D
libRbt.so/2013.1/901 2013/11/27
 49 52  0  0  0  0  0  0  0  0999 V2000
   27.6326   25.1426    7.2360 C   0  0  2  0  0  0  0  0  0  0  0  0
   26.5604   26.0462    7.4724 O   0  0  0  0  0  0  0  0  0  0  0  0
   24.9917   29.7385    5.6612 C   0  0  2  0  0  0  0  0  0  0  0  0
   24.9794   31.0908    5.0400 N   0  0  0  0  0  0  0  0  0  0  0  0
   26.1881   25.0760    4.3155 C   0  0  1  0  0  0  0  0  0  0  0  0
   26.4688   22.7682    0.1472 C   0  0  1  0  0  0  0  0  0  0  0  0
   25.3739   19.4616    5.1191 C   0  0  0  0  0  0  0  0  0  0  0  0
   27.4370   23.8263    8.0834 C   0  0  2  0  0  0  0  0  0  0  0  0
   26.1291   23.2424    7.8053 N   0  0  0  0  0  0  0  0  0  0  0  0
   25.7496   29.8082    7.0643 C   0  0  0  0  0  0  0  0  0  0  0  0
   25.2749   24.0564    3.7162 C   0  0  2  0  0  0  0  0  0  0  0  0
   25.0563   22.8942    4.5947 O   0  0  0  0  0  0  0  0  0  0  0  0
   25.4693   22.6236   -1.1221 C   0  0  2  0  0  0  0  0  0  0  0  0
   24.1533   22.1023   -0.6224 N   0  0  0  0  0  0  0  0  0  0  0  0
   24.8163   19.7094    3.8430 C   0  0  0  0  0  0  0  0  0  0  0  0
   24.5228   18.6439    2.9948 N   0  0  0  0  0  0  0  0  0  0  0  0
   27.6109   24.1651    9.6283 C   0  0  1  0  0  0  0  0  0  0  0  0
   27.4378   22.9740   10.3823 O   0  0  0  0  0  0  0  0  0  0  0  0
   25.7962   28.3364    7.7738 C   0  0  2  0  0  0  0  0  0  0  0  0
   26.4626   28.3900    9.0306 N   0  0  0  0  0  0  0  0  0  0  0  0
   25.9975   23.9312    2.3968 C   0  0  2  0  0  0  0  0  0  0  0  0
   25.7882   23.6584    1.0638 O   0  0  0  0  0  0  0  0  0  0  0  0
   26.1110   21.6229   -2.1481 C   0  0  1  0  0  0  0  0  0  0  0  0
   27.3813   22.2104   -2.5984 O   0  0  0  0  0  0  0  0  0  0  0  0
   29.0138   24.7739    9.8573 C   0  0  2  0  0  0  0  0  0  0  0  0
   29.2126   25.1200   11.2879 O   0  0  0  0  0  0  0  0  0  0  0  0
   26.5311   27.3091    6.8274 C   0  0  2  0  0  0  0  0  0  0  0  0
   27.5418   24.0834    2.8204 C   0  0  2  0  0  0  0  0  0  0  0  0
   27.4773   25.0439    3.7730 O   0  0  0  0  0  0  0  0  0  0  0  0
   26.3411   20.1816   -1.4179 C   0  0  2  0  0  0  0  0  0  0  0  0
   25.0561   19.6013   -0.9669 O   0  0  0  0  0  0  0  0  0  0  0  0
   29.1979   26.0751    9.0073 C   0  0  2  0  0  0  0  0  0  0  0  0
   28.9810   25.6651    7.6328 O   0  0  0  0  0  0  0  0  0  0  0  0
   25.7525   27.2816    5.4689 C   0  0  2  0  0  0  0  0  0  0  0  0
   26.4697   26.3297    4.7209 O   0  0  0  0  0  0  0  0  0  0  0  0
   28.5562   24.6049    1.7365 C   0  0  0  0  0  0  0  0  0  0  0  0
   29.7520   25.1240    2.3999 O   0  0  0  0  0  0  0  0  0  0  0  0
   27.2889   20.3562   -0.1489 C   0  0  1  0  0  0  0  0  0  0  0  0
   26.6266   21.3698    0.7608 O   0  0  0  0  0  0  0  0  0  0  0  0
   30.5627   26.5696    9.2686 C   0  0  0  0  0  0  0  0  0  0  0  0
   31.4662   25.6200    8.9906 O   0  0  0  0  0  0  0  0  0  0  0  0
   25.7508   28.7158    4.7867 C   0  0  1  0  0  0  0  0  0  0  0  0
   25.0472   28.6805    3.5825 O   0  0  0  0  0  0  0  0  0  0  0  0
   24.3266   22.9229    5.8728 C   0  0  0  0  0  0  0  0  0  0  0  0
   27.4194   18.9262    0.4766 C   0  0  0  0  0  0  0  0  0  0  0  0
   28.5934   18.7754    1.2875 N   0  0  0  0  0  0  0  0  0  0  0  0
   23.4153   21.6978    5.9610 C   0  0  0  0  0  0  0  0  0  0  0  0
   24.0663   20.7491    6.8853 N   0  0  0  0  0  0  0  0  0  0  0  0
   24.3866   19.3442    6.3706 C   0  0  0  0  0  0  0  0  0  0  0  0
  1  2  1  1  0  0  0
  1  8  1  0  0  0  0
  1 33  1  0  0  0  0
  3  4  1  6  0  0  0
  3 10  1  0  0  0  0
  3 42  1  0  0  0  0
  5 11  1  0  0  0  0
  5 29  1  0  0  0  0
  5 35  1  6  0  0  0
  6 13  1  0  0  0  0
  6 39  1  0  0  0  0
  6 22  1  1  0  0  0
  7 15  1  0  0  0  0
  8  9  1  1  0  0  0
  8 17  1  0  0  0  0
 10 19  1  0  0  0  0
 11 12  1  1  0  0  0
 11 21  1  0  0  0  0
 12 44  1  0  0  0  0
 13 14  1  1  0  0  0
 13 23  1  0  0  0  0
 15 16  1  0  0  0  0
 17 18  1  1  0  0  0
 17 25  1  0  0  0  0
 19 20  1  1  0  0  0
 19 27  1  0  0  0  0
 21 22  1  1  0  0  0
 21 28  1  0  0  0  0
 23 24  1  1  0  0  0
 23 30  1  0  0  0  0
 25 26  1  1  0  0  0
 25 32  1  0  0  0  0
 27  2  1  1  0  0  0
 27 34  1  0  0  0  0
 28 29  1  0  0  0  0
 28 36  1  6  0  0  0
 30 31  1  1  0  0  0
 30 38  1  0  0  0  0
 32 33  1  0  0  0  0
 32 40  1  6  0  0  0
 34 35  1  6  0  0  0
 34 42  1  0  0  0  0
 36 37  1  0  0  0  0
 38 39  1  0  0  0  0
 38 45  1  1  0  0  0
 40 41  1  0  0  0  0
 42 43  1  6  0  0  0
 44 47  1  0  0  0  0
 45 46  1  0  0  0  0
 47 48  1  0  0  0  0
 48 49  1  0  0  0  0
 49  7  1  0  0  0  0
M  END
>  <CHROM.1>
179.26478988,45.53358898,164.52854401,-94.00567532,67.90880327,137.03818147
-131.72196083,-149.39084769,159.85286807,56.16236113,108.93965946,157.70304276
103.92178699,-122.64166792,59.86668360,-83.46836705,26.60313122,24.00094507
4.57702099,-0.55912195,1.39906623,3.08313756

>  <Name>
2bee_lig

>  <RI>
0

>  <Rbt.Current_Directory>
/home/itssahil/PROJECTS/Mol_Feturizer/New_Systems/rnas/2bee

>  <Rbt.Executable>
rbdock ($Id: //depot/dev/client3/rdock/2013.1/src/exe/rbdock.cxx#4 $)

>  <Rbt.Library>
libRbt.so (2013.1, Build901 2013/11/27)

>  <Rbt.Parameter_File>
/export/apps/rDock/src/rDock_2013.1_src/data/scripts/dock_solv.prm

>  <Rbt.Receptor>
prm/blind_docking_80.prm

>  <SCORE>
6.71594

>  <SCORE.INTER>
-8.46157

>  <SCORE.INTER.CONST>
1

>  <SCORE.INTER.POLAR>
-2.17568

>  <SCORE.INTER.ROT>
16

>  <SCORE.INTER.SOLV>
35.4395

>  <SCORE.INTER.VDW>
-24.4686

>  <SCORE.INTER.norm>
-0.172685

>  <SCORE.INTRA>
3.7674

>  <SCORE.INTRA.DIHEDRAL>
0.147547

>  <SCORE.INTRA.DIHEDRAL.0>
36.0842

>  <SCORE.INTRA.POLAR>
0

>  <SCORE.INTRA.POLAR.0>
0

>  <SCORE.INTRA.REPUL>
0.240217

>  <SCORE.INTRA.REPUL.0>
0

>  <SCORE.INTRA.SOLV>
1.2932

>  <SCORE.INTRA.SOLV.lig_0>
-126.444

>  <SCORE.INTRA.VDW>
1.84595

>  <SCORE.INTRA.VDW.0>
-7.40469

>  <SCORE.INTRA.norm>
0.0768857

>  <SCORE.RESTR>
11.4101

>  <SCORE.RESTR.CAVITY>
11.4101

>  <SCORE.RESTR.norm>
0.232859

>  <SCORE.SYSTEM>
0

>  <SCORE.SYSTEM.CONST>
0

>  <SCORE.SYSTEM.DIHEDRAL>
0

>  <SCORE.SYSTEM.SOLV>
0

>  <SCORE.SYSTEM.norm>
0

>  <SCORE.heavy>
49

>  <SCORE.norm>
0.13706

>  <RMSD>
28.339

$$$$
2bee_lig
 OpenBabel11021811423D
libRbt.so/2013.1/901 2013/11/27
 49 52  0  0  0  0  0  0  0  0999 V2000
   26.1138   22.6867   10.2341 C   0  0  2  0  0  0  0  0  0  0  0  0
   26.9208   22.9147    9.0857 O   0  0  0  0  0  0  0  0  0  0  0  0
   26.4397   27.2617    8.5887 C   0  0  2  0  0  0  0  0  0  0  0  0
   26.6868   28.6449    8.0984 N   0  0  0  0  0  0  0  0  0  0  0  0
   26.0876   23.5964    5.8013 C   0  0  1  0  0  0  0  0  0  0  0  0
   25.5742   24.1198    1.0456 C   0  0  1  0  0  0  0  0  0  0  0  0
   27.9897   18.2589   -0.4225 C   0  0  0  0  0  0  0  0  0  0  0  0
   24.9930   21.6236    9.9139 C   0  0  2  0  0  0  0  0  0  0  0  0
   25.5966   20.4026    9.3911 N   0  0  0  0  0  0  0  0  0  0  0  0
   27.7771   26.6855    9.2421 C   0  0  0  0  0  0  0  0  0  0  0  0
   26.2242   22.7503    4.5774 C   0  0  2  0  0  0  0  0  0  0  0  0
   27.5544   22.1293    4.4541 O   0  0  0  0  0  0  0  0  0  0  0  0
   24.7461   23.0651    0.1330 C   0  0  2  0  0  0  0  0  0  0  0  0
   24.9850   21.6876    0.6791 N   0  0  0  0  0  0  0  0  0  0  0  0
   27.8030   18.9477   -1.6438 C   0  0  0  0  0  0  0  0  0  0  0  0
   26.5233   19.0787   -2.1784 N   0  0  0  0  0  0  0  0  0  0  0  0
   23.9530   22.2500    8.8853 C   0  0  1  0  0  0  0  0  0  0  0  0
   22.9458   21.2882    8.6068 O   0  0  0  0  0  0  0  0  0  0  0  0
   27.5500   25.1595    9.7820 C   0  0  2  0  0  0  0  0  0  0  0  0
   28.7353   24.6399   10.3750 N   0  0  0  0  0  0  0  0  0  0  0  0
   25.7365   23.7874    3.5948 C   0  0  2  0  0  0  0  0  0  0  0  0
   25.0805   23.9224    2.3921 O   0  0  0  0  0  0  0  0  0  0  0  0
   25.2631   23.1750   -1.3458 C   0  0  1  0  0  0  0  0  0  0  0  0
   24.9798   24.5412   -1.8094 O   0  0  0  0  0  0  0  0  0  0  0  0
   23.3469   23.5339    9.4983 C   0  0  2  0  0  0  0  0  0  0  0  0
   22.3796   24.1609    8.5618 O   0  0  0  0  0  0  0  0  0  0  0  0
   27.1035   24.2300    8.5871 C   0  0  2  0  0  0  0  0  0  0  0  0
   26.3249   25.1565    4.2004 C   0  0  2  0  0  0  0  0  0  0  0  0
   26.1605   24.9673    5.5312 O   0  0  0  0  0  0  0  0  0  0  0  0
   26.8618   22.8484   -1.3796 C   0  0  2  0  0  0  0  0  0  0  0  0
   27.1347   21.4719   -0.9086 O   0  0  0  0  0  0  0  0  0  0  0  0
   24.4688   24.5778    9.8169 C   0  0  2  0  0  0  0  0  0  0  0  0
   25.3754   23.8972   10.7219 O   0  0  0  0  0  0  0  0  0  0  0  0
   25.7942   24.8394    7.9815 C   0  0  2  0  0  0  0  0  0  0  0  0
   25.4768   23.9312    6.9547 O   0  0  0  0  0  0  0  0  0  0  0  0
   25.5805   26.4979    3.8505 C   0  0  0  0  0  0  0  0  0  0  0  0
   26.1626   27.5932    4.6256 O   0  0  0  0  0  0  0  0  0  0  0  0
   27.6486   23.8682   -0.4414 C   0  0  1  0  0  0  0  0  0  0  0  0
   27.0575   23.7369    0.9467 O   0  0  0  0  0  0  0  0  0  0  0  0
   23.8058   25.7515   10.4157 C   0  0  0  0  0  0  0  0  0  0  0  0
   23.7191   25.6127   11.7456 O   0  0  0  0  0  0  0  0  0  0  0  0
   26.0517   26.3087    7.4362 C   0  0  1  0  0  0  0  0  0  0  0  0
   24.8767   26.8438    6.9076 O   0  0  0  0  0  0  0  0  0  0  0  0
   28.1329   21.6048    3.2062 C   0  0  0  0  0  0  0  0  0  0  0  0
   29.1545   23.4483   -0.5364 C   0  0  0  0  0  0  0  0  0  0  0  0
   29.4741   22.7871   -1.7690 N   0  0  0  0  0  0  0  0  0  0  0  0
   27.1122   20.6957    2.5201 C   0  0  0  0  0  0  0  0  0  0  0  0
   27.8470   19.9282    1.4958 N   0  0  0  0  0  0  0  0  0  0  0  0
   27.1476   18.7291    0.8521 C   0  0  0  0  0  0  0  0  0  0  0  0
  1  2  1  6  0  0  0
  1  8  1  0  0  0  0
  1 33  1  0  0  0  0
  3  4  1  6  0  0  0
  3 10  1  0  0  0  0
  3 42  1  0  0  0  0
  5 11  1  0  0  0  0
  5 29  1  0  0  0  0
  5 35  1  6  0  0  0
  6 13  1  0  0  0  0
  6 39  1  0  0  0  0
  6 22  1  1  0  0  0
  7 15  1  0  0  0  0
  8  9  1  6  0  0  0
  8 17  1  0  0  0  0
 10 19  1  0  0  0  0
 11 12  1  6  0  0  0
 11 21  1  0  0  0  0
 12 44  1  0  0  0  0
 13 14  1  1  0  0  0
 13 23  1  0  0  0  0
 15 16  1  0  0  0  0
 17 18  1  1  0  0  0
 17 25  1  0  0  0  0
 19 20  1  6  0  0  0
 19 27  1  0  0  0  0
 21 22  1  6  0  0  0
 21 28  1  0  0  0  0
 23 24  1  1  0  0  0
 23 30  1  0  0  0  0
 25 26  1  6  0  0  0
 25 32  1  0  0  0  0
 27  2  1  1  0  0  0
 27 34  1  0  0  0  0
 28 29  1  0  0  0  0
 28 36  1  6  0  0  0
 30 31  1  1  0  0  0
 30 38  1  0  0  0  0
 32 33  1  0  0  0  0
 32 40  1  1  0  0  0
 34 35  1  6  0  0  0
 34 42  1  0  0  0  0
 36 37  1  0  0  0  0
 38 39  1  0  0  0  0
 38 45  1  1  0  0  0
 40 41  1  0  0  0  0
 42 43  1  1  0  0  0
 44 47  1  0  0  0  0
 45 46  1  0  0  0  0
 47 48  1  0  0  0  0
 48 49  1  0  0  0  0
 49  7  1  0  0  0  0
M  END
>  <CHROM.1>
125.46111849,172.44413825,133.60706747,-54.51591252,-160.03507753,-49.18333888
-98.12089644,50.87500705,172.89162932,89.02055513,-65.58860872,26.36550024
-165.25388526,167.30397405,167.91912951,-82.20864001,26.11217603,23.47330283
4.87009759,2.86500193,1.40573972,-0.01198113

>  <Name>
2bee_lig

>  <RI>
0

>  <Rbt.Current_Directory>
/home/itssahil/PROJECTS/Mol_Feturizer/New_Systems/rnas/2bee

>  <Rbt.Executable>
rbdock ($Id: //depot/dev/client3/rdock/2013.1/src/exe/rbdock.cxx#4 $)

>  <Rbt.Library>
libRbt.so (2013.1, Build901 2013/11/27)

>  <Rbt.Parameter_File>
/export/apps/rDock/src/rDock_2013.1_src/data/scripts/dock_solv.prm

>  <Rbt.Receptor>
prm/blind_docking_80.prm

>  <SCORE>
56.2866

>  <SCORE.INTER>
18.6336

>  <SCORE.INTER.CONST>
1

>  <SCORE.INTER.POLAR>
0

>  <SCORE.INTER.ROT>
16

>  <SCORE.INTER.SOLV>
33.0058

>  <SCORE.INTER.VDW>
-12.8462

>  <SCORE.INTER.norm>
0.380278

>  <SCORE.INTRA>
23.7773

>  <SCORE.INTRA.DIHEDRAL>
-6.8203

>  <SCORE.INTRA.DIHEDRAL.0>
36.0842

>  <SCORE.INTRA.POLAR>
0

>  <SCORE.INTRA.POLAR.0>
0

>  <SCORE.INTRA.REPUL>
0

>  <SCORE.INTRA.REPUL.0>
0

>  <SCORE.INTRA.SOLV>
9.0426

>  <SCORE.INTRA.SOLV.lig_0>
-126.444

>  <SCORE.INTRA.VDW>
22.6661

>  <SCORE.INTRA.VDW.0>
-7.40469

>  <SCORE.INTRA.norm>
0.485251

>  <SCORE.RESTR>
13.8757

>  <SCORE.RESTR.CAVITY>
13.8757

>  <SCORE.RESTR.norm>
0.283177

>  <SCORE.SYSTEM>
0

>  <SCORE.SYSTEM.CONST>
0

>  <SCORE.SYSTEM.DIHEDRAL>
0

>  <SCORE.SYSTEM.SOLV>
0

>  <SCORE.SYSTEM.norm>
0

>  <SCORE.heavy>
49

>  <SCORE.norm>
1.14871

>  <RMSD>
28.393

$$$$
2bee_lig
 OpenBabel11021811423D
libRbt.so/2013.1/901 2013/11/27
 49 52  0  0  0  0  0  0  0  0999 V2000
   25.9525   25.0340    8.8115 C   0  0  2  0  0  0  0  0  0  0  0  0
   25.0213   25.7564    8.0159 O   0  0  0  0  0  0  0  0  0  0  0  0
   24.7621   29.4537    5.6417 C   0  0  2  0  0  0  0  0  0  0  0  0
   25.1521   30.7654    5.0566 N   0  0  0  0  0  0  0  0  0  0  0  0
   26.5407   25.3522    4.3225 C   0  0  1  0  0  0  0  0  0  0  0  0
   25.9826   21.4569    1.5838 C   0  0  1  0  0  0  0  0  0  0  0  0
   25.6947   22.2825   -2.3204 C   0  0  0  0  0  0  0  0  0  0  0  0
   27.1043   24.4453    7.9083 C   0  0  2  0  0  0  0  0  0  0  0  0
   27.7265   25.5128    7.1325 N   0  0  0  0  0  0  0  0  0  0  0  0
   24.8363   29.5420    7.2337 C   0  0  0  0  0  0  0  0  0  0  0  0
   27.2668   24.3294    3.5105 C   0  0  2  0  0  0  0  0  0  0  0  0
   28.2160   24.9240    2.5536 O   0  0  0  0  0  0  0  0  0  0  0  0
   24.9872   20.1807    1.6909 C   0  0  2  0  0  0  0  0  0  0  0  0
   25.1738   19.5557    3.0428 N   0  0  0  0  0  0  0  0  0  0  0  0
   26.7731   21.7925   -3.0935 C   0  0  0  0  0  0  0  0  0  0  0  0
   26.6377   20.5962   -3.7943 N   0  0  0  0  0  0  0  0  0  0  0  0
   26.5062   23.3097    6.9677 C   0  0  1  0  0  0  0  0  0  0  0  0
   27.5505   22.7828    6.1622 O   0  0  0  0  0  0  0  0  0  0  0  0
   24.4271   28.1137    7.9150 C   0  0  2  0  0  0  0  0  0  0  0  0
   24.4815   28.1849    9.3357 N   0  0  0  0  0  0  0  0  0  0  0  0
   26.0437   23.5729    3.0515 C   0  0  2  0  0  0  0  0  0  0  0  0
   25.6148   22.3159    2.6896 O   0  0  0  0  0  0  0  0  0  0  0  0
   25.3579   19.1648    0.5521 C   0  0  1  0  0  0  0  0  0  0  0  0
   25.1349   19.8447   -0.7323 O   0  0  0  0  0  0  0  0  0  0  0  0
   25.8679   22.2095    7.8472 C   0  0  2  0  0  0  0  0  0  0  0  0
   25.2821   21.1344    7.0064 O   0  0  0  0  0  0  0  0  0  0  0  0
   25.3978   26.9792    7.4034 C   0  0  2  0  0  0  0  0  0  0  0  0
   24.9572   24.7416    2.8485 C   0  0  2  0  0  0  0  0  0  0  0  0
   25.2238   25.5566    3.8967 O   0  0  0  0  0  0  0  0  0  0  0  0
   26.9150   18.7085    0.7279 C   0  0  2  0  0  0  0  0  0  0  0  0
   27.1278   18.0277    2.0251 O   0  0  0  0  0  0  0  0  0  0  0  0
   24.7314   22.8067    8.7425 C   0  0  2  0  0  0  0  0  0  0  0  0
   25.3705   23.8492    9.5228 O   0  0  0  0  0  0  0  0  0  0  0  0
   25.2897   26.9370    5.8417 C   0  0  2  0  0  0  0  0  0  0  0  0
   26.1655   25.8902    5.4995 O   0  0  0  0  0  0  0  0  0  0  0  0
   23.4346   24.3611    2.9619 C   0  0  0  0  0  0  0  0  0  0  0  0
   22.6613   25.5515    3.3146 O   0  0  0  0  0  0  0  0  0  0  0  0
   27.8693   19.9829    0.6644 C   0  0  1  0  0  0  0  0  0  0  0  0
   27.4143   20.9300    1.7550 O   0  0  0  0  0  0  0  0  0  0  0  0
   24.2002   21.6986    9.5584 C   0  0  0  0  0  0  0  0  0  0  0  0
   23.2795   22.1511   10.4202 O   0  0  0  0  0  0  0  0  0  0  0  0
   25.7236   28.3259    5.2052 C   0  0  1  0  0  0  0  0  0  0  0  0
   25.6147   28.2788    3.8152 O   0  0  0  0  0  0  0  0  0  0  0  0
   28.3863   24.5004    1.1541 C   0  0  0  0  0  0  0  0  0  0  0  0
   29.3210   19.4298    0.8639 C   0  0  0  0  0  0  0  0  0  0  0  0
   30.3119   20.4660    0.9179 N   0  0  0  0  0  0  0  0  0  0  0  0
   27.0740   24.7157    0.3987 C   0  0  0  0  0  0  0  0  0  0  0  0
   27.0179   23.6870   -0.6581 N   0  0  0  0  0  0  0  0  0  0  0  0
   25.8411   23.7193   -1.6355 C   0  0  0  0  0  0  0  0  0  0  0  0
  1  2  1  6  0  0  0
  1  8  1  0  0  0  0
  1 33  1  0  0  0  0
  3  4  1  6  0  0  0
  3 10  1  0  0  0  0
  3 42  1  0  0  0  0
  5 11  1  0  0  0  0
  5 29  1  0  0  0  0
  5 35  1  1  0  0  0
  6 13  1  0  0  0  0
  6 39  1  0  0  0  0
  6 22  1  1  0  0  0
  7 15  1  0  0  0  0
  8  9  1  6  0  0  0
  8 17  1  0  0  0  0
 10 19  1  0  0  0  0
 11 12  1  6  0  0  0
 11 21  1  0  0  0  0
 12 44  1  0  0  0  0
 13 14  1  1  0  0  0
 13 23  1  0  0  0  0
 15 16  1  0  0  0  0
 17 18  1  1  0  0  0
 17 25  1  0  0  0  0
 19 20  1  1  0  0  0
 19 27  1  0  0  0  0
 21 22  1  6  0  0  0
 21 28  1  0  0  0  0
 23 24  1  6  0  0  0
 23 30  1  0  0  0  0
 25 26  1  6  0  0  0
 25 32  1  0  0  0  0
 27  2  1  1  0  0  0
 27 34  1  0  0  0  0
 28 29  1  0  0  0  0
 28 36  1  1  0  0  0
 30 31  1  1  0  0  0
 30 38  1  0  0  0  0
 32 33  1  0  0  0  0
 32 40  1  1  0  0  0
 34 35  1  6  0  0  0
 34 42  1  0  0  0  0
 36 37  1  0  0  0  0
 38 39  1  0  0  0  0
 38 45  1  1  0  0  0
 40 41  1  0  0  0  0
 42 43  1  6  0  0  0
 44 47  1  0  0  0  0
 45 46  1  0  0  0  0
 47 48  1  0  0  0  0
 48 49  1  0  0  0  0
 49  7  1  0  0  0  0
M  END
>  <CHROM.1>
-68.61448033,-174.17482276,-174.84443933,-174.69435987,-136.41432678,61.75366926
-64.09969575,-121.41672143,156.18815477,175.84128952,-179.21815713,-176.31585200
-149.86746207,-176.21122183,-159.98607089,-61.31650538,25.97932762,23.71174228
3.95259182,3.11436291,1.39644717,-0.57908901

>  <Name>
2bee_lig

>  <RI>
0

>  <Rbt.Current_Directory>
/home/itssahil/PROJECTS/Mol_Feturizer/New_Systems/rnas/2bee

>  <Rbt.Executable>
rbdock ($Id: //depot/dev/client3/rdock/2013.1/src/exe/rbdock.cxx#4 $)

>  <Rbt.Library>
libRbt.so (2013.1, Build901 2013/11/27)

>  <Rbt.Parameter_File>
/export/apps/rDock/src/rDock_2013.1_src/data/scripts/dock_solv.prm

>  <Rbt.Receptor>
prm/blind_docking_80.prm

>  <SCORE>
7.13075

>  <SCORE.INTER>
-9.07214

>  <SCORE.INTER.CONST>
1

>  <SCORE.INTER.POLAR>
-2.10076

>  <SCORE.INTER.ROT>
16

>  <SCORE.INTER.SOLV>
25.3745

>  <SCORE.INTER.VDW>
-21.7704

>  <SCORE.INTER.norm>
-0.185146

>  <SCORE.INTRA>
1.7652

>  <SCORE.INTRA.DIHEDRAL>
-11.4881

>  <SCORE.INTRA.DIHEDRAL.0>
36.0842

>  <SCORE.INTRA.POLAR>
0

>  <SCORE.INTRA.POLAR.0>
0

>  <SCORE.INTRA.REPUL>
0.074273

>  <SCORE.INTRA.REPUL.0>
0

>  <SCORE.INTRA.SOLV>
3.53644

>  <SCORE.INTRA.SOLV.lig_0>
-126.444

>  <SCORE.INTRA.VDW>
5.36967

>  <SCORE.INTRA.VDW.0>
-7.40469

>  <SCORE.INTRA.norm>
0.0360245

>  <SCORE.RESTR>
14.4377

>  <SCORE.RESTR.CAVITY>
14.4377

>  <SCORE.RESTR.norm>
0.294647

>  <SCORE.SYSTEM>
0

>  <SCORE.SYSTEM.CONST>
0

>  <SCORE.SYSTEM.DIHEDRAL>
0

>  <SCORE.SYSTEM.SOLV>
0

>  <SCORE.SYSTEM.norm>
0

>  <SCORE.heavy>
49

>  <SCORE.norm>
0.145526

>  <RMSD>
28.429

$$$$
2bee_lig
 OpenBabel11021811423D
libRbt.so/2013.1/901 2013/11/27
 49 52  0  0  0  0  0  0  0  0999 V2000
   26.5390   26.8594    8.2537 C   0  0  2  0  0  0  0  0  0  0  0  0
   26.8925   27.0357    6.8876 O   0  0  0  0  0  0  0  0  0  0  0  0
   22.9268   27.0579    4.9781 C   0  0  2  0  0  0  0  0  0  0  0  0
   21.8960   27.0832    3.9049 N   0  0  0  0  0  0  0  0  0  0  0  0
   25.6614   23.4747    5.3718 C   0  0  1  0  0  0  0  0  0  0  0  0
   26.9485   21.0319    1.4378 C   0  0  1  0  0  0  0  0  0  0  0  0
   23.8627   20.8539    7.3882 C   0  0  0  0  0  0  0  0  0  0  0  0
   27.0868   28.0584    9.1205 C   0  0  2  0  0  0  0  0  0  0  0  0
   26.6201   29.3268    8.5711 N   0  0  0  0  0  0  0  0  0  0  0  0
   23.8856   28.3242    4.8202 C   0  0  0  0  0  0  0  0  0  0  0  0
   25.1227   22.5635    4.3173 C   0  0  2  0  0  0  0  0  0  0  0  0
   24.4202   21.3939    4.8730 O   0  0  0  0  0  0  0  0  0  0  0  0
   28.3267   21.1717    0.5940 C   0  0  2  0  0  0  0  0  0  0  0  0
   28.2716   22.4568   -0.1796 N   0  0  0  0  0  0  0  0  0  0  0  0
   24.3662   21.9193    8.1708 C   0  0  0  0  0  0  0  0  0  0  0  0
   23.4978   22.8933    8.6585 N   0  0  0  0  0  0  0  0  0  0  0  0
   28.6758   27.9897    9.1680 C   0  0  1  0  0  0  0  0  0  0  0  0
   29.1593   29.0693    9.9538 O   0  0  0  0  0  0  0  0  0  0  0  0
   25.0422   28.3254    5.9750 C   0  0  2  0  0  0  0  0  0  0  0  0
   25.8973   29.4564    5.8481 N   0  0  0  0  0  0  0  0  0  0  0  0
   26.4075   22.4229    3.5373 C   0  0  2  0  0  0  0  0  0  0  0  0
   26.8902   22.2191    2.2643 O   0  0  0  0  0  0  0  0  0  0  0  0
   28.4418   19.9424   -0.3763 C   0  0  1  0  0  0  0  0  0  0  0  0
   28.5053   18.7314    0.4550 O   0  0  0  0  0  0  0  0  0  0  0  0
   29.1052   26.6282    9.7624 C   0  0  2  0  0  0  0  0  0  0  0  0
   30.5854   26.5157    9.8104 O   0  0  0  0  0  0  0  0  0  0  0  0
   25.8961   27.0016    5.8787 C   0  0  2  0  0  0  0  0  0  0  0  0
   27.5271   22.4209    4.6923 C   0  0  2  0  0  0  0  0  0  0  0  0
   27.0428   23.3476    5.5530 O   0  0  0  0  0  0  0  0  0  0  0  0
   27.1473   19.9217   -1.3700 C   0  0  2  0  0  0  0  0  0  0  0  0
   27.0925   21.1464   -2.1997 O   0  0  0  0  0  0  0  0  0  0  0  0
   28.5510   25.4473    8.8974 C   0  0  2  0  0  0  0  0  0  0  0  0
   27.1115   25.6267    8.8869 O   0  0  0  0  0  0  0  0  0  0  0  0
   24.9110   25.7944    6.0358 C   0  0  2  0  0  0  0  0  0  0  0  0
   25.7700   24.6825    5.9591 O   0  0  0  0  0  0  0  0  0  0  0  0
   28.9803   22.8892    4.3119 C   0  0  0  0  0  0  0  0  0  0  0  0
   29.3536   22.3141    3.0198 O   0  0  0  0  0  0  0  0  0  0  0  0
   25.8043   19.8295   -0.5173 C   0  0  1  0  0  0  0  0  0  0  0  0
   25.7962   21.0162    0.4235 O   0  0  0  0  0  0  0  0  0  0  0  0
   28.9864   24.1971    9.5479 C   0  0  0  0  0  0  0  0  0  0  0  0
   28.0850   23.2262    9.3475 O   0  0  0  0  0  0  0  0  0  0  0  0
   23.8185   25.7998    4.8830 C   0  0  1  0  0  0  0  0  0  0  0  0
   22.9422   24.7256    5.0387 O   0  0  0  0  0  0  0  0  0  0  0  0
   23.9100   20.2588    4.0868 C   0  0  0  0  0  0  0  0  0  0  0  0
   24.6408   19.8381   -1.5658 C   0  0  0  0  0  0  0  0  0  0  0  0
   24.9125   19.0155   -2.7096 N   0  0  0  0  0  0  0  0  0  0  0  0
   23.1514   19.3053    5.0111 C   0  0  0  0  0  0  0  0  0  0  0  0
   24.1387   18.7609    5.9634 N   0  0  0  0  0  0  0  0  0  0  0  0
   24.8868   19.7425    6.8680 C   0  0  0  0  0  0  0  0  0  0  0  0
  1  2  1  6  0  0  0
  1  8  1  0  0  0  0
  1 33  1  0  0  0  0
  3  4  1  6  0  0  0
  3 10  1  0  0  0  0
  3 42  1  0  0  0  0
  5 11  1  0  0  0  0
  5 29  1  0  0  0  0
  5 35  1  6  0  0  0
  6 13  1  0  0  0  0
  6 39  1  0  0  0  0
  6 22  1  1  0  0  0
  7 15  1  0  0  0  0
  8  9  1  6  0  0  0
  8 17  1  0  0  0  0
 10 19  1  0  0  0  0
 11 12  1  1  0  0  0
 11 21  1  0  0  0  0
 12 44  1  0  0  0  0
 13 14  1  6  0  0  0
 13 23  1  0  0  0  0
 15 16  1  0  0  0  0
 17 18  1  1  0  0  0
 17 25  1  0  0  0  0
 19 20  1  6  0  0  0
 19 27  1  0  0  0  0
 21 22  1  1  0  0  0
 21 28  1  0  0  0  0
 23 24  1  1  0  0  0
 23 30  1  0  0  0  0
 25 26  1  6  0  0  0
 25 32  1  0  0  0  0
 27  2  1  1  0  0  0
 27 34  1  0  0  0  0
 28 29  1  0  0  0  0
 28 36  1  6  0  0  0
 30 31  1  1  0  0  0
 30 38  1  0  0  0  0
 32 33  1  0  0  0  0
 32 40  1  1  0  0  0
 34 35  1  6  0  0  0
 34 42  1  0  0  0  0
 36 37  1  0  0  0  0
 38 39  1  0  0  0  0
 38 45  1  6  0  0  0
 40 41  1  0  0  0  0
 42 43  1  1  0  0  0
 44 47  1  0  0  0  0
 45 46  1  0  0  0  0
 47 48  1  0  0  0  0
 48 49  1  0  0  0  0
 49  7  1  0  0  0  0
M  END
>  <CHROM.1>
-126.16404757,27.79414440,-145.22494993,-178.96696114,-173.28880890,-175.66223603
-75.02991378,72.26988144,-42.73631633,148.68763694,-140.25641427,42.20700141
-64.64180929,60.07277671,41.07034373,-175.75116992,26.26186085,23.63711159
4.89851587,-1.46780271,-0.77460828,-2.19500918

>  <Name>
2bee_lig

>  <RI>
0

>  <Rbt.Current_Directory>
/home/itssahil/PROJECTS/Mol_Feturizer/New_Systems/rnas/2bee

>  <Rbt.Executable>
rbdock ($Id: //depot/dev/client3/rdock/2013.1/src/exe/rbdock.cxx#4 $)

>  <Rbt.Library>
libRbt.so (2013.1, Build901 2013/11/27)

>  <Rbt.Parameter_File>
/export/apps/rDock/src/rDock_2013.1_src/data/scripts/dock_solv.prm

>  <Rbt.Receptor>
prm/blind_docking_80.prm

>  <SCORE>
65.6003

>  <SCORE.INTER>
44.2881

>  <SCORE.INTER.CONST>
1

>  <SCORE.INTER.POLAR>
0

>  <SCORE.INTER.ROT>
16

>  <SCORE.INTER.SOLV>
25.7164

>  <SCORE.INTER.VDW>
6.68658

>  <SCORE.INTER.norm>
0.903838

>  <SCORE.INTRA>
5.2229

>  <SCORE.INTRA.DIHEDRAL>
-4.47308

>  <SCORE.INTRA.DIHEDRAL.0>
36.0842

>  <SCORE.INTRA.POLAR>
0

>  <SCORE.INTRA.POLAR.0>
0

>  <SCORE.INTRA.REPUL>
0

>  <SCORE.INTRA.REPUL.0>
0

>  <SCORE.INTRA.SOLV>
2.92235

>  <SCORE.INTRA.SOLV.lig_0>
-126.444

>  <SCORE.INTRA.VDW>
5.99826

>  <SCORE.INTRA.VDW.0>
-7.40469

>  <SCORE.INTRA.norm>
0.10659

>  <SCORE.RESTR>
16.0893

>  <SCORE.RESTR.CAVITY>
16.0893

>  <SCORE.RESTR.norm>
0.328354

>  <SCORE.SYSTEM>
0

>  <SCORE.SYSTEM.CONST>
0

>  <SCORE.SYSTEM.DIHEDRAL>
0

>  <SCORE.SYSTEM.SOLV>
0

>  <SCORE.SYSTEM.norm>
0

>  <SCORE.heavy>
49

>  <SCORE.norm>
1.33878

>  <RMSD>
28.454

$$$$
2bee_lig
 OpenBabel11021811423D
libRbt.so/2013.1/901 2013/11/27
 49 52  0  0  0  0  0  0  0  0999 V2000
   27.6505   25.7012    7.4315 C   0  0  2  0  0  0  0  0  0  0  0  0
   26.7438   26.7524    7.7395 O   0  0  0  0  0  0  0  0  0  0  0  0
   24.1291   29.1583    5.1415 C   0  0  2  0  0  0  0  0  0  0  0  0
   23.7174   30.1645    4.1252 N   0  0  0  0  0  0  0  0  0  0  0  0
   26.0693   24.8046    4.5348 C   0  0  1  0  0  0  0  0  0  0  0  0
   27.0140   22.3258    0.5189 C   0  0  1  0  0  0  0  0  0  0  0  0
   23.8753   21.9973    8.6483 C   0  0  0  0  0  0  0  0  0  0  0  0
   27.2738   24.3986    8.2380 C   0  0  2  0  0  0  0  0  0  0  0  0
   25.8817   24.0408    7.9879 N   0  0  0  0  0  0  0  0  0  0  0  0
   24.9883   29.8767    6.2789 C   0  0  0  0  0  0  0  0  0  0  0  0
   25.3680   23.9295    3.5473 C   0  0  2  0  0  0  0  0  0  0  0  0
   24.6909   22.7821    4.1761 O   0  0  0  0  0  0  0  0  0  0  0  0
   26.3808   22.6626   -0.9360 C   0  0  2  0  0  0  0  0  0  0  0  0
   24.9531   23.0815   -0.7375 N   0  0  0  0  0  0  0  0  0  0  0  0
   22.7790   21.1655    8.3211 C   0  0  0  0  0  0  0  0  0  0  0  0
   22.6909   20.6005    7.0507 N   0  0  0  0  0  0  0  0  0  0  0  0
   27.5471   24.6419    9.7866 C   0  0  1  0  0  0  0  0  0  0  0  0
   27.2098   23.4632   10.5035 O   0  0  0  0  0  0  0  0  0  0  0  0
   25.4718   28.8001    7.4098 C   0  0  2  0  0  0  0  0  0  0  0  0
   26.2314   29.4331    8.4337 N   0  0  0  0  0  0  0  0  0  0  0  0
   26.5405   23.7473    2.6142 C   0  0  2  0  0  0  0  0  0  0  0  0
   26.8547   23.5407    1.2900 O   0  0  0  0  0  0  0  0  0  0  0  0
   26.4632   21.3705   -1.8247 C   0  0  1  0  0  0  0  0  0  0  0  0
   27.8864   21.0368   -1.9830 O   0  0  0  0  0  0  0  0  0  0  0  0
   29.0356   25.0113    9.9851 C   0  0  2  0  0  0  0  0  0  0  0  0
   29.3311   25.2627   11.4187 O   0  0  0  0  0  0  0  0  0  0  0  0
   26.3354   27.6652    6.7335 C   0  0  2  0  0  0  0  0  0  0  0  0
   27.7922   23.6853    3.6227 C   0  0  2  0  0  0  0  0  0  0  0  0
   27.4560   24.6195    4.5437 O   0  0  0  0  0  0  0  0  0  0  0  0
   25.6412   20.1647   -1.0939 C   0  0  2  0  0  0  0  0  0  0  0  0
   24.2109   20.5130   -0.9377 O   0  0  0  0  0  0  0  0  0  0  0  0
   29.3983   26.3010    9.1757 C   0  0  2  0  0  0  0  0  0  0  0  0
   29.0765   25.9872    7.7965 O   0  0  0  0  0  0  0  0  0  0  0  0
   25.4505   26.9973    5.6275 C   0  0  2  0  0  0  0  0  0  0  0  0
   26.2992   25.9994    5.1137 O   0  0  0  0  0  0  0  0  0  0  0  0
   29.2060   24.0995    3.0702 C   0  0  0  0  0  0  0  0  0  0  0  0
   29.0777   25.3180    2.2713 O   0  0  0  0  0  0  0  0  0  0  0  0
   26.2524   19.8826    0.3504 C   0  0  1  0  0  0  0  0  0  0  0  0
   26.1828   21.1843    1.1213 O   0  0  0  0  0  0  0  0  0  0  0  0
   30.8319   26.5623    9.4038 C   0  0  0  0  0  0  0  0  0  0  0  0
   31.5726   25.5455    8.9425 O   0  0  0  0  0  0  0  0  0  0  0  0
   25.0224   28.0582    4.5259 C   0  0  1  0  0  0  0  0  0  0  0  0
   24.2278   27.4536    3.5516 O   0  0  0  0  0  0  0  0  0  0  0  0
   24.6317   22.5217    5.6237 C   0  0  0  0  0  0  0  0  0  0  0  0
   25.3788   18.7334    0.9579 C   0  0  0  0  0  0  0  0  0  0  0  0
   26.0190   18.0634    2.0533 N   0  0  0  0  0  0  0  0  0  0  0  0
   25.9325   21.8524    6.0695 C   0  0  0  0  0  0  0  0  0  0  0  0
   25.5715   20.8753    7.1149 N   0  0  0  0  0  0  0  0  0  0  0  0
   25.3498   21.3900    8.5388 C   0  0  0  0  0  0  0  0  0  0  0  0
  1  2  1  1  0  0  0
  1  8  1  0  0  0  0
  1 33  1  0  0  0  0
  3  4  1  6  0  0  0
  3 10  1  0  0  0  0
  3 42  1  0  0  0  0
  5 11  1  0  0  0  0
  5 29  1  0  0  0  0
  5 35  1  6  0  0  0
  6 13  1  0  0  0  0
  6 39  1  0  0  0  0
  6 22  1  1  0  0  0
  7 15  1  0  0  0  0
  8  9  1  1  0  0  0
  8 17  1  0  0  0  0
 10 19  1  0  0  0  0
 11 12  1  1  0  0  0
 11 21  1  0  0  0  0
 12 44  1  0  0  0  0
 13 14  1  1  0  0  0
 13 23  1  0  0  0  0
 15 16  1  0  0  0  0
 17 18  1  1  0  0  0
 17 25  1  0  0  0  0
 19 20  1  1  0  0  0
 19 27  1  0  0  0  0
 21 22  1  1  0  0  0
 21 28  1  0  0  0  0
 23 24  1  1  0  0  0
 23 30  1  0  0  0  0
 25 26  1  1  0  0  0
 25 32  1  0  0  0  0
 27  2  1  1  0  0  0
 27 34  1  0  0  0  0
 28 29  1  0  0  0  0
 28 36  1  6  0  0  0
 30 31  1  1  0  0  0
 30 38  1  0  0  0  0
 32 33  1  0  0  0  0
 32 40  1  6  0  0  0
 34 35  1  6  0  0  0
 34 42  1  0  0  0  0
 36 37  1  0  0  0  0
 38 39  1  0  0  0  0
 38 45  1  1  0  0  0
 40 41  1  0  0  0  0
 42 43  1  6  0  0  0
 44 47  1  0  0  0  0
 45 46  1  0  0  0  0
 47 48  1  0  0  0  0
 48 49  1  0  0  0  0
 49  7  1  0  0  0  0
M  END
>  <CHROM.1>
-143.40042494,47.89727141,142.05874992,-58.77111537,2.76644869,-81.38183860
-88.98409094,-173.58010858,44.06633236,61.99032180,151.79728808,161.50792022
-143.69823783,-80.78170088,80.97113927,56.80151133,26.42931770,24.13620986
4.97861789,0.26341773,-1.41676684,-0.28269270

>  <Name>
2bee_lig

>  <RI>
0

>  <Rbt.Current_Directory>
/home/itssahil/PROJECTS/Mol_Feturizer/New_Systems/rnas/2bee

>  <Rbt.Executable>
rbdock ($Id: //depot/dev/client3/rdock/2013.1/src/exe/rbdock.cxx#4 $)

>  <Rbt.Library>
libRbt.so (2013.1, Build901 2013/11/27)

>  <Rbt.Parameter_File>
/export/apps/rDock/src/rDock_2013.1_src/data/scripts/dock_solv.prm

>  <Rbt.Receptor>
prm/blind_docking_80.prm

>  <SCORE>
48.2888

>  <SCORE.INTER>
32.132

>  <SCORE.INTER.CONST>
1

>  <SCORE.INTER.POLAR>
-0.968278

>  <SCORE.INTER.ROT>
16

>  <SCORE.INTER.SOLV>
31.9887

>  <SCORE.INTER.VDW>
-0.280678

>  <SCORE.INTER.norm>
0.655754

>  <SCORE.INTRA>
5.50066

>  <SCORE.INTRA.DIHEDRAL>
-2.08882

>  <SCORE.INTRA.DIHEDRAL.0>
36.0842

>  <SCORE.INTRA.POLAR>
0

>  <SCORE.INTRA.POLAR.0>
0

>  <SCORE.INTRA.REPUL>
0.152312

>  <SCORE.INTRA.REPUL.0>
0

>  <SCORE.INTRA.SOLV>
6.56458

>  <SCORE.INTRA.SOLV.lig_0>
-126.444

>  <SCORE.INTRA.VDW>
2.50123

>  <SCORE.INTRA.VDW.0>
-7.40469

>  <SCORE.INTRA.norm>
0.112258

>  <SCORE.RESTR>
10.6562

>  <SCORE.RESTR.CAVITY>
10.6562

>  <SCORE.RESTR.norm>
0.217473

>  <SCORE.SYSTEM>
0

>  <SCORE.SYSTEM.CONST>
0

>  <SCORE.SYSTEM.DIHEDRAL>
0

>  <SCORE.SYSTEM.SOLV>
0

>  <SCORE.SYSTEM.norm>
0

>  <SCORE.heavy>
49

>  <SCORE.norm>
0.985486

>  <RMSD>
28.674

$$$$
2bee_lig
 OpenBabel11021811423D
libRbt.so/2013.1/901 2013/11/27
 49 52  0  0  0  0  0  0  0  0999 V2000
   25.5995   20.8778    6.1049 C   0  0  2  0  0  0  0  0  0  0  0  0
   26.2968   20.5259    4.9165 O   0  0  0  0  0  0  0  0  0  0  0  0
   28.2393   23.2216    2.0297 C   0  0  2  0  0  0  0  0  0  0  0  0
   28.3943   24.1676    0.8913 N   0  0  0  0  0  0  0  0  0  0  0  0
   26.5086   23.5019    6.6659 C   0  0  1  0  0  0  0  0  0  0  0  0
   29.2610   25.9816    9.7302 C   0  0  1  0  0  0  0  0  0  0  0  0
   23.2688   26.1707   12.3770 C   0  0  0  0  0  0  0  0  0  0  0  0
   25.2640   19.5860    6.9462 C   0  0  2  0  0  0  0  0  0  0  0  0
   26.4830   18.8274    7.2052 N   0  0  0  0  0  0  0  0  0  0  0  0
   27.5421   21.8820    1.5127 C   0  0  0  0  0  0  0  0  0  0  0  0
   27.2707   23.3587    7.9431 C   0  0  2  0  0  0  0  0  0  0  0  0
   26.4544   22.8115    9.0407 O   0  0  0  0  0  0  0  0  0  0  0  0
   30.7041   26.6946    9.5301 C   0  0  2  0  0  0  0  0  0  0  0  0
   31.6487   25.6814    8.9519 N   0  0  0  0  0  0  0  0  0  0  0  0
   23.1036   26.7529   13.6555 C   0  0  0  0  0  0  0  0  0  0  0  0
   22.5488   28.0254   13.7725 N   0  0  0  0  0  0  0  0  0  0  0  0
   24.1866   18.7146    6.1640 C   0  0  1  0  0  0  0  0  0  0  0  0
   23.8875   17.5571    6.9307 O   0  0  0  0  0  0  0  0  0  0  0  0
   27.3415   20.8202    2.7390 C   0  0  2  0  0  0  0  0  0  0  0  0
   26.7283   19.6181    2.2859 N   0  0  0  0  0  0  0  0  0  0  0  0
   27.8120   24.7674    7.9805 C   0  0  2  0  0  0  0  0  0  0  0  0
   28.8886   25.5076    8.4139 O   0  0  0  0  0  0  0  0  0  0  0  0
   31.2107   27.1922   10.9307 C   0  0  1  0  0  0  0  0  0  0  0  0
   30.2443   28.1869   11.4190 O   0  0  0  0  0  0  0  0  0  0  0  0
   22.9211   19.5706    5.9255 C   0  0  2  0  0  0  0  0  0  0  0  0
   21.8929   18.7983    5.1824 O   0  0  0  0  0  0  0  0  0  0  0  0
   26.4571   21.4721    3.8721 C   0  0  2  0  0  0  0  0  0  0  0  0
   26.5967   25.6322    7.3782 C   0  0  2  0  0  0  0  0  0  0  0  0
   26.1391   24.8234    6.3930 O   0  0  0  0  0  0  0  0  0  0  0  0
   31.3238   25.9171   11.9431 C   0  0  2  0  0  0  0  0  0  0  0  0
   32.2973   24.9218   11.4401 O   0  0  0  0  0  0  0  0  0  0  0  0
   23.2678   20.8515    5.0954 C   0  0  2  0  0  0  0  0  0  0  0  0
   24.2775   21.5458    5.8718 O   0  0  0  0  0  0  0  0  0  0  0  0
   27.1814   22.7794    4.3400 C   0  0  2  0  0  0  0  0  0  0  0  0
   26.3302   23.2587    5.3527 O   0  0  0  0  0  0  0  0  0  0  0  0
   26.9376   27.0085    6.6961 C   0  0  0  0  0  0  0  0  0  0  0  0
   27.8989   27.7363    7.5242 O   0  0  0  0  0  0  0  0  0  0  0  0
   29.9050   25.2064   12.0886 C   0  0  1  0  0  0  0  0  0  0  0  0
   29.4670   24.8057   10.6954 O   0  0  0  0  0  0  0  0  0  0  0  0
   22.0148   21.6137    4.9381 C   0  0  0  0  0  0  0  0  0  0  0  0
   21.1064   20.8893    4.2708 O   0  0  0  0  0  0  0  0  0  0  0  0
   27.3339   23.8052    3.1372 C   0  0  1  0  0  0  0  0  0  0  0  0
   27.9879   24.9611    3.5641 O   0  0  0  0  0  0  0  0  0  0  0  0
   25.0354   23.1225    9.2783 C   0  0  0  0  0  0  0  0  0  0  0  0
   30.1393   23.9976   13.0566 C   0  0  0  0  0  0  0  0  0  0  0  0
   31.0496   23.0240   12.5256 N   0  0  0  0  0  0  0  0  0  0  0  0
   24.9240   24.1213   10.4311 C   0  0  0  0  0  0  0  0  0  0  0  0
   23.4988   24.1756   10.8107 N   0  0  0  0  0  0  0  0  0  0  0  0
   23.1481   24.5825   12.2434 C   0  0  0  0  0  0  0  0  0  0  0  0
  1  2  1  6  0  0  0
  1  8  1  0  0  0  0
  1 33  1  0  0  0  0
  3  4  1  6  0  0  0
  3 10  1  0  0  0  0
  3 42  1  0  0  0  0
  5 11  1  0  0  0  0
  5 29  1  0  0  0  0
  5 35  1  6  0  0  0
  6 13  1  0  0  0  0
  6 39  1  0  0  0  0
  6 22  1  6  0  0  0
  7 15  1  0  0  0  0
  8  9  1  6  0  0  0
  8 17  1  0  0  0  0
 10 19  1  0  0  0  0
 11 12  1  1  0  0  0
 11 21  1  0  0  0  0
 12 44  1  0  0  0  0
 13 14  1  1  0  0  0
 13 23  1  0  0  0  0
 15 16  1  0  0  0  0
 17 18  1  1  0  0  0
 17 25  1  0  0  0  0
 19 20  1  6  0  0  0
 19 27  1  0  0  0  0
 21 22  1  1  0  0  0
 21 28  1  0  0  0  0
 23 24  1  1  0  0  0
 23 30  1  0  0  0  0
 25 26  1  6  0  0  0
 25 32  1  0  0  0  0
 27  2  1  1  0  0  0
 27 34  1  0  0  0  0
 28 29  1  0  0  0  0
 28 36  1  6  0  0  0
 30 31  1  6  0  0  0
 30 38  1  0  0  0  0
 32 33  1  0  0  0  0
 32 40  1  1  0  0  0
 34 35  1  1  0  0  0
 34 42  1  0  0  0  0
 36 37  1  0  0  0  0
 38 39  1  0  0  0  0
 38 45  1  1  0  0  0
 40 41  1  0  0  0  0
 42 43  1  1  0  0  0
 44 47  1  0  0  0  0
 45 46  1  0  0  0  0
 47 48  1  0  0  0  0
 48 49  1  0  0  0  0
 49  7  1  0  0  0  0
M  END
>  <CHROM.1>
166.68626618,-16.01379875,175.89431076,-148.10898372,-37.35144064,-102.67748566
-76.90935565,176.53754406,-44.24440385,-61.30723903,119.70580338,-63.17790847
-168.28022879,154.21158890,78.35356699,-174.41295539,26.67637700,23.45258152
7.60051072,2.03401654,-0.44072552,-2.00944906

>  <Name>
2bee_lig

>  <RI>
0

>  <Rbt.Current_Directory>
/home/itssahil/PROJECTS/Mol_Feturizer/New_Systems/rnas/2bee

>  <Rbt.Executable>
rbdock ($Id: //depot/dev/client3/rdock/2013.1/src/exe/rbdock.cxx#4 $)

>  <Rbt.Library>
libRbt.so (2013.1, Build901 2013/11/27)

>  <Rbt.Parameter_File>
/export/apps/rDock/src/rDock_2013.1_src/data/scripts/dock_solv.prm

>  <Rbt.Receptor>
prm/blind_docking_80.prm

>  <SCORE>
20.8813

>  <SCORE.INTER>
3.63159

>  <SCORE.INTER.CONST>
1

>  <SCORE.INTER.POLAR>
-0.43894

>  <SCORE.INTER.ROT>
16

>  <SCORE.INTER.SOLV>
44.46

>  <SCORE.INTER.VDW>
-25.2025

>  <SCORE.INTER.norm>
0.074114

>  <SCORE.INTRA>
1.12382

>  <SCORE.INTRA.DIHEDRAL>
-4.66729

>  <SCORE.INTRA.DIHEDRAL.0>
36.0842

>  <SCORE.INTRA.POLAR>
0

>  <SCORE.INTRA.POLAR.0>
0

>  <SCORE.INTRA.REPUL>
0

>  <SCORE.INTRA.REPUL.0>
0

>  <SCORE.INTRA.SOLV>
-2.36973

>  <SCORE.INTRA.SOLV.lig_0>
-126.444

>  <SCORE.INTRA.VDW>
4.64233

>  <SCORE.INTRA.VDW.0>
-7.40469

>  <SCORE.INTRA.norm>
0.0229351

>  <SCORE.RESTR>
16.1259

>  <SCORE.RESTR.CAVITY>
16.1259

>  <SCORE.RESTR.norm>
0.3291

>  <SCORE.SYSTEM>
0

>  <SCORE.SYSTEM.CONST>
0

>  <SCORE.SYSTEM.DIHEDRAL>
0

>  <SCORE.SYSTEM.SOLV>
0

>  <SCORE.SYSTEM.norm>
0

>  <SCORE.heavy>
49

>  <SCORE.norm>
0.426149

>  <RMSD>
28.692

$$$$
2bee_lig
 OpenBabel11021811423D
libRbt.so/2013.1/901 2013/11/27
 49 52  0  0  0  0  0  0  0  0999 V2000
   27.5649   22.8028    1.2815 C   0  0  2  0  0  0  0  0  0  0  0  0
   26.4479   22.7355    2.1590 O   0  0  0  0  0  0  0  0  0  0  0  0
   25.2433   20.6369    5.8358 C   0  0  2  0  0  0  0  0  0  0  0  0
   25.3584   19.8479    7.0924 N   0  0  0  0  0  0  0  0  0  0  0  0
   26.3483   25.2084    5.1764 C   0  0  1  0  0  0  0  0  0  0  0  0
   25.0230   25.1126    9.4612 C   0  0  1  0  0  0  0  0  0  0  0  0
   25.3861   31.5910    7.4214 C   0  0  0  0  0  0  0  0  0  0  0  0
   27.2946   23.8462    0.1294 C   0  0  2  0  0  0  0  0  0  0  0  0
   26.9409   25.1413    0.7006 N   0  0  0  0  0  0  0  0  0  0  0  0
   25.8909   19.8119    4.6325 C   0  0  0  0  0  0  0  0  0  0  0  0
   25.4235   26.2468    5.7232 C   0  0  2  0  0  0  0  0  0  0  0  0
   25.5782   27.5566    5.0670 O   0  0  0  0  0  0  0  0  0  0  0  0
   24.1102   23.9795    8.7444 C   0  0  2  0  0  0  0  0  0  0  0  0
   22.8535   24.6360    8.2516 N   0  0  0  0  0  0  0  0  0  0  0  0
   26.0399   32.7489    6.9389 C   0  0  0  0  0  0  0  0  0  0  0  0
   25.8659   33.1433    5.6142 N   0  0  0  0  0  0  0  0  0  0  0  0
   26.1460   23.2924   -0.8224 C   0  0  1  0  0  0  0  0  0  0  0  0
   25.9130   24.2355   -1.8584 O   0  0  0  0  0  0  0  0  0  0  0  0
   25.7962   20.6523    3.2338 C   0  0  2  0  0  0  0  0  0  0  0  0
   26.3633   19.9206    2.1525 N   0  0  0  0  0  0  0  0  0  0  0  0
   25.7714   26.0398    7.1775 C   0  0  2  0  0  0  0  0  0  0  0  0
   25.2403   26.1205    8.4449 O   0  0  0  0  0  0  0  0  0  0  0  0
   23.7790   22.8666    9.8017 C   0  0  1  0  0  0  0  0  0  0  0  0
   25.0539   22.2658   10.2205 O   0  0  0  0  0  0  0  0  0  0  0  0
   26.5822   21.9249   -1.3978 C   0  0  2  0  0  0  0  0  0  0  0  0
   25.5293   21.3635   -2.2822 O   0  0  0  0  0  0  0  0  0  0  0  0
   26.5428   22.0343    3.3883 C   0  0  2  0  0  0  0  0  0  0  0  0
   27.3467   25.7186    7.1247 C   0  0  2  0  0  0  0  0  0  0  0  0
   27.4383   24.9489    6.0142 O   0  0  0  0  0  0  0  0  0  0  0  0
   22.9908   23.5421   11.0610 C   0  0  2  0  0  0  0  0  0  0  0  0
   21.7107   24.1456   10.6269 O   0  0  0  0  0  0  0  0  0  0  0  0
   26.8530   20.9007   -0.2457 C   0  0  2  0  0  0  0  0  0  0  0  0
   27.8769   21.5163    0.5772 O   0  0  0  0  0  0  0  0  0  0  0  0
   25.8735   22.7995    4.5795 C   0  0  2  0  0  0  0  0  0  0  0  0
   26.5912   24.0094    4.6118 O   0  0  0  0  0  0  0  0  0  0  0  0
   27.9673   24.8745    8.2987 C   0  0  0  0  0  0  0  0  0  0  0  0
   27.9859   25.6801    9.5194 O   0  0  0  0  0  0  0  0  0  0  0  0
   23.8880   24.6819   11.7205 C   0  0  1  0  0  0  0  0  0  0  0  0
   24.2042   25.6822   10.6282 O   0  0  0  0  0  0  0  0  0  0  0  0
   27.2836   19.6418   -0.8824 C   0  0  0  0  0  0  0  0  0  0  0  0
   27.3175   18.6495    0.0173 O   0  0  0  0  0  0  0  0  0  0  0  0
   26.0086   21.9756    5.9306 C   0  0  1  0  0  0  0  0  0  0  0  0
   25.4013   22.6630    6.9818 O   0  0  0  0  0  0  0  0  0  0  0  0
   24.5046   28.2924    4.3792 C   0  0  0  0  0  0  0  0  0  0  0  0
   23.0286   25.2664   12.8921 C   0  0  0  0  0  0  0  0  0  0  0  0
   23.0146   24.4209   14.0513 N   0  0  0  0  0  0  0  0  0  0  0  0
   24.4549   29.7257    4.9104 C   0  0  0  0  0  0  0  0  0  0  0  0
   25.7936   30.0240    5.4554 N   0  0  0  0  0  0  0  0  0  0  0  0
   25.9416   30.1612    6.9722 C   0  0  0  0  0  0  0  0  0  0  0  0
  1  2  1  1  0  0  0
  1  8  1  0  0  0  0
  1 33  1  0  0  0  0
  3  4  1  1  0  0  0
  3 10  1  0  0  0  0
  3 42  1  0  0  0  0
  5 11  1  0  0  0  0
  5 29  1  0  0  0  0
  5 35  1  1  0  0  0
  6 13  1  0  0  0  0
  6 39  1  0  0  0  0
  6 22  1  6  0  0  0
  7 15  1  0  0  0  0
  8  9  1  1  0  0  0
  8 17  1  0  0  0  0
 10 19  1  0  0  0  0
 11 12  1  6  0  0  0
 11 21  1  0  0  0  0
 12 44  1  0  0  0  0
 13 14  1  1  0  0  0
 13 23  1  0  0  0  0
 15 16  1  0  0  0  0
 17 18  1  6  0  0  0
 17 25  1  0  0  0  0
 19 20  1  6  0  0  0
 19 27  1  0  0  0  0
 21 22  1  1  0  0  0
 21 28  1  0  0  0  0
 23 24  1  1  0  0  0
 23 30  1  0  0  0  0
 25 26  1  6  0  0  0
 25 32  1  0  0  0  0
 27  2  1  6  0  0  0
 27 34  1  0  0  0  0
 28 29  1  0  0  0  0
 28 36  1  1  0  0  0
 30 31  1  6  0  0  0
 30 38  1  0  0  0  0
 32 33  1  0  0  0  0
 32 40  1  6  0  0  0
 34 35  1  1  0  0  0
 34 42  1  0  0  0  0
 36 37  1  0  0  0  0
 38 39  1  0  0  0  0
 38 45  1  1  0  0  0
 40 41  1  0  0  0  0
 42 43  1  1  0  0  0
 44 47  1  0  0  0  0
 45 46  1  0  0  0  0
 47 48  1  0  0  0  0
 48 49  1  0  0  0  0
 49  7  1  0  0  0  0
M  END
>  <CHROM.1>
-169.57420970,-23.92741666,-56.03723769,74.20007161,122.38574946,128.95070612
117.67014329,-103.60957627,-70.31270172,-169.56481341,162.73907629,77.17335262
23.64530435,-110.03327914,-77.24217893,-63.22579466,25.67170747,24.38895137
5.45155312,-0.61356258,1.32665237,0.14139845

>  <Name>
2bee_lig

>  <RI>
0

>  <Rbt.Current_Directory>
/home/itssahil/PROJECTS/Mol_Feturizer/New_Systems/rnas/2bee

>  <Rbt.Executable>
rbdock ($Id: //depot/dev/client3/rdock/2013.1/src/exe/rbdock.cxx#4 $)

>  <Rbt.Library>
libRbt.so (2013.1, Build901 2013/11/27)

>  <Rbt.Parameter_File>
/export/apps/rDock/src/rDock_2013.1_src/data/scripts/dock_solv.prm

>  <Rbt.Receptor>
prm/blind_docking_80.prm

>  <SCORE>
22.9896

>  <SCORE.INTER>
5.26712

>  <SCORE.INTER.CONST>
1

>  <SCORE.INTER.POLAR>
-1.25442

>  <SCORE.INTER.ROT>
16

>  <SCORE.INTER.SOLV>
30.4181

>  <SCORE.INTER.VDW>
-16.7132

>  <SCORE.INTER.norm>
0.107492

>  <SCORE.INTRA>
5.48827

>  <SCORE.INTRA.DIHEDRAL>
0.464144

>  <SCORE.INTRA.DIHEDRAL.0>
36.0842

>  <SCORE.INTRA.POLAR>
0

>  <SCORE.INTRA.POLAR.0>
0

>  <SCORE.INTRA.REPUL>
0

>  <SCORE.INTRA.REPUL.0>
0

>  <SCORE.INTRA.SOLV>
5.96388

>  <SCORE.INTRA.SOLV.lig_0>
-126.444

>  <SCORE.INTRA.VDW>
2.27426

>  <SCORE.INTRA.VDW.0>
-7.40469

>  <SCORE.INTRA.norm>
0.112006

>  <SCORE.RESTR>
12.2342

>  <SCORE.RESTR.CAVITY>
12.2342

>  <SCORE.RESTR.norm>
0.249677

>  <SCORE.SYSTEM>
0

>  <SCORE.SYSTEM.CONST>
0

>  <SCORE.SYSTEM.DIHEDRAL>
0

>  <SCORE.SYSTEM.SOLV>
0

>  <SCORE.SYSTEM.norm>
0

>  <SCORE.heavy>
49

>  <SCORE.norm>
0.469175

>  <RMSD>
29.037

$$$$
2bee_lig
 OpenBabel11021811423D
libRbt.so/2013.1/901 2013/11/27
 49 52  0  0  0  0  0  0  0  0999 V2000
   28.4361   24.7729    9.5241 C   0  0  2  0  0  0  0  0  0  0  0  0
   27.1191   25.2019    9.8461 O   0  0  0  0  0  0  0  0  0  0  0  0
   24.2688   21.9190    9.1587 C   0  0  2  0  0  0  0  0  0  0  0  0
   23.0509   21.2057    8.6869 N   0  0  0  0  0  0  0  0  0  0  0  0
   26.8255   24.2633    6.2385 C   0  0  1  0  0  0  0  0  0  0  0  0
   28.3994   24.3485    1.6922 C   0  0  1  0  0  0  0  0  0  0  0  0
   23.9695   29.2893    8.5815 C   0  0  0  0  0  0  0  0  0  0  0  0
   29.1746   24.2527   10.8175 C   0  0  2  0  0  0  0  0  0  0  0  0
   28.3797   23.2137   11.4634 N   0  0  0  0  0  0  0  0  0  0  0  0
   23.8368   23.1632   10.0605 C   0  0  0  0  0  0  0  0  0  0  0  0
   27.0061   25.2118    5.0982 C   0  0  2  0  0  0  0  0  0  0  0  0
   25.7679   25.9276    4.7450 O   0  0  0  0  0  0  0  0  0  0  0  0
   27.4197   23.1537    1.1985 C   0  0  2  0  0  0  0  0  0  0  0  0
   28.0571   21.8456    1.5670 N   0  0  0  0  0  0  0  0  0  0  0  0
   23.3899   28.0037    8.4724 C   0  0  0  0  0  0  0  0  0  0  0  0
   24.0233   26.9053    9.0495 N   0  0  0  0  0  0  0  0  0  0  0  0
   29.4448   25.4775   11.7968 C   0  0  1  0  0  0  0  0  0  0  0  0
   30.1137   25.0006   12.9554 O   0  0  0  0  0  0  0  0  0  0  0  0
   25.1490   23.9823   10.5884 C   0  0  2  0  0  0  0  0  0  0  0  0
   24.7742   25.0890   11.4014 N   0  0  0  0  0  0  0  0  0  0  0  0
   27.6522   24.2267    4.1544 C   0  0  2  0  0  0  0  0  0  0  0  0
   28.5537   24.1451    3.1172 O   0  0  0  0  0  0  0  0  0  0  0  0
   27.2426   23.2677   -0.3577 C   0  0  1  0  0  0  0  0  0  0  0  0
   26.6021   24.5621   -0.6329 O   0  0  0  0  0  0  0  0  0  0  0  0
   30.2931   26.5381   11.0573 C   0  0  2  0  0  0  0  0  0  0  0  0
   30.5560   27.7087   11.9327 O   0  0  0  0  0  0  0  0  0  0  0  0
   25.9934   24.4917    9.3561 C   0  0  2  0  0  0  0  0  0  0  0  0
   26.8797   22.8555    4.4868 C   0  0  2  0  0  0  0  0  0  0  0  0
   26.7507   22.9263    5.8331 O   0  0  0  0  0  0  0  0  0  0  0  0
   28.7057   23.1574   -1.0725 C   0  0  2  0  0  0  0  0  0  0  0  0
   29.3416   21.8516   -0.7864 O   0  0  0  0  0  0  0  0  0  0  0  0
   29.5528   27.0417    9.7734 C   0  0  2  0  0  0  0  0  0  0  0  0
   29.3218   25.8518    8.9765 O   0  0  0  0  0  0  0  0  0  0  0  0
   26.3874   23.2371    8.5056 C   0  0  2  0  0  0  0  0  0  0  0  0
   27.1462   23.7975    7.4615 O   0  0  0  0  0  0  0  0  0  0  0  0
   27.6197   21.5000    4.1855 C   0  0  0  0  0  0  0  0  0  0  0  0
   29.0401   21.7625    3.9555 O   0  0  0  0  0  0  0  0  0  0  0  0
   29.6641   24.3131   -0.5387 C   0  0  1  0  0  0  0  0  0  0  0  0
   29.7395   24.1641    0.9665 O   0  0  0  0  0  0  0  0  0  0  0  0
   30.4397   28.0254    9.1242 C   0  0  0  0  0  0  0  0  0  0  0  0
   31.5361   27.4228    8.6445 O   0  0  0  0  0  0  0  0  0  0  0  0
   25.0945   22.4795    7.9793 C   0  0  1  0  0  0  0  0  0  0  0  0
   25.4582   21.3597    7.2310 O   0  0  0  0  0  0  0  0  0  0  0  0
   25.4612   27.3209    5.1076 C   0  0  0  0  0  0  0  0  0  0  0  0
   31.0312   24.0954   -1.2712 C   0  0  0  0  0  0  0  0  0  0  0  0
   30.8749   23.7125   -2.6451 N   0  0  0  0  0  0  0  0  0  0  0  0
   26.0303   27.6178    6.4958 C   0  0  0  0  0  0  0  0  0  0  0  0
   25.7483   29.0391    6.7759 N   0  0  0  0  0  0  0  0  0  0  0  0
   25.5197   29.4569    8.2301 C   0  0  0  0  0  0  0  0  0  0  0  0
  1  2  1  1  0  0  0
  1  8  1  0  0  0  0
  1 33  1  0  0  0  0
  3  4  1  6  0  0  0
  3 10  1  0  0  0  0
  3 42  1  0  0  0  0
  5 11  1  0  0  0  0
  5 29  1  0  0  0  0
  5 35  1  1  0  0  0
  6 13  1  0  0  0  0
  6 39  1  0  0  0  0
  6 22  1  1  0  0  0
  7 15  1  0  0  0  0
  8  9  1  1  0  0  0
  8 17  1  0  0  0  0
 10 19  1  0  0  0  0
 11 12  1  6  0  0  0
 11 21  1  0  0  0  0
 12 44  1  0  0  0  0
 13 14  1  6  0  0  0
 13 23  1  0  0  0  0
 15 16  1  0  0  0  0
 17 18  1  1  0  0  0
 17 25  1  0  0  0  0
 19 20  1  6  0  0  0
 19 27  1  0  0  0  0
 21 22  1  6  0  0  0
 21 28  1  0  0  0  0
 23 24  1  1  0  0  0
 23 30  1  0  0  0  0
 25 26  1  1  0  0  0
 25 32  1  0  0  0  0
 27  2  1  1  0  0  0
 27 34  1  0  0  0  0
 28 29  1  0  0  0  0
 28 36  1  1  0  0  0
 30 31  1  1  0  0  0
 30 38  1  0  0  0  0
 32 33  1  0  0  0  0
 32 40  1  6  0  0  0
 34 35  1  6  0  0  0
 34 42  1  0  0  0  0
 36 37  1  0  0  0  0
 38 39  1  0  0  0  0
 38 45  1  6  0  0  0
 40 41  1  0  0  0  0
 42 43  1  6  0  0  0
 44 47  1  0  0  0  0
 45 46  1  0  0  0  0
 47 48  1  0  0  0  0
 48 49  1  0  0  0  0
 49  7  1  0  0  0  0
M  END
>  <CHROM.1>
-112.83935925,145.17694545,-65.85888086,48.59778519,102.51356380,-35.78168498
-84.25082756,120.46196576,14.19970204,67.71670794,-90.49524473,39.55877596
177.40457428,149.04439772,-88.11698092,60.06882423,27.43889514,24.70041659
6.29488792,-1.73501201,-0.50985881,-1.87560664

>  <Name>
2bee_lig

>  <RI>
0

>  <Rbt.Current_Directory>
/home/itssahil/PROJECTS/Mol_Feturizer/New_Systems/rnas/2bee

>  <Rbt.Executable>
rbdock ($Id: //depot/dev/client3/rdock/2013.1/src/exe/rbdock.cxx#4 $)

>  <Rbt.Library>
libRbt.so (2013.1, Build901 2013/11/27)

>  <Rbt.Parameter_File>
/export/apps/rDock/src/rDock_2013.1_src/data/scripts/dock_solv.prm

>  <Rbt.Receptor>
prm/blind_docking_80.prm

>  <SCORE>
18.0323

>  <SCORE.INTER>
-4.72041

>  <SCORE.INTER.CONST>
1

>  <SCORE.INTER.POLAR>
-0.821754

>  <SCORE.INTER.ROT>
16

>  <SCORE.INTER.SOLV>
35.3683

>  <SCORE.INTER.VDW>
-26.4639

>  <SCORE.INTER.norm>
-0.096335

>  <SCORE.INTRA>
14.8827

>  <SCORE.INTRA.DIHEDRAL>
6.23845

>  <SCORE.INTRA.DIHEDRAL.0>
36.0842

>  <SCORE.INTRA.POLAR>
0

>  <SCORE.INTRA.POLAR.0>
0

>  <SCORE.INTRA.REPUL>
0

>  <SCORE.INTRA.REPUL.0>
0

>  <SCORE.INTRA.SOLV>
9.52391

>  <SCORE.INTRA.SOLV.lig_0>
-126.444

>  <SCORE.INTRA.VDW>
7.00153

>  <SCORE.INTRA.VDW.0>
-7.40469

>  <SCORE.INTRA.norm>
0.303729

>  <SCORE.RESTR>
7.87002

>  <SCORE.RESTR.CAVITY>
7.87002

>  <SCORE.RESTR.norm>
0.160613

>  <SCORE.SYSTEM>
0

>  <SCORE.SYSTEM.CONST>
0

>  <SCORE.SYSTEM.DIHEDRAL>
0

>  <SCORE.SYSTEM.SOLV>
0

>  <SCORE.SYSTEM.norm>
0

>  <SCORE.heavy>
49

>  <SCORE.norm>
0.368006

>  <RMSD>
29.214

$$$$
2bee_lig
 OpenBabel11021811423D
libRbt.so/2013.1/901 2013/11/27
 49 52  0  0  0  0  0  0  0  0999 V2000
   26.8841   23.8547    2.2499 C   0  0  2  0  0  0  0  0  0  0  0  0
   26.2053   22.6249    2.4714 O   0  0  0  0  0  0  0  0  0  0  0  0
   25.2371   20.6031    6.2594 C   0  0  2  0  0  0  0  0  0  0  0  0
   25.4256   19.8104    7.5048 N   0  0  0  0  0  0  0  0  0  0  0  0
   26.5902   25.0674    5.5460 C   0  0  1  0  0  0  0  0  0  0  0  0
   24.9391   24.9010    9.7194 C   0  0  1  0  0  0  0  0  0  0  0  0
   25.1587   32.1611    7.1662 C   0  0  0  0  0  0  0  0  0  0  0  0
   26.3489   24.5471    0.9372 C   0  0  2  0  0  0  0  0  0  0  0  0
   24.9000   24.7018    1.0085 N   0  0  0  0  0  0  0  0  0  0  0  0
   25.7198   19.7409    5.0058 C   0  0  0  0  0  0  0  0  0  0  0  0
   25.8323   26.2214    6.1174 C   0  0  2  0  0  0  0  0  0  0  0  0
   26.2908   27.5223    5.6001 O   0  0  0  0  0  0  0  0  0  0  0  0
   23.7259   24.1387    8.9590 C   0  0  2  0  0  0  0  0  0  0  0  0
   22.6759   25.1562    8.6194 N   0  0  0  0  0  0  0  0  0  0  0  0
   26.4280   31.9688    6.5722 C   0  0  0  0  0  0  0  0  0  0  0  0
   27.3565   33.0072    6.5666 N   0  0  0  0  0  0  0  0  0  0  0  0
   26.7846   23.6847   -0.3271 C   0  0  1  0  0  0  0  0  0  0  0  0
   26.3028   24.3178   -1.5035 O   0  0  0  0  0  0  0  0  0  0  0  0
   25.5409   20.5837    3.6168 C   0  0  2  0  0  0  0  0  0  0  0  0
   25.9605   19.8195    2.4916 N   0  0  0  0  0  0  0  0  0  0  0  0
   26.0009   25.8380    7.5677 C   0  0  2  0  0  0  0  0  0  0  0  0
   25.3813   25.9228    8.7940 O   0  0  0  0  0  0  0  0  0  0  0  0
   23.1472   23.0420    9.9225 C   0  0  1  0  0  0  0  0  0  0  0  0
   24.2269   22.0814   10.1929 O   0  0  0  0  0  0  0  0  0  0  0  0
   28.3260   23.5621   -0.3483 C   0  0  2  0  0  0  0  0  0  0  0  0
   28.7756   22.7492   -1.5071 O   0  0  0  0  0  0  0  0  0  0  0  0
   26.3762   21.9209    3.6909 C   0  0  2  0  0  0  0  0  0  0  0  0
   27.4852   25.2192    7.6024 C   0  0  2  0  0  0  0  0  0  0  0  0
   27.5305   24.5350    6.4346 O   0  0  0  0  0  0  0  0  0  0  0  0
   22.6216   23.7563   11.2926 C   0  0  2  0  0  0  0  0  0  0  0  0
   21.5370   24.7226   11.0076 O   0  0  0  0  0  0  0  0  0  0  0  0
   28.8449   22.8794    0.9611 C   0  0  2  0  0  0  0  0  0  0  0  0
   28.3628   23.7168    2.0431 O   0  0  0  0  0  0  0  0  0  0  0  0
   25.8673   22.7246    4.9349 C   0  0  2  0  0  0  0  0  0  0  0  0
   26.6525   23.8914    4.8912 O   0  0  0  0  0  0  0  0  0  0  0  0
   27.8255   24.1813    8.7351 C   0  0  0  0  0  0  0  0  0  0  0  0
   27.9213   24.8765   10.0184 O   0  0  0  0  0  0  0  0  0  0  0  0
   23.8194   24.5356   11.9977 C   0  0  1  0  0  0  0  0  0  0  0  0
   24.3517   25.5325   10.9894 O   0  0  0  0  0  0  0  0  0  0  0  0
   30.3158   22.8267    0.8643 C   0  0  0  0  0  0  0  0  0  0  0  0
   30.8262   22.1082    1.8735 O   0  0  0  0  0  0  0  0  0  0  0  0
   26.0827   21.8960    6.2726 C   0  0  1  0  0  0  0  0  0  0  0  0
   25.6179   22.6182    7.3719 O   0  0  0  0  0  0  0  0  0  0  0  0
   25.7814   28.8339    6.0325 C   0  0  0  0  0  0  0  0  0  0  0  0
   23.1972   25.1915   13.2766 C   0  0  0  0  0  0  0  0  0  0  0  0
   22.7961   24.2276   14.2608 N   0  0  0  0  0  0  0  0  0  0  0  0
   24.2523   28.8085    6.0255 C   0  0  0  0  0  0  0  0  0  0  0  0
   23.8027   30.1873    6.2991 N   0  0  0  0  0  0  0  0  0  0  0  0
   24.3057   30.8716    7.5718 C   0  0  0  0  0  0  0  0  0  0  0  0
  1  2  1  6  0  0  0
  1  8  1  0  0  0  0
  1 33  1  0  0  0  0
  3  4  1  1  0  0  0
  3 10  1  0  0  0  0
  3 42  1  0  0  0  0
  5 11  1  0  0  0  0
  5 29  1  0  0  0  0
  5 35  1  1  0  0  0
  6 13  1  0  0  0  0
  6 39  1  0  0  0  0
  6 22  1  6  0  0  0
  7 15  1  0  0  0  0
  8  9  1  1  0  0  0
  8 17  1  0  0  0  0
 10 19  1  0  0  0  0
 11 12  1  1  0  0  0
 11 21  1  0  0  0  0
 12 44  1  0  0  0  0
 13 14  1  1  0  0  0
 13 23  1  0  0  0  0
 15 16  1  0  0  0  0
 17 18  1  6  0  0  0
 17 25  1  0  0  0  0
 19 20  1  6  0  0  0
 19 27  1  0  0  0  0
 21 22  1  1  0  0  0
 21 28  1  0  0  0  0
 23 24  1  1  0  0  0
 23 30  1  0  0  0  0
 25 26  1  6  0  0  0
 25 32  1  0  0  0  0
 27  2  1  6  0  0  0
 27 34  1  0  0  0  0
 28 29  1  0  0  0  0
 28 36  1  1  0  0  0
 30 31  1  6  0  0  0
 30 38  1  0  0  0  0
 32 33  1  0  0  0  0
 32 40  1  6  0  0  0
 34 35  1  1  0  0  0
 34 42  1  0  0  0  0
 36 37  1  0  0  0  0
 38 39  1  0  0  0  0
 38 45  1  1  0  0  0
 40 41  1  0  0  0  0
 42 43  1  1  0  0  0
 44 47  1  0  0  0  0
 45 46  1  0  0  0  0
 47 48  1  0  0  0  0
 48 49  1  0  0  0  0
 49  7  1  0  0  0  0
M  END
>  <CHROM.1>
-170.71523533,-41.19854264,-66.95162673,-160.99591520,-176.63871934,-48.21055125
120.82478390,-178.10767337,-71.87046807,-172.43640194,168.73838120,67.50490301
-173.01435167,-55.68121154,117.93712033,-71.06830296,25.86788123,24.65235932
5.98790624,-0.32166102,1.19847443,0.02267130

>  <Name>
2bee_lig

>  <RI>
0

>  <Rbt.Current_Directory>
/home/itssahil/PROJECTS/Mol_Feturizer/New_Systems/rnas/2bee

>  <Rbt.Executable>
rbdock ($Id: //depot/dev/client3/rdock/2013.1/src/exe/rbdock.cxx#4 $)

>  <Rbt.Library>
libRbt.so (2013.1, Build901 2013/11/27)

>  <Rbt.Parameter_File>
/export/apps/rDock/src/rDock_2013.1_src/data/scripts/dock_solv.prm

>  <Rbt.Receptor>
prm/blind_docking_80.prm

>  <SCORE>
12.1975

>  <SCORE.INTER>
6.83493

>  <SCORE.INTER.CONST>
1

>  <SCORE.INTER.POLAR>
-0.12084

>  <SCORE.INTER.ROT>
16

>  <SCORE.INTER.SOLV>
35.0278

>  <SCORE.INTER.VDW>
-20.9832

>  <SCORE.INTER.norm>
0.139488

>  <SCORE.INTRA>
-10.6158

>  <SCORE.INTRA.DIHEDRAL>
-25.0835

>  <SCORE.INTRA.DIHEDRAL.0>
36.0842

>  <SCORE.INTRA.POLAR>
0

>  <SCORE.INTRA.POLAR.0>
0

>  <SCORE.INTRA.REPUL>
0

>  <SCORE.INTRA.REPUL.0>
0

>  <SCORE.INTRA.SOLV>
-1.88967

>  <SCORE.INTRA.SOLV.lig_0>
-126.444

>  <SCORE.INTRA.VDW>
2.87081

>  <SCORE.INTRA.VDW.0>
-7.40469

>  <SCORE.INTRA.norm>
-0.216649

>  <SCORE.RESTR>
15.9783

>  <SCORE.RESTR.CAVITY>
15.9783

>  <SCORE.RESTR.norm>
0.326088

>  <SCORE.SYSTEM>
0

>  <SCORE.SYSTEM.CONST>
0

>  <SCORE.SYSTEM.DIHEDRAL>
0

>  <SCORE.SYSTEM.SOLV>
0

>  <SCORE.SYSTEM.norm>
0

>  <SCORE.heavy>
49

>  <SCORE.norm>
0.248928

>  <RMSD>
29.216

$$$$
2bee_lig
 OpenBabel11021811423D
libRbt.so/2013.1/901 2013/11/27
 49 52  0  0  0  0  0  0  0  0999 V2000
   24.3648   27.5854    5.7195 C   0  0  2  0  0  0  0  0  0  0  0  0
   25.7499   27.3029    5.8738 O   0  0  0  0  0  0  0  0  0  0  0  0
   28.5731   25.8548    8.9245 C   0  0  2  0  0  0  0  0  0  0  0  0
   29.0749   25.3397   10.2275 N   0  0  0  0  0  0  0  0  0  0  0  0
   26.1772   23.3090    5.8456 C   0  0  1  0  0  0  0  0  0  0  0  0
   26.2361   22.6613    1.3844 C   0  0  1  0  0  0  0  0  0  0  0  0
   23.2442   23.4176   10.0509 C   0  0  0  0  0  0  0  0  0  0  0  0
   24.1444   29.1277    5.4711 C   0  0  2  0  0  0  0  0  0  0  0  0
   24.9455   29.5707    4.3351 N   0  0  0  0  0  0  0  0  0  0  0  0
   27.7843   27.2215    9.1648 C   0  0  0  0  0  0  0  0  0  0  0  0
   25.5555   22.0854    5.2549 C   0  0  2  0  0  0  0  0  0  0  0  0
   25.6878   20.8996    6.1190 O   0  0  0  0  0  0  0  0  0  0  0  0
   25.3760   21.8915    0.2448 C   0  0  2  0  0  0  0  0  0  0  0  0
   25.9035   20.4910    0.1288 N   0  0  0  0  0  0  0  0  0  0  0  0
   23.0565   22.0316   10.2621 C   0  0  0  0  0  0  0  0  0  0  0  0
   22.6983   21.2091    9.1963 N   0  0  0  0  0  0  0  0  0  0  0  0
   24.5107   29.9309    6.7950 C   0  0  1  0  0  0  0  0  0  0  0  0
   24.3049   31.3169    6.5635 O   0  0  0  0  0  0  0  0  0  0  0  0
   27.2046   27.8138    7.7561 C   0  0  2  0  0  0  0  0  0  0  0  0
   26.5070   29.0380    7.9588 N   0  0  0  0  0  0  0  0  0  0  0  0
   26.2425   22.1726    3.9135 C   0  0  2  0  0  0  0  0  0  0  0  0
   26.0724   21.8653    2.5825 O   0  0  0  0  0  0  0  0  0  0  0  0
   25.5453   22.6642   -1.1118 C   0  0  1  0  0  0  0  0  0  0  0  0
   24.9941   24.0136   -0.9200 O   0  0  0  0  0  0  0  0  0  0  0  0
   23.6272   29.4199    7.9568 C   0  0  2  0  0  0  0  0  0  0  0  0
   23.9483   30.1343    9.2187 O   0  0  0  0  0  0  0  0  0  0  0  0
   26.2398   26.7581    7.0883 C   0  0  2  0  0  0  0  0  0  0  0  0
   27.7006   22.7340    4.2958 C   0  0  2  0  0  0  0  0  0  0  0  0
   27.4090   23.6324    5.2664 O   0  0  0  0  0  0  0  0  0  0  0  0
   27.1282   22.7123   -1.5065 C   0  0  2  0  0  0  0  0  0  0  0  0
   27.6724   21.3485   -1.6944 O   0  0  0  0  0  0  0  0  0  0  0  0
   23.8502   27.8883    8.1894 C   0  0  2  0  0  0  0  0  0  0  0  0
   23.5293   27.2606    6.9215 O   0  0  0  0  0  0  0  0  0  0  0  0
   27.0589   25.4399    6.8782 C   0  0  2  0  0  0  0  0  0  0  0  0
   26.1218   24.5884    6.2645 O   0  0  0  0  0  0  0  0  0  0  0  0
   28.5008   23.5206    3.1928 C   0  0  0  0  0  0  0  0  0  0  0  0
   27.7492   24.7141    2.8054 O   0  0  0  0  0  0  0  0  0  0  0  0
   27.9584   23.4322   -0.3526 C   0  0  1  0  0  0  0  0  0  0  0  0
   27.7007   22.6598    0.9244 O   0  0  0  0  0  0  0  0  0  0  0  0
   22.9560   27.4864    9.2914 C   0  0  0  0  0  0  0  0  0  0  0  0
   21.6737   27.6081    8.9223 O   0  0  0  0  0  0  0  0  0  0  0  0
   27.5821   24.8699    8.2652 C   0  0  1  0  0  0  0  0  0  0  0  0
   28.3171   23.7012    8.0642 O   0  0  0  0  0  0  0  0  0  0  0  0
   24.9495   20.6778    7.3730 C   0  0  0  0  0  0  0  0  0  0  0  0
   29.4505   23.4007   -0.8278 C   0  0  0  0  0  0  0  0  0  0  0  0
   30.2823   24.3321   -0.1211 N   0  0  0  0  0  0  0  0  0  0  0  0
   25.4662   21.6437    8.4403 C   0  0  0  0  0  0  0  0  0  0  0  0
   24.8711   22.9616    8.1451 N   0  0  0  0  0  0  0  0  0  0  0  0
   24.5794   23.9010    9.3171 C   0  0  0  0  0  0  0  0  0  0  0  0
  1  2  1  1  0  0  0
  1  8  1  0  0  0  0
  1 33  1  0  0  0  0
  3  4  1  1  0  0  0
  3 10  1  0  0  0  0
  3 42  1  0  0  0  0
  5 11  1  0  0  0  0
  5 29  1  0  0  0  0
  5 35  1  6  0  0  0
  6 13  1  0  0  0  0
  6 39  1  0  0  0  0
  6 22  1  1  0  0  0
  7 15  1  0  0  0  0
  8  9  1  6  0  0  0
  8 17  1  0  0  0  0
 10 19  1  0  0  0  0
 11 12  1  1  0  0  0
 11 21  1  0  0  0  0
 12 44  1  0  0  0  0
 13 14  1  6  0  0  0
 13 23  1  0  0  0  0
 15 16  1  0  0  0  0
 17 18  1  6  0  0  0
 17 25  1  0  0  0  0
 19 20  1  1  0  0  0
 19 27  1  0  0  0  0
 21 22  1  1  0  0  0
 21 28  1  0  0  0  0
 23 24  1  1  0  0  0
 23 30  1  0  0  0  0
 25 26  1  1  0  0  0
 25 32  1  0  0  0  0
 27  2  1  6  0  0  0
 27 34  1  0  0  0  0
 28 29  1  0  0  0  0
 28 36  1  6  0  0  0
 30 31  1  1  0  0  0
 30 38  1  0  0  0  0
 32 33  1  0  0  0  0
 32 40  1  1  0  0  0
 34 35  1  1  0  0  0
 34 42  1  0  0  0  0
 36 37  1  0  0  0  0
 38 39  1  0  0  0  0
 38 45  1  6  0  0  0
 40 41  1  0  0  0  0
 42 43  1  6  0  0  0
 44 47  1  0  0  0  0
 45 46  1  0  0  0  0
 47 48  1  0  0  0  0
 48 49  1  0  0  0  0
 49  7  1  0  0  0  0
M  END
>  <CHROM.1>
118.24997731,176.91565366,-159.79670726,-75.18529751,72.27336832,-70.41754266
129.93447967,-115.19574083,61.31922560,65.75761380,-178.62775390,162.80934284
77.36089046,148.76694090,-77.63169684,42.15158930,25.91458428,24.80943557
5.38118425,-2.93201341,-1.30535697,2.83603972

>  <Name>
2bee_lig

>  <RI>
0

>  <Rbt.Current_Directory>
/home/itssahil/PROJECTS/Mol_Feturizer/New_Systems/rnas/2bee

>  <Rbt.Executable>
rbdock ($Id: //depot/dev/client3/rdock/2013.1/src/exe/rbdock.cxx#4 $)

>  <Rbt.Library>
libRbt.so (2013.1, Build901 2013/11/27)

>  <Rbt.Parameter_File>
/export/apps/rDock/src/rDock_2013.1_src/data/scripts/dock_solv.prm

>  <Rbt.Receptor>
prm/blind_docking_80.prm

>  <SCORE>
34.6387

>  <SCORE.INTER>
10.5711

>  <SCORE.INTER.CONST>
1

>  <SCORE.INTER.POLAR>
-0.476878

>  <SCORE.INTER.ROT>
16

>  <SCORE.INTER.SOLV>
22.9004

>  <SCORE.INTER.VDW>
-13.2631

>  <SCORE.INTER.norm>
0.215737

>  <SCORE.INTRA>
10.1111

>  <SCORE.INTRA.DIHEDRAL>
-9.84864

>  <SCORE.INTRA.DIHEDRAL.0>
36.0842

>  <SCORE.INTRA.POLAR>
0

>  <SCORE.INTRA.POLAR.0>
0

>  <SCORE.INTRA.REPUL>
0

>  <SCORE.INTRA.REPUL.0>
0

>  <SCORE.INTRA.SOLV>
11.1405

>  <SCORE.INTRA.SOLV.lig_0>
-126.444

>  <SCORE.INTRA.VDW>
9.4652

>  <SCORE.INTRA.VDW.0>
-7.40469

>  <SCORE.INTRA.norm>
0.20635

>  <SCORE.RESTR>
13.9564

>  <SCORE.RESTR.CAVITY>
13.9564

>  <SCORE.RESTR.norm>
0.284825

>  <SCORE.SYSTEM>
0

>  <SCORE.SYSTEM.CONST>
0

>  <SCORE.SYSTEM.DIHEDRAL>
0

>  <SCORE.SYSTEM.SOLV>
0

>  <SCORE.SYSTEM.norm>
0

>  <SCORE.heavy>
49

>  <SCORE.norm>
0.706911

>  <RMSD>
29.351

$$$$
2bee_lig
 OpenBabel11021811423D
libRbt.so/2013.1/901 2013/11/27
 49 52  0  0  0  0  0  0  0  0999 V2000
   25.5404   25.6459    8.0513 C   0  0  2  0  0  0  0  0  0  0  0  0
   24.8941   26.7634    8.6478 O   0  0  0  0  0  0  0  0  0  0  0  0
   23.3573   30.3056    6.5347 C   0  0  2  0  0  0  0  0  0  0  0  0
   23.3397   31.6497    5.8961 N   0  0  0  0  0  0  0  0  0  0  0  0
   25.1150   26.0942    4.9517 C   0  0  1  0  0  0  0  0  0  0  0  0
   28.0354   23.3569    2.3148 C   0  0  1  0  0  0  0  0  0  0  0  0
   24.3940   19.3650    5.7496 C   0  0  0  0  0  0  0  0  0  0  0  0
   25.4230   24.3812    8.9871 C   0  0  2  0  0  0  0  0  0  0  0  0
   24.0230   24.1245    9.3075 N   0  0  0  0  0  0  0  0  0  0  0  0
   23.8610   30.4435    8.0431 C   0  0  0  0  0  0  0  0  0  0  0  0
   25.0908   25.6710    3.5189 C   0  0  2  0  0  0  0  0  0  0  0  0
   23.8425   24.9843    3.1439 O   0  0  0  0  0  0  0  0  0  0  0  0
   29.3409   23.7202    1.4235 C   0  0  2  0  0  0  0  0  0  0  0  0
   28.8991   24.5883    0.2814 N   0  0  0  0  0  0  0  0  0  0  0  0
   23.0789   18.8444    5.7302 C   0  0  0  0  0  0  0  0  0  0  0  0
   22.1597   19.2439    6.6977 N   0  0  0  0  0  0  0  0  0  0  0  0
   26.2909   24.6164   10.2999 C   0  0  1  0  0  0  0  0  0  0  0  0
   26.1829   23.4716   11.1334 O   0  0  0  0  0  0  0  0  0  0  0  0
   23.9071   28.9835    8.7765 C   0  0  2  0  0  0  0  0  0  0  0  0
   24.3467   29.0972   10.1257 N   0  0  0  0  0  0  0  0  0  0  0  0
   26.4202   24.9559    3.5272 C   0  0  2  0  0  0  0  0  0  0  0  0
   27.4873   24.6344    2.7191 O   0  0  0  0  0  0  0  0  0  0  0  0
   29.9693   22.3818    0.8945 C   0  0  1  0  0  0  0  0  0  0  0  0
   30.3876   21.5998    2.0672 O   0  0  0  0  0  0  0  0  0  0  0  0
   27.7602   24.8771    9.8942 C   0  0  2  0  0  0  0  0  0  0  0  0
   28.6045   25.1177   11.0923 O   0  0  0  0  0  0  0  0  0  0  0  0
   24.8712   28.0169    7.9844 C   0  0  2  0  0  0  0  0  0  0  0  0
   26.4589   24.2927    4.9923 C   0  0  2  0  0  0  0  0  0  0  0  0
   25.9068   25.2663    5.7547 O   0  0  0  0  0  0  0  0  0  0  0  0
   28.8578   21.5833    0.0053 C   0  0  2  0  0  0  0  0  0  0  0  0
   28.4426   22.3811   -1.1705 O   0  0  0  0  0  0  0  0  0  0  0  0
   27.8629   26.1300    8.9617 C   0  0  2  0  0  0  0  0  0  0  0  0
   27.0115   25.8294    7.8263 O   0  0  0  0  0  0  0  0  0  0  0  0
   24.3362   27.9195    6.5158 C   0  0  2  0  0  0  0  0  0  0  0  0
   25.2435   27.0274    5.9150 O   0  0  0  0  0  0  0  0  0  0  0  0
   27.8659   23.9821    5.6245 C   0  0  0  0  0  0  0  0  0  0  0  0
   27.6829   23.3649    6.9379 O   0  0  0  0  0  0  0  0  0  0  0  0
   27.5673   21.2773    0.8887 C   0  0  1  0  0  0  0  0  0  0  0  0
   27.0563   22.6083    1.3996 O   0  0  0  0  0  0  0  0  0  0  0  0
   29.2863   26.2871    8.6085 C   0  0  0  0  0  0  0  0  0  0  0  0
   29.5679   27.5732    8.3595 O   0  0  0  0  0  0  0  0  0  0  0  0
   24.3326   29.3459    5.8174 C   0  0  1  0  0  0  0  0  0  0  0  0
   23.8462   29.2475    4.5136 O   0  0  0  0  0  0  0  0  0  0  0  0
   23.5738   23.5496    3.3348 C   0  0  0  0  0  0  0  0  0  0  0  0
   26.5721   20.5354   -0.0663 C   0  0  0  0  0  0  0  0  0  0  0  0
   25.3550   20.1468    0.5866 N   0  0  0  0  0  0  0  0  0  0  0  0
   23.9869   23.1430    4.7501 C   0  0  0  0  0  0  0  0  0  0  0  0
   23.8470   21.6760    4.8290 N   0  0  0  0  0  0  0  0  0  0  0  0
   24.5857   20.9394    5.9485 C   0  0  0  0  0  0  0  0  0  0  0  0
  1  2  1  1  0  0  0
  1  8  1  0  0  0  0
  1 33  1  0  0  0  0
  3  4  1  6  0  0  0
  3 10  1  0  0  0  0
  3 42  1  0  0  0  0
  5 11  1  0  0  0  0
  5 29  1  0  0  0  0
  5 35  1  6  0  0  0
  6 13  1  0  0  0  0
  6 39  1  0  0  0  0
  6 22  1  6  0  0  0
  7 15  1  0  0  0  0
  8  9  1  1  0  0  0
  8 17  1  0  0  0  0
 10 19  1  0  0  0  0
 11 12  1  1  0  0  0
 11 21  1  0  0  0  0
 12 44  1  0  0  0  0
 13 14  1  6  0  0  0
 13 23  1  0  0  0  0
 15 16  1  0  0  0  0
 17 18  1  1  0  0  0
 17 25  1  0  0  0  0
 19 20  1  1  0  0  0
 19 27  1  0  0  0  0
 21 22  1  6  0  0  0
 21 28  1  0  0  0  0
 23 24  1  1  0  0  0
 23 30  1  0  0  0  0
 25 26  1  1  0  0  0
 25 32  1  0  0  0  0
 27  2  1  1  0  0  0
 27 34  1  0  0  0  0
 28 29  1  0  0  0  0
 28 36  1  1  0  0  0
 30 31  1  6  0  0  0
 30 38  1  0  0  0  0
 32 33  1  0  0  0  0
 32 40  1  6  0  0  0
 34 35  1  6  0  0  0
 34 42  1  0  0  0  0
 36 37  1  0  0  0  0
 38 39  1  0  0  0  0
 38 45  1  6  0  0  0
 40 41  1  0  0  0  0
 42 43  1  6  0  0  0
 44 47  1  0  0  0  0
 45 46  1  0  0  0  0
 47 48  1  0  0  0  0
 48 49  1  0  0  0  0
 49  7  1  0  0  0  0
M  END
>  <CHROM.1>
-179.99449179,85.87841249,-176.94994311,-46.30201346,-84.67419203,46.57801214
-119.47809322,171.47076583,-178.99584682,-151.94605575,146.78195079,178.31573137
-173.39819715,161.24180423,-174.84307345,-58.35753081,26.06297301,24.70589011
5.47636502,2.68067834,1.33540288,-0.22025501

>  <Name>
2bee_lig

>  <RI>
0

>  <Rbt.Current_Directory>
/home/itssahil/PROJECTS/Mol_Feturizer/New_Systems/rnas/2bee

>  <Rbt.Executable>
rbdock ($Id: //depot/dev/client3/rdock/2013.1/src/exe/rbdock.cxx#4 $)

>  <Rbt.Library>
libRbt.so (2013.1, Build901 2013/11/27)

>  <Rbt.Parameter_File>
/export/apps/rDock/src/rDock_2013.1_src/data/scripts/dock_solv.prm

>  <Rbt.Receptor>
prm/blind_docking_80.prm

>  <SCORE>
29.3061

>  <SCORE.INTER>
10.3538

>  <SCORE.INTER.CONST>
1

>  <SCORE.INTER.POLAR>
-0.623332

>  <SCORE.INTER.ROT>
16

>  <SCORE.INTER.SOLV>
23.0716

>  <SCORE.INTER.VDW>
-12.9769

>  <SCORE.INTER.norm>
0.211303

>  <SCORE.INTRA>
0.809306

>  <SCORE.INTRA.DIHEDRAL>
-18.7271

>  <SCORE.INTRA.DIHEDRAL.0>
36.0842

>  <SCORE.INTRA.POLAR>
0

>  <SCORE.INTRA.POLAR.0>
0

>  <SCORE.INTRA.REPUL>
0.247128

>  <SCORE.INTRA.REPUL.0>
0

>  <SCORE.INTRA.SOLV>
-1.56609

>  <SCORE.INTRA.SOLV.lig_0>
-126.444

>  <SCORE.INTRA.VDW>
9.72025

>  <SCORE.INTRA.VDW.0>
-7.40469

>  <SCORE.INTRA.norm>
0.0165164

>  <SCORE.RESTR>
18.143

>  <SCORE.RESTR.CAVITY>
18.143

>  <SCORE.RESTR.norm>
0.370266

>  <SCORE.SYSTEM>
0

>  <SCORE.SYSTEM.CONST>
0

>  <SCORE.SYSTEM.DIHEDRAL>
0

>  <SCORE.SYSTEM.SOLV>
0

>  <SCORE.SYSTEM.norm>
0

>  <SCORE.heavy>
49

>  <SCORE.norm>
0.598085

>  <RMSD>
29.426

$$$$
2bee_lig
 OpenBabel11021811423D
libRbt.so/2013.1/901 2013/11/27
 49 52  0  0  0  0  0  0  0  0999 V2000
   25.8225   24.4581    9.4812 C   0  0  2  0  0  0  0  0  0  0  0  0
   26.8378   23.8116   10.2386 O   0  0  0  0  0  0  0  0  0  0  0  0
   30.6352   25.9546    9.6378 C   0  0  2  0  0  0  0  0  0  0  0  0
   32.0863   26.1794    9.3957 N   0  0  0  0  0  0  0  0  0  0  0  0
   27.0474   24.7144    6.6251 C   0  0  1  0  0  0  0  0  0  0  0  0
   27.9361   23.5853    2.1909 C   0  0  1  0  0  0  0  0  0  0  0  0
   25.4559   31.6658    7.0648 C   0  0  0  0  0  0  0  0  0  0  0  0
   24.4749   24.5063   10.3000 C   0  0  2  0  0  0  0  0  0  0  0  0
   24.7009   25.1314   11.5988 N   0  0  0  0  0  0  0  0  0  0  0  0
   30.4516   25.0182   10.9174 C   0  0  0  0  0  0  0  0  0  0  0  0
   26.7717   25.6460    5.4899 C   0  0  2  0  0  0  0  0  0  0  0  0
   25.4233   26.2367    5.5461 O   0  0  0  0  0  0  0  0  0  0  0  0
   29.5230   23.6283    1.8581 C   0  0  2  0  0  0  0  0  0  0  0  0
   29.8463   24.9843    1.3015 N   0  0  0  0  0  0  0  0  0  0  0  0
   25.9924   32.9534    6.8299 C   0  0  0  0  0  0  0  0  0  0  0  0
   25.6496   33.6477    5.6719 N   0  0  0  0  0  0  0  0  0  0  0  0
   23.8993   23.0307   10.4523 C   0  0  1  0  0  0  0  0  0  0  0  0
   22.6845   23.0846   11.1861 O   0  0  0  0  0  0  0  0  0  0  0  0
   28.8683   24.7362   11.2092 C   0  0  2  0  0  0  0  0  0  0  0  0
   28.6937   23.9090   12.3544 N   0  0  0  0  0  0  0  0  0  0  0  0
   27.1803   24.7001    4.3867 C   0  0  2  0  0  0  0  0  0  0  0  0
   27.7157   24.6746    3.1187 O   0  0  0  0  0  0  0  0  0  0  0  0
   29.8406   22.5052    0.8074 C   0  0  1  0  0  0  0  0  0  0  0  0
   29.5129   21.2149    1.4314 O   0  0  0  0  0  0  0  0  0  0  0  0
   23.6776   22.4272    9.0459 C   0  0  2  0  0  0  0  0  0  0  0  0
   23.1540   21.0406    9.1423 O   0  0  0  0  0  0  0  0  0  0  0  0
   28.2067   24.0481    9.9523 C   0  0  2  0  0  0  0  0  0  0  0  0
   26.6839   23.2731    4.9388 C   0  0  2  0  0  0  0  0  0  0  0  0
   26.9763   23.3663    6.2579 O   0  0  0  0  0  0  0  0  0  0  0  0
   28.9537   22.7644   -0.5379 C   0  0  2  0  0  0  0  0  0  0  0  0
   29.2903   24.0668   -1.1557 O   0  0  0  0  0  0  0  0  0  0  0  0
   25.0199   22.3902    8.2417 C   0  0  2  0  0  0  0  0  0  0  0  0
   25.4741   23.7672    8.1969 O   0  0  0  0  0  0  0  0  0  0  0  0
   28.4172   25.0027    8.7287 C   0  0  2  0  0  0  0  0  0  0  0  0
   27.7770   24.3113    7.6837 O   0  0  0  0  0  0  0  0  0  0  0  0
   27.4172   21.9835    4.4146 C   0  0  0  0  0  0  0  0  0  0  0  0
   27.0109   20.8321    5.2200 O   0  0  0  0  0  0  0  0  0  0  0  0
   27.4012   22.7626   -0.1786 C   0  0  1  0  0  0  0  0  0  0  0  0
   27.1900   23.8325    0.8722 O   0  0  0  0  0  0  0  0  0  0  0  0
   24.7101   21.8261    6.9144 C   0  0  0  0  0  0  0  0  0  0  0  0
   24.7813   20.4885    6.9458 O   0  0  0  0  0  0  0  0  0  0  0  0
   29.9634   25.2331    8.4483 C   0  0  1  0  0  0  0  0  0  0  0  0
   30.1378   26.0914    7.3624 O   0  0  0  0  0  0  0  0  0  0  0  0
   24.8261   26.8752    6.7304 C   0  0  0  0  0  0  0  0  0  0  0  0
   26.6582   23.0390   -1.5294 C   0  0  0  0  0  0  0  0  0  0  0  0
   26.0460   24.3358   -1.5759 N   0  0  0  0  0  0  0  0  0  0  0  0
   24.4826   28.3286    6.4005 C   0  0  0  0  0  0  0  0  0  0  0  0
   25.6509   29.1410    6.7917 N   0  0  0  0  0  0  0  0  0  0  0  0
   25.8720   30.4775    6.0801 C   0  0  0  0  0  0  0  0  0  0  0  0
  1  2  1  1  0  0  0
  1  8  1  0  0  0  0
  1 33  1  0  0  0  0
  3  4  1  6  0  0  0
  3 10  1  0  0  0  0
  3 42  1  0  0  0  0
  5 11  1  0  0  0  0
  5 29  1  0  0  0  0
  5 35  1  6  0  0  0
  6 13  1  0  0  0  0
  6 39  1  0  0  0  0
  6 22  1  1  0  0  0
  7 15  1  0  0  0  0
  8  9  1  1  0  0  0
  8 17  1  0  0  0  0
 10 19  1  0  0  0  0
 11 12  1  6  0  0  0
 11 21  1  0  0  0  0
 12 44  1  0  0  0  0
 13 14  1  6  0  0  0
 13 23  1  0  0  0  0
 15 16  1  0  0  0  0
 17 18  1  6  0  0  0
 17 25  1  0  0  0  0
 19 20  1  1  0  0  0
 19 27  1  0  0  0  0
 21 22  1  6  0  0  0
 21 28  1  0  0  0  0
 23 24  1  1  0  0  0
 23 30  1  0  0  0  0
 25 26  1  1  0  0  0
 25 32  1  0  0  0  0
 27  2  1  1  0  0  0
 27 34  1  0  0  0  0
 28 29  1  0  0  0  0
 28 36  1  6  0  0  0
 30 31  1  1  0  0  0
 30 38  1  0  0  0  0
 32 33  1  0  0  0  0
 32 40  1  6  0  0  0
 34 35  1  6  0  0  0
 34 42  1  0  0  0  0
 36 37  1  0  0  0  0
 38 39  1  0  0  0  0
 38 45  1  6  0  0  0
 40 41  1  0  0  0  0
 42 43  1  6  0  0  0
 44 47  1  0  0  0  0
 45 46  1  0  0  0  0
 47 48  1  0  0  0  0
 48 49  1  0  0  0  0
 49  7  1  0  0  0  0
M  END
>  <CHROM.1>
-157.69565294,40.25642019,-123.25826023,65.63419727,49.34532556,120.21359215
-174.88685771,116.50255076,168.80851512,-87.14095121,143.56804864,-109.97480117
-92.27185930,154.47335782,104.80339497,158.20597121,26.97438544,24.69380172
6.15519427,2.84975058,1.36920359,0.10692404

>  <Name>
2bee_lig

>  <RI>
0

>  <Rbt.Current_Directory>
/home/itssahil/PROJECTS/Mol_Feturizer/New_Systems/rnas/2bee

>  <Rbt.Executable>
rbdock ($Id: //depot/dev/client3/rdock/2013.1/src/exe/rbdock.cxx#4 $)

>  <Rbt.Library>
libRbt.so (2013.1, Build901 2013/11/27)

>  <Rbt.Parameter_File>
/export/apps/rDock/src/rDock_2013.1_src/data/scripts/dock_solv.prm

>  <Rbt.Receptor>
prm/blind_docking_80.prm

>  <SCORE>
30.0422

>  <SCORE.INTER>
7.53483

>  <SCORE.INTER.CONST>
1

>  <SCORE.INTER.POLAR>
-1.15522

>  <SCORE.INTER.ROT>
16

>  <SCORE.INTER.SOLV>
49.2379

>  <SCORE.INTER.VDW>
-21.8054

>  <SCORE.INTER.norm>
0.153772

>  <SCORE.INTRA>
15.907

>  <SCORE.INTRA.DIHEDRAL>
13.8383

>  <SCORE.INTRA.DIHEDRAL.0>
36.0842

>  <SCORE.INTRA.POLAR>
0

>  <SCORE.INTRA.POLAR.0>
0

>  <SCORE.INTRA.REPUL>
0

>  <SCORE.INTRA.REPUL.0>
0

>  <SCORE.INTRA.SOLV>
-0.81281

>  <SCORE.INTRA.SOLV.lig_0>
-126.444

>  <SCORE.INTRA.VDW>
9.39424

>  <SCORE.INTRA.VDW.0>
-7.40469

>  <SCORE.INTRA.norm>
0.324633

>  <SCORE.RESTR>
6.60033

>  <SCORE.RESTR.CAVITY>
6.60033

>  <SCORE.RESTR.norm>
0.134701

>  <SCORE.SYSTEM>
0

>  <SCORE.SYSTEM.CONST>
0

>  <SCORE.SYSTEM.DIHEDRAL>
0

>  <SCORE.SYSTEM.SOLV>
0

>  <SCORE.SYSTEM.norm>
0

>  <SCORE.heavy>
49

>  <SCORE.norm>
0.613105

>  <RMSD>
29.432

$$$$
2bee_lig
 OpenBabel11021811423D
libRbt.so/2013.1/901 2013/11/27
 49 52  0  0  0  0  0  0  0  0999 V2000
   26.0015   23.3785   10.3017 C   0  0  2  0  0  0  0  0  0  0  0  0
   27.1794   23.1493    9.5387 O   0  0  0  0  0  0  0  0  0  0  0  0
   29.0401   27.1358    9.6804 C   0  0  2  0  0  0  0  0  0  0  0  0
   30.0726   28.1985    9.5407 N   0  0  0  0  0  0  0  0  0  0  0  0
   26.8023   25.1943    6.0942 C   0  0  1  0  0  0  0  0  0  0  0  0
   27.7274   23.3393    1.9081 C   0  0  1  0  0  0  0  0  0  0  0  0
   25.3035   30.8728    7.3711 C   0  0  0  0  0  0  0  0  0  0  0  0
   24.9130   22.2856    9.9706 C   0  0  2  0  0  0  0  0  0  0  0  0
   25.4682   20.9509   10.1682 N   0  0  0  0  0  0  0  0  0  0  0  0
   29.6063   25.9674   10.6089 C   0  0  0  0  0  0  0  0  0  0  0  0
   26.9332   26.0163    4.8533 C   0  0  2  0  0  0  0  0  0  0  0  0
   25.8205   26.9646    4.6726 O   0  0  0  0  0  0  0  0  0  0  0  0
   29.2733   22.9219    1.6489 C   0  0  2  0  0  0  0  0  0  0  0  0
   29.9663   24.0822    0.9958 N   0  0  0  0  0  0  0  0  0  0  0  0
   25.9232   32.0789    6.9684 C   0  0  0  0  0  0  0  0  0  0  0  0
   25.4857   32.7345    5.8197 N   0  0  0  0  0  0  0  0  0  0  0  0
   24.3984   22.4912    8.4790 C   0  0  1  0  0  0  0  0  0  0  0  0
   23.4161   21.5065    8.1918 O   0  0  0  0  0  0  0  0  0  0  0  0
   28.5042   24.7720   10.7764 C   0  0  2  0  0  0  0  0  0  0  0  0
   28.9966   23.7290   11.6106 N   0  0  0  0  0  0  0  0  0  0  0  0
   27.1576   24.8634    3.9050 C   0  0  2  0  0  0  0  0  0  0  0  0
   27.7908   24.5301    2.7290 O   0  0  0  0  0  0  0  0  0  0  0  0
   29.2970   21.6610    0.7131 C   0  0  1  0  0  0  0  0  0  0  0  0
   28.6160   20.5713    1.4277 O   0  0  0  0  0  0  0  0  0  0  0  0
   23.8194   23.9180    8.3364 C   0  0  2  0  0  0  0  0  0  0  0  0
   23.3405   24.1580    6.9511 O   0  0  0  0  0  0  0  0  0  0  0  0
   28.1308   24.1860    9.3592 C   0  0  2  0  0  0  0  0  0  0  0  0
   26.2081   23.7145    4.5098 C   0  0  2  0  0  0  0  0  0  0  0  0
   26.3759   23.8857    5.8427 O   0  0  0  0  0  0  0  0  0  0  0  0
   28.5453   22.0213   -0.6900 C   0  0  2  0  0  0  0  0  0  0  0  0
   29.2381   23.1208   -1.3988 O   0  0  0  0  0  0  0  0  0  0  0  0
   24.9065   24.9925    8.6730 C   0  0  2  0  0  0  0  0  0  0  0  0
   25.3320   24.6917   10.0268 O   0  0  0  0  0  0  0  0  0  0  0  0
   27.5860   25.3693    8.4900 C   0  0  2  0  0  0  0  0  0  0  0  0
   27.2663   24.7377    7.2739 O   0  0  0  0  0  0  0  0  0  0  0  0
   26.5794   22.2156    4.2076 C   0  0  0  0  0  0  0  0  0  0  0  0
   27.9922   21.9936    4.5145 O   0  0  0  0  0  0  0  0  0  0  0  0
   27.0432   22.4713   -0.4063 C   0  0  1  0  0  0  0  0  0  0  0  0
   27.1074   23.6527    0.5392 O   0  0  0  0  0  0  0  0  0  0  0  0
   24.2630   26.3126    8.5348 C   0  0  0  0  0  0  0  0  0  0  0  0
   25.1838   27.2859    8.5450 O   0  0  0  0  0  0  0  0  0  0  0  0
   28.6874   26.5003    8.3171 C   0  0  1  0  0  0  0  0  0  0  0  0
   28.1876   27.5521    7.5489 O   0  0  0  0  0  0  0  0  0  0  0  0
   24.5537   26.9380    5.4220 C   0  0  0  0  0  0  0  0  0  0  0  0
   26.4348   22.8088   -1.8095 C   0  0  0  0  0  0  0  0  0  0  0  0
   25.1967   23.5288   -1.7237 N   0  0  0  0  0  0  0  0  0  0  0  0
   23.9084   28.3237    5.3712 C   0  0  0  0  0  0  0  0  0  0  0  0
   25.0094   29.3063    5.3845 N   0  0  0  0  0  0  0  0  0  0  0  0
   25.7815   29.5081    6.6900 C   0  0  0  0  0  0  0  0  0  0  0  0
  1  2  1  6  0  0  0
  1  8  1  0  0  0  0
  1 33  1  0  0  0  0
  3  4  1  6  0  0  0
  3 10  1  0  0  0  0
  3 42  1  0  0  0  0
  5 11  1  0  0  0  0
  5 29  1  0  0  0  0
  5 35  1  6  0  0  0
  6 13  1  0  0  0  0
  6 39  1  0  0  0  0
  6 22  1  1  0  0  0
  7 15  1  0  0  0  0
  8  9  1  6  0  0  0
  8 17  1  0  0  0  0
 10 19  1  0  0  0  0
 11 12  1  6  0  0  0
 11 21  1  0  0  0  0
 12 44  1  0  0  0  0
 13 14  1  6  0  0  0
 13 23  1  0  0  0  0
 15 16  1  0  0  0  0
 17 18  1  1  0  0  0
 17 25  1  0  0  0  0
 19 20  1  1  0  0  0
 19 27  1  0  0  0  0
 21 22  1  6  0  0  0
 21 28  1  0  0  0  0
 23 24  1  1  0  0  0
 23 30  1  0  0  0  0
 25 26  1  6  0  0  0
 25 32  1  0  0  0  0
 27  2  1  1  0  0  0
 27 34  1  0  0  0  0
 28 29  1  0  0  0  0
 28 36  1  6  0  0  0
 30 31  1  1  0  0  0
 30 38  1  0  0  0  0
 32 33  1  0  0  0  0
 32 40  1  1  0  0  0
 34 35  1  6  0  0  0
 34 42  1  0  0  0  0
 36 37  1  0  0  0  0
 38 39  1  0  0  0  0
 38 45  1  6  0  0  0
 40 41  1  0  0  0  0
 42 43  1  6  0  0  0
 44 47  1  0  0  0  0
 45 46  1  0  0  0  0
 47 48  1  0  0  0  0
 48 49  1  0  0  0  0
 49  7  1  0  0  0  0
M  END
>  <CHROM.1>
161.43009804,63.59593699,-130.00151038,83.01368198,-13.30614248,158.10064116
-171.54782688,51.83976444,49.72276425,-167.74270786,-177.14609214,-166.13607225
-34.55425076,-72.22158659,-103.57996173,-85.58166515,26.72783533,24.94230111
5.82555825,-2.64044127,1.41340744,-0.87810616

>  <Name>
2bee_lig

>  <RI>
0

>  <Rbt.Current_Directory>
/home/itssahil/PROJECTS/Mol_Feturizer/New_Systems/rnas/2bee

>  <Rbt.Executable>
rbdock ($Id: //depot/dev/client3/rdock/2013.1/src/exe/rbdock.cxx#4 $)

>  <Rbt.Library>
libRbt.so (2013.1, Build901 2013/11/27)

>  <Rbt.Parameter_File>
/export/apps/rDock/src/rDock_2013.1_src/data/scripts/dock_solv.prm

>  <Rbt.Receptor>
prm/blind_docking_80.prm

>  <SCORE>
0.859029

>  <SCORE.INTER>
-7.98531

>  <SCORE.INTER.CONST>
1

>  <SCORE.INTER.POLAR>
-0.452219

>  <SCORE.INTER.ROT>
16

>  <SCORE.INTER.SOLV>
41.5409

>  <SCORE.INTER.VDW>
-31.9298

>  <SCORE.INTER.norm>
-0.162966

>  <SCORE.INTRA>
1.99985

>  <SCORE.INTRA.DIHEDRAL>
-4.71511

>  <SCORE.INTRA.DIHEDRAL.0>
36.0842

>  <SCORE.INTRA.POLAR>
0

>  <SCORE.INTRA.POLAR.0>
0

>  <SCORE.INTRA.REPUL>
0

>  <SCORE.INTRA.REPUL.0>
0

>  <SCORE.INTRA.SOLV>
2.05759

>  <SCORE.INTRA.SOLV.lig_0>
-126.444

>  <SCORE.INTRA.VDW>
3.32861

>  <SCORE.INTRA.VDW.0>
-7.40469

>  <SCORE.INTRA.norm>
0.0408132

>  <SCORE.RESTR>
6.84449

>  <SCORE.RESTR.CAVITY>
6.84449

>  <SCORE.RESTR.norm>
0.139683

>  <SCORE.SYSTEM>
0

>  <SCORE.SYSTEM.CONST>
0

>  <SCORE.SYSTEM.DIHEDRAL>
0

>  <SCORE.SYSTEM.SOLV>
0

>  <SCORE.SYSTEM.norm>
0

>  <SCORE.heavy>
49

>  <SCORE.norm>
0.0175312

>  <RMSD>
29.521

$$$$
2bee_lig
 OpenBabel11021811423D
libRbt.so/2013.1/901 2013/11/27
 49 52  0  0  0  0  0  0  0  0999 V2000
   24.9094   27.7399    5.2942 C   0  0  2  0  0  0  0  0  0  0  0  0
   26.2776   27.4801    5.0067 O   0  0  0  0  0  0  0  0  0  0  0  0
   26.3037   23.0787    4.9816 C   0  0  2  0  0  0  0  0  0  0  0  0
   26.7728   21.6884    4.7325 N   0  0  0  0  0  0  0  0  0  0  0  0
   27.9504   26.0038    8.2806 C   0  0  1  0  0  0  0  0  0  0  0  0
   31.7155   25.6599   11.2290 C   0  0  1  0  0  0  0  0  0  0  0  0
   23.5396   21.6912    8.7994 C   0  0  0  0  0  0  0  0  0  0  0  0
   24.6998   29.2678    5.6267 C   0  0  2  0  0  0  0  0  0  0  0  0
   25.2193   30.0918    4.5405 N   0  0  0  0  0  0  0  0  0  0  0  0
   26.2534   23.8753    3.5993 C   0  0  0  0  0  0  0  0  0  0  0  0
   28.4962   25.2772    9.4667 C   0  0  2  0  0  0  0  0  0  0  0  0
   27.5490   25.2246   10.5938 O   0  0  0  0  0  0  0  0  0  0  0  0
   31.2199   24.1737   11.6490 C   0  0  2  0  0  0  0  0  0  0  0  0
   29.7189   24.1689   11.6618 N   0  0  0  0  0  0  0  0  0  0  0  0
   23.0527   22.8577    9.4343 C   0  0  0  0  0  0  0  0  0  0  0  0
   22.9275   22.8924   10.8214 N   0  0  0  0  0  0  0  0  0  0  0  0
   25.4092   29.6068    7.0101 C   0  0  1  0  0  0  0  0  0  0  0  0
   25.2114   30.9822    7.3032 O   0  0  0  0  0  0  0  0  0  0  0  0
   25.7545   25.4142    3.8328 C   0  0  2  0  0  0  0  0  0  0  0  0
   25.6976   26.1305    2.6040 N   0  0  0  0  0  0  0  0  0  0  0  0
   29.7954   26.0408    9.5547 C   0  0  2  0  0  0  0  0  0  0  0  0
   31.1111   25.9080    9.9371 O   0  0  0  0  0  0  0  0  0  0  0  0
   31.7897   23.8446   13.0749 C   0  0  1  0  0  0  0  0  0  0  0  0
   33.2565   23.8540   12.9742 O   0  0  0  0  0  0  0  0  0  0  0  0
   24.8132   28.7069    8.1174 C   0  0  2  0  0  0  0  0  0  0  0  0
   25.4601   28.9805    9.4261 O   0  0  0  0  0  0  0  0  0  0  0  0
   26.7331   26.1485    4.8298 C   0  0  2  0  0  0  0  0  0  0  0  0
   29.3618   27.5315    9.1335 C   0  0  2  0  0  0  0  0  0  0  0  0
   28.4727   27.2941    8.1400 O   0  0  0  0  0  0  0  0  0  0  0  0
   31.2533   24.9619   14.1367 C   0  0  2  0  0  0  0  0  0  0  0  0
   29.7758   24.9449   14.2276 O   0  0  0  0  0  0  0  0  0  0  0  0
   25.0219   27.1943    7.7734 C   0  0  2  0  0  0  0  0  0  0  0  0
   24.3774   27.0045    6.4877 O   0  0  0  0  0  0  0  0  0  0  0  0
   26.7485   25.3276    6.1634 C   0  0  2  0  0  0  0  0  0  0  0  0
   27.6213   26.0745    6.9760 O   0  0  0  0  0  0  0  0  0  0  0  0
   30.4629   28.4755    8.5236 C   0  0  0  0  0  0  0  0  0  0  0  0
   31.6166   28.5201    9.4217 O   0  0  0  0  0  0  0  0  0  0  0  0
   31.7139   26.4172   13.6793 C   0  0  1  0  0  0  0  0  0  0  0  0
   31.1698   26.6339   12.2827 O   0  0  0  0  0  0  0  0  0  0  0  0
   24.4056   26.4165    8.8646 C   0  0  0  0  0  0  0  0  0  0  0  0
   24.3570   25.1165    8.5437 O   0  0  0  0  0  0  0  0  0  0  0  0
   27.2673   23.8477    5.9127 C   0  0  1  0  0  0  0  0  0  0  0  0
   27.2681   23.1242    7.1056 O   0  0  0  0  0  0  0  0  0  0  0  0
   26.7993   24.0303   11.0162 C   0  0  0  0  0  0  0  0  0  0  0  0
   31.1294   27.3980   14.7515 C   0  0  0  0  0  0  0  0  0  0  0  0
   29.7147   27.2460   14.9364 N   0  0  0  0  0  0  0  0  0  0  0  0
   26.2508   23.3157    9.7803 C   0  0  0  0  0  0  0  0  0  0  0  0
   25.5895   22.0860   10.2584 N   0  0  0  0  0  0  0  0  0  0  0  0
   24.9810   21.1424    9.2189 C   0  0  0  0  0  0  0  0  0  0  0  0
  1  2  1  1  0  0  0
  1  8  1  0  0  0  0
  1 33  1  0  0  0  0
  3  4  1  6  0  0  0
  3 10  1  0  0  0  0
  3 42  1  0  0  0  0
  5 11  1  0  0  0  0
  5 29  1  0  0  0  0
  5 35  1  6  0  0  0
  6 13  1  0  0  0  0
  6 39  1  0  0  0  0
  6 22  1  6  0  0  0
  7 15  1  0  0  0  0
  8  9  1  6  0  0  0
  8 17  1  0  0  0  0
 10 19  1  0  0  0  0
 11 12  1  1  0  0  0
 11 21  1  0  0  0  0
 12 44  1  0  0  0  0
 13 14  1  1  0  0  0
 13 23  1  0  0  0  0
 15 16  1  0  0  0  0
 17 18  1  1  0  0  0
 17 25  1  0  0  0  0
 19 20  1  6  0  0  0
 19 27  1  0  0  0  0
 21 22  1  1  0  0  0
 21 28  1  0  0  0  0
 23 24  1  6  0  0  0
 23 30  1  0  0  0  0
 25 26  1  1  0  0  0
 25 32  1  0  0  0  0
 27  2  1  1  0  0  0
 27 34  1  0  0  0  0
 28 29  1  0  0  0  0
 28 36  1  6  0  0  0
 30 31  1  6  0  0  0
 30 38  1  0  0  0  0
 32 33  1  0  0  0  0
 32 40  1  1  0  0  0
 34 35  1  1  0  0  0
 34 42  1  0  0  0  0
 36 37  1  0  0  0  0
 38 39  1  0  0  0  0
 38 45  1  1  0  0  0
 40 41  1  0  0  0  0
 42 43  1  1  0  0  0
 44 47  1  0  0  0  0
 45 46  1  0  0  0  0
 47 48  1  0  0  0  0
 48 49  1  0  0  0  0
 49  7  1  0  0  0  0
M  END
>  <CHROM.1>
172.71949909,59.00942263,65.05713894,-57.58442792,106.33869195,-43.36938642
-64.21805162,48.34997777,-53.04152461,170.34500573,171.27337646,-53.88205682
176.34327381,-178.11662782,-81.68996330,-1.90920242,27.50196627,25.75292184
8.83607454,-2.68890685,0.79777190,2.63761938

>  <Name>
2bee_lig

>  <RI>
0

>  <Rbt.Current_Directory>
/home/itssahil/PROJECTS/Mol_Feturizer/New_Systems/rnas/2bee

>  <Rbt.Executable>
rbdock ($Id: //depot/dev/client3/rdock/2013.1/src/exe/rbdock.cxx#4 $)

>  <Rbt.Library>
libRbt.so (2013.1, Build901 2013/11/27)

>  <Rbt.Parameter_File>
/export/apps/rDock/src/rDock_2013.1_src/data/scripts/dock_solv.prm

>  <Rbt.Receptor>
prm/blind_docking_100.prm

>  <SCORE>
29.8522

>  <SCORE.INTER>
3.77924

>  <SCORE.INTER.CONST>
1

>  <SCORE.INTER.POLAR>
-1.57569

>  <SCORE.INTER.ROT>
16

>  <SCORE.INTER.SOLV>
34.7626

>  <SCORE.INTER.VDW>
-18.0824

>  <SCORE.INTER.norm>
0.0771273

>  <SCORE.INTRA>
-0.385218

>  <SCORE.INTRA.DIHEDRAL>
-14.7953

>  <SCORE.INTRA.DIHEDRAL.0>
36.0842

>  <SCORE.INTRA.POLAR>
0

>  <SCORE.INTRA.POLAR.0>
0

>  <SCORE.INTRA.REPUL>
0

>  <SCORE.INTRA.REPUL.0>
0

>  <SCORE.INTRA.SOLV>
9.17496

>  <SCORE.INTRA.SOLV.lig_0>
-126.444

>  <SCORE.INTRA.VDW>
2.42494

>  <SCORE.INTRA.VDW.0>
-7.40469

>  <SCORE.INTRA.norm>
-0.00786158

>  <SCORE.RESTR>
26.4582

>  <SCORE.RESTR.CAVITY>
26.4582

>  <SCORE.RESTR.norm>
0.539963

>  <SCORE.SYSTEM>
0

>  <SCORE.SYSTEM.CONST>
0

>  <SCORE.SYSTEM.DIHEDRAL>
0

>  <SCORE.SYSTEM.SOLV>
0

>  <SCORE.SYSTEM.norm>
0

>  <SCORE.heavy>
49

>  <SCORE.norm>
0.609229

>  <RMSD>
29.903

$$$$
2bee_lig
 OpenBabel11021811423D
libRbt.so/2013.1/901 2013/11/27
 49 52  0  0  0  0  0  0  0  0999 V2000
   26.4049   23.1544   10.1717 C   0  0  2  0  0  0  0  0  0  0  0  0
   26.9405   24.0231    9.1814 O   0  0  0  0  0  0  0  0  0  0  0  0
   29.9921   26.9949   10.2907 C   0  0  2  0  0  0  0  0  0  0  0  0
   31.3332   27.5908   10.5379 N   0  0  0  0  0  0  0  0  0  0  0  0
   27.1424   25.6513    6.3835 C   0  0  1  0  0  0  0  0  0  0  0  0
   27.8320   24.0315    2.2471 C   0  0  1  0  0  0  0  0  0  0  0  0
   24.5941   31.9000    6.4792 C   0  0  0  0  0  0  0  0  0  0  0  0
   25.2885   22.2321    9.5457 C   0  0  2  0  0  0  0  0  0  0  0  0
   25.8200   21.5180    8.3897 N   0  0  0  0  0  0  0  0  0  0  0  0
   29.8387   25.6613   11.1544 C   0  0  0  0  0  0  0  0  0  0  0  0
   26.4574   26.2592    5.2028 C   0  0  2  0  0  0  0  0  0  0  0  0
   25.1234   26.7944    5.5255 O   0  0  0  0  0  0  0  0  0  0  0  0
   27.9190   24.7166    0.7794 C   0  0  2  0  0  0  0  0  0  0  0  0
   26.5647   24.6215    0.1393 N   0  0  0  0  0  0  0  0  0  0  0  0
   25.6151   32.8514    6.7099 C   0  0  0  0  0  0  0  0  0  0  0  0
   26.9474   32.4458    6.7429 N   0  0  0  0  0  0  0  0  0  0  0  0
   24.0287   23.1226    9.1559 C   0  0  1  0  0  0  0  0  0  0  0  0
   23.0278   22.2836    8.5979 O   0  0  0  0  0  0  0  0  0  0  0  0
   28.3806   24.9680   10.8999 C   0  0  2  0  0  0  0  0  0  0  0  0
   28.2307   23.7823   11.6730 N   0  0  0  0  0  0  0  0  0  0  0  0
   26.6393   25.0837    4.2733 C   0  0  2  0  0  0  0  0  0  0  0  0
   26.7946   24.7625    2.9437 O   0  0  0  0  0  0  0  0  0  0  0  0
   28.9907   23.9419   -0.0676 C   0  0  1  0  0  0  0  0  0  0  0  0
   30.2841   24.0956    0.6145 O   0  0  0  0  0  0  0  0  0  0  0  0
   23.5112   23.8468   10.4204 C   0  0  2  0  0  0  0  0  0  0  0  0
   22.3418   24.7036   10.0974 O   0  0  0  0  0  0  0  0  0  0  0  0
   28.2101   24.6274    9.3682 C   0  0  2  0  0  0  0  0  0  0  0  0
   26.4781   23.8222    5.2583 C   0  0  2  0  0  0  0  0  0  0  0  0
   27.1187   24.2525    6.3711 O   0  0  0  0  0  0  0  0  0  0  0  0
   28.5531   22.3736   -0.1793 C   0  0  2  0  0  0  0  0  0  0  0  0
   27.2489   22.2316   -0.8651 O   0  0  0  0  0  0  0  0  0  0  0  0
   24.6291   24.7536   11.0353 C   0  0  2  0  0  0  0  0  0  0  0  0
   25.7349   23.8571   11.3143 O   0  0  0  0  0  0  0  0  0  0  0  0
   28.3722   25.9642    8.5685 C   0  0  2  0  0  0  0  0  0  0  0  0
   28.1806   25.5527    7.2367 O   0  0  0  0  0  0  0  0  0  0  0  0
   27.1704   22.4709    4.8456 C   0  0  0  0  0  0  0  0  0  0  0  0
   26.5090   21.3582    5.5267 O   0  0  0  0  0  0  0  0  0  0  0  0
   28.4304   21.7347    1.2753 C   0  0  1  0  0  0  0  0  0  0  0  0
   27.4218   22.5668    2.0394 O   0  0  0  0  0  0  0  0  0  0  0  0
   24.0578   25.3815   12.2415 C   0  0  0  0  0  0  0  0  0  0  0  0
   23.7209   24.4473   13.1410 O   0  0  0  0  0  0  0  0  0  0  0  0
   29.8082   26.5985    8.8089 C   0  0  1  0  0  0  0  0  0  0  0  0
   29.9373   27.7924    8.0988 O   0  0  0  0  0  0  0  0  0  0  0  0
   24.8497   28.1621    5.9961 C   0  0  0  0  0  0  0  0  0  0  0  0
   27.9892   20.2496    1.0449 C   0  0  0  0  0  0  0  0  0  0  0  0
   26.6327   20.1329    0.5924 N   0  0  0  0  0  0  0  0  0  0  0  0
   25.5545   28.3855    7.3348 C   0  0  0  0  0  0  0  0  0  0  0  0
   25.6971   29.8448    7.5021 N   0  0  0  0  0  0  0  0  0  0  0  0
   24.4265   30.6973    7.5186 C   0  0  0  0  0  0  0  0  0  0  0  0
  1  2  1  6  0  0  0
  1  8  1  0  0  0  0
  1 33  1  0  0  0  0
  3  4  1  6  0  0  0
  3 10  1  0  0  0  0
  3 42  1  0  0  0  0
  5 11  1  0  0  0  0
  5 29  1  0  0  0  0
  5 35  1  6  0  0  0
  6 13  1  0  0  0  0
  6 39  1  0  0  0  0
  6 22  1  1  0  0  0
  7 15  1  0  0  0  0
  8  9  1  6  0  0  0
  8 17  1  0  0  0  0
 10 19  1  0  0  0  0
 11 12  1  1  0  0  0
 11 21  1  0  0  0  0
 12 44  1  0  0  0  0
 13 14  1  6  0  0  0
 13 23  1  0  0  0  0
 15 16  1  0  0  0  0
 17 18  1  1  0  0  0
 17 25  1  0  0  0  0
 19 20  1  1  0  0  0
 19 27  1  0  0  0  0
 21 22  1  6  0  0  0
 21 28  1  0  0  0  0
 23 24  1  1  0  0  0
 23 30  1  0  0  0  0
 25 26  1  6  0  0  0
 25 32  1  0  0  0  0
 27  2  1  1  0  0  0
 27 34  1  0  0  0  0
 28 29  1  0  0  0  0
 28 36  1  6  0  0  0
 30 31  1  1  0  0  0
 30 38  1  0  0  0  0
 32 33  1  0  0  0  0
 32 40  1  1  0  0  0
 34 35  1  6  0  0  0
 34 42  1  0  0  0  0
 36 37  1  0  0  0  0
 38 39  1  0  0  0  0
 38 45  1  6  0  0  0
 40 41  1  0  0  0  0
 42 43  1  6  0  0  0
 44 47  1  0  0  0  0
 45 46  1  0  0  0  0
 47 48  1  0  0  0  0
 48 49  1  0  0  0  0
 49  7  1  0  0  0  0
M  END
>  <CHROM.1>
-159.76581716,104.92798005,-147.39601816,60.86006866,88.93973390,-61.98567749
123.27160257,-35.85672690,-157.77863927,61.94457403,102.65426673,-71.14441189
158.65266221,59.54780187,-129.20668144,-63.00217214,26.76624682,25.05041111
6.57062615,2.49492524,1.35217415,0.30733976

>  <Name>
2bee_lig

>  <RI>
0

>  <Rbt.Current_Directory>
/home/itssahil/PROJECTS/Mol_Feturizer/New_Systems/rnas/2bee

>  <Rbt.Executable>
rbdock ($Id: //depot/dev/client3/rdock/2013.1/src/exe/rbdock.cxx#4 $)

>  <Rbt.Library>
libRbt.so (2013.1, Build901 2013/11/27)

>  <Rbt.Parameter_File>
/export/apps/rDock/src/rDock_2013.1_src/data/scripts/dock_solv.prm

>  <Rbt.Receptor>
prm/blind_docking_80.prm

>  <SCORE>
0.707801

>  <SCORE.INTER>
-14.0733

>  <SCORE.INTER.CONST>
1

>  <SCORE.INTER.POLAR>
-1.61538

>  <SCORE.INTER.ROT>
16

>  <SCORE.INTER.SOLV>
37.4402

>  <SCORE.INTER.VDW>
-30.7443

>  <SCORE.INTER.norm>
-0.28721

>  <SCORE.INTRA>
9.04504

>  <SCORE.INTRA.DIHEDRAL>
-5.54931

>  <SCORE.INTRA.DIHEDRAL.0>
36.0842

>  <SCORE.INTRA.POLAR>
0

>  <SCORE.INTRA.POLAR.0>
0

>  <SCORE.INTRA.REPUL>
0.45398

>  <SCORE.INTRA.REPUL.0>
0

>  <SCORE.INTRA.SOLV>
4.18048

>  <SCORE.INTRA.SOLV.lig_0>
-126.444

>  <SCORE.INTRA.VDW>
7.45955

>  <SCORE.INTRA.VDW.0>
-7.40469

>  <SCORE.INTRA.norm>
0.184593

>  <SCORE.RESTR>
5.73604

>  <SCORE.RESTR.CAVITY>
5.73604

>  <SCORE.RESTR.norm>
0.117062

>  <SCORE.SYSTEM>
0

>  <SCORE.SYSTEM.CONST>
0

>  <SCORE.SYSTEM.DIHEDRAL>
0

>  <SCORE.SYSTEM.SOLV>
0

>  <SCORE.SYSTEM.norm>
0

>  <SCORE.heavy>
49

>  <SCORE.norm>
0.0144449

>  <RMSD>
29.946

$$$$
2bee_lig
 OpenBabel11021811423D
libRbt.so/2013.1/901 2013/11/27
 49 52  0  0  0  0  0  0  0  0999 V2000
   25.9641   26.0362    3.9210 C   0  0  2  0  0  0  0  0  0  0  0  0
   26.5034   26.9657    4.8523 O   0  0  0  0  0  0  0  0  0  0  0  0
   24.9091   29.8461    7.7739 C   0  0  2  0  0  0  0  0  0  0  0  0
   24.0021   30.4420    8.7923 N   0  0  0  0  0  0  0  0  0  0  0  0
   27.4977   26.1909    8.7249 C   0  0  1  0  0  0  0  0  0  0  0  0
   31.5604   25.6339   11.2322 C   0  0  1  0  0  0  0  0  0  0  0  0
   23.4485   24.7590    9.1274 C   0  0  0  0  0  0  0  0  0  0  0  0
   24.8563   25.1495    4.6107 C   0  0  2  0  0  0  0  0  0  0  0  0
   23.8396   26.0020    5.2174 N   0  0  0  0  0  0  0  0  0  0  0  0
   24.0781   29.5234    6.4499 C   0  0  0  0  0  0  0  0  0  0  0  0
   28.2559   25.1933    9.5388 C   0  0  2  0  0  0  0  0  0  0  0  0
   27.4494   24.6030   10.6210 O   0  0  0  0  0  0  0  0  0  0  0  0
   31.2123   24.0653   11.4542 C   0  0  2  0  0  0  0  0  0  0  0  0
   29.7253   23.9354   11.6126 N   0  0  0  0  0  0  0  0  0  0  0  0
   22.8806   23.4638    9.1581 C   0  0  0  0  0  0  0  0  0  0  0  0
   23.5726   22.3890    8.6043 N   0  0  0  0  0  0  0  0  0  0  0  0
   25.5401   24.1968    5.6863 C   0  0  1  0  0  0  0  0  0  0  0  0
   24.5364   23.3997    6.2982 O   0  0  0  0  0  0  0  0  0  0  0  0
   25.0384   28.8537    5.3093 C   0  0  2  0  0  0  0  0  0  0  0  0
   24.3079   28.5705    4.1208 N   0  0  0  0  0  0  0  0  0  0  0  0
   29.4481   26.0739    9.8251 C   0  0  2  0  0  0  0  0  0  0  0  0
   30.8033   26.0264   10.0624 O   0  0  0  0  0  0  0  0  0  0  0  0
   31.9551   23.5696   12.7460 C   0  0  1  0  0  0  0  0  0  0  0  0
   33.3982   23.7146   12.5053 O   0  0  0  0  0  0  0  0  0  0  0  0
   26.6005   23.3188    4.9820 C   0  0  2  0  0  0  0  0  0  0  0  0
   27.2757   22.4228    5.9553 O   0  0  0  0  0  0  0  0  0  0  0  0
   25.6826   27.5244    5.8652 C   0  0  2  0  0  0  0  0  0  0  0  0
   28.7840   27.5294    9.9926 C   0  0  2  0  0  0  0  0  0  0  0  0
   27.8317   27.5149    9.0298 O   0  0  0  0  0  0  0  0  0  0  0  0
   31.4659   24.4634   14.0209 C   0  0  2  0  0  0  0  0  0  0  0  0
   30.0116   24.3114   14.2518 O   0  0  0  0  0  0  0  0  0  0  0  0
   27.6900   24.2095    4.2969 C   0  0  2  0  0  0  0  0  0  0  0  0
   26.9613   25.0590    3.3741 O   0  0  0  0  0  0  0  0  0  0  0  0
   26.4805   27.8949    7.1608 C   0  0  2  0  0  0  0  0  0  0  0  0
   27.0246   26.6579    7.5529 O   0  0  0  0  0  0  0  0  0  0  0  0
   29.6831   28.7882    9.7046 C   0  0  0  0  0  0  0  0  0  0  0  0
   29.7345   29.6320   10.8981 O   0  0  0  0  0  0  0  0  0  0  0  0
   31.7772   26.0043   13.7608 C   0  0  1  0  0  0  0  0  0  0  0  0
   31.0705   26.3869   12.4771 O   0  0  0  0  0  0  0  0  0  0  0  0
   28.6390   23.2946    3.6351 C   0  0  0  0  0  0  0  0  0  0  0  0
   27.9866   22.4449    2.8303 O   0  0  0  0  0  0  0  0  0  0  0  0
   25.5181   28.5130    8.2627 C   0  0  1  0  0  0  0  0  0  0  0  0
   26.2415   28.8468    9.4079 O   0  0  0  0  0  0  0  0  0  0  0  0
   27.2558   23.1609   10.8442 C   0  0  0  0  0  0  0  0  0  0  0  0
   31.2505   26.7581   15.0286 C   0  0  0  0  0  0  0  0  0  0  0  0
   30.8475   28.1067   14.7504 N   0  0  0  0  0  0  0  0  0  0  0  0
   25.8778   22.7503   10.3233 C   0  0  0  0  0  0  0  0  0  0  0  0
   25.6586   23.4945    9.0678 N   0  0  0  0  0  0  0  0  0  0  0  0
   25.0411   24.8918    9.1551 C   0  0  0  0  0  0  0  0  0  0  0  0
  1  2  1  1  0  0  0
  1  8  1  0  0  0  0
  1 33  1  0  0  0  0
  3  4  1  1  0  0  0
  3 10  1  0  0  0  0
  3 42  1  0  0  0  0
  5 11  1  0  0  0  0
  5 29  1  0  0  0  0
  5 35  1  6  0  0  0
  6 13  1  0  0  0  0
  6 39  1  0  0  0  0
  6 22  1  6  0  0  0
  7 15  1  0  0  0  0
  8  9  1  1  0  0  0
  8 17  1  0  0  0  0
 10 19  1  0  0  0  0
 11 12  1  1  0  0  0
 11 21  1  0  0  0  0
 12 44  1  0  0  0  0
 13 14  1  1  0  0  0
 13 23  1  0  0  0  0
 15 16  1  0  0  0  0
 17 18  1  6  0  0  0
 17 25  1  0  0  0  0
 19 20  1  6  0  0  0
 19 27  1  0  0  0  0
 21 22  1  1  0  0  0
 21 28  1  0  0  0  0
 23 24  1  6  0  0  0
 23 30  1  0  0  0  0
 25 26  1  1  0  0  0
 25 32  1  0  0  0  0
 27  2  1  6  0  0  0
 27 34  1  0  0  0  0
 28 29  1  0  0  0  0
 28 36  1  6  0  0  0
 30 31  1  6  0  0  0
 30 38  1  0  0  0  0
 32 33  1  0  0  0  0
 32 40  1  6  0  0  0
 34 35  1  1  0  0  0
 34 42  1  0  0  0  0
 36 37  1  0  0  0  0
 38 39  1  0  0  0  0
 38 45  1  1  0  0  0
 40 41  1  0  0  0  0
 42 43  1  1  0  0  0
 44 47  1  0  0  0  0
 45 46  1  0  0  0  0
 47 48  1  0  0  0  0
 48 49  1  0  0  0  0
 49  7  1  0  0  0  0
M  END
>  <CHROM.1>
-33.73545820,-165.68017844,63.06888045,-29.90292248,126.27469280,-102.02245718
-75.34832363,-90.35190157,-121.61230497,53.05724837,-159.25999143,-151.72777735
39.40513941,-87.48914903,-87.75317532,5.74307452,27.51604921,25.75231983
8.67530372,-2.79555680,-0.88124454,0.45996745

>  <Name>
2bee_lig

>  <RI>
0

>  <Rbt.Current_Directory>
/home/itssahil/PROJECTS/Mol_Feturizer/New_Systems/rnas/2bee

>  <Rbt.Executable>
rbdock ($Id: //depot/dev/client3/rdock/2013.1/src/exe/rbdock.cxx#4 $)

>  <Rbt.Library>
libRbt.so (2013.1, Build901 2013/11/27)

>  <Rbt.Parameter_File>
/export/apps/rDock/src/rDock_2013.1_src/data/scripts/dock_solv.prm

>  <Rbt.Receptor>
prm/blind_docking_100.prm

>  <SCORE>
94.2806

>  <SCORE.INTER>
29.7853

>  <SCORE.INTER.CONST>
1

>  <SCORE.INTER.POLAR>
-0.739455

>  <SCORE.INTER.ROT>
16

>  <SCORE.INTER.SOLV>
25.5387

>  <SCORE.INTER.VDW>
-0.457847

>  <SCORE.INTER.norm>
0.607863

>  <SCORE.INTRA>
34.9191

>  <SCORE.INTRA.DIHEDRAL>
9.60851

>  <SCORE.INTRA.DIHEDRAL.0>
36.0842

>  <SCORE.INTRA.POLAR>
0

>  <SCORE.INTRA.POLAR.0>
0

>  <SCORE.INTRA.REPUL>
0.00284794

>  <SCORE.INTRA.REPUL.0>
0

>  <SCORE.INTRA.SOLV>
15.8794

>  <SCORE.INTRA.SOLV.lig_0>
-126.444

>  <SCORE.INTRA.VDW>
22.1609

>  <SCORE.INTRA.VDW.0>
-7.40469

>  <SCORE.INTRA.norm>
0.712635

>  <SCORE.RESTR>
29.5762

>  <SCORE.RESTR.CAVITY>
29.5762

>  <SCORE.RESTR.norm>
0.603596

>  <SCORE.SYSTEM>
0

>  <SCORE.SYSTEM.CONST>
0

>  <SCORE.SYSTEM.DIHEDRAL>
0

>  <SCORE.SYSTEM.SOLV>
0

>  <SCORE.SYSTEM.norm>
0

>  <SCORE.heavy>
49

>  <SCORE.norm>
1.92409

>  <RMSD>
29.965

$$$$
2bee_lig
 OpenBabel11021811423D
libRbt.so/2013.1/901 2013/11/27
 49 52  0  0  0  0  0  0  0  0999 V2000
   23.8055   27.3780    5.2374 C   0  0  2  0  0  0  0  0  0  0  0  0
   25.1844   27.0652    5.0855 O   0  0  0  0  0  0  0  0  0  0  0  0
   25.3074   22.6658    5.1495 C   0  0  2  0  0  0  0  0  0  0  0  0
   25.7054   21.2766    4.7936 N   0  0  0  0  0  0  0  0  0  0  0  0
   27.9569   25.6159    7.6002 C   0  0  1  0  0  0  0  0  0  0  0  0
   31.3177   27.9849   10.0759 C   0  0  1  0  0  0  0  0  0  0  0  0
   25.6506   23.8250    9.7861 C   0  0  0  0  0  0  0  0  0  0  0  0
   23.5588   28.9126    4.9667 C   0  0  2  0  0  0  0  0  0  0  0  0
   24.0846   29.2801    3.6564 N   0  0  0  0  0  0  0  0  0  0  0  0
   24.7980   23.4219    3.8393 C   0  0  0  0  0  0  0  0  0  0  0  0
   29.3230   25.4906    8.1923 C   0  0  2  0  0  0  0  0  0  0  0  0
   29.4737   24.2960    9.0411 O   0  0  0  0  0  0  0  0  0  0  0  0
   32.5552   27.1172    9.4870 C   0  0  2  0  0  0  0  0  0  0  0  0
   32.0670   25.7205    9.2343 N   0  0  0  0  0  0  0  0  0  0  0  0
   24.5842   22.9408    9.4999 C   0  0  0  0  0  0  0  0  0  0  0  0
   24.8492   21.6883    8.9505 N   0  0  0  0  0  0  0  0  0  0  0  0
   24.2321   29.7661    6.1286 C   0  0  1  0  0  0  0  0  0  0  0  0
   24.0009   31.1450    5.8791 O   0  0  0  0  0  0  0  0  0  0  0  0
   24.3631   24.9586    4.1867 C   0  0  2  0  0  0  0  0  0  0  0  0
   23.8985   25.6388    3.0257 N   0  0  0  0  0  0  0  0  0  0  0  0
   29.3926   26.8861    8.7636 C   0  0  2  0  0  0  0  0  0  0  0  0
   30.2802   27.8926    9.0705 O   0  0  0  0  0  0  0  0  0  0  0  0
   33.7125   27.1188   10.5486 C   0  0  1  0  0  0  0  0  0  0  0  0
   34.1423   28.5134   10.7272 O   0  0  0  0  0  0  0  0  0  0  0  0
   23.6308   29.3342    7.4863 C   0  0  2  0  0  0  0  0  0  0  0  0
   24.2446   30.0975    8.6029 O   0  0  0  0  0  0  0  0  0  0  0  0
   25.5913   25.7365    4.8010 C   0  0  2  0  0  0  0  0  0  0  0  0
   27.8792   27.1524    9.2392 C   0  0  2  0  0  0  0  0  0  0  0  0
   27.1670   26.5759    8.2420 O   0  0  0  0  0  0  0  0  0  0  0  0
   33.1599   26.4771   11.9438 C   0  0  2  0  0  0  0  0  0  0  0  0
   32.7279   25.0744   11.7511 O   0  0  0  0  0  0  0  0  0  0  0  0
   23.8768   27.8095    7.7405 C   0  0  2  0  0  0  0  0  0  0  0  0
   23.2633   27.1326    6.6136 O   0  0  0  0  0  0  0  0  0  0  0  0
   26.0526   24.9542    6.0769 C   0  0  2  0  0  0  0  0  0  0  0  0
   27.1213   25.7376    6.5502 O   0  0  0  0  0  0  0  0  0  0  0  0
   27.3855   28.6437    9.3287 C   0  0  0  0  0  0  0  0  0  0  0  0
   26.0577   28.7531    8.7250 O   0  0  0  0  0  0  0  0  0  0  0  0
   31.9173   27.3188   12.4790 C   0  0  1  0  0  0  0  0  0  0  0  0
   30.8734   27.3111   11.3818 O   0  0  0  0  0  0  0  0  0  0  0  0
   23.2531   27.4841    9.0370 C   0  0  0  0  0  0  0  0  0  0  0  0
   23.7881   28.2285   10.0141 O   0  0  0  0  0  0  0  0  0  0  0  0
   26.4995   23.4761    5.7054 C   0  0  1  0  0  0  0  0  0  0  0  0
   26.8995   22.7870    6.8506 O   0  0  0  0  0  0  0  0  0  0  0  0
   29.7339   24.3127   10.4899 C   0  0  0  0  0  0  0  0  0  0  0  0
   31.4636   26.6044   13.7969 C   0  0  0  0  0  0  0  0  0  0  0  0
   30.8524   25.3282   13.5593 N   0  0  0  0  0  0  0  0  0  0  0  0
   28.5977   25.0521   11.1980 C   0  0  0  0  0  0  0  0  0  0  0  0
   27.5461   24.0535   11.4718 N   0  0  0  0  0  0  0  0  0  0  0  0
   27.0312   23.2085   10.3047 C   0  0  0  0  0  0  0  0  0  0  0  0
  1  2  1  1  0  0  0
  1  8  1  0  0  0  0
  1 33  1  0  0  0  0
  3  4  1  6  0  0  0
  3 10  1  0  0  0  0
  3 42  1  0  0  0  0
  5 11  1  0  0  0  0
  5 29  1  0  0  0  0
  5 35  1  6  0  0  0
  6 13  1  0  0  0  0
  6 39  1  0  0  0  0
  6 22  1  6  0  0  0
  7 15  1  0  0  0  0
  8  9  1  6  0  0  0
  8 17  1  0  0  0  0
 10 19  1  0  0  0  0
 11 12  1  1  0  0  0
 11 21  1  0  0  0  0
 12 44  1  0  0  0  0
 13 14  1  1  0  0  0
 13 23  1  0  0  0  0
 15 16  1  0  0  0  0
 17 18  1  6  0  0  0
 17 25  1  0  0  0  0
 19 20  1  6  0  0  0
 19 27  1  0  0  0  0
 21 22  1  1  0  0  0
 21 28  1  0  0  0  0
 23 24  1  1  0  0  0
 23 30  1  0  0  0  0
 25 26  1  1  0  0  0
 25 32  1  0  0  0  0
 27  2  1  1  0  0  0
 27 34  1  0  0  0  0
 28 29  1  0  0  0  0
 28 36  1  6  0  0  0
 30 31  1  6  0  0  0
 30 38  1  0  0  0  0
 32 33  1  0  0  0  0
 32 40  1  1  0  0  0
 34 35  1  6  0  0  0
 34 42  1  0  0  0  0
 36 37  1  0  0  0  0
 38 39  1  0  0  0  0
 38 45  1  1  0  0  0
 40 41  1  0  0  0  0
 42 43  1  1  0  0  0
 44 47  1  0  0  0  0
 45 46  1  0  0  0  0
 47 48  1  0  0  0  0
 48 49  1  0  0  0  0
 49  7  1  0  0  0  0
M  END
>  <CHROM.1>
-157.23498401,121.28972598,77.77640954,-35.58914540,-115.67528127,59.54441247
-68.33974403,20.88910861,134.96002488,-58.97704198,-179.28088767,-70.41067014
87.07592214,-53.16600472,-99.72712885,-136.01633829,27.36443009,26.25645581
8.31618633,3.08084982,0.64306805,-3.00044802

>  <Name>
2bee_lig

>  <RI>
0

>  <Rbt.Current_Directory>
/home/itssahil/PROJECTS/Mol_Feturizer/New_Systems/rnas/2bee

>  <Rbt.Executable>
rbdock ($Id: //depot/dev/client3/rdock/2013.1/src/exe/rbdock.cxx#4 $)

>  <Rbt.Library>
libRbt.so (2013.1, Build901 2013/11/27)

>  <Rbt.Parameter_File>
/export/apps/rDock/src/rDock_2013.1_src/data/scripts/dock_solv.prm

>  <Rbt.Receptor>
prm/blind_docking_100.prm

>  <SCORE>
54.7073

>  <SCORE.INTER>
11.0754

>  <SCORE.INTER.CONST>
1

>  <SCORE.INTER.POLAR>
-0.265861

>  <SCORE.INTER.ROT>
16

>  <SCORE.INTER.SOLV>
31.6455

>  <SCORE.INTER.VDW>
-16.5454

>  <SCORE.INTER.norm>
0.226029

>  <SCORE.INTRA>
16.4308

>  <SCORE.INTRA.DIHEDRAL>
5.52779

>  <SCORE.INTRA.DIHEDRAL.0>
36.0842

>  <SCORE.INTRA.POLAR>
0

>  <SCORE.INTRA.POLAR.0>
0

>  <SCORE.INTRA.REPUL>
0.00122106

>  <SCORE.INTRA.REPUL.0>
0

>  <SCORE.INTRA.SOLV>
12.0379

>  <SCORE.INTRA.SOLV.lig_0>
-126.444

>  <SCORE.INTRA.VDW>
7.64182

>  <SCORE.INTRA.VDW.0>
-7.40469

>  <SCORE.INTRA.norm>
0.335322

>  <SCORE.RESTR>
27.2011

>  <SCORE.RESTR.CAVITY>
27.2011

>  <SCORE.RESTR.norm>
0.555125

>  <SCORE.SYSTEM>
0

>  <SCORE.SYSTEM.CONST>
0

>  <SCORE.SYSTEM.DIHEDRAL>
0

>  <SCORE.SYSTEM.SOLV>
0

>  <SCORE.SYSTEM.norm>
0

>  <SCORE.heavy>
49

>  <SCORE.norm>
1.11648

>  <RMSD>
30.223

$$$$
2bee_lig
 OpenBabel11021811423D
libRbt.so/2013.1/901 2013/11/27
 49 52  0  0  0  0  0  0  0  0999 V2000
   25.6054   27.7738    7.9113 C   0  0  2  0  0  0  0  0  0  0  0  0
   26.7881   28.4588    8.3038 O   0  0  0  0  0  0  0  0  0  0  0  0
   30.9624   27.1738    8.8499 C   0  0  2  0  0  0  0  0  0  0  0  0
   32.1365   26.4480    9.4062 N   0  0  0  0  0  0  0  0  0  0  0  0
   27.3131   24.8942    7.4003 C   0  0  1  0  0  0  0  0  0  0  0  0
   28.3566   23.4658   11.5055 C   0  0  1  0  0  0  0  0  0  0  0  0
   24.4072   26.4038    4.6622 C   0  0  0  0  0  0  0  0  0  0  0  0
   24.9423   28.4909    6.6724 C   0  0  2  0  0  0  0  0  0  0  0  0
   25.9122   28.6175    5.5899 N   0  0  0  0  0  0  0  0  0  0  0  0
   30.2162   27.9525   10.0266 C   0  0  0  0  0  0  0  0  0  0  0  0
   27.5902   23.4592    7.7113 C   0  0  2  0  0  0  0  0  0  0  0  0
   26.8998   22.5304    6.7998 O   0  0  0  0  0  0  0  0  0  0  0  0
   28.7020   25.0045   11.1260 C   0  0  2  0  0  0  0  0  0  0  0  0
   29.4192   25.0099    9.8074 N   0  0  0  0  0  0  0  0  0  0  0  0
   23.3602   25.6519    4.0799 C   0  0  0  0  0  0  0  0  0  0  0  0
   22.9229   24.4798    4.6929 N   0  0  0  0  0  0  0  0  0  0  0  0
   24.3807   29.9093    7.1247 C   0  0  1  0  0  0  0  0  0  0  0  0
   23.7819   30.5450    6.0047 O   0  0  0  0  0  0  0  0  0  0  0  0
   28.9101   28.7533    9.4572 C   0  0  2  0  0  0  0  0  0  0  0  0
   28.2427   29.4587   10.4981 N   0  0  0  0  0  0  0  0  0  0  0  0
   27.2501   23.5318    9.1803 C   0  0  2  0  0  0  0  0  0  0  0  0
   27.5647   22.9729   10.3983 O   0  0  0  0  0  0  0  0  0  0  0  0
   29.6125   25.6026   12.2572 C   0  0  1  0  0  0  0  0  0  0  0  0
   28.8361   25.5757   13.5055 O   0  0  0  0  0  0  0  0  0  0  0  0
   23.3578   29.7070    8.2668 C   0  0  2  0  0  0  0  0  0  0  0  0
   22.8189   31.0109    8.7307 O   0  0  0  0  0  0  0  0  0  0  0  0
   27.9110   27.7355    8.7813 C   0  0  2  0  0  0  0  0  0  0  0  0
   26.0209   24.5689    9.2106 C   0  0  2  0  0  0  0  0  0  0  0  0
   26.4011   25.4808    8.2844 O   0  0  0  0  0  0  0  0  0  0  0  0
   30.9735   24.7100   12.3769 C   0  0  2  0  0  0  0  0  0  0  0  0
   31.7451   24.7425   11.1139 O   0  0  0  0  0  0  0  0  0  0  0  0
   24.0257   28.9897    9.4871 C   0  0  2  0  0  0  0  0  0  0  0  0
   24.5344   27.7375    8.9602 O   0  0  0  0  0  0  0  0  0  0  0  0
   28.6910   26.9985    7.6406 C   0  0  2  0  0  0  0  0  0  0  0  0
   27.7123   26.1452    7.0985 O   0  0  0  0  0  0  0  0  0  0  0  0
   25.7650   25.3710   10.5399 C   0  0  0  0  0  0  0  0  0  0  0  0
   25.2661   24.4594   11.5692 O   0  0  0  0  0  0  0  0  0  0  0  0
   30.6070   23.1944   12.7054 C   0  0  1  0  0  0  0  0  0  0  0  0
   29.6907   22.7123   11.6001 O   0  0  0  0  0  0  0  0  0  0  0  0
   22.9778   28.8183   10.5109 C   0  0  0  0  0  0  0  0  0  0  0  0
   22.3075   27.6759   10.3086 O   0  0  0  0  0  0  0  0  0  0  0  0
   29.9349   26.2033    8.2261 C   0  0  1  0  0  0  0  0  0  0  0  0
   30.6263   25.5587    7.2001 O   0  0  0  0  0  0  0  0  0  0  0  0
   27.1794   22.3894    5.3615 C   0  0  0  0  0  0  0  0  0  0  0  0
   31.9766   22.4377   12.7749 C   0  0  0  0  0  0  0  0  0  0  0  0
   32.9380   23.0970   13.6113 N   0  0  0  0  0  0  0  0  0  0  0  0
   27.3265   23.7780    4.7377 C   0  0  0  0  0  0  0  0  0  0  0  0
   26.0583   24.4914    4.9839 N   0  0  0  0  0  0  0  0  0  0  0  0
   25.9118   25.9132    4.4377 C   0  0  0  0  0  0  0  0  0  0  0  0
  1  2  1  1  0  0  0
  1  8  1  0  0  0  0
  1 33  1  0  0  0  0
  3  4  1  1  0  0  0
  3 10  1  0  0  0  0
  3 42  1  0  0  0  0
  5 11  1  0  0  0  0
  5 29  1  0  0  0  0
  5 35  1  1  0  0  0
  6 13  1  0  0  0  0
  6 39  1  0  0  0  0
  6 22  1  6  0  0  0
  7 15  1  0  0  0  0
  8  9  1  6  0  0  0
  8 17  1  0  0  0  0
 10 19  1  0  0  0  0
 11 12  1  6  0  0  0
 11 21  1  0  0  0  0
 12 44  1  0  0  0  0
 13 14  1  6  0  0  0
 13 23  1  0  0  0  0
 15 16  1  0  0  0  0
 17 18  1  6  0  0  0
 17 25  1  0  0  0  0
 19 20  1  1  0  0  0
 19 27  1  0  0  0  0
 21 22  1  6  0  0  0
 21 28  1  0  0  0  0
 23 24  1  1  0  0  0
 23 30  1  0  0  0  0
 25 26  1  1  0  0  0
 25 32  1  0  0  0  0
 27  2  1  6  0  0  0
 27 34  1  0  0  0  0
 28 29  1  0  0  0  0
 28 36  1  1  0  0  0
 30 31  1  6  0  0  0
 30 38  1  0  0  0  0
 32 33  1  0  0  0  0
 32 40  1  1  0  0  0
 34 35  1  1  0  0  0
 34 42  1  0  0  0  0
 36 37  1  0  0  0  0
 38 39  1  0  0  0  0
 38 45  1  6  0  0  0
 40 41  1  0  0  0  0
 42 43  1  6  0  0  0
 44 47  1  0  0  0  0
 45 46  1  0  0  0  0
 47 48  1  0  0  0  0
 48 49  1  0  0  0  0
 49  7  1  0  0  0  0
M  END
>  <CHROM.1>
-143.84490582,-47.81755375,7.38288113,79.57009473,66.45510743,-43.99500030
104.29189094,-166.36693150,-70.09175291,87.29768504,-88.09192292,49.58344550
-58.85283868,-178.79698278,172.86369017,-58.80474427,27.25324798,26.03778065
8.81227365,3.01502497,0.74632570,-2.28569001

>  <Name>
2bee_lig

>  <RI>
0

>  <Rbt.Current_Directory>
/home/itssahil/PROJECTS/Mol_Feturizer/New_Systems/rnas/2bee

>  <Rbt.Executable>
rbdock ($Id: //depot/dev/client3/rdock/2013.1/src/exe/rbdock.cxx#4 $)

>  <Rbt.Library>
libRbt.so (2013.1, Build901 2013/11/27)

>  <Rbt.Parameter_File>
/export/apps/rDock/src/rDock_2013.1_src/data/scripts/dock_solv.prm

>  <Rbt.Receptor>
prm/blind_docking_100.prm

>  <SCORE>
141.252

>  <SCORE.INTER>
101.02

>  <SCORE.INTER.CONST>
1

>  <SCORE.INTER.POLAR>
-0.300959

>  <SCORE.INTER.ROT>
16

>  <SCORE.INTER.SOLV>
35.4071

>  <SCORE.INTER.VDW>
42.281

>  <SCORE.INTER.norm>
2.06164

>  <SCORE.INTRA>
21.4972

>  <SCORE.INTRA.DIHEDRAL>
-10.0496

>  <SCORE.INTRA.DIHEDRAL.0>
36.0842

>  <SCORE.INTRA.POLAR>
0

>  <SCORE.INTRA.POLAR.0>
0

>  <SCORE.INTRA.REPUL>
0

>  <SCORE.INTRA.REPUL.0>
0

>  <SCORE.INTRA.SOLV>
17.4734

>  <SCORE.INTRA.SOLV.lig_0>
-126.444

>  <SCORE.INTRA.VDW>
17.7853

>  <SCORE.INTRA.VDW.0>
-7.40469

>  <SCORE.INTRA.norm>
0.438718

>  <SCORE.RESTR>
18.735

>  <SCORE.RESTR.CAVITY>
18.735

>  <SCORE.RESTR.norm>
0.382347

>  <SCORE.SYSTEM>
0

>  <SCORE.SYSTEM.CONST>
0

>  <SCORE.SYSTEM.DIHEDRAL>
0

>  <SCORE.SYSTEM.SOLV>
0

>  <SCORE.SYSTEM.norm>
0

>  <SCORE.heavy>
49

>  <SCORE.norm>
2.8827

>  <RMSD>
30.282

$$$$
2bee_lig
 OpenBabel11021811423D
libRbt.so/2013.1/901 2013/11/27
 49 52  0  0  0  0  0  0  0  0999 V2000
   29.0767   24.3182    9.6834 C   0  0  2  0  0  0  0  0  0  0  0  0
   27.8312   25.0038    9.7085 O   0  0  0  0  0  0  0  0  0  0  0  0
   24.8542   21.8356    9.0193 C   0  0  2  0  0  0  0  0  0  0  0  0
   23.5801   21.1846    8.6100 N   0  0  0  0  0  0  0  0  0  0  0  0
   27.1844   24.6798    6.2611 C   0  0  1  0  0  0  0  0  0  0  0  0
   24.9480   28.9142    6.0951 C   0  0  1  0  0  0  0  0  0  0  0  0
   25.3021   23.5309   -0.0011 C   0  0  0  0  0  0  0  0  0  0  0  0
   29.5785   24.0394   11.1529 C   0  0  2  0  0  0  0  0  0  0  0  0
   28.5517   23.3265   11.9051 N   0  0  0  0  0  0  0  0  0  0  0  0
   24.5411   22.9981   10.0674 C   0  0  0  0  0  0  0  0  0  0  0  0
   26.1444   25.2380    5.3449 C   0  0  2  0  0  0  0  0  0  0  0  0
   26.5507   25.2082    3.9291 O   0  0  0  0  0  0  0  0  0  0  0  0
   25.2611   29.6230    7.5201 C   0  0  2  0  0  0  0  0  0  0  0  0
   24.2334   29.1555    8.5093 N   0  0  0  0  0  0  0  0  0  0  0  0
   26.2616   24.5226   -0.3118 C   0  0  0  0  0  0  0  0  0  0  0  0
   26.9798   25.1384    0.7107 N   0  0  0  0  0  0  0  0  0  0  0  0
   29.9624   25.4186   11.8476 C   0  0  1  0  0  0  0  0  0  0  0  0
   30.4171   25.1574   13.1675 O   0  0  0  0  0  0  0  0  0  0  0  0
   25.9169   23.7481   10.5323 C   0  0  2  0  0  0  0  0  0  0  0  0
   25.6488   24.7810   11.4744 N   0  0  0  0  0  0  0  0  0  0  0  0
   25.9398   26.5369    6.0863 C   0  0  2  0  0  0  0  0  0  0  0  0
   24.9884   27.4923    6.3641 O   0  0  0  0  0  0  0  0  0  0  0  0
   25.1815   31.1797    7.3286 C   0  0  1  0  0  0  0  0  0  0  0  0
   26.2235   31.5568    6.3624 O   0  0  0  0  0  0  0  0  0  0  0  0
   31.0546   26.1207   11.0077 C   0  0  2  0  0  0  0  0  0  0  0  0
   31.4321   27.4228   11.6141 O   0  0  0  0  0  0  0  0  0  0  0  0
   26.6470   24.3563    9.2721 C   0  0  2  0  0  0  0  0  0  0  0  0
   27.4214   26.8886    6.6046 C   0  0  2  0  0  0  0  0  0  0  0  0
   27.8931   25.6679    6.9530 O   0  0  0  0  0  0  0  0  0  0  0  0
   23.6924   31.5776    6.7921 C   0  0  2  0  0  0  0  0  0  0  0  0
   22.6519   31.1909    7.7715 O   0  0  0  0  0  0  0  0  0  0  0  0
   30.5472   26.3862    9.5510 C   0  0  2  0  0  0  0  0  0  0  0  0
   30.1897   25.0808    9.0292 O   0  0  0  0  0  0  0  0  0  0  0  0
   26.9272   23.1792    8.2778 C   0  0  2  0  0  0  0  0  0  0  0  0
   27.5918   23.8223    7.2172 O   0  0  0  0  0  0  0  0  0  0  0  0
   27.5599   27.7961    7.8825 C   0  0  0  0  0  0  0  0  0  0  0  0
   28.9766   27.9844    8.1937 O   0  0  0  0  0  0  0  0  0  0  0  0
   23.3902   30.8347    5.4151 C   0  0  1  0  0  0  0  0  0  0  0  0
   23.5378   29.3497    5.6729 O   0  0  0  0  0  0  0  0  0  0  0  0
   31.6547   27.0319    8.8214 C   0  0  0  0  0  0  0  0  0  0  0  0
   31.6976   28.3420    9.0990 O   0  0  0  0  0  0  0  0  0  0  0  0
   25.5721   22.4902    7.8180 C   0  0  1  0  0  0  0  0  0  0  0  0
   25.8352   21.4384    6.9400 O   0  0  0  0  0  0  0  0  0  0  0  0
   25.8675   24.4521    2.8668 C   0  0  0  0  0  0  0  0  0  0  0  0
   21.9411   31.2719    5.0124 C   0  0  0  0  0  0  0  0  0  0  0  0
   21.9174   32.4694    4.2224 N   0  0  0  0  0  0  0  0  0  0  0  0
   24.4444   24.9876    2.7018 C   0  0  0  0  0  0  0  0  0  0  0  0
   23.6977   23.9787    1.9257 N   0  0  0  0  0  0  0  0  0  0  0  0
   23.8276   23.9990    0.4012 C   0  0  0  0  0  0  0  0  0  0  0  0
  1  2  1  1  0  0  0
  1  8  1  0  0  0  0
  1 33  1  0  0  0  0
  3  4  1  6  0  0  0
  3 10  1  0  0  0  0
  3 42  1  0  0  0  0
  5 11  1  0  0  0  0
  5 29  1  0  0  0  0
  5 35  1  1  0  0  0
  6 13  1  0  0  0  0
  6 39  1  0  0  0  0
  6 22  1  1  0  0  0
  7 15  1  0  0  0  0
  8  9  1  1  0  0  0
  8 17  1  0  0  0  0
 10 19  1  0  0  0  0
 11 12  1  6  0  0  0
 11 21  1  0  0  0  0
 12 44  1  0  0  0  0
 13 14  1  1  0  0  0
 13 23  1  0  0  0  0
 15 16  1  0  0  0  0
 17 18  1  1  0  0  0
 17 25  1  0  0  0  0
 19 20  1  1  0  0  0
 19 27  1  0  0  0  0
 21 22  1  6  0  0  0
 21 28  1  0  0  0  0
 23 24  1  6  0  0  0
 23 30  1  0  0  0  0
 25 26  1  1  0  0  0
 25 32  1  0  0  0  0
 27  2  1  1  0  0  0
 27 34  1  0  0  0  0
 28 29  1  0  0  0  0
 28 36  1  1  0  0  0
 30 31  1  1  0  0  0
 30 38  1  0  0  0  0
 32 33  1  0  0  0  0
 32 40  1  6  0  0  0
 34 35  1  6  0  0  0
 34 42  1  0  0  0  0
 36 37  1  0  0  0  0
 38 39  1  0  0  0  0
 38 45  1  1  0  0  0
 40 41  1  0  0  0  0
 42 43  1  6  0  0  0
 44 47  1  0  0  0  0
 45 46  1  0  0  0  0
 47 48  1  0  0  0  0
 48 49  1  0  0  0  0
 49  7  1  0  0  0  0
M  END
>  <CHROM.1>
-111.44754790,-29.16529804,-103.96639082,84.29801253,117.63158673,63.03246413
-120.59426623,95.15086401,179.42731928,-81.07035553,-71.01935726,89.06636064
-164.34737319,-82.99794190,69.81742771,-99.06940385,26.58688151,26.20114734
7.19720809,-0.06288435,0.97643922,-2.72908618

>  <Name>
2bee_lig

>  <RI>
0

>  <Rbt.Current_Directory>
/home/itssahil/PROJECTS/Mol_Feturizer/New_Systems/rnas/2bee

>  <Rbt.Executable>
rbdock ($Id: //depot/dev/client3/rdock/2013.1/src/exe/rbdock.cxx#4 $)

>  <Rbt.Library>
libRbt.so (2013.1, Build901 2013/11/27)

>  <Rbt.Parameter_File>
/export/apps/rDock/src/rDock_2013.1_src/data/scripts/dock_solv.prm

>  <Rbt.Receptor>
prm/blind_docking_100.prm

>  <SCORE>
47.2084

>  <SCORE.INTER>
1.37693

>  <SCORE.INTER.CONST>
1

>  <SCORE.INTER.POLAR>
-1.2789

>  <SCORE.INTER.ROT>
16

>  <SCORE.INTER.SOLV>
37.1964

>  <SCORE.INTER.VDW>
-21.4845

>  <SCORE.INTER.norm>
0.0281007

>  <SCORE.INTRA>
12.901

>  <SCORE.INTRA.DIHEDRAL>
6.64572

>  <SCORE.INTRA.DIHEDRAL.0>
36.0842

>  <SCORE.INTRA.POLAR>
0

>  <SCORE.INTRA.POLAR.0>
0

>  <SCORE.INTRA.REPUL>
0

>  <SCORE.INTRA.REPUL.0>
0

>  <SCORE.INTRA.SOLV>
5.53263

>  <SCORE.INTRA.SOLV.lig_0>
-126.444

>  <SCORE.INTRA.VDW>
6.81181

>  <SCORE.INTRA.VDW.0>
-7.40469

>  <SCORE.INTRA.norm>
0.263286

>  <SCORE.RESTR>
32.9305

>  <SCORE.RESTR.CAVITY>
32.9305

>  <SCORE.RESTR.norm>
0.672051

>  <SCORE.SYSTEM>
0

>  <SCORE.SYSTEM.CONST>
0

>  <SCORE.SYSTEM.DIHEDRAL>
0

>  <SCORE.SYSTEM.SOLV>
0

>  <SCORE.SYSTEM.norm>
0

>  <SCORE.heavy>
49

>  <SCORE.norm>
0.963437

>  <RMSD>
30.408

$$$$
2bee_lig
 OpenBabel11021811423D
libRbt.so/2013.1/901 2013/11/27
 49 52  0  0  0  0  0  0  0  0999 V2000
   24.4929   24.4331    9.5510 C   0  0  2  0  0  0  0  0  0  0  0  0
   23.9176   23.1371    9.4442 O   0  0  0  0  0  0  0  0  0  0  0  0
   24.0957   19.8194    6.5571 C   0  0  2  0  0  0  0  0  0  0  0  0
   24.0532   19.1005    5.2547 N   0  0  0  0  0  0  0  0  0  0  0  0
   26.8689   23.3548    7.1050 C   0  0  1  0  0  0  0  0  0  0  0  0
   26.1673   27.8076    7.2554 C   0  0  1  0  0  0  0  0  0  0  0  0
   26.7527   23.1769   -0.8673 C   0  0  0  0  0  0  0  0  0  0  0  0
   25.2075   24.6021   10.9473 C   0  0  2  0  0  0  0  0  0  0  0  0
   26.1779   23.5308   11.1454 N   0  0  0  0  0  0  0  0  0  0  0  0
   22.7232   20.6054    6.7721 C   0  0  0  0  0  0  0  0  0  0  0  0
   26.8669   24.1579    5.8450 C   0  0  2  0  0  0  0  0  0  0  0  0
   27.8174   23.6517    4.8398 O   0  0  0  0  0  0  0  0  0  0  0  0
   24.5682   27.5407    7.2071 C   0  0  2  0  0  0  0  0  0  0  0  0
   24.1126   27.6933    5.7850 N   0  0  0  0  0  0  0  0  0  0  0  0
   25.5930   22.4462   -1.2167 C   0  0  0  0  0  0  0  0  0  0  0  0
   25.7129   21.2401   -1.9033 N   0  0  0  0  0  0  0  0  0  0  0  0
   24.1109   24.6199   12.1001 C   0  0  1  0  0  0  0  0  0  0  0  0
   24.7627   24.7770   13.3521 O   0  0  0  0  0  0  0  0  0  0  0  0
   22.7356   21.4205    8.1887 C   0  0  2  0  0  0  0  0  0  0  0  0
   21.5116   22.1178    8.3939 N   0  0  0  0  0  0  0  0  0  0  0  0
   27.0445   25.5067    6.4992 C   0  0  2  0  0  0  0  0  0  0  0  0
   26.7391   26.8399    6.3430 O   0  0  0  0  0  0  0  0  0  0  0  0
   23.8608   28.5926    8.1340 C   0  0  1  0  0  0  0  0  0  0  0  0
   24.3467   28.3679    9.5033 O   0  0  0  0  0  0  0  0  0  0  0  0
   23.1189   25.7765   11.8362 C   0  0  2  0  0  0  0  0  0  0  0  0
   22.0666   25.8196   12.8834 O   0  0  0  0  0  0  0  0  0  0  0  0
   23.9378   22.4429    8.2074 C   0  0  2  0  0  0  0  0  0  0  0  0
   28.0239   25.1785    7.7323 C   0  0  2  0  0  0  0  0  0  0  0  0
   27.5522   23.9808    8.1532 O   0  0  0  0  0  0  0  0  0  0  0  0
   24.2190   30.0956    7.6086 C   0  0  2  0  0  0  0  0  0  0  0  0
   23.7274   30.3092    6.2287 O   0  0  0  0  0  0  0  0  0  0  0  0
   22.4213   25.6008   10.4462 C   0  0  2  0  0  0  0  0  0  0  0  0
   23.5031   25.5572    9.4807 O   0  0  0  0  0  0  0  0  0  0  0  0
   25.2548   21.6239    7.9898 C   0  0  2  0  0  0  0  0  0  0  0  0
   26.2496   22.6173    8.0473 O   0  0  0  0  0  0  0  0  0  0  0  0
   27.9817   26.1331    8.9824 C   0  0  0  0  0  0  0  0  0  0  0  0
   28.8855   25.6238   10.0135 O   0  0  0  0  0  0  0  0  0  0  0  0
   25.7967   30.3187    7.6223 C   0  0  1  0  0  0  0  0  0  0  0  0
   26.4030   29.2383    6.7512 O   0  0  0  0  0  0  0  0  0  0  0  0
   21.5176   26.7533   10.2703 C   0  0  0  0  0  0  0  0  0  0  0  0
   22.0636   27.8604   10.7914 O   0  0  0  0  0  0  0  0  0  0  0  0
   25.2290   20.8688    6.5928 C   0  0  1  0  0  0  0  0  0  0  0  0
   26.4028   20.1362    6.4146 O   0  0  0  0  0  0  0  0  0  0  0  0
   27.5020   22.6603    3.7983 C   0  0  0  0  0  0  0  0  0  0  0  0
   26.0191   31.7726    7.0839 C   0  0  0  0  0  0  0  0  0  0  0  0
   25.4933   31.9663    5.7630 N   0  0  0  0  0  0  0  0  0  0  0  0
   27.7127   23.2911    2.4211 C   0  0  0  0  0  0  0  0  0  0  0  0
   27.3781   22.2562    1.4236 N   0  0  0  0  0  0  0  0  0  0  0  0
   27.8837   22.4433   -0.0085 C   0  0  0  0  0  0  0  0  0  0  0  0
  1  2  1  1  0  0  0
  1  8  1  0  0  0  0
  1 33  1  0  0  0  0
  3  4  1  6  0  0  0
  3 10  1  0  0  0  0
  3 42  1  0  0  0  0
  5 11  1  0  0  0  0
  5 29  1  0  0  0  0
  5 35  1  1  0  0  0
  6 13  1  0  0  0  0
  6 39  1  0  0  0  0
  6 22  1  6  0  0  0
  7 15  1  0  0  0  0
  8  9  1  1  0  0  0
  8 17  1  0  0  0  0
 10 19  1  0  0  0  0
 11 12  1  6  0  0  0
 11 21  1  0  0  0  0
 12 44  1  0  0  0  0
 13 14  1  6  0  0  0
 13 23  1  0  0  0  0
 15 16  1  0  0  0  0
 17 18  1  1  0  0  0
 17 25  1  0  0  0  0
 19 20  1  6  0  0  0
 19 27  1  0  0  0  0
 21 22  1  6  0  0  0
 21 28  1  0  0  0  0
 23 24  1  1  0  0  0
 23 30  1  0  0  0  0
 25 26  1  1  0  0  0
 25 32  1  0  0  0  0
 27  2  1  1  0  0  0
 27 34  1  0  0  0  0
 28 29  1  0  0  0  0
 28 36  1  1  0  0  0
 30 31  1  6  0  0  0
 30 38  1  0  0  0  0
 32 33  1  0  0  0  0
 32 40  1  6  0  0  0
 34 35  1  6  0  0  0
 34 42  1  0  0  0  0
 36 37  1  0  0  0  0
 38 39  1  0  0  0  0
 38 45  1  6  0  0  0
 40 41  1  0  0  0  0
 42 43  1  1  0  0  0
 44 47  1  0  0  0  0
 45 46  1  0  0  0  0
 47 48  1  0  0  0  0
 48 49  1  0  0  0  0
 49  7  1  0  0  0  0
M  END
>  <CHROM.1>
-142.53102540,40.82285969,-81.23422474,-55.62434222,90.79325936,118.78622330
130.80779391,-154.62882582,176.93146840,36.38432832,-93.81633502,-59.06608281
-179.81182500,-161.95388167,-93.31794368,-71.95817537,25.24758022,24.90074255
7.23074200,2.38360940,1.23391181,0.21690138

>  <Name>
2bee_lig

>  <RI>
0

>  <Rbt.Current_Directory>
/home/itssahil/PROJECTS/Mol_Feturizer/New_Systems/rnas/2bee

>  <Rbt.Executable>
rbdock ($Id: //depot/dev/client3/rdock/2013.1/src/exe/rbdock.cxx#4 $)

>  <Rbt.Library>
libRbt.so (2013.1, Build901 2013/11/27)

>  <Rbt.Parameter_File>
/export/apps/rDock/src/rDock_2013.1_src/data/scripts/dock_solv.prm

>  <Rbt.Receptor>
prm/blind_docking_80.prm

>  <SCORE>
21.5703

>  <SCORE.INTER>
5.30779

>  <SCORE.INTER.CONST>
1

>  <SCORE.INTER.POLAR>
0

>  <SCORE.INTER.ROT>
16

>  <SCORE.INTER.SOLV>
24.4578

>  <SCORE.INTER.VDW>
-18.8807

>  <SCORE.INTER.norm>
0.108322

>  <SCORE.INTRA>
1.57192

>  <SCORE.INTRA.DIHEDRAL>
-2.70634

>  <SCORE.INTRA.DIHEDRAL.0>
36.0842

>  <SCORE.INTRA.POLAR>
0

>  <SCORE.INTRA.POLAR.0>
0

>  <SCORE.INTRA.REPUL>
0

>  <SCORE.INTRA.REPUL.0>
0

>  <SCORE.INTRA.SOLV>
3.66887

>  <SCORE.INTRA.SOLV.lig_0>
-126.444

>  <SCORE.INTRA.VDW>
1.09066

>  <SCORE.INTRA.VDW.0>
-7.40469

>  <SCORE.INTRA.norm>
0.03208

>  <SCORE.RESTR>
14.6906

>  <SCORE.RESTR.CAVITY>
14.6906

>  <SCORE.RESTR.norm>
0.299808

>  <SCORE.SYSTEM>
0

>  <SCORE.SYSTEM.CONST>
0

>  <SCORE.SYSTEM.DIHEDRAL>
0

>  <SCORE.SYSTEM.SOLV>
0

>  <SCORE.SYSTEM.norm>
0

>  <SCORE.heavy>
49

>  <SCORE.norm>
0.44021

>  <RMSD>
30.414

$$$$
2bee_lig
 OpenBabel11021811423D
libRbt.so/2013.1/901 2013/11/27
 49 52  0  0  0  0  0  0  0  0999 V2000
   26.8300   24.1251    6.0442 C   0  0  2  0  0  0  0  0  0  0  0  0
   25.6914   24.5032    5.2808 O   0  0  0  0  0  0  0  0  0  0  0  0
   24.0515   28.4924    4.4028 C   0  0  2  0  0  0  0  0  0  0  0  0
   23.3580   29.7922    4.6134 N   0  0  0  0  0  0  0  0  0  0  0  0
   27.3807   27.1076    7.1925 C   0  0  1  0  0  0  0  0  0  0  0  0
   29.9843   24.9049   10.4734 C   0  0  1  0  0  0  0  0  0  0  0  0
   22.4644   29.7130    8.4910 C   0  0  0  0  0  0  0  0  0  0  0  0
   27.0043   22.5572    6.0286 C   0  0  2  0  0  0  0  0  0  0  0  0
   27.0553   22.0734    4.6531 N   0  0  0  0  0  0  0  0  0  0  0  0
   23.0620   27.2980    4.7798 C   0  0  0  0  0  0  0  0  0  0  0  0
   27.0859   27.0293    8.6552 C   0  0  2  0  0  0  0  0  0  0  0  0
   26.8639   28.3505    9.2679 O   0  0  0  0  0  0  0  0  0  0  0  0
   29.6874   24.2792   11.9402 C   0  0  2  0  0  0  0  0  0  0  0  0
   28.9090   25.2908   12.7300 N   0  0  0  0  0  0  0  0  0  0  0  0
   22.9294   28.4026    8.7509 C   0  0  0  0  0  0  0  0  0  0  0  0
   22.0730   27.3164    8.5854 N   0  0  0  0  0  0  0  0  0  0  0  0
   25.8112   21.8877    6.8412 C   0  0  1  0  0  0  0  0  0  0  0  0
   25.9790   20.4775    6.8257 O   0  0  0  0  0  0  0  0  0  0  0  0
   23.7927   25.8505    4.5741 C   0  0  2  0  0  0  0  0  0  0  0  0
   22.9148   24.7782    4.8994 N   0  0  0  0  0  0  0  0  0  0  0  0
   28.2709   26.1703    9.0248 C   0  0  2  0  0  0  0  0  0  0  0  0
   28.6808   25.2109    9.9230 O   0  0  0  0  0  0  0  0  0  0  0  0
   31.0610   23.9680   12.6347 C   0  0  1  0  0  0  0  0  0  0  0  0
   31.7512   22.9637   11.8120 O   0  0  0  0  0  0  0  0  0  0  0  0
   25.8145   22.4360    8.2871 C   0  0  2  0  0  0  0  0  0  0  0  0
   24.7040   21.8470    9.0782 O   0  0  0  0  0  0  0  0  0  0  0  0
   25.0849   25.7703    5.4769 C   0  0  2  0  0  0  0  0  0  0  0  0
   29.4238   26.7118    8.0424 C   0  0  2  0  0  0  0  0  0  0  0  0
   28.7360   26.9272    6.8958 O   0  0  0  0  0  0  0  0  0  0  0  0
   31.9264   25.3468   12.7513 C   0  0  2  0  0  0  0  0  0  0  0  0
   31.2207   26.3506   13.5794 O   0  0  0  0  0  0  0  0  0  0  0  0
   25.6470   23.9922    8.2891 C   0  0  2  0  0  0  0  0  0  0  0  0
   26.7525   24.4945    7.4954 O   0  0  0  0  0  0  0  0  0  0  0  0
   26.0168   26.9614    5.0705 C   0  0  2  0  0  0  0  0  0  0  0  0
   27.1322   26.7811    5.9091 O   0  0  0  0  0  0  0  0  0  0  0  0
   30.5993   25.7328    7.6742 C   0  0  0  0  0  0  0  0  0  0  0  0
   31.7765   26.0633    8.4770 O   0  0  0  0  0  0  0  0  0  0  0  0
   32.1667   25.9662   11.3030 C   0  0  1  0  0  0  0  0  0  0  0  0
   30.8018   26.1869   10.6852 O   0  0  0  0  0  0  0  0  0  0  0  0
   25.6852   24.4266    9.6982 C   0  0  0  0  0  0  0  0  0  0  0  0
   26.7024   23.8385   10.3423 O   0  0  0  0  0  0  0  0  0  0  0  0
   25.2939   28.3550    5.3107 C   0  0  1  0  0  0  0  0  0  0  0  0
   26.1302   29.4072    4.9370 O   0  0  0  0  0  0  0  0  0  0  0  0
   25.6943   29.2111    9.0266 C   0  0  0  0  0  0  0  0  0  0  0  0
   32.9806   27.2832   11.5404 C   0  0  0  0  0  0  0  0  0  0  0  0
   32.7372   28.2796   10.5371 N   0  0  0  0  0  0  0  0  0  0  0  0
   25.9147   30.0140    7.7437 C   0  0  0  0  0  0  0  0  0  0  0  0
   24.5794   30.4061    7.2526 N   0  0  0  0  0  0  0  0  0  0  0  0
   23.5423   30.8736    8.2759 C   0  0  0  0  0  0  0  0  0  0  0  0
  1  2  1  6  0  0  0
  1  8  1  0  0  0  0
  1 33  1  0  0  0  0
  3  4  1  1  0  0  0
  3 10  1  0  0  0  0
  3 42  1  0  0  0  0
  5 11  1  0  0  0  0
  5 29  1  0  0  0  0
  5 35  1  6  0  0  0
  6 13  1  0  0  0  0
  6 39  1  0  0  0  0
  6 22  1  1  0  0  0
  7 15  1  0  0  0  0
  8  9  1  6  0  0  0
  8 17  1  0  0  0  0
 10 19  1  0  0  0  0
 11 12  1  1  0  0  0
 11 21  1  0  0  0  0
 12 44  1  0  0  0  0
 13 14  1  1  0  0  0
 13 23  1  0  0  0  0
 15 16  1  0  0  0  0
 17 18  1  1  0  0  0
 17 25  1  0  0  0  0
 19 20  1  1  0  0  0
 19 27  1  0  0  0  0
 21 22  1  1  0  0  0
 21 28  1  0  0  0  0
 23 24  1  6  0  0  0
 23 30  1  0  0  0  0
 25 26  1  1  0  0  0
 25 32  1  0  0  0  0
 27  2  1  6  0  0  0
 27 34  1  0  0  0  0
 28 29  1  0  0  0  0
 28 36  1  6  0  0  0
 30 31  1  1  0  0  0
 30 38  1  0  0  0  0
 32 33  1  0  0  0  0
 32 40  1  1  0  0  0
 34 35  1  1  0  0  0
 34 42  1  0  0  0  0
 36 37  1  0  0  0  0
 38 39  1  0  0  0  0
 38 45  1  1  0  0  0
 40 41  1  0  0  0  0
 42 43  1  6  0  0  0
 44 47  1  0  0  0  0
 45 46  1  0  0  0  0
 47 48  1  0  0  0  0
 48 49  1  0  0  0  0
 49  7  1  0  0  0  0
M  END
>  <CHROM.1>
160.11479608,60.34845544,150.94617024,-162.57606651,69.89041032,-83.32063024
-149.70460363,-175.70130586,-101.20506593,46.33655543,-81.68458035,-150.94703671
157.26200266,41.29583608,-105.22550817,49.72978513,27.16522552,26.03176090
8.22743260,2.99108723,-0.67794282,0.13414031

>  <Name>
2bee_lig

>  <RI>
0

>  <Rbt.Current_Directory>
/home/itssahil/PROJECTS/Mol_Feturizer/New_Systems/rnas/2bee

>  <Rbt.Executable>
rbdock ($Id: //depot/dev/client3/rdock/2013.1/src/exe/rbdock.cxx#4 $)

>  <Rbt.Library>
libRbt.so (2013.1, Build901 2013/11/27)

>  <Rbt.Parameter_File>
/export/apps/rDock/src/rDock_2013.1_src/data/scripts/dock_solv.prm

>  <Rbt.Receptor>
prm/blind_docking_100.prm

>  <SCORE>
53.825

>  <SCORE.INTER>
24.6548

>  <SCORE.INTER.CONST>
1

>  <SCORE.INTER.POLAR>
-0.782481

>  <SCORE.INTER.ROT>
16

>  <SCORE.INTER.SOLV>
27.1024

>  <SCORE.INTER.VDW>
-4.25603

>  <SCORE.INTER.norm>
0.503158

>  <SCORE.INTRA>
5.70362

>  <SCORE.INTRA.DIHEDRAL>
-9.46248

>  <SCORE.INTRA.DIHEDRAL.0>
36.0842

>  <SCORE.INTRA.POLAR>
0

>  <SCORE.INTRA.POLAR.0>
0

>  <SCORE.INTRA.REPUL>
0

>  <SCORE.INTRA.REPUL.0>
0

>  <SCORE.INTRA.SOLV>
6.78382

>  <SCORE.INTRA.SOLV.lig_0>
-126.444

>  <SCORE.INTRA.VDW>
7.04295

>  <SCORE.INTRA.VDW.0>
-7.40469

>  <SCORE.INTRA.norm>
0.1164

>  <SCORE.RESTR>
23.4666

>  <SCORE.RESTR.CAVITY>
23.4666

>  <SCORE.RESTR.norm>
0.478911

>  <SCORE.SYSTEM>
0

>  <SCORE.SYSTEM.CONST>
0

>  <SCORE.SYSTEM.DIHEDRAL>
0

>  <SCORE.SYSTEM.SOLV>
0

>  <SCORE.SYSTEM.norm>
0

>  <SCORE.heavy>
49

>  <SCORE.norm>
1.09847

>  <RMSD>
30.474

$$$$
2bee_lig
 OpenBabel11021811423D
libRbt.so/2013.1/901 2013/11/27
 49 52  0  0  0  0  0  0  0  0999 V2000
   28.5270   24.6415    9.2325 C   0  0  2  0  0  0  0  0  0  0  0  0
   27.2298   25.2043    9.3828 O   0  0  0  0  0  0  0  0  0  0  0  0
   24.4715   21.7750    9.3045 C   0  0  2  0  0  0  0  0  0  0  0  0
   23.2288   20.9901    9.0710 N   0  0  0  0  0  0  0  0  0  0  0  0
   26.4826   24.6178    6.1995 C   0  0  1  0  0  0  0  0  0  0  0  0
   25.1846   29.2371    6.2416 C   0  0  1  0  0  0  0  0  0  0  0  0
   28.2668   23.4193    2.1413 C   0  0  0  0  0  0  0  0  0  0  0  0
   28.9910   23.9663   10.5808 C   0  0  2  0  0  0  0  0  0  0  0  0
   27.9965   22.9938   11.0211 N   0  0  0  0  0  0  0  0  0  0  0  0
   24.1349   23.0375   10.2214 C   0  0  0  0  0  0  0  0  0  0  0  0
   25.3874   25.3884    5.5366 C   0  0  2  0  0  0  0  0  0  0  0  0
   25.3965   25.2529    4.0697 O   0  0  0  0  0  0  0  0  0  0  0  0
   25.4438   30.0667    7.6111 C   0  0  2  0  0  0  0  0  0  0  0  0
   24.2901   29.8111    8.5367 N   0  0  0  0  0  0  0  0  0  0  0  0
   28.1342   23.1242    3.5183 C   0  0  0  0  0  0  0  0  0  0  0  0
   28.1884   24.1522    4.4570 N   0  0  0  0  0  0  0  0  0  0  0  0
   29.2334   25.0938   11.6771 C   0  0  1  0  0  0  0  0  0  0  0  0
   29.6550   24.4773   12.8850 O   0  0  0  0  0  0  0  0  0  0  0  0
   25.4745   23.9345   10.4904 C   0  0  2  0  0  0  0  0  0  0  0  0
   25.1863   25.0584   11.3150 N   0  0  0  0  0  0  0  0  0  0  0  0
   25.6684   26.7072    6.2152 C   0  0  2  0  0  0  0  0  0  0  0  0
   25.0521   27.8564    6.6562 O   0  0  0  0  0  0  0  0  0  0  0  0
   25.5448   31.5930    7.2556 C   0  0  1  0  0  0  0  0  0  0  0  0
   26.7013   31.7603    6.3634 O   0  0  0  0  0  0  0  0  0  0  0  0
   30.2974   26.0866   11.1541 C   0  0  2  0  0  0  0  0  0  0  0  0
   30.5433   27.1672   12.1429 O   0  0  0  0  0  0  0  0  0  0  0  0
   26.0747   24.4256    9.1157 C   0  0  2  0  0  0  0  0  0  0  0  0
   27.2735   26.7185    6.3212 C   0  0  2  0  0  0  0  0  0  0  0  0
   27.5431   25.4261    6.6230 O   0  0  0  0  0  0  0  0  0  0  0  0
   24.1584   32.0682    6.5375 C   0  0  2  0  0  0  0  0  0  0  0  0
   23.0012   31.8928    7.4440 O   0  0  0  0  0  0  0  0  0  0  0  0
   29.8285   26.7451    9.8138 C   0  0  2  0  0  0  0  0  0  0  0  0
   29.5994   25.6372    8.9058 O   0  0  0  0  0  0  0  0  0  0  0  0
   26.3830   23.1533    8.2562 C   0  0  2  0  0  0  0  0  0  0  0  0
   26.9278   23.6998    7.0796 O   0  0  0  0  0  0  0  0  0  0  0  0
   27.9316   27.5836    7.4588 C   0  0  0  0  0  0  0  0  0  0  0  0
   27.0988   27.5219    8.6597 O   0  0  0  0  0  0  0  0  0  0  0  0
   23.9021   31.2093    5.2201 C   0  0  1  0  0  0  0  0  0  0  0  0
   23.8702   29.7547    5.6406 O   0  0  0  0  0  0  0  0  0  0  0  0
   30.9079   27.6520    9.3800 C   0  0  0  0  0  0  0  0  0  0  0  0
   31.8065   26.9898    8.6389 O   0  0  0  0  0  0  0  0  0  0  0  0
   25.0596   22.3186    7.9833 C   0  0  1  0  0  0  0  0  0  0  0  0
   25.3483   21.1839    7.2248 O   0  0  0  0  0  0  0  0  0  0  0  0
   24.1998   25.2318    3.2128 C   0  0  0  0  0  0  0  0  0  0  0  0
   22.5477   31.7344    4.6344 C   0  0  0  0  0  0  0  0  0  0  0  0
   22.6618   33.0361    4.0419 N   0  0  0  0  0  0  0  0  0  0  0  0
   24.5517   24.5889    1.8705 C   0  0  0  0  0  0  0  0  0  0  0  0
   25.7413   23.7464    2.1013 N   0  0  0  0  0  0  0  0  0  0  0  0
   27.0438   24.1267    1.3940 C   0  0  0  0  0  0  0  0  0  0  0  0
  1  2  1  1  0  0  0
  1  8  1  0  0  0  0
  1 33  1  0  0  0  0
  3  4  1  6  0  0  0
  3 10  1  0  0  0  0
  3 42  1  0  0  0  0
  5 11  1  0  0  0  0
  5 29  1  0  0  0  0
  5 35  1  1  0  0  0
  6 13  1  0  0  0  0
  6 39  1  0  0  0  0
  6 22  1  1  0  0  0
  7 15  1  0  0  0  0
  8  9  1  1  0  0  0
  8 17  1  0  0  0  0
 10 19  1  0  0  0  0
 11 12  1  6  0  0  0
 11 21  1  0  0  0  0
 12 44  1  0  0  0  0
 13 14  1  1  0  0  0
 13 23  1  0  0  0  0
 15 16  1  0  0  0  0
 17 18  1  1  0  0  0
 17 25  1  0  0  0  0
 19 20  1  1  0  0  0
 19 27  1  0  0  0  0
 21 22  1  6  0  0  0
 21 28  1  0  0  0  0
 23 24  1  6  0  0  0
 23 30  1  0  0  0  0
 25 26  1  1  0  0  0
 25 32  1  0  0  0  0
 27  2  1  1  0  0  0
 27 34  1  0  0  0  0
 28 29  1  0  0  0  0
 28 36  1  1  0  0  0
 30 31  1  1  0  0  0
 30 38  1  0  0  0  0
 32 33  1  0  0  0  0
 32 40  1  6  0  0  0
 34 35  1  6  0  0  0
 34 42  1  0  0  0  0
 36 37  1  0  0  0  0
 38 39  1  0  0  0  0
 38 45  1  1  0  0  0
 40 41  1  0  0  0  0
 42 43  1  6  0  0  0
 44 47  1  0  0  0  0
 45 46  1  0  0  0  0
 47 48  1  0  0  0  0
 48 49  1  0  0  0  0
 49  7  1  0  0  0  0
M  END
>  <CHROM.1>
-89.27952157,-22.79868240,-128.83965064,-73.32435341,145.74464474,-159.75277275
-115.47749591,100.97574288,36.45226642,87.62930348,-54.88146935,72.64429627
22.82498022,-115.32693854,161.16283420,-27.71212808,26.51865426,26.21836856
7.36704320,-0.52276270,-1.04885252,0.34509362

>  <Name>
2bee_lig

>  <RI>
0

>  <Rbt.Current_Directory>
/home/itssahil/PROJECTS/Mol_Feturizer/New_Systems/rnas/2bee

>  <Rbt.Executable>
rbdock ($Id: //depot/dev/client3/rdock/2013.1/src/exe/rbdock.cxx#4 $)

>  <Rbt.Library>
libRbt.so (2013.1, Build901 2013/11/27)

>  <Rbt.Parameter_File>
/export/apps/rDock/src/rDock_2013.1_src/data/scripts/dock_solv.prm

>  <Rbt.Receptor>
prm/blind_docking_100.prm

>  <SCORE>
39.5255

>  <SCORE.INTER>
-0.427642

>  <SCORE.INTER.CONST>
1

>  <SCORE.INTER.POLAR>
-1.6444

>  <SCORE.INTER.ROT>
16

>  <SCORE.INTER.SOLV>
37.2181

>  <SCORE.INTER.VDW>
-21.4764

>  <SCORE.INTER.norm>
-0.0087274

>  <SCORE.INTRA>
13.5409

>  <SCORE.INTRA.DIHEDRAL>
6.85711

>  <SCORE.INTRA.DIHEDRAL.0>
36.0842

>  <SCORE.INTRA.POLAR>
0

>  <SCORE.INTRA.POLAR.0>
0

>  <SCORE.INTRA.REPUL>
0

>  <SCORE.INTRA.REPUL.0>
0

>  <SCORE.INTRA.SOLV>
12.1845

>  <SCORE.INTRA.SOLV.lig_0>
-126.444

>  <SCORE.INTRA.VDW>
4.02008

>  <SCORE.INTRA.VDW.0>
-7.40469

>  <SCORE.INTRA.norm>
0.276345

>  <SCORE.RESTR>
26.4122

>  <SCORE.RESTR.CAVITY>
26.4122

>  <SCORE.RESTR.norm>
0.539025

>  <SCORE.SYSTEM>
0

>  <SCORE.SYSTEM.CONST>
0

>  <SCORE.SYSTEM.DIHEDRAL>
0

>  <SCORE.SYSTEM.SOLV>
0

>  <SCORE.SYSTEM.norm>
0

>  <SCORE.heavy>
49

>  <SCORE.norm>
0.806642

>  <RMSD>
30.518

$$$$
2bee_lig
 OpenBabel11021811423D
libRbt.so/2013.1/901 2013/11/27
 49 52  0  0  0  0  0  0  0  0999 V2000
   24.5468   25.3205    3.7887 C   0  0  2  0  0  0  0  0  0  0  0  0
   24.7335   25.8913    5.0777 O   0  0  0  0  0  0  0  0  0  0  0  0
   23.9539   30.1732    4.4202 C   0  0  2  0  0  0  0  0  0  0  0  0
   23.4874   31.5619    4.6824 N   0  0  0  0  0  0  0  0  0  0  0  0
   26.3974   27.0874    7.1961 C   0  0  1  0  0  0  0  0  0  0  0  0
   29.3799   24.2619    9.6337 C   0  0  1  0  0  0  0  0  0  0  0  0
   23.5327   31.1986    8.0160 C   0  0  0  0  0  0  0  0  0  0  0  0
   24.0102   23.8425    3.9164 C   0  0  2  0  0  0  0  0  0  0  0  0
   22.7994   23.8186    4.7300 N   0  0  0  0  0  0  0  0  0  0  0  0
   22.7280   29.1640    4.5837 C   0  0  0  0  0  0  0  0  0  0  0  0
   26.1424   25.8187    7.9432 C   0  0  2  0  0  0  0  0  0  0  0  0
   25.1005   25.9594    8.9751 O   0  0  0  0  0  0  0  0  0  0  0  0
   28.4421   23.8996   10.9065 C   0  0  2  0  0  0  0  0  0  0  0  0
   27.5042   25.0487   11.1369 N   0  0  0  0  0  0  0  0  0  0  0  0
   24.7624   31.6549    7.4866 C   0  0  0  0  0  0  0  0  0  0  0  0
   24.8712   32.9586    7.0078 N   0  0  0  0  0  0  0  0  0  0  0  0
   25.1503   22.9211    4.5355 C   0  0  1  0  0  0  0  0  0  0  0  0
   24.6601   21.5924    4.6422 O   0  0  0  0  0  0  0  0  0  0  0  0
   23.2035   27.6232    4.3163 C   0  0  2  0  0  0  0  0  0  0  0  0
   22.1148   26.7162    4.4510 N   0  0  0  0  0  0  0  0  0  0  0  0
   27.5817   25.5356    8.2997 C   0  0  2  0  0  0  0  0  0  0  0  0
   28.4589   24.5030    8.5430 O   0  0  0  0  0  0  0  0  0  0  0  0
   29.3660   23.6760   12.1565 C   0  0  1  0  0  0  0  0  0  0  0  0
   30.2385   22.5309   11.8581 O   0  0  0  0  0  0  0  0  0  0  0  0
   26.4005   22.9854    3.6276 C   0  0  2  0  0  0  0  0  0  0  0  0
   27.4974   22.1493    4.1786 O   0  0  0  0  0  0  0  0  0  0  0  0
   24.3477   27.2326    5.3309 C   0  0  2  0  0  0  0  0  0  0  0  0
   28.1790   27.0055    8.5645 C   0  0  2  0  0  0  0  0  0  0  0  0
   27.5727   27.7325    7.5961 O   0  0  0  0  0  0  0  0  0  0  0  0
   30.2294   25.0329   12.4336 C   0  0  2  0  0  0  0  0  0  0  0  0
   29.3406   26.1790   12.7303 O   0  0  0  0  0  0  0  0  0  0  0  0
   26.9195   24.4568    3.5040 C   0  0  2  0  0  0  0  0  0  0  0  0
   25.8002   25.2114    2.9729 O   0  0  0  0  0  0  0  0  0  0  0  0
   25.5201   28.2517    5.1323 C   0  0  2  0  0  0  0  0  0  0  0  0
   26.4809   27.8013    6.0565 O   0  0  0  0  0  0  0  0  0  0  0  0
   29.7261   27.2188    8.3725 C   0  0  0  0  0  0  0  0  0  0  0  0
   30.2012   28.2186    9.3286 O   0  0  0  0  0  0  0  0  0  0  0  0
   31.1078   25.3936   11.1540 C   0  0  1  0  0  0  0  0  0  0  0  0
   30.1513   25.5407    9.9891 O   0  0  0  0  0  0  0  0  0  0  0  0
   28.0904   24.4255    2.6074 C   0  0  0  0  0  0  0  0  0  0  0  0
   27.6992   24.3365    1.3290 O   0  0  0  0  0  0  0  0  0  0  0  0
   25.0385   29.7356    5.4297 C   0  0  1  0  0  0  0  0  0  0  0  0
   26.0886   30.6345    5.2409 O   0  0  0  0  0  0  0  0  0  0  0  0
   24.2469   27.1441    9.1621 C   0  0  0  0  0  0  0  0  0  0  0  0
   31.8685   26.7112   11.5258 C   0  0  0  0  0  0  0  0  0  0  0  0
   33.2356   26.4823   11.8962 N   0  0  0  0  0  0  0  0  0  0  0  0
   23.5483   27.4758    7.8427 C   0  0  0  0  0  0  0  0  0  0  0  0
   22.8326   28.7499    8.0490 N   0  0  0  0  0  0  0  0  0  0  0  0
   23.5258   29.8437    8.8641 C   0  0  0  0  0  0  0  0  0  0  0  0
  1  2  1  1  0  0  0
  1  8  1  0  0  0  0
  1 33  1  0  0  0  0
  3  4  1  1  0  0  0
  3 10  1  0  0  0  0
  3 42  1  0  0  0  0
  5 11  1  0  0  0  0
  5 29  1  0  0  0  0
  5 35  1  6  0  0  0
  6 13  1  0  0  0  0
  6 39  1  0  0  0  0
  6 22  1  6  0  0  0
  7 15  1  0  0  0  0
  8  9  1  1  0  0  0
  8 17  1  0  0  0  0
 10 19  1  0  0  0  0
 11 12  1  1  0  0  0
 11 21  1  0  0  0  0
 12 44  1  0  0  0  0
 13 14  1  1  0  0  0
 13 23  1  0  0  0  0
 15 16  1  0  0  0  0
 17 18  1  6  0  0  0
 17 25  1  0  0  0  0
 19 20  1  1  0  0  0
 19 27  1  0  0  0  0
 21 22  1  1  0  0  0
 21 28  1  0  0  0  0
 23 24  1  6  0  0  0
 23 30  1  0  0  0  0
 25 26  1  1  0  0  0
 25 32  1  0  0  0  0
 27  2  1  6  0  0  0
 27 34  1  0  0  0  0
 28 29  1  0  0  0  0
 28 36  1  6  0  0  0
 30 31  1  6  0  0  0
 30 38  1  0  0  0  0
 32 33  1  0  0  0  0
 32 40  1  6  0  0  0
 34 35  1  1  0  0  0
 34 42  1  0  0  0  0
 36 37  1  0  0  0  0
 38 39  1  0  0  0  0
 38 45  1  1  0  0  0
 40 41  1  0  0  0  0
 42 43  1  6  0  0  0
 44 47  1  0  0  0  0
 45 46  1  0  0  0  0
 47 48  1  0  0  0  0
 48 49  1  0  0  0  0
 49  7  1  0  0  0  0
M  END
>  <CHROM.1>
-138.22508343,69.56554913,71.01009158,-165.66328559,8.07869532,54.28869758
-129.46308291,25.52386740,-146.79181203,78.03638400,-24.53811844,101.54308226
-173.76809565,39.92120690,127.02785019,-108.96852630,26.54002162,26.48702404
7.16819802,-2.93632251,-0.83494768,0.61996527

>  <Name>
2bee_lig

>  <RI>
0

>  <Rbt.Current_Directory>
/home/itssahil/PROJECTS/Mol_Feturizer/New_Systems/rnas/2bee

>  <Rbt.Executable>
rbdock ($Id: //depot/dev/client3/rdock/2013.1/src/exe/rbdock.cxx#4 $)

>  <Rbt.Library>
libRbt.so (2013.1, Build901 2013/11/27)

>  <Rbt.Parameter_File>
/export/apps/rDock/src/rDock_2013.1_src/data/scripts/dock_solv.prm

>  <Rbt.Receptor>
prm/blind_docking_100.prm

>  <SCORE>
76.6638

>  <SCORE.INTER>
23.9781

>  <SCORE.INTER.CONST>
1

>  <SCORE.INTER.POLAR>
-0.825706

>  <SCORE.INTER.ROT>
16

>  <SCORE.INTER.SOLV>
26.7892

>  <SCORE.INTER.VDW>
-4.45867

>  <SCORE.INTER.norm>
0.489349

>  <SCORE.INTRA>
26.9602

>  <SCORE.INTRA.DIHEDRAL>
5.81115

>  <SCORE.INTRA.DIHEDRAL.0>
36.0842

>  <SCORE.INTRA.POLAR>
0

>  <SCORE.INTRA.POLAR.0>
0

>  <SCORE.INTRA.REPUL>
0.00287391

>  <SCORE.INTRA.REPUL.0>
0

>  <SCORE.INTRA.SOLV>
11.1446

>  <SCORE.INTRA.SOLV.lig_0>
-126.444

>  <SCORE.INTRA.VDW>
18.468

>  <SCORE.INTRA.VDW.0>
-7.40469

>  <SCORE.INTRA.norm>
0.550209

>  <SCORE.RESTR>
25.7255

>  <SCORE.RESTR.CAVITY>
25.7255

>  <SCORE.RESTR.norm>
0.52501

>  <SCORE.SYSTEM>
0

>  <SCORE.SYSTEM.CONST>
0

>  <SCORE.SYSTEM.DIHEDRAL>
0

>  <SCORE.SYSTEM.SOLV>
0

>  <SCORE.SYSTEM.norm>
0

>  <SCORE.heavy>
49

>  <SCORE.norm>
1.56457

>  <RMSD>
30.653

$$$$
2bee_lig
 OpenBabel11021811423D
libRbt.so/2013.1/901 2013/11/27
 49 52  0  0  0  0  0  0  0  0999 V2000
   24.0047   24.4823    6.1925 C   0  0  2  0  0  0  0  0  0  0  0  0
   24.2092   25.6335    7.0018 O   0  0  0  0  0  0  0  0  0  0  0  0
   23.8937   28.9363    4.1093 C   0  0  2  0  0  0  0  0  0  0  0  0
   23.5875   30.2858    3.5617 N   0  0  0  0  0  0  0  0  0  0  0  0
   26.3592   26.7883    7.9502 C   0  0  1  0  0  0  0  0  0  0  0  0
   29.9937   24.4706   10.0566 C   0  0  1  0  0  0  0  0  0  0  0  0
   23.6972   29.3654    9.1706 C   0  0  0  0  0  0  0  0  0  0  0  0
   25.0953   23.3877    6.5111 C   0  0  2  0  0  0  0  0  0  0  0  0
   25.0991   23.0863    7.9385 N   0  0  0  0  0  0  0  0  0  0  0  0
   22.5674   28.3064    4.7354 C   0  0  0  0  0  0  0  0  0  0  0  0
   26.4898   25.4466    8.5947 C   0  0  2  0  0  0  0  0  0  0  0  0
   25.5276   25.2400    9.6910 O   0  0  0  0  0  0  0  0  0  0  0  0
   29.0333   23.9562   11.2583 C   0  0  2  0  0  0  0  0  0  0  0  0
   28.0123   25.0228   11.5285 N   0  0  0  0  0  0  0  0  0  0  0  0
   24.4571   29.5938    7.9996 C   0  0  0  0  0  0  0  0  0  0  0  0
   25.7759   30.0310    8.1021 N   0  0  0  0  0  0  0  0  0  0  0  0
   26.5174   23.9034    6.0174 C   0  0  1  0  0  0  0  0  0  0  0  0
   27.4913   22.9102    6.3040 O   0  0  0  0  0  0  0  0  0  0  0  0
   22.8658   26.8260    5.3608 C   0  0  2  0  0  0  0  0  0  0  0  0
   21.6864   26.2519    5.9138 N   0  0  0  0  0  0  0  0  0  0  0  0
   27.9768   25.5187    8.8447 C   0  0  2  0  0  0  0  0  0  0  0  0
   29.1018   24.7321    8.9466 O   0  0  0  0  0  0  0  0  0  0  0  0
   29.9207   23.7006   12.5285 C   0  0  1  0  0  0  0  0  0  0  0  0
   30.8789   22.6387   12.1879 O   0  0  0  0  0  0  0  0  0  0  0  0
   26.4490   24.1995    4.5012 C   0  0  2  0  0  0  0  0  0  0  0  0
   27.7551   24.6995    4.0009 O   0  0  0  0  0  0  0  0  0  0  0  0
   23.9779   26.9304    6.4759 C   0  0  2  0  0  0  0  0  0  0  0  0
   28.2027   27.0700    9.2054 C   0  0  2  0  0  0  0  0  0  0  0  0
   27.3608   27.6839    8.3403 O   0  0  0  0  0  0  0  0  0  0  0  0
   30.6798   25.0858   12.9388 C   0  0  2  0  0  0  0  0  0  0  0  0
   29.7054   26.1477   13.2769 O   0  0  0  0  0  0  0  0  0  0  0  0
   25.3601   25.2820    4.1973 C   0  0  2  0  0  0  0  0  0  0  0  0
   24.1227   24.7331    4.7188 O   0  0  0  0  0  0  0  0  0  0  0  0
   25.2515   27.5551    5.8125 C   0  0  2  0  0  0  0  0  0  0  0  0
   26.1732   27.5795    6.8755 O   0  0  0  0  0  0  0  0  0  0  0  0
   29.6268   27.6875    8.9481 C   0  0  0  0  0  0  0  0  0  0  0  0
   29.8541   28.7906    9.8813 O   0  0  0  0  0  0  0  0  0  0  0  0
   31.5813   25.5953   11.7276 C   0  0  1  0  0  0  0  0  0  0  0  0
   30.6633   25.7665   10.5354 O   0  0  0  0  0  0  0  0  0  0  0  0
   25.3489   25.4818    2.7359 C   0  0  0  0  0  0  0  0  0  0  0  0
   25.0910   24.3270    2.1072 O   0  0  0  0  0  0  0  0  0  0  0  0
   24.9414   29.0047    5.2427 C   0  0  1  0  0  0  0  0  0  0  0  0
   26.0804   29.5468    4.6469 O   0  0  0  0  0  0  0  0  0  0  0  0
   24.0628   25.2461    9.5457 C   0  0  0  0  0  0  0  0  0  0  0  0
   32.2370   26.9279   12.2250 C   0  0  0  0  0  0  0  0  0  0  0  0
   33.2824   27.3939   11.3597 N   0  0  0  0  0  0  0  0  0  0  0  0
   23.5075   26.5638   10.0881 C   0  0  0  0  0  0  0  0  0  0  0  0
   22.5726   27.0823    9.0706 N   0  0  0  0  0  0  0  0  0  0  0  0
   22.3067   28.5888    9.0352 C   0  0  0  0  0  0  0  0  0  0  0  0
  1  2  1  1  0  0  0
  1  8  1  0  0  0  0
  1 33  1  0  0  0  0
  3  4  1  1  0  0  0
  3 10  1  0  0  0  0
  3 42  1  0  0  0  0
  5 11  1  0  0  0  0
  5 29  1  0  0  0  0
  5 35  1  6  0  0  0
  6 13  1  0  0  0  0
  6 39  1  0  0  0  0
  6 22  1  6  0  0  0
  7 15  1  0  0  0  0
  8  9  1  1  0  0  0
  8 17  1  0  0  0  0
 10 19  1  0  0  0  0
 11 12  1  1  0  0  0
 11 21  1  0  0  0  0
 12 44  1  0  0  0  0
 13 14  1  1  0  0  0
 13 23  1  0  0  0  0
 15 16  1  0  0  0  0
 17 18  1  6  0  0  0
 17 25  1  0  0  0  0
 19 20  1  1  0  0  0
 19 27  1  0  0  0  0
 21 22  1  1  0  0  0
 21 28  1  0  0  0  0
 23 24  1  6  0  0  0
 23 30  1  0  0  0  0
 25 26  1  1  0  0  0
 25 32  1  0  0  0  0
 27  2  1  6  0  0  0
 27 34  1  0  0  0  0
 28 29  1  0  0  0  0
 28 36  1  6  0  0  0
 30 31  1  6  0  0  0
 30 38  1  0  0  0  0
 32 33  1  0  0  0  0
 32 40  1  6  0  0  0
 34 35  1  1  0  0  0
 34 42  1  0  0  0  0
 36 37  1  0  0  0  0
 38 39  1  0  0  0  0
 38 45  1  1  0  0  0
 40 41  1  0  0  0  0
 42 43  1  6  0  0  0
 44 47  1  0  0  0  0
 45 46  1  0  0  0  0
 47 48  1  0  0  0  0
 48 49  1  0  0  0  0
 49  7  1  0  0  0  0
M  END
>  <CHROM.1>
143.02866092,46.51672221,54.38731263,-167.70950189,61.62798964,-104.26997874
-115.99162473,28.82300386,-152.12254621,58.16209076,31.19480833,168.69867196
131.99011505,-155.32889223,44.73703665,85.18076480,26.56873794,26.22971479
7.91586521,-2.83115740,-0.74417943,0.67495731

>  <Name>
2bee_lig

>  <RI>
0

>  <Rbt.Current_Directory>
/home/itssahil/PROJECTS/Mol_Feturizer/New_Systems/rnas/2bee

>  <Rbt.Executable>
rbdock ($Id: //depot/dev/client3/rdock/2013.1/src/exe/rbdock.cxx#4 $)

>  <Rbt.Library>
libRbt.so (2013.1, Build901 2013/11/27)

>  <Rbt.Parameter_File>
/export/apps/rDock/src/rDock_2013.1_src/data/scripts/dock_solv.prm

>  <Rbt.Receptor>
prm/blind_docking_100.prm

>  <SCORE>
55.5149

>  <SCORE.INTER>
14.5268

>  <SCORE.INTER.CONST>
1

>  <SCORE.INTER.POLAR>
-0.278829

>  <SCORE.INTER.ROT>
16

>  <SCORE.INTER.SOLV>
29.505

>  <SCORE.INTER.VDW>
-13.4877

>  <SCORE.INTER.norm>
0.296466

>  <SCORE.INTRA>
15.3476

>  <SCORE.INTRA.DIHEDRAL>
-2.4354

>  <SCORE.INTRA.DIHEDRAL.0>
36.0842

>  <SCORE.INTRA.POLAR>
0

>  <SCORE.INTRA.POLAR.0>
0

>  <SCORE.INTRA.REPUL>
0

>  <SCORE.INTRA.REPUL.0>
0

>  <SCORE.INTRA.SOLV>
16.1866

>  <SCORE.INTRA.SOLV.lig_0>
-126.444

>  <SCORE.INTRA.VDW>
8.47199

>  <SCORE.INTRA.VDW.0>
-7.40469

>  <SCORE.INTRA.norm>
0.313216

>  <SCORE.RESTR>
25.6405

>  <SCORE.RESTR.CAVITY>
25.6405

>  <SCORE.RESTR.norm>
0.523275

>  <SCORE.SYSTEM>
0

>  <SCORE.SYSTEM.CONST>
0

>  <SCORE.SYSTEM.DIHEDRAL>
0

>  <SCORE.SYSTEM.SOLV>
0

>  <SCORE.SYSTEM.norm>
0

>  <SCORE.heavy>
49

>  <SCORE.norm>
1.13296

>  <RMSD>
30.691

$$$$
2bee_lig
 OpenBabel11021811423D
libRbt.so/2013.1/901 2013/11/27
 49 52  0  0  0  0  0  0  0  0999 V2000
   23.9939   25.4699    6.1095 C   0  0  2  0  0  0  0  0  0  0  0  0
   24.5989   25.7947    7.3547 O   0  0  0  0  0  0  0  0  0  0  0  0
   24.3786   30.1895    7.2463 C   0  0  2  0  0  0  0  0  0  0  0  0
   24.4639   31.6017    7.7080 N   0  0  0  0  0  0  0  0  0  0  0  0
   27.3776   26.4065    7.7332 C   0  0  1  0  0  0  0  0  0  0  0  0
   31.4610   25.5536   10.1246 C   0  0  1  0  0  0  0  0  0  0  0  0
   24.4401   24.9652   10.2233 C   0  0  0  0  0  0  0  0  0  0  0  0
   25.0780   24.9316    5.0975 C   0  0  2  0  0  0  0  0  0  0  0  0
   25.8008   23.8105    5.6885 N   0  0  0  0  0  0  0  0  0  0  0  0
   23.4065   29.3744    8.2150 C   0  0  0  0  0  0  0  0  0  0  0  0
   28.2027   25.2039    8.0582 C   0  0  2  0  0  0  0  0  0  0  0  0
   27.4422   24.1602    8.7672 O   0  0  0  0  0  0  0  0  0  0  0  0
   30.4711   24.6375   11.0256 C   0  0  2  0  0  0  0  0  0  0  0  0
   29.2248   25.4278   11.2997 N   0  0  0  0  0  0  0  0  0  0  0  0
   23.1483   24.4470   10.4752 C   0  0  0  0  0  0  0  0  0  0  0  0
   22.8152   24.0034   11.7530 N   0  0  0  0  0  0  0  0  0  0  0  0
   26.0608   26.1181    4.6999 C   0  0  1  0  0  0  0  0  0  0  0  0
   27.0297   25.6256    3.7856 O   0  0  0  0  0  0  0  0  0  0  0  0
   23.2965   27.8119    7.7482 C   0  0  2  0  0  0  0  0  0  0  0  0
   22.4242   27.0784    8.6010 N   0  0  0  0  0  0  0  0  0  0  0  0
   29.3390   25.9468    8.7182 C   0  0  2  0  0  0  0  0  0  0  0  0
   30.6960   25.8834    8.9405 O   0  0  0  0  0  0  0  0  0  0  0  0
   31.2085   24.2787   12.3649 C   0  0  1  0  0  0  0  0  0  0  0  0
   32.4027   23.4968   12.0126 O   0  0  0  0  0  0  0  0  0  0  0  0
   25.2373   27.2692    4.0768 C   0  0  2  0  0  0  0  0  0  0  0  0
   26.1166   28.4068    3.7045 O   0  0  0  0  0  0  0  0  0  0  0  0
   24.7287   27.1485    7.7577 C   0  0  2  0  0  0  0  0  0  0  0  0
   28.5858   27.1481    9.4778 C   0  0  2  0  0  0  0  0  0  0  0  0
   27.6298   27.4901    8.5816 O   0  0  0  0  0  0  0  0  0  0  0  0
   31.6016   25.6570   13.1454 C   0  0  2  0  0  0  0  0  0  0  0  0
   30.3920   26.4366   13.4925 O   0  0  0  0  0  0  0  0  0  0  0  0
   24.1619   27.7904    5.0877 C   0  0  2  0  0  0  0  0  0  0  0  0
   23.3518   26.6315    5.4118 O   0  0  0  0  0  0  0  0  0  0  0  0
   25.6405   27.9852    6.7979 C   0  0  2  0  0  0  0  0  0  0  0  0
   26.8683   27.3009    6.8637 O   0  0  0  0  0  0  0  0  0  0  0  0
   29.4019   28.4603    9.7742 C   0  0  0  0  0  0  0  0  0  0  0  0
   30.0602   28.3398   11.0748 O   0  0  0  0  0  0  0  0  0  0  0  0
   32.5367   26.5601   12.2239 C   0  0  1  0  0  0  0  0  0  0  0  0
   31.7763   26.8159   10.9394 O   0  0  0  0  0  0  0  0  0  0  0  0
   23.4140   28.8625    4.4044 C   0  0  0  0  0  0  0  0  0  0  0  0
   22.5573   29.4490    5.2514 O   0  0  0  0  0  0  0  0  0  0  0  0
   25.7553   29.4899    7.2930 C   0  0  1  0  0  0  0  0  0  0  0  0
   26.5624   30.2267    6.4258 O   0  0  0  0  0  0  0  0  0  0  0  0
   26.2567   23.4671    8.2369 C   0  0  0  0  0  0  0  0  0  0  0  0
   32.8285   27.8514   13.0610 C   0  0  0  0  0  0  0  0  0  0  0  0
   32.1710   29.0157   12.5407 N   0  0  0  0  0  0  0  0  0  0  0  0
   25.9928   22.2109    9.0684 C   0  0  0  0  0  0  0  0  0  0  0  0
   25.5255   22.6672   10.3918 N   0  0  0  0  0  0  0  0  0  0  0  0
   25.7053   24.1436   10.7515 C   0  0  0  0  0  0  0  0  0  0  0  0
  1  2  1  1  0  0  0
  1  8  1  0  0  0  0
  1 33  1  0  0  0  0
  3  4  1  1  0  0  0
  3 10  1  0  0  0  0
  3 42  1  0  0  0  0
  5 11  1  0  0  0  0
  5 29  1  0  0  0  0
  5 35  1  6  0  0  0
  6 13  1  0  0  0  0
  6 39  1  0  0  0  0
  6 22  1  6  0  0  0
  7 15  1  0  0  0  0
  8  9  1  1  0  0  0
  8 17  1  0  0  0  0
 10 19  1  0  0  0  0
 11 12  1  1  0  0  0
 11 21  1  0  0  0  0
 12 44  1  0  0  0  0
 13 14  1  1  0  0  0
 13 23  1  0  0  0  0
 15 16  1  0  0  0  0
 17 18  1  6  0  0  0
 17 25  1  0  0  0  0
 19 20  1  1  0  0  0
 19 27  1  0  0  0  0
 21 22  1  1  0  0  0
 21 28  1  0  0  0  0
 23 24  1  6  0  0  0
 23 30  1  0  0  0  0
 25 26  1  1  0  0  0
 25 32  1  0  0  0  0
 27  2  1  6  0  0  0
 27 34  1  0  0  0  0
 28 29  1  0  0  0  0
 28 36  1  6  0  0  0
 30 31  1  6  0  0  0
 30 38  1  0  0  0  0
 32 33  1  0  0  0  0
 32 40  1  6  0  0  0
 34 35  1  1  0  0  0
 34 42  1  0  0  0  0
 36 37  1  0  0  0  0
 38 39  1  0  0  0  0
 38 45  1  1  0  0  0
 40 41  1  0  0  0  0
 42 43  1  6  0  0  0
 44 47  1  0  0  0  0
 45 46  1  0  0  0  0
 47 48  1  0  0  0  0
 48 49  1  0  0  0  0
 49  7  1  0  0  0  0
M  END
>  <CHROM.1>
109.44836296,144.90875651,24.23497040,47.55082094,60.68833486,164.21495230
-105.04657769,56.19946656,-89.44171435,-174.05498179,-17.45742007,-109.51485539
70.03662389,-13.48583430,87.23375672,46.39458258,27.03071531,26.52228712
8.55356272,2.66061967,-0.55003749,-0.51508950

>  <Name>
2bee_lig

>  <RI>
0

>  <Rbt.Current_Directory>
/home/itssahil/PROJECTS/Mol_Feturizer/New_Systems/rnas/2bee

>  <Rbt.Executable>
rbdock ($Id: //depot/dev/client3/rdock/2013.1/src/exe/rbdock.cxx#4 $)

>  <Rbt.Library>
libRbt.so (2013.1, Build901 2013/11/27)

>  <Rbt.Parameter_File>
/export/apps/rDock/src/rDock_2013.1_src/data/scripts/dock_solv.prm

>  <Rbt.Receptor>
prm/blind_docking_100.prm

>  <SCORE>
68.4307

>  <SCORE.INTER>
4.00098

>  <SCORE.INTER.CONST>
1

>  <SCORE.INTER.POLAR>
-0.736816

>  <SCORE.INTER.ROT>
16

>  <SCORE.INTER.SOLV>
25.3781

>  <SCORE.INTER.VDW>
-17.6027

>  <SCORE.INTER.norm>
0.0816526

>  <SCORE.INTRA>
40.4995

>  <SCORE.INTRA.DIHEDRAL>
0.330094

>  <SCORE.INTRA.DIHEDRAL.0>
36.0842

>  <SCORE.INTRA.POLAR>
0

>  <SCORE.INTRA.POLAR.0>
0

>  <SCORE.INTRA.REPUL>
0

>  <SCORE.INTRA.REPUL.0>
0

>  <SCORE.INTRA.SOLV>
17.6378

>  <SCORE.INTRA.SOLV.lig_0>
-126.444

>  <SCORE.INTRA.VDW>
31.5156

>  <SCORE.INTRA.VDW.0>
-7.40469

>  <SCORE.INTRA.norm>
0.82652

>  <SCORE.RESTR>
23.9303

>  <SCORE.RESTR.CAVITY>
23.9303

>  <SCORE.RESTR.norm>
0.488373

>  <SCORE.SYSTEM>
0

>  <SCORE.SYSTEM.CONST>
0

>  <SCORE.SYSTEM.DIHEDRAL>
0

>  <SCORE.SYSTEM.SOLV>
0

>  <SCORE.SYSTEM.norm>
0

>  <SCORE.heavy>
49

>  <SCORE.norm>
1.39655

>  <RMSD>
30.701

$$$$
2bee_lig
 OpenBabel11021811423D
libRbt.so/2013.1/901 2013/11/27
 49 52  0  0  0  0  0  0  0  0999 V2000
   23.1007   29.1854    5.3812 C   0  0  2  0  0  0  0  0  0  0  0  0
   24.0312   28.2687    4.8190 O   0  0  0  0  0  0  0  0  0  0  0  0
   21.7746   24.5379    4.2162 C   0  0  2  0  0  0  0  0  0  0  0  0
   21.2673   23.3071    3.5509 N   0  0  0  0  0  0  0  0  0  0  0  0
   26.0619   25.0741    6.0466 C   0  0  1  0  0  0  0  0  0  0  0  0
   29.3576   26.4810    9.1148 C   0  0  1  0  0  0  0  0  0  0  0  0
   26.9159   23.7059   10.8014 C   0  0  0  0  0  0  0  0  0  0  0  0
   23.4325   30.6565    4.9178 C   0  0  2  0  0  0  0  0  0  0  0  0
   23.4865   30.7218    3.4613 N   0  0  0  0  0  0  0  0  0  0  0  0
   21.4694   25.8028    3.2916 C   0  0  0  0  0  0  0  0  0  0  0  0
   27.3744   24.3988    6.2789 C   0  0  2  0  0  0  0  0  0  0  0  0
   27.2380   22.9586    6.5572 O   0  0  0  0  0  0  0  0  0  0  0  0
   30.8517   27.0924    8.9571 C   0  0  2  0  0  0  0  0  0  0  0  0
   31.7682   25.9811    8.5351 N   0  0  0  0  0  0  0  0  0  0  0  0
   25.7158   24.4330   10.9797 C   0  0  0  0  0  0  0  0  0  0  0  0
   24.5021   23.8787   10.5790 N   0  0  0  0  0  0  0  0  0  0  0  0
   24.8058   31.1177    5.5762 C   0  0  1  0  0  0  0  0  0  0  0  0
   25.0937   32.4438    5.1574 O   0  0  0  0  0  0  0  0  0  0  0  0
   22.0245   27.1759    3.9830 C   0  0  2  0  0  0  0  0  0  0  0  0
   21.7489   28.3113    3.1698 N   0  0  0  0  0  0  0  0  0  0  0  0
   27.8842   25.3653    7.3205 C   0  0  2  0  0  0  0  0  0  0  0  0
   29.0438   25.9133    7.8205 O   0  0  0  0  0  0  0  0  0  0  0  0
   31.2951   27.6837   10.3427 C   0  0  1  0  0  0  0  0  0  0  0  0
   30.3616   28.7697   10.6754 O   0  0  0  0  0  0  0  0  0  0  0  0
   24.6825   31.0308    7.1152 C   0  0  2  0  0  0  0  0  0  0  0  0
   25.9512   31.4389    7.7709 O   0  0  0  0  0  0  0  0  0  0  0  0
   23.5800   27.0622    4.2251 C   0  0  2  0  0  0  0  0  0  0  0  0
   26.5508   25.7478    8.1348 C   0  0  2  0  0  0  0  0  0  0  0  0
   25.6310   25.8276    7.1439 O   0  0  0  0  0  0  0  0  0  0  0  0
   31.2634   26.4993   11.4651 C   0  0  2  0  0  0  0  0  0  0  0  0
   32.2049   25.4108   11.1182 O   0  0  0  0  0  0  0  0  0  0  0  0
   24.3474   29.5686    7.5619 C   0  0  2  0  0  0  0  0  0  0  0  0
   23.1110   29.2367    6.8797 O   0  0  0  0  0  0  0  0  0  0  0  0
   23.8241   25.8085    5.1313 C   0  0  2  0  0  0  0  0  0  0  0  0
   25.2210   25.8167    5.3003 O   0  0  0  0  0  0  0  0  0  0  0  0
   26.5144   27.1317    8.8826 C   0  0  0  0  0  0  0  0  0  0  0  0
   26.5548   28.2156    7.9013 O   0  0  0  0  0  0  0  0  0  0  0  0
   29.7973   25.8839   11.5700 C   0  0  1  0  0  0  0  0  0  0  0  0
   29.4276   25.3858   10.1884 O   0  0  0  0  0  0  0  0  0  0  0  0
   24.2258   29.5856    9.0318 C   0  0  0  0  0  0  0  0  0  0  0  0
   24.0050   28.3489    9.4979 O   0  0  0  0  0  0  0  0  0  0  0  0
   23.3049   24.4858    4.4218 C   0  0  1  0  0  0  0  0  0  0  0  0
   23.5198   23.3779    5.2419 O   0  0  0  0  0  0  0  0  0  0  0  0
   25.9680   22.2143    6.5706 C   0  0  0  0  0  0  0  0  0  0  0  0
   29.8932   24.7548   12.6512 C   0  0  0  0  0  0  0  0  0  0  0  0
   29.9236   23.4376   12.0832 N   0  0  0  0  0  0  0  0  0  0  0  0
   25.1904   22.5662    7.8397 C   0  0  0  0  0  0  0  0  0  0  0  0
   26.0325   22.1589    8.9812 N   0  0  0  0  0  0  0  0  0  0  0  0
   27.2075   23.0590    9.3692 C   0  0  0  0  0  0  0  0  0  0  0  0
  1  2  1  1  0  0  0
  1  8  1  0  0  0  0
  1 33  1  0  0  0  0
  3  4  1  6  0  0  0
  3 10  1  0  0  0  0
  3 42  1  0  0  0  0
  5 11  1  0  0  0  0
  5 29  1  0  0  0  0
  5 35  1  6  0  0  0
  6 13  1  0  0  0  0
  6 39  1  0  0  0  0
  6 22  1  6  0  0  0
  7 15  1  0  0  0  0
  8  9  1  6  0  0  0
  8 17  1  0  0  0  0
 10 19  1  0  0  0  0
 11 12  1  1  0  0  0
 11 21  1  0  0  0  0
 12 44  1  0  0  0  0
 13 14  1  1  0  0  0
 13 23  1  0  0  0  0
 15 16  1  0  0  0  0
 17 18  1  1  0  0  0
 17 25  1  0  0  0  0
 19 20  1  6  0  0  0
 19 27  1  0  0  0  0
 21 22  1  1  0  0  0
 21 28  1  0  0  0  0
 23 24  1  1  0  0  0
 23 30  1  0  0  0  0
 25 26  1  1  0  0  0
 25 32  1  0  0  0  0
 27  2  1  1  0  0  0
 27 34  1  0  0  0  0
 28 29  1  0  0  0  0
 28 36  1  6  0  0  0
 30 31  1  6  0  0  0
 30 38  1  0  0  0  0
 32 33  1  0  0  0  0
 32 40  1  1  0  0  0
 34 35  1  6  0  0  0
 34 42  1  0  0  0  0
 36 37  1  0  0  0  0
 38 39  1  0  0  0  0
 38 45  1  1  0  0  0
 40 41  1  0  0  0  0
 42 43  1  1  0  0  0
 44 47  1  0  0  0  0
 45 46  1  0  0  0  0
 47 48  1  0  0  0  0
 48 49  1  0  0  0  0
 49  7  1  0  0  0  0
M  END
>  <CHROM.1>
-133.94705285,146.29914423,-173.53661656,49.32651322,1.94155857,-74.12415964
-155.35551348,14.94365507,65.75750963,-176.87208123,174.17781885,-103.33692717
-60.82450473,77.64146356,112.85868242,-55.43339324,26.11065735,26.48947002
7.52089108,-2.82231759,0.69389973,3.07255291

>  <Name>
2bee_lig

>  <RI>
0

>  <Rbt.Current_Directory>
/home/itssahil/PROJECTS/Mol_Feturizer/New_Systems/rnas/2bee

>  <Rbt.Executable>
rbdock ($Id: //depot/dev/client3/rdock/2013.1/src/exe/rbdock.cxx#4 $)

>  <Rbt.Library>
libRbt.so (2013.1, Build901 2013/11/27)

>  <Rbt.Parameter_File>
/export/apps/rDock/src/rDock_2013.1_src/data/scripts/dock_solv.prm

>  <Rbt.Receptor>
prm/blind_docking_100.prm

>  <SCORE>
66.2049

>  <SCORE.INTER>
29.6591

>  <SCORE.INTER.CONST>
1

>  <SCORE.INTER.POLAR>
-0.934361

>  <SCORE.INTER.ROT>
16

>  <SCORE.INTER.SOLV>
33.5422

>  <SCORE.INTER.VDW>
-2.56012

>  <SCORE.INTER.norm>
0.605288

>  <SCORE.INTRA>
10.3772

>  <SCORE.INTRA.DIHEDRAL>
-0.70915

>  <SCORE.INTRA.DIHEDRAL.0>
36.0842

>  <SCORE.INTRA.POLAR>
0

>  <SCORE.INTRA.POLAR.0>
0

>  <SCORE.INTRA.REPUL>
0.00387669

>  <SCORE.INTRA.REPUL.0>
0

>  <SCORE.INTRA.SOLV>
10.7819

>  <SCORE.INTRA.SOLV.lig_0>
-126.444

>  <SCORE.INTRA.VDW>
5.3215

>  <SCORE.INTRA.VDW.0>
-7.40469

>  <SCORE.INTRA.norm>
0.21178

>  <SCORE.RESTR>
26.1686

>  <SCORE.RESTR.CAVITY>
26.1686

>  <SCORE.RESTR.norm>
0.534052

>  <SCORE.SYSTEM>
0

>  <SCORE.SYSTEM.CONST>
0

>  <SCORE.SYSTEM.DIHEDRAL>
0

>  <SCORE.SYSTEM.SOLV>
0

>  <SCORE.SYSTEM.norm>
0

>  <SCORE.heavy>
49

>  <SCORE.norm>
1.35112

>  <RMSD>
30.831

$$$$
2bee_lig
 OpenBabel11021811423D
libRbt.so/2013.1/901 2013/11/27
 49 52  0  0  0  0  0  0  0  0999 V2000
   23.8771   29.7890    9.2712 C   0  0  2  0  0  0  0  0  0  0  0  0
   25.2087   29.3238    9.0904 O   0  0  0  0  0  0  0  0  0  0  0  0
   25.2687   28.5881    4.7512 C   0  0  2  0  0  0  0  0  0  0  0  0
   25.8077   28.3620    3.3825 N   0  0  0  0  0  0  0  0  0  0  0  0
   25.9604   25.4885    7.9772 C   0  0  1  0  0  0  0  0  0  0  0  0
   29.6009   24.0819   10.2025 C   0  0  1  0  0  0  0  0  0  0  0  0
   25.3244   23.5503    3.1401 C   0  0  0  0  0  0  0  0  0  0  0  0
   22.9026   28.5750    9.5278 C   0  0  2  0  0  0  0  0  0  0  0  0
   23.3836   27.7764   10.6500 N   0  0  0  0  0  0  0  0  0  0  0  0
   25.8464   29.9603    5.3269 C   0  0  0  0  0  0  0  0  0  0  0  0
   27.0182   24.4857    7.6484 C   0  0  2  0  0  0  0  0  0  0  0  0
   26.6002   23.5303    6.6079 O   0  0  0  0  0  0  0  0  0  0  0  0
   29.6379   24.1802   11.8211 C   0  0  2  0  0  0  0  0  0  0  0  0
   28.5088   25.0663   12.2605 N   0  0  0  0  0  0  0  0  0  0  0  0
   24.8957   24.8407    2.7507 C   0  0  0  0  0  0  0  0  0  0  0  0
   25.8229   25.8734    2.6300 N   0  0  0  0  0  0  0  0  0  0  0  0
   22.7833   27.7070    8.1995 C   0  0  1  0  0  0  0  0  0  0  0  0
   21.9011   26.6200    8.4385 O   0  0  0  0  0  0  0  0  0  0  0  0
   25.2870   30.2386    6.8372 C   0  0  2  0  0  0  0  0  0  0  0  0
   25.7896   31.4651    7.3561 N   0  0  0  0  0  0  0  0  0  0  0  0
   27.2887   24.0480    9.0676 C   0  0  2  0  0  0  0  0  0  0  0  0
   28.2855   23.5666    9.8859 O   0  0  0  0  0  0  0  0  0  0  0  0
   31.0212   24.7872   12.2503 C   0  0  1  0  0  0  0  0  0  0  0  0
   32.0672   23.8579   11.7990 O   0  0  0  0  0  0  0  0  0  0  0  0
   22.2659   28.6064    7.0529 C   0  0  2  0  0  0  0  0  0  0  0  0
   22.1542   27.8373    5.7872 O   0  0  0  0  0  0  0  0  0  0  0  0
   25.7025   29.0502    7.7892 C   0  0  2  0  0  0  0  0  0  0  0  0
   25.8290   24.1016    9.7414 C   0  0  2  0  0  0  0  0  0  0  0  0
   25.3037   25.2177    9.1825 O   0  0  0  0  0  0  0  0  0  0  0  0
   31.1930   26.2611   11.5708 C   0  0  2  0  0  0  0  0  0  0  0  0
   30.1333   27.1868   12.0305 O   0  0  0  0  0  0  0  0  0  0  0  0
   23.2374   29.8097    6.8120 C   0  0  2  0  0  0  0  0  0  0  0  0
   23.3050   30.5041    8.0839 O   0  0  0  0  0  0  0  0  0  0  0  0
   25.1159   27.7324    7.1795 C   0  0  2  0  0  0  0  0  0  0  0  0
   25.5208   26.7555    8.1077 O   0  0  0  0  0  0  0  0  0  0  0  0
   25.7426   24.3059   11.2992 C   0  0  0  0  0  0  0  0  0  0  0  0
   24.3829   24.7043   11.6624 O   0  0  0  0  0  0  0  0  0  0  0  0
   31.1083   26.1453    9.9838 C   0  0  1  0  0  0  0  0  0  0  0  0
   29.7741   25.5069    9.6583 O   0  0  0  0  0  0  0  0  0  0  0  0
   22.6560   30.6205    5.7256 C   0  0  0  0  0  0  0  0  0  0  0  0
   21.6050   31.3202    6.1742 O   0  0  0  0  0  0  0  0  0  0  0  0
   25.7006   27.4703    5.7263 C   0  0  1  0  0  0  0  0  0  0  0  0
   25.1642   26.2991    5.1905 O   0  0  0  0  0  0  0  0  0  0  0  0
   26.3904   23.8604    5.1887 C   0  0  0  0  0  0  0  0  0  0  0  0
   31.2633   27.6089    9.4480 C   0  0  0  0  0  0  0  0  0  0  0  0
   32.6180   28.0797    9.4913 N   0  0  0  0  0  0  0  0  0  0  0  0
   27.7475   24.0125    4.5002 C   0  0  0  0  0  0  0  0  0  0  0  0
   27.7951   23.0016    3.4261 N   0  0  0  0  0  0  0  0  0  0  0  0
   26.6254   22.9382    2.4416 C   0  0  0  0  0  0  0  0  0  0  0  0
  1  2  1  6  0  0  0
  1  8  1  0  0  0  0
  1 33  1  0  0  0  0
  3  4  1  6  0  0  0
  3 10  1  0  0  0  0
  3 42  1  0  0  0  0
  5 11  1  0  0  0  0
  5 29  1  0  0  0  0
  5 35  1  1  0  0  0
  6 13  1  0  0  0  0
  6 39  1  0  0  0  0
  6 22  1  1  0  0  0
  7 15  1  0  0  0  0
  8  9  1  1  0  0  0
  8 17  1  0  0  0  0
 10 19  1  0  0  0  0
 11 12  1  6  0  0  0
 11 21  1  0  0  0  0
 12 44  1  0  0  0  0
 13 14  1  6  0  0  0
 13 23  1  0  0  0  0
 15 16  1  0  0  0  0
 17 18  1  1  0  0  0
 17 25  1  0  0  0  0
 19 20  1  1  0  0  0
 19 27  1  0  0  0  0
 21 22  1  6  0  0  0
 21 28  1  0  0  0  0
 23 24  1  6  0  0  0
 23 30  1  0  0  0  0
 25 26  1  6  0  0  0
 25 32  1  0  0  0  0
 27  2  1  1  0  0  0
 27 34  1  0  0  0  0
 28 29  1  0  0  0  0
 28 36  1  1  0  0  0
 30 31  1  1  0  0  0
 30 38  1  0  0  0  0
 32 33  1  0  0  0  0
 32 40  1  6  0  0  0
 34 35  1  1  0  0  0
 34 42  1  0  0  0  0
 36 37  1  0  0  0  0
 38 39  1  0  0  0  0
 38 45  1  6  0  0  0
 40 41  1  0  0  0  0
 42 43  1  6  0  0  0
 44 47  1  0  0  0  0
 45 46  1  0  0  0  0
 47 48  1  0  0  0  0
 48 49  1  0  0  0  0
 49  7  1  0  0  0  0
M  END
>  <CHROM.1>
92.84623801,76.71905717,125.12995297,-45.67551348,69.48360606,75.88646805
55.63700143,45.24858983,164.00834235,74.55174388,-141.37097096,76.41823480
119.73288060,51.21856241,-24.26512266,105.07939458,26.27336533,26.61729173
7.85241316,2.85877431,0.71441925,-2.09689279

>  <Name>
2bee_lig

>  <RI>
0

>  <Rbt.Current_Directory>
/home/itssahil/PROJECTS/Mol_Feturizer/New_Systems/rnas/2bee

>  <Rbt.Executable>
rbdock ($Id: //depot/dev/client3/rdock/2013.1/src/exe/rbdock.cxx#4 $)

>  <Rbt.Library>
libRbt.so (2013.1, Build901 2013/11/27)

>  <Rbt.Parameter_File>
/export/apps/rDock/src/rDock_2013.1_src/data/scripts/dock_solv.prm

>  <Rbt.Receptor>
prm/blind_docking_100.prm

>  <SCORE>
96.8997

>  <SCORE.INTER>
14.5455

>  <SCORE.INTER.CONST>
1

>  <SCORE.INTER.POLAR>
-1.08625

>  <SCORE.INTER.ROT>
16

>  <SCORE.INTER.SOLV>
37.5835

>  <SCORE.INTER.VDW>
-13.4766

>  <SCORE.INTER.norm>
0.296848

>  <SCORE.INTRA>
56.8634

>  <SCORE.INTRA.DIHEDRAL>
3.96168

>  <SCORE.INTRA.DIHEDRAL.0>
36.0842

>  <SCORE.INTRA.POLAR>
0

>  <SCORE.INTRA.POLAR.0>
0

>  <SCORE.INTRA.REPUL>
0

>  <SCORE.INTRA.REPUL.0>
0

>  <SCORE.INTRA.SOLV>
14.1539

>  <SCORE.INTRA.SOLV.lig_0>
-126.444

>  <SCORE.INTRA.VDW>
47.8056

>  <SCORE.INTRA.VDW.0>
-7.40469

>  <SCORE.INTRA.norm>
1.16048

>  <SCORE.RESTR>
25.4908

>  <SCORE.RESTR.CAVITY>
25.4908

>  <SCORE.RESTR.norm>
0.52022

>  <SCORE.SYSTEM>
0

>  <SCORE.SYSTEM.CONST>
0

>  <SCORE.SYSTEM.DIHEDRAL>
0

>  <SCORE.SYSTEM.SOLV>
0

>  <SCORE.SYSTEM.norm>
0

>  <SCORE.heavy>
49

>  <SCORE.norm>
1.97755

>  <RMSD>
30.923

$$$$
2bee_lig
 OpenBabel11021811423D
libRbt.so/2013.1/901 2013/11/27
 49 52  0  0  0  0  0  0  0  0999 V2000
   29.4900   24.4586    9.6730 C   0  0  2  0  0  0  0  0  0  0  0  0
   28.2358   25.1234    9.5891 O   0  0  0  0  0  0  0  0  0  0  0  0
   25.6474   21.8645    8.1559 C   0  0  2  0  0  0  0  0  0  0  0  0
   24.4279   21.1635    7.6699 N   0  0  0  0  0  0  0  0  0  0  0  0
   27.2957   25.9788    6.6064 C   0  0  1  0  0  0  0  0  0  0  0  0
   24.7140   29.4971    8.5583 C   0  0  1  0  0  0  0  0  0  0  0  0
   22.5774   25.9117    6.0295 C   0  0  0  0  0  0  0  0  0  0  0  0
   29.8884   24.2286   11.1821 C   0  0  2  0  0  0  0  0  0  0  0  0
   28.8207   23.5191   11.8786 N   0  0  0  0  0  0  0  0  0  0  0  0
   25.3322   22.5652    9.5550 C   0  0  0  0  0  0  0  0  0  0  0  0
   26.1474   26.9142    6.4091 C   0  0  2  0  0  0  0  0  0  0  0  0
   26.1733   27.5870    5.0987 O   0  0  0  0  0  0  0  0  0  0  0  0
   23.5280   29.0012    7.5691 C   0  0  2  0  0  0  0  0  0  0  0  0
   24.1485   28.5947    6.2641 N   0  0  0  0  0  0  0  0  0  0  0  0
   23.5021   26.0465    7.0913 C   0  0  0  0  0  0  0  0  0  0  0  0
   24.2151   24.9355    7.5363 N   0  0  0  0  0  0  0  0  0  0  0  0
   30.2004   25.6325   11.8632 C   0  0  1  0  0  0  0  0  0  0  0  0
   30.5623   25.4152   13.2192 O   0  0  0  0  0  0  0  0  0  0  0  0
   26.6459   23.3589   10.1170 C   0  0  2  0  0  0  0  0  0  0  0  0
   26.3773   23.9799   11.3694 N   0  0  0  0  0  0  0  0  0  0  0  0
   26.3230   27.6783    7.6990 C   0  0  2  0  0  0  0  0  0  0  0  0
   25.6181   28.3708    8.6574 O   0  0  0  0  0  0  0  0  0  0  0  0
   22.5244   30.1911    7.3614 C   0  0  1  0  0  0  0  0  0  0  0  0
   21.9521   30.5170    8.6759 O   0  0  0  0  0  0  0  0  0  0  0  0
   31.3398   26.3299   11.0843 C   0  0  2  0  0  0  0  0  0  0  0  0
   31.6529   27.6544   11.6790 O   0  0  0  0  0  0  0  0  0  0  0  0
   27.1002   24.4498    9.0707 C   0  0  2  0  0  0  0  0  0  0  0  0
   27.9220   27.7317    7.8667 C   0  0  2  0  0  0  0  0  0  0  0  0
   28.2890   26.4988    7.4433 O   0  0  0  0  0  0  0  0  0  0  0  0
   23.3254   31.4617    6.7231 C   0  0  2  0  0  0  0  0  0  0  0  0
   23.8990   31.1210    5.4016 O   0  0  0  0  0  0  0  0  0  0  0  0
   30.9351   26.5470    9.5880 C   0  0  2  0  0  0  0  0  0  0  0  0
   30.6359   25.2220    9.0791 O   0  0  0  0  0  0  0  0  0  0  0  0
   27.3927   23.7129    7.7203 C   0  0  2  0  0  0  0  0  0  0  0  0
   27.8065   24.7621    6.8790 O   0  0  0  0  0  0  0  0  0  0  0  0
   28.5066   27.8915    9.3188 C   0  0  0  0  0  0  0  0  0  0  0  0
   27.9187   29.0716    9.9522 O   0  0  0  0  0  0  0  0  0  0  0  0
   24.5128   31.9021    7.6902 C   0  0  1  0  0  0  0  0  0  0  0  0
   25.4010   30.6901    7.8789 O   0  0  0  0  0  0  0  0  0  0  0  0
   32.0826   27.1913    8.9218 C   0  0  0  0  0  0  0  0  0  0  0  0
   32.0095   28.5233    9.0469 O   0  0  0  0  0  0  0  0  0  0  0  0
   26.0919   22.9780    7.1816 C   0  0  1  0  0  0  0  0  0  0  0  0
   26.3672   22.3184    5.9835 O   0  0  0  0  0  0  0  0  0  0  0  0
   25.4572   27.1298    3.8966 C   0  0  0  0  0  0  0  0  0  0  0  0
   25.2155   33.1029    6.9710 C   0  0  0  0  0  0  0  0  0  0  0  0
   25.6728   32.7745    5.6513 N   0  0  0  0  0  0  0  0  0  0  0  0
   25.5716   25.6085    3.7893 C   0  0  0  0  0  0  0  0  0  0  0  0
   24.5886   25.0405    4.7322 N   0  0  0  0  0  0  0  0  0  0  0  0
   23.1259   25.4681    4.5952 C   0  0  0  0  0  0  0  0  0  0  0  0
  1  2  1  1  0  0  0
  1  8  1  0  0  0  0
  1 33  1  0  0  0  0
  3  4  1  6  0  0  0
  3 10  1  0  0  0  0
  3 42  1  0  0  0  0
  5 11  1  0  0  0  0
  5 29  1  0  0  0  0
  5 35  1  1  0  0  0
  6 13  1  0  0  0  0
  6 39  1  0  0  0  0
  6 22  1  6  0  0  0
  7 15  1  0  0  0  0
  8  9  1  1  0  0  0
  8 17  1  0  0  0  0
 10 19  1  0  0  0  0
 11 12  1  6  0  0  0
 11 21  1  0  0  0  0
 12 44  1  0  0  0  0
 13 14  1  6  0  0  0
 13 23  1  0  0  0  0
 15 16  1  0  0  0  0
 17 18  1  1  0  0  0
 17 25  1  0  0  0  0
 19 20  1  1  0  0  0
 19 27  1  0  0  0  0
 21 22  1  6  0  0  0
 21 28  1  0  0  0  0
 23 24  1  1  0  0  0
 23 30  1  0  0  0  0
 25 26  1  1  0  0  0
 25 32  1  0  0  0  0
 27  2  1  1  0  0  0
 27 34  1  0  0  0  0
 28 29  1  0  0  0  0
 28 36  1  1  0  0  0
 30 31  1  6  0  0  0
 30 38  1  0  0  0  0
 32 33  1  0  0  0  0
 32 40  1  6  0  0  0
 34 35  1  6  0  0  0
 34 42  1  0  0  0  0
 36 37  1  0  0  0  0
 38 39  1  0  0  0  0
 38 45  1  6  0  0  0
 40 41  1  0  0  0  0
 42 43  1  6  0  0  0
 44 47  1  0  0  0  0
 45 46  1  0  0  0  0
 47 48  1  0  0  0  0
 48 49  1  0  0  0  0
 49  7  1  0  0  0  0
M  END
>  <CHROM.1>
-112.29114208,-34.14446554,58.55351939,-62.89941213,94.78361771,-41.21586887
-55.23994584,70.85538444,-54.53583207,-87.49792882,-48.61761756,-56.61110265
78.94988172,55.41337198,-130.51445770,9.53062073,26.70810865,26.71904788
8.08415384,0.60403875,0.61420059,3.14099816

>  <Name>
2bee_lig

>  <RI>
0

>  <Rbt.Current_Directory>
/home/itssahil/PROJECTS/Mol_Feturizer/New_Systems/rnas/2bee

>  <Rbt.Executable>
rbdock ($Id: //depot/dev/client3/rdock/2013.1/src/exe/rbdock.cxx#4 $)

>  <Rbt.Library>
libRbt.so (2013.1, Build901 2013/11/27)

>  <Rbt.Parameter_File>
/export/apps/rDock/src/rDock_2013.1_src/data/scripts/dock_solv.prm

>  <Rbt.Receptor>
prm/blind_docking_100.prm

>  <SCORE>
37.6989

>  <SCORE.INTER>
3.24761

>  <SCORE.INTER.CONST>
1

>  <SCORE.INTER.POLAR>
-1.45581

>  <SCORE.INTER.ROT>
16

>  <SCORE.INTER.SOLV>
31.9892

>  <SCORE.INTER.VDW>
-17.9119

>  <SCORE.INTER.norm>
0.0662779

>  <SCORE.INTRA>
16.8922

>  <SCORE.INTRA.DIHEDRAL>
-4.00143

>  <SCORE.INTRA.DIHEDRAL.0>
36.0842

>  <SCORE.INTRA.POLAR>
0

>  <SCORE.INTRA.POLAR.0>
0

>  <SCORE.INTRA.REPUL>
0.0146664

>  <SCORE.INTRA.REPUL.0>
0

>  <SCORE.INTRA.SOLV>
22.9319

>  <SCORE.INTRA.SOLV.lig_0>
-126.444

>  <SCORE.INTRA.VDW>
7.3536

>  <SCORE.INTRA.VDW.0>
-7.40469

>  <SCORE.INTRA.norm>
0.344738

>  <SCORE.RESTR>
17.5591

>  <SCORE.RESTR.CAVITY>
17.5591

>  <SCORE.RESTR.norm>
0.358349

>  <SCORE.SYSTEM>
0

>  <SCORE.SYSTEM.CONST>
0

>  <SCORE.SYSTEM.DIHEDRAL>
0

>  <SCORE.SYSTEM.SOLV>
0

>  <SCORE.SYSTEM.norm>
0

>  <SCORE.heavy>
49

>  <SCORE.norm>
0.769365

>  <RMSD>
30.943

$$$$
2bee_lig
 OpenBabel11021811423D
libRbt.so/2013.1/901 2013/11/27
 49 52  0  0  0  0  0  0  0  0999 V2000
   25.8626   28.3486    5.6787 C   0  0  2  0  0  0  0  0  0  0  0  0
   25.6742   28.4355    7.0855 O   0  0  0  0  0  0  0  0  0  0  0  0
   22.5406   29.4694    9.9985 C   0  0  2  0  0  0  0  0  0  0  0  0
   21.2040   29.8456   10.5342 N   0  0  0  0  0  0  0  0  0  0  0  0
   24.9104   25.7707    7.4382 C   0  0  1  0  0  0  0  0  0  0  0  0
   28.9193   25.8830    9.3974 C   0  0  1  0  0  0  0  0  0  0  0  0
   26.5038   21.4272    5.4200 C   0  0  0  0  0  0  0  0  0  0  0  0
   25.6254   29.7558    5.0061 C   0  0  2  0  0  0  0  0  0  0  0  0
   26.4780   30.7599    5.6333 N   0  0  0  0  0  0  0  0  0  0  0  0
   22.9998   30.5497    8.9169 C   0  0  0  0  0  0  0  0  0  0  0  0
   26.2172   25.6482    6.7241 C   0  0  2  0  0  0  0  0  0  0  0  0
   26.1052   24.9354    5.4398 O   0  0  0  0  0  0  0  0  0  0  0  0
   30.0817   26.6488    8.5647 C   0  0  2  0  0  0  0  0  0  0  0  0
   30.9746   25.6114    7.9485 N   0  0  0  0  0  0  0  0  0  0  0  0
   26.0608   22.1997    6.5190 C   0  0  0  0  0  0  0  0  0  0  0  0
   24.6973   22.3990    6.7229 N   0  0  0  0  0  0  0  0  0  0  0  0
   24.0856   30.1402    5.1207 C   0  0  1  0  0  0  0  0  0  0  0  0
   23.8810   31.4054    4.5088 O   0  0  0  0  0  0  0  0  0  0  0  0
   24.4608   30.1640    8.2937 C   0  0  2  0  0  0  0  0  0  0  0  0
   24.8833   31.1269    7.3342 N   0  0  0  0  0  0  0  0  0  0  0  0
   26.9959   25.0781    7.8849 C   0  0  2  0  0  0  0  0  0  0  0  0
   28.2594   25.0327    8.4292 O   0  0  0  0  0  0  0  0  0  0  0  0
   30.8884   27.5578    9.5592 C   0  0  1  0  0  0  0  0  0  0  0  0
   29.9513   28.5507   10.1048 O   0  0  0  0  0  0  0  0  0  0  0  0
   23.2385   29.0431    4.4352 C   0  0  2  0  0  0  0  0  0  0  0  0
   21.7898   29.3556    4.5331 O   0  0  0  0  0  0  0  0  0  0  0  0
   24.3959   28.7379    7.6207 C   0  0  2  0  0  0  0  0  0  0  0  0
   25.9131   24.1370    8.6125 C   0  0  2  0  0  0  0  0  0  0  0  0
   24.7836   24.8767    8.5069 O   0  0  0  0  0  0  0  0  0  0  0  0
   31.5292   26.6262   10.7361 C   0  0  2  0  0  0  0  0  0  0  0  0
   32.4686   25.6293   10.1748 O   0  0  0  0  0  0  0  0  0  0  0  0
   23.4869   27.6515    5.1072 C   0  0  2  0  0  0  0  0  0  0  0  0
   24.9134   27.4190    4.9836 O   0  0  0  0  0  0  0  0  0  0  0  0
   23.9391   27.7199    8.7196 C   0  0  2  0  0  0  0  0  0  0  0  0
   23.9384   26.4958    8.0257 O   0  0  0  0  0  0  0  0  0  0  0  0
   26.1047   23.8411   10.1460 C   0  0  0  0  0  0  0  0  0  0  0  0
   26.9077   24.9044   10.7494 O   0  0  0  0  0  0  0  0  0  0  0  0
   30.3728   25.8500   11.5103 C   0  0  1  0  0  0  0  0  0  0  0  0
   29.6150   25.0423   10.4773 O   0  0  0  0  0  0  0  0  0  0  0  0
   22.6622   26.6693    4.3786 C   0  0  0  0  0  0  0  0  0  0  0  0
   22.7081   25.4762    4.9867 O   0  0  0  0  0  0  0  0  0  0  0  0
   22.5040   28.1002    9.2839 C   0  0  1  0  0  0  0  0  0  0  0  0
   22.1122   27.1918   10.2675 O   0  0  0  0  0  0  0  0  0  0  0  0
   27.0846   25.0053    4.3431 C   0  0  0  0  0  0  0  0  0  0  0  0
   31.1018   24.9814   12.5907 C   0  0  0  0  0  0  0  0  0  0  0  0
   30.1931   24.2553   13.4308 N   0  0  0  0  0  0  0  0  0  0  0  0
   27.9388   23.7367    4.3479 C   0  0  0  0  0  0  0  0  0  0  0  0
   27.2961   22.7878    3.4181 N   0  0  0  0  0  0  0  0  0  0  0  0
   26.1454   21.9278    3.9450 C   0  0  0  0  0  0  0  0  0  0  0  0
  1  2  1  1  0  0  0
  1  8  1  0  0  0  0
  1 33  1  0  0  0  0
  3  4  1  6  0  0  0
  3 10  1  0  0  0  0
  3 42  1  0  0  0  0
  5 11  1  0  0  0  0
  5 29  1  0  0  0  0
  5 35  1  1  0  0  0
  6 13  1  0  0  0  0
  6 39  1  0  0  0  0
  6 22  1  6  0  0  0
  7 15  1  0  0  0  0
  8  9  1  1  0  0  0
  8 17  1  0  0  0  0
 10 19  1  0  0  0  0
 11 12  1  6  0  0  0
 11 21  1  0  0  0  0
 12 44  1  0  0  0  0
 13 14  1  1  0  0  0
 13 23  1  0  0  0  0
 15 16  1  0  0  0  0
 17 18  1  6  0  0  0
 17 25  1  0  0  0  0
 19 20  1  6  0  0  0
 19 27  1  0  0  0  0
 21 22  1  6  0  0  0
 21 28  1  0  0  0  0
 23 24  1  1  0  0  0
 23 30  1  0  0  0  0
 25 26  1  1  0  0  0
 25 32  1  0  0  0  0
 27  2  1  1  0  0  0
 27 34  1  0  0  0  0
 28 29  1  0  0  0  0
 28 36  1  1  0  0  0
 30 31  1  6  0  0  0
 30 38  1  0  0  0  0
 32 33  1  0  0  0  0
 32 40  1  6  0  0  0
 34 35  1  6  0  0  0
 34 42  1  0  0  0  0
 36 37  1  0  0  0  0
 38 39  1  0  0  0  0
 38 45  1  1  0  0  0
 40 41  1  0  0  0  0
 42 43  1  1  0  0  0
 44 47  1  0  0  0  0
 45 46  1  0  0  0  0
 47 48  1  0  0  0  0
 48 49  1  0  0  0  0
 49  7  1  0  0  0  0
M  END
>  <CHROM.1>
65.11553411,-29.99563589,-111.63378057,61.29052661,160.47539075,102.43966525
90.42903931,-112.38357866,23.50213281,-173.28567574,63.63620302,177.22954948
93.42661203,-83.96635002,-40.80104758,92.85119385,26.14379086,26.59835614
7.62167145,3.09661826,-0.67957423,0.70341691

>  <Name>
2bee_lig

>  <RI>
0

>  <Rbt.Current_Directory>
/home/itssahil/PROJECTS/Mol_Feturizer/New_Systems/rnas/2bee

>  <Rbt.Executable>
rbdock ($Id: //depot/dev/client3/rdock/2013.1/src/exe/rbdock.cxx#4 $)

>  <Rbt.Library>
libRbt.so (2013.1, Build901 2013/11/27)

>  <Rbt.Parameter_File>
/export/apps/rDock/src/rDock_2013.1_src/data/scripts/dock_solv.prm

>  <Rbt.Receptor>
prm/blind_docking_100.prm

>  <SCORE>
44.4944

>  <SCORE.INTER>
3.87208

>  <SCORE.INTER.CONST>
1

>  <SCORE.INTER.POLAR>
-0.020197

>  <SCORE.INTER.ROT>
16

>  <SCORE.INTER.SOLV>
29.6393

>  <SCORE.INTER.VDW>
-21.4977

>  <SCORE.INTER.norm>
0.079022

>  <SCORE.INTRA>
14.4176

>  <SCORE.INTRA.DIHEDRAL>
3.46216

>  <SCORE.INTRA.DIHEDRAL.0>
36.0842

>  <SCORE.INTRA.POLAR>
0

>  <SCORE.INTRA.POLAR.0>
0

>  <SCORE.INTRA.REPUL>
0.0270288

>  <SCORE.INTRA.REPUL.0>
0

>  <SCORE.INTRA.SOLV>
11.3461

>  <SCORE.INTRA.SOLV.lig_0>
-126.444

>  <SCORE.INTRA.VDW>
6.87828

>  <SCORE.INTRA.VDW.0>
-7.40469

>  <SCORE.INTRA.norm>
0.294236

>  <SCORE.RESTR>
26.2047

>  <SCORE.RESTR.CAVITY>
26.2047

>  <SCORE.RESTR.norm>
0.53479

>  <SCORE.SYSTEM>
0

>  <SCORE.SYSTEM.CONST>
0

>  <SCORE.SYSTEM.DIHEDRAL>
0

>  <SCORE.SYSTEM.SOLV>
0

>  <SCORE.SYSTEM.norm>
0

>  <SCORE.heavy>
49

>  <SCORE.norm>
0.908048

>  <RMSD>
30.948

$$$$
2bee_lig
 OpenBabel11021811423D
libRbt.so/2013.1/901 2013/11/27
 49 52  0  0  0  0  0  0  0  0999 V2000
   28.2715   24.0533    8.3790 C   0  0  2  0  0  0  0  0  0  0  0  0
   27.9417   25.3151    7.8122 O   0  0  0  0  0  0  0  0  0  0  0  0
   30.7731   28.0388    9.7968 C   0  0  2  0  0  0  0  0  0  0  0  0
   31.6828   29.1991    9.9991 N   0  0  0  0  0  0  0  0  0  0  0  0
   26.4732   28.3958    8.1223 C   0  0  1  0  0  0  0  0  0  0  0  0
   24.9432   26.3218    4.4179 C   0  0  1  0  0  0  0  0  0  0  0  0
   23.1861   31.6166    8.0215 C   0  0  0  0  0  0  0  0  0  0  0  0
   26.9842   23.1476    8.4866 C   0  0  2  0  0  0  0  0  0  0  0  0
   26.3417   23.0347    7.1816 N   0  0  0  0  0  0  0  0  0  0  0  0
   31.2367   27.2223    8.5060 C   0  0  0  0  0  0  0  0  0  0  0  0
   26.4962   29.1004    6.8049 C   0  0  2  0  0  0  0  0  0  0  0  0
   26.2486   30.5478    6.9234 O   0  0  0  0  0  0  0  0  0  0  0  0
   25.8438   25.3728    5.3767 C   0  0  2  0  0  0  0  0  0  0  0  0
   27.2785   25.7889    5.2299 N   0  0  0  0  0  0  0  0  0  0  0  0
   23.4920   30.4859    8.8145 C   0  0  0  0  0  0  0  0  0  0  0  0
   22.6185   29.4012    8.8434 N   0  0  0  0  0  0  0  0  0  0  0  0
   25.9983   23.7626    9.5738 C   0  0  1  0  0  0  0  0  0  0  0  0
   24.8453   22.9386    9.6670 O   0  0  0  0  0  0  0  0  0  0  0  0
   30.2524   25.9445    8.2415 C   0  0  2  0  0  0  0  0  0  0  0  0
   30.6633   25.2044    7.0971 N   0  0  0  0  0  0  0  0  0  0  0  0
   25.5262   28.1827    6.1009 C   0  0  2  0  0  0  0  0  0  0  0  0
   25.2166   27.6729    4.8602 O   0  0  0  0  0  0  0  0  0  0  0  0
   25.6477   23.8816    4.9251 C   0  0  1  0  0  0  0  0  0  0  0  0
   24.2279   23.5492    5.1130 O   0  0  0  0  0  0  0  0  0  0  0  0
   26.7344   23.8512   10.9308 C   0  0  2  0  0  0  0  0  0  0  0  0
   25.8527   24.4360   11.9732 O   0  0  0  0  0  0  0  0  0  0  0  0
   28.7681   26.4441    8.0451 C   0  0  2  0  0  0  0  0  0  0  0  0
   24.4797   27.8101    7.2643 C   0  0  2  0  0  0  0  0  0  0  0  0
   25.2923   27.6778    8.3396 O   0  0  0  0  0  0  0  0  0  0  0  0
   26.0984   23.7314    3.3638 C   0  0  2  0  0  0  0  0  0  0  0  0
   27.5284   24.0709    3.1867 O   0  0  0  0  0  0  0  0  0  0  0  0
   28.0122   24.7470   10.8097 C   0  0  2  0  0  0  0  0  0  0  0  0
   28.8157   24.1250    9.7744 O   0  0  0  0  0  0  0  0  0  0  0  0
   28.3654   27.2388    9.3330 C   0  0  2  0  0  0  0  0  0  0  0  0
   27.0358   27.6118    9.0627 O   0  0  0  0  0  0  0  0  0  0  0  0
   23.6894   26.4553    7.1395 C   0  0  0  0  0  0  0  0  0  0  0  0
   23.0523   26.1446    8.4190 O   0  0  0  0  0  0  0  0  0  0  0  0
   25.2314   24.7053    2.4478 C   0  0  1  0  0  0  0  0  0  0  0  0
   25.4348   26.1087    2.9793 O   0  0  0  0  0  0  0  0  0  0  0  0
   28.6587   24.7546   12.1355 C   0  0  0  0  0  0  0  0  0  0  0  0
   29.9880   24.8633   12.0078 O   0  0  0  0  0  0  0  0  0  0  0  0
   29.3173   28.4919    9.5474 C   0  0  1  0  0  0  0  0  0  0  0  0
   28.9543   29.1862   10.7017 O   0  0  0  0  0  0  0  0  0  0  0  0
   25.7983   31.4233    5.8290 C   0  0  0  0  0  0  0  0  0  0  0  0
   25.7620   24.4916    0.9897 C   0  0  0  0  0  0  0  0  0  0  0  0
   27.1487   24.8299    0.8439 N   0  0  0  0  0  0  0  0  0  0  0  0
   24.7578   30.6836    4.9869 C   0  0  0  0  0  0  0  0  0  0  0  0
   23.6722   30.2866    5.9044 N   0  0  0  0  0  0  0  0  0  0  0  0
   22.7847   31.3861    6.4915 C   0  0  0  0  0  0  0  0  0  0  0  0
  1  2  1  1  0  0  0
  1  8  1  0  0  0  0
  1 33  1  0  0  0  0
  3  4  1  6  0  0  0
  3 10  1  0  0  0  0
  3 42  1  0  0  0  0
  5 11  1  0  0  0  0
  5 29  1  0  0  0  0
  5 35  1  6  0  0  0
  6 13  1  0  0  0  0
  6 39  1  0  0  0  0
  6 22  1  1  0  0  0
  7 15  1  0  0  0  0
  8  9  1  6  0  0  0
  8 17  1  0  0  0  0
 10 19  1  0  0  0  0
 11 12  1  1  0  0  0
 11 21  1  0  0  0  0
 12 44  1  0  0  0  0
 13 14  1  6  0  0  0
 13 23  1  0  0  0  0
 15 16  1  0  0  0  0
 17 18  1  1  0  0  0
 17 25  1  0  0  0  0
 19 20  1  6  0  0  0
 19 27  1  0  0  0  0
 21 22  1  6  0  0  0
 21 28  1  0  0  0  0
 23 24  1  6  0  0  0
 23 30  1  0  0  0  0
 25 26  1  1  0  0  0
 25 32  1  0  0  0  0
 27  2  1  1  0  0  0
 27 34  1  0  0  0  0
 28 29  1  0  0  0  0
 28 36  1  6  0  0  0
 30 31  1  1  0  0  0
 30 38  1  0  0  0  0
 32 33  1  0  0  0  0
 32 40  1  1  0  0  0
 34 35  1  6  0  0  0
 34 42  1  0  0  0  0
 36 37  1  0  0  0  0
 38 39  1  0  0  0  0
 38 45  1  6  0  0  0
 40 41  1  0  0  0  0
 42 43  1  1  0  0  0
 44 47  1  0  0  0  0
 45 46  1  0  0  0  0
 47 48  1  0  0  0  0
 48 49  1  0  0  0  0
 49  7  1  0  0  0  0
M  END
>  <CHROM.1>
157.15025121,19.23357655,-31.81307367,-50.31230622,-159.85013887,39.54616256
132.02339774,30.02487009,166.31580110,148.22207362,-63.20522915,-61.18701407
57.00576062,69.17035592,-105.16808514,-39.76271708,26.58201204,26.60121267
7.38241452,-0.40335188,0.93092907,-2.42562071

>  <Name>
2bee_lig

>  <RI>
0

>  <Rbt.Current_Directory>
/home/itssahil/PROJECTS/Mol_Feturizer/New_Systems/rnas/2bee

>  <Rbt.Executable>
rbdock ($Id: //depot/dev/client3/rdock/2013.1/src/exe/rbdock.cxx#4 $)

>  <Rbt.Library>
libRbt.so (2013.1, Build901 2013/11/27)

>  <Rbt.Parameter_File>
/export/apps/rDock/src/rDock_2013.1_src/data/scripts/dock_solv.prm

>  <Rbt.Receptor>
prm/blind_docking_100.prm

>  <SCORE>
66.3529

>  <SCORE.INTER>
34.9962

>  <SCORE.INTER.CONST>
1

>  <SCORE.INTER.POLAR>
-1.22125

>  <SCORE.INTER.ROT>
16

>  <SCORE.INTER.SOLV>
35.5081

>  <SCORE.INTER.VDW>
1.29894

>  <SCORE.INTER.norm>
0.714209

>  <SCORE.INTRA>
10.0613

>  <SCORE.INTRA.DIHEDRAL>
-8.78693

>  <SCORE.INTRA.DIHEDRAL.0>
36.0842

>  <SCORE.INTRA.POLAR>
0

>  <SCORE.INTRA.POLAR.0>
0

>  <SCORE.INTRA.REPUL>
0

>  <SCORE.INTRA.REPUL.0>
0

>  <SCORE.INTRA.SOLV>
17.1161

>  <SCORE.INTRA.SOLV.lig_0>
-126.444

>  <SCORE.INTRA.VDW>
5.89675

>  <SCORE.INTRA.VDW.0>
-7.40469

>  <SCORE.INTRA.norm>
0.205334

>  <SCORE.RESTR>
21.2953

>  <SCORE.RESTR.CAVITY>
21.2953

>  <SCORE.RESTR.norm>
0.434598

>  <SCORE.SYSTEM>
0

>  <SCORE.SYSTEM.CONST>
0

>  <SCORE.SYSTEM.DIHEDRAL>
0

>  <SCORE.SYSTEM.SOLV>
0

>  <SCORE.SYSTEM.norm>
0

>  <SCORE.heavy>
49

>  <SCORE.norm>
1.35414

>  <RMSD>
30.949

$$$$
2bee_lig
 OpenBabel11021811423D
libRbt.so/2013.1/901 2013/11/27
 49 52  0  0  0  0  0  0  0  0999 V2000
   29.0934   24.7087    9.7254 C   0  0  2  0  0  0  0  0  0  0  0  0
   27.7331   25.0675    9.9329 O   0  0  0  0  0  0  0  0  0  0  0  0
   25.7043   22.0079    7.5045 C   0  0  2  0  0  0  0  0  0  0  0  0
   24.6014   21.2010    6.9151 N   0  0  0  0  0  0  0  0  0  0  0  0
   25.9828   26.4095    6.5415 C   0  0  1  0  0  0  0  0  0  0  0  0
   22.8929   30.0723    6.5783 C   0  0  1  0  0  0  0  0  0  0  0  0
   26.7656   23.6070    1.0008 C   0  0  0  0  0  0  0  0  0  0  0  0
   29.7735   24.3229   11.0957 C   0  0  2  0  0  0  0  0  0  0  0  0
   29.0036   23.2759   11.7588 N   0  0  0  0  0  0  0  0  0  0  0  0
   25.6200   21.9351    9.0968 C   0  0  0  0  0  0  0  0  0  0  0  0
   24.7331   26.6872    5.7709 C   0  0  2  0  0  0  0  0  0  0  0  0
   24.9396   26.6599    4.3126 O   0  0  0  0  0  0  0  0  0  0  0  0
   22.7501   30.1190    4.9633 C   0  0  2  0  0  0  0  0  0  0  0  0
   24.0622   29.6997    4.3667 N   0  0  0  0  0  0  0  0  0  0  0  0
   25.4498   23.4662    1.5005 C   0  0  0  0  0  0  0  0  0  0  0  0
   24.3692   23.4704    0.6214 N   0  0  0  0  0  0  0  0  0  0  0  0
   29.8986   25.6230   12.0047 C   0  0  1  0  0  0  0  0  0  0  0  0
   30.5158   25.2671   13.2333 O   0  0  0  0  0  0  0  0  0  0  0  0
   26.8093   22.8216    9.7833 C   0  0  2  0  0  0  0  0  0  0  0  0
   26.7480   22.7557   11.2039 N   0  0  0  0  0  0  0  0  0  0  0  0
   24.3601   27.9566    6.4977 C   0  0  2  0  0  0  0  0  0  0  0  0
   23.2744   28.7097    6.8841 O   0  0  0  0  0  0  0  0  0  0  0  0
   22.3896   31.5873    4.5388 C   0  0  1  0  0  0  0  0  0  0  0  0
   21.0920   31.9141    5.1479 O   0  0  0  0  0  0  0  0  0  0  0  0
   30.7266   26.6891   11.2503 C   0  0  2  0  0  0  0  0  0  0  0  0
   30.8550   27.9282   12.0591 O   0  0  0  0  0  0  0  0  0  0  0  0
   26.6934   24.3250    9.3168 C   0  0  2  0  0  0  0  0  0  0  0  0
   25.7896   28.6359    6.7850 C   0  0  2  0  0  0  0  0  0  0  0  0
   26.5529   27.5610    7.0951 O   0  0  0  0  0  0  0  0  0  0  0  0
   23.5651   32.5967    5.0513 C   0  0  2  0  0  0  0  0  0  0  0  0
   24.8667   32.2564    4.4336 O   0  0  0  0  0  0  0  0  0  0  0  0
   30.0452   27.0589    9.8906 C   0  0  2  0  0  0  0  0  0  0  0  0
   29.9445   25.8078    9.1633 O   0  0  0  0  0  0  0  0  0  0  0  0
   26.7781   24.3398    7.7531 C   0  0  2  0  0  0  0  0  0  0  0  0
   26.6894   25.7114    7.4518 O   0  0  0  0  0  0  0  0  0  0  0  0
   25.9050   29.6249    8.0034 C   0  0  0  0  0  0  0  0  0  0  0  0
   25.5913   28.9105    9.2406 O   0  0  0  0  0  0  0  0  0  0  0  0
   23.7174   32.5003    6.6346 C   0  0  1  0  0  0  0  0  0  0  0  0
   24.0114   31.0513    6.9624 O   0  0  0  0  0  0  0  0  0  0  0  0
   30.9104   28.0568    9.2339 C   0  0  0  0  0  0  0  0  0  0  0  0
   30.3372   28.5059    8.1091 O   0  0  0  0  0  0  0  0  0  0  0  0
   25.5932   23.4983    7.1127 C   0  0  1  0  0  0  0  0  0  0  0  0
   25.6845   23.5116    5.7207 O   0  0  0  0  0  0  0  0  0  0  0  0
   25.5476   25.5483    3.5631 C   0  0  0  0  0  0  0  0  0  0  0  0
   24.8764   33.4865    7.0049 C   0  0  0  0  0  0  0  0  0  0  0  0
   24.6772   34.8064    6.4787 N   0  0  0  0  0  0  0  0  0  0  0  0
   26.9327   25.2498    4.1386 C   0  0  0  0  0  0  0  0  0  0  0  0
   27.4538   24.0786    3.4073 N   0  0  0  0  0  0  0  0  0  0  0  0
   27.8720   24.2664    1.9474 C   0  0  0  0  0  0  0  0  0  0  0  0
  1  2  1  1  0  0  0
  1  8  1  0  0  0  0
  1 33  1  0  0  0  0
  3  4  1  6  0  0  0
  3 10  1  0  0  0  0
  3 42  1  0  0  0  0
  5 11  1  0  0  0  0
  5 29  1  0  0  0  0
  5 35  1  1  0  0  0
  6 13  1  0  0  0  0
  6 39  1  0  0  0  0
  6 22  1  6  0  0  0
  7 15  1  0  0  0  0
  8  9  1  1  0  0  0
  8 17  1  0  0  0  0
 10 19  1  0  0  0  0
 11 12  1  6  0  0  0
 11 21  1  0  0  0  0
 12 44  1  0  0  0  0
 13 14  1  6  0  0  0
 13 23  1  0  0  0  0
 15 16  1  0  0  0  0
 17 18  1  1  0  0  0
 17 25  1  0  0  0  0
 19 20  1  1  0  0  0
 19 27  1  0  0  0  0
 21 22  1  6  0  0  0
 21 28  1  0  0  0  0
 23 24  1  1  0  0  0
 23 30  1  0  0  0  0
 25 26  1  1  0  0  0
 25 32  1  0  0  0  0
 27  2  1  1  0  0  0
 27 34  1  0  0  0  0
 28 29  1  0  0  0  0
 28 36  1  1  0  0  0
 30 31  1  6  0  0  0
 30 38  1  0  0  0  0
 32 33  1  0  0  0  0
 32 40  1  6  0  0  0
 34 35  1  6  0  0  0
 34 42  1  0  0  0  0
 36 37  1  0  0  0  0
 38 39  1  0  0  0  0
 38 45  1  6  0  0  0
 40 41  1  0  0  0  0
 42 43  1  6  0  0  0
 44 47  1  0  0  0  0
 45 46  1  0  0  0  0
 47 48  1  0  0  0  0
 48 49  1  0  0  0  0
 49  7  1  0  0  0  0
M  END
>  <CHROM.1>
-118.78798417,40.88333937,59.45227477,151.84145485,53.50976644,-55.96389607
-120.21055689,58.50654186,61.18479066,-174.96478242,-134.67578754,52.71204708
176.51732021,71.24303397,-105.51326709,24.28148827,26.34442290,26.87836428
7.12722021,-0.39554970,-0.96430586,0.43366802

>  <Name>
2bee_lig

>  <RI>
0

>  <Rbt.Current_Directory>
/home/itssahil/PROJECTS/Mol_Feturizer/New_Systems/rnas/2bee

>  <Rbt.Executable>
rbdock ($Id: //depot/dev/client3/rdock/2013.1/src/exe/rbdock.cxx#4 $)

>  <Rbt.Library>
libRbt.so (2013.1, Build901 2013/11/27)

>  <Rbt.Parameter_File>
/export/apps/rDock/src/rDock_2013.1_src/data/scripts/dock_solv.prm

>  <Rbt.Receptor>
prm/blind_docking_100.prm

>  <SCORE>
47.9878

>  <SCORE.INTER>
9.59905

>  <SCORE.INTER.CONST>
1

>  <SCORE.INTER.POLAR>
0

>  <SCORE.INTER.ROT>
16

>  <SCORE.INTER.SOLV>
31.6109

>  <SCORE.INTER.VDW>
-18.4043

>  <SCORE.INTER.norm>
0.195899

>  <SCORE.INTRA>
8.62609

>  <SCORE.INTRA.DIHEDRAL>
-9.86884

>  <SCORE.INTRA.DIHEDRAL.0>
36.0842

>  <SCORE.INTRA.POLAR>
0

>  <SCORE.INTRA.POLAR.0>
0

>  <SCORE.INTRA.REPUL>
0.0685555

>  <SCORE.INTRA.REPUL.0>
0

>  <SCORE.INTRA.SOLV>
7.13198

>  <SCORE.INTRA.SOLV.lig_0>
-126.444

>  <SCORE.INTRA.VDW>
9.65174

>  <SCORE.INTRA.VDW.0>
-7.40469

>  <SCORE.INTRA.norm>
0.176043

>  <SCORE.RESTR>
29.7626

>  <SCORE.RESTR.CAVITY>
29.7626

>  <SCORE.RESTR.norm>
0.607401

>  <SCORE.SYSTEM>
0

>  <SCORE.SYSTEM.CONST>
0

>  <SCORE.SYSTEM.DIHEDRAL>
0

>  <SCORE.SYSTEM.SOLV>
0

>  <SCORE.SYSTEM.norm>
0

>  <SCORE.heavy>
49

>  <SCORE.norm>
0.979342

>  <RMSD>
30.986

$$$$
2bee_lig
 OpenBabel11021811423D
libRbt.so/2013.1/901 2013/11/27
 49 52  0  0  0  0  0  0  0  0999 V2000
   29.3568   24.3996    9.6890 C   0  0  2  0  0  0  0  0  0  0  0  0
   28.0957   25.0522    9.6128 O   0  0  0  0  0  0  0  0  0  0  0  0
   25.4292   21.7046    8.5844 C   0  0  2  0  0  0  0  0  0  0  0  0
   24.1973   20.9797    8.1699 N   0  0  0  0  0  0  0  0  0  0  0  0
   27.2077   25.4637    6.4559 C   0  0  1  0  0  0  0  0  0  0  0  0
   24.5030   29.1112    7.7857 C   0  0  1  0  0  0  0  0  0  0  0  0
   23.1234   25.3786    4.0272 C   0  0  0  0  0  0  0  0  0  0  0  0
   29.7504   24.1421   11.1949 C   0  0  2  0  0  0  0  0  0  0  0  0
   28.6873   23.4064   11.8709 N   0  0  0  0  0  0  0  0  0  0  0  0
   25.1080   22.6052    9.8625 C   0  0  0  0  0  0  0  0  0  0  0  0
   26.0657   26.3630    6.1101 C   0  0  2  0  0  0  0  0  0  0  0  0
   26.0309   26.7239    4.6822 O   0  0  0  0  0  0  0  0  0  0  0  0
   24.8799   30.0963    6.5534 C   0  0  2  0  0  0  0  0  0  0  0  0
   26.1012   30.8791    6.9388 N   0  0  0  0  0  0  0  0  0  0  0  0
   23.6786   24.9741    5.2637 C   0  0  0  0  0  0  0  0  0  0  0  0
   22.9589   24.1278    6.1042 N   0  0  0  0  0  0  0  0  0  0  0  0
   30.0435   25.5346   11.9070 C   0  0  1  0  0  0  0  0  0  0  0  0
   30.4013   25.2927   13.2600 O   0  0  0  0  0  0  0  0  0  0  0  0
   26.4356   23.4295   10.3415 C   0  0  2  0  0  0  0  0  0  0  0  0
   26.1615   24.2291   11.4869 N   0  0  0  0  0  0  0  0  0  0  0  0
   26.3242   27.3917    7.1843 C   0  0  2  0  0  0  0  0  0  0  0  0
   25.6842   28.3010    7.9958 O   0  0  0  0  0  0  0  0  0  0  0  0
   23.6634   31.0549    6.2939 C   0  0  1  0  0  0  0  0  0  0  0  0
   22.5184   30.2166    5.9092 O   0  0  0  0  0  0  0  0  0  0  0  0
   31.1789   26.2608   11.1488 C   0  0  2  0  0  0  0  0  0  0  0  0
   31.4744   27.5758   11.7729 O   0  0  0  0  0  0  0  0  0  0  0  0
   26.9492   24.3473    9.1647 C   0  0  2  0  0  0  0  0  0  0  0  0
   27.9305   27.4361    7.2560 C   0  0  2  0  0  0  0  0  0  0  0  0
   28.2537   26.1298    7.1037 O   0  0  0  0  0  0  0  0  0  0  0  0
   23.3547   31.9075    7.6508 C   0  0  2  0  0  0  0  0  0  0  0  0
   24.5149   32.7452    8.0295 O   0  0  0  0  0  0  0  0  0  0  0  0
   30.7791   26.5050    9.6554 C   0  0  2  0  0  0  0  0  0  0  0  0
   30.4970   25.1878    9.1171 O   0  0  0  0  0  0  0  0  0  0  0  0
   27.2455   23.4184    7.9392 C   0  0  2  0  0  0  0  0  0  0  0  0
   27.7128   24.3252    6.9700 O   0  0  0  0  0  0  0  0  0  0  0  0
   28.5963   27.9008    8.6038 C   0  0  0  0  0  0  0  0  0  0  0  0
   27.9004   27.2782    9.7296 O   0  0  0  0  0  0  0  0  0  0  0  0
   23.0316   30.9180    8.8573 C   0  0  1  0  0  0  0  0  0  0  0  0
   24.2263   29.9993    9.0069 O   0  0  0  0  0  0  0  0  0  0  0  0
   31.9225   27.1758    9.0087 C   0  0  0  0  0  0  0  0  0  0  0  0
   33.0607   26.5199    9.2724 O   0  0  0  0  0  0  0  0  0  0  0  0
   25.9322   22.6552    7.4752 C   0  0  1  0  0  0  0  0  0  0  0  0
   26.2106   21.8249    6.3893 O   0  0  0  0  0  0  0  0  0  0  0  0
   25.3207   27.8833    4.1179 C   0  0  0  0  0  0  0  0  0  0  0  0
   22.7753   31.8393   10.0977 C   0  0  0  0  0  0  0  0  0  0  0  0
   22.2458   33.1240    9.7403 N   0  0  0  0  0  0  0  0  0  0  0  0
   24.0229   28.1073    4.8954 C   0  0  0  0  0  0  0  0  0  0  0  0
   22.9155   27.9155    3.9390 N   0  0  0  0  0  0  0  0  0  0  0  0
   22.1115   26.6159    4.0163 C   0  0  0  0  0  0  0  0  0  0  0  0
  1  2  1  1  0  0  0
  1  8  1  0  0  0  0
  1 33  1  0  0  0  0
  3  4  1  6  0  0  0
  3 10  1  0  0  0  0
  3 42  1  0  0  0  0
  5 11  1  0  0  0  0
  5 29  1  0  0  0  0
  5 35  1  1  0  0  0
  6 13  1  0  0  0  0
  6 39  1  0  0  0  0
  6 22  1  1  0  0  0
  7 15  1  0  0  0  0
  8  9  1  1  0  0  0
  8 17  1  0  0  0  0
 10 19  1  0  0  0  0
 11 12  1  6  0  0  0
 11 21  1  0  0  0  0
 12 44  1  0  0  0  0
 13 14  1  1  0  0  0
 13 23  1  0  0  0  0
 15 16  1  0  0  0  0
 17 18  1  1  0  0  0
 17 25  1  0  0  0  0
 19 20  1  1  0  0  0
 19 27  1  0  0  0  0
 21 22  1  6  0  0  0
 21 28  1  0  0  0  0
 23 24  1  1  0  0  0
 23 30  1  0  0  0  0
 25 26  1  1  0  0  0
 25 32  1  0  0  0  0
 27  2  1  1  0  0  0
 27 34  1  0  0  0  0
 28 29  1  0  0  0  0
 28 36  1  1  0  0  0
 30 31  1  1  0  0  0
 30 38  1  0  0  0  0
 32 33  1  0  0  0  0
 32 40  1  6  0  0  0
 34 35  1  6  0  0  0
 34 42  1  0  0  0  0
 36 37  1  0  0  0  0
 38 39  1  0  0  0  0
 38 45  1  1  0  0  0
 40 41  1  0  0  0  0
 42 43  1  6  0  0  0
 44 47  1  0  0  0  0
 45 46  1  0  0  0  0
 47 48  1  0  0  0  0
 48 49  1  0  0  0  0
 49  7  1  0  0  0  0
M  END
>  <CHROM.1>
-107.73717623,-25.24481718,-63.03458926,83.24114604,-159.90257771,-35.69172706
-32.76006080,77.41759158,43.09041075,49.42342191,-53.55426100,29.26143239
-117.18823215,104.47994719,-50.32452608,84.90549943,26.49609668,26.67988702
8.13182881,-0.50884802,-0.64807197,0.19525029

>  <Name>
2bee_lig

>  <RI>
0

>  <Rbt.Current_Directory>
/home/itssahil/PROJECTS/Mol_Feturizer/New_Systems/rnas/2bee

>  <Rbt.Executable>
rbdock ($Id: //depot/dev/client3/rdock/2013.1/src/exe/rbdock.cxx#4 $)

>  <Rbt.Library>
libRbt.so (2013.1, Build901 2013/11/27)

>  <Rbt.Parameter_File>
/export/apps/rDock/src/rDock_2013.1_src/data/scripts/dock_solv.prm

>  <Rbt.Receptor>
prm/blind_docking_100.prm

>  <SCORE>
56.0359

>  <SCORE.INTER>
15.7187

>  <SCORE.INTER.CONST>
1

>  <SCORE.INTER.POLAR>
-0.707795

>  <SCORE.INTER.ROT>
16

>  <SCORE.INTER.SOLV>
36.6887

>  <SCORE.INTER.VDW>
-13.6578

>  <SCORE.INTER.norm>
0.320789

>  <SCORE.INTRA>
16.6426

>  <SCORE.INTRA.DIHEDRAL>
-0.812148

>  <SCORE.INTRA.DIHEDRAL.0>
36.0842

>  <SCORE.INTRA.POLAR>
0

>  <SCORE.INTRA.POLAR.0>
0

>  <SCORE.INTRA.REPUL>
0.000916988

>  <SCORE.INTRA.REPUL.0>
0

>  <SCORE.INTRA.SOLV>
11.4142

>  <SCORE.INTRA.SOLV.lig_0>
-126.444

>  <SCORE.INTRA.VDW>
11.337

>  <SCORE.INTRA.VDW.0>
-7.40469

>  <SCORE.INTRA.norm>
0.339645

>  <SCORE.RESTR>
23.6746

>  <SCORE.RESTR.CAVITY>
23.6746

>  <SCORE.RESTR.norm>
0.483155

>  <SCORE.SYSTEM>
0

>  <SCORE.SYSTEM.CONST>
0

>  <SCORE.SYSTEM.DIHEDRAL>
0

>  <SCORE.SYSTEM.SOLV>
0

>  <SCORE.SYSTEM.norm>
0

>  <SCORE.heavy>
49

>  <SCORE.norm>
1.14359

>  <RMSD>
31.091

$$$$
2bee_lig
 OpenBabel11021811423D
libRbt.so/2013.1/901 2013/11/27
 49 52  0  0  0  0  0  0  0  0999 V2000
   27.1159   24.5542    4.3913 C   0  0  2  0  0  0  0  0  0  0  0  0
   25.8662   24.8065    3.7614 O   0  0  0  0  0  0  0  0  0  0  0  0
   23.0065   28.1167    4.2502 C   0  0  2  0  0  0  0  0  0  0  0  0
   21.9720   28.9847    4.8755 N   0  0  0  0  0  0  0  0  0  0  0  0
   26.8659   27.2053    6.4492 C   0  0  1  0  0  0  0  0  0  0  0  0
   24.3040   29.8539    8.9941 C   0  0  1  0  0  0  0  0  0  0  0  0
   30.9260   24.7348   11.6225 C   0  0  0  0  0  0  0  0  0  0  0  0
   27.6761   23.1460    3.9531 C   0  0  2  0  0  0  0  0  0  0  0  0
   27.7461   23.0665    2.4980 N   0  0  0  0  0  0  0  0  0  0  0  0
   22.4717   26.6138    4.1932 C   0  0  0  0  0  0  0  0  0  0  0  0
   27.2121   28.0034    7.6641 C   0  0  2  0  0  0  0  0  0  0  0  0
   28.4351   27.5282    8.3340 O   0  0  0  0  0  0  0  0  0  0  0  0
   22.8286   29.4464    8.4575 C   0  0  2  0  0  0  0  0  0  0  0  0
   22.9939   28.6639    7.1873 N   0  0  0  0  0  0  0  0  0  0  0  0
   31.0893   26.1202   11.8563 C   0  0  0  0  0  0  0  0  0  0  0  0
   30.5670   26.6955   13.0125 N   0  0  0  0  0  0  0  0  0  0  0  0
   26.7517   22.0010    4.5586 C   0  0  1  0  0  0  0  0  0  0  0  0
   27.2661   20.7378    4.1630 O   0  0  0  0  0  0  0  0  0  0  0  0
   23.5872   25.6245    3.5235 C   0  0  2  0  0  0  0  0  0  0  0  0
   23.1157   24.2829    3.4599 N   0  0  0  0  0  0  0  0  0  0  0  0
   25.8573   27.9115    8.3234 C   0  0  2  0  0  0  0  0  0  0  0  0
   25.0055   28.5982    9.1588 O   0  0  0  0  0  0  0  0  0  0  0  0
   22.0134   30.7633    8.1977 C   0  0  1  0  0  0  0  0  0  0  0  0
   21.8833   31.4602    9.4858 O   0  0  0  0  0  0  0  0  0  0  0  0
   26.7230   22.1365    6.0988 C   0  0  2  0  0  0  0  0  0  0  0  0
   25.8566   21.0936    6.7050 O   0  0  0  0  0  0  0  0  0  0  0  0
   24.9226   25.6780    4.3631 C   0  0  2  0  0  0  0  0  0  0  0  0
   25.3741   26.4260    7.9394 C   0  0  2  0  0  0  0  0  0  0  0  0
   25.8117   26.3107    6.6629 O   0  0  0  0  0  0  0  0  0  0  0  0
   22.8044   31.6746    7.0989 C   0  0  2  0  0  0  0  0  0  0  0  0
   22.9314   30.9619    5.8076 O   0  0  0  0  0  0  0  0  0  0  0  0
   26.1713   23.5392    6.5207 C   0  0  2  0  0  0  0  0  0  0  0  0
   27.0545   24.5008    5.8886 O   0  0  0  0  0  0  0  0  0  0  0  0
   25.4012   27.1689    4.3907 C   0  0  2  0  0  0  0  0  0  0  0  0
   26.5937   27.0969    5.1341 O   0  0  0  0  0  0  0  0  0  0  0  0
   23.8274   26.1396    7.9029 C   0  0  0  0  0  0  0  0  0  0  0  0
   23.5904   24.8250    7.3072 O   0  0  0  0  0  0  0  0  0  0  0  0
   24.2661   32.0242    7.6282 C   0  0  1  0  0  0  0  0  0  0  0  0
   24.9632   30.7079    7.9019 O   0  0  0  0  0  0  0  0  0  0  0  0
   26.2023   23.5874    7.9946 C   0  0  0  0  0  0  0  0  0  0  0  0
   27.3767   23.1342    8.4535 O   0  0  0  0  0  0  0  0  0  0  0  0
   24.3129   28.1015    5.0749 C   0  0  1  0  0  0  0  0  0  0  0  0
   24.7465   29.4274    5.0856 O   0  0  0  0  0  0  0  0  0  0  0  0
   28.7612   26.1181    8.6029 C   0  0  0  0  0  0  0  0  0  0  0  0
   24.9306   32.8745    6.4930 C   0  0  0  0  0  0  0  0  0  0  0  0
   26.3369   32.6248    6.3574 N   0  0  0  0  0  0  0  0  0  0  0  0
   27.7991   25.5701    9.6579 C   0  0  0  0  0  0  0  0  0  0  0  0
   28.5781   25.4083   10.9009 N   0  0  0  0  0  0  0  0  0  0  0  0
   29.5451   24.2264   10.9983 C   0  0  0  0  0  0  0  0  0  0  0  0
  1  2  1  6  0  0  0
  1  8  1  0  0  0  0
  1 33  1  0  0  0  0
  3  4  1  1  0  0  0
  3 10  1  0  0  0  0
  3 42  1  0  0  0  0
  5 11  1  0  0  0  0
  5 29  1  0  0  0  0
  5 35  1  6  0  0  0
  6 13  1  0  0  0  0
  6 39  1  0  0  0  0
  6 22  1  6  0  0  0
  7 15  1  0  0  0  0
  8  9  1  6  0  0  0
  8 17  1  0  0  0  0
 10 19  1  0  0  0  0
 11 12  1  1  0  0  0
 11 21  1  0  0  0  0
 12 44  1  0  0  0  0
 13 14  1  6  0  0  0
 13 23  1  0  0  0  0
 15 16  1  0  0  0  0
 17 18  1  1  0  0  0
 17 25  1  0  0  0  0
 19 20  1  1  0  0  0
 19 27  1  0  0  0  0
 21 22  1  1  0  0  0
 21 28  1  0  0  0  0
 23 24  1  1  0  0  0
 23 30  1  0  0  0  0
 25 26  1  1  0  0  0
 25 32  1  0  0  0  0
 27  2  1  6  0  0  0
 27 34  1  0  0  0  0
 28 29  1  0  0  0  0
 28 36  1  6  0  0  0
 30 31  1  6  0  0  0
 30 38  1  0  0  0  0
 32 33  1  0  0  0  0
 32 40  1  1  0  0  0
 34 35  1  1  0  0  0
 34 42  1  0  0  0  0
 36 37  1  0  0  0  0
 38 39  1  0  0  0  0
 38 45  1  6  0  0  0
 40 41  1  0  0  0  0
 42 43  1  6  0  0  0
 44 47  1  0  0  0  0
 45 46  1  0  0  0  0
 47 48  1  0  0  0  0
 48 49  1  0  0  0  0
 49  7  1  0  0  0  0
M  END
>  <CHROM.1>
153.95145634,-89.24112573,95.07088149,82.04642893,-44.56881963,-68.49231509
65.29800300,-173.53666823,169.88121690,46.09643475,-90.44491981,-144.82279455
-108.09341956,-75.39743794,135.69118242,-5.62197687,25.75229428,26.72355427
6.93636077,0.74688511,0.80902607,-2.49316825

>  <Name>
2bee_lig

>  <RI>
0

>  <Rbt.Current_Directory>
/home/itssahil/PROJECTS/Mol_Feturizer/New_Systems/rnas/2bee

>  <Rbt.Executable>
rbdock ($Id: //depot/dev/client3/rdock/2013.1/src/exe/rbdock.cxx#4 $)

>  <Rbt.Library>
libRbt.so (2013.1, Build901 2013/11/27)

>  <Rbt.Parameter_File>
/export/apps/rDock/src/rDock_2013.1_src/data/scripts/dock_solv.prm

>  <Rbt.Receptor>
prm/blind_docking_100.prm

>  <SCORE>
55.0946

>  <SCORE.INTER>
8.59609

>  <SCORE.INTER.CONST>
1

>  <SCORE.INTER.POLAR>
-0.102562

>  <SCORE.INTER.ROT>
16

>  <SCORE.INTER.SOLV>
24.5742

>  <SCORE.INTER.VDW>
-16.3855

>  <SCORE.INTER.norm>
0.17543

>  <SCORE.INTRA>
19.1147

>  <SCORE.INTRA.DIHEDRAL>
2.65184

>  <SCORE.INTRA.DIHEDRAL.0>
36.0842

>  <SCORE.INTRA.POLAR>
0

>  <SCORE.INTRA.POLAR.0>
0

>  <SCORE.INTRA.REPUL>
0

>  <SCORE.INTRA.REPUL.0>
0

>  <SCORE.INTRA.SOLV>
14.3048

>  <SCORE.INTRA.SOLV.lig_0>
-126.444

>  <SCORE.INTRA.VDW>
10.6364

>  <SCORE.INTRA.VDW.0>
-7.40469

>  <SCORE.INTRA.norm>
0.390096

>  <SCORE.RESTR>
27.3838

>  <SCORE.RESTR.CAVITY>
27.3838

>  <SCORE.RESTR.norm>
0.558853

>  <SCORE.SYSTEM>
0

>  <SCORE.SYSTEM.CONST>
0

>  <SCORE.SYSTEM.DIHEDRAL>
0

>  <SCORE.SYSTEM.SOLV>
0

>  <SCORE.SYSTEM.norm>
0

>  <SCORE.heavy>
49

>  <SCORE.norm>
1.12438

>  <RMSD>
31.101

$$$$
2bee_lig
 OpenBabel11021811423D
libRbt.so/2013.1/901 2013/11/27
 49 52  0  0  0  0  0  0  0  0999 V2000
   24.2261   29.2129    9.3718 C   0  0  2  0  0  0  0  0  0  0  0  0
   23.3798   28.2445    8.7652 O   0  0  0  0  0  0  0  0  0  0  0  0
   22.3845   26.6525    4.7841 C   0  0  2  0  0  0  0  0  0  0  0  0
   22.3344   26.5367    3.3012 N   0  0  0  0  0  0  0  0  0  0  0  0
   26.1671   25.7197    7.3004 C   0  0  1  0  0  0  0  0  0  0  0  0
   29.5757   24.3381   10.1391 C   0  0  1  0  0  0  0  0  0  0  0  0
   26.1829   23.9751    2.7298 C   0  0  0  0  0  0  0  0  0  0  0  0
   23.3949   30.4919    9.7744 C   0  0  2  0  0  0  0  0  0  0  0  0
   22.2689   30.1106   10.6202 N   0  0  0  0  0  0  0  0  0  0  0  0
   21.8331   28.0852    5.2214 C   0  0  0  0  0  0  0  0  0  0  0  0
   27.6085   25.3339    7.3779 C   0  0  2  0  0  0  0  0  0  0  0  0
   28.1234   24.7793    6.1139 O   0  0  0  0  0  0  0  0  0  0  0  0
   29.5401   24.3526   11.7607 C   0  0  2  0  0  0  0  0  0  0  0  0
   28.5689   25.4109   12.1964 N   0  0  0  0  0  0  0  0  0  0  0  0
   25.3853   24.8109    1.9136 C   0  0  0  0  0  0  0  0  0  0  0  0
   24.0942   25.1461    2.3153 N   0  0  0  0  0  0  0  0  0  0  0  0
   22.9105   31.2402    8.4562 C   0  0  1  0  0  0  0  0  0  0  0  0
   22.1675   32.3920    8.8284 O   0  0  0  0  0  0  0  0  0  0  0  0
   21.8843   28.2569    6.8460 C   0  0  2  0  0  0  0  0  0  0  0  0
   21.3858   29.5287    7.2467 N   0  0  0  0  0  0  0  0  0  0  0  0
   27.4960   24.4942    8.6273 C   0  0  2  0  0  0  0  0  0  0  0  0
   28.2081   24.0903    9.7340 O   0  0  0  0  0  0  0  0  0  0  0  0
   30.9849   24.6726   12.2863 C   0  0  1  0  0  0  0  0  0  0  0  0
   31.8673   23.5877   11.8324 O   0  0  0  0  0  0  0  0  0  0  0  0
   24.1463   31.6208    7.6082 C   0  0  2  0  0  0  0  0  0  0  0  0
   23.7373   32.3097    6.3576 O   0  0  0  0  0  0  0  0  0  0  0  0
   23.3680   28.0843    7.3559 C   0  0  2  0  0  0  0  0  0  0  0  0
   26.0562   23.7968    8.4594 C   0  0  2  0  0  0  0  0  0  0  0  0
   25.3190   24.8011    7.9284 O   0  0  0  0  0  0  0  0  0  0  0  0
   31.4601   26.1192   11.6989 C   0  0  2  0  0  0  0  0  0  0  0  0
   30.5631   27.2026   12.1603 O   0  0  0  0  0  0  0  0  0  0  0  0
   24.9656   30.3449    7.2204 C   0  0  2  0  0  0  0  0  0  0  0  0
   25.3201   29.7228    8.4820 O   0  0  0  0  0  0  0  0  0  0  0  0
   23.8602   26.6695    6.8993 C   0  0  2  0  0  0  0  0  0  0  0  0
   25.1662   26.6137    7.4202 O   0  0  0  0  0  0  0  0  0  0  0  0
   25.3024   23.3377    9.7621 C   0  0  0  0  0  0  0  0  0  0  0  0
   25.5876   24.2781   10.8455 O   0  0  0  0  0  0  0  0  0  0  0  0
   31.4439   26.0949   10.1057 C   0  0  1  0  0  0  0  0  0  0  0  0
   30.0359   25.7301    9.6839 O   0  0  0  0  0  0  0  0  0  0  0  0
   26.1299   30.8029    6.4391 C   0  0  0  0  0  0  0  0  0  0  0  0
   26.6137   31.9452    6.9454 O   0  0  0  0  0  0  0  0  0  0  0  0
   23.8306   26.5419    5.3165 C   0  0  1  0  0  0  0  0  0  0  0  0
   24.2626   25.2752    4.9227 O   0  0  0  0  0  0  0  0  0  0  0  0
   27.6075   23.5741    5.4444 C   0  0  0  0  0  0  0  0  0  0  0  0
   31.8929   27.5278    9.6602 C   0  0  0  0  0  0  0  0  0  0  0  0
   33.2859   27.7764    9.8973 N   0  0  0  0  0  0  0  0  0  0  0  0
   26.0785   23.6047    5.4581 C   0  0  0  0  0  0  0  0  0  0  0  0
   25.6227   22.4362    4.6804 N   0  0  0  0  0  0  0  0  0  0  0  0
   25.6013   22.5481    3.1545 C   0  0  0  0  0  0  0  0  0  0  0  0
  1  2  1  6  0  0  0
  1  8  1  0  0  0  0
  1 33  1  0  0  0  0
  3  4  1  6  0  0  0
  3 10  1  0  0  0  0
  3 42  1  0  0  0  0
  5 11  1  0  0  0  0
  5 29  1  0  0  0  0
  5 35  1  1  0  0  0
  6 13  1  0  0  0  0
  6 39  1  0  0  0  0
  6 22  1  6  0  0  0
  7 15  1  0  0  0  0
  8  9  1  6  0  0  0
  8 17  1  0  0  0  0
 10 19  1  0  0  0  0
 11 12  1  6  0  0  0
 11 21  1  0  0  0  0
 12 44  1  0  0  0  0
 13 14  1  6  0  0  0
 13 23  1  0  0  0  0
 15 16  1  0  0  0  0
 17 18  1  1  0  0  0
 17 25  1  0  0  0  0
 19 20  1  6  0  0  0
 19 27  1  0  0  0  0
 21 22  1  6  0  0  0
 21 28  1  0  0  0  0
 23 24  1  6  0  0  0
 23 30  1  0  0  0  0
 25 26  1  6  0  0  0
 25 32  1  0  0  0  0
 27  2  1  1  0  0  0
 27 34  1  0  0  0  0
 28 29  1  0  0  0  0
 28 36  1  1  0  0  0
 30 31  1  1  0  0  0
 30 38  1  0  0  0  0
 32 33  1  0  0  0  0
 32 40  1  1  0  0  0
 34 35  1  6  0  0  0
 34 42  1  0  0  0  0
 36 37  1  0  0  0  0
 38 39  1  0  0  0  0
 38 45  1  6  0  0  0
 40 41  1  0  0  0  0
 42 43  1  1  0  0  0
 44 47  1  0  0  0  0
 45 46  1  0  0  0  0
 47 48  1  0  0  0  0
 48 49  1  0  0  0  0
 49  7  1  0  0  0  0
M  END
>  <CHROM.1>
101.77137959,159.90890913,148.64213687,55.11881356,-60.14730386,44.05892279
-2.85275749,-124.43839653,34.52932868,38.49677191,-174.06157625,71.46996026
175.42967037,-81.17499347,2.87353805,-124.55238373,26.12169569,26.74933917
7.79655560,-3.11941743,0.67166252,-2.48083302

>  <Name>
2bee_lig

>  <RI>
0

>  <Rbt.Current_Directory>
/home/itssahil/PROJECTS/Mol_Feturizer/New_Systems/rnas/2bee

>  <Rbt.Executable>
rbdock ($Id: //depot/dev/client3/rdock/2013.1/src/exe/rbdock.cxx#4 $)

>  <Rbt.Library>
libRbt.so (2013.1, Build901 2013/11/27)

>  <Rbt.Parameter_File>
/export/apps/rDock/src/rDock_2013.1_src/data/scripts/dock_solv.prm

>  <Rbt.Receptor>
prm/blind_docking_100.prm

>  <SCORE>
57.5766

>  <SCORE.INTER>
6.87476

>  <SCORE.INTER.CONST>
1

>  <SCORE.INTER.POLAR>
-0.838611

>  <SCORE.INTER.ROT>
16

>  <SCORE.INTER.SOLV>
24.4217

>  <SCORE.INTER.VDW>
-15.0287

>  <SCORE.INTER.norm>
0.140301

>  <SCORE.INTRA>
19.5985

>  <SCORE.INTRA.DIHEDRAL>
-1.92181

>  <SCORE.INTRA.DIHEDRAL.0>
36.0842

>  <SCORE.INTRA.POLAR>
0

>  <SCORE.INTRA.POLAR.0>
0

>  <SCORE.INTRA.REPUL>
0

>  <SCORE.INTRA.REPUL.0>
0

>  <SCORE.INTRA.SOLV>
11.7007

>  <SCORE.INTRA.SOLV.lig_0>
-126.444

>  <SCORE.INTRA.VDW>
14.709

>  <SCORE.INTRA.VDW.0>
-7.40469

>  <SCORE.INTRA.norm>
0.399969

>  <SCORE.RESTR>
31.1034

>  <SCORE.RESTR.CAVITY>
31.1034

>  <SCORE.RESTR.norm>
0.634763

>  <SCORE.SYSTEM>
0

>  <SCORE.SYSTEM.CONST>
0

>  <SCORE.SYSTEM.DIHEDRAL>
0

>  <SCORE.SYSTEM.SOLV>
0

>  <SCORE.SYSTEM.norm>
0

>  <SCORE.heavy>
49

>  <SCORE.norm>
1.17503

>  <RMSD>
31.158

$$$$
2bee_lig
 OpenBabel11021811423D
libRbt.so/2013.1/901 2013/11/27
 49 52  0  0  0  0  0  0  0  0999 V2000
   23.4280   30.8403    5.6083 C   0  0  2  0  0  0  0  0  0  0  0  0
   24.0859   30.1849    4.5314 O   0  0  0  0  0  0  0  0  0  0  0  0
   22.2076   26.2083    4.7142 C   0  0  2  0  0  0  0  0  0  0  0  0
   21.8049   24.8362    4.3021 N   0  0  0  0  0  0  0  0  0  0  0  0
   26.5495   27.1672    5.7307 C   0  0  1  0  0  0  0  0  0  0  0  0
   26.6304   23.0139    7.7862 C   0  0  1  0  0  0  0  0  0  0  0  0
   31.1862   26.1852   10.8256 C   0  0  0  0  0  0  0  0  0  0  0  0
   24.3869   31.9036    6.2706 C   0  0  2  0  0  0  0  0  0  0  0  0
   24.8819   32.8299    5.2579 N   0  0  0  0  0  0  0  0  0  0  0  0
   21.7355   27.2537    3.6042 C   0  0  0  0  0  0  0  0  0  0  0  0
   27.2650   26.3281    6.7389 C   0  0  2  0  0  0  0  0  0  0  0  0
   28.6730   26.7224    6.9190 O   0  0  0  0  0  0  0  0  0  0  0  0
   25.1144   23.1660    8.3424 C   0  0  2  0  0  0  0  0  0  0  0  0
   24.7877   24.6294    8.4122 N   0  0  0  0  0  0  0  0  0  0  0  0
   30.8228   25.7281   12.1140 C   0  0  0  0  0  0  0  0  0  0  0  0
   31.4636   26.2418   13.2392 N   0  0  0  0  0  0  0  0  0  0  0  0
   25.5787   31.1496    7.0075 C   0  0  1  0  0  0  0  0  0  0  0  0
   26.4336   32.1140    7.6043 O   0  0  0  0  0  0  0  0  0  0  0  0
   22.1719   28.7745    4.0145 C   0  0  2  0  0  0  0  0  0  0  0  0
   21.7471   29.7156    3.0346 N   0  0  0  0  0  0  0  0  0  0  0  0
   26.8825   24.9903    6.1535 C   0  0  2  0  0  0  0  0  0  0  0  0
   26.6300   23.6828    6.5022 O   0  0  0  0  0  0  0  0  0  0  0  0
   25.0402   22.5106    9.7676 C   0  0  1  0  0  0  0  0  0  0  0  0
   25.3563   21.0833    9.6113 O   0  0  0  0  0  0  0  0  0  0  0  0
   24.9906   30.1901    8.0680 C   0  0  2  0  0  0  0  0  0  0  0  0
   26.0714   29.4525    8.7708 O   0  0  0  0  0  0  0  0  0  0  0  0
   23.7393   28.8545    4.1821 C   0  0  2  0  0  0  0  0  0  0  0  0
   26.9042   25.2748    4.5704 C   0  0  2  0  0  0  0  0  0  0  0  0
   26.3758   26.5198    4.5026 O   0  0  0  0  0  0  0  0  0  0  0  0
   26.1033   23.2566   10.7559 C   0  0  2  0  0  0  0  0  0  0  0  0
   25.7766   24.6929   10.9035 O   0  0  0  0  0  0  0  0  0  0  0  0
   24.0368   29.1443    7.3999 C   0  0  2  0  0  0  0  0  0  0  0  0
   23.0198   29.9316    6.7290 O   0  0  0  0  0  0  0  0  0  0  0  0
   24.1489   27.8110    5.2756 C   0  0  2  0  0  0  0  0  0  0  0  0
   25.5430   27.9825    5.3595 O   0  0  0  0  0  0  0  0  0  0  0  0
   26.0127   24.3664    3.6454 C   0  0  0  0  0  0  0  0  0  0  0  0
   26.5209   22.9951    3.6755 O   0  0  0  0  0  0  0  0  0  0  0  0
   27.5785   23.1328   10.1662 C   0  0  1  0  0  0  0  0  0  0  0  0
   27.5514   23.7380    8.7782 O   0  0  0  0  0  0  0  0  0  0  0  0
   23.5077   28.2927    8.4817 C   0  0  0  0  0  0  0  0  0  0  0  0
   24.4923   27.5706    9.0335 O   0  0  0  0  0  0  0  0  0  0  0  0
   23.7421   26.3399    4.8367 C   0  0  1  0  0  0  0  0  0  0  0  0
   24.1040   25.4210    5.8221 O   0  0  0  0  0  0  0  0  0  0  0  0
   29.1696   27.6441    7.9538 C   0  0  0  0  0  0  0  0  0  0  0  0
   28.4994   23.8958   11.1776 C   0  0  0  0  0  0  0  0  0  0  0  0
   29.7265   23.2034   11.4488 N   0  0  0  0  0  0  0  0  0  0  0  0
   28.3612   27.4451    9.2367 C   0  0  0  0  0  0  0  0  0  0  0  0
   28.8347   26.1876    9.8471 N   0  0  0  0  0  0  0  0  0  0  0  0
   30.2784   25.7553    9.5822 C   0  0  0  0  0  0  0  0  0  0  0  0
  1  2  1  6  0  0  0
  1  8  1  0  0  0  0
  1 33  1  0  0  0  0
  3  4  1  6  0  0  0
  3 10  1  0  0  0  0
  3 42  1  0  0  0  0
  5 11  1  0  0  0  0
  5 29  1  0  0  0  0
  5 35  1  1  0  0  0
  6 13  1  0  0  0  0
  6 39  1  0  0  0  0
  6 22  1  6  0  0  0
  7 15  1  0  0  0  0
  8  9  1  6  0  0  0
  8 17  1  0  0  0  0
 10 19  1  0  0  0  0
 11 12  1  6  0  0  0
 11 21  1  0  0  0  0
 12 44  1  0  0  0  0
 13 14  1  1  0  0  0
 13 23  1  0  0  0  0
 15 16  1  0  0  0  0
 17 18  1  1  0  0  0
 17 25  1  0  0  0  0
 19 20  1  6  0  0  0
 19 27  1  0  0  0  0
 21 22  1  6  0  0  0
 21 28  1  0  0  0  0
 23 24  1  6  0  0  0
 23 30  1  0  0  0  0
 25 26  1  6  0  0  0
 25 32  1  0  0  0  0
 27  2  1  1  0  0  0
 27 34  1  0  0  0  0
 28 29  1  0  0  0  0
 28 36  1  6  0  0  0
 30 31  1  6  0  0  0
 30 38  1  0  0  0  0
 32 33  1  0  0  0  0
 32 40  1  1  0  0  0
 34 35  1  6  0  0  0
 34 42  1  0  0  0  0
 36 37  1  0  0  0  0
 38 39  1  0  0  0  0
 38 45  1  1  0  0  0
 40 41  1  0  0  0  0
 42 43  1  1  0  0  0
 44 47  1  0  0  0  0
 45 46  1  0  0  0  0
 47 48  1  0  0  0  0
 48 49  1  0  0  0  0
 49  7  1  0  0  0  0
M  END
>  <CHROM.1>
151.12468621,-62.72267496,89.71264475,-170.29385559,94.55383435,35.60287193
0.83218642,50.94290026,-66.12809644,-65.94615440,-154.06240298,137.57808500
75.28867198,28.32419897,98.36597994,56.14627657,25.93416466,26.65198225,7.31846447
-2.54625531,0.81519992,3.13485646

>  <Name>
2bee_lig

>  <RI>
0

>  <Rbt.Current_Directory>
/home/itssahil/PROJECTS/Mol_Feturizer/New_Systems/rnas/2bee

>  <Rbt.Executable>
rbdock ($Id: //depot/dev/client3/rdock/2013.1/src/exe/rbdock.cxx#4 $)

>  <Rbt.Library>
libRbt.so (2013.1, Build901 2013/11/27)

>  <Rbt.Parameter_File>
/export/apps/rDock/src/rDock_2013.1_src/data/scripts/dock_solv.prm

>  <Rbt.Receptor>
prm/blind_docking_100.prm

>  <SCORE>
38.0335

>  <SCORE.INTER>
3.07148

>  <SCORE.INTER.CONST>
1

>  <SCORE.INTER.POLAR>
-0.707226

>  <SCORE.INTER.ROT>
16

>  <SCORE.INTER.SOLV>
29.7221

>  <SCORE.INTER.VDW>
-19.769

>  <SCORE.INTER.norm>
0.0626833

>  <SCORE.INTRA>
17.535

>  <SCORE.INTRA.DIHEDRAL>
-8.06513

>  <SCORE.INTRA.DIHEDRAL.0>
36.0842

>  <SCORE.INTRA.POLAR>
0

>  <SCORE.INTRA.POLAR.0>
0

>  <SCORE.INTRA.REPUL>
0.677931

>  <SCORE.INTRA.REPUL.0>
0

>  <SCORE.INTRA.SOLV>
10.5873

>  <SCORE.INTRA.SOLV.lig_0>
-126.444

>  <SCORE.INTRA.VDW>
12.8843

>  <SCORE.INTRA.VDW.0>
-7.40469

>  <SCORE.INTRA.norm>
0.357858

>  <SCORE.RESTR>
17.427

>  <SCORE.RESTR.CAVITY>
17.427

>  <SCORE.RESTR.norm>
0.355653

>  <SCORE.SYSTEM>
0

>  <SCORE.SYSTEM.CONST>
0

>  <SCORE.SYSTEM.DIHEDRAL>
0

>  <SCORE.SYSTEM.SOLV>
0

>  <SCORE.SYSTEM.norm>
0

>  <SCORE.heavy>
49

>  <SCORE.norm>
0.776194

>  <RMSD>
31.161

$$$$
2bee_lig
 OpenBabel11021811423D
libRbt.so/2013.1/901 2013/11/27
 49 52  0  0  0  0  0  0  0  0999 V2000
   29.4462   26.8906   10.2793 C   0  0  2  0  0  0  0  0  0  0  0  0
   28.9047   25.8777    9.4407 O   0  0  0  0  0  0  0  0  0  0  0  0
   25.5974   22.9745    9.3579 C   0  0  2  0  0  0  0  0  0  0  0  0
   24.4182   22.1906    9.8161 N   0  0  0  0  0  0  0  0  0  0  0  0
   26.0041   27.5583    7.8243 C   0  0  1  0  0  0  0  0  0  0  0  0
   24.3631   25.8831    4.0195 C   0  0  1  0  0  0  0  0  0  0  0  0
   25.3677   34.7843    6.8561 C   0  0  0  0  0  0  0  0  0  0  0  0
   30.6801   27.5803    9.5787 C   0  0  2  0  0  0  0  0  0  0  0  0
   30.2941   28.0775    8.2625 N   0  0  0  0  0  0  0  0  0  0  0  0
   26.7999   22.7715   10.3878 C   0  0  0  0  0  0  0  0  0  0  0  0
   26.1405   28.1014    6.4390 C   0  0  2  0  0  0  0  0  0  0  0  0
   26.4560   29.5402    6.4147 O   0  0  0  0  0  0  0  0  0  0  0  0
   24.2175   24.7055    5.1255 C   0  0  2  0  0  0  0  0  0  0  0  0
   25.2723   24.9161    6.1725 N   0  0  0  0  0  0  0  0  0  0  0  0
   26.7426   34.8325    6.5276 C   0  0  0  0  0  0  0  0  0  0  0  0
   27.7005   34.7582    7.5363 N   0  0  0  0  0  0  0  0  0  0  0  0
   31.8797   26.5393    9.4831 C   0  0  1  0  0  0  0  0  0  0  0  0
   32.9867   27.1702    8.8557 O   0  0  0  0  0  0  0  0  0  0  0  0
   28.1124   23.6290    9.9257 C   0  0  2  0  0  0  0  0  0  0  0  0
   29.1937   23.4472   10.8334 N   0  0  0  0  0  0  0  0  0  0  0  0
   24.8309   27.5655    5.9133 C   0  0  2  0  0  0  0  0  0  0  0  0
   24.2226   27.1177    4.7624 O   0  0  0  0  0  0  0  0  0  0  0  0
   24.4142   23.3228    4.4075 C   0  0  1  0  0  0  0  0  0  0  0  0
   23.3391   23.1875    3.4137 O   0  0  0  0  0  0  0  0  0  0  0  0
   32.2435   26.0555   10.9060 C   0  0  2  0  0  0  0  0  0  0  0  0
   33.3518   25.0678   10.8612 O   0  0  0  0  0  0  0  0  0  0  0  0
   27.7463   25.1617    9.8373 C   0  0  2  0  0  0  0  0  0  0  0  0
   23.8541   27.7021    7.1840 C   0  0  2  0  0  0  0  0  0  0  0  0
   24.6732   27.3554    8.2051 O   0  0  0  0  0  0  0  0  0  0  0  0
   25.8878   23.2882    3.7068 C   0  0  2  0  0  0  0  0  0  0  0  0
   26.9615   23.4278    4.7164 O   0  0  0  0  0  0  0  0  0  0  0  0
   31.0104   25.3788   11.5925 C   0  0  2  0  0  0  0  0  0  0  0  0
   29.9718   26.3915   11.5919 O   0  0  0  0  0  0  0  0  0  0  0  0
   26.5638   25.3046    8.8204 C   0  0  2  0  0  0  0  0  0  0  0  0
   26.3384   26.6934    8.8019 O   0  0  0  0  0  0  0  0  0  0  0  0
   22.6130   26.7386    7.2675 C   0  0  0  0  0  0  0  0  0  0  0  0
   21.9364   26.7040    5.9712 O   0  0  0  0  0  0  0  0  0  0  0  0
   26.0233   24.4802    2.6581 C   0  0  1  0  0  0  0  0  0  0  0  0
   25.7700   25.7664    3.4164 O   0  0  0  0  0  0  0  0  0  0  0  0
   31.4401   24.9730   12.9440 C   0  0  0  0  0  0  0  0  0  0  0  0
   30.7525   25.6465   13.8761 O   0  0  0  0  0  0  0  0  0  0  0  0
   25.2926   24.4883    9.3102 C   0  0  1  0  0  0  0  0  0  0  0  0
   24.2496   24.6162    8.3925 O   0  0  0  0  0  0  0  0  0  0  0  0
   25.8506   30.5257    5.5041 C   0  0  0  0  0  0  0  0  0  0  0  0
   27.4703   24.3595    2.0711 C   0  0  0  0  0  0  0  0  0  0  0  0
   28.4907   24.4480    3.0759 N   0  0  0  0  0  0  0  0  0  0  0  0
   24.5565   31.0561    6.1230 C   0  0  0  0  0  0  0  0  0  0  0  0
   24.5866   32.5245    5.9785 N   0  0  0  0  0  0  0  0  0  0  0  0
   24.7278   33.3720    7.2446 C   0  0  0  0  0  0  0  0  0  0  0  0
  1  2  1  6  0  0  0
  1  8  1  0  0  0  0
  1 33  1  0  0  0  0
  3  4  1  1  0  0  0
  3 10  1  0  0  0  0
  3 42  1  0  0  0  0
  5 11  1  0  0  0  0
  5 29  1  0  0  0  0
  5 35  1  6  0  0  0
  6 13  1  0  0  0  0
  6 39  1  0  0  0  0
  6 22  1  1  0  0  0
  7 15  1  0  0  0  0
  8  9  1  6  0  0  0
  8 17  1  0  0  0  0
 10 19  1  0  0  0  0
 11 12  1  1  0  0  0
 11 21  1  0  0  0  0
 12 44  1  0  0  0  0
 13 14  1  1  0  0  0
 13 23  1  0  0  0  0
 15 16  1  0  0  0  0
 17 18  1  1  0  0  0
 17 25  1  0  0  0  0
 19 20  1  1  0  0  0
 19 27  1  0  0  0  0
 21 22  1  6  0  0  0
 21 28  1  0  0  0  0
 23 24  1  6  0  0  0
 23 30  1  0  0  0  0
 25 26  1  6  0  0  0
 25 32  1  0  0  0  0
 27  2  1  6  0  0  0
 27 34  1  0  0  0  0
 28 29  1  0  0  0  0
 28 36  1  6  0  0  0
 30 31  1  1  0  0  0
 30 38  1  0  0  0  0
 32 33  1  0  0  0  0
 32 40  1  1  0  0  0
 34 35  1  1  0  0  0
 34 42  1  0  0  0  0
 36 37  1  0  0  0  0
 38 39  1  0  0  0  0
 38 45  1  1  0  0  0
 40 41  1  0  0  0  0
 42 43  1  6  0  0  0
 44 47  1  0  0  0  0
 45 46  1  0  0  0  0
 47 48  1  0  0  0  0
 48 49  1  0  0  0  0
 49  7  1  0  0  0  0
M  END
>  <CHROM.1>
-177.05681530,-43.88580426,49.71253501,-75.96049311,-137.47333479,87.09153992
73.94295030,-120.08895892,-46.16083876,115.81734374,142.71401954,-58.87949004
133.58788241,-111.74886376,155.32831041,-73.35408846,26.93791358,26.63608185
7.58945426,-0.31688539,-0.77112888,0.00400670

>  <Name>
2bee_lig

>  <RI>
0

>  <Rbt.Current_Directory>
/home/itssahil/PROJECTS/Mol_Feturizer/New_Systems/rnas/2bee

>  <Rbt.Executable>
rbdock ($Id: //depot/dev/client3/rdock/2013.1/src/exe/rbdock.cxx#4 $)

>  <Rbt.Library>
libRbt.so (2013.1, Build901 2013/11/27)

>  <Rbt.Parameter_File>
/export/apps/rDock/src/rDock_2013.1_src/data/scripts/dock_solv.prm

>  <Rbt.Receptor>
prm/blind_docking_100.prm

>  <SCORE>
43.5917

>  <SCORE.INTER>
4.33452

>  <SCORE.INTER.CONST>
1

>  <SCORE.INTER.POLAR>
-1.56262

>  <SCORE.INTER.ROT>
16

>  <SCORE.INTER.SOLV>
31.3159

>  <SCORE.INTER.VDW>
-16.6069

>  <SCORE.INTER.norm>
0.0884595

>  <SCORE.INTRA>
9.36407

>  <SCORE.INTRA.DIHEDRAL>
5.56016

>  <SCORE.INTRA.DIHEDRAL.0>
36.0842

>  <SCORE.INTRA.POLAR>
0

>  <SCORE.INTRA.POLAR.0>
0

>  <SCORE.INTRA.REPUL>
0

>  <SCORE.INTRA.REPUL.0>
0

>  <SCORE.INTRA.SOLV>
9.02182

>  <SCORE.INTRA.SOLV.lig_0>
-126.444

>  <SCORE.INTRA.VDW>
2.07309

>  <SCORE.INTRA.VDW.0>
-7.40469

>  <SCORE.INTRA.norm>
0.191104

>  <SCORE.RESTR>
29.8931

>  <SCORE.RESTR.CAVITY>
29.8931

>  <SCORE.RESTR.norm>
0.610063

>  <SCORE.SYSTEM>
0

>  <SCORE.SYSTEM.CONST>
0

>  <SCORE.SYSTEM.DIHEDRAL>
0

>  <SCORE.SYSTEM.SOLV>
0

>  <SCORE.SYSTEM.norm>
0

>  <SCORE.heavy>
49

>  <SCORE.norm>
0.889626

>  <RMSD>
31.166

$$$$
2bee_lig
 OpenBabel11021811423D
libRbt.so/2013.1/901 2013/11/27
 49 52  0  0  0  0  0  0  0  0999 V2000
   29.5742   24.9247   10.0817 C   0  0  2  0  0  0  0  0  0  0  0  0
   28.1840   25.1845   10.2305 O   0  0  0  0  0  0  0  0  0  0  0  0
   26.6156   23.4758    6.4895 C   0  0  2  0  0  0  0  0  0  0  0  0
   25.6377   23.0776    5.4407 N   0  0  0  0  0  0  0  0  0  0  0  0
   26.8660   27.7926    7.8137 C   0  0  1  0  0  0  0  0  0  0  0  0
   23.6346   27.2189    4.7673 C   0  0  1  0  0  0  0  0  0  0  0  0
   23.5014   30.1342    3.9231 C   0  0  0  0  0  0  0  0  0  0  0  0
   30.2240   24.6007   11.4823 C   0  0  2  0  0  0  0  0  0  0  0  0
   29.5061   23.5052   12.1252 N   0  0  0  0  0  0  0  0  0  0  0  0
   26.1742   22.8486    7.8894 C   0  0  0  0  0  0  0  0  0  0  0  0
   26.1854   28.7889    6.9323 C   0  0  2  0  0  0  0  0  0  0  0  0
   26.3054   30.1709    7.4283 O   0  0  0  0  0  0  0  0  0  0  0  0
   22.2546   26.3729    4.8709 C   0  0  2  0  0  0  0  0  0  0  0  0
   22.3667   25.4391    6.0408 N   0  0  0  0  0  0  0  0  0  0  0  0
   22.1094   29.9359    4.0780 C   0  0  0  0  0  0  0  0  0  0  0  0
   21.4978   28.8256    3.5003 N   0  0  0  0  0  0  0  0  0  0  0  0
   30.2167   25.9135   12.3815 C   0  0  1  0  0  0  0  0  0  0  0  0
   30.8074   25.6134   13.6377 O   0  0  0  0  0  0  0  0  0  0  0  0
   27.2181   23.2749    9.0726 C   0  0  2  0  0  0  0  0  0  0  0  0
   26.8379   22.7126   10.3238 N   0  0  0  0  0  0  0  0  0  0  0  0
   24.8540   28.0805    6.8663 C   0  0  2  0  0  0  0  0  0  0  0  0
   23.7659   27.8845    6.0462 O   0  0  0  0  0  0  0  0  0  0  0  0
   22.0625   25.5704    3.5347 C   0  0  1  0  0  0  0  0  0  0  0  0
   21.9466   26.5519    2.4462 O   0  0  0  0  0  0  0  0  0  0  0  0
   30.9948   27.0316   11.6495 C   0  0  2  0  0  0  0  0  0  0  0  0
   30.9992   28.2830   12.4494 O   0  0  0  0  0  0  0  0  0  0  0  0
   27.2764   24.8475    9.1938 C   0  0  2  0  0  0  0  0  0  0  0  0
   24.7068   27.4603    8.3432 C   0  0  2  0  0  0  0  0  0  0  0  0
   25.9743   27.0634    8.6077 O   0  0  0  0  0  0  0  0  0  0  0  0
   23.3409   24.5797    3.3167 C   0  0  2  0  0  0  0  0  0  0  0  0
   23.4488   23.5981    4.4196 O   0  0  0  0  0  0  0  0  0  0  0  0
   30.3443   27.3397   10.2596 C   0  0  2  0  0  0  0  0  0  0  0  0
   30.3650   26.0789    9.5425 O   0  0  0  0  0  0  0  0  0  0  0  0
   27.7092   25.4107    7.7981 C   0  0  2  0  0  0  0  0  0  0  0  0
   27.7511   26.7989    8.0246 O   0  0  0  0  0  0  0  0  0  0  0  0
   23.7997   26.1871    8.5216 C   0  0  0  0  0  0  0  0  0  0  0  0
   23.2185   26.1887    9.8639 O   0  0  0  0  0  0  0  0  0  0  0  0
   24.6884   25.4286    3.2633 C   0  0  1  0  0  0  0  0  0  0  0  0
   24.7709   26.2079    4.5592 O   0  0  0  0  0  0  0  0  0  0  0  0
   31.1605   28.3932    9.6275 C   0  0  0  0  0  0  0  0  0  0  0  0
   30.7100   28.6577    8.3936 O   0  0  0  0  0  0  0  0  0  0  0  0
   26.6612   25.0090    6.6744 C   0  0  1  0  0  0  0  0  0  0  0  0
   27.0619   25.5086    5.4350 O   0  0  0  0  0  0  0  0  0  0  0  0
   25.6662   31.3488    6.8192 C   0  0  0  0  0  0  0  0  0  0  0  0
   25.8368   24.3805    3.0743 C   0  0  0  0  0  0  0  0  0  0  0  0
   27.0952   24.9836    2.7407 N   0  0  0  0  0  0  0  0  0  0  0  0
   24.1506   31.2495    6.9986 C   0  0  0  0  0  0  0  0  0  0  0  0
   23.5398   31.8558    5.7997 N   0  0  0  0  0  0  0  0  0  0  0  0
   24.1348   31.5103    4.4330 C   0  0  0  0  0  0  0  0  0  0  0  0
  1  2  1  1  0  0  0
  1  8  1  0  0  0  0
  1 33  1  0  0  0  0
  3  4  1  6  0  0  0
  3 10  1  0  0  0  0
  3 42  1  0  0  0  0
  5 11  1  0  0  0  0
  5 29  1  0  0  0  0
  5 35  1  6  0  0  0
  6 13  1  0  0  0  0
  6 39  1  0  0  0  0
  6 22  1  1  0  0  0
  7 15  1  0  0  0  0
  8  9  1  1  0  0  0
  8 17  1  0  0  0  0
 10 19  1  0  0  0  0
 11 12  1  1  0  0  0
 11 21  1  0  0  0  0
 12 44  1  0  0  0  0
 13 14  1  1  0  0  0
 13 23  1  0  0  0  0
 15 16  1  0  0  0  0
 17 18  1  1  0  0  0
 17 25  1  0  0  0  0
 19 20  1  1  0  0  0
 19 27  1  0  0  0  0
 21 22  1  1  0  0  0
 21 28  1  0  0  0  0
 23 24  1  6  0  0  0
 23 30  1  0  0  0  0
 25 26  1  1  0  0  0
 25 32  1  0  0  0  0
 27  2  1  1  0  0  0
 27 34  1  0  0  0  0
 28 29  1  0  0  0  0
 28 36  1  6  0  0  0
 30 31  1  1  0  0  0
 30 38  1  0  0  0  0
 32 33  1  0  0  0  0
 32 40  1  6  0  0  0
 34 35  1  1  0  0  0
 34 42  1  0  0  0  0
 36 37  1  0  0  0  0
 38 39  1  0  0  0  0
 38 45  1  1  0  0  0
 40 41  1  0  0  0  0
 42 43  1  6  0  0  0
 44 47  1  0  0  0  0
 45 46  1  0  0  0  0
 47 48  1  0  0  0  0
 48 49  1  0  0  0  0
 49  7  1  0  0  0  0
M  END
>  <CHROM.1>
-148.25186834,-80.94402464,137.88555872,172.11906862,-175.87015803,67.75637122
65.56514136,67.44280108,-150.16786247,176.38090350,-95.90340776,168.37150328
-146.00877433,43.59262212,84.21690061,43.48192568,26.21229978,26.61986452
7.30667037,0.10669007,0.80480999,-3.06089035

>  <Name>
2bee_lig

>  <RI>
0

>  <Rbt.Current_Directory>
/home/itssahil/PROJECTS/Mol_Feturizer/New_Systems/rnas/2bee

>  <Rbt.Executable>
rbdock ($Id: //depot/dev/client3/rdock/2013.1/src/exe/rbdock.cxx#4 $)

>  <Rbt.Library>
libRbt.so (2013.1, Build901 2013/11/27)

>  <Rbt.Parameter_File>
/export/apps/rDock/src/rDock_2013.1_src/data/scripts/dock_solv.prm

>  <Rbt.Receptor>
prm/blind_docking_100.prm

>  <SCORE>
28.8401

>  <SCORE.INTER>
-6.1582

>  <SCORE.INTER.CONST>
1

>  <SCORE.INTER.POLAR>
-0.7725

>  <SCORE.INTER.ROT>
16

>  <SCORE.INTER.SOLV>
28.6491

>  <SCORE.INTER.VDW>
-25.3468

>  <SCORE.INTER.norm>
-0.125678

>  <SCORE.INTRA>
9.15493

>  <SCORE.INTRA.DIHEDRAL>
-5.68857

>  <SCORE.INTRA.DIHEDRAL.0>
36.0842

>  <SCORE.INTRA.POLAR>
0

>  <SCORE.INTRA.POLAR.0>
0

>  <SCORE.INTRA.REPUL>
0.0222018

>  <SCORE.INTRA.REPUL.0>
0

>  <SCORE.INTRA.SOLV>
14.4766

>  <SCORE.INTRA.SOLV.lig_0>
-126.444

>  <SCORE.INTRA.VDW>
4.64992

>  <SCORE.INTRA.VDW.0>
-7.40469

>  <SCORE.INTRA.norm>
0.186835

>  <SCORE.RESTR>
25.8434

>  <SCORE.RESTR.CAVITY>
25.8434

>  <SCORE.RESTR.norm>
0.527416

>  <SCORE.SYSTEM>
0

>  <SCORE.SYSTEM.CONST>
0

>  <SCORE.SYSTEM.DIHEDRAL>
0

>  <SCORE.SYSTEM.SOLV>
0

>  <SCORE.SYSTEM.norm>
0

>  <SCORE.heavy>
49

>  <SCORE.norm>
0.588574

>  <RMSD>
31.182

$$$$
2bee_lig
 OpenBabel11021811423D
libRbt.so/2013.1/901 2013/11/27
 49 52  0  0  0  0  0  0  0  0999 V2000
   29.3801   24.6983    9.8691 C   0  0  2  0  0  0  0  0  0  0  0  0
   28.0671   25.2405    9.9349 O   0  0  0  0  0  0  0  0  0  0  0  0
   25.5586   21.9365    8.4635 C   0  0  2  0  0  0  0  0  0  0  0  0
   24.3804   21.2261    7.8961 N   0  0  0  0  0  0  0  0  0  0  0  0
   27.4480   25.8373    6.7317 C   0  0  1  0  0  0  0  0  0  0  0  0
   24.2889   29.2363    7.7592 C   0  0  1  0  0  0  0  0  0  0  0  0
   24.0761   24.7079    5.3802 C   0  0  0  0  0  0  0  0  0  0  0  0
   29.8727   24.2794   11.3081 C   0  0  2  0  0  0  0  0  0  0  0  0
   28.9111   23.3689   11.9204 N   0  0  0  0  0  0  0  0  0  0  0  0
   25.1109   22.7491    9.7624 C   0  0  0  0  0  0  0  0  0  0  0  0
   26.3318   26.6933    6.2277 C   0  0  2  0  0  0  0  0  0  0  0  0
   26.5790   27.2217    4.8750 O   0  0  0  0  0  0  0  0  0  0  0  0
   24.9117   30.1468    6.5700 C   0  0  2  0  0  0  0  0  0  0  0  0
   26.1161   30.8607    7.1111 N   0  0  0  0  0  0  0  0  0  0  0  0
   24.9413   24.1370    4.4178 C   0  0  0  0  0  0  0  0  0  0  0  0
   25.8884   24.9326    3.7769 N   0  0  0  0  0  0  0  0  0  0  0  0
   30.0872   25.5856   12.1911 C   0  0  1  0  0  0  0  0  0  0  0  0
   30.5348   25.1991   13.4823 O   0  0  0  0  0  0  0  0  0  0  0  0
   26.3770   23.5557   10.4089 C   0  0  2  0  0  0  0  0  0  0  0  0
   25.9896   24.2766   11.5736 N   0  0  0  0  0  0  0  0  0  0  0  0
   26.2505   27.5989    7.4327 C   0  0  2  0  0  0  0  0  0  0  0  0
   25.3658   28.3578    8.1650 O   0  0  0  0  0  0  0  0  0  0  0  0
   23.8179   31.1736    6.1060 C   0  0  1  0  0  0  0  0  0  0  0  0
   22.6848   30.3994    5.5784 O   0  0  0  0  0  0  0  0  0  0  0  0
   31.1171   26.5039   11.4931 C   0  0  2  0  0  0  0  0  0  0  0  0
   31.3358   27.7455   12.2783 O   0  0  0  0  0  0  0  0  0  0  0  0
   26.9767   24.5532    9.3428 C   0  0  2  0  0  0  0  0  0  0  0  0
   27.7903   27.7421    7.8754 C   0  0  2  0  0  0  0  0  0  0  0  0
   28.2589   26.4886    7.6674 O   0  0  0  0  0  0  0  0  0  0  0  0
   23.3753   32.0956    7.3778 C   0  0  2  0  0  0  0  0  0  0  0  0
   24.5243   32.8681    7.9017 O   0  0  0  0  0  0  0  0  0  0  0  0
   30.6200   26.9076   10.0648 C   0  0  2  0  0  0  0  0  0  0  0  0
   30.4195   25.6536    9.3637 O   0  0  0  0  0  0  0  0  0  0  0  0
   27.3954   23.7088    8.0922 C   0  0  2  0  0  0  0  0  0  0  0  0
   27.9308   24.6814    7.2278 O   0  0  0  0  0  0  0  0  0  0  0  0
   28.0965   28.0833    9.3805 C   0  0  0  0  0  0  0  0  0  0  0  0
   27.3312   29.2653    9.7763 O   0  0  0  0  0  0  0  0  0  0  0  0
   22.8091   31.1761    8.5496 C   0  0  1  0  0  0  0  0  0  0  0  0
   23.9003   30.1864    8.9006 O   0  0  0  0  0  0  0  0  0  0  0  0
   31.6684   27.7572    9.4693 C   0  0  0  0  0  0  0  0  0  0  0  0
   31.1356   28.6015    8.5757 O   0  0  0  0  0  0  0  0  0  0  0  0
   26.1412   22.9623    7.4659 C   0  0  1  0  0  0  0  0  0  0  0  0
   26.5281   22.2070    6.3587 O   0  0  0  0  0  0  0  0  0  0  0  0
   25.5352   27.5807    3.9011 C   0  0  0  0  0  0  0  0  0  0  0  0
   22.4402   32.1587    9.7122 C   0  0  0  0  0  0  0  0  0  0  0  0
   21.5677   33.2180    9.2936 N   0  0  0  0  0  0  0  0  0  0  0  0
   24.3688   28.2454    4.6338 C   0  0  0  0  0  0  0  0  0  0  0  0
   23.8150   27.2353    5.5562 N   0  0  0  0  0  0  0  0  0  0  0  0
   23.1947   25.9719    4.9557 C   0  0  0  0  0  0  0  0  0  0  0  0
  1  2  1  1  0  0  0
  1  8  1  0  0  0  0
  1 33  1  0  0  0  0
  3  4  1  6  0  0  0
  3 10  1  0  0  0  0
  3 42  1  0  0  0  0
  5 11  1  0  0  0  0
  5 29  1  0  0  0  0
  5 35  1  1  0  0  0
  6 13  1  0  0  0  0
  6 39  1  0  0  0  0
  6 22  1  1  0  0  0
  7 15  1  0  0  0  0
  8  9  1  1  0  0  0
  8 17  1  0  0  0  0
 10 19  1  0  0  0  0
 11 12  1  6  0  0  0
 11 21  1  0  0  0  0
 12 44  1  0  0  0  0
 13 14  1  1  0  0  0
 13 23  1  0  0  0  0
 15 16  1  0  0  0  0
 17 18  1  1  0  0  0
 17 25  1  0  0  0  0
 19 20  1  1  0  0  0
 19 27  1  0  0  0  0
 21 22  1  6  0  0  0
 21 28  1  0  0  0  0
 23 24  1  1  0  0  0
 23 30  1  0  0  0  0
 25 26  1  1  0  0  0
 25 32  1  0  0  0  0
 27  2  1  1  0  0  0
 27 34  1  0  0  0  0
 28 29  1  0  0  0  0
 28 36  1  1  0  0  0
 30 31  1  1  0  0  0
 30 38  1  0  0  0  0
 32 33  1  0  0  0  0
 32 40  1  6  0  0  0
 34 35  1  6  0  0  0
 34 42  1  0  0  0  0
 36 37  1  0  0  0  0
 38 39  1  0  0  0  0
 38 45  1  1  0  0  0
 40 41  1  0  0  0  0
 42 43  1  6  0  0  0
 44 47  1  0  0  0  0
 45 46  1  0  0  0  0
 47 48  1  0  0  0  0
 48 49  1  0  0  0  0
 49  7  1  0  0  0  0
M  END
>  <CHROM.1>
-113.02745566,-33.88548948,-46.18674361,55.12127112,152.55407679,38.73751106
-41.44677540,88.67117629,-52.23223720,-152.57070744,-54.45528246,53.42206841
-63.07388171,-63.72451776,114.58760958,-103.74448410,26.58396433,26.90638477
8.21127599,-0.54884978,-0.73383083,0.28117202

>  <Name>
2bee_lig

>  <RI>
0

>  <Rbt.Current_Directory>
/home/itssahil/PROJECTS/Mol_Feturizer/New_Systems/rnas/2bee

>  <Rbt.Executable>
rbdock ($Id: //depot/dev/client3/rdock/2013.1/src/exe/rbdock.cxx#4 $)

>  <Rbt.Library>
libRbt.so (2013.1, Build901 2013/11/27)

>  <Rbt.Parameter_File>
/export/apps/rDock/src/rDock_2013.1_src/data/scripts/dock_solv.prm

>  <Rbt.Receptor>
prm/blind_docking_100.prm

>  <SCORE>
40.6089

>  <SCORE.INTER>
9.283

>  <SCORE.INTER.CONST>
1

>  <SCORE.INTER.POLAR>
-0.800685

>  <SCORE.INTER.ROT>
16

>  <SCORE.INTER.SOLV>
35.3115

>  <SCORE.INTER.VDW>
-17.1795

>  <SCORE.INTER.norm>
0.189449

>  <SCORE.INTRA>
10.9057

>  <SCORE.INTRA.DIHEDRAL>
-3.65067

>  <SCORE.INTRA.DIHEDRAL.0>
36.0842

>  <SCORE.INTRA.POLAR>
0

>  <SCORE.INTRA.POLAR.0>
0

>  <SCORE.INTRA.REPUL>
0.0736767

>  <SCORE.INTRA.REPUL.0>
0

>  <SCORE.INTRA.SOLV>
15.053

>  <SCORE.INTRA.SOLV.lig_0>
-126.444

>  <SCORE.INTRA.VDW>
4.83611

>  <SCORE.INTRA.VDW.0>
-7.40469

>  <SCORE.INTRA.norm>
0.222565

>  <SCORE.RESTR>
20.4202

>  <SCORE.RESTR.CAVITY>
20.4202

>  <SCORE.RESTR.norm>
0.416738

>  <SCORE.SYSTEM>
0

>  <SCORE.SYSTEM.CONST>
0

>  <SCORE.SYSTEM.DIHEDRAL>
0

>  <SCORE.SYSTEM.SOLV>
0

>  <SCORE.SYSTEM.norm>
0

>  <SCORE.heavy>
49

>  <SCORE.norm>
0.828752

>  <RMSD>
31.216

$$$$
2bee_lig
 OpenBabel11021811423D
libRbt.so/2013.1/901 2013/11/27
 49 52  0  0  0  0  0  0  0  0999 V2000
   25.0781   29.8702    5.6331 C   0  0  2  0  0  0  0  0  0  0  0  0
   24.0053   29.9305    4.7016 O   0  0  0  0  0  0  0  0  0  0  0  0
   21.9351   26.1032    4.0377 C   0  0  2  0  0  0  0  0  0  0  0  0
   21.4155   24.9041    3.3257 N   0  0  0  0  0  0  0  0  0  0  0  0
   26.4024   26.8658    5.3545 C   0  0  1  0  0  0  0  0  0  0  0  0
   26.7261   22.9417    7.8888 C   0  0  1  0  0  0  0  0  0  0  0  0
   31.2110   26.4498   10.4091 C   0  0  0  0  0  0  0  0  0  0  0  0
   24.6045   29.1799    6.9703 C   0  0  2  0  0  0  0  0  0  0  0  0
   24.0282   27.8712    6.6806 N   0  0  0  0  0  0  0  0  0  0  0  0
   21.4108   27.4212    3.3057 C   0  0  0  0  0  0  0  0  0  0  0  0
   27.0099   26.2103    6.5520 C   0  0  2  0  0  0  0  0  0  0  0  0
   28.3475   26.7351    6.8772 O   0  0  0  0  0  0  0  0  0  0  0  0
   25.3199   23.2516    8.6354 C   0  0  2  0  0  0  0  0  0  0  0  0
   25.1051   24.7371    8.6275 N   0  0  0  0  0  0  0  0  0  0  0  0
   30.7447   26.2626   11.7313 C   0  0  0  0  0  0  0  0  0  0  0  0
   31.1335   27.1456   12.7363 N   0  0  0  0  0  0  0  0  0  0  0  0
   23.5628   30.1279    7.7108 C   0  0  1  0  0  0  0  0  0  0  0  0
   23.1460   29.5007    8.9149 O   0  0  0  0  0  0  0  0  0  0  0  0
   21.9720   28.7630    4.0515 C   0  0  2  0  0  0  0  0  0  0  0  0
   21.5022   29.9443    3.4112 N   0  0  0  0  0  0  0  0  0  0  0  0
   26.8041   24.7869    6.0932 C   0  0  2  0  0  0  0  0  0  0  0  0
   26.5847   23.5129    6.5660 O   0  0  0  0  0  0  0  0  0  0  0  0
   25.4089   22.7100   10.1068 C   0  0  1  0  0  0  0  0  0  0  0  0
   25.6033   21.2547   10.0278 O   0  0  0  0  0  0  0  0  0  0  0  0
   24.2335   31.4924    7.9932 C   0  0  2  0  0  0  0  0  0  0  0  0
   23.2882   32.4155    8.6715 O   0  0  0  0  0  0  0  0  0  0  0  0
   23.5503   28.7532    4.0543 C   0  0  2  0  0  0  0  0  0  0  0  0
   27.0449   24.8859    4.5058 C   0  0  2  0  0  0  0  0  0  0  0  0
   26.4555   26.0679    4.2065 O   0  0  0  0  0  0  0  0  0  0  0  0
   26.6511   23.4412   10.8722 C   0  0  2  0  0  0  0  0  0  0  0  0
   26.4456   24.9055   10.9433 O   0  0  0  0  0  0  0  0  0  0  0  0
   24.7041   32.1641    6.6601 C   0  0  2  0  0  0  0  0  0  0  0  0
   25.6099   31.2081    6.0519 O   0  0  0  0  0  0  0  0  0  0  0  0
   24.0109   27.4431    4.7781 C   0  0  2  0  0  0  0  0  0  0  0  0
   25.4137   27.5484    4.7447 O   0  0  0  0  0  0  0  0  0  0  0  0
   26.3608   23.8070    3.5872 C   0  0  0  0  0  0  0  0  0  0  0  0
   26.5018   22.4866    4.2005 O   0  0  0  0  0  0  0  0  0  0  0  0
   28.0140   23.1601   10.0959 C   0  0  1  0  0  0  0  0  0  0  0  0
   27.8270   23.6624    8.6795 O   0  0  0  0  0  0  0  0  0  0  0  0
   25.3484   33.4395    7.0258 C   0  0  0  0  0  0  0  0  0  0  0  0
   26.5828   33.2218    7.4994 O   0  0  0  0  0  0  0  0  0  0  0  0
   23.4790   26.1560    4.0146 C   0  0  1  0  0  0  0  0  0  0  0  0
   23.8881   24.9963    4.6734 O   0  0  0  0  0  0  0  0  0  0  0  0
   29.1417   26.3589    8.0582 C   0  0  0  0  0  0  0  0  0  0  0  0
   29.1202   23.9210   10.9024 C   0  0  0  0  0  0  0  0  0  0  0  0
   29.2900   23.4142   12.2339 N   0  0  0  0  0  0  0  0  0  0  0  0
   28.5371   27.0124    9.3018 C   0  0  0  0  0  0  0  0  0  0  0  0
   29.4344   28.1220    9.6781 N   0  0  0  0  0  0  0  0  0  0  0  0
   30.9412   27.8566    9.6997 C   0  0  0  0  0  0  0  0  0  0  0  0
  1  2  1  6  0  0  0
  1  8  1  0  0  0  0
  1 33  1  0  0  0  0
  3  4  1  6  0  0  0
  3 10  1  0  0  0  0
  3 42  1  0  0  0  0
  5 11  1  0  0  0  0
  5 29  1  0  0  0  0
  5 35  1  1  0  0  0
  6 13  1  0  0  0  0
  6 39  1  0  0  0  0
  6 22  1  6  0  0  0
  7 15  1  0  0  0  0
  8  9  1  6  0  0  0
  8 17  1  0  0  0  0
 10 19  1  0  0  0  0
 11 12  1  6  0  0  0
 11 21  1  0  0  0  0
 12 44  1  0  0  0  0
 13 14  1  1  0  0  0
 13 23  1  0  0  0  0
 15 16  1  0  0  0  0
 17 18  1  1  0  0  0
 17 25  1  0  0  0  0
 19 20  1  6  0  0  0
 19 27  1  0  0  0  0
 21 22  1  1  0  0  0
 21 28  1  0  0  0  0
 23 24  1  6  0  0  0
 23 30  1  0  0  0  0
 25 26  1  6  0  0  0
 25 32  1  0  0  0  0
 27  2  1  1  0  0  0
 27 34  1  0  0  0  0
 28 29  1  0  0  0  0
 28 36  1  6  0  0  0
 30 31  1  6  0  0  0
 30 38  1  0  0  0  0
 32 33  1  0  0  0  0
 32 40  1  1  0  0  0
 34 35  1  6  0  0  0
 34 42  1  0  0  0  0
 36 37  1  0  0  0  0
 38 39  1  0  0  0  0
 38 45  1  1  0  0  0
 40 41  1  0  0  0  0
 42 43  1  1  0  0  0
 44 47  1  0  0  0  0
 45 46  1  0  0  0  0
 47 48  1  0  0  0  0
 48 49  1  0  0  0  0
 49  7  1  0  0  0  0
M  END
>  <CHROM.1>
-72.12571336,-43.17472675,85.75811166,-55.88617656,174.93519080,-73.65566339
-14.98597174,136.71723681,-42.86215617,77.39596814,168.69844327,63.72129008
-105.75056425,-45.86242980,-44.03626434,-57.80934131,25.95135955,26.83232013
7.21771937,-2.62692539,0.83182754,-3.00104154

>  <Name>
2bee_lig

>  <RI>
0

>  <Rbt.Current_Directory>
/home/itssahil/PROJECTS/Mol_Feturizer/New_Systems/rnas/2bee

>  <Rbt.Executable>
rbdock ($Id: //depot/dev/client3/rdock/2013.1/src/exe/rbdock.cxx#4 $)

>  <Rbt.Library>
libRbt.so (2013.1, Build901 2013/11/27)

>  <Rbt.Parameter_File>
/export/apps/rDock/src/rDock_2013.1_src/data/scripts/dock_solv.prm

>  <Rbt.Receptor>
prm/blind_docking_100.prm

>  <SCORE>
46.9713

>  <SCORE.INTER>
5.07016

>  <SCORE.INTER.CONST>
1

>  <SCORE.INTER.POLAR>
-0.625281

>  <SCORE.INTER.ROT>
16

>  <SCORE.INTER.SOLV>
30.4818

>  <SCORE.INTER.VDW>
-18.9629

>  <SCORE.INTER.norm>
0.103473

>  <SCORE.INTRA>
21.9523

>  <SCORE.INTRA.DIHEDRAL>
-12.8313

>  <SCORE.INTRA.DIHEDRAL.0>
36.0842

>  <SCORE.INTRA.POLAR>
0

>  <SCORE.INTRA.POLAR.0>
0

>  <SCORE.INTRA.REPUL>
0.0325454

>  <SCORE.INTRA.REPUL.0>
0

>  <SCORE.INTRA.SOLV>
10.9082

>  <SCORE.INTRA.SOLV.lig_0>
-126.444

>  <SCORE.INTRA.VDW>
22.7512

>  <SCORE.INTRA.VDW.0>
-7.40469

>  <SCORE.INTRA.norm>
0.448007

>  <SCORE.RESTR>
19.9488

>  <SCORE.RESTR.CAVITY>
19.9488

>  <SCORE.RESTR.norm>
0.407119

>  <SCORE.SYSTEM>
0

>  <SCORE.SYSTEM.CONST>
0

>  <SCORE.SYSTEM.DIHEDRAL>
0

>  <SCORE.SYSTEM.SOLV>
0

>  <SCORE.SYSTEM.norm>
0

>  <SCORE.heavy>
49

>  <SCORE.norm>
0.958598

>  <RMSD>
31.221

$$$$
2bee_lig
 OpenBabel11021811423D
libRbt.so/2013.1/901 2013/11/27
 49 52  0  0  0  0  0  0  0  0999 V2000
   24.5785   30.8488    6.0613 C   0  0  2  0  0  0  0  0  0  0  0  0
   25.3653   30.0118    5.2232 O   0  0  0  0  0  0  0  0  0  0  0  0
   23.3650   26.1330    5.7955 C   0  0  2  0  0  0  0  0  0  0  0  0
   22.9646   24.7208    5.5496 N   0  0  0  0  0  0  0  0  0  0  0  0
   27.4925   27.6662    7.5384 C   0  0  1  0  0  0  0  0  0  0  0  0
   26.3247   24.1788   10.0794 C   0  0  1  0  0  0  0  0  0  0  0  0
   31.1072   24.6534   11.8432 C   0  0  0  0  0  0  0  0  0  0  0  0
   25.3657   31.1956    7.3838 C   0  0  2  0  0  0  0  0  0  0  0  0
   26.6630   31.7771    7.0556 N   0  0  0  0  0  0  0  0  0  0  0  0
   23.0320   27.0094    4.5037 C   0  0  0  0  0  0  0  0  0  0  0  0
   27.7934   27.5939    9.0002 C   0  0  2  0  0  0  0  0  0  0  0  0
   28.9864   28.3703    9.3801 O   0  0  0  0  0  0  0  0  0  0  0  0
   26.6913   22.9250    9.1178 C   0  0  2  0  0  0  0  0  0  0  0  0
   26.9468   23.4553    7.7370 N   0  0  0  0  0  0  0  0  0  0  0  0
   30.6917   24.9288   13.1670 C   0  0  0  0  0  0  0  0  0  0  0  0
   31.6123   24.8667   14.2107 N   0  0  0  0  0  0  0  0  0  0  0  0
   25.5196   29.8792    8.2644 C   0  0  1  0  0  0  0  0  0  0  0  0
   26.2250   30.2020    9.4541 O   0  0  0  0  0  0  0  0  0  0  0  0
   23.4704   28.5678    4.7294 C   0  0  2  0  0  0  0  0  0  0  0  0
   23.1690   29.3598    3.5856 N   0  0  0  0  0  0  0  0  0  0  0  0
   27.7558   26.0888    9.1103 C   0  0  2  0  0  0  0  0  0  0  0  0
   27.4622   25.0696    9.9878 O   0  0  0  0  0  0  0  0  0  0  0  0
   25.4771   21.9291    9.1156 C   0  0  1  0  0  0  0  0  0  0  0  0
   25.3031   21.4462   10.4934 O   0  0  0  0  0  0  0  0  0  0  0  0
   24.1147   29.3164    8.5815 C   0  0  2  0  0  0  0  0  0  0  0  0
   24.2131   28.0751    9.3912 O   0  0  0  0  0  0  0  0  0  0  0  0
   25.0159   28.6495    5.0387 C   0  0  2  0  0  0  0  0  0  0  0  0
   28.3915   25.6131    7.7114 C   0  0  2  0  0  0  0  0  0  0  0  0
   27.8622   26.5089    6.8445 O   0  0  0  0  0  0  0  0  0  0  0  0
   24.1469   22.7079    8.5795 C   0  0  2  0  0  0  0  0  0  0  0  0
   24.3347   23.1914    7.1930 O   0  0  0  0  0  0  0  0  0  0  0  0
   23.3418   28.9820    7.2622 C   0  0  2  0  0  0  0  0  0  0  0  0
   23.2935   30.2294    6.5234 O   0  0  0  0  0  0  0  0  0  0  0  0
   25.2883   27.7733    6.3077 C   0  0  2  0  0  0  0  0  0  0  0  0
   26.6722   27.9355    6.5040 O   0  0  0  0  0  0  0  0  0  0  0  0
   27.9988   24.1894    7.1688 C   0  0  0  0  0  0  0  0  0  0  0  0
   28.0719   24.1889    5.7079 O   0  0  0  0  0  0  0  0  0  0  0  0
   23.8329   23.9609    9.5126 C   0  0  1  0  0  0  0  0  0  0  0  0
   25.0659   24.8402    9.5008 O   0  0  0  0  0  0  0  0  0  0  0  0
   22.0136   28.4775    7.6586 C   0  0  0  0  0  0  0  0  0  0  0  0
   22.1315   27.3212    8.3251 O   0  0  0  0  0  0  0  0  0  0  0  0
   24.8837   26.2594    6.0495 C   0  0  1  0  0  0  0  0  0  0  0  0
   25.1225   25.4912    7.1892 O   0  0  0  0  0  0  0  0  0  0  0  0
   30.3710   28.0312    9.0129 C   0  0  0  0  0  0  0  0  0  0  0  0
   22.5617   24.6355    8.8946 C   0  0  0  0  0  0  0  0  0  0  0  0
   21.3694   23.8597    9.0826 N   0  0  0  0  0  0  0  0  0  0  0  0
   30.9336   27.0371   10.0299 C   0  0  0  0  0  0  0  0  0  0  0  0
   30.4928   25.6953    9.6018 N   0  0  0  0  0  0  0  0  0  0  0  0
   30.0171   24.7147   10.6758 C   0  0  0  0  0  0  0  0  0  0  0  0
  1  2  1  6  0  0  0
  1  8  1  0  0  0  0
  1 33  1  0  0  0  0
  3  4  1  6  0  0  0
  3 10  1  0  0  0  0
  3 42  1  0  0  0  0
  5 11  1  0  0  0  0
  5 29  1  0  0  0  0
  5 35  1  1  0  0  0
  6 13  1  0  0  0  0
  6 39  1  0  0  0  0
  6 22  1  6  0  0  0
  7 15  1  0  0  0  0
  8  9  1  6  0  0  0
  8 17  1  0  0  0  0
 10 19  1  0  0  0  0
 11 12  1  6  0  0  0
 11 21  1  0  0  0  0
 12 44  1  0  0  0  0
 13 14  1  6  0  0  0
 13 23  1  0  0  0  0
 15 16  1  0  0  0  0
 17 18  1  1  0  0  0
 17 25  1  0  0  0  0
 19 20  1  6  0  0  0
 19 27  1  0  0  0  0
 21 22  1  1  0  0  0
 21 28  1  0  0  0  0
 23 24  1  1  0  0  0
 23 30  1  0  0  0  0
 25 26  1  1  0  0  0
 25 32  1  0  0  0  0
 27  2  1  1  0  0  0
 27 34  1  0  0  0  0
 28 29  1  0  0  0  0
 28 36  1  6  0  0  0
 30 31  1  6  0  0  0
 30 38  1  0  0  0  0
 32 33  1  0  0  0  0
 32 40  1  1  0  0  0
 34 35  1  6  0  0  0
 34 42  1  0  0  0  0
 36 37  1  0  0  0  0
 38 39  1  0  0  0  0
 38 45  1  6  0  0  0
 40 41  1  0  0  0  0
 42 43  1  1  0  0  0
 44 47  1  0  0  0  0
 45 46  1  0  0  0  0
 47 48  1  0  0  0  0
 48 49  1  0  0  0  0
 49  7  1  0  0  0  0
M  END
>  <CHROM.1>
109.30560330,-36.78329561,87.88372903,179.14752402,-69.14525060,-85.30649115
104.33330782,47.21365279,151.57608119,-64.89956086,165.44962253,70.99564276
84.02128306,-138.56310747,-50.16127405,124.29696393,26.02330587,26.53715800
8.10443205,-2.43399243,0.48456320,2.80064090

>  <Name>
2bee_lig

>  <RI>
0

>  <Rbt.Current_Directory>
/home/itssahil/PROJECTS/Mol_Feturizer/New_Systems/rnas/2bee

>  <Rbt.Executable>
rbdock ($Id: //depot/dev/client3/rdock/2013.1/src/exe/rbdock.cxx#4 $)

>  <Rbt.Library>
libRbt.so (2013.1, Build901 2013/11/27)

>  <Rbt.Parameter_File>
/export/apps/rDock/src/rDock_2013.1_src/data/scripts/dock_solv.prm

>  <Rbt.Receptor>
prm/blind_docking_100.prm

>  <SCORE>
100.547

>  <SCORE.INTER>
25.1902

>  <SCORE.INTER.CONST>
1

>  <SCORE.INTER.POLAR>
-0.82206

>  <SCORE.INTER.ROT>
16

>  <SCORE.INTER.SOLV>
28.8383

>  <SCORE.INTER.VDW>
-4.34576

>  <SCORE.INTER.norm>
0.514086

>  <SCORE.INTRA>
51.8659

>  <SCORE.INTRA.DIHEDRAL>
-4.25016

>  <SCORE.INTRA.DIHEDRAL.0>
36.0842

>  <SCORE.INTRA.POLAR>
0

>  <SCORE.INTRA.POLAR.0>
0

>  <SCORE.INTRA.REPUL>
1.25887

>  <SCORE.INTRA.REPUL.0>
0

>  <SCORE.INTRA.SOLV>
17.9508

>  <SCORE.INTRA.SOLV.lig_0>
-126.444

>  <SCORE.INTRA.VDW>
38.7213

>  <SCORE.INTRA.VDW.0>
-7.40469

>  <SCORE.INTRA.norm>
1.05849

>  <SCORE.RESTR>
23.4906

>  <SCORE.RESTR.CAVITY>
23.4906

>  <SCORE.RESTR.norm>
0.479401

>  <SCORE.SYSTEM>
0

>  <SCORE.SYSTEM.CONST>
0

>  <SCORE.SYSTEM.DIHEDRAL>
0

>  <SCORE.SYSTEM.SOLV>
0

>  <SCORE.SYSTEM.norm>
0

>  <SCORE.heavy>
49

>  <SCORE.norm>
2.05198

>  <RMSD>
31.263

$$$$
2bee_lig
 OpenBabel11021811423D
libRbt.so/2013.1/901 2013/11/27
 49 52  0  0  0  0  0  0  0  0999 V2000
   28.4530   24.5130    7.7969 C   0  0  2  0  0  0  0  0  0  0  0  0
   27.9062   25.8245    7.8544 O   0  0  0  0  0  0  0  0  0  0  0  0
   30.6458   28.4218   10.1177 C   0  0  2  0  0  0  0  0  0  0  0  0
   31.5547   29.5600   10.4232 N   0  0  0  0  0  0  0  0  0  0  0  0
   26.4503   28.8565    8.1721 C   0  0  1  0  0  0  0  0  0  0  0  0
   23.7426   26.8288    5.2576 C   0  0  1  0  0  0  0  0  0  0  0  0
   22.5427   30.6209    3.9004 C   0  0  0  0  0  0  0  0  0  0  0  0
   27.3139   23.4559    7.5248 C   0  0  2  0  0  0  0  0  0  0  0  0
   26.5739   23.8171    6.3204 N   0  0  0  0  0  0  0  0  0  0  0  0
   31.1755   27.6554    8.8216 C   0  0  0  0  0  0  0  0  0  0  0  0
   26.3187   29.2557    6.7383 C   0  0  2  0  0  0  0  0  0  0  0  0
   26.6563   30.6702    6.5026 O   0  0  0  0  0  0  0  0  0  0  0  0
   25.1649   26.0897    5.0088 C   0  0  2  0  0  0  0  0  0  0  0  0
   25.8861   26.8222    3.9150 N   0  0  0  0  0  0  0  0  0  0  0  0
   22.0036   29.5380    4.6335 C   0  0  0  0  0  0  0  0  0  0  0  0
   20.7077   29.0989    4.3717 N   0  0  0  0  0  0  0  0  0  0  0  0
   26.3600   23.3723    8.7956 C   0  0  1  0  0  0  0  0  0  0  0  0
   25.3412   22.4155    8.5434 O   0  0  0  0  0  0  0  0  0  0  0  0
   30.1945   26.4036    8.4446 C   0  0  2  0  0  0  0  0  0  0  0  0
   30.6638   25.7080    7.2948 N   0  0  0  0  0  0  0  0  0  0  0  0
   24.9181   28.7287    6.5398 C   0  0  2  0  0  0  0  0  0  0  0  0
   24.0811   28.1979    5.5844 O   0  0  0  0  0  0  0  0  0  0  0  0
   24.8851   24.6018    4.5918 C   0  0  1  0  0  0  0  0  0  0  0  0
   24.1942   23.9534    5.7159 O   0  0  0  0  0  0  0  0  0  0  0  0
   27.2005   22.9821   10.0336 C   0  0  2  0  0  0  0  0  0  0  0  0
   26.3492   22.9078   11.2484 O   0  0  0  0  0  0  0  0  0  0  0  0
   28.7299   26.9312    8.1841 C   0  0  2  0  0  0  0  0  0  0  0  0
   24.2195   29.0309    7.9569 C   0  0  2  0  0  0  0  0  0  0  0  0
   25.2185   28.7499    8.8269 O   0  0  0  0  0  0  0  0  0  0  0  0
   23.9740   24.5876    3.2378 C   0  0  2  0  0  0  0  0  0  0  0  0
   24.6787   25.2451    2.1142 O   0  0  0  0  0  0  0  0  0  0  0  0
   28.3303   24.0347   10.2895 C   0  0  2  0  0  0  0  0  0  0  0  0
   29.1100   24.0604    9.0665 O   0  0  0  0  0  0  0  0  0  0  0  0
   28.2609   27.6751    9.4799 C   0  0  2  0  0  0  0  0  0  0  0  0
   26.9536   28.0773    9.1493 O   0  0  0  0  0  0  0  0  0  0  0  0
   22.9983   28.1351    8.3833 C   0  0  0  0  0  0  0  0  0  0  0  0
   23.4552   26.7630    8.6028 O   0  0  0  0  0  0  0  0  0  0  0  0
   22.6025   25.3577    3.4930 C   0  0  1  0  0  0  0  0  0  0  0  0
   22.9600   26.7603    3.9387 O   0  0  0  0  0  0  0  0  0  0  0  0
   29.0903   23.5718   11.4659 C   0  0  0  0  0  0  0  0  0  0  0  0
   30.1152   24.3976   11.7160 O   0  0  0  0  0  0  0  0  0  0  0  0
   29.2122   28.9048    9.8040 C   0  0  1  0  0  0  0  0  0  0  0  0
   28.7897   29.5537   10.9645 O   0  0  0  0  0  0  0  0  0  0  0  0
   26.0024   31.8176    7.1529 C   0  0  0  0  0  0  0  0  0  0  0  0
   21.8289   25.2978    2.1325 C   0  0  0  0  0  0  0  0  0  0  0  0
   21.5156   23.9580    1.7257 N   0  0  0  0  0  0  0  0  0  0  0  0
   25.0763   32.5059    6.1491 C   0  0  0  0  0  0  0  0  0  0  0  0
   24.0806   31.5004    5.7302 N   0  0  0  0  0  0  0  0  0  0  0  0
   24.0220   31.1149    4.2506 C   0  0  0  0  0  0  0  0  0  0  0  0
  1  2  1  1  0  0  0
  1  8  1  0  0  0  0
  1 33  1  0  0  0  0
  3  4  1  6  0  0  0
  3 10  1  0  0  0  0
  3 42  1  0  0  0  0
  5 11  1  0  0  0  0
  5 29  1  0  0  0  0
  5 35  1  6  0  0  0
  6 13  1  0  0  0  0
  6 39  1  0  0  0  0
  6 22  1  6  0  0  0
  7 15  1  0  0  0  0
  8  9  1  6  0  0  0
  8 17  1  0  0  0  0
 10 19  1  0  0  0  0
 11 12  1  1  0  0  0
 11 21  1  0  0  0  0
 12 44  1  0  0  0  0
 13 14  1  6  0  0  0
 13 23  1  0  0  0  0
 15 16  1  0  0  0  0
 17 18  1  6  0  0  0
 17 25  1  0  0  0  0
 19 20  1  6  0  0  0
 19 27  1  0  0  0  0
 21 22  1  6  0  0  0
 21 28  1  0  0  0  0
 23 24  1  1  0  0  0
 23 30  1  0  0  0  0
 25 26  1  1  0  0  0
 25 32  1  0  0  0  0
 27  2  1  1  0  0  0
 27 34  1  0  0  0  0
 28 29  1  0  0  0  0
 28 36  1  1  0  0  0
 30 31  1  6  0  0  0
 30 38  1  0  0  0  0
 32 33  1  0  0  0  0
 32 40  1  1  0  0  0
 34 35  1  6  0  0  0
 34 42  1  0  0  0  0
 36 37  1  0  0  0  0
 38 39  1  0  0  0  0
 38 45  1  6  0  0  0
 40 41  1  0  0  0  0
 42 43  1  1  0  0  0
 44 47  1  0  0  0  0
 45 46  1  0  0  0  0
 47 48  1  0  0  0  0
 48 49  1  0  0  0  0
 49  7  1  0  0  0  0
M  END
>  <CHROM.1>
175.49585075,50.13797015,-54.06676430,178.75878807,-57.80985353,-105.66292037
96.58800051,-0.41407073,66.24960002,177.46268787,-59.34666590,62.25669657
60.01434756,-118.93764785,-153.12855362,-57.37906217,26.07725635,26.89503263
7.12166611,0.19424933,0.76075488,-3.12227287

>  <Name>
2bee_lig

>  <RI>
0

>  <Rbt.Current_Directory>
/home/itssahil/PROJECTS/Mol_Feturizer/New_Systems/rnas/2bee

>  <Rbt.Executable>
rbdock ($Id: //depot/dev/client3/rdock/2013.1/src/exe/rbdock.cxx#4 $)

>  <Rbt.Library>
libRbt.so (2013.1, Build901 2013/11/27)

>  <Rbt.Parameter_File>
/export/apps/rDock/src/rDock_2013.1_src/data/scripts/dock_solv.prm

>  <Rbt.Receptor>
prm/blind_docking_100.prm

>  <SCORE>
65.0246

>  <SCORE.INTER>
35.5137

>  <SCORE.INTER.CONST>
1

>  <SCORE.INTER.POLAR>
-0.198385

>  <SCORE.INTER.ROT>
16

>  <SCORE.INTER.SOLV>
31.489

>  <SCORE.INTER.VDW>
-0.425908

>  <SCORE.INTER.norm>
0.72477

>  <SCORE.INTRA>
2.90689

>  <SCORE.INTRA.DIHEDRAL>
-15.593

>  <SCORE.INTRA.DIHEDRAL.0>
36.0842

>  <SCORE.INTRA.POLAR>
0

>  <SCORE.INTRA.POLAR.0>
0

>  <SCORE.INTRA.REPUL>
0

>  <SCORE.INTRA.REPUL.0>
0

>  <SCORE.INTRA.SOLV>
8.63489

>  <SCORE.INTRA.SOLV.lig_0>
-126.444

>  <SCORE.INTRA.VDW>
6.38598

>  <SCORE.INTRA.VDW.0>
-7.40469

>  <SCORE.INTRA.norm>
0.0593244

>  <SCORE.RESTR>
26.604

>  <SCORE.RESTR.CAVITY>
26.604

>  <SCORE.RESTR.norm>
0.542938

>  <SCORE.SYSTEM>
0

>  <SCORE.SYSTEM.CONST>
0

>  <SCORE.SYSTEM.DIHEDRAL>
0

>  <SCORE.SYSTEM.SOLV>
0

>  <SCORE.SYSTEM.norm>
0

>  <SCORE.heavy>
49

>  <SCORE.norm>
1.32703

>  <RMSD>
31.300

$$$$
2bee_lig
 OpenBabel11021811423D
libRbt.so/2013.1/901 2013/11/27
 49 52  0  0  0  0  0  0  0  0999 V2000
   25.5892   24.5802    7.9242 C   0  0  2  0  0  0  0  0  0  0  0  0
   25.8268   23.9425    6.6755 O   0  0  0  0  0  0  0  0  0  0  0  0
   23.9647   25.1492    2.8742 C   0  0  2  0  0  0  0  0  0  0  0  0
   22.9862   25.1962    1.7538 N   0  0  0  0  0  0  0  0  0  0  0  0
   24.0762   26.8250    7.5302 C   0  0  1  0  0  0  0  0  0  0  0  0
   28.2011   28.0202    9.0155 C   0  0  1  0  0  0  0  0  0  0  0  0
   24.3101   31.5114    6.3817 C   0  0  0  0  0  0  0  0  0  0  0  0
   26.6989   24.1711    8.9683 C   0  0  2  0  0  0  0  0  0  0  0  0
   28.0236   24.4553    8.4273 N   0  0  0  0  0  0  0  0  0  0  0  0
   24.4890   23.6526    3.0558 C   0  0  0  0  0  0  0  0  0  0  0  0
   24.6988   27.3327    8.7901 C   0  0  2  0  0  0  0  0  0  0  0  0
   23.7214   27.9423    9.7085 O   0  0  0  0  0  0  0  0  0  0  0  0
   29.2531   27.6130    7.8499 C   0  0  2  0  0  0  0  0  0  0  0  0
   28.5632   26.6699    6.9077 N   0  0  0  0  0  0  0  0  0  0  0  0
   25.1528   32.1246    7.3381 C   0  0  0  0  0  0  0  0  0  0  0  0
   25.1653   33.5119    7.4644 N   0  0  0  0  0  0  0  0  0  0  0  0
   26.5337   22.6315    9.3348 C   0  0  1  0  0  0  0  0  0  0  0  0
   27.5332   22.2737   10.2781 O   0  0  0  0  0  0  0  0  0  0  0  0
   25.5582   23.5566    4.2883 C   0  0  2  0  0  0  0  0  0  0  0  0
   26.0388   22.2267    4.4525 N   0  0  0  0  0  0  0  0  0  0  0  0
   25.7854   28.1467    8.1303 C   0  0  2  0  0  0  0  0  0  0  0  0
   27.0717   28.5991    8.3189 O   0  0  0  0  0  0  0  0  0  0  0  0
   30.4938   26.9218    8.5200 C   0  0  1  0  0  0  0  0  0  0  0  0
   31.1189   27.9104    9.4108 O   0  0  0  0  0  0  0  0  0  0  0  0
   25.1156   22.3972    9.9055 C   0  0  2  0  0  0  0  0  0  0  0  0
   24.9132   20.9661   10.2472 O   0  0  0  0  0  0  0  0  0  0  0  0
   24.8774   24.0434    5.6265 C   0  0  2  0  0  0  0  0  0  0  0  0
   25.0540   28.7192    6.8169 C   0  0  2  0  0  0  0  0  0  0  0  0
   24.3026   27.6606    6.4312 O   0  0  0  0  0  0  0  0  0  0  0  0
   29.9930   25.6040    9.3424 C   0  0  2  0  0  0  0  0  0  0  0  0
   29.3634   24.6174    8.4360 O   0  0  0  0  0  0  0  0  0  0  0  0
   24.0242   22.8122    8.8632 C   0  0  2  0  0  0  0  0  0  0  0  0
   24.2887   24.2083    8.5713 O   0  0  0  0  0  0  0  0  0  0  0  0
   24.3796   25.5099    5.3941 C   0  0  2  0  0  0  0  0  0  0  0  0
   23.8189   25.8469    6.6399 O   0  0  0  0  0  0  0  0  0  0  0  0
   25.9495   29.0984    5.5800 C   0  0  0  0  0  0  0  0  0  0  0  0
   25.0919   29.4220    4.4401 O   0  0  0  0  0  0  0  0  0  0  0  0
   28.9276   26.0228   10.4508 C   0  0  1  0  0  0  0  0  0  0  0  0
   27.7946   26.7244    9.7314 O   0  0  0  0  0  0  0  0  0  0  0  0
   22.7133   22.5786    9.4978 C   0  0  0  0  0  0  0  0  0  0  0  0
   22.5874   23.3273   10.6019 O   0  0  0  0  0  0  0  0  0  0  0  0
   23.3188   25.5686    4.2136 C   0  0  1  0  0  0  0  0  0  0  0  0
   22.8898   26.8804    4.0104 O   0  0  0  0  0  0  0  0  0  0  0  0
   23.6297   29.3787   10.0173 C   0  0  0  0  0  0  0  0  0  0  0  0
   28.5077   24.6877   11.1539 C   0  0  0  0  0  0  0  0  0  0  0  0
   29.5438   24.1425   11.9833 N   0  0  0  0  0  0  0  0  0  0  0  0
   22.5300   30.0094    9.1617 C   0  0  0  0  0  0  0  0  0  0  0  0
   22.9455   29.8555    7.7539 N   0  0  0  0  0  0  0  0  0  0  0  0
   22.8407   31.0729    6.8329 C   0  0  0  0  0  0  0  0  0  0  0  0
  1  2  1  6  0  0  0
  1  8  1  0  0  0  0
  1 33  1  0  0  0  0
  3  4  1  6  0  0  0
  3 10  1  0  0  0  0
  3 42  1  0  0  0  0
  5 11  1  0  0  0  0
  5 29  1  0  0  0  0
  5 35  1  6  0  0  0
  6 13  1  0  0  0  0
  6 39  1  0  0  0  0
  6 22  1  6  0  0  0
  7 15  1  0  0  0  0
  8  9  1  6  0  0  0
  8 17  1  0  0  0  0
 10 19  1  0  0  0  0
 11 12  1  6  0  0  0
 11 21  1  0  0  0  0
 12 44  1  0  0  0  0
 13 14  1  6  0  0  0
 13 23  1  0  0  0  0
 15 16  1  0  0  0  0
 17 18  1  1  0  0  0
 17 25  1  0  0  0  0
 19 20  1  1  0  0  0
 19 27  1  0  0  0  0
 21 22  1  1  0  0  0
 21 28  1  0  0  0  0
 23 24  1  1  0  0  0
 23 30  1  0  0  0  0
 25 26  1  6  0  0  0
 25 32  1  0  0  0  0
 27  2  1  1  0  0  0
 27 34  1  0  0  0  0
 28 29  1  0  0  0  0
 28 36  1  6  0  0  0
 30 31  1  6  0  0  0
 30 38  1  0  0  0  0
 32 33  1  0  0  0  0
 32 40  1  1  0  0  0
 34 35  1  1  0  0  0
 34 42  1  0  0  0  0
 36 37  1  0  0  0  0
 38 39  1  0  0  0  0
 38 45  1  6  0  0  0
 40 41  1  0  0  0  0
 42 43  1  6  0  0  0
 44 47  1  0  0  0  0
 45 46  1  0  0  0  0
 47 48  1  0  0  0  0
 48 49  1  0  0  0  0
 49  7  1  0  0  0  0
M  END
>  <CHROM.1>
173.03999352,-99.87082554,110.43822462,-91.40912836,-110.03602058,98.11531727
32.10292188,166.21645330,172.40773714,60.83014971,121.37250257,71.27128218
-62.71216206,-133.21265585,114.51866929,-71.96334420,25.70869865,26.24595385
7.67556460,0.98744847,0.77687796,3.10859648

>  <Name>
2bee_lig

>  <RI>
0

>  <Rbt.Current_Directory>
/home/itssahil/PROJECTS/Mol_Feturizer/New_Systems/rnas/2bee

>  <Rbt.Executable>
rbdock ($Id: //depot/dev/client3/rdock/2013.1/src/exe/rbdock.cxx#4 $)

>  <Rbt.Library>
libRbt.so (2013.1, Build901 2013/11/27)

>  <Rbt.Parameter_File>
/export/apps/rDock/src/rDock_2013.1_src/data/scripts/dock_solv.prm

>  <Rbt.Receptor>
prm/blind_docking_100.prm

>  <SCORE>
91.7744

>  <SCORE.INTER>
24.5668

>  <SCORE.INTER.CONST>
1

>  <SCORE.INTER.POLAR>
-0.67593

>  <SCORE.INTER.ROT>
16

>  <SCORE.INTER.SOLV>
33.6792

>  <SCORE.INTER.VDW>
-6.86213

>  <SCORE.INTER.norm>
0.501362

>  <SCORE.INTRA>
40.4638

>  <SCORE.INTRA.DIHEDRAL>
5.89403

>  <SCORE.INTRA.DIHEDRAL.0>
36.0842

>  <SCORE.INTRA.POLAR>
0

>  <SCORE.INTRA.POLAR.0>
0

>  <SCORE.INTRA.REPUL>
0.0753795

>  <SCORE.INTRA.REPUL.0>
0

>  <SCORE.INTRA.SOLV>
14.4321

>  <SCORE.INTRA.SOLV.lig_0>
-126.444

>  <SCORE.INTRA.VDW>
29.9239

>  <SCORE.INTRA.VDW.0>
-7.40469

>  <SCORE.INTRA.norm>
0.825792

>  <SCORE.RESTR>
26.7438

>  <SCORE.RESTR.CAVITY>
26.7438

>  <SCORE.RESTR.norm>
0.545792

>  <SCORE.SYSTEM>
0

>  <SCORE.SYSTEM.CONST>
0

>  <SCORE.SYSTEM.DIHEDRAL>
0

>  <SCORE.SYSTEM.SOLV>
0

>  <SCORE.SYSTEM.norm>
0

>  <SCORE.heavy>
49

>  <SCORE.norm>
1.87295

>  <RMSD>
31.348

$$$$
2bee_lig
 OpenBabel11021811423D
libRbt.so/2013.1/901 2013/11/27
 49 52  0  0  0  0  0  0  0  0999 V2000
   23.1862   30.1602    6.0803 C   0  0  2  0  0  0  0  0  0  0  0  0
   23.7977   29.2244    5.2013 O   0  0  0  0  0  0  0  0  0  0  0  0
   23.1075   25.4424    7.3447 C   0  0  2  0  0  0  0  0  0  0  0  0
   23.1905   23.9951    7.6811 N   0  0  0  0  0  0  0  0  0  0  0  0
   26.8932   27.8747    7.2041 C   0  0  1  0  0  0  0  0  0  0  0  0
   28.1908   23.8537    8.9095 C   0  0  1  0  0  0  0  0  0  0  0  0
   32.2117   25.9003   12.5591 C   0  0  0  0  0  0  0  0  0  0  0  0
   22.4562   31.2901    5.2561 C   0  0  2  0  0  0  0  0  0  0  0  0
   21.5141   30.6935    4.3153 N   0  0  0  0  0  0  0  0  0  0  0  0
   22.5817   25.6077    5.8467 C   0  0  0  0  0  0  0  0  0  0  0  0
   28.0110   27.2993    8.0117 C   0  0  2  0  0  0  0  0  0  0  0  0
   29.2237   28.1354    7.9914 O   0  0  0  0  0  0  0  0  0  0  0  0
   27.0030   24.5409    9.7744 C   0  0  2  0  0  0  0  0  0  0  0  0
   27.3309   25.9959    9.9433 N   0  0  0  0  0  0  0  0  0  0  0  0
   31.6090   26.8329   13.4354 C   0  0  0  0  0  0  0  0  0  0  0  0
   30.3020   27.2570   13.2059 N   0  0  0  0  0  0  0  0  0  0  0  0
   23.5428   32.1822    4.5107 C   0  0  1  0  0  0  0  0  0  0  0  0
   22.8770   33.1988    3.7757 O   0  0  0  0  0  0  0  0  0  0  0  0
   22.4891   27.1864    5.4337 C   0  0  2  0  0  0  0  0  0  0  0  0
   22.0123   27.3445    4.1018 N   0  0  0  0  0  0  0  0  0  0  0  0
   27.9829   25.9237    7.3906 C   0  0  2  0  0  0  0  0  0  0  0  0
   28.2342   24.5993    7.6693 O   0  0  0  0  0  0  0  0  0  0  0  0
   26.9243   23.8226   11.1686 C   0  0  1  0  0  0  0  0  0  0  0  0
   26.5862   22.4138   10.9180 O   0  0  0  0  0  0  0  0  0  0  0  0
   24.5047   32.7879    5.5592 C   0  0  2  0  0  0  0  0  0  0  0  0
   25.5471   33.6177    4.9029 O   0  0  0  0  0  0  0  0  0  0  0  0
   23.9099   27.8598    5.5716 C   0  0  2  0  0  0  0  0  0  0  0  0
   27.6258   26.2341    5.8532 C   0  0  2  0  0  0  0  0  0  0  0  0
   26.7199   27.2337    5.9727 O   0  0  0  0  0  0  0  0  0  0  0  0
   28.3612   23.9695   11.9284 C   0  0  2  0  0  0  0  0  0  0  0  0
   28.6920   25.3916   12.1729 O   0  0  0  0  0  0  0  0  0  0  0  0
   25.2179   31.6577    6.3739 C   0  0  2  0  0  0  0  0  0  0  0  0
   24.1453   30.8874    6.9744 O   0  0  0  0  0  0  0  0  0  0  0  0
   24.3795   27.6671    7.0531 C   0  0  2  0  0  0  0  0  0  0  0  0
   25.6276   28.3167    7.0686 O   0  0  0  0  0  0  0  0  0  0  0  0
   26.9248   25.1016    5.0154 C   0  0  0  0  0  0  0  0  0  0  0  0
   25.8308   24.5255    5.7968 O   0  0  0  0  0  0  0  0  0  0  0  0
   29.5181   23.3279   11.0401 C   0  0  1  0  0  0  0  0  0  0  0  0
   29.4925   24.0373    9.7023 O   0  0  0  0  0  0  0  0  0  0  0  0
   26.0909   32.3237    7.3588 C   0  0  0  0  0  0  0  0  0  0  0  0
   27.1317   32.9034    6.7457 O   0  0  0  0  0  0  0  0  0  0  0  0
   24.4915   26.1252    7.4168 C   0  0  1  0  0  0  0  0  0  0  0  0
   24.9019   25.9666    8.7408 O   0  0  0  0  0  0  0  0  0  0  0  0
   30.5134   27.7733    8.6018 C   0  0  0  0  0  0  0  0  0  0  0  0
   30.8394   23.5449   11.8526 C   0  0  0  0  0  0  0  0  0  0  0  0
   30.6991   23.2254   13.2443 N   0  0  0  0  0  0  0  0  0  0  0  0
   30.4099   27.9150   10.1211 C   0  0  0  0  0  0  0  0  0  0  0  0
   30.6172   26.5686   10.6888 N   0  0  0  0  0  0  0  0  0  0  0  0
   32.0507   26.1224   10.9844 C   0  0  0  0  0  0  0  0  0  0  0  0
  1  2  1  6  0  0  0
  1  8  1  0  0  0  0
  1 33  1  0  0  0  0
  3  4  1  6  0  0  0
  3 10  1  0  0  0  0
  3 42  1  0  0  0  0
  5 11  1  0  0  0  0
  5 29  1  0  0  0  0
  5 35  1  1  0  0  0
  6 13  1  0  0  0  0
  6 39  1  0  0  0  0
  6 22  1  6  0  0  0
  7 15  1  0  0  0  0
  8  9  1  6  0  0  0
  8 17  1  0  0  0  0
 10 19  1  0  0  0  0
 11 12  1  6  0  0  0
 11 21  1  0  0  0  0
 12 44  1  0  0  0  0
 13 14  1  1  0  0  0
 13 23  1  0  0  0  0
 15 16  1  0  0  0  0
 17 18  1  1  0  0  0
 17 25  1  0  0  0  0
 19 20  1  6  0  0  0
 19 27  1  0  0  0  0
 21 22  1  6  0  0  0
 21 28  1  0  0  0  0
 23 24  1  6  0  0  0
 23 30  1  0  0  0  0
 25 26  1  6  0  0  0
 25 32  1  0  0  0  0
 27  2  1  1  0  0  0
 27 34  1  0  0  0  0
 28 29  1  0  0  0  0
 28 36  1  1  0  0  0
 30 31  1  6  0  0  0
 30 38  1  0  0  0  0
 32 33  1  0  0  0  0
 32 40  1  1  0  0  0
 34 35  1  6  0  0  0
 34 42  1  0  0  0  0
 36 37  1  0  0  0  0
 38 39  1  0  0  0  0
 38 45  1  1  0  0  0
 40 41  1  0  0  0  0
 42 43  1  1  0  0  0
 44 47  1  0  0  0  0
 45 46  1  0  0  0  0
 47 48  1  0  0  0  0
 48 49  1  0  0  0  0
 49  7  1  0  0  0  0
M  END
>  <CHROM.1>
-148.04762500,-71.00664014,32.94346975,45.32186992,-174.77481401,-74.45723376
27.52904595,74.96129543,46.22488304,-70.54746066,-112.02048543,45.10264515
117.10623504,87.65891465,116.07589634,-41.13777011,26.65770337,27.28572573
8.04052017,2.38748821,-0.61905016,-0.26099381

>  <Name>
2bee_lig

>  <RI>
0

>  <Rbt.Current_Directory>
/home/itssahil/PROJECTS/Mol_Feturizer/New_Systems/rnas/2bee

>  <Rbt.Executable>
rbdock ($Id: //depot/dev/client3/rdock/2013.1/src/exe/rbdock.cxx#4 $)

>  <Rbt.Library>
libRbt.so (2013.1, Build901 2013/11/27)

>  <Rbt.Parameter_File>
/export/apps/rDock/src/rDock_2013.1_src/data/scripts/dock_solv.prm

>  <Rbt.Receptor>
prm/blind_docking_100.prm

>  <SCORE>
123.852

>  <SCORE.INTER>
82.8161

>  <SCORE.INTER.CONST>
1

>  <SCORE.INTER.POLAR>
-0.0276654

>  <SCORE.INTER.ROT>
16

>  <SCORE.INTER.SOLV>
31.8521

>  <SCORE.INTER.VDW>
30.4189

>  <SCORE.INTER.norm>
1.69012

>  <SCORE.INTRA>
17.2376

>  <SCORE.INTRA.DIHEDRAL>
-3.89108

>  <SCORE.INTRA.DIHEDRAL.0>
36.0842

>  <SCORE.INTRA.POLAR>
0

>  <SCORE.INTRA.POLAR.0>
0

>  <SCORE.INTRA.REPUL>
0.214953

>  <SCORE.INTRA.REPUL.0>
0

>  <SCORE.INTRA.SOLV>
18.9676

>  <SCORE.INTRA.SOLV.lig_0>
-126.444

>  <SCORE.INTRA.VDW>
8.6246

>  <SCORE.INTRA.VDW.0>
-7.40469

>  <SCORE.INTRA.norm>
0.351789

>  <SCORE.RESTR>
23.7984

>  <SCORE.RESTR.CAVITY>
23.7984

>  <SCORE.RESTR.norm>
0.485682

>  <SCORE.SYSTEM>
0

>  <SCORE.SYSTEM.CONST>
0

>  <SCORE.SYSTEM.DIHEDRAL>
0

>  <SCORE.SYSTEM.SOLV>
0

>  <SCORE.SYSTEM.norm>
0

>  <SCORE.heavy>
49

>  <SCORE.norm>
2.52759

>  <RMSD>
31.403

$$$$
2bee_lig
 OpenBabel11021811423D
libRbt.so/2013.1/901 2013/11/27
 49 52  0  0  0  0  0  0  0  0999 V2000
   23.5837   23.7844    8.2870 C   0  0  2  0  0  0  0  0  0  0  0  0
   23.6143   25.1774    8.0030 O   0  0  0  0  0  0  0  0  0  0  0  0
   25.4083   25.1772    3.9836 C   0  0  2  0  0  0  0  0  0  0  0  0
   25.9746   25.6972    2.7094 N   0  0  0  0  0  0  0  0  0  0  0  0
   26.7938   26.6516    8.1165 C   0  0  1  0  0  0  0  0  0  0  0  0
   25.2762   30.2051    5.8774 C   0  0  1  0  0  0  0  0  0  0  0  0
   30.0537   25.7279   12.1410 C   0  0  0  0  0  0  0  0  0  0  0  0
   24.1683   23.5054    9.7255 C   0  0  2  0  0  0  0  0  0  0  0  0
   23.4570   24.3041   10.7179 N   0  0  0  0  0  0  0  0  0  0  0  0
   23.9431   25.7746    4.1936 C   0  0  0  0  0  0  0  0  0  0  0  0
   27.5747   27.9122    7.9333 C   0  0  2  0  0  0  0  0  0  0  0  0
   28.5655   28.1342    9.0006 O   0  0  0  0  0  0  0  0  0  0  0  0
   24.4983   31.6130    6.0867 C   0  0  2  0  0  0  0  0  0  0  0  0
   23.6162   31.4834    7.2942 N   0  0  0  0  0  0  0  0  0  0  0  0
   31.0923   25.6530   13.0985 C   0  0  0  0  0  0  0  0  0  0  0  0
   31.3015   26.7111   13.9801 N   0  0  0  0  0  0  0  0  0  0  0  0
   25.7281   23.8199    9.7290 C   0  0  1  0  0  0  0  0  0  0  0  0
   26.2462   23.5616   11.0259 O   0  0  0  0  0  0  0  0  0  0  0  0
   23.2906   25.2365    5.5923 C   0  0  2  0  0  0  0  0  0  0  0  0
   21.9796   25.7569    5.7843 N   0  0  0  0  0  0  0  0  0  0  0  0
   26.3874   28.8259    7.7478 C   0  0  2  0  0  0  0  0  0  0  0  0
   25.9943   29.9834    7.1148 O   0  0  0  0  0  0  0  0  0  0  0  0
   23.6437   31.9039    4.8017 C   0  0  1  0  0  0  0  0  0  0  0  0
   24.5774   32.0313    3.6732 O   0  0  0  0  0  0  0  0  0  0  0  0
   26.4232   22.9412    8.6631 C   0  0  2  0  0  0  0  0  0  0  0  0
   27.8823   23.2151    8.6220 O   0  0  0  0  0  0  0  0  0  0  0  0
   24.2093   25.6526    6.8064 C   0  0  2  0  0  0  0  0  0  0  0  0
   25.2983   28.2038    8.7549 C   0  0  2  0  0  0  0  0  0  0  0  0
   25.4987   26.8738    8.5969 O   0  0  0  0  0  0  0  0  0  0  0  0
   22.5878   30.6808    4.5728 C   0  0  2  0  0  0  0  0  0  0  0  0
   21.6550   30.5608    5.7160 O   0  0  0  0  0  0  0  0  0  0  0  0
   25.8307   23.2227    7.2419 C   0  0  2  0  0  0  0  0  0  0  0  0
   24.4117   22.9456    7.3600 O   0  0  0  0  0  0  0  0  0  0  0  0
   25.6303   25.0464    6.5499 C   0  0  2  0  0  0  0  0  0  0  0  0
   26.3500   25.4536    7.6884 O   0  0  0  0  0  0  0  0  0  0  0  0
   23.7768   28.4602    8.4462 C   0  0  0  0  0  0  0  0  0  0  0  0
   23.3800   29.7544    9.0002 O   0  0  0  0  0  0  0  0  0  0  0  0
   23.3724   29.3028    4.4149 C   0  0  1  0  0  0  0  0  0  0  0  0
   24.2069   29.1241    5.6659 O   0  0  0  0  0  0  0  0  0  0  0  0
   26.5313   22.3297    6.2999 C   0  0  0  0  0  0  0  0  0  0  0  0
   26.1150   22.5523    5.0459 O   0  0  0  0  0  0  0  0  0  0  0  0
   26.2531   25.6107    5.2023 C   0  0  1  0  0  0  0  0  0  0  0  0
   27.5143   25.0570    4.9805 O   0  0  0  0  0  0  0  0  0  0  0  0
   29.7321   27.2766    9.2663 C   0  0  0  0  0  0  0  0  0  0  0  0
   22.2663   28.2104    4.2237 C   0  0  0  0  0  0  0  0  0  0  0  0
   21.3526   28.1405    5.3277 N   0  0  0  0  0  0  0  0  0  0  0  0
   29.4452   25.8631    8.7577 C   0  0  0  0  0  0  0  0  0  0  0  0
   28.9895   25.0769    9.9205 N   0  0  0  0  0  0  0  0  0  0  0  0
   30.0308   24.6528   10.9584 C   0  0  0  0  0  0  0  0  0  0  0  0
  1  2  1  6  0  0  0
  1  8  1  0  0  0  0
  1 33  1  0  0  0  0
  3  4  1  6  0  0  0
  3 10  1  0  0  0  0
  3 42  1  0  0  0  0
  5 11  1  0  0  0  0
  5 29  1  0  0  0  0
  5 35  1  6  0  0  0
  6 13  1  0  0  0  0
  6 39  1  0  0  0  0
  6 22  1  1  0  0  0
  7 15  1  0  0  0  0
  8  9  1  1  0  0  0
  8 17  1  0  0  0  0
 10 19  1  0  0  0  0
 11 12  1  1  0  0  0
 11 21  1  0  0  0  0
 12 44  1  0  0  0  0
 13 14  1  1  0  0  0
 13 23  1  0  0  0  0
 15 16  1  0  0  0  0
 17 18  1  1  0  0  0
 17 25  1  0  0  0  0
 19 20  1  1  0  0  0
 19 27  1  0  0  0  0
 21 22  1  1  0  0  0
 21 28  1  0  0  0  0
 23 24  1  6  0  0  0
 23 30  1  0  0  0  0
 25 26  1  6  0  0  0
 25 32  1  0  0  0  0
 27  2  1  1  0  0  0
 27 34  1  0  0  0  0
 28 29  1  0  0  0  0
 28 36  1  6  0  0  0
 30 31  1  1  0  0  0
 30 38  1  0  0  0  0
 32 33  1  0  0  0  0
 32 40  1  6  0  0  0
 34 35  1  1  0  0  0
 34 42  1  0  0  0  0
 36 37  1  0  0  0  0
 38 39  1  0  0  0  0
 38 45  1  1  0  0  0
 40 41  1  0  0  0  0
 42 43  1  6  0  0  0
 44 47  1  0  0  0  0
 45 46  1  0  0  0  0
 47 48  1  0  0  0  0
 48 49  1  0  0  0  0
 49  7  1  0  0  0  0
M  END
>  <CHROM.1>
127.94034859,-56.12333889,151.45813913,167.38896379,64.50625919,-25.53865077
97.98362999,70.19864885,-84.68320692,-177.45331395,-69.69451883,-59.38109316
-97.16521115,-73.97568499,94.59832723,-169.83294982,25.63086130,26.62908041
7.45147655,0.56686962,0.80650277,-3.11501651

>  <Name>
2bee_lig

>  <RI>
0

>  <Rbt.Current_Directory>
/home/itssahil/PROJECTS/Mol_Feturizer/New_Systems/rnas/2bee

>  <Rbt.Executable>
rbdock ($Id: //depot/dev/client3/rdock/2013.1/src/exe/rbdock.cxx#4 $)

>  <Rbt.Library>
libRbt.so (2013.1, Build901 2013/11/27)

>  <Rbt.Parameter_File>
/export/apps/rDock/src/rDock_2013.1_src/data/scripts/dock_solv.prm

>  <Rbt.Receptor>
prm/blind_docking_100.prm

>  <SCORE>
64.0553

>  <SCORE.INTER>
5.49414

>  <SCORE.INTER.CONST>
1

>  <SCORE.INTER.POLAR>
-0.964252

>  <SCORE.INTER.ROT>
16

>  <SCORE.INTER.SOLV>
24.517

>  <SCORE.INTER.VDW>
-15.562

>  <SCORE.INTER.norm>
0.112125

>  <SCORE.INTRA>
32.7249

>  <SCORE.INTRA.DIHEDRAL>
-8.43137

>  <SCORE.INTRA.DIHEDRAL.0>
36.0842

>  <SCORE.INTRA.POLAR>
0

>  <SCORE.INTRA.POLAR.0>
0

>  <SCORE.INTRA.REPUL>
0.177749

>  <SCORE.INTRA.REPUL.0>
0

>  <SCORE.INTRA.SOLV>
13.9797

>  <SCORE.INTRA.SOLV.lig_0>
-126.444

>  <SCORE.INTRA.VDW>
29.0621

>  <SCORE.INTRA.VDW.0>
-7.40469

>  <SCORE.INTRA.norm>
0.667856

>  <SCORE.RESTR>
25.8363

>  <SCORE.RESTR.CAVITY>
25.8363

>  <SCORE.RESTR.norm>
0.52727

>  <SCORE.SYSTEM>
0

>  <SCORE.SYSTEM.CONST>
0

>  <SCORE.SYSTEM.DIHEDRAL>
0

>  <SCORE.SYSTEM.SOLV>
0

>  <SCORE.SYSTEM.norm>
0

>  <SCORE.heavy>
49

>  <SCORE.norm>
1.30725

>  <RMSD>
31.442

$$$$
2bee_lig
 OpenBabel11021811423D
libRbt.so/2013.1/901 2013/11/27
 49 52  0  0  0  0  0  0  0  0999 V2000
   25.3982   23.3189    6.5348 C   0  0  2  0  0  0  0  0  0  0  0  0
   26.2787   23.5784    7.6209 O   0  0  0  0  0  0  0  0  0  0  0  0
   23.4560   24.3506   10.9088 C   0  0  2  0  0  0  0  0  0  0  0  0
   22.9518   24.7768   12.2426 N   0  0  0  0  0  0  0  0  0  0  0  0
   25.9264   27.1730    8.3349 C   0  0  1  0  0  0  0  0  0  0  0  0
   25.2020   30.9191    6.0184 C   0  0  1  0  0  0  0  0  0  0  0  0
   31.7434   26.3435    8.7512 C   0  0  0  0  0  0  0  0  0  0  0  0
   26.1382   22.4892    5.4156 C   0  0  2  0  0  0  0  0  0  0  0  0
   26.7085   21.2746    5.9883 N   0  0  0  0  0  0  0  0  0  0  0  0
   24.6165   23.2719   11.1022 C   0  0  0  0  0  0  0  0  0  0  0  0
   26.9575   28.2192    8.0613 C   0  0  2  0  0  0  0  0  0  0  0  0
   28.0441   28.2286    9.0561 O   0  0  0  0  0  0  0  0  0  0  0  0
   24.2937   32.2242    6.3389 C   0  0  2  0  0  0  0  0  0  0  0  0
   23.3307   31.8650    7.4328 N   0  0  0  0  0  0  0  0  0  0  0  0
   30.9575   25.6059    7.8351 C   0  0  0  0  0  0  0  0  0  0  0  0
   29.6316   25.9684    7.6086 N   0  0  0  0  0  0  0  0  0  0  0  0
   27.2553   23.3985    4.7393 C   0  0  1  0  0  0  0  0  0  0  0  0
   27.9125   22.6451    3.7305 O   0  0  0  0  0  0  0  0  0  0  0  0
   25.2070   22.7876    9.6571 C   0  0  2  0  0  0  0  0  0  0  0  0
   26.2368   21.8183    9.8189 N   0  0  0  0  0  0  0  0  0  0  0  0
   25.9976   29.3758    7.9212 C   0  0  2  0  0  0  0  0  0  0  0  0
   25.8336   30.5809    7.2764 O   0  0  0  0  0  0  0  0  0  0  0  0
   23.5246   32.6274    5.0305 C   0  0  1  0  0  0  0  0  0  0  0  0
   24.5326   32.9772    4.0189 O   0  0  0  0  0  0  0  0  0  0  0  0
   26.5885   24.6627    4.1490 C   0  0  2  0  0  0  0  0  0  0  0  0
   27.6006   25.5492    3.5198 O   0  0  0  0  0  0  0  0  0  0  0  0
   25.7693   24.0315    8.8648 C   0  0  2  0  0  0  0  0  0  0  0  0
   24.8682   29.0360    9.0150 C   0  0  2  0  0  0  0  0  0  0  0  0
   24.7513   27.6927    8.8887 O   0  0  0  0  0  0  0  0  0  0  0  0
   22.5977   31.3743    4.5466 C   0  0  2  0  0  0  0  0  0  0  0  0
   21.5888   31.0297    5.5736 O   0  0  0  0  0  0  0  0  0  0  0  0
   25.8529   25.4738    5.2674 C   0  0  2  0  0  0  0  0  0  0  0  0
   24.8939   24.5482    5.8399 O   0  0  0  0  0  0  0  0  0  0  0  0
   24.5964   25.0569    8.7058 C   0  0  2  0  0  0  0  0  0  0  0  0
   25.1948   26.1001    7.9755 O   0  0  0  0  0  0  0  0  0  0  0  0
   23.4265   29.6267    8.7948 C   0  0  0  0  0  0  0  0  0  0  0  0
   22.8950   29.1484    7.5188 O   0  0  0  0  0  0  0  0  0  0  0  0
   23.5060   30.0921    4.2814 C   0  0  1  0  0  0  0  0  0  0  0  0
   24.2484   29.8030    5.5693 O   0  0  0  0  0  0  0  0  0  0  0  0
   25.2311   26.6406    4.6135 C   0  0  0  0  0  0  0  0  0  0  0  0
   25.7031   26.7863    3.3680 O   0  0  0  0  0  0  0  0  0  0  0  0
   24.0641   25.5343   10.1240 C   0  0  1  0  0  0  0  0  0  0  0  0
   23.0143   26.4401    9.9693 O   0  0  0  0  0  0  0  0  0  0  0  0
   28.6392   27.0318    9.6730 C   0  0  0  0  0  0  0  0  0  0  0  0
   22.5152   28.9593    3.8475 C   0  0  0  0  0  0  0  0  0  0  0  0
   21.6546   29.3519    2.7687 N   0  0  0  0  0  0  0  0  0  0  0  0
   29.8127   27.4516   10.5592 C   0  0  0  0  0  0  0  0  0  0  0  0
   30.5001   26.2120   10.9702 N   0  0  0  0  0  0  0  0  0  0  0  0
   31.8099   25.8461   10.2687 C   0  0  0  0  0  0  0  0  0  0  0  0
  1  2  1  1  0  0  0
  1  8  1  0  0  0  0
  1 33  1  0  0  0  0
  3  4  1  1  0  0  0
  3 10  1  0  0  0  0
  3 42  1  0  0  0  0
  5 11  1  0  0  0  0
  5 29  1  0  0  0  0
  5 35  1  6  0  0  0
  6 13  1  0  0  0  0
  6 39  1  0  0  0  0
  6 22  1  1  0  0  0
  7 15  1  0  0  0  0
  8  9  1  1  0  0  0
  8 17  1  0  0  0  0
 10 19  1  0  0  0  0
 11 12  1  1  0  0  0
 11 21  1  0  0  0  0
 12 44  1  0  0  0  0
 13 14  1  1  0  0  0
 13 23  1  0  0  0  0
 15 16  1  0  0  0  0
 17 18  1  6  0  0  0
 17 25  1  0  0  0  0
 19 20  1  1  0  0  0
 19 27  1  0  0  0  0
 21 22  1  1  0  0  0
 21 28  1  0  0  0  0
 23 24  1  6  0  0  0
 23 30  1  0  0  0  0
 25 26  1  1  0  0  0
 25 32  1  0  0  0  0
 27  2  1  6  0  0  0
 27 34  1  0  0  0  0
 28 29  1  0  0  0  0
 28 36  1  6  0  0  0
 30 31  1  1  0  0  0
 30 38  1  0  0  0  0
 32 33  1  0  0  0  0
 32 40  1  6  0  0  0
 34 35  1  6  0  0  0
 34 42  1  0  0  0  0
 36 37  1  0  0  0  0
 38 39  1  0  0  0  0
 38 45  1  1  0  0  0
 40 41  1  0  0  0  0
 42 43  1  6  0  0  0
 44 47  1  0  0  0  0
 45 46  1  0  0  0  0
 47 48  1  0  0  0  0
 48 49  1  0  0  0  0
 49  7  1  0  0  0  0
M  END
>  <CHROM.1>
-165.42008673,152.77310192,134.43419499,92.84355020,38.21124530,175.21567257
91.61417473,80.07978214,59.34155043,-12.43132844,-84.98503850,52.41914138
-170.97859289,102.97087167,-33.07645797,-75.47325944,25.69849873,26.94696401
7.24001907,0.30037766,1.03284248,-2.35543950

>  <Name>
2bee_lig

>  <RI>
0

>  <Rbt.Current_Directory>
/home/itssahil/PROJECTS/Mol_Feturizer/New_Systems/rnas/2bee

>  <Rbt.Executable>
rbdock ($Id: //depot/dev/client3/rdock/2013.1/src/exe/rbdock.cxx#4 $)

>  <Rbt.Library>
libRbt.so (2013.1, Build901 2013/11/27)

>  <Rbt.Parameter_File>
/export/apps/rDock/src/rDock_2013.1_src/data/scripts/dock_solv.prm

>  <Rbt.Receptor>
prm/blind_docking_100.prm

>  <SCORE>
93.3819

>  <SCORE.INTER>
45.6544

>  <SCORE.INTER.CONST>
1

>  <SCORE.INTER.POLAR>
-1.28025

>  <SCORE.INTER.ROT>
16

>  <SCORE.INTER.SOLV>
33.3803

>  <SCORE.INTER.VDW>
9.31029

>  <SCORE.INTER.norm>
0.931722

>  <SCORE.INTRA>
17.9628

>  <SCORE.INTRA.DIHEDRAL>
-4.62726

>  <SCORE.INTRA.DIHEDRAL.0>
36.0842

>  <SCORE.INTRA.POLAR>
0

>  <SCORE.INTRA.POLAR.0>
0

>  <SCORE.INTRA.REPUL>
0.0604998

>  <SCORE.INTRA.REPUL.0>
0

>  <SCORE.INTRA.SOLV>
8.86869

>  <SCORE.INTRA.SOLV.lig_0>
-126.444

>  <SCORE.INTRA.VDW>
15.5395

>  <SCORE.INTRA.VDW.0>
-7.40469

>  <SCORE.INTRA.norm>
0.366587

>  <SCORE.RESTR>
29.7648

>  <SCORE.RESTR.CAVITY>
29.7648

>  <SCORE.RESTR.norm>
0.607444

>  <SCORE.SYSTEM>
0

>  <SCORE.SYSTEM.CONST>
0

>  <SCORE.SYSTEM.DIHEDRAL>
0

>  <SCORE.SYSTEM.SOLV>
0

>  <SCORE.SYSTEM.norm>
0

>  <SCORE.heavy>
49

>  <SCORE.norm>
1.90575

>  <RMSD>
31.464

$$$$
2bee_lig
 OpenBabel11021811423D
libRbt.so/2013.1/901 2013/11/27
 49 52  0  0  0  0  0  0  0  0999 V2000
   23.2886   29.9998    6.9158 C   0  0  2  0  0  0  0  0  0  0  0  0
   24.0280   28.9089    6.3816 O   0  0  0  0  0  0  0  0  0  0  0  0
   22.3935   25.5262    8.6751 C   0  0  2  0  0  0  0  0  0  0  0  0
   22.2484   24.1456    9.2115 N   0  0  0  0  0  0  0  0  0  0  0  0
   26.3811   27.8914    8.6190 C   0  0  1  0  0  0  0  0  0  0  0  0
   27.3264   23.8061    7.0368 C   0  0  1  0  0  0  0  0  0  0  0  0
   29.7483   24.2197   11.7577 C   0  0  0  0  0  0  0  0  0  0  0  0
   22.4436   30.6971    5.7806 C   0  0  2  0  0  0  0  0  0  0  0  0
   21.6012   29.7136    5.1085 N   0  0  0  0  0  0  0  0  0  0  0  0
   22.3803   25.4776    7.0797 C   0  0  0  0  0  0  0  0  0  0  0  0
   27.5684   27.0106    8.8360 C   0  0  2  0  0  0  0  0  0  0  0  0
   28.7548   27.7502    9.3005 O   0  0  0  0  0  0  0  0  0  0  0  0
   26.1792   23.6325    5.9033 C   0  0  2  0  0  0  0  0  0  0  0  0
   25.1547   24.7104    6.1078 N   0  0  0  0  0  0  0  0  0  0  0  0
   30.2257   25.0994   12.7573 C   0  0  0  0  0  0  0  0  0  0  0  0
   30.7188   24.5870   13.9552 N   0  0  0  0  0  0  0  0  0  0  0  0
   23.4285   31.4196    4.7608 C   0  0  1  0  0  0  0  0  0  0  0  0
   22.6592   32.0480    3.7458 O   0  0  0  0  0  0  0  0  0  0  0  0
   22.5512   26.9765    6.4507 C   0  0  2  0  0  0  0  0  0  0  0  0
   22.5315   26.9446    5.0278 N   0  0  0  0  0  0  0  0  0  0  0  0
   27.5308   26.3341    7.4871 C   0  0  2  0  0  0  0  0  0  0  0  0
   27.8353   25.1492    6.8558 O   0  0  0  0  0  0  0  0  0  0  0  0
   25.5315   22.2111    6.0658 C   0  0  1  0  0  0  0  0  0  0  0  0
   26.5908   21.2175    5.8368 O   0  0  0  0  0  0  0  0  0  0  0  0
   24.2871   32.4495    5.5312 C   0  0  2  0  0  0  0  0  0  0  0  0
   25.2339   33.1376    4.6169 O   0  0  0  0  0  0  0  0  0  0  0  0
   23.9066   27.6142    6.9482 C   0  0  2  0  0  0  0  0  0  0  0  0
   27.0561   27.5184    6.5075 C   0  0  2  0  0  0  0  0  0  0  0  0
   26.1360   28.1584    7.2677 O   0  0  0  0  0  0  0  0  0  0  0  0
   24.8981   22.0795    7.5641 C   0  0  2  0  0  0  0  0  0  0  0  0
   23.8351   23.0861    7.7837 O   0  0  0  0  0  0  0  0  0  0  0  0
   25.1157   31.7468    6.6579 C   0  0  2  0  0  0  0  0  0  0  0  0
   24.1328   31.0923    7.5005 O   0  0  0  0  0  0  0  0  0  0  0  0
   23.8696   27.6351    8.5136 C   0  0  2  0  0  0  0  0  0  0  0  0
   25.0981   28.2364    8.8437 O   0  0  0  0  0  0  0  0  0  0  0  0
   26.3258   27.1225    5.1712 C   0  0  0  0  0  0  0  0  0  0  0  0
   27.1144   26.1114    4.4675 O   0  0  0  0  0  0  0  0  0  0  0  0
   26.0342   22.2982    8.6598 C   0  0  1  0  0  0  0  0  0  0  0  0
   26.6394   23.6623    8.4021 O   0  0  0  0  0  0  0  0  0  0  0  0
   25.8800   32.8013    7.3502 C   0  0  0  0  0  0  0  0  0  0  0  0
   27.0173   33.0641    6.6923 O   0  0  0  0  0  0  0  0  0  0  0  0
   23.7356   26.1643    9.0977 C   0  0  1  0  0  0  0  0  0  0  0  0
   23.6948   26.1967   10.4918 O   0  0  0  0  0  0  0  0  0  0  0  0
   30.0734   27.7347    8.6462 C   0  0  0  0  0  0  0  0  0  0  0  0
   25.3117   22.1713   10.0436 C   0  0  0  0  0  0  0  0  0  0  0  0
   24.5663   23.3459   10.3952 N   0  0  0  0  0  0  0  0  0  0  0  0
   30.5556   26.2891    8.5171 C   0  0  0  0  0  0  0  0  0  0  0  0
   30.5824   25.7263    9.8811 N   0  0  0  0  0  0  0  0  0  0  0  0
   29.4295   24.8158   10.3093 C   0  0  0  0  0  0  0  0  0  0  0  0
  1  2  1  6  0  0  0
  1  8  1  0  0  0  0
  1 33  1  0  0  0  0
  3  4  1  1  0  0  0
  3 10  1  0  0  0  0
  3 42  1  0  0  0  0
  5 11  1  0  0  0  0
  5 29  1  0  0  0  0
  5 35  1  6  0  0  0
  6 13  1  0  0  0  0
  6 39  1  0  0  0  0
  6 22  1  1  0  0  0
  7 15  1  0  0  0  0
  8  9  1  6  0  0  0
  8 17  1  0  0  0  0
 10 19  1  0  0  0  0
 11 12  1  6  0  0  0
 11 21  1  0  0  0  0
 12 44  1  0  0  0  0
 13 14  1  1  0  0  0
 13 23  1  0  0  0  0
 15 16  1  0  0  0  0
 17 18  1  6  0  0  0
 17 25  1  0  0  0  0
 19 20  1  6  0  0  0
 19 27  1  0  0  0  0
 21 22  1  6  0  0  0
 21 28  1  0  0  0  0
 23 24  1  1  0  0  0
 23 30  1  0  0  0  0
 25 26  1  6  0  0  0
 25 32  1  0  0  0  0
 27  2  1  6  0  0  0
 27 34  1  0  0  0  0
 28 29  1  0  0  0  0
 28 36  1  6  0  0  0
 30 31  1  1  0  0  0
 30 38  1  0  0  0  0
 32 33  1  0  0  0  0
 32 40  1  1  0  0  0
 34 35  1  1  0  0  0
 34 42  1  0  0  0  0
 36 37  1  0  0  0  0
 38 39  1  0  0  0  0
 38 45  1  1  0  0  0
 40 41  1  0  0  0  0
 42 43  1  1  0  0  0
 44 47  1  0  0  0  0
 45 46  1  0  0  0  0
 47 48  1  0  0  0  0
 48 49  1  0  0  0  0
 49  7  1  0  0  0  0
M  END
>  <CHROM.1>
-125.46226300,-68.20413395,96.61641149,-169.53569617,-124.73099156,-55.49327182
62.57595623,77.42081447,-50.41450028,-83.98240058,-61.27126866,-77.38014167
-57.50597390,101.28652966,174.50463721,45.67393618,25.72519970,26.88162109
7.65153094,2.06076321,-0.52292006,-0.21754638

>  <Name>
2bee_lig

>  <RI>
0

>  <Rbt.Current_Directory>
/home/itssahil/PROJECTS/Mol_Feturizer/New_Systems/rnas/2bee

>  <Rbt.Executable>
rbdock ($Id: //depot/dev/client3/rdock/2013.1/src/exe/rbdock.cxx#4 $)

>  <Rbt.Library>
libRbt.so (2013.1, Build901 2013/11/27)

>  <Rbt.Parameter_File>
/export/apps/rDock/src/rDock_2013.1_src/data/scripts/dock_solv.prm

>  <Rbt.Receptor>
prm/blind_docking_100.prm

>  <SCORE>
52.9541

>  <SCORE.INTER>
7.83536

>  <SCORE.INTER.CONST>
1

>  <SCORE.INTER.POLAR>
-1.12876

>  <SCORE.INTER.ROT>
16

>  <SCORE.INTER.SOLV>
23.2887

>  <SCORE.INTER.VDW>
-13.0435

>  <SCORE.INTER.norm>
0.159905

>  <SCORE.INTRA>
14.3836

>  <SCORE.INTRA.DIHEDRAL>
-4.52745

>  <SCORE.INTRA.DIHEDRAL.0>
36.0842

>  <SCORE.INTRA.POLAR>
0

>  <SCORE.INTRA.POLAR.0>
0

>  <SCORE.INTRA.REPUL>
0

>  <SCORE.INTRA.REPUL.0>
0

>  <SCORE.INTRA.SOLV>
17.8308

>  <SCORE.INTRA.SOLV.lig_0>
-126.444

>  <SCORE.INTRA.VDW>
7.73193

>  <SCORE.INTRA.VDW.0>
-7.40469

>  <SCORE.INTRA.norm>
0.293543

>  <SCORE.RESTR>
30.7351

>  <SCORE.RESTR.CAVITY>
30.7351

>  <SCORE.RESTR.norm>
0.627247

>  <SCORE.SYSTEM>
0

>  <SCORE.SYSTEM.CONST>
0

>  <SCORE.SYSTEM.DIHEDRAL>
0

>  <SCORE.SYSTEM.SOLV>
0

>  <SCORE.SYSTEM.norm>
0

>  <SCORE.heavy>
49

>  <SCORE.norm>
1.08069

>  <RMSD>
31.481

$$$$
2bee_lig
 OpenBabel11021811423D
libRbt.so/2013.1/901 2013/11/27
 49 52  0  0  0  0  0  0  0  0999 V2000
   27.7091   24.0642    9.2013 C   0  0  2  0  0  0  0  0  0  0  0  0
   26.5228   24.1167    9.9836 O   0  0  0  0  0  0  0  0  0  0  0  0
   23.7237   21.9312    7.3830 C   0  0  2  0  0  0  0  0  0  0  0  0
   22.4600   21.3019    6.9119 N   0  0  0  0  0  0  0  0  0  0  0  0
   24.9653   26.5669    7.5039 C   0  0  1  0  0  0  0  0  0  0  0  0
   22.8628   30.6920    6.2358 C   0  0  1  0  0  0  0  0  0  0  0  0
   25.9866   22.6150    3.9593 C   0  0  0  0  0  0  0  0  0  0  0  0
   28.9808   24.2059   10.1243 C   0  0  2  0  0  0  0  0  0  0  0  0
   28.9489   23.1972   11.1778 N   0  0  0  0  0  0  0  0  0  0  0  0
   24.1200   21.3218    8.8041 C   0  0  0  0  0  0  0  0  0  0  0  0
   24.5834   27.4048    6.3272 C   0  0  2  0  0  0  0  0  0  0  0  0
   25.7040   27.6368    5.3994 O   0  0  0  0  0  0  0  0  0  0  0  0
   24.0253   30.5573    5.1126 C   0  0  2  0  0  0  0  0  0  0  0  0
   25.3416   30.4105    5.8190 N   0  0  0  0  0  0  0  0  0  0  0  0
   25.0004   23.5898    3.6799 C   0  0  0  0  0  0  0  0  0  0  0  0
   25.2755   24.6181    2.7814 N   0  0  0  0  0  0  0  0  0  0  0  0
   29.0331   25.6786   10.7245 C   0  0  1  0  0  0  0  0  0  0  0  0
   30.1828   25.7981   11.5496 O   0  0  0  0  0  0  0  0  0  0  0  0
   25.4987   21.9986    9.3631 C   0  0  2  0  0  0  0  0  0  0  0  0
   25.8655   21.4549   10.6265 N   0  0  0  0  0  0  0  0  0  0  0  0
   23.9553   28.5304    7.1129 C   0  0  2  0  0  0  0  0  0  0  0  0
   22.9737   29.4927    7.0391 O   0  0  0  0  0  0  0  0  0  0  0  0
   24.0112   31.8530    4.2254 C   0  0  1  0  0  0  0  0  0  0  0  0
   22.7016   31.9150    3.5600 O   0  0  0  0  0  0  0  0  0  0  0  0
   29.0701   26.6972    9.5616 C   0  0  2  0  0  0  0  0  0  0  0  0
   29.1038   28.0890   10.0790 O   0  0  0  0  0  0  0  0  0  0  0  0
   25.3140   23.5608    9.4917 C   0  0  2  0  0  0  0  0  0  0  0  0
   24.8909   28.6190    8.4184 C   0  0  2  0  0  0  0  0  0  0  0  0
   25.1374   27.3123    8.6752 O   0  0  0  0  0  0  0  0  0  0  0  0
   24.2643   33.1553    5.1758 C   0  0  2  0  0  0  0  0  0  0  0  0
   25.5841   33.0806    5.8421 O   0  0  0  0  0  0  0  0  0  0  0  0
   27.8070   26.5428    8.6503 C   0  0  2  0  0  0  0  0  0  0  0  0
   27.8345   25.1665    8.1926 O   0  0  0  0  0  0  0  0  0  0  0  0
   24.9242   24.1061    8.0764 C   0  0  2  0  0  0  0  0  0  0  0  0
   24.8094   25.4907    8.2995 O   0  0  0  0  0  0  0  0  0  0  0  0
   24.2675   29.2169    9.7336 C   0  0  0  0  0  0  0  0  0  0  0  0
   23.3054   28.2666   10.2910 O   0  0  0  0  0  0  0  0  0  0  0  0
   23.1365   33.2413    6.2983 C   0  0  1  0  0  0  0  0  0  0  0  0
   23.1827   31.9397    7.0711 O   0  0  0  0  0  0  0  0  0  0  0  0
   27.9386   27.5305    7.5627 C   0  0  0  0  0  0  0  0  0  0  0  0
   28.8103   27.0992    6.6412 O   0  0  0  0  0  0  0  0  0  0  0  0
   23.5655   23.4563    7.5725 C   0  0  1  0  0  0  0  0  0  0  0  0
   23.2336   23.9430    6.3078 O   0  0  0  0  0  0  0  0  0  0  0  0
   26.4465   26.5843    4.6868 C   0  0  0  0  0  0  0  0  0  0  0  0
   23.4918   34.5044    7.1534 C   0  0  0  0  0  0  0  0  0  0  0  0
   24.7875   34.4201    7.7641 N   0  0  0  0  0  0  0  0  0  0  0  0
   26.7510   25.4390    5.6535 C   0  0  0  0  0  0  0  0  0  0  0  0
   27.5115   24.4298    4.8912 N   0  0  0  0  0  0  0  0  0  0  0  0
   27.1122   22.9602    5.0405 C   0  0  0  0  0  0  0  0  0  0  0  0
  1  2  1  1  0  0  0
  1  8  1  0  0  0  0
  1 33  1  0  0  0  0
  3  4  1  1  0  0  0
  3 10  1  0  0  0  0
  3 42  1  0  0  0  0
  5 11  1  0  0  0  0
  5 29  1  0  0  0  0
  5 35  1  1  0  0  0
  6 13  1  0  0  0  0
  6 39  1  0  0  0  0
  6 22  1  1  0  0  0
  7 15  1  0  0  0  0
  8  9  1  1  0  0  0
  8 17  1  0  0  0  0
 10 19  1  0  0  0  0
 11 12  1  1  0  0  0
 11 21  1  0  0  0  0
 12 44  1  0  0  0  0
 13 14  1  1  0  0  0
 13 23  1  0  0  0  0
 15 16  1  0  0  0  0
 17 18  1  1  0  0  0
 17 25  1  0  0  0  0
 19 20  1  1  0  0  0
 19 27  1  0  0  0  0
 21 22  1  6  0  0  0
 21 28  1  0  0  0  0
 23 24  1  1  0  0  0
 23 30  1  0  0  0  0
 25 26  1  1  0  0  0
 25 32  1  0  0  0  0
 27  2  1  6  0  0  0
 27 34  1  0  0  0  0
 28 29  1  0  0  0  0
 28 36  1  1  0  0  0
 30 31  1  1  0  0  0
 30 38  1  0  0  0  0
 32 33  1  0  0  0  0
 32 40  1  6  0  0  0
 34 35  1  1  0  0  0
 34 42  1  0  0  0  0
 36 37  1  0  0  0  0
 38 39  1  0  0  0  0
 38 45  1  1  0  0  0
 40 41  1  0  0  0  0
 42 43  1  6  0  0  0
 44 47  1  0  0  0  0
 45 46  1  0  0  0  0
 47 48  1  0  0  0  0
 48 49  1  0  0  0  0
 49  7  1  0  0  0  0
M  END
>  <CHROM.1>
-157.85039528,63.01192268,12.65815201,82.51881532,60.28188127,-44.06342244
-69.13364854,65.52957260,71.46623903,77.45746022,152.64173897,-59.76907296
-179.10013492,-134.61034538,88.67675993,-38.18072228,25.57379817,26.88753309
7.38912282,-1.14477483,-0.89722296,0.08290762

>  <Name>
2bee_lig

>  <RI>
0

>  <Rbt.Current_Directory>
/home/itssahil/PROJECTS/Mol_Feturizer/New_Systems/rnas/2bee

>  <Rbt.Executable>
rbdock ($Id: //depot/dev/client3/rdock/2013.1/src/exe/rbdock.cxx#4 $)

>  <Rbt.Library>
libRbt.so (2013.1, Build901 2013/11/27)

>  <Rbt.Parameter_File>
/export/apps/rDock/src/rDock_2013.1_src/data/scripts/dock_solv.prm

>  <Rbt.Receptor>
prm/blind_docking_100.prm

>  <SCORE>
64.3409

>  <SCORE.INTER>
26.7722

>  <SCORE.INTER.CONST>
1

>  <SCORE.INTER.POLAR>
-0.369745

>  <SCORE.INTER.ROT>
16

>  <SCORE.INTER.SOLV>
37.6837

>  <SCORE.INTER.VDW>
-7.74727

>  <SCORE.INTER.norm>
0.546372

>  <SCORE.INTRA>
4.11943

>  <SCORE.INTRA.DIHEDRAL>
-10.9877

>  <SCORE.INTRA.DIHEDRAL.0>
36.0842

>  <SCORE.INTRA.POLAR>
0

>  <SCORE.INTRA.POLAR.0>
0

>  <SCORE.INTRA.REPUL>
0

>  <SCORE.INTRA.REPUL.0>
0

>  <SCORE.INTRA.SOLV>
11.1071

>  <SCORE.INTRA.SOLV.lig_0>
-126.444

>  <SCORE.INTRA.VDW>
4.05977

>  <SCORE.INTRA.VDW.0>
-7.40469

>  <SCORE.INTRA.norm>
0.08407

>  <SCORE.RESTR>
33.4493

>  <SCORE.RESTR.CAVITY>
33.4493

>  <SCORE.RESTR.norm>
0.682638

>  <SCORE.SYSTEM>
0

>  <SCORE.SYSTEM.CONST>
0

>  <SCORE.SYSTEM.DIHEDRAL>
0

>  <SCORE.SYSTEM.SOLV>
0

>  <SCORE.SYSTEM.norm>
0

>  <SCORE.heavy>
49

>  <SCORE.norm>
1.31308

>  <RMSD>
31.493

$$$$
2bee_lig
 OpenBabel11021811423D
libRbt.so/2013.1/901 2013/11/27
 49 52  0  0  0  0  0  0  0  0999 V2000
   28.9481   24.0683   10.1134 C   0  0  2  0  0  0  0  0  0  0  0  0
   27.5652   24.3206   10.3279 O   0  0  0  0  0  0  0  0  0  0  0  0
   25.7857   22.2373    6.8830 C   0  0  2  0  0  0  0  0  0  0  0  0
   24.7506   21.7447    5.9339 N   0  0  0  0  0  0  0  0  0  0  0  0
   26.2500   26.6729    7.5222 C   0  0  1  0  0  0  0  0  0  0  0  0
   23.4819   30.2846    9.0904 C   0  0  1  0  0  0  0  0  0  0  0  0
   24.1546   24.8304    3.6899 C   0  0  0  0  0  0  0  0  0  0  0  0
   29.7446   24.1926   11.4695 C   0  0  2  0  0  0  0  0  0  0  0  0
   29.1560   23.3169   12.4772 N   0  0  0  0  0  0  0  0  0  0  0  0
   25.4053   21.7799    8.3642 C   0  0  0  0  0  0  0  0  0  0  0  0
   24.9044   27.2638    7.2523 C   0  0  2  0  0  0  0  0  0  0  0  0
   24.7135   27.6363    5.8399 O   0  0  0  0  0  0  0  0  0  0  0  0
   22.0592   29.9641    8.3803 C   0  0  2  0  0  0  0  0  0  0  0  0
   22.3343   29.2844    7.0706 N   0  0  0  0  0  0  0  0  0  0  0  0
   22.8935   25.1003    4.2710 C   0  0  0  0  0  0  0  0  0  0  0  0
   22.2331   26.2907    3.9750 N   0  0  0  0  0  0  0  0  0  0  0  0
   29.7445   25.7121   11.9417 C   0  0  1  0  0  0  0  0  0  0  0  0
   30.4673   25.8149   13.1599 O   0  0  0  0  0  0  0  0  0  0  0  0
   26.5135   22.3141    9.4404 C   0  0  2  0  0  0  0  0  0  0  0  0
   26.1877   21.9034   10.7638 N   0  0  0  0  0  0  0  0  0  0  0  0
   24.9472   28.2999    8.3493 C   0  0  2  0  0  0  0  0  0  0  0  0
   24.1387   29.0005    9.2156 O   0  0  0  0  0  0  0  0  0  0  0  0
   21.3000   31.3202    8.1550 C   0  0  1  0  0  0  0  0  0  0  0  0
   21.0566   31.9121    9.4786 O   0  0  0  0  0  0  0  0  0  0  0  0
   30.3832   26.5847   10.8363 C   0  0  2  0  0  0  0  0  0  0  0  0
   30.3892   28.0166   11.2307 O   0  0  0  0  0  0  0  0  0  0  0  0
   26.6018   23.8888    9.3806 C   0  0  2  0  0  0  0  0  0  0  0  0
   26.4928   28.7452    8.3587 C   0  0  2  0  0  0  0  0  0  0  0  0
   27.1251   27.5660    8.1500 O   0  0  0  0  0  0  0  0  0  0  0  0
   22.2139   32.2963    7.2193 C   0  0  2  0  0  0  0  0  0  0  0  0
   22.4543   31.6891    5.8908 O   0  0  0  0  0  0  0  0  0  0  0  0
   29.5881   26.4483    9.4950 C   0  0  2  0  0  0  0  0  0  0  0  0
   29.6155   25.0328    9.1792 O   0  0  0  0  0  0  0  0  0  0  0  0
   26.9729   24.2832    7.9111 C   0  0  2  0  0  0  0  0  0  0  0  0
   27.0474   25.6868    7.9774 O   0  0  0  0  0  0  0  0  0  0  0  0
   27.0835   29.3320    9.6939 C   0  0  0  0  0  0  0  0  0  0  0  0
   28.4766   28.9096    9.8359 O   0  0  0  0  0  0  0  0  0  0  0  0
   23.6226   32.5602    7.9158 C   0  0  1  0  0  0  0  0  0  0  0  0
   24.2629   31.2068    8.1436 O   0  0  0  0  0  0  0  0  0  0  0  0
   30.2778   27.2900    8.4992 C   0  0  0  0  0  0  0  0  0  0  0  0
   30.8688   28.3335    9.0967 O   0  0  0  0  0  0  0  0  0  0  0  0
   25.8640   23.7802    6.8914 C   0  0  1  0  0  0  0  0  0  0  0  0
   26.2099   24.1296    5.5858 O   0  0  0  0  0  0  0  0  0  0  0  0
   25.3163   28.8078    5.1831 C   0  0  0  0  0  0  0  0  0  0  0  0
   24.4130   33.4821    6.9267 C   0  0  0  0  0  0  0  0  0  0  0  0
   24.9799   32.7619    5.8228 N   0  0  0  0  0  0  0  0  0  0  0  0
   25.5229   28.5032    3.6987 C   0  0  0  0  0  0  0  0  0  0  0  0
   24.7318   27.2940    3.3986 N   0  0  0  0  0  0  0  0  0  0  0  0
   25.3019   25.9364    3.8151 C   0  0  0  0  0  0  0  0  0  0  0  0
  1  2  1  1  0  0  0
  1  8  1  0  0  0  0
  1 33  1  0  0  0  0
  3  4  1  6  0  0  0
  3 10  1  0  0  0  0
  3 42  1  0  0  0  0
  5 11  1  0  0  0  0
  5 29  1  0  0  0  0
  5 35  1  1  0  0  0
  6 13  1  0  0  0  0
  6 39  1  0  0  0  0
  6 22  1  6  0  0  0
  7 15  1  0  0  0  0
  8  9  1  1  0  0  0
  8 17  1  0  0  0  0
 10 19  1  0  0  0  0
 11 12  1  6  0  0  0
 11 21  1  0  0  0  0
 12 44  1  0  0  0  0
 13 14  1  6  0  0  0
 13 23  1  0  0  0  0
 15 16  1  0  0  0  0
 17 18  1  1  0  0  0
 17 25  1  0  0  0  0
 19 20  1  1  0  0  0
 19 27  1  0  0  0  0
 21 22  1  6  0  0  0
 21 28  1  0  0  0  0
 23 24  1  1  0  0  0
 23 30  1  0  0  0  0
 25 26  1  1  0  0  0
 25 32  1  0  0  0  0
 27  2  1  1  0  0  0
 27 34  1  0  0  0  0
 28 29  1  0  0  0  0
 28 36  1  1  0  0  0
 30 31  1  6  0  0  0
 30 38  1  0  0  0  0
 32 33  1  0  0  0  0
 32 40  1  6  0  0  0
 34 35  1  1  0  0  0
 34 42  1  0  0  0  0
 36 37  1  0  0  0  0
 38 39  1  0  0  0  0
 38 45  1  6  0  0  0
 40 41  1  0  0  0  0
 42 43  1  6  0  0  0
 44 47  1  0  0  0  0
 45 46  1  0  0  0  0
 47 48  1  0  0  0  0
 48 49  1  0  0  0  0
 49  7  1  0  0  0  0
M  END
>  <CHROM.1>
-161.08896373,39.31412053,87.32009651,51.81158569,-74.74473325,150.66224700
-91.11475750,70.22033376,144.71696617,-30.03606847,-107.23295562,-78.66183325
14.33191355,-78.16271600,167.53661965,-49.12810305,26.03875475,27.13252316
8.03677726,-0.56079563,-0.75832135,0.32188294

>  <Name>
2bee_lig

>  <RI>
0

>  <Rbt.Current_Directory>
/home/itssahil/PROJECTS/Mol_Feturizer/New_Systems/rnas/2bee

>  <Rbt.Executable>
rbdock ($Id: //depot/dev/client3/rdock/2013.1/src/exe/rbdock.cxx#4 $)

>  <Rbt.Library>
libRbt.so (2013.1, Build901 2013/11/27)

>  <Rbt.Parameter_File>
/export/apps/rDock/src/rDock_2013.1_src/data/scripts/dock_solv.prm

>  <Rbt.Receptor>
prm/blind_docking_100.prm

>  <SCORE>
97.8063

>  <SCORE.INTER>
60.1525

>  <SCORE.INTER.CONST>
1

>  <SCORE.INTER.POLAR>
0

>  <SCORE.INTER.ROT>
16

>  <SCORE.INTER.SOLV>
33.9101

>  <SCORE.INTER.VDW>
14.5316

>  <SCORE.INTER.norm>
1.2276

>  <SCORE.INTRA>
13.496

>  <SCORE.INTRA.DIHEDRAL>
-0.983462

>  <SCORE.INTRA.DIHEDRAL.0>
36.0842

>  <SCORE.INTRA.POLAR>
0

>  <SCORE.INTRA.POLAR.0>
0

>  <SCORE.INTRA.REPUL>
0

>  <SCORE.INTRA.REPUL.0>
0

>  <SCORE.INTRA.SOLV>
10.7188

>  <SCORE.INTRA.SOLV.lig_0>
-126.444

>  <SCORE.INTRA.VDW>
8.62831

>  <SCORE.INTRA.VDW.0>
-7.40469

>  <SCORE.INTRA.norm>
0.275428

>  <SCORE.RESTR>
24.1578

>  <SCORE.RESTR.CAVITY>
24.1578

>  <SCORE.RESTR.norm>
0.493016

>  <SCORE.SYSTEM>
0

>  <SCORE.SYSTEM.CONST>
0

>  <SCORE.SYSTEM.DIHEDRAL>
0

>  <SCORE.SYSTEM.SOLV>
0

>  <SCORE.SYSTEM.norm>
0

>  <SCORE.heavy>
49

>  <SCORE.norm>
1.99605

>  <RMSD>
31.600

$$$$
2bee_lig
 OpenBabel11021811423D
libRbt.so/2013.1/901 2013/11/27
 49 52  0  0  0  0  0  0  0  0999 V2000
   22.8204   28.9979    4.5741 C   0  0  2  0  0  0  0  0  0  0  0  0
   23.6647   27.9381    5.0056 O   0  0  0  0  0  0  0  0  0  0  0  0
   23.0207   28.0635    9.3580 C   0  0  2  0  0  0  0  0  0  0  0  0
   23.0086   27.6217   10.7791 N   0  0  0  0  0  0  0  0  0  0  0  0
   26.7549   27.7456    6.7014 C   0  0  1  0  0  0  0  0  0  0  0  0
   26.8537   23.3030    7.8975 C   0  0  1  0  0  0  0  0  0  0  0  0
   32.0089   25.8290   12.0362 C   0  0  0  0  0  0  0  0  0  0  0  0
   23.6843   30.2446    4.1401 C   0  0  2  0  0  0  0  0  0  0  0  0
   24.6616   29.8491    3.1316 N   0  0  0  0  0  0  0  0  0  0  0  0
   22.2114   27.0121    8.4707 C   0  0  0  0  0  0  0  0  0  0  0  0
   27.6164   26.7166    7.3585 C   0  0  2  0  0  0  0  0  0  0  0  0
   29.0489   27.0581    7.3212 O   0  0  0  0  0  0  0  0  0  0  0  0
   25.3601   23.3810    8.5254 C   0  0  2  0  0  0  0  0  0  0  0  0
   25.0647   24.8166    8.8492 N   0  0  0  0  0  0  0  0  0  0  0  0
   32.0763   24.6769   12.8542 C   0  0  0  0  0  0  0  0  0  0  0  0
   31.8376   23.4197   12.3037 N   0  0  0  0  0  0  0  0  0  0  0  0
   24.3871   30.8695    5.4236 C   0  0  1  0  0  0  0  0  0  0  0  0
   25.1583   31.9932    5.0240 O   0  0  0  0  0  0  0  0  0  0  0  0
   22.2128   27.4558    6.8975 C   0  0  2  0  0  0  0  0  0  0  0  0
   21.4854   26.5287    6.0990 N   0  0  0  0  0  0  0  0  0  0  0  0
   27.0630   25.5261    6.6134 C   0  0  2  0  0  0  0  0  0  0  0  0
   26.8239   24.1767    6.7436 O   0  0  0  0  0  0  0  0  0  0  0  0
   25.3203   22.4980    9.8234 C   0  0  1  0  0  0  0  0  0  0  0  0
   25.6031   21.1126    9.4206 O   0  0  0  0  0  0  0  0  0  0  0  0
   23.3015   31.2714    6.4488 C   0  0  2  0  0  0  0  0  0  0  0  0
   23.9168   31.8465    7.6722 O   0  0  0  0  0  0  0  0  0  0  0  0
   23.6975   27.5580    6.3717 C   0  0  2  0  0  0  0  0  0  0  0  0
   26.7831   26.1228    5.1460 C   0  0  2  0  0  0  0  0  0  0  0  0
   26.3106   27.3593    5.4322 O   0  0  0  0  0  0  0  0  0  0  0  0
   26.4300   23.0539   10.8832 C   0  0  2  0  0  0  0  0  0  0  0  0
   26.1365   24.4497   11.2793 O   0  0  0  0  0  0  0  0  0  0  0  0
   22.4477   30.0280    6.8669 C   0  0  2  0  0  0  0  0  0  0  0  0
   21.8899   29.5165    5.6294 O   0  0  0  0  0  0  0  0  0  0  0  0
   24.4457   28.5956    7.2751 C   0  0  2  0  0  0  0  0  0  0  0  0
   25.7340   28.6248    6.7101 O   0  0  0  0  0  0  0  0  0  0  0  0
   25.6841   25.4244    4.2628 C   0  0  0  0  0  0  0  0  0  0  0  0
   25.7779   25.9186    2.8894 O   0  0  0  0  0  0  0  0  0  0  0  0
   27.8822   23.0099   10.2286 C   0  0  1  0  0  0  0  0  0  0  0  0
   27.8210   23.8385    8.9625 O   0  0  0  0  0  0  0  0  0  0  0  0
   21.4300   30.5068    7.8211 C   0  0  0  0  0  0  0  0  0  0  0  0
   20.9577   29.4883    8.5525 O   0  0  0  0  0  0  0  0  0  0  0  0
   24.4568   28.1237    8.7915 C   0  0  1  0  0  0  0  0  0  0  0  0
   25.1179   29.0599    9.5871 O   0  0  0  0  0  0  0  0  0  0  0  0
   29.7417   27.9158    8.2966 C   0  0  0  0  0  0  0  0  0  0  0  0
   28.8508   23.5806   11.3191 C   0  0  0  0  0  0  0  0  0  0  0  0
   28.4874   24.8982   11.7556 N   0  0  0  0  0  0  0  0  0  0  0  0
   29.3643   27.4766    9.7121 C   0  0  0  0  0  0  0  0  0  0  0  0
   30.6288   27.2556   10.4403 N   0  0  0  0  0  0  0  0  0  0  0  0
   30.5767   26.4825   11.7597 C   0  0  0  0  0  0  0  0  0  0  0  0
  1  2  1  1  0  0  0
  1  8  1  0  0  0  0
  1 33  1  0  0  0  0
  3  4  1  1  0  0  0
  3 10  1  0  0  0  0
  3 42  1  0  0  0  0
  5 11  1  0  0  0  0
  5 29  1  0  0  0  0
  5 35  1  1  0  0  0
  6 13  1  0  0  0  0
  6 39  1  0  0  0  0
  6 22  1  6  0  0  0
  7 15  1  0  0  0  0
  8  9  1  6  0  0  0
  8 17  1  0  0  0  0
 10 19  1  0  0  0  0
 11 12  1  6  0  0  0
 11 21  1  0  0  0  0
 12 44  1  0  0  0  0
 13 14  1  1  0  0  0
 13 23  1  0  0  0  0
 15 16  1  0  0  0  0
 17 18  1  6  0  0  0
 17 25  1  0  0  0  0
 19 20  1  6  0  0  0
 19 27  1  0  0  0  0
 21 22  1  6  0  0  0
 21 28  1  0  0  0  0
 23 24  1  6  0  0  0
 23 30  1  0  0  0  0
 25 26  1  1  0  0  0
 25 32  1  0  0  0  0
 27  2  1  6  0  0  0
 27 34  1  0  0  0  0
 28 29  1  0  0  0  0
 28 36  1  1  0  0  0
 30 31  1  6  0  0  0
 30 38  1  0  0  0  0
 32 33  1  0  0  0  0
 32 40  1  1  0  0  0
 34 35  1  6  0  0  0
 34 42  1  0  0  0  0
 36 37  1  0  0  0  0
 38 39  1  0  0  0  0
 38 45  1  1  0  0  0
 40 41  1  0  0  0  0
 42 43  1  1  0  0  0
 44 47  1  0  0  0  0
 45 46  1  0  0  0  0
 47 48  1  0  0  0  0
 48 49  1  0  0  0  0
 49  7  1  0  0  0  0
M  END
>  <CHROM.1>
110.88496745,-38.98693793,88.14140447,83.22757933,85.20163267,47.64036614
11.70852132,45.93654923,-168.02660474,-159.60877327,-71.67448411,-56.83327003
127.30707306,-165.03150190,155.86598906,-154.99374601,25.83062103,26.91720850
7.93326623,2.35477076,-0.39998236,-0.38819566

>  <Name>
2bee_lig

>  <RI>
0

>  <Rbt.Current_Directory>
/home/itssahil/PROJECTS/Mol_Feturizer/New_Systems/rnas/2bee

>  <Rbt.Executable>
rbdock ($Id: //depot/dev/client3/rdock/2013.1/src/exe/rbdock.cxx#4 $)

>  <Rbt.Library>
libRbt.so (2013.1, Build901 2013/11/27)

>  <Rbt.Parameter_File>
/export/apps/rDock/src/rDock_2013.1_src/data/scripts/dock_solv.prm

>  <Rbt.Receptor>
prm/blind_docking_100.prm

>  <SCORE>
72.0557

>  <SCORE.INTER>
25.705

>  <SCORE.INTER.CONST>
1

>  <SCORE.INTER.POLAR>
-2.35441

>  <SCORE.INTER.ROT>
16

>  <SCORE.INTER.SOLV>
35.5384

>  <SCORE.INTER.VDW>
-1.12813

>  <SCORE.INTER.norm>
0.524591

>  <SCORE.INTRA>
22.9191

>  <SCORE.INTRA.DIHEDRAL>
-4.13244

>  <SCORE.INTRA.DIHEDRAL.0>
36.0842

>  <SCORE.INTRA.POLAR>
0

>  <SCORE.INTRA.POLAR.0>
0

>  <SCORE.INTRA.REPUL>
0.0792812

>  <SCORE.INTRA.REPUL.0>
0

>  <SCORE.INTRA.SOLV>
14.2665

>  <SCORE.INTRA.SOLV.lig_0>
-126.444

>  <SCORE.INTRA.VDW>
17.4557

>  <SCORE.INTRA.VDW.0>
-7.40469

>  <SCORE.INTRA.norm>
0.467737

>  <SCORE.RESTR>
23.4316

>  <SCORE.RESTR.CAVITY>
23.4316

>  <SCORE.RESTR.norm>
0.478197

>  <SCORE.SYSTEM>
0

>  <SCORE.SYSTEM.CONST>
0

>  <SCORE.SYSTEM.DIHEDRAL>
0

>  <SCORE.SYSTEM.SOLV>
0

>  <SCORE.SYSTEM.norm>
0

>  <SCORE.heavy>
49

>  <SCORE.norm>
1.47052

>  <RMSD>
31.615

$$$$
2bee_lig
 OpenBabel11021811423D
libRbt.so/2013.1/901 2013/11/27
 49 52  0  0  0  0  0  0  0  0999 V2000
   24.4164   29.1914    9.4084 C   0  0  2  0  0  0  0  0  0  0  0  0
   25.4803   28.8511    8.5284 O   0  0  0  0  0  0  0  0  0  0  0  0
   23.7949   30.1451    4.6737 C   0  0  2  0  0  0  0  0  0  0  0  0
   23.7123   30.4455    3.2184 N   0  0  0  0  0  0  0  0  0  0  0  0
   25.5502   26.2602    6.7119 C   0  0  1  0  0  0  0  0  0  0  0  0
   28.8192   26.2610    9.8610 C   0  0  1  0  0  0  0  0  0  0  0  0
   23.3769   25.4717    3.5735 C   0  0  0  0  0  0  0  0  0  0  0  0
   23.2151   28.1842    9.2310 C   0  0  2  0  0  0  0  0  0  0  0  0
   23.6820   26.8132    9.4063 N   0  0  0  0  0  0  0  0  0  0  0  0
   25.0159   30.9514    5.3114 C   0  0  0  0  0  0  0  0  0  0  0  0
   27.0368   26.1168    6.7578 C   0  0  2  0  0  0  0  0  0  0  0  0
   27.5891   25.4733    5.5532 O   0  0  0  0  0  0  0  0  0  0  0  0
   29.9709   26.5535    8.7570 C   0  0  2  0  0  0  0  0  0  0  0  0
   30.5989   25.2434    8.3798 N   0  0  0  0  0  0  0  0  0  0  0  0
   22.9209   25.1865    4.8817 C   0  0  0  0  0  0  0  0  0  0  0  0
   21.5886   25.4159    5.2180 N   0  0  0  0  0  0  0  0  0  0  0  0
   22.5555   28.4000    7.7991 C   0  0  1  0  0  0  0  0  0  0  0  0
   21.4728   27.4929    7.6504 O   0  0  0  0  0  0  0  0  0  0  0  0
   25.1487   30.6372    6.9099 C   0  0  2  0  0  0  0  0  0  0  0  0
   26.2299   31.3591    7.4899 N   0  0  0  0  0  0  0  0  0  0  0  0
   27.1053   25.4574    8.1140 C   0  0  2  0  0  0  0  0  0  0  0  0
   27.9119   25.3311    9.2223 O   0  0  0  0  0  0  0  0  0  0  0  0
   31.0347   27.5181    9.3927 C   0  0  1  0  0  0  0  0  0  0  0  0
   30.3471   28.7763    9.7182 O   0  0  0  0  0  0  0  0  0  0  0  0
   22.0784   29.8660    7.6782 C   0  0  2  0  0  0  0  0  0  0  0  0
   21.4686   30.1153    6.3471 O   0  0  0  0  0  0  0  0  0  0  0  0
   25.3630   29.0898    7.1351 C   0  0  2  0  0  0  0  0  0  0  0  0
   25.7916   24.5292    8.1257 C   0  0  2  0  0  0  0  0  0  0  0  0
   24.8839   25.3211    7.5066 O   0  0  0  0  0  0  0  0  0  0  0  0
   31.6656   26.8163   10.7242 C   0  0  2  0  0  0  0  0  0  0  0  0
   32.3527   25.5499   10.3845 O   0  0  0  0  0  0  0  0  0  0  0  0
   23.2774   30.8551    7.8619 C   0  0  2  0  0  0  0  0  0  0  0  0
   23.8259   30.5488    9.1695 O   0  0  0  0  0  0  0  0  0  0  0  0
   24.1440   28.3478    6.4903 C   0  0  2  0  0  0  0  0  0  0  0  0
   24.4232   26.9967    6.7668 O   0  0  0  0  0  0  0  0  0  0  0  0
   25.1682   24.1505    9.5198 C   0  0  0  0  0  0  0  0  0  0  0  0
   26.2043   23.5705   10.3740 O   0  0  0  0  0  0  0  0  0  0  0  0
   30.5104   26.4977   11.7745 C   0  0  1  0  0  0  0  0  0  0  0  0
   29.5058   25.6101   11.0700 O   0  0  0  0  0  0  0  0  0  0  0  0
   22.7285   32.2200    7.7557 C   0  0  0  0  0  0  0  0  0  0  0  0
   22.0579   32.5433    8.8697 O   0  0  0  0  0  0  0  0  0  0  0  0
   24.0583   28.6449    4.9325 C   0  0  1  0  0  0  0  0  0  0  0  0
   22.9641   27.9859    4.3714 O   0  0  0  0  0  0  0  0  0  0  0  0
   27.6710   24.0206    5.3299 C   0  0  0  0  0  0  0  0  0  0  0  0
   31.2252   25.8141   12.9890 C   0  0  0  0  0  0  0  0  0  0  0  0
   30.3049   25.2574   13.9385 N   0  0  0  0  0  0  0  0  0  0  0  0
   26.8100   23.6465    4.1225 C   0  0  0  0  0  0  0  0  0  0  0  0
   25.4877   24.2666    4.3345 N   0  0  0  0  0  0  0  0  0  0  0  0
   24.8752   25.0715    3.1863 C   0  0  0  0  0  0  0  0  0  0  0  0
  1  2  1  6  0  0  0
  1  8  1  0  0  0  0
  1 33  1  0  0  0  0
  3  4  1  6  0  0  0
  3 10  1  0  0  0  0
  3 42  1  0  0  0  0
  5 11  1  0  0  0  0
  5 29  1  0  0  0  0
  5 35  1  1  0  0  0
  6 13  1  0  0  0  0
  6 39  1  0  0  0  0
  6 22  1  6  0  0  0
  7 15  1  0  0  0  0
  8  9  1  6  0  0  0
  8 17  1  0  0  0  0
 10 19  1  0  0  0  0
 11 12  1  6  0  0  0
 11 21  1  0  0  0  0
 12 44  1  0  0  0  0
 13 14  1  1  0  0  0
 13 23  1  0  0  0  0
 15 16  1  0  0  0  0
 17 18  1  1  0  0  0
 17 25  1  0  0  0  0
 19 20  1  6  0  0  0
 19 27  1  0  0  0  0
 21 22  1  6  0  0  0
 21 28  1  0  0  0  0
 23 24  1  1  0  0  0
 23 30  1  0  0  0  0
 25 26  1  6  0  0  0
 25 32  1  0  0  0  0
 27  2  1  1  0  0  0
 27 34  1  0  0  0  0
 28 29  1  0  0  0  0
 28 36  1  1  0  0  0
 30 31  1  6  0  0  0
 30 38  1  0  0  0  0
 32 33  1  0  0  0  0
 32 40  1  1  0  0  0
 34 35  1  6  0  0  0
 34 42  1  0  0  0  0
 36 37  1  0  0  0  0
 38 39  1  0  0  0  0
 38 45  1  1  0  0  0
 40 41  1  0  0  0  0
 42 43  1  1  0  0  0
 44 47  1  0  0  0  0
 45 46  1  0  0  0  0
 47 48  1  0  0  0  0
 48 49  1  0  0  0  0
 49  7  1  0  0  0  0
M  END
>  <CHROM.1>
72.62166002,26.08530691,-63.58499951,-174.49263810,-83.96387294,117.08281048
34.08586276,60.10387512,-53.01011325,74.78686835,-42.53169587,-170.26032437
-49.97663041,130.92958413,172.40325079,6.92135105,25.85514860,27.31380214
7.69763789,-3.13492859,0.65524348,-2.50880399

>  <Name>
2bee_lig

>  <RI>
0

>  <Rbt.Current_Directory>
/home/itssahil/PROJECTS/Mol_Feturizer/New_Systems/rnas/2bee

>  <Rbt.Executable>
rbdock ($Id: //depot/dev/client3/rdock/2013.1/src/exe/rbdock.cxx#4 $)

>  <Rbt.Library>
libRbt.so (2013.1, Build901 2013/11/27)

>  <Rbt.Parameter_File>
/export/apps/rDock/src/rDock_2013.1_src/data/scripts/dock_solv.prm

>  <Rbt.Receptor>
prm/blind_docking_100.prm

>  <SCORE>
68.1899

>  <SCORE.INTER>
8.1647

>  <SCORE.INTER.CONST>
1

>  <SCORE.INTER.POLAR>
-0.294242

>  <SCORE.INTER.ROT>
16

>  <SCORE.INTER.SOLV>
33.9767

>  <SCORE.INTER.VDW>
-19.1683

>  <SCORE.INTER.norm>
0.166627

>  <SCORE.INTRA>
36.9395

>  <SCORE.INTRA.DIHEDRAL>
-7.76646

>  <SCORE.INTRA.DIHEDRAL.0>
36.0842

>  <SCORE.INTRA.POLAR>
0

>  <SCORE.INTRA.POLAR.0>
0

>  <SCORE.INTRA.REPUL>
0

>  <SCORE.INTRA.REPUL.0>
0

>  <SCORE.INTRA.SOLV>
14.6623

>  <SCORE.INTRA.SOLV.lig_0>
-126.444

>  <SCORE.INTRA.VDW>
33.4916

>  <SCORE.INTRA.VDW.0>
-7.40469

>  <SCORE.INTRA.norm>
0.753868

>  <SCORE.RESTR>
23.0857

>  <SCORE.RESTR.CAVITY>
23.0857

>  <SCORE.RESTR.norm>
0.471136

>  <SCORE.SYSTEM>
0

>  <SCORE.SYSTEM.CONST>
0

>  <SCORE.SYSTEM.DIHEDRAL>
0

>  <SCORE.SYSTEM.SOLV>
0

>  <SCORE.SYSTEM.norm>
0

>  <SCORE.heavy>
49

>  <SCORE.norm>
1.39163

>  <RMSD>
31.626

$$$$
2bee_lig
 OpenBabel11021811423D
libRbt.so/2013.1/901 2013/11/27
 49 52  0  0  0  0  0  0  0  0999 V2000
   27.1158   26.3877    8.2644 C   0  0  2  0  0  0  0  0  0  0  0  0
   27.6437   25.8918    7.0406 O   0  0  0  0  0  0  0  0  0  0  0  0
   26.2924   23.9178    3.3458 C   0  0  2  0  0  0  0  0  0  0  0  0
   25.4170   23.1640    2.4076 N   0  0  0  0  0  0  0  0  0  0  0  0
   25.0662   27.5080    6.1615 C   0  0  1  0  0  0  0  0  0  0  0  0
   23.2940   31.6187    6.8881 C   0  0  1  0  0  0  0  0  0  0  0  0
   23.6106   25.1352    6.9447 C   0  0  0  0  0  0  0  0  0  0  0  0
   28.2860   26.8022    9.2379 C   0  0  2  0  0  0  0  0  0  0  0  0
   29.1749   27.7508    8.5759 N   0  0  0  0  0  0  0  0  0  0  0  0
   26.5258   23.0492    4.6645 C   0  0  0  0  0  0  0  0  0  0  0  0
   24.5369   28.2833    7.3240 C   0  0  2  0  0  0  0  0  0  0  0  0
   24.1618   27.4270    8.4625 O   0  0  0  0  0  0  0  0  0  0  0  0
   22.8152   32.5600    5.6568 C   0  0  2  0  0  0  0  0  0  0  0  0
   23.4270   32.0244    4.3951 N   0  0  0  0  0  0  0  0  0  0  0  0
   22.5037   24.7281    6.1638 C   0  0  0  0  0  0  0  0  0  0  0  0
   22.4512   25.0544    4.8105 N   0  0  0  0  0  0  0  0  0  0  0  0
   29.0664   25.4973    9.7072 C   0  0  1  0  0  0  0  0  0  0  0  0
   30.1142   25.8796   10.5863 O   0  0  0  0  0  0  0  0  0  0  0  0
   27.4738   23.8501    5.7282 C   0  0  2  0  0  0  0  0  0  0  0  0
   27.6953   23.0794    6.9043 N   0  0  0  0  0  0  0  0  0  0  0  0
   23.5092   29.0741    6.5511 C   0  0  2  0  0  0  0  0  0  0  0  0
   22.8546   30.2850    6.5362 O   0  0  0  0  0  0  0  0  0  0  0  0
   23.3041   34.0264    5.9335 C   0  0  1  0  0  0  0  0  0  0  0  0
   22.6518   34.4805    7.1704 O   0  0  0  0  0  0  0  0  0  0  0  0
   28.0735   24.5377   10.4033 C   0  0  2  0  0  0  0  0  0  0  0  0
   28.7594   23.2963   10.8445 O   0  0  0  0  0  0  0  0  0  0  0  0
   26.8017   25.2251    6.1140 C   0  0  2  0  0  0  0  0  0  0  0  0
   22.9919   28.0134    5.4579 C   0  0  2  0  0  0  0  0  0  0  0  0
   24.1384   27.3753    5.1228 O   0  0  0  0  0  0  0  0  0  0  0  0
   24.9300   34.0310    6.0752 C   0  0  2  0  0  0  0  0  0  0  0  0
   25.5753   33.5698    4.8253 O   0  0  0  0  0  0  0  0  0  0  0  0
   26.9147   24.1386    9.4298 C   0  0  2  0  0  0  0  0  0  0  0  0
   26.3011   25.3925    9.0352 O   0  0  0  0  0  0  0  0  0  0  0  0
   26.5924   26.0340    4.7895 C   0  0  2  0  0  0  0  0  0  0  0  0
   26.0176   27.2338    5.2478 O   0  0  0  0  0  0  0  0  0  0  0  0
   22.3894   28.5716    4.1158 C   0  0  0  0  0  0  0  0  0  0  0  0
   23.3568   29.4693    3.4851 O   0  0  0  0  0  0  0  0  0  0  0  0
   25.3787   33.0654    7.2608 C   0  0  1  0  0  0  0  0  0  0  0  0
   24.8264   31.6913    6.9441 O   0  0  0  0  0  0  0  0  0  0  0  0
   26.0101   23.2480   10.1809 C   0  0  0  0  0  0  0  0  0  0  0  0
   26.5796   22.0493   10.3652 O   0  0  0  0  0  0  0  0  0  0  0  0
   25.6425   25.2476    3.7886 C   0  0  1  0  0  0  0  0  0  0  0  0
   25.4708   25.9737    2.6098 O   0  0  0  0  0  0  0  0  0  0  0  0
   22.9342   27.5697    9.2624 C   0  0  0  0  0  0  0  0  0  0  0  0
   26.9432   33.1341    7.2877 C   0  0  0  0  0  0  0  0  0  0  0  0
   27.5504   32.5025    6.1515 N   0  0  0  0  0  0  0  0  0  0  0  0
   21.9111   26.5285    8.8064 C   0  0  0  0  0  0  0  0  0  0  0  0
   22.4397   25.2096    9.2053 N   0  0  0  0  0  0  0  0  0  0  0  0
   23.6728   24.6746    8.4741 C   0  0  0  0  0  0  0  0  0  0  0  0
  1  2  1  6  0  0  0
  1  8  1  0  0  0  0
  1 33  1  0  0  0  0
  3  4  1  6  0  0  0
  3 10  1  0  0  0  0
  3 42  1  0  0  0  0
  5 11  1  0  0  0  0
  5 29  1  0  0  0  0
  5 35  1  6  0  0  0
  6 13  1  0  0  0  0
  6 39  1  0  0  0  0
  6 22  1  6  0  0  0
  7 15  1  0  0  0  0
  8  9  1  6  0  0  0
  8 17  1  0  0  0  0
 10 19  1  0  0  0  0
 11 12  1  1  0  0  0
 11 21  1  0  0  0  0
 12 44  1  0  0  0  0
 13 14  1  6  0  0  0
 13 23  1  0  0  0  0
 15 16  1  0  0  0  0
 17 18  1  1  0  0  0
 17 25  1  0  0  0  0
 19 20  1  1  0  0  0
 19 27  1  0  0  0  0
 21 22  1  1  0  0  0
 21 28  1  0  0  0  0
 23 24  1  1  0  0  0
 23 30  1  0  0  0  0
 25 26  1  6  0  0  0
 25 32  1  0  0  0  0
 27  2  1  1  0  0  0
 27 34  1  0  0  0  0
 28 29  1  0  0  0  0
 28 36  1  6  0  0  0
 30 31  1  6  0  0  0
 30 38  1  0  0  0  0
 32 33  1  0  0  0  0
 32 40  1  1  0  0  0
 34 35  1  1  0  0  0
 34 42  1  0  0  0  0
 36 37  1  0  0  0  0
 38 39  1  0  0  0  0
 38 45  1  6  0  0  0
 40 41  1  0  0  0  0
 42 43  1  6  0  0  0
 44 47  1  0  0  0  0
 45 46  1  0  0  0  0
 47 48  1  0  0  0  0
 48 49  1  0  0  0  0
 49  7  1  0  0  0  0
M  END
>  <CHROM.1>
167.97487190,133.88111830,132.29419364,-176.75376773,-136.25880358,100.88022014
35.67993888,-128.74974820,54.81141294,-72.19839795,-42.67401896,-69.71950563
68.35224734,-69.58369122,-34.92733652,-59.60780621,25.33143282,27.45851296
6.84156995,-1.02549703,-0.91839253,0.18845591

>  <Name>
2bee_lig

>  <RI>
0

>  <Rbt.Current_Directory>
/home/itssahil/PROJECTS/Mol_Feturizer/New_Systems/rnas/2bee

>  <Rbt.Executable>
rbdock ($Id: //depot/dev/client3/rdock/2013.1/src/exe/rbdock.cxx#4 $)

>  <Rbt.Library>
libRbt.so (2013.1, Build901 2013/11/27)

>  <Rbt.Parameter_File>
/export/apps/rDock/src/rDock_2013.1_src/data/scripts/dock_solv.prm

>  <Rbt.Receptor>
prm/blind_docking_100.prm

>  <SCORE>
56.7685

>  <SCORE.INTER>
13.5767

>  <SCORE.INTER.CONST>
1

>  <SCORE.INTER.POLAR>
-1.22555

>  <SCORE.INTER.ROT>
16

>  <SCORE.INTER.SOLV>
36.3893

>  <SCORE.INTER.VDW>
-13.2601

>  <SCORE.INTER.norm>
0.277076

>  <SCORE.INTRA>
12.2256

>  <SCORE.INTRA.DIHEDRAL>
2.15567

>  <SCORE.INTRA.DIHEDRAL.0>
36.0842

>  <SCORE.INTRA.POLAR>
0

>  <SCORE.INTRA.POLAR.0>
0

>  <SCORE.INTRA.REPUL>
0.609637

>  <SCORE.INTRA.REPUL.0>
0

>  <SCORE.INTRA.SOLV>
11.0529

>  <SCORE.INTRA.SOLV.lig_0>
-126.444

>  <SCORE.INTRA.VDW>
2.57312

>  <SCORE.INTRA.VDW.0>
-7.40469

>  <SCORE.INTRA.norm>
0.249502

>  <SCORE.RESTR>
30.9662

>  <SCORE.RESTR.CAVITY>
30.9662

>  <SCORE.RESTR.norm>
0.631963

>  <SCORE.SYSTEM>
0

>  <SCORE.SYSTEM.CONST>
0

>  <SCORE.SYSTEM.DIHEDRAL>
0

>  <SCORE.SYSTEM.SOLV>
0

>  <SCORE.SYSTEM.norm>
0

>  <SCORE.heavy>
49

>  <SCORE.norm>
1.15854

>  <RMSD>
31.775

$$$$
2bee_lig
 OpenBabel11021811423D
libRbt.so/2013.1/901 2013/11/27
 49 52  0  0  0  0  0  0  0  0999 V2000
   28.6537   25.8392    9.9520 C   0  0  2  0  0  0  0  0  0  0  0  0
   28.5370   24.5860    9.2902 O   0  0  0  0  0  0  0  0  0  0  0  0
   25.4556   21.9258    7.6162 C   0  0  2  0  0  0  0  0  0  0  0  0
   24.1082   21.3973    7.2699 N   0  0  0  0  0  0  0  0  0  0  0  0
   26.6374   26.2272    6.6610 C   0  0  1  0  0  0  0  0  0  0  0  0
   22.0851   27.5520    6.1420 C   0  0  1  0  0  0  0  0  0  0  0  0
   24.3632   34.0871    6.9270 C   0  0  0  0  0  0  0  0  0  0  0  0
   29.6049   26.8011    9.1401 C   0  0  2  0  0  0  0  0  0  0  0  0
   29.1345   26.9255    7.7647 N   0  0  0  0  0  0  0  0  0  0  0  0
   25.5579   22.1177    9.1975 C   0  0  0  0  0  0  0  0  0  0  0  0
   25.6724   27.0584    5.8796 C   0  0  2  0  0  0  0  0  0  0  0  0
   26.1641   28.4239    5.6267 O   0  0  0  0  0  0  0  0  0  0  0  0
   21.6410   26.8257    4.7613 C   0  0  2  0  0  0  0  0  0  0  0  0
   22.8635   26.6637    3.9054 N   0  0  0  0  0  0  0  0  0  0  0  0
   23.9733   34.4512    5.6169 C   0  0  0  0  0  0  0  0  0  0  0  0
   24.2402   33.5959    4.5502 N   0  0  0  0  0  0  0  0  0  0  0  0
   31.0937   26.2430    9.2020 C   0  0  1  0  0  0  0  0  0  0  0  0
   31.9429   27.1173    8.4729 O   0  0  0  0  0  0  0  0  0  0  0  0
   27.0219   22.7107    9.6179 C   0  0  2  0  0  0  0  0  0  0  0  0
   27.1261   22.8769   11.0278 N   0  0  0  0  0  0  0  0  0  0  0  0
   24.4701   26.7951    6.7536 C   0  0  2  0  0  0  0  0  0  0  0  0
   23.0982   26.6897    6.7129 O   0  0  0  0  0  0  0  0  0  0  0  0
   20.5757   27.7300    4.0447 C   0  0  1  0  0  0  0  0  0  0  0  0
   19.4106   27.8259    4.9363 O   0  0  0  0  0  0  0  0  0  0  0  0
   31.5335   26.1394   10.6809 C   0  0  2  0  0  0  0  0  0  0  0  0
   32.9159   25.6064   10.7851 O   0  0  0  0  0  0  0  0  0  0  0  0
   27.2640   24.0959    8.9013 C   0  0  2  0  0  0  0  0  0  0  0  0
   25.1084   26.7343    8.2289 C   0  0  2  0  0  0  0  0  0  0  0  0
   26.2721   26.0793    8.0034 O   0  0  0  0  0  0  0  0  0  0  0  0
   21.2293   29.1962    3.7503 C   0  0  2  0  0  0  0  0  0  0  0  0
   22.4025   29.0867    2.8542 O   0  0  0  0  0  0  0  0  0  0  0  0
   30.5792   25.1877   11.4767 C   0  0  2  0  0  0  0  0  0  0  0  0
   29.2557   25.7613   11.3230 O   0  0  0  0  0  0  0  0  0  0  0  0
   27.1499   23.8533    7.3584 C   0  0  2  0  0  0  0  0  0  0  0  0
   27.4029   25.1306    6.8251 O   0  0  0  0  0  0  0  0  0  0  0  0
   24.3445   25.9097    9.3299 C   0  0  0  0  0  0  0  0  0  0  0  0
   23.0326   26.5122    9.5653 O   0  0  0  0  0  0  0  0  0  0  0  0
   21.6985   29.8704    5.1157 C   0  0  1  0  0  0  0  0  0  0  0  0
   22.6792   28.9164    5.7650 O   0  0  0  0  0  0  0  0  0  0  0  0
   31.0572   25.1685   12.8719 C   0  0  0  0  0  0  0  0  0  0  0  0
   30.0309   25.3152   13.7208 O   0  0  0  0  0  0  0  0  0  0  0  0
   25.7083   23.3084    6.9748 C   0  0  1  0  0  0  0  0  0  0  0  0
   25.6219   23.0880    5.5999 O   0  0  0  0  0  0  0  0  0  0  0  0
   26.1908   29.5124    6.6174 C   0  0  0  0  0  0  0  0  0  0  0  0
   22.3220   31.2487    4.7099 C   0  0  0  0  0  0  0  0  0  0  0  0
   23.5847   31.1162    4.0416 N   0  0  0  0  0  0  0  0  0  0  0  0
   24.8337   30.2174    6.6289 C   0  0  0  0  0  0  0  0  0  0  0  0
   25.1078   31.6674    6.6479 N   0  0  0  0  0  0  0  0  0  0  0  0
   24.1318   32.5770    7.3972 C   0  0  0  0  0  0  0  0  0  0  0  0
  1  2  1  6  0  0  0
  1  8  1  0  0  0  0
  1 33  1  0  0  0  0
  3  4  1  1  0  0  0
  3 10  1  0  0  0  0
  3 42  1  0  0  0  0
  5 11  1  0  0  0  0
  5 29  1  0  0  0  0
  5 35  1  6  0  0  0
  6 13  1  0  0  0  0
  6 39  1  0  0  0  0
  6 22  1  6  0  0  0
  7 15  1  0  0  0  0
  8  9  1  6  0  0  0
  8 17  1  0  0  0  0
 10 19  1  0  0  0  0
 11 12  1  1  0  0  0
 11 21  1  0  0  0  0
 12 44  1  0  0  0  0
 13 14  1  6  0  0  0
 13 23  1  0  0  0  0
 15 16  1  0  0  0  0
 17 18  1  6  0  0  0
 17 25  1  0  0  0  0
 19 20  1  1  0  0  0
 19 27  1  0  0  0  0
 21 22  1  1  0  0  0
 21 28  1  0  0  0  0
 23 24  1  1  0  0  0
 23 30  1  0  0  0  0
 25 26  1  6  0  0  0
 25 32  1  0  0  0  0
 27  2  1  6  0  0  0
 27 34  1  0  0  0  0
 28 29  1  0  0  0  0
 28 36  1  1  0  0  0
 30 31  1  6  0  0  0
 30 38  1  0  0  0  0
 32 33  1  0  0  0  0
 32 40  1  1  0  0  0
 34 35  1  6  0  0  0
 34 42  1  0  0  0  0
 36 37  1  0  0  0  0
 38 39  1  0  0  0  0
 38 45  1  6  0  0  0
 40 41  1  0  0  0  0
 42 43  1  6  0  0  0
 44 47  1  0  0  0  0
 45 46  1  0  0  0  0
 47 48  1  0  0  0  0
 48 49  1  0  0  0  0
 49  7  1  0  0  0  0
M  END
>  <CHROM.1>
-122.52592938,-87.29606221,102.75237286,-42.29412816,-76.41469990,-85.52951246
-49.32543269,-120.45657088,-62.88612182,133.83279894,-80.74379254,-71.37843101
-135.38625738,-146.96274104,-163.12903723,70.37408735,25.83114452,27.02037361
7.48791010,-0.64816535,-0.55715061,-0.17477011

>  <Name>
2bee_lig

>  <RI>
0

>  <Rbt.Current_Directory>
/home/itssahil/PROJECTS/Mol_Feturizer/New_Systems/rnas/2bee

>  <Rbt.Executable>
rbdock ($Id: //depot/dev/client3/rdock/2013.1/src/exe/rbdock.cxx#4 $)

>  <Rbt.Library>
libRbt.so (2013.1, Build901 2013/11/27)

>  <Rbt.Parameter_File>
/export/apps/rDock/src/rDock_2013.1_src/data/scripts/dock_solv.prm

>  <Rbt.Receptor>
prm/blind_docking_100.prm

>  <SCORE>
56.3633

>  <SCORE.INTER>
2.85677

>  <SCORE.INTER.CONST>
1

>  <SCORE.INTER.POLAR>
-1.60054

>  <SCORE.INTER.ROT>
16

>  <SCORE.INTER.SOLV>
31.6874

>  <SCORE.INTER.VDW>
-17.5895

>  <SCORE.INTER.norm>
0.0583014

>  <SCORE.INTRA>
18.4144

>  <SCORE.INTRA.DIHEDRAL>
10.0834

>  <SCORE.INTRA.DIHEDRAL.0>
36.0842

>  <SCORE.INTRA.POLAR>
0

>  <SCORE.INTRA.POLAR.0>
0

>  <SCORE.INTRA.REPUL>
0

>  <SCORE.INTRA.REPUL.0>
0

>  <SCORE.INTRA.SOLV>
15.1898

>  <SCORE.INTRA.SOLV.lig_0>
-126.444

>  <SCORE.INTRA.VDW>
5.77782

>  <SCORE.INTRA.VDW.0>
-7.40469

>  <SCORE.INTRA.norm>
0.375805

>  <SCORE.RESTR>
35.0921

>  <SCORE.RESTR.CAVITY>
35.0921

>  <SCORE.RESTR.norm>
0.716166

>  <SCORE.SYSTEM>
0

>  <SCORE.SYSTEM.CONST>
0

>  <SCORE.SYSTEM.DIHEDRAL>
0

>  <SCORE.SYSTEM.SOLV>
0

>  <SCORE.SYSTEM.norm>
0

>  <SCORE.heavy>
49

>  <SCORE.norm>
1.15027

>  <RMSD>
31.802

$$$$
2bee_lig
 OpenBabel11021811423D
libRbt.so/2013.1/901 2013/11/27
 49 52  0  0  0  0  0  0  0  0999 V2000
   28.7444   26.3131   10.0631 C   0  0  2  0  0  0  0  0  0  0  0  0
   28.4951   25.2141    9.1958 O   0  0  0  0  0  0  0  0  0  0  0  0
   25.4334   22.1174    8.5549 C   0  0  2  0  0  0  0  0  0  0  0  0
   24.1294   21.4060    8.6453 N   0  0  0  0  0  0  0  0  0  0  0  0
   25.8403   26.6020    7.5053 C   0  0  1  0  0  0  0  0  0  0  0  0
   25.5686   31.3387    6.7641 C   0  0  1  0  0  0  0  0  0  0  0  0
   23.4645   24.6666   11.4574 C   0  0  0  0  0  0  0  0  0  0  0  0
   29.8372   27.2655    9.4405 C   0  0  2  0  0  0  0  0  0  0  0  0
   29.4357   27.6783    8.0999 N   0  0  0  0  0  0  0  0  0  0  0  0
   25.9969   22.3774   10.0255 C   0  0  0  0  0  0  0  0  0  0  0  0
   25.6240   27.9088    8.1967 C   0  0  2  0  0  0  0  0  0  0  0  0
   24.4105   27.9227    9.0319 O   0  0  0  0  0  0  0  0  0  0  0  0
   23.9654   31.0949    6.7278 C   0  0  2  0  0  0  0  0  0  0  0  0
   23.6193   30.4649    5.4101 N   0  0  0  0  0  0  0  0  0  0  0  0
   24.1009   24.7923   12.7144 C   0  0  0  0  0  0  0  0  0  0  0  0
   23.9338   25.9544   13.4641 N   0  0  0  0  0  0  0  0  0  0  0  0
   31.2411   26.5165    9.4270 C   0  0  1  0  0  0  0  0  0  0  0  0
   32.2188   27.3827    8.8695 O   0  0  0  0  0  0  0  0  0  0  0  0
   27.4250   23.1704    9.9693 C   0  0  2  0  0  0  0  0  0  0  0  0
   27.9404   23.3991   11.2764 N   0  0  0  0  0  0  0  0  0  0  0  0
   25.7545   28.7777    6.9692 C   0  0  2  0  0  0  0  0  0  0  0  0
   26.1539   30.0303    6.5609 O   0  0  0  0  0  0  0  0  0  0  0  0
   23.2482   32.4829    6.8866 C   0  0  1  0  0  0  0  0  0  0  0  0
   23.6247   33.0236    8.2009 O   0  0  0  0  0  0  0  0  0  0  0  0
   31.6113   26.1109   10.8725 C   0  0  2  0  0  0  0  0  0  0  0  0
   32.9112   25.3931   10.9036 O   0  0  0  0  0  0  0  0  0  0  0  0
   27.2426   24.5490    9.2226 C   0  0  2  0  0  0  0  0  0  0  0  0
   25.0723   27.8794    5.8225 C   0  0  2  0  0  0  0  0  0  0  0  0
   25.5010   26.6368    6.1484 O   0  0  0  0  0  0  0  0  0  0  0  0
   23.7173   33.4696    5.6742 C   0  0  2  0  0  0  0  0  0  0  0  0
   23.3353   32.9139    4.3564 O   0  0  0  0  0  0  0  0  0  0  0  0
   30.5172   25.1714   11.4811 C   0  0  2  0  0  0  0  0  0  0  0  0
   29.2825   25.9295   11.4091 O   0  0  0  0  0  0  0  0  0  0  0  0
   26.6867   24.2386    7.7918 C   0  0  2  0  0  0  0  0  0  0  0  0
   26.5862   25.5181    7.2151 O   0  0  0  0  0  0  0  0  0  0  0  0
   25.5166   28.1226    4.3328 C   0  0  0  0  0  0  0  0  0  0  0  0
   25.6373   26.8370    3.6457 O   0  0  0  0  0  0  0  0  0  0  0  0
   25.2994   33.6580    5.7030 C   0  0  1  0  0  0  0  0  0  0  0  0
   25.9105   32.2764    5.5976 O   0  0  0  0  0  0  0  0  0  0  0  0
   30.9388   24.8573   12.8592 C   0  0  0  0  0  0  0  0  0  0  0  0
   30.9543   25.9676   13.6089 O   0  0  0  0  0  0  0  0  0  0  0  0
   25.2846   23.4974    7.8763 C   0  0  1  0  0  0  0  0  0  0  0  0
   24.8043   23.2186    6.5965 O   0  0  0  0  0  0  0  0  0  0  0  0
   23.0302   27.8739    8.5227 C   0  0  0  0  0  0  0  0  0  0  0  0
   25.6316   34.5969    4.4942 C   0  0  0  0  0  0  0  0  0  0  0  0
   26.9459   35.1669    4.5733 N   0  0  0  0  0  0  0  0  0  0  0  0
   22.7119   26.4503    8.0635 C   0  0  0  0  0  0  0  0  0  0  0  0
   22.5566   25.6345    9.2836 N   0  0  0  0  0  0  0  0  0  0  0  0
   23.4842   25.9205   10.4664 C   0  0  0  0  0  0  0  0  0  0  0  0
  1  2  1  6  0  0  0
  1  8  1  0  0  0  0
  1 33  1  0  0  0  0
  3  4  1  1  0  0  0
  3 10  1  0  0  0  0
  3 42  1  0  0  0  0
  5 11  1  0  0  0  0
  5 29  1  0  0  0  0
  5 35  1  6  0  0  0
  6 13  1  0  0  0  0
  6 39  1  0  0  0  0
  6 22  1  6  0  0  0
  7 15  1  0  0  0  0
  8  9  1  6  0  0  0
  8 17  1  0  0  0  0
 10 19  1  0  0  0  0
 11 12  1  6  0  0  0
 11 21  1  0  0  0  0
 12 44  1  0  0  0  0
 13 14  1  6  0  0  0
 13 23  1  0  0  0  0
 15 16  1  0  0  0  0
 17 18  1  1  0  0  0
 17 25  1  0  0  0  0
 19 20  1  1  0  0  0
 19 27  1  0  0  0  0
 21 22  1  1  0  0  0
 21 28  1  0  0  0  0
 23 24  1  1  0  0  0
 23 30  1  0  0  0  0
 25 26  1  6  0  0  0
 25 32  1  0  0  0  0
 27  2  1  6  0  0  0
 27 34  1  0  0  0  0
 28 29  1  0  0  0  0
 28 36  1  6  0  0  0
 30 31  1  6  0  0  0
 30 38  1  0  0  0  0
 32 33  1  0  0  0  0
 32 40  1  1  0  0  0
 34 35  1  6  0  0  0
 34 42  1  0  0  0  0
 36 37  1  0  0  0  0
 38 39  1  0  0  0  0
 38 45  1  6  0  0  0
 40 41  1  0  0  0  0
 42 43  1  6  0  0  0
 44 47  1  0  0  0  0
 45 46  1  0  0  0  0
 47 48  1  0  0  0  0
 48 49  1  0  0  0  0
 49  7  1  0  0  0  0
M  END
>  <CHROM.1>
-153.91022163,92.14240763,-35.27597880,43.14867172,-68.34186615,75.16659364
-70.52124861,-104.59609647,139.65628624,64.22525887,-64.25094333,164.04944756
73.02016884,-37.67044323,-162.24484406,-171.01961782,26.37489560,27.35432688
8.35621869,-1.16215031,-0.31357575,-0.45266068

>  <Name>
2bee_lig

>  <RI>
0

>  <Rbt.Current_Directory>
/home/itssahil/PROJECTS/Mol_Feturizer/New_Systems/rnas/2bee

>  <Rbt.Executable>
rbdock ($Id: //depot/dev/client3/rdock/2013.1/src/exe/rbdock.cxx#4 $)

>  <Rbt.Library>
libRbt.so (2013.1, Build901 2013/11/27)

>  <Rbt.Parameter_File>
/export/apps/rDock/src/rDock_2013.1_src/data/scripts/dock_solv.prm

>  <Rbt.Receptor>
prm/blind_docking_100.prm

>  <SCORE>
29.3755

>  <SCORE.INTER>
-5.33316

>  <SCORE.INTER.CONST>
1

>  <SCORE.INTER.POLAR>
-0.937301

>  <SCORE.INTER.ROT>
16

>  <SCORE.INTER.SOLV>
35.9567

>  <SCORE.INTER.VDW>
-26.6833

>  <SCORE.INTER.norm>
-0.10884

>  <SCORE.INTRA>
2.31007

>  <SCORE.INTRA.DIHEDRAL>
-6.98389

>  <SCORE.INTRA.DIHEDRAL.0>
36.0842

>  <SCORE.INTRA.POLAR>
0

>  <SCORE.INTRA.POLAR.0>
0

>  <SCORE.INTRA.REPUL>
0

>  <SCORE.INTRA.REPUL.0>
0

>  <SCORE.INTRA.SOLV>
4.18032

>  <SCORE.INTRA.SOLV.lig_0>
-126.444

>  <SCORE.INTRA.VDW>
3.71186

>  <SCORE.INTRA.VDW.0>
-7.40469

>  <SCORE.INTRA.norm>
0.0471443

>  <SCORE.RESTR>
32.3986

>  <SCORE.RESTR.CAVITY>
32.3986

>  <SCORE.RESTR.norm>
0.661195

>  <SCORE.SYSTEM>
0

>  <SCORE.SYSTEM.CONST>
0

>  <SCORE.SYSTEM.DIHEDRAL>
0

>  <SCORE.SYSTEM.SOLV>
0

>  <SCORE.SYSTEM.norm>
0

>  <SCORE.heavy>
49

>  <SCORE.norm>
0.599499

>  <RMSD>
31.812

$$$$
2bee_lig
 OpenBabel11021811423D
libRbt.so/2013.1/901 2013/11/27
 49 52  0  0  0  0  0  0  0  0999 V2000
   23.8029   31.5014    5.0789 C   0  0  2  0  0  0  0  0  0  0  0  0
   24.8536   30.5444    5.1274 O   0  0  0  0  0  0  0  0  0  0  0  0
   22.7536   26.7871    6.0473 C   0  0  2  0  0  0  0  0  0  0  0  0
   22.4261   25.3353    6.0420 N   0  0  0  0  0  0  0  0  0  0  0  0
   26.8720   28.1436    7.3108 C   0  0  1  0  0  0  0  0  0  0  0  0
   26.7143   23.9121    8.8536 C   0  0  1  0  0  0  0  0  0  0  0  0
   30.2409   24.3387   11.9283 C   0  0  0  0  0  0  0  0  0  0  0  0
   24.2862   32.8769    5.6814 C   0  0  2  0  0  0  0  0  0  0  0  0
   25.4955   33.3246    4.9988 N   0  0  0  0  0  0  0  0  0  0  0  0
   22.7814   27.3283    4.5459 C   0  0  0  0  0  0  0  0  0  0  0  0
   27.7887   27.3006    8.1364 C   0  0  2  0  0  0  0  0  0  0  0  0
   29.1724   27.8059    8.1554 O   0  0  0  0  0  0  0  0  0  0  0  0
   25.7685   22.8036    8.1410 C   0  0  2  0  0  0  0  0  0  0  0  0
   24.8002   23.5220    7.2470 N   0  0  0  0  0  0  0  0  0  0  0  0
   31.0203   25.4554   12.3105 C   0  0  0  0  0  0  0  0  0  0  0  0
   30.4749   26.4307   13.1424 N   0  0  0  0  0  0  0  0  0  0  0  0
   24.5241   32.7108    7.2460 C   0  0  1  0  0  0  0  0  0  0  0  0
   24.9542   33.9545    7.7801 O   0  0  0  0  0  0  0  0  0  0  0  0
   23.1515   28.9198    4.5082 C   0  0  2  0  0  0  0  0  0  0  0  0
   23.1699   29.4141    3.1734 N   0  0  0  0  0  0  0  0  0  0  0  0
   27.4329   25.9804    7.4967 C   0  0  2  0  0  0  0  0  0  0  0  0
   27.3370   24.6334    7.7637 O   0  0  0  0  0  0  0  0  0  0  0  0
   25.0073   22.0071    9.2600 C   0  0  1  0  0  0  0  0  0  0  0  0
   26.0198   21.3237   10.0783 O   0  0  0  0  0  0  0  0  0  0  0  0
   23.2089   32.2410    7.9100 C   0  0  2  0  0  0  0  0  0  0  0  0
   23.3913   32.0579    9.3725 O   0  0  0  0  0  0  0  0  0  0  0  0
   24.5592   29.1579    5.1812 C   0  0  2  0  0  0  0  0  0  0  0  0
   27.2048   26.3812    5.9556 C   0  0  2  0  0  0  0  0  0  0  0  0
   26.5755   27.5752    6.0672 O   0  0  0  0  0  0  0  0  0  0  0  0
   24.1196   23.0488   10.1489 C   0  0  2  0  0  0  0  0  0  0  0  0
   23.1058   23.7323    9.3143 O   0  0  0  0  0  0  0  0  0  0  0  0
   22.7367   30.8791    7.2999 C   0  0  2  0  0  0  0  0  0  0  0  0
   22.5902   31.1298    5.8786 O   0  0  0  0  0  0  0  0  0  0  0  0
   24.4791   28.6084    6.6454 C   0  0  2  0  0  0  0  0  0  0  0  0
   25.7615   28.8898    7.1517 O   0  0  0  0  0  0  0  0  0  0  0  0
   26.2643   25.4665    5.0869 C   0  0  0  0  0  0  0  0  0  0  0  0
   26.6801   24.0711    5.2257 O   0  0  0  0  0  0  0  0  0  0  0  0
   25.0639   24.1539   10.8018 C   0  0  1  0  0  0  0  0  0  0  0  0
   25.7958   24.8365    9.6652 O   0  0  0  0  0  0  0  0  0  0  0  0
   21.4725   30.5230    7.9712 C   0  0  0  0  0  0  0  0  0  0  0  0
   21.3089   29.1933    7.9868 O   0  0  0  0  0  0  0  0  0  0  0  0
   24.1503   27.0546    6.6511 C   0  0  1  0  0  0  0  0  0  0  0  0
   24.0729   26.5789    7.9603 O   0  0  0  0  0  0  0  0  0  0  0  0
   30.3264   27.0959    8.7306 C   0  0  0  0  0  0  0  0  0  0  0  0
   24.1086   25.0998   11.6053 C   0  0  0  0  0  0  0  0  0  0  0  0
   23.2381   25.8652   10.7597 N   0  0  0  0  0  0  0  0  0  0  0  0
   29.9059   25.6759    9.1126 C   0  0  0  0  0  0  0  0  0  0  0  0
   28.9866   25.7990   10.2606 N   0  0  0  0  0  0  0  0  0  0  0  0
   28.8417   24.6009   11.2013 C   0  0  0  0  0  0  0  0  0  0  0  0
  1  2  1  1  0  0  0
  1  8  1  0  0  0  0
  1 33  1  0  0  0  0
  3  4  1  6  0  0  0
  3 10  1  0  0  0  0
  3 42  1  0  0  0  0
  5 11  1  0  0  0  0
  5 29  1  0  0  0  0
  5 35  1  1  0  0  0
  6 13  1  0  0  0  0
  6 39  1  0  0  0  0
  6 22  1  6  0  0  0
  7 15  1  0  0  0  0
  8  9  1  6  0  0  0
  8 17  1  0  0  0  0
 10 19  1  0  0  0  0
 11 12  1  6  0  0  0
 11 21  1  0  0  0  0
 12 44  1  0  0  0  0
 13 14  1  6  0  0  0
 13 23  1  0  0  0  0
 15 16  1  0  0  0  0
 17 18  1  1  0  0  0
 17 25  1  0  0  0  0
 19 20  1  6  0  0  0
 19 27  1  0  0  0  0
 21 22  1  6  0  0  0
 21 28  1  0  0  0  0
 23 24  1  1  0  0  0
 23 30  1  0  0  0  0
 25 26  1  1  0  0  0
 25 32  1  0  0  0  0
 27  2  1  1  0  0  0
 27 34  1  0  0  0  0
 28 29  1  0  0  0  0
 28 36  1  1  0  0  0
 30 31  1  6  0  0  0
 30 38  1  0  0  0  0
 32 33  1  0  0  0  0
 32 40  1  1  0  0  0
 34 35  1  6  0  0  0
 34 42  1  0  0  0  0
 36 37  1  0  0  0  0
 38 39  1  0  0  0  0
 38 45  1  6  0  0  0
 40 41  1  0  0  0  0
 42 43  1  1  0  0  0
 44 47  1  0  0  0  0
 45 46  1  0  0  0  0
 47 48  1  0  0  0  0
 48 49  1  0  0  0  0
 49  7  1  0  0  0  0
M  END
>  <CHROM.1>
153.78192621,-97.02779613,128.66032277,56.30262787,-171.48054285,8.38049835
48.14454200,26.55132122,-50.96026149,-152.36220951,-99.09408575,-67.79436323
-69.29084602,-155.88144963,64.52057991,37.61433906,25.48631066,27.27052380
7.84574795,-2.11153955,0.51614144,2.91720034

>  <Name>
2bee_lig

>  <RI>
0

>  <Rbt.Current_Directory>
/home/itssahil/PROJECTS/Mol_Feturizer/New_Systems/rnas/2bee

>  <Rbt.Executable>
rbdock ($Id: //depot/dev/client3/rdock/2013.1/src/exe/rbdock.cxx#4 $)

>  <Rbt.Library>
libRbt.so (2013.1, Build901 2013/11/27)

>  <Rbt.Parameter_File>
/export/apps/rDock/src/rDock_2013.1_src/data/scripts/dock_solv.prm

>  <Rbt.Receptor>
prm/blind_docking_100.prm

>  <SCORE>
53.8823

>  <SCORE.INTER>
8.46627

>  <SCORE.INTER.CONST>
1

>  <SCORE.INTER.POLAR>
0

>  <SCORE.INTER.ROT>
16

>  <SCORE.INTER.SOLV>
30.3638

>  <SCORE.INTER.VDW>
-18.7437

>  <SCORE.INTER.norm>
0.172781

>  <SCORE.INTRA>
18.6132

>  <SCORE.INTRA.DIHEDRAL>
4.81008

>  <SCORE.INTRA.DIHEDRAL.0>
36.0842

>  <SCORE.INTRA.POLAR>
0

>  <SCORE.INTRA.POLAR.0>
0

>  <SCORE.INTRA.REPUL>
0.312726

>  <SCORE.INTRA.REPUL.0>
0

>  <SCORE.INTRA.SOLV>
12.9079

>  <SCORE.INTRA.SOLV.lig_0>
-126.444

>  <SCORE.INTRA.VDW>
8.19057

>  <SCORE.INTRA.VDW.0>
-7.40469

>  <SCORE.INTRA.norm>
0.379862

>  <SCORE.RESTR>
26.8028

>  <SCORE.RESTR.CAVITY>
26.8028

>  <SCORE.RESTR.norm>
0.546996

>  <SCORE.SYSTEM>
0

>  <SCORE.SYSTEM.CONST>
0

>  <SCORE.SYSTEM.DIHEDRAL>
0

>  <SCORE.SYSTEM.SOLV>
0

>  <SCORE.SYSTEM.norm>
0

>  <SCORE.heavy>
49

>  <SCORE.norm>
1.09964

>  <RMSD>
31.925

$$$$
2bee_lig
 OpenBabel11021811423D
libRbt.so/2013.1/901 2013/11/27
 49 52  0  0  0  0  0  0  0  0999 V2000
   28.6513   27.2125    8.9834 C   0  0  2  0  0  0  0  0  0  0  0  0
   28.4639   26.1351    9.8923 O   0  0  0  0  0  0  0  0  0  0  0  0
   26.3803   22.4273    8.7587 C   0  0  2  0  0  0  0  0  0  0  0  0
   25.2811   21.4350    8.6105 N   0  0  0  0  0  0  0  0  0  0  0  0
   26.1607   27.0451    7.8589 C   0  0  1  0  0  0  0  0  0  0  0  0
   25.4618   31.7220    6.9870 C   0  0  1  0  0  0  0  0  0  0  0  0
   23.6944   23.3462   10.0837 C   0  0  0  0  0  0  0  0  0  0  0  0
   29.9462   26.9769    8.1136 C   0  0  2  0  0  0  0  0  0  0  0  0
   29.8739   25.6793    7.4506 N   0  0  0  0  0  0  0  0  0  0  0  0
   26.5591   22.7915   10.3025 C   0  0  0  0  0  0  0  0  0  0  0  0
   25.8603   28.3353    8.5501 C   0  0  2  0  0  0  0  0  0  0  0  0
   24.6628   28.2634    9.4053 O   0  0  0  0  0  0  0  0  0  0  0  0
   23.9015   31.2789    6.9806 C   0  0  2  0  0  0  0  0  0  0  0  0
   23.6445   30.4946    5.7268 N   0  0  0  0  0  0  0  0  0  0  0  0
   22.5375   23.0307   10.8340 C   0  0  0  0  0  0  0  0  0  0  0  0
   21.4938   23.9494   10.9200 N   0  0  0  0  0  0  0  0  0  0  0  0
   31.2320   27.0883    9.0443 C   0  0  1  0  0  0  0  0  0  0  0  0
   32.3922   26.8795    8.2522 O   0  0  0  0  0  0  0  0  0  0  0  0
   27.7509   23.8913   10.5063 C   0  0  2  0  0  0  0  0  0  0  0  0
   27.9242   24.2159   11.8814 N   0  0  0  0  0  0  0  0  0  0  0  0
   25.9066   29.2065    7.3182 C   0  0  2  0  0  0  0  0  0  0  0  0
   26.2061   30.4833    6.8998 O   0  0  0  0  0  0  0  0  0  0  0  0
   23.0168   32.5758    7.0171 C   0  0  1  0  0  0  0  0  0  0  0  0
   23.3150   33.2753    8.2755 O   0  0  0  0  0  0  0  0  0  0  0  0
   31.2533   28.4831    9.7118 C   0  0  2  0  0  0  0  0  0  0  0  0
   32.4324   28.6242   10.6039 O   0  0  0  0  0  0  0  0  0  0  0  0
   27.4163   25.2003    9.6905 C   0  0  2  0  0  0  0  0  0  0  0  0
   25.2736   28.2558    6.1855 C   0  0  2  0  0  0  0  0  0  0  0  0
   25.7977   27.0494    6.5077 O   0  0  0  0  0  0  0  0  0  0  0  0
   23.3676   33.4999    5.7184 C   0  0  2  0  0  0  0  0  0  0  0  0
   23.0658   32.7846    4.4580 O   0  0  0  0  0  0  0  0  0  0  0  0
   29.9614   28.7072   10.5666 C   0  0  2  0  0  0  0  0  0  0  0  0
   28.8585   28.5455    9.6382 O   0  0  0  0  0  0  0  0  0  0  0  0
   27.2481   24.7883    8.1890 C   0  0  2  0  0  0  0  0  0  0  0  0
   26.9795   26.0178    7.5595 O   0  0  0  0  0  0  0  0  0  0  0  0
   25.6745   28.5250    4.6879 C   0  0  0  0  0  0  0  0  0  0  0  0
   24.4815   28.8874    3.9231 O   0  0  0  0  0  0  0  0  0  0  0  0
   24.9138   33.8849    5.7223 C   0  0  1  0  0  0  0  0  0  0  0  0
   25.6922   32.5859    5.7390 O   0  0  0  0  0  0  0  0  0  0  0  0
   30.0565   30.0621   11.1418 C   0  0  0  0  0  0  0  0  0  0  0  0
   28.8416   30.5128   11.4823 O   0  0  0  0  0  0  0  0  0  0  0  0
   26.0636   23.7446    8.0163 C   0  0  1  0  0  0  0  0  0  0  0  0
   25.9294   23.3789    6.6767 O   0  0  0  0  0  0  0  0  0  0  0  0
   23.2936   28.0110    8.9273 C   0  0  0  0  0  0  0  0  0  0  0  0
   25.1347   34.7450    4.4321 C   0  0  0  0  0  0  0  0  0  0  0  0
   26.5089   35.1034    4.2274 N   0  0  0  0  0  0  0  0  0  0  0  0
   22.8397   26.6302    9.4030 C   0  0  0  0  0  0  0  0  0  0  0  0
   23.9685   25.7082    9.1713 N   0  0  0  0  0  0  0  0  0  0  0  0
   24.3813   24.7718   10.3088 C   0  0  0  0  0  0  0  0  0  0  0  0
  1  2  1  1  0  0  0
  1  8  1  0  0  0  0
  1 33  1  0  0  0  0
  3  4  1  1  0  0  0
  3 10  1  0  0  0  0
  3 42  1  0  0  0  0
  5 11  1  0  0  0  0
  5 29  1  0  0  0  0
  5 35  1  6  0  0  0
  6 13  1  0  0  0  0
  6 39  1  0  0  0  0
  6 22  1  6  0  0  0
  7 15  1  0  0  0  0
  8  9  1  1  0  0  0
  8 17  1  0  0  0  0
 10 19  1  0  0  0  0
 11 12  1  6  0  0  0
 11 21  1  0  0  0  0
 12 44  1  0  0  0  0
 13 14  1  6  0  0  0
 13 23  1  0  0  0  0
 15 16  1  0  0  0  0
 17 18  1  6  0  0  0
 17 25  1  0  0  0  0
 19 20  1  1  0  0  0
 19 27  1  0  0  0  0
 21 22  1  1  0  0  0
 21 28  1  0  0  0  0
 23 24  1  1  0  0  0
 23 30  1  0  0  0  0
 25 26  1  1  0  0  0
 25 32  1  0  0  0  0
 27  2  1  6  0  0  0
 27 34  1  0  0  0  0
 28 29  1  0  0  0  0
 28 36  1  6  0  0  0
 30 31  1  6  0  0  0
 30 38  1  0  0  0  0
 32 33  1  0  0  0  0
 32 40  1  6  0  0  0
 34 35  1  6  0  0  0
 34 42  1  0  0  0  0
 36 37  1  0  0  0  0
 38 39  1  0  0  0  0
 38 45  1  6  0  0  0
 40 41  1  0  0  0  0
 42 43  1  6  0  0  0
 44 47  1  0  0  0  0
 45 46  1  0  0  0  0
 47 48  1  0  0  0  0
 48 49  1  0  0  0  0
 49  7  1  0  0  0  0
M  END
>  <CHROM.1>
-108.27501158,87.09909070,-28.58165747,47.82045725,-63.51714327,110.94643284
-78.01508940,160.37639635,-117.67759904,158.44173629,-45.64022115,-175.90944757
-44.16739766,132.25798952,96.68990258,-100.77285928,26.33205228,27.91328403
8.17790108,-1.32643580,-0.26122899,-0.36673531

>  <Name>
2bee_lig

>  <RI>
0

>  <Rbt.Current_Directory>
/home/itssahil/PROJECTS/Mol_Feturizer/New_Systems/rnas/2bee

>  <Rbt.Executable>
rbdock ($Id: //depot/dev/client3/rdock/2013.1/src/exe/rbdock.cxx#4 $)

>  <Rbt.Library>
libRbt.so (2013.1, Build901 2013/11/27)

>  <Rbt.Parameter_File>
/export/apps/rDock/src/rDock_2013.1_src/data/scripts/dock_solv.prm

>  <Rbt.Receptor>
prm/blind_docking_100.prm

>  <SCORE>
54.0332

>  <SCORE.INTER>
1.4337

>  <SCORE.INTER.CONST>
1

>  <SCORE.INTER.POLAR>
-1.25046

>  <SCORE.INTER.ROT>
16

>  <SCORE.INTER.SOLV>
32.4018

>  <SCORE.INTER.VDW>
-19.9433

>  <SCORE.INTER.norm>
0.0292592

>  <SCORE.INTRA>
16.2095

>  <SCORE.INTRA.DIHEDRAL>
5.78369

>  <SCORE.INTRA.DIHEDRAL.0>
36.0842

>  <SCORE.INTRA.POLAR>
0

>  <SCORE.INTRA.POLAR.0>
0

>  <SCORE.INTRA.REPUL>
0

>  <SCORE.INTRA.REPUL.0>
0

>  <SCORE.INTRA.SOLV>
10.7829

>  <SCORE.INTRA.SOLV.lig_0>
-126.444

>  <SCORE.INTRA.VDW>
7.92626

>  <SCORE.INTRA.VDW.0>
-7.40469

>  <SCORE.INTRA.norm>
0.330807

>  <SCORE.RESTR>
36.39

>  <SCORE.RESTR.CAVITY>
36.39

>  <SCORE.RESTR.norm>
0.742653

>  <SCORE.SYSTEM>
0

>  <SCORE.SYSTEM.CONST>
0

>  <SCORE.SYSTEM.DIHEDRAL>
0

>  <SCORE.SYSTEM.SOLV>
0

>  <SCORE.SYSTEM.norm>
0

>  <SCORE.heavy>
49

>  <SCORE.norm>
1.10272

>  <RMSD>
31.953

$$$$
2bee_lig
 OpenBabel11021811423D
libRbt.so/2013.1/901 2013/11/27
 49 52  0  0  0  0  0  0  0  0999 V2000
   29.1954   24.5532    9.8309 C   0  0  2  0  0  0  0  0  0  0  0  0
   27.8186   24.9087    9.8460 O   0  0  0  0  0  0  0  0  0  0  0  0
   26.2173   22.2715    6.7067 C   0  0  2  0  0  0  0  0  0  0  0  0
   25.2469   21.6693    5.7524 N   0  0  0  0  0  0  0  0  0  0  0  0
   26.9627   26.8571    7.4142 C   0  0  1  0  0  0  0  0  0  0  0  0
   25.2839   30.7664    5.1980 C   0  0  1  0  0  0  0  0  0  0  0  0
   22.0812   29.9590   10.2274 C   0  0  0  0  0  0  0  0  0  0  0  0
   29.7186   24.3250   11.3017 C   0  0  2  0  0  0  0  0  0  0  0  0
   28.8842   23.3405   11.9821 N   0  0  0  0  0  0  0  0  0  0  0  0
   25.6259   22.1856    8.1868 C   0  0  0  0  0  0  0  0  0  0  0  0
   26.7894   28.3355    7.5445 C   0  0  2  0  0  0  0  0  0  0  0  0
   26.1609   28.7301    8.8171 O   0  0  0  0  0  0  0  0  0  0  0  0
   26.1435   31.6845    6.2224 C   0  0  2  0  0  0  0  0  0  0  0  0
   26.1419   31.0124    7.5646 N   0  0  0  0  0  0  0  0  0  0  0  0
   21.8319   31.3109   10.5606 C   0  0  0  0  0  0  0  0  0  0  0  0
   22.8677   32.2411   10.5094 N   0  0  0  0  0  0  0  0  0  0  0  0
   29.7338   25.7153   12.0757 C   0  0  1  0  0  0  0  0  0  0  0  0
   30.2103   25.5008   13.3963 O   0  0  0  0  0  0  0  0  0  0  0  0
   26.6588   22.8502    9.2652 C   0  0  2  0  0  0  0  0  0  0  0  0
   26.1441   22.7702   10.5900 N   0  0  0  0  0  0  0  0  0  0  0  0
   26.1002   28.5464    6.2181 C   0  0  2  0  0  0  0  0  0  0  0  0
   25.9346   29.4733    5.2139 O   0  0  0  0  0  0  0  0  0  0  0  0
   25.4676   33.0994    6.3078 C   0  0  1  0  0  0  0  0  0  0  0  0
   25.5227   33.6939    4.9642 O   0  0  0  0  0  0  0  0  0  0  0  0
   30.6361   26.7103   11.3095 C   0  0  2  0  0  0  0  0  0  0  0  0
   30.6662   28.0294   11.9914 O   0  0  0  0  0  0  0  0  0  0  0  0
   26.9256   24.3599    8.8903 C   0  0  2  0  0  0  0  0  0  0  0  0
   25.1978   27.2229    6.0710 C   0  0  2  0  0  0  0  0  0  0  0  0
   26.0202   26.2672    6.5651 O   0  0  0  0  0  0  0  0  0  0  0  0
   23.9296   32.9277    6.8261 C   0  0  2  0  0  0  0  0  0  0  0  0
   23.8867   32.3262    8.1781 O   0  0  0  0  0  0  0  0  0  0  0  0
   30.1105   26.9237    9.8507 C   0  0  2  0  0  0  0  0  0  0  0  0
   30.0988   25.6016    9.2538 O   0  0  0  0  0  0  0  0  0  0  0  0
   27.4995   24.3881    7.4335 C   0  0  2  0  0  0  0  0  0  0  0  0
   27.7198   25.7605    7.2146 O   0  0  0  0  0  0  0  0  0  0  0  0
   24.8018   26.7575    4.6211 C   0  0  0  0  0  0  0  0  0  0  0  0
   23.6354   25.8780    4.6946 O   0  0  0  0  0  0  0  0  0  0  0  0
   23.1180   31.9863    5.8291 C   0  0  1  0  0  0  0  0  0  0  0  0
   23.8603   30.6679    5.7640 O   0  0  0  0  0  0  0  0  0  0  0  0
   31.0392   27.8617    9.1924 C   0  0  0  0  0  0  0  0  0  0  0  0
   30.3945   28.5891    8.2701 O   0  0  0  0  0  0  0  0  0  0  0  0
   26.4631   23.7663    6.4032 C   0  0  1  0  0  0  0  0  0  0  0  0
   26.9889   23.7889    5.1112 O   0  0  0  0  0  0  0  0  0  0  0  0
   24.7344   29.0466    8.9959 C   0  0  0  0  0  0  0  0  0  0  0  0
   21.6772   31.8786    6.4339 C   0  0  0  0  0  0  0  0  0  0  0  0
   21.0759   30.5934    6.2210 N   0  0  0  0  0  0  0  0  0  0  0  0
   23.9268   27.7479    9.0055 C   0  0  0  0  0  0  0  0  0  0  0  0
   22.5619   28.0925    8.5625 N   0  0  0  0  0  0  0  0  0  0  0  0
   22.1100   29.5495    8.6826 C   0  0  0  0  0  0  0  0  0  0  0  0
  1  2  1  1  0  0  0
  1  8  1  0  0  0  0
  1 33  1  0  0  0  0
  3  4  1  6  0  0  0
  3 10  1  0  0  0  0
  3 42  1  0  0  0  0
  5 11  1  0  0  0  0
  5 29  1  0  0  0  0
  5 35  1  6  0  0  0
  6 13  1  0  0  0  0
  6 39  1  0  0  0  0
  6 22  1  1  0  0  0
  7 15  1  0  0  0  0
  8  9  1  1  0  0  0
  8 17  1  0  0  0  0
 10 19  1  0  0  0  0
 11 12  1  1  0  0  0
 11 21  1  0  0  0  0
 12 44  1  0  0  0  0
 13 14  1  1  0  0  0
 13 23  1  0  0  0  0
 15 16  1  0  0  0  0
 17 18  1  1  0  0  0
 17 25  1  0  0  0  0
 19 20  1  1  0  0  0
 19 27  1  0  0  0  0
 21 22  1  1  0  0  0
 21 28  1  0  0  0  0
 23 24  1  6  0  0  0
 23 30  1  0  0  0  0
 25 26  1  1  0  0  0
 25 32  1  0  0  0  0
 27  2  1  1  0  0  0
 27 34  1  0  0  0  0
 28 29  1  0  0  0  0
 28 36  1  6  0  0  0
 30 31  1  1  0  0  0
 30 38  1  0  0  0  0
 32 33  1  0  0  0  0
 32 40  1  6  0  0  0
 34 35  1  6  0  0  0
 34 42  1  0  0  0  0
 36 37  1  0  0  0  0
 38 39  1  0  0  0  0
 38 45  1  1  0  0  0
 40 41  1  0  0  0  0
 42 43  1  6  0  0  0
 44 47  1  0  0  0  0
 45 46  1  0  0  0  0
 47 48  1  0  0  0  0
 48 49  1  0  0  0  0
 49  7  1  0  0  0  0
M  END
>  <CHROM.1>
-138.43704571,164.59663290,64.03509788,-81.32815400,-98.50001811,75.99729123
-66.27772561,73.46198246,-159.76796899,-149.88479442,-47.77163406,-145.49627507
-154.34802896,-21.01072815,-63.87472917,173.16477452,26.17396164,27.62084806
8.09619236,-0.72581578,-0.72543699,0.25765893

>  <Name>
2bee_lig

>  <RI>
0

>  <Rbt.Current_Directory>
/home/itssahil/PROJECTS/Mol_Feturizer/New_Systems/rnas/2bee

>  <Rbt.Executable>
rbdock ($Id: //depot/dev/client3/rdock/2013.1/src/exe/rbdock.cxx#4 $)

>  <Rbt.Library>
libRbt.so (2013.1, Build901 2013/11/27)

>  <Rbt.Parameter_File>
/export/apps/rDock/src/rDock_2013.1_src/data/scripts/dock_solv.prm

>  <Rbt.Receptor>
prm/blind_docking_100.prm

>  <SCORE>
32.8679

>  <SCORE.INTER>
-2.46887

>  <SCORE.INTER.CONST>
1

>  <SCORE.INTER.POLAR>
-0.73396

>  <SCORE.INTER.ROT>
16

>  <SCORE.INTER.SOLV>
33.4474

>  <SCORE.INTER.VDW>
-24.6152

>  <SCORE.INTER.norm>
-0.0503851

>  <SCORE.INTRA>
12.223

>  <SCORE.INTRA.DIHEDRAL>
-4.0649

>  <SCORE.INTRA.DIHEDRAL.0>
36.0842

>  <SCORE.INTRA.POLAR>
0

>  <SCORE.INTRA.POLAR.0>
0

>  <SCORE.INTRA.REPUL>
0

>  <SCORE.INTRA.REPUL.0>
0

>  <SCORE.INTRA.SOLV>
9.83704

>  <SCORE.INTRA.SOLV.lig_0>
-126.444

>  <SCORE.INTRA.VDW>
9.33696

>  <SCORE.INTRA.VDW.0>
-7.40469

>  <SCORE.INTRA.norm>
0.24945

>  <SCORE.RESTR>
23.1137

>  <SCORE.RESTR.CAVITY>
23.1137

>  <SCORE.RESTR.norm>
0.471709

>  <SCORE.SYSTEM>
0

>  <SCORE.SYSTEM.CONST>
0

>  <SCORE.SYSTEM.DIHEDRAL>
0

>  <SCORE.SYSTEM.SOLV>
0

>  <SCORE.SYSTEM.norm>
0

>  <SCORE.heavy>
49

>  <SCORE.norm>
0.670774

>  <RMSD>
32.016

$$$$
2bee_lig
 OpenBabel11021811423D
libRbt.so/2013.1/901 2013/11/27
 49 52  0  0  0  0  0  0  0  0999 V2000
   29.4152   24.6565   10.0058 C   0  0  2  0  0  0  0  0  0  0  0  0
   28.0115   24.8800   10.0471 O   0  0  0  0  0  0  0  0  0  0  0  0
   26.8132   23.4455    6.0621 C   0  0  2  0  0  0  0  0  0  0  0  0
   25.9433   23.1361    4.8949 N   0  0  0  0  0  0  0  0  0  0  0  0
   26.9307   27.6327    7.8237 C   0  0  1  0  0  0  0  0  0  0  0  0
   22.9193   28.6505    5.5208 C   0  0  1  0  0  0  0  0  0  0  0  0
   21.8282   29.5203    9.7386 C   0  0  0  0  0  0  0  0  0  0  0  0
   29.9665   24.3642   11.4548 C   0  0  2  0  0  0  0  0  0  0  0  0
   29.2315   23.2562   12.0553 N   0  0  0  0  0  0  0  0  0  0  0  0
   26.2189   22.7416    7.3657 C   0  0  0  0  0  0  0  0  0  0  0  0
   26.1628   28.6490    7.0427 C   0  0  2  0  0  0  0  0  0  0  0  0
   26.3262   30.0172    7.5638 O   0  0  0  0  0  0  0  0  0  0  0  0
   23.7886   28.7632    4.1561 C   0  0  2  0  0  0  0  0  0  0  0  0
   25.1582   29.2614    4.5153 N   0  0  0  0  0  0  0  0  0  0  0  0
   20.9807   30.2889    8.9068 C   0  0  0  0  0  0  0  0  0  0  0  0
   20.8286   29.9467    7.5649 N   0  0  0  0  0  0  0  0  0  0  0  0
   29.8573   25.6852   12.3351 C   0  0  1  0  0  0  0  0  0  0  0  0
   30.3598   25.4139   13.6354 O   0  0  0  0  0  0  0  0  0  0  0  0
   27.1408   23.0692    8.6750 C   0  0  2  0  0  0  0  0  0  0  0  0
   26.6237   22.4381    9.8414 N   0  0  0  0  0  0  0  0  0  0  0  0
   24.8340   27.9341    7.0880 C   0  0  2  0  0  0  0  0  0  0  0  0
   23.6709   27.7543    6.3739 O   0  0  0  0  0  0  0  0  0  0  0  0
   23.0668   29.7682    3.1890 C   0  0  1  0  0  0  0  0  0  0  0  0
   21.7462   29.2032    2.8750 O   0  0  0  0  0  0  0  0  0  0  0  0
   30.6584   26.8167   11.6500 C   0  0  2  0  0  0  0  0  0  0  0  0
   30.5700   28.0757   12.4329 O   0  0  0  0  0  0  0  0  0  0  0  0
   27.2112   24.6293    8.9031 C   0  0  2  0  0  0  0  0  0  0  0  0
   24.8355   27.2716    8.5538 C   0  0  2  0  0  0  0  0  0  0  0  0
   26.1244   26.8756    8.6805 O   0  0  0  0  0  0  0  0  0  0  0  0
   22.9399   31.2202    3.9232 C   0  0  2  0  0  0  0  0  0  0  0  0
   24.2750   31.7775    4.2366 O   0  0  0  0  0  0  0  0  0  0  0  0
   30.1062   27.0931   10.2118 C   0  0  2  0  0  0  0  0  0  0  0  0
   30.2137   25.8263    9.5133 O   0  0  0  0  0  0  0  0  0  0  0  0
   27.7956   25.2692    7.5987 C   0  0  2  0  0  0  0  0  0  0  0  0
   27.8359   26.6391    7.9178 O   0  0  0  0  0  0  0  0  0  0  0  0
   23.9551   25.9881    8.7842 C   0  0  0  0  0  0  0  0  0  0  0  0
   24.4280   25.2817    9.9746 O   0  0  0  0  0  0  0  0  0  0  0  0
   22.1214   31.0763    5.2829 C   0  0  1  0  0  0  0  0  0  0  0  0
   22.8518   30.0571    6.1321 O   0  0  0  0  0  0  0  0  0  0  0  0
   30.9395   28.1620    9.6298 C   0  0  0  0  0  0  0  0  0  0  0  0
   30.6566   28.3211    8.3298 O   0  0  0  0  0  0  0  0  0  0  0  0
   26.8638   24.9626    6.3497 C   0  0  1  0  0  0  0  0  0  0  0  0
   27.3991   25.5299    5.1930 O   0  0  0  0  0  0  0  0  0  0  0  0
   25.5848   31.1982    7.0921 C   0  0  0  0  0  0  0  0  0  0  0  0
   22.0829   32.5140    5.9029 C   0  0  0  0  0  0  0  0  0  0  0  0
   21.5298   33.4929    5.0116 N   0  0  0  0  0  0  0  0  0  0  0  0
   24.3279   31.3785    7.9446 C   0  0  0  0  0  0  0  0  0  0  0  0
   23.9664   30.0425    8.4570 N   0  0  0  0  0  0  0  0  0  0  0  0
   23.3640   29.9461    9.8603 C   0  0  0  0  0  0  0  0  0  0  0  0
  1  2  1  1  0  0  0
  1  8  1  0  0  0  0
  1 33  1  0  0  0  0
  3  4  1  6  0  0  0
  3 10  1  0  0  0  0
  3 42  1  0  0  0  0
  5 11  1  0  0  0  0
  5 29  1  0  0  0  0
  5 35  1  6  0  0  0
  6 13  1  0  0  0  0
  6 39  1  0  0  0  0
  6 22  1  1  0  0  0
  7 15  1  0  0  0  0
  8  9  1  1  0  0  0
  8 17  1  0  0  0  0
 10 19  1  0  0  0  0
 11 12  1  1  0  0  0
 11 21  1  0  0  0  0
 12 44  1  0  0  0  0
 13 14  1  1  0  0  0
 13 23  1  0  0  0  0
 15 16  1  0  0  0  0
 17 18  1  1  0  0  0
 17 25  1  0  0  0  0
 19 20  1  1  0  0  0
 19 27  1  0  0  0  0
 21 22  1  1  0  0  0
 21 28  1  0  0  0  0
 23 24  1  1  0  0  0
 23 30  1  0  0  0  0
 25 26  1  1  0  0  0
 25 32  1  0  0  0  0
 27  2  1  1  0  0  0
 27 34  1  0  0  0  0
 28 29  1  0  0  0  0
 28 36  1  6  0  0  0
 30 31  1  1  0  0  0
 30 38  1  0  0  0  0
 32 33  1  0  0  0  0
 32 40  1  6  0  0  0
 34 35  1  1  0  0  0
 34 42  1  0  0  0  0
 36 37  1  0  0  0  0
 38 39  1  0  0  0  0
 38 45  1  1  0  0  0
 40 41  1  0  0  0  0
 42 43  1  6  0  0  0
 44 47  1  0  0  0  0
 45 46  1  0  0  0  0
 47 48  1  0  0  0  0
 48 49  1  0  0  0  0
 49  7  1  0  0  0  0
M  END
>  <CHROM.1>
-154.38871003,-77.47855487,74.06933655,90.49694572,-173.19619818,91.89228090
-34.52159836,70.32827590,160.43898569,170.95870578,-86.68899391,55.86437576
-26.47102494,144.96644149,110.83865062,-53.70247253,25.94489924,27.56743276
7.89663592,0.29687919,0.79782234,-2.70416083

>  <Name>
2bee_lig

>  <RI>
0

>  <Rbt.Current_Directory>
/home/itssahil/PROJECTS/Mol_Feturizer/New_Systems/rnas/2bee

>  <Rbt.Executable>
rbdock ($Id: //depot/dev/client3/rdock/2013.1/src/exe/rbdock.cxx#4 $)

>  <Rbt.Library>
libRbt.so (2013.1, Build901 2013/11/27)

>  <Rbt.Parameter_File>
/export/apps/rDock/src/rDock_2013.1_src/data/scripts/dock_solv.prm

>  <Rbt.Receptor>
prm/blind_docking_100.prm

>  <SCORE>
52.1189

>  <SCORE.INTER>
20.9162

>  <SCORE.INTER.CONST>
1

>  <SCORE.INTER.POLAR>
0

>  <SCORE.INTER.ROT>
16

>  <SCORE.INTER.SOLV>
30.291

>  <SCORE.INTER.VDW>
-10.4195

>  <SCORE.INTER.norm>
0.426862

>  <SCORE.INTRA>
5.50434

>  <SCORE.INTRA.DIHEDRAL>
-8.80469

>  <SCORE.INTRA.DIHEDRAL.0>
36.0842

>  <SCORE.INTRA.POLAR>
0

>  <SCORE.INTRA.POLAR.0>
0

>  <SCORE.INTRA.REPUL>
0

>  <SCORE.INTRA.REPUL.0>
0

>  <SCORE.INTRA.SOLV>
14.4621

>  <SCORE.INTRA.SOLV.lig_0>
-126.444

>  <SCORE.INTRA.VDW>
2.67564

>  <SCORE.INTRA.VDW.0>
-7.40469

>  <SCORE.INTRA.norm>
0.112334

>  <SCORE.RESTR>
25.6984

>  <SCORE.RESTR.CAVITY>
25.6984

>  <SCORE.RESTR.norm>
0.524456

>  <SCORE.SYSTEM>
0

>  <SCORE.SYSTEM.CONST>
0

>  <SCORE.SYSTEM.DIHEDRAL>
0

>  <SCORE.SYSTEM.SOLV>
0

>  <SCORE.SYSTEM.norm>
0

>  <SCORE.heavy>
49

>  <SCORE.norm>
1.06365

>  <RMSD>
32.087

$$$$
2bee_lig
 OpenBabel11021811423D
libRbt.so/2013.1/901 2013/11/27
 49 52  0  0  0  0  0  0  0  0999 V2000
   25.4396   32.0654    6.2184 C   0  0  2  0  0  0  0  0  0  0  0  0
   25.1012   31.7941    7.5727 O   0  0  0  0  0  0  0  0  0  0  0  0
   22.8311   28.8147    9.8844 C   0  0  2  0  0  0  0  0  0  0  0  0
   21.7869   27.8074   10.2158 N   0  0  0  0  0  0  0  0  0  0  0  0
   26.5884   28.1908    7.0785 C   0  0  1  0  0  0  0  0  0  0  0  0
   26.5486   23.6160    7.5731 C   0  0  1  0  0  0  0  0  0  0  0  0
   30.4887   25.8008   12.3826 C   0  0  0  0  0  0  0  0  0  0  0  0
   24.5274   33.2184    5.6461 C   0  0  2  0  0  0  0  0  0  0  0  0
   24.6154   34.3969    6.5016 N   0  0  0  0  0  0  0  0  0  0  0  0
   22.1290   30.1825    9.4556 C   0  0  0  0  0  0  0  0  0  0  0  0
   27.4255   27.0447    7.5460 C   0  0  2  0  0  0  0  0  0  0  0  0
   28.8684   27.3406    7.5235 O   0  0  0  0  0  0  0  0  0  0  0  0
   24.9997   23.4232    8.0144 C   0  0  2  0  0  0  0  0  0  0  0  0
   24.4881   24.7443    8.5103 N   0  0  0  0  0  0  0  0  0  0  0  0
   30.7889   27.0833   12.8982 C   0  0  0  0  0  0  0  0  0  0  0  0
   32.1075   27.5324   12.9182 N   0  0  0  0  0  0  0  0  0  0  0  0
   23.0304   32.6929    5.5248 C   0  0  1  0  0  0  0  0  0  0  0  0
   22.2181   33.7354    5.0047 O   0  0  0  0  0  0  0  0  0  0  0  0
   23.2447   31.3130    9.0701 C   0  0  2  0  0  0  0  0  0  0  0  0
   22.6282   32.5400    8.6947 N   0  0  0  0  0  0  0  0  0  0  0  0
   26.8131   26.0029    6.6414 C   0  0  2  0  0  0  0  0  0  0  0  0
   26.5276   24.6582    6.5685 O   0  0  0  0  0  0  0  0  0  0  0  0
   24.9381   22.3406    9.1504 C   0  0  1  0  0  0  0  0  0  0  0  0
   25.4390   21.0801    8.5830 O   0  0  0  0  0  0  0  0  0  0  0  0
   23.0040   31.4504    4.6045 C   0  0  2  0  0  0  0  0  0  0  0  0
   21.6238   30.9171    4.4761 O   0  0  0  0  0  0  0  0  0  0  0  0
   24.1493   30.7905    7.8870 C   0  0  2  0  0  0  0  0  0  0  0  0
   26.5240   26.8286    5.2915 C   0  0  2  0  0  0  0  0  0  0  0  0
   26.1033   28.0207    5.7773 O   0  0  0  0  0  0  0  0  0  0  0  0
   25.8482   22.8354   10.4114 C   0  0  2  0  0  0  0  0  0  0  0  0
   25.3360   24.1060   10.9724 O   0  0  0  0  0  0  0  0  0  0  0  0
   23.9168   30.3164    5.1796 C   0  0  2  0  0  0  0  0  0  0  0  0
   25.2368   30.9085    5.2863 O   0  0  0  0  0  0  0  0  0  0  0  0
   24.8095   29.4503    8.3566 C   0  0  2  0  0  0  0  0  0  0  0  0
   25.6008   29.0912    7.2499 O   0  0  0  0  0  0  0  0  0  0  0  0
   25.3816   26.3119    4.3409 C   0  0  0  0  0  0  0  0  0  0  0  0
   25.5763   24.8864    4.0774 O   0  0  0  0  0  0  0  0  0  0  0  0
   27.3547   23.0613    9.9438 C   0  0  1  0  0  0  0  0  0  0  0  0
   27.3205   24.0742    8.8185 O   0  0  0  0  0  0  0  0  0  0  0  0
   23.8494   29.1884    4.2316 C   0  0  0  0  0  0  0  0  0  0  0  0
   23.8244   29.6380    2.9696 O   0  0  0  0  0  0  0  0  0  0  0  0
   23.7041   28.3608    8.6933 C   0  0  1  0  0  0  0  0  0  0  0  0
   24.3038   27.1751    9.1187 O   0  0  0  0  0  0  0  0  0  0  0  0
   29.9223   26.4633    8.0589 C   0  0  0  0  0  0  0  0  0  0  0  0
   28.1207   23.5499   11.2196 C   0  0  0  0  0  0  0  0  0  0  0  0
   29.5455   23.4375   11.0938 N   0  0  0  0  0  0  0  0  0  0  0  0
   29.9851   26.6199    9.5789 C   0  0  0  0  0  0  0  0  0  0  0  0
   31.3190   26.1493   10.0001 N   0  0  0  0  0  0  0  0  0  0  0  0
   31.4070   25.2181   11.2112 C   0  0  0  0  0  0  0  0  0  0  0  0
  1  2  1  1  0  0  0
  1  8  1  0  0  0  0
  1 33  1  0  0  0  0
  3  4  1  6  0  0  0
  3 10  1  0  0  0  0
  3 42  1  0  0  0  0
  5 11  1  0  0  0  0
  5 29  1  0  0  0  0
  5 35  1  1  0  0  0
  6 13  1  0  0  0  0
  6 39  1  0  0  0  0
  6 22  1  6  0  0  0
  7 15  1  0  0  0  0
  8  9  1  1  0  0  0
  8 17  1  0  0  0  0
 10 19  1  0  0  0  0
 11 12  1  6  0  0  0
 11 21  1  0  0  0  0
 12 44  1  0  0  0  0
 13 14  1  1  0  0  0
 13 23  1  0  0  0  0
 15 16  1  0  0  0  0
 17 18  1  6  0  0  0
 17 25  1  0  0  0  0
 19 20  1  6  0  0  0
 19 27  1  0  0  0  0
 21 22  1  6  0  0  0
 21 28  1  0  0  0  0
 23 24  1  6  0  0  0
 23 30  1  0  0  0  0
 25 26  1  1  0  0  0
 25 32  1  0  0  0  0
 27  2  1  1  0  0  0
 27 34  1  0  0  0  0
 28 29  1  0  0  0  0
 28 36  1  6  0  0  0
 30 31  1  6  0  0  0
 30 38  1  0  0  0  0
 32 33  1  0  0  0  0
 32 40  1  6  0  0  0
 34 35  1  6  0  0  0
 34 42  1  0  0  0  0
 36 37  1  0  0  0  0
 38 39  1  0  0  0  0
 38 45  1  1  0  0  0
 40 41  1  0  0  0  0
 42 43  1  1  0  0  0
 44 47  1  0  0  0  0
 45 46  1  0  0  0  0
 47 48  1  0  0  0  0
 48 49  1  0  0  0  0
 49  7  1  0  0  0  0
M  END
>  <CHROM.1>
92.39753181,8.73953292,100.11758397,-31.12169898,173.15008553,-79.22188686
11.78682087,-140.01859587,-50.59972850,38.46000457,166.39556546,163.13769152
-159.33526315,-134.39945804,-45.94539149,-60.80473878,25.86113764,27.67005097
7.88192503,-2.32544306,0.71203419,-3.12867246

>  <Name>
2bee_lig

>  <RI>
0

>  <Rbt.Current_Directory>
/home/itssahil/PROJECTS/Mol_Feturizer/New_Systems/rnas/2bee

>  <Rbt.Executable>
rbdock ($Id: //depot/dev/client3/rdock/2013.1/src/exe/rbdock.cxx#4 $)

>  <Rbt.Library>
libRbt.so (2013.1, Build901 2013/11/27)

>  <Rbt.Parameter_File>
/export/apps/rDock/src/rDock_2013.1_src/data/scripts/dock_solv.prm

>  <Rbt.Receptor>
prm/blind_docking_100.prm

>  <SCORE>
40.7876

>  <SCORE.INTER>
3.72543

>  <SCORE.INTER.CONST>
1

>  <SCORE.INTER.POLAR>
-0.0149645

>  <SCORE.INTER.ROT>
16

>  <SCORE.INTER.SOLV>
28.2842

>  <SCORE.INTER.VDW>
-21.1612

>  <SCORE.INTER.norm>
0.0760291

>  <SCORE.INTRA>
13.4836

>  <SCORE.INTRA.DIHEDRAL>
-1.47519

>  <SCORE.INTRA.DIHEDRAL.0>
36.0842

>  <SCORE.INTRA.POLAR>
0

>  <SCORE.INTRA.POLAR.0>
0

>  <SCORE.INTRA.REPUL>
0.914068

>  <SCORE.INTRA.REPUL.0>
0

>  <SCORE.INTRA.SOLV>
10.0635

>  <SCORE.INTRA.SOLV.lig_0>
-126.444

>  <SCORE.INTRA.VDW>
4.61906

>  <SCORE.INTRA.VDW.0>
-7.40469

>  <SCORE.INTRA.norm>
0.275175

>  <SCORE.RESTR>
23.5787

>  <SCORE.RESTR.CAVITY>
23.5787

>  <SCORE.RESTR.norm>
0.481197

>  <SCORE.SYSTEM>
0

>  <SCORE.SYSTEM.CONST>
0

>  <SCORE.SYSTEM.DIHEDRAL>
0

>  <SCORE.SYSTEM.SOLV>
0

>  <SCORE.SYSTEM.norm>
0

>  <SCORE.heavy>
49

>  <SCORE.norm>
0.832401

>  <RMSD>
32.131

$$$$
2bee_lig
 OpenBabel11021811423D
libRbt.so/2013.1/901 2013/11/27
 49 52  0  0  0  0  0  0  0  0999 V2000
   28.5381   23.9409    9.0542 C   0  0  2  0  0  0  0  0  0  0  0  0
   27.2941   24.5608    8.7539 O   0  0  0  0  0  0  0  0  0  0  0  0
   26.4029   22.7475    4.8434 C   0  0  2  0  0  0  0  0  0  0  0  0
   25.6452   22.3836    3.6153 N   0  0  0  0  0  0  0  0  0  0  0  0
   26.8556   26.9897    7.0053 C   0  0  1  0  0  0  0  0  0  0  0  0
   24.5674   31.0857    6.0500 C   0  0  1  0  0  0  0  0  0  0  0  0
   21.3397   31.1137    9.0084 C   0  0  0  0  0  0  0  0  0  0  0  0
   28.6958   23.7556   10.6130 C   0  0  2  0  0  0  0  0  0  0  0  0
   27.5521   23.0247   11.1480 N   0  0  0  0  0  0  0  0  0  0  0  0
   25.5730   22.2961    6.1300 C   0  0  0  0  0  0  0  0  0  0  0  0
   26.6373   28.3981    7.4540 C   0  0  2  0  0  0  0  0  0  0  0  0
   26.3263   28.5016    8.8903 O   0  0  0  0  0  0  0  0  0  0  0  0
   23.4278   31.3835    4.9348 C   0  0  2  0  0  0  0  0  0  0  0  0
   24.0901   31.4147    3.5881 N   0  0  0  0  0  0  0  0  0  0  0  0
   21.0651   32.3898    9.5534 C   0  0  0  0  0  0  0  0  0  0  0  0
   21.8296   33.4887    9.1677 N   0  0  0  0  0  0  0  0  0  0  0  0
   28.8518   25.1829   11.2988 C   0  0  1  0  0  0  0  0  0  0  0  0
   28.9978   25.0059   12.7004 O   0  0  0  0  0  0  0  0  0  0  0  0
   26.3675   22.6911    7.5026 C   0  0  2  0  0  0  0  0  0  0  0  0
   25.6392   22.2843    8.6560 N   0  0  0  0  0  0  0  0  0  0  0  0
   25.6272   28.7631    6.3933 C   0  0  2  0  0  0  0  0  0  0  0  0
   25.1635   29.8274    5.6534 O   0  0  0  0  0  0  0  0  0  0  0  0
   22.7640   32.7688    5.2608 C   0  0  1  0  0  0  0  0  0  0  0  0
   22.1283   32.6509    6.5812 O   0  0  0  0  0  0  0  0  0  0  0  0
   30.0799   25.9025   10.6944 C   0  0  2  0  0  0  0  0  0  0  0  0
   30.2533   27.2487   11.2972 O   0  0  0  0  0  0  0  0  0  0  0  0
   26.6097   24.2500    7.5510 C   0  0  2  0  0  0  0  0  0  0  0  0
   24.7928   27.3999    6.2117 C   0  0  2  0  0  0  0  0  0  0  0  0
   25.7652   26.4620    6.3052 O   0  0  0  0  0  0  0  0  0  0  0  0
   23.9120   33.9288    5.2481 C   0  0  2  0  0  0  0  0  0  0  0  0
   24.5464   34.0364    3.9149 O   0  0  0  0  0  0  0  0  0  0  0  0
   29.9143   26.0749    9.1475 C   0  0  2  0  0  0  0  0  0  0  0  0
   29.7408   24.7303    8.6316 O   0  0  0  0  0  0  0  0  0  0  0  0
   27.4217   24.6396    6.2699 C   0  0  2  0  0  0  0  0  0  0  0  0
   27.5990   26.0266    6.4263 O   0  0  0  0  0  0  0  0  0  0  0  0
   24.0732   27.1533    4.8344 C   0  0  0  0  0  0  0  0  0  0  0  0
   23.2459   28.3134    4.5037 O   0  0  0  0  0  0  0  0  0  0  0  0
   25.0426   33.5916    6.3192 C   0  0  1  0  0  0  0  0  0  0  0  0
   25.5924   32.2255    5.9655 O   0  0  0  0  0  0  0  0  0  0  0  0
   31.1338   26.7440    8.6569 C   0  0  0  0  0  0  0  0  0  0  0  0
   31.0281   28.0723    8.7971 O   0  0  0  0  0  0  0  0  0  0  0  0
   26.6130   24.2742    4.9527 C   0  0  1  0  0  0  0  0  0  0  0  0
   27.3498   24.6176    3.8189 O   0  0  0  0  0  0  0  0  0  0  0  0
   25.1211   29.1317    9.4535 C   0  0  0  0  0  0  0  0  0  0  0  0
   26.0894   34.7508    6.2026 C   0  0  0  0  0  0  0  0  0  0  0  0
   26.6777   35.1020    7.4632 N   0  0  0  0  0  0  0  0  0  0  0  0
   23.9052   28.2545    9.1513 C   0  0  0  0  0  0  0  0  0  0  0  0
   22.8811   29.1366    8.5588 N   0  0  0  0  0  0  0  0  0  0  0  0
   22.8546   30.6043    8.9909 C   0  0  0  0  0  0  0  0  0  0  0  0
  1  2  1  1  0  0  0
  1  8  1  0  0  0  0
  1 33  1  0  0  0  0
  3  4  1  6  0  0  0
  3 10  1  0  0  0  0
  3 42  1  0  0  0  0
  5 11  1  0  0  0  0
  5 29  1  0  0  0  0
  5 35  1  6  0  0  0
  6 13  1  0  0  0  0
  6 39  1  0  0  0  0
  6 22  1  6  0  0  0
  7 15  1  0  0  0  0
  8  9  1  1  0  0  0
  8 17  1  0  0  0  0
 10 19  1  0  0  0  0
 11 12  1  1  0  0  0
 11 21  1  0  0  0  0
 12 44  1  0  0  0  0
 13 14  1  6  0  0  0
 13 23  1  0  0  0  0
 15 16  1  0  0  0  0
 17 18  1  1  0  0  0
 17 25  1  0  0  0  0
 19 20  1  1  0  0  0
 19 27  1  0  0  0  0
 21 22  1  1  0  0  0
 21 28  1  0  0  0  0
 23 24  1  1  0  0  0
 23 30  1  0  0  0  0
 25 26  1  1  0  0  0
 25 32  1  0  0  0  0
 27  2  1  1  0  0  0
 27 34  1  0  0  0  0
 28 29  1  0  0  0  0
 28 36  1  6  0  0  0
 30 31  1  6  0  0  0
 30 38  1  0  0  0  0
 32 33  1  0  0  0  0
 32 40  1  6  0  0  0
 34 35  1  1  0  0  0
 34 42  1  0  0  0  0
 36 37  1  0  0  0  0
 38 39  1  0  0  0  0
 38 45  1  6  0  0  0
 40 41  1  0  0  0  0
 42 43  1  6  0  0  0
 44 47  1  0  0  0  0
 45 46  1  0  0  0  0
 47 48  1  0  0  0  0
 48 49  1  0  0  0  0
 49  7  1  0  0  0  0
M  END
>  <CHROM.1>
-147.82464936,174.76113474,-142.78433586,48.14578731,-123.30854737,70.69963472
-59.77440461,56.64686218,-52.34207057,-84.38520016,-31.17275394,144.83944599
-129.52652345,-30.40283988,-145.89359659,171.54509542,26.01067752,27.96736299
7.41418655,-0.75930145,-0.88661896,0.43648303

>  <Name>
2bee_lig

>  <RI>
0

>  <Rbt.Current_Directory>
/home/itssahil/PROJECTS/Mol_Feturizer/New_Systems/rnas/2bee

>  <Rbt.Executable>
rbdock ($Id: //depot/dev/client3/rdock/2013.1/src/exe/rbdock.cxx#4 $)

>  <Rbt.Library>
libRbt.so (2013.1, Build901 2013/11/27)

>  <Rbt.Parameter_File>
/export/apps/rDock/src/rDock_2013.1_src/data/scripts/dock_solv.prm

>  <Rbt.Receptor>
prm/blind_docking_100.prm

>  <SCORE>
45.6469

>  <SCORE.INTER>
6.67881

>  <SCORE.INTER.CONST>
1

>  <SCORE.INTER.POLAR>
-1.63176

>  <SCORE.INTER.ROT>
16

>  <SCORE.INTER.SOLV>
30.529

>  <SCORE.INTER.VDW>
-14.5512

>  <SCORE.INTER.norm>
0.136302

>  <SCORE.INTRA>
10.6631

>  <SCORE.INTRA.DIHEDRAL>
2.34167

>  <SCORE.INTRA.DIHEDRAL.0>
36.0842

>  <SCORE.INTRA.POLAR>
0

>  <SCORE.INTRA.POLAR.0>
0

>  <SCORE.INTRA.REPUL>
0.006986

>  <SCORE.INTRA.REPUL.0>
0

>  <SCORE.INTRA.SOLV>
3.81581

>  <SCORE.INTRA.SOLV.lig_0>
-126.444

>  <SCORE.INTRA.VDW>
7.54944

>  <SCORE.INTRA.VDW.0>
-7.40469

>  <SCORE.INTRA.norm>
0.217614

>  <SCORE.RESTR>
28.305

>  <SCORE.RESTR.CAVITY>
28.305

>  <SCORE.RESTR.norm>
0.577652

>  <SCORE.SYSTEM>
0

>  <SCORE.SYSTEM.CONST>
0

>  <SCORE.SYSTEM.DIHEDRAL>
0

>  <SCORE.SYSTEM.SOLV>
0

>  <SCORE.SYSTEM.norm>
0

>  <SCORE.heavy>
49

>  <SCORE.norm>
0.931569

>  <RMSD>
32.143

$$$$
2bee_lig
 OpenBabel11021811423D
libRbt.so/2013.1/901 2013/11/27
 49 52  0  0  0  0  0  0  0  0999 V2000
   29.1390   24.6381    9.8565 C   0  0  2  0  0  0  0  0  0  0  0  0
   27.7602   24.9860    9.8564 O   0  0  0  0  0  0  0  0  0  0  0  0
   26.6347   23.8625    5.7521 C   0  0  2  0  0  0  0  0  0  0  0  0
   25.7830   23.6282    4.5544 N   0  0  0  0  0  0  0  0  0  0  0  0
   26.5589   27.7827    8.1802 C   0  0  1  0  0  0  0  0  0  0  0  0
   25.0582   32.2653    7.3377 C   0  0  1  0  0  0  0  0  0  0  0  0
   23.8937   26.5233    5.4013 C   0  0  0  0  0  0  0  0  0  0  0  0
   29.6419   24.3917   11.3313 C   0  0  2  0  0  0  0  0  0  0  0  0
   28.8031   23.3931   11.9854 N   0  0  0  0  0  0  0  0  0  0  0  0
   26.0530   23.0322    6.9850 C   0  0  0  0  0  0  0  0  0  0  0  0
   26.0420   29.0159    8.8471 C   0  0  2  0  0  0  0  0  0  0  0  0
   24.8990   28.7509    9.7380 O   0  0  0  0  0  0  0  0  0  0  0  0
   23.5673   31.6269    7.3660 C   0  0  2  0  0  0  0  0  0  0  0  0
   23.3478   30.8970    6.0729 N   0  0  0  0  0  0  0  0  0  0  0  0
   22.8449   27.0297    4.5986 C   0  0  0  0  0  0  0  0  0  0  0  0
   22.9410   28.3096    4.0570 N   0  0  0  0  0  0  0  0  0  0  0  0
   29.6381   25.7708   12.1252 C   0  0  1  0  0  0  0  0  0  0  0  0
   30.0964   25.5400   13.4495 O   0  0  0  0  0  0  0  0  0  0  0  0
   26.9552   23.2740    8.3264 C   0  0  2  0  0  0  0  0  0  0  0  0
   26.4495   22.5302    9.4297 N   0  0  0  0  0  0  0  0  0  0  0  0
   25.8976   29.8434    7.5929 C   0  0  2  0  0  0  0  0  0  0  0  0
   25.9464   31.1403    7.1340 O   0  0  0  0  0  0  0  0  0  0  0  0
   22.5300   32.7946    7.5291 C   0  0  1  0  0  0  0  0  0  0  0  0
   22.8012   33.4456    8.8192 O   0  0  0  0  0  0  0  0  0  0  0  0
   30.5460   26.7815   11.3866 C   0  0  2  0  0  0  0  0  0  0  0  0
   30.5587   28.0909   12.0875 O   0  0  0  0  0  0  0  0  0  0  0  0
   26.9761   24.8103    8.6875 C   0  0  2  0  0  0  0  0  0  0  0  0
   25.4242   28.7590    6.5031 C   0  0  2  0  0  0  0  0  0  0  0  0
   26.1694   27.6797    6.8404 O   0  0  0  0  0  0  0  0  0  0  0  0
   22.6966   33.8363    6.2838 C   0  0  2  0  0  0  0  0  0  0  0  0
   22.4237   33.1693    4.9907 O   0  0  0  0  0  0  0  0  0  0  0  0
   30.0405   27.0129    9.9234 C   0  0  2  0  0  0  0  0  0  0  0  0
   30.0449   25.6995    9.3076 O   0  0  0  0  0  0  0  0  0  0  0  0
   27.5498   25.5767    7.4481 C   0  0  2  0  0  0  0  0  0  0  0  0
   27.5458   26.9148    7.8833 O   0  0  0  0  0  0  0  0  0  0  0  0
   25.7329   29.0521    4.9883 C   0  0  0  0  0  0  0  0  0  0  0  0
   25.2283   30.3794    4.6375 O   0  0  0  0  0  0  0  0  0  0  0  0
   24.1806   34.4155    6.2495 C   0  0  1  0  0  0  0  0  0  0  0  0
   25.1155   33.2287    6.1439 O   0  0  0  0  0  0  0  0  0  0  0  0
   30.9734   27.9652    9.2922 C   0  0  0  0  0  0  0  0  0  0  0  0
   30.4193   28.5102    8.2008 O   0  0  0  0  0  0  0  0  0  0  0  0
   26.6367   25.3503    6.1685 C   0  0  1  0  0  0  0  0  0  0  0  0
   27.1624   26.0303    5.0697 O   0  0  0  0  0  0  0  0  0  0  0  0
   23.7862   27.8346    9.4396 C   0  0  0  0  0  0  0  0  0  0  0  0
   24.2269   35.3767    5.0138 C   0  0  0  0  0  0  0  0  0  0  0  0
   23.9755   34.7035    3.7719 N   0  0  0  0  0  0  0  0  0  0  0  0
   23.1142   28.2652    8.1350 C   0  0  0  0  0  0  0  0  0  0  0  0
   22.5690   27.0425    7.5137 N   0  0  0  0  0  0  0  0  0  0  0  0
   23.5518   26.0499    6.8892 C   0  0  0  0  0  0  0  0  0  0  0  0
  1  2  1  1  0  0  0
  1  8  1  0  0  0  0
  1 33  1  0  0  0  0
  3  4  1  6  0  0  0
  3 10  1  0  0  0  0
  3 42  1  0  0  0  0
  5 11  1  0  0  0  0
  5 29  1  0  0  0  0
  5 35  1  6  0  0  0
  6 13  1  0  0  0  0
  6 39  1  0  0  0  0
  6 22  1  6  0  0  0
  7 15  1  0  0  0  0
  8  9  1  1  0  0  0
  8 17  1  0  0  0  0
 10 19  1  0  0  0  0
 11 12  1  6  0  0  0
 11 21  1  0  0  0  0
 12 44  1  0  0  0  0
 13 14  1  6  0  0  0
 13 23  1  0  0  0  0
 15 16  1  0  0  0  0
 17 18  1  1  0  0  0
 17 25  1  0  0  0  0
 19 20  1  1  0  0  0
 19 27  1  0  0  0  0
 21 22  1  1  0  0  0
 21 28  1  0  0  0  0
 23 24  1  1  0  0  0
 23 30  1  0  0  0  0
 25 26  1  1  0  0  0
 25 32  1  0  0  0  0
 27  2  1  1  0  0  0
 27 34  1  0  0  0  0
 28 29  1  0  0  0  0
 28 36  1  6  0  0  0
 30 31  1  6  0  0  0
 30 38  1  0  0  0  0
 32 33  1  0  0  0  0
 32 40  1  6  0  0  0
 34 35  1  1  0  0  0
 34 42  1  0  0  0  0
 36 37  1  0  0  0  0
 38 39  1  0  0  0  0
 38 45  1  6  0  0  0
 40 41  1  0  0  0  0
 42 43  1  6  0  0  0
 44 47  1  0  0  0  0
 45 46  1  0  0  0  0
 47 48  1  0  0  0  0
 48 49  1  0  0  0  0
 49  7  1  0  0  0  0
M  END
>  <CHROM.1>
-158.29354830,159.47259825,-36.31468298,122.67015796,-41.11469026,-57.41984903
-70.06746298,61.91411587,-52.81797499,-162.19112439,-67.09414092,-61.79292932
150.29622696,-72.58456621,-84.08185614,-40.59122198,26.13736166,28.13419661
7.74080619,-0.74674040,-0.78348680,0.15461475

>  <Name>
2bee_lig

>  <RI>
0

>  <Rbt.Current_Directory>
/home/itssahil/PROJECTS/Mol_Feturizer/New_Systems/rnas/2bee

>  <Rbt.Executable>
rbdock ($Id: //depot/dev/client3/rdock/2013.1/src/exe/rbdock.cxx#4 $)

>  <Rbt.Library>
libRbt.so (2013.1, Build901 2013/11/27)

>  <Rbt.Parameter_File>
/export/apps/rDock/src/rDock_2013.1_src/data/scripts/dock_solv.prm

>  <Rbt.Receptor>
prm/blind_docking_100.prm

>  <SCORE>
37.7786

>  <SCORE.INTER>
5.61683

>  <SCORE.INTER.CONST>
1

>  <SCORE.INTER.POLAR>
-0.812706

>  <SCORE.INTER.ROT>
16

>  <SCORE.INTER.SOLV>
32.4212

>  <SCORE.INTER.VDW>
-18.6202

>  <SCORE.INTER.norm>
0.114629

>  <SCORE.INTRA>
7.48308

>  <SCORE.INTRA.DIHEDRAL>
-11.2794

>  <SCORE.INTRA.DIHEDRAL.0>
36.0842

>  <SCORE.INTRA.POLAR>
0

>  <SCORE.INTRA.POLAR.0>
0

>  <SCORE.INTRA.REPUL>
0.00909747

>  <SCORE.INTRA.REPUL.0>
0

>  <SCORE.INTRA.SOLV>
13.1375

>  <SCORE.INTRA.SOLV.lig_0>
-126.444

>  <SCORE.INTRA.VDW>
6.50852

>  <SCORE.INTRA.VDW.0>
-7.40469

>  <SCORE.INTRA.norm>
0.152716

>  <SCORE.RESTR>
24.6787

>  <SCORE.RESTR.CAVITY>
24.6787

>  <SCORE.RESTR.norm>
0.503647

>  <SCORE.SYSTEM>
0

>  <SCORE.SYSTEM.CONST>
0

>  <SCORE.SYSTEM.DIHEDRAL>
0

>  <SCORE.SYSTEM.SOLV>
0

>  <SCORE.SYSTEM.norm>
0

>  <SCORE.heavy>
49

>  <SCORE.norm>
0.770992

>  <RMSD>
32.144

$$$$
