ligand
 OpenBabel11021811493D
libRbt.so/2013.1/901 2013/11/27
 31 33  0  0  0  0  0  0  0  0999 V2000
   -6.9523  -10.0799  -17.5145 C   0  0  2  0  0  0  0  0  0  0  0  0
   -5.5753  -10.4344  -17.7004 O   0  0  0  0  0  0  0  0  0  0  0  0
   -1.9854  -10.3751  -15.3695 C   0  0  2  0  0  0  0  0  0  0  0  0
   -0.9153   -9.8936  -14.5503 N   0  0  0  0  0  0  0  0  0  0  0  0
   -2.9580  -10.3264  -12.1188 C   0  0  2  0  0  0  0  0  0  0  0  0
   -7.7926  -11.1407  -18.3086 C   0  0  2  0  0  0  0  0  0  0  0  0
   -7.4833  -12.4799  -17.8200 N   0  0  0  0  0  0  0  0  0  0  0  0
   -1.9841   -9.5780  -16.7306 C   0  0  0  0  0  0  0  0  0  0  0  0
   -2.1260  -11.4346  -11.4026 C   0  0  2  0  0  0  0  0  0  0  0  0
   -0.9849  -11.7352  -12.1877 O   0  0  0  0  0  0  0  0  0  0  0  0
   -7.4825  -11.0241  -19.8416 C   0  0  0  0  0  0  0  0  0  0  0  0
   -3.1682  -10.1192  -17.6429 C   0  0  2  0  0  0  0  0  0  0  0  0
   -3.1778   -9.3760  -18.9246 N   0  0  0  0  0  0  0  0  0  0  0  0
   -3.0703  -12.7088  -11.2582 C   0  0  1  0  0  0  0  0  0  0  0  0
   -2.3337  -13.8431  -10.6041 N   0  0  0  0  0  0  0  0  0  0  0  0
   -7.5348   -9.5398  -20.3061 C   0  0  0  0  0  0  0  0  0  0  0  0
   -4.5554   -9.9282  -16.8827 C   0  0  2  0  0  0  0  0  0  0  0  0
   -4.3635  -12.3156  -10.3493 C   0  0  1  0  0  0  0  0  0  0  0  0
   -3.9929  -11.8956   -9.0504 O   0  0  0  0  0  0  0  0  0  0  0  0
   -7.4217   -8.5354  -19.4240 C   0  0  2  0  0  0  0  0  0  0  0  0
   -7.2509   -8.7405  -18.0106 O   0  0  0  0  0  0  0  0  0  0  0  0
   -4.5113  -10.7173  -15.5076 C   0  0  2  0  0  0  0  0  0  0  0  0
   -5.7453  -10.5333  -14.8025 O   0  0  0  0  0  0  0  0  0  0  0  0
   -5.1338  -11.1344  -11.0303 C   0  0  0  0  0  0  0  0  0  0  0  0
   -4.1780   -9.9850  -11.3025 O   0  0  0  0  0  0  0  0  0  0  0  0
   -7.4739   -7.0542  -19.8656 C   0  0  0  0  0  0  0  0  0  0  0  0
   -6.2666   -6.7257  -20.6105 N   0  0  0  0  0  0  0  0  0  0  0  0
   -3.3350  -10.1724  -14.6193 C   0  0  1  0  0  0  0  0  0  0  0  0
   -3.3251  -10.8986  -13.4137 O   0  0  0  0  0  0  0  0  0  0  0  0
   -5.3831  -13.4428  -10.1164 C   0  0  0  0  0  0  0  0  0  0  0  0
   -1.5461  -14.7139  -11.4972 C   0  0  0  0  0  0  0  0  0  0  0  0
  1  2  1  6  0  0  0
  1  6  1  0  0  0  0
  1 21  1  0  0  0  0
  3  4  1  1  0  0  0
  3  8  1  0  0  0  0
  3 28  1  0  0  0  0
  5  9  1  0  0  0  0
  5 25  1  0  0  0  0
  5 29  1  6  0  0  0
  6  7  1  1  0  0  0
  6 11  1  0  0  0  0
  8 12  1  0  0  0  0
  9 10  1  6  0  0  0
  9 14  1  0  0  0  0
 11 16  1  0  0  0  0
 12 13  1  6  0  0  0
 12 17  1  0  0  0  0
 14 15  1  1  0  0  0
 14 18  1  0  0  0  0
 15 31  1  0  0  0  0
 16 20  1  0  0  0  0
 17  2  1  6  0  0  0
 17 22  1  0  0  0  0
 18 19  1  1  0  0  0
 18 24  1  0  0  0  0
 18 30  1  0  0  0  0
 20 21  1  0  0  0  0
 20 26  1  1  0  0  0
 22 23  1  1  0  0  0
 22 28  1  0  0  0  0
 24 25  1  0  0  0  0
 26 27  1  0  0  0  0
 28 29  1  1  0  0  0
M  END
>  <CHROM.1>
-163.67689958,-140.42893294,-86.18724624,-161.30266510,-70.04481465,95.18037950
-4.51394780,-10.68386729,-15.07231828,1.97076803,-0.19595100,-1.12941823

>  <Name>
ligand

>  <RI>
0

>  <Rbt.Current_Directory>
/home/itssahil/PROJECTS/Mol_Feturizer/New_Systems/rnas/4F8U

>  <Rbt.Executable>
rbdock ($Id: //depot/dev/client3/rdock/2013.1/src/exe/rbdock.cxx#4 $)

>  <Rbt.Library>
libRbt.so (2013.1, Build901 2013/11/27)

>  <Rbt.Parameter_File>
/export/apps/rDock/src/rDock_2013.1_src/data/scripts/dock_solv.prm

>  <Rbt.Receptor>
prm/pocket_docking_2.prm

>  <SCORE>
-16.7051

>  <SCORE.INTER>
-15.7898

>  <SCORE.INTER.CONST>
1

>  <SCORE.INTER.POLAR>
0

>  <SCORE.INTER.ROT>
6

>  <SCORE.INTER.SOLV>
21.5009

>  <SCORE.INTER.VDW>
-25.2935

>  <SCORE.INTER.norm>
-0.50935

>  <SCORE.INTRA>
-0.915451

>  <SCORE.INTRA.DIHEDRAL>
-2.09788

>  <SCORE.INTRA.DIHEDRAL.0>
18.77

>  <SCORE.INTRA.POLAR>
0

>  <SCORE.INTRA.POLAR.0>
0

>  <SCORE.INTRA.REPUL>
0

>  <SCORE.INTRA.REPUL.0>
0

>  <SCORE.INTRA.SOLV>
-0.75678

>  <SCORE.INTRA.SOLV.lig_0>
-77.2465

>  <SCORE.INTRA.VDW>
0.511881

>  <SCORE.INTRA.VDW.0>
-4.16072

>  <SCORE.INTRA.norm>
-0.0295307

>  <SCORE.RESTR>
0.000170606

>  <SCORE.RESTR.CAVITY>
0.000170606

>  <SCORE.RESTR.norm>
5.50341e-06

>  <SCORE.SYSTEM>
0

>  <SCORE.SYSTEM.CONST>
0

>  <SCORE.SYSTEM.DIHEDRAL>
0

>  <SCORE.SYSTEM.SOLV>
0

>  <SCORE.SYSTEM.norm>
0

>  <SCORE.heavy>
31

>  <SCORE.norm>
-0.538875

>  <RMSD>
0.415

$$$$
ligand
 OpenBabel11021811493D
libRbt.so/2013.1/901 2013/11/27
 31 33  0  0  0  0  0  0  0  0999 V2000
   -6.9668  -10.0971  -17.5201 C   0  0  2  0  0  0  0  0  0  0  0  0
   -5.5851  -10.4302  -17.7114 O   0  0  0  0  0  0  0  0  0  0  0  0
   -2.0098  -10.3617  -15.3585 C   0  0  2  0  0  0  0  0  0  0  0  0
   -0.9462   -9.8775  -14.5325 N   0  0  0  0  0  0  0  0  0  0  0  0
   -2.9825  -10.3225  -12.1171 C   0  0  2  0  0  0  0  0  0  0  0  0
   -7.7928  -11.1557  -18.3319 C   0  0  2  0  0  0  0  0  0  0  0  0
   -7.4659  -12.4986  -17.8654 N   0  0  0  0  0  0  0  0  0  0  0  0
   -2.0024   -9.5640  -16.7193 C   0  0  0  0  0  0  0  0  0  0  0  0
   -2.1398  -11.4312  -11.4142 C   0  0  2  0  0  0  0  0  0  0  0  0
   -1.0053  -11.7240  -12.2116 O   0  0  0  0  0  0  0  0  0  0  0  0
   -7.4842  -11.0097  -19.8627 C   0  0  0  0  0  0  0  0  0  0  0  0
   -3.1793  -10.1082  -17.6390 C   0  0  2  0  0  0  0  0  0  0  0  0
   -3.1832   -9.3645  -18.9205 N   0  0  0  0  0  0  0  0  0  0  0  0
   -3.0783  -12.7093  -11.2669 C   0  0  1  0  0  0  0  0  0  0  0  0
   -2.3315  -13.8441  -10.6253 N   0  0  0  0  0  0  0  0  0  0  0  0
   -7.5562   -9.5188  -20.3025 C   0  0  0  0  0  0  0  0  0  0  0  0
   -4.5718   -9.9215  -16.8873 C   0  0  2  0  0  0  0  0  0  0  0  0
   -4.3641  -12.3251  -10.3438 C   0  0  1  0  0  0  0  0  0  0  0  0
   -3.9825  -11.9099   -9.0465 O   0  0  0  0  0  0  0  0  0  0  0  0
   -7.4565   -8.5277  -19.4039 C   0  0  2  0  0  0  0  0  0  0  0  0
   -7.2831   -8.7538  -17.9941 O   0  0  0  0  0  0  0  0  0  0  0  0
   -4.5338  -10.7110  -15.5123 C   0  0  2  0  0  0  0  0  0  0  0  0
   -5.7727  -10.5308  -14.8147 O   0  0  0  0  0  0  0  0  0  0  0  0
   -5.1449  -11.1434  -11.0117 C   0  0  0  0  0  0  0  0  0  0  0  0
   -4.1959   -9.9893  -11.2876 O   0  0  0  0  0  0  0  0  0  0  0  0
   -7.5283   -7.0402  -19.8209 C   0  0  0  0  0  0  0  0  0  0  0  0
   -6.2534   -6.6337  -20.3952 N   0  0  0  0  0  0  0  0  0  0  0  0
   -3.3646  -10.1631  -14.6165 C   0  0  1  0  0  0  0  0  0  0  0  0
   -3.3600  -10.8898  -13.4112 O   0  0  0  0  0  0  0  0  0  0  0  0
   -5.3775  -13.4569  -10.1066 C   0  0  0  0  0  0  0  0  0  0  0  0
   -1.5242  -14.6888  -11.5259 C   0  0  0  0  0  0  0  0  0  0  0  0
  1  2  1  6  0  0  0
  1  6  1  0  0  0  0
  1 21  1  0  0  0  0
  3  4  1  1  0  0  0
  3  8  1  0  0  0  0
  3 28  1  0  0  0  0
  5  9  1  0  0  0  0
  5 25  1  0  0  0  0
  5 29  1  6  0  0  0
  6  7  1  1  0  0  0
  6 11  1  0  0  0  0
  8 12  1  0  0  0  0
  9 10  1  6  0  0  0
  9 14  1  0  0  0  0
 11 16  1  0  0  0  0
 12 13  1  6  0  0  0
 12 17  1  0  0  0  0
 14 15  1  1  0  0  0
 14 18  1  0  0  0  0
 15 31  1  0  0  0  0
 16 20  1  0  0  0  0
 17  2  1  6  0  0  0
 17 22  1  0  0  0  0
 18 19  1  1  0  0  0
 18 24  1  0  0  0  0
 18 30  1  0  0  0  0
 20 21  1  0  0  0  0
 20 26  1  1  0  0  0
 22 23  1  1  0  0  0
 22 28  1  0  0  0  0
 24 25  1  0  0  0  0
 26 27  1  0  0  0  0
 28 29  1  1  0  0  0
M  END
>  <CHROM.1>
-163.84088175,-139.42699146,-84.79905924,-162.35969369,-77.84327266,94.18932778
-4.52734375,-10.67813647,-15.06642346,1.97360017,-0.19965666,-1.12540456

>  <Name>
ligand

>  <RI>
0

>  <Rbt.Current_Directory>
/home/itssahil/PROJECTS/Mol_Feturizer/New_Systems/rnas/4F8U

>  <Rbt.Executable>
rbdock ($Id: //depot/dev/client3/rdock/2013.1/src/exe/rbdock.cxx#4 $)

>  <Rbt.Library>
libRbt.so (2013.1, Build901 2013/11/27)

>  <Rbt.Parameter_File>
/export/apps/rDock/src/rDock_2013.1_src/data/scripts/dock_solv.prm

>  <Rbt.Receptor>
prm/pocket_docking_2.prm

>  <SCORE>
-16.6872

>  <SCORE.INTER>
-15.5548

>  <SCORE.INTER.CONST>
1

>  <SCORE.INTER.POLAR>
0

>  <SCORE.INTER.ROT>
6

>  <SCORE.INTER.SOLV>
22.2266

>  <SCORE.INTER.VDW>
-25.3787

>  <SCORE.INTER.norm>
-0.501766

>  <SCORE.INTRA>
-1.13248

>  <SCORE.INTRA.DIHEDRAL>
-2.60375

>  <SCORE.INTRA.DIHEDRAL.0>
18.77

>  <SCORE.INTRA.POLAR>
0

>  <SCORE.INTRA.POLAR.0>
0

>  <SCORE.INTRA.REPUL>
0

>  <SCORE.INTRA.REPUL.0>
0

>  <SCORE.INTRA.SOLV>
-0.735207

>  <SCORE.INTRA.SOLV.lig_0>
-77.2465

>  <SCORE.INTRA.VDW>
0.536994

>  <SCORE.INTRA.VDW.0>
-4.16072

>  <SCORE.INTRA.norm>
-0.0365317

>  <SCORE.RESTR>
0

>  <SCORE.RESTR.CAVITY>
0

>  <SCORE.RESTR.norm>
0

>  <SCORE.SYSTEM>
0

>  <SCORE.SYSTEM.CONST>
0

>  <SCORE.SYSTEM.DIHEDRAL>
0

>  <SCORE.SYSTEM.SOLV>
0

>  <SCORE.SYSTEM.norm>
0

>  <SCORE.heavy>
31

>  <SCORE.norm>
-0.538298

>  <RMSD>
0.416

$$$$
ligand
 OpenBabel11021811493D
libRbt.so/2013.1/901 2013/11/27
 31 33  0  0  0  0  0  0  0  0999 V2000
   -6.9423  -10.0898  -17.4888 C   0  0  2  0  0  0  0  0  0  0  0  0
   -5.5650  -10.4390  -17.6829 O   0  0  0  0  0  0  0  0  0  0  0  0
   -1.9577  -10.3660  -15.3795 C   0  0  2  0  0  0  0  0  0  0  0  0
   -0.8847   -9.8809  -14.5663 N   0  0  0  0  0  0  0  0  0  0  0  0
   -2.9274  -10.3335  -12.1174 C   0  0  2  0  0  0  0  0  0  0  0  0
   -7.7835  -11.1592  -18.2703 C   0  0  2  0  0  0  0  0  0  0  0  0
   -7.4642  -12.4940  -17.7761 N   0  0  0  0  0  0  0  0  0  0  0  0
   -1.9723   -9.5625  -16.7368 C   0  0  0  0  0  0  0  0  0  0  0  0
   -2.1011  -11.4392  -11.3909 C   0  0  2  0  0  0  0  0  0  0  0  0
   -0.9506  -11.7379  -12.1628 O   0  0  0  0  0  0  0  0  0  0  0  0
   -7.4854  -11.0502  -19.8063 C   0  0  0  0  0  0  0  0  0  0  0  0
   -3.1597  -10.1076  -17.6425 C   0  0  2  0  0  0  0  0  0  0  0  0
   -3.1843   -9.3586  -18.9206 N   0  0  0  0  0  0  0  0  0  0  0  0
   -3.0442  -12.7153  -11.2561 C   0  0  1  0  0  0  0  0  0  0  0  0
   -2.3124  -13.8475  -10.5927 N   0  0  0  0  0  0  0  0  0  0  0  0
   -7.5482   -9.5690  -20.2790 C   0  0  0  0  0  0  0  0  0  0  0  0
   -4.5423   -9.9296  -16.8708 C   0  0  2  0  0  0  0  0  0  0  0  0
   -4.3484  -12.3243  -10.3622 C   0  0  1  0  0  0  0  0  0  0  0  0
   -3.9934  -11.9024   -9.0595 O   0  0  0  0  0  0  0  0  0  0  0  0
   -7.4332   -8.5589  -19.4038 C   0  0  2  0  0  0  0  0  0  0  0  0
   -7.2508   -8.7548  -17.9906 O   0  0  0  0  0  0  0  0  0  0  0  0
   -4.4822  -10.7248  -15.4998 C   0  0  2  0  0  0  0  0  0  0  0  0
   -5.7120  -10.5524  -14.7843 O   0  0  0  0  0  0  0  0  0  0  0  0
   -5.1136  -11.1455  -11.0528 C   0  0  0  0  0  0  0  0  0  0  0  0
   -4.1574   -9.9941  -11.3153 O   0  0  0  0  0  0  0  0  0  0  0  0
   -7.4957   -7.0806  -19.8537 C   0  0  0  0  0  0  0  0  0  0  0  0
   -6.2727   -6.7364  -20.5653 N   0  0  0  0  0  0  0  0  0  0  0  0
   -3.3029  -10.1759  -14.6180 C   0  0  1  0  0  0  0  0  0  0  0  0
   -3.2787  -10.9076  -13.4159 O   0  0  0  0  0  0  0  0  0  0  0  0
   -5.3681  -13.4536  -10.1398 C   0  0  0  0  0  0  0  0  0  0  0  0
   -1.5008  -14.7081  -11.4740 C   0  0  0  0  0  0  0  0  0  0  0  0
  1  2  1  6  0  0  0
  1  6  1  0  0  0  0
  1 21  1  0  0  0  0
  3  4  1  1  0  0  0
  3  8  1  0  0  0  0
  3 28  1  0  0  0  0
  5  9  1  0  0  0  0
  5 25  1  0  0  0  0
  5 29  1  6  0  0  0
  6  7  1  1  0  0  0
  6 11  1  0  0  0  0
  8 12  1  0  0  0  0
  9 10  1  6  0  0  0
  9 14  1  0  0  0  0
 11 16  1  0  0  0  0
 12 13  1  6  0  0  0
 12 17  1  0  0  0  0
 14 15  1  1  0  0  0
 14 18  1  0  0  0  0
 15 31  1  0  0  0  0
 16 20  1  0  0  0  0
 17  2  1  6  0  0  0
 17 22  1  0  0  0  0
 18 19  1  1  0  0  0
 18 24  1  0  0  0  0
 18 30  1  0  0  0  0
 20 21  1  0  0  0  0
 20 26  1  1  0  0  0
 22 23  1  1  0  0  0
 22 28  1  0  0  0  0
 24 25  1  0  0  0  0
 26 27  1  0  0  0  0
 28 29  1  1  0  0  0
M  END
>  <CHROM.1>
-163.27599172,-141.77022179,-85.52103057,-161.00110213,-72.21238168,96.26458297
-4.49855178,-10.69096382,-15.06301591,1.97541327,-0.19991683,-1.12619022

>  <Name>
ligand

>  <RI>
0

>  <Rbt.Current_Directory>
/home/itssahil/PROJECTS/Mol_Feturizer/New_Systems/rnas/4F8U

>  <Rbt.Executable>
rbdock ($Id: //depot/dev/client3/rdock/2013.1/src/exe/rbdock.cxx#4 $)

>  <Rbt.Library>
libRbt.so (2013.1, Build901 2013/11/27)

>  <Rbt.Parameter_File>
/export/apps/rDock/src/rDock_2013.1_src/data/scripts/dock_solv.prm

>  <Rbt.Receptor>
prm/pocket_docking_2.prm

>  <SCORE>
-16.6527

>  <SCORE.INTER>
-15.7632

>  <SCORE.INTER.CONST>
1

>  <SCORE.INTER.POLAR>
0

>  <SCORE.INTER.ROT>
6

>  <SCORE.INTER.SOLV>
21.5467

>  <SCORE.INTER.VDW>
-25.291

>  <SCORE.INTER.norm>
-0.50849

>  <SCORE.INTRA>
-0.889519

>  <SCORE.INTRA.DIHEDRAL>
-2.10406

>  <SCORE.INTRA.DIHEDRAL.0>
18.77

>  <SCORE.INTRA.POLAR>
0

>  <SCORE.INTRA.POLAR.0>
0

>  <SCORE.INTRA.REPUL>
0

>  <SCORE.INTRA.REPUL.0>
0

>  <SCORE.INTRA.SOLV>
-0.752948

>  <SCORE.INTRA.SOLV.lig_0>
-77.2465

>  <SCORE.INTRA.VDW>
0.538985

>  <SCORE.INTRA.VDW.0>
-4.16072

>  <SCORE.INTRA.norm>
-0.0286942

>  <SCORE.RESTR>
0

>  <SCORE.RESTR.CAVITY>
0

>  <SCORE.RESTR.norm>
0

>  <SCORE.SYSTEM>
0

>  <SCORE.SYSTEM.CONST>
0

>  <SCORE.SYSTEM.DIHEDRAL>
0

>  <SCORE.SYSTEM.SOLV>
0

>  <SCORE.SYSTEM.norm>
0

>  <SCORE.heavy>
31

>  <SCORE.norm>
-0.537184

>  <RMSD>
0.418

$$$$
ligand
 OpenBabel11021811493D
libRbt.so/2013.1/901 2013/11/27
 31 33  0  0  0  0  0  0  0  0999 V2000
   -6.9624  -10.1017  -17.5088 C   0  0  2  0  0  0  0  0  0  0  0  0
   -5.5850  -10.4542  -17.6965 O   0  0  0  0  0  0  0  0  0  0  0  0
   -1.9738  -10.3611  -15.4000 C   0  0  2  0  0  0  0  0  0  0  0  0
   -0.9020   -9.8702  -14.5886 N   0  0  0  0  0  0  0  0  0  0  0  0
   -2.9252  -10.3384  -12.1381 C   0  0  2  0  0  0  0  0  0  0  0  0
   -7.8013  -11.1520  -18.3181 C   0  0  2  0  0  0  0  0  0  0  0  0
   -7.4934  -12.4974  -17.8460 N   0  0  0  0  0  0  0  0  0  0  0  0
   -1.9957   -9.5573  -16.7569 C   0  0  0  0  0  0  0  0  0  0  0  0
   -2.0980  -11.4473  -11.4174 C   0  0  2  0  0  0  0  0  0  0  0  0
   -0.9541  -11.7504  -12.1975 O   0  0  0  0  0  0  0  0  0  0  0  0
   -7.4882  -11.0159  -19.8489 C   0  0  0  0  0  0  0  0  0  0  0  0
   -3.1816  -10.1089  -17.6606 C   0  0  2  0  0  0  0  0  0  0  0  0
   -3.2131   -9.3596  -18.9383 N   0  0  0  0  0  0  0  0  0  0  0  0
   -3.0449  -12.7198  -11.2759 C   0  0  1  0  0  0  0  0  0  0  0  0
   -2.3128  -13.8547  -10.6177 N   0  0  0  0  0  0  0  0  0  0  0  0
   -7.5391   -9.5258  -20.2944 C   0  0  0  0  0  0  0  0  0  0  0  0
   -4.5638   -9.9392  -16.8861 C   0  0  2  0  0  0  0  0  0  0  0  0
   -4.3413  -12.3239  -10.3728 C   0  0  1  0  0  0  0  0  0  0  0  0
   -3.9755  -11.9033   -9.0727 O   0  0  0  0  0  0  0  0  0  0  0  0
   -7.4274   -8.5328  -19.3994 C   0  0  2  0  0  0  0  0  0  0  0  0
   -7.2595   -8.7560  -17.9884 O   0  0  0  0  0  0  0  0  0  0  0  0
   -4.4964  -10.7345  -15.5155 C   0  0  2  0  0  0  0  0  0  0  0  0
   -5.7258  -10.5696  -14.7976 O   0  0  0  0  0  0  0  0  0  0  0  0
   -5.1068  -11.1421  -11.0580 C   0  0  0  0  0  0  0  0  0  0  0  0
   -4.1482   -9.9944  -11.3272 O   0  0  0  0  0  0  0  0  0  0  0  0
   -7.4784   -7.0461  -19.8221 C   0  0  0  0  0  0  0  0  0  0  0  0
   -6.2566   -6.7008  -20.5351 N   0  0  0  0  0  0  0  0  0  0  0  0
   -3.3186  -10.1792  -14.6358 C   0  0  1  0  0  0  0  0  0  0  0  0
   -3.2878  -10.9112  -13.4340 O   0  0  0  0  0  0  0  0  0  0  0  0
   -5.3636  -13.4493  -10.1432 C   0  0  0  0  0  0  0  0  0  0  0  0
   -1.5220  -14.7269  -11.5067 C   0  0  0  0  0  0  0  0  0  0  0  0
  1  2  1  6  0  0  0
  1  6  1  0  0  0  0
  1 21  1  0  0  0  0
  3  4  1  1  0  0  0
  3  8  1  0  0  0  0
  3 28  1  0  0  0  0
  5  9  1  0  0  0  0
  5 25  1  0  0  0  0
  5 29  1  6  0  0  0
  6  7  1  1  0  0  0
  6 11  1  0  0  0  0
  8 12  1  0  0  0  0
  9 10  1  6  0  0  0
  9 14  1  0  0  0  0
 11 16  1  0  0  0  0
 12 13  1  6  0  0  0
 12 17  1  0  0  0  0
 14 15  1  1  0  0  0
 14 18  1  0  0  0  0
 15 31  1  0  0  0  0
 16 20  1  0  0  0  0
 17  2  1  6  0  0  0
 17 22  1  0  0  0  0
 18 19  1  1  0  0  0
 18 24  1  0  0  0  0
 18 30  1  0  0  0  0
 20 21  1  0  0  0  0
 20 26  1  1  0  0  0
 22 23  1  1  0  0  0
 22 28  1  0  0  0  0
 24 25  1  0  0  0  0
 26 27  1  0  0  0  0
 28 29  1  1  0  0  0
M  END
>  <CHROM.1>
-164.89807529,-141.81182140,-86.13790835,-160.30172071,-71.27190415,95.66336703
-4.50512696,-10.68878465,-15.07979416,1.97605790,-0.20348030,-1.12262086

>  <Name>
ligand

>  <RI>
0

>  <Rbt.Current_Directory>
/home/itssahil/PROJECTS/Mol_Feturizer/New_Systems/rnas/4F8U

>  <Rbt.Executable>
rbdock ($Id: //depot/dev/client3/rdock/2013.1/src/exe/rbdock.cxx#4 $)

>  <Rbt.Library>
libRbt.so (2013.1, Build901 2013/11/27)

>  <Rbt.Parameter_File>
/export/apps/rDock/src/rDock_2013.1_src/data/scripts/dock_solv.prm

>  <Rbt.Receptor>
prm/pocket_docking_2.prm

>  <SCORE>
-16.627

>  <SCORE.INTER>
-15.6376

>  <SCORE.INTER.CONST>
1

>  <SCORE.INTER.POLAR>
0

>  <SCORE.INTER.ROT>
6

>  <SCORE.INTER.SOLV>
21.6998

>  <SCORE.INTER.VDW>
-25.2583

>  <SCORE.INTER.norm>
-0.504439

>  <SCORE.INTRA>
-0.99423

>  <SCORE.INTRA.DIHEDRAL>
-2.28712

>  <SCORE.INTRA.DIHEDRAL.0>
18.77

>  <SCORE.INTRA.POLAR>
0

>  <SCORE.INTRA.POLAR.0>
0

>  <SCORE.INTRA.REPUL>
0

>  <SCORE.INTRA.REPUL.0>
0

>  <SCORE.INTRA.SOLV>
-0.7035

>  <SCORE.INTRA.SOLV.lig_0>
-77.2465

>  <SCORE.INTRA.VDW>
0.50108

>  <SCORE.INTRA.VDW.0>
-4.16072

>  <SCORE.INTRA.norm>
-0.0320719

>  <SCORE.RESTR>
0.00479617

>  <SCORE.RESTR.CAVITY>
0.00479617

>  <SCORE.RESTR.norm>
0.000154715

>  <SCORE.SYSTEM>
0

>  <SCORE.SYSTEM.CONST>
0

>  <SCORE.SYSTEM.DIHEDRAL>
0

>  <SCORE.SYSTEM.SOLV>
0

>  <SCORE.SYSTEM.norm>
0

>  <SCORE.heavy>
31

>  <SCORE.norm>
-0.536356

>  <RMSD>
0.418

$$$$
ligand
 OpenBabel11021811493D
libRbt.so/2013.1/901 2013/11/27
 31 33  0  0  0  0  0  0  0  0999 V2000
   -6.9676  -10.0947  -17.4895 C   0  0  2  0  0  0  0  0  0  0  0  0
   -5.5892  -10.4370  -17.6877 O   0  0  0  0  0  0  0  0  0  0  0  0
   -1.9903  -10.3717  -15.3710 C   0  0  2  0  0  0  0  0  0  0  0  0
   -0.9184   -9.8887  -14.5550 N   0  0  0  0  0  0  0  0  0  0  0  0
   -2.9529  -10.3320  -12.1158 C   0  0  2  0  0  0  0  0  0  0  0  0
   -7.8047  -11.1462  -18.2993 C   0  0  2  0  0  0  0  0  0  0  0  0
   -7.4848  -12.4920  -17.8366 N   0  0  0  0  0  0  0  0  0  0  0  0
   -1.9968   -9.5717  -16.7304 C   0  0  0  0  0  0  0  0  0  0  0  0
   -2.1196  -11.4402  -11.4012 C   0  0  2  0  0  0  0  0  0  0  0  0
   -0.9788  -11.7394  -12.1874 O   0  0  0  0  0  0  0  0  0  0  0  0
   -7.5020  -10.9996  -19.8312 C   0  0  0  0  0  0  0  0  0  0  0  0
   -3.1828  -10.1146  -17.6391 C   0  0  2  0  0  0  0  0  0  0  0  0
   -3.1999   -9.3688  -18.9192 N   0  0  0  0  0  0  0  0  0  0  0  0
   -3.0629  -12.7152  -11.2572 C   0  0  1  0  0  0  0  0  0  0  0  0
   -2.3250  -13.8496  -10.6046 N   0  0  0  0  0  0  0  0  0  0  0  0
   -7.5657   -9.5075  -20.2682 C   0  0  0  0  0  0  0  0  0  0  0  0
   -4.5676   -9.9294  -16.8731 C   0  0  2  0  0  0  0  0  0  0  0  0
   -4.3557  -12.3238  -10.3470 C   0  0  1  0  0  0  0  0  0  0  0  0
   -3.9844  -11.9046   -9.0480 O   0  0  0  0  0  0  0  0  0  0  0  0
   -7.4550   -8.5186  -19.3684 C   0  0  2  0  0  0  0  0  0  0  0  0
   -7.2768   -8.7484  -17.9598 O   0  0  0  0  0  0  0  0  0  0  0  0
   -4.5156  -10.7213  -15.4998 C   0  0  2  0  0  0  0  0  0  0  0  0
   -5.7474  -10.5424  -14.7893 O   0  0  0  0  0  0  0  0  0  0  0  0
   -5.1273  -11.1425  -11.0264 C   0  0  0  0  0  0  0  0  0  0  0  0
   -4.1726   -9.9922  -11.2984 O   0  0  0  0  0  0  0  0  0  0  0  0
   -7.5185   -7.0300  -19.7826 C   0  0  0  0  0  0  0  0  0  0  0  0
   -6.2363   -6.6254  -20.3417 N   0  0  0  0  0  0  0  0  0  0  0  0
   -3.3375  -10.1746  -14.6150 C   0  0  1  0  0  0  0  0  0  0  0  0
   -3.3206  -10.9033  -13.4110 O   0  0  0  0  0  0  0  0  0  0  0  0
   -5.3743  -13.4519  -10.1144 C   0  0  0  0  0  0  0  0  0  0  0  0
   -1.5986  -14.7632  -11.5068 C   0  0  0  0  0  0  0  0  0  0  0  0
  1  2  1  6  0  0  0
  1  6  1  0  0  0  0
  1 21  1  0  0  0  0
  3  4  1  1  0  0  0
  3  8  1  0  0  0  0
  3 28  1  0  0  0  0
  5  9  1  0  0  0  0
  5 25  1  0  0  0  0
  5 29  1  6  0  0  0
  6  7  1  1  0  0  0
  6 11  1  0  0  0  0
  8 12  1  0  0  0  0
  9 10  1  6  0  0  0
  9 14  1  0  0  0  0
 11 16  1  0  0  0  0
 12 13  1  6  0  0  0
 12 17  1  0  0  0  0
 14 15  1  1  0  0  0
 14 18  1  0  0  0  0
 15 31  1  0  0  0  0
 16 20  1  0  0  0  0
 17  2  1  6  0  0  0
 17 22  1  0  0  0  0
 18 19  1  1  0  0  0
 18 24  1  0  0  0  0
 18 30  1  0  0  0  0
 20 21  1  0  0  0  0
 20 26  1  1  0  0  0
 22 23  1  1  0  0  0
 22 28  1  0  0  0  0
 24 25  1  0  0  0  0
 26 27  1  0  0  0  0
 28 29  1  1  0  0  0
M  END
>  <CHROM.1>
-164.28865985,-140.71463234,-89.47232851,-161.76863689,-78.77221158,95.32118020
-4.52111593,-10.68280556,-15.05338632,1.97533289,-0.20101209,-1.12120943

>  <Name>
ligand

>  <RI>
0

>  <Rbt.Current_Directory>
/home/itssahil/PROJECTS/Mol_Feturizer/New_Systems/rnas/4F8U

>  <Rbt.Executable>
rbdock ($Id: //depot/dev/client3/rdock/2013.1/src/exe/rbdock.cxx#4 $)

>  <Rbt.Library>
libRbt.so (2013.1, Build901 2013/11/27)

>  <Rbt.Parameter_File>
/export/apps/rDock/src/rDock_2013.1_src/data/scripts/dock_solv.prm

>  <Rbt.Receptor>
prm/pocket_docking_2.prm

>  <SCORE>
-16.6392

>  <SCORE.INTER>
-15.4705

>  <SCORE.INTER.CONST>
1

>  <SCORE.INTER.POLAR>
0

>  <SCORE.INTER.ROT>
6

>  <SCORE.INTER.SOLV>
22.4003

>  <SCORE.INTER.VDW>
-25.3804

>  <SCORE.INTER.norm>
-0.499047

>  <SCORE.INTRA>
-1.169

>  <SCORE.INTRA.DIHEDRAL>
-2.47374

>  <SCORE.INTRA.DIHEDRAL.0>
18.77

>  <SCORE.INTRA.POLAR>
0

>  <SCORE.INTRA.POLAR.0>
0

>  <SCORE.INTRA.REPUL>
0

>  <SCORE.INTRA.REPUL.0>
0

>  <SCORE.INTRA.SOLV>
-0.725013

>  <SCORE.INTRA.SOLV.lig_0>
-77.2465

>  <SCORE.INTRA.VDW>
0.430376

>  <SCORE.INTRA.VDW.0>
-4.16072

>  <SCORE.INTRA.norm>
-0.0377096

>  <SCORE.RESTR>
0.000229969

>  <SCORE.RESTR.CAVITY>
0.000229969

>  <SCORE.RESTR.norm>
7.41837e-06

>  <SCORE.SYSTEM>
0

>  <SCORE.SYSTEM.CONST>
0

>  <SCORE.SYSTEM.DIHEDRAL>
0

>  <SCORE.SYSTEM.SOLV>
0

>  <SCORE.SYSTEM.norm>
0

>  <SCORE.heavy>
31

>  <SCORE.norm>
-0.536749

>  <RMSD>
0.421

$$$$
ligand
 OpenBabel11021811493D
libRbt.so/2013.1/901 2013/11/27
 31 33  0  0  0  0  0  0  0  0999 V2000
   -6.9462  -10.0706  -17.4864 C   0  0  2  0  0  0  0  0  0  0  0  0
   -5.5691  -10.4161  -17.6880 O   0  0  0  0  0  0  0  0  0  0  0  0
   -1.9779  -10.3847  -15.3587 C   0  0  2  0  0  0  0  0  0  0  0  0
   -0.9041   -9.9116  -14.5395 N   0  0  0  0  0  0  0  0  0  0  0  0
   -2.9509  -10.3313  -12.1071 C   0  0  2  0  0  0  0  0  0  0  0  0
   -7.7880  -11.1252  -18.2872 C   0  0  2  0  0  0  0  0  0  0  0  0
   -7.4685  -12.4690  -17.8182 N   0  0  0  0  0  0  0  0  0  0  0  0
   -1.9714   -9.5864  -16.7190 C   0  0  0  0  0  0  0  0  0  0  0  0
   -2.1202  -11.4424  -11.3939 C   0  0  2  0  0  0  0  0  0  0  0  0
   -0.9805  -11.7437  -12.1808 O   0  0  0  0  0  0  0  0  0  0  0  0
   -7.4910  -10.9876  -19.8211 C   0  0  0  0  0  0  0  0  0  0  0  0
   -3.1597  -10.1183  -17.6313 C   0  0  2  0  0  0  0  0  0  0  0  0
   -3.1646   -9.3739  -18.9123 N   0  0  0  0  0  0  0  0  0  0  0  0
   -3.0668  -12.7151  -11.2510 C   0  0  1  0  0  0  0  0  0  0  0  0
   -2.3316  -13.8521  -10.5999 N   0  0  0  0  0  0  0  0  0  0  0  0
   -7.5540   -9.4978  -20.2661 C   0  0  0  0  0  0  0  0  0  0  0  0
   -4.5453   -9.9180  -16.8704 C   0  0  2  0  0  0  0  0  0  0  0  0
   -4.3583  -12.3213  -10.3400 C   0  0  1  0  0  0  0  0  0  0  0  0
   -3.9855  -11.9045   -9.0407 O   0  0  0  0  0  0  0  0  0  0  0  0
   -7.4384   -8.5042  -19.3722 C   0  0  2  0  0  0  0  0  0  0  0  0
   -7.2551   -8.7265  -17.9630 O   0  0  0  0  0  0  0  0  0  0  0  0
   -4.5062  -10.7086  -15.4960 C   0  0  2  0  0  0  0  0  0  0  0  0
   -5.7386  -10.5164  -14.7901 O   0  0  0  0  0  0  0  0  0  0  0  0
   -5.1271  -11.1374  -11.0178 C   0  0  0  0  0  0  0  0  0  0  0  0
   -4.1695   -9.9892  -11.2889 O   0  0  0  0  0  0  0  0  0  0  0  0
   -7.5012   -7.0178  -19.7944 C   0  0  0  0  0  0  0  0  0  0  0  0
   -6.3152   -6.6816  -20.5696 N   0  0  0  0  0  0  0  0  0  0  0  0
   -3.3257  -10.1729  -14.6077 C   0  0  1  0  0  0  0  0  0  0  0  0
   -3.3205  -10.9003  -13.4027 O   0  0  0  0  0  0  0  0  0  0  0  0
   -5.3798  -13.4471  -10.1082 C   0  0  0  0  0  0  0  0  0  0  0  0
   -1.5101  -14.6952  -11.4890 C   0  0  0  0  0  0  0  0  0  0  0  0
  1  2  1  6  0  0  0
  1  6  1  0  0  0  0
  1 21  1  0  0  0  0
  3  4  1  1  0  0  0
  3  8  1  0  0  0  0
  3 28  1  0  0  0  0
  5  9  1  0  0  0  0
  5 25  1  0  0  0  0
  5 29  1  6  0  0  0
  6  7  1  1  0  0  0
  6 11  1  0  0  0  0
  8 12  1  0  0  0  0
  9 10  1  6  0  0  0
  9 14  1  0  0  0  0
 11 16  1  0  0  0  0
 12 13  1  6  0  0  0
 12 17  1  0  0  0  0
 14 15  1  1  0  0  0
 14 18  1  0  0  0  0
 15 31  1  0  0  0  0
 16 20  1  0  0  0  0
 17  2  1  6  0  0  0
 17 22  1  0  0  0  0
 18 19  1  1  0  0  0
 18 24  1  0  0  0  0
 18 30  1  0  0  0  0
 20 21  1  0  0  0  0
 20 26  1  1  0  0  0
 22 23  1  1  0  0  0
 22 28  1  0  0  0  0
 24 25  1  0  0  0  0
 26 27  1  0  0  0  0
 28 29  1  1  0  0  0
M  END
>  <CHROM.1>
-163.52356221,-140.19079395,-84.18578911,-162.43652974,-68.82483373,95.28910547
-4.51108099,-10.67689745,-15.05454709,1.97272442,-0.18320555,-1.12987592

>  <Name>
ligand

>  <RI>
0

>  <Rbt.Current_Directory>
/home/itssahil/PROJECTS/Mol_Feturizer/New_Systems/rnas/4F8U

>  <Rbt.Executable>
rbdock ($Id: //depot/dev/client3/rdock/2013.1/src/exe/rbdock.cxx#4 $)

>  <Rbt.Library>
libRbt.so (2013.1, Build901 2013/11/27)

>  <Rbt.Parameter_File>
/export/apps/rDock/src/rDock_2013.1_src/data/scripts/dock_solv.prm

>  <Rbt.Receptor>
prm/pocket_docking_2.prm

>  <SCORE>
-16.6478

>  <SCORE.INTER>
-15.7595

>  <SCORE.INTER.CONST>
1

>  <SCORE.INTER.POLAR>
0

>  <SCORE.INTER.ROT>
6

>  <SCORE.INTER.SOLV>
21.7244

>  <SCORE.INTER.VDW>
-25.3478

>  <SCORE.INTER.norm>
-0.508372

>  <SCORE.INTRA>
-0.888934

>  <SCORE.INTRA.DIHEDRAL>
-2.22245

>  <SCORE.INTRA.DIHEDRAL.0>
18.77

>  <SCORE.INTRA.POLAR>
0

>  <SCORE.INTRA.POLAR.0>
0

>  <SCORE.INTRA.REPUL>
0

>  <SCORE.INTRA.REPUL.0>
0

>  <SCORE.INTRA.SOLV>
-0.792452

>  <SCORE.INTRA.SOLV.lig_0>
-77.2465

>  <SCORE.INTRA.VDW>
0.618517

>  <SCORE.INTRA.VDW.0>
-4.16072

>  <SCORE.INTRA.norm>
-0.0286753

>  <SCORE.RESTR>
0.000676929

>  <SCORE.RESTR.CAVITY>
0.000676929

>  <SCORE.RESTR.norm>
2.18364e-05

>  <SCORE.SYSTEM>
0

>  <SCORE.SYSTEM.CONST>
0

>  <SCORE.SYSTEM.DIHEDRAL>
0

>  <SCORE.SYSTEM.SOLV>
0

>  <SCORE.SYSTEM.norm>
0

>  <SCORE.heavy>
31

>  <SCORE.norm>
-0.537026

>  <RMSD>
0.423

$$$$
ligand
 OpenBabel11021811493D
libRbt.so/2013.1/901 2013/11/27
 31 33  0  0  0  0  0  0  0  0999 V2000
   -6.9635  -10.0768  -17.5075 C   0  0  2  0  0  0  0  0  0  0  0  0
   -5.5829  -10.4104  -17.7049 O   0  0  0  0  0  0  0  0  0  0  0  0
   -2.0332  -10.4057  -15.3125 C   0  0  2  0  0  0  0  0  0  0  0  0
   -0.9686   -9.9399  -14.4773 N   0  0  0  0  0  0  0  0  0  0  0  0
   -3.0216  -10.3334  -12.0855 C   0  0  2  0  0  0  0  0  0  0  0  0
   -7.7928  -11.1212  -18.3342 C   0  0  2  0  0  0  0  0  0  0  0  0
   -7.4688  -12.4716  -17.8878 N   0  0  0  0  0  0  0  0  0  0  0  0
   -1.9935   -9.6159  -16.6773 C   0  0  0  0  0  0  0  0  0  0  0  0
   -2.1581  -11.4404  -11.4056 C   0  0  2  0  0  0  0  0  0  0  0  0
   -1.0346  -11.7174  -12.2240 O   0  0  0  0  0  0  0  0  0  0  0  0
   -7.4851  -10.9533  -19.8629 C   0  0  0  0  0  0  0  0  0  0  0  0
   -3.1716  -10.1398  -17.6073 C   0  0  2  0  0  0  0  0  0  0  0  0
   -3.1453   -9.4033  -18.8926 N   0  0  0  0  0  0  0  0  0  0  0  0
   -3.0834  -12.7275  -11.2528 C   0  0  1  0  0  0  0  0  0  0  0  0
   -2.3165  -13.8610  -10.6327 N   0  0  0  0  0  0  0  0  0  0  0  0
   -7.5537   -9.4559  -20.2806 C   0  0  0  0  0  0  0  0  0  0  0  0
   -4.5679   -9.9190  -16.8722 C   0  0  2  0  0  0  0  0  0  0  0  0
   -4.3567  -12.3614  -10.3054 C   0  0  1  0  0  0  0  0  0  0  0  0
   -3.9570  -11.9531   -9.0114 O   0  0  0  0  0  0  0  0  0  0  0  0
   -7.4509   -8.4785  -19.3675 C   0  0  2  0  0  0  0  0  0  0  0  0
   -7.2769   -8.7258  -17.9613 O   0  0  0  0  0  0  0  0  0  0  0  0
   -4.5623  -10.7015  -15.4927 C   0  0  2  0  0  0  0  0  0  0  0  0
   -5.8046  -10.4908  -14.8099 O   0  0  0  0  0  0  0  0  0  0  0  0
   -5.1584  -11.1811  -10.9509 C   0  0  0  0  0  0  0  0  0  0  0  0
   -4.2237  -10.0170  -11.2333 O   0  0  0  0  0  0  0  0  0  0  0  0
   -7.5194   -6.9848  -19.7625 C   0  0  0  0  0  0  0  0  0  0  0  0
   -6.2843   -6.6013  -20.4318 N   0  0  0  0  0  0  0  0  0  0  0  0
   -3.3915  -10.1739  -14.5868 C   0  0  1  0  0  0  0  0  0  0  0  0
   -3.4159  -10.8938  -13.3776 O   0  0  0  0  0  0  0  0  0  0  0  0
   -5.3565  -13.5036  -10.0604 C   0  0  0  0  0  0  0  0  0  0  0  0
   -1.4956  -14.6748  -11.5492 C   0  0  0  0  0  0  0  0  0  0  0  0
  1  2  1  6  0  0  0
  1  6  1  0  0  0  0
  1 21  1  0  0  0  0
  3  4  1  1  0  0  0
  3  8  1  0  0  0  0
  3 28  1  0  0  0  0
  5  9  1  0  0  0  0
  5 25  1  0  0  0  0
  5 29  1  6  0  0  0
  6  7  1  1  0  0  0
  6 11  1  0  0  0  0
  8 12  1  0  0  0  0
  9 10  1  6  0  0  0
  9 14  1  0  0  0  0
 11 16  1  0  0  0  0
 12 13  1  6  0  0  0
 12 17  1  0  0  0  0
 14 15  1  1  0  0  0
 14 18  1  0  0  0  0
 15 31  1  0  0  0  0
 16 20  1  0  0  0  0
 17  2  1  6  0  0  0
 17 22  1  0  0  0  0
 18 19  1  1  0  0  0
 18 24  1  0  0  0  0
 18 30  1  0  0  0  0
 20 21  1  0  0  0  0
 20 26  1  1  0  0  0
 22 23  1  1  0  0  0
 22 28  1  0  0  0  0
 24 25  1  0  0  0  0
 26 27  1  0  0  0  0
 28 29  1  1  0  0  0
M  END
>  <CHROM.1>
-163.68034743,-136.56562217,-83.59359716,-164.17287386,-73.18291685,93.23831566
-4.53300305,-10.67894943,-15.04529009,1.97033099,-0.17814216,-1.12979302

>  <Name>
ligand

>  <RI>
0

>  <Rbt.Current_Directory>
/home/itssahil/PROJECTS/Mol_Feturizer/New_Systems/rnas/4F8U

>  <Rbt.Executable>
rbdock ($Id: //depot/dev/client3/rdock/2013.1/src/exe/rbdock.cxx#4 $)

>  <Rbt.Library>
libRbt.so (2013.1, Build901 2013/11/27)

>  <Rbt.Parameter_File>
/export/apps/rDock/src/rDock_2013.1_src/data/scripts/dock_solv.prm

>  <Rbt.Receptor>
prm/pocket_docking_2.prm

>  <SCORE>
-16.6399

>  <SCORE.INTER>
-15.7075

>  <SCORE.INTER.CONST>
1

>  <SCORE.INTER.POLAR>
0

>  <SCORE.INTER.ROT>
6

>  <SCORE.INTER.SOLV>
22.1779

>  <SCORE.INTER.VDW>
-25.4643

>  <SCORE.INTER.norm>
-0.506694

>  <SCORE.INTRA>
-0.932391

>  <SCORE.INTRA.DIHEDRAL>
-2.44975

>  <SCORE.INTRA.DIHEDRAL.0>
18.77

>  <SCORE.INTRA.POLAR>
0

>  <SCORE.INTRA.POLAR.0>
0

>  <SCORE.INTRA.REPUL>
0

>  <SCORE.INTRA.REPUL.0>
0

>  <SCORE.INTRA.SOLV>
-0.768713

>  <SCORE.INTRA.SOLV.lig_0>
-77.2465

>  <SCORE.INTRA.VDW>
0.676839

>  <SCORE.INTRA.VDW.0>
-4.16072

>  <SCORE.INTRA.norm>
-0.0300771

>  <SCORE.RESTR>
0

>  <SCORE.RESTR.CAVITY>
0

>  <SCORE.RESTR.norm>
0

>  <SCORE.SYSTEM>
0

>  <SCORE.SYSTEM.CONST>
0

>  <SCORE.SYSTEM.DIHEDRAL>
0

>  <SCORE.SYSTEM.SOLV>
0

>  <SCORE.SYSTEM.norm>
0

>  <SCORE.heavy>
31

>  <SCORE.norm>
-0.536771

>  <RMSD>
0.424

$$$$
ligand
 OpenBabel11021811493D
libRbt.so/2013.1/901 2013/11/27
 31 33  0  0  0  0  0  0  0  0999 V2000
   -6.9746  -10.0977  -17.5028 C   0  0  2  0  0  0  0  0  0  0  0  0
   -5.5973  -10.4445  -17.7011 O   0  0  0  0  0  0  0  0  0  0  0  0
   -1.9977  -10.3933  -15.3851 C   0  0  2  0  0  0  0  0  0  0  0  0
   -0.9243   -9.9147  -14.5685 N   0  0  0  0  0  0  0  0  0  0  0  0
   -2.9456  -10.3607  -12.1321 C   0  0  2  0  0  0  0  0  0  0  0  0
   -7.8152  -11.1471  -18.3115 C   0  0  2  0  0  0  0  0  0  0  0  0
   -7.4995  -12.4936  -17.8477 N   0  0  0  0  0  0  0  0  0  0  0  0
   -2.0023   -9.5908  -16.7430 C   0  0  0  0  0  0  0  0  0  0  0  0
   -2.1139  -11.4773  -11.4286 C   0  0  2  0  0  0  0  0  0  0  0  0
   -0.9825  -11.7819  -12.2260 O   0  0  0  0  0  0  0  0  0  0  0  0
   -7.5124  -11.0029  -19.8437 C   0  0  0  0  0  0  0  0  0  0  0  0
   -3.1901  -10.1288  -17.6525 C   0  0  2  0  0  0  0  0  0  0  0  0
   -3.2054   -9.3805  -18.9312 N   0  0  0  0  0  0  0  0  0  0  0  0
   -3.0652  -12.7460  -11.2805 C   0  0  1  0  0  0  0  0  0  0  0  0
   -2.3296  -13.8878  -10.6383 N   0  0  0  0  0  0  0  0  0  0  0  0
   -7.5714   -9.5109  -20.2819 C   0  0  0  0  0  0  0  0  0  0  0  0
   -4.5742   -9.9412  -16.8857 C   0  0  2  0  0  0  0  0  0  0  0  0
   -4.3469  -12.3484  -10.3574 C   0  0  1  0  0  0  0  0  0  0  0  0
   -3.9610  -11.9363   -9.0604 O   0  0  0  0  0  0  0  0  0  0  0  0
   -7.4574   -8.5217  -19.3830 C   0  0  2  0  0  0  0  0  0  0  0  0
   -7.2795   -8.7508  -17.9742 O   0  0  0  0  0  0  0  0  0  0  0  0
   -4.5240  -10.7358  -15.5139 C   0  0  2  0  0  0  0  0  0  0  0  0
   -5.7551  -10.5549  -14.8029 O   0  0  0  0  0  0  0  0  0  0  0  0
   -5.1160  -11.1593  -11.0259 C   0  0  0  0  0  0  0  0  0  0  0  0
   -4.1555  -10.0149  -11.3026 O   0  0  0  0  0  0  0  0  0  0  0  0
   -7.5162   -7.0332  -19.7985 C   0  0  0  0  0  0  0  0  0  0  0  0
   -6.2491   -6.6463  -20.4028 N   0  0  0  0  0  0  0  0  0  0  0  0
   -3.3442  -10.1940  -14.6284 C   0  0  1  0  0  0  0  0  0  0  0  0
   -3.3289  -10.9249  -13.4257 O   0  0  0  0  0  0  0  0  0  0  0  0
   -5.3715  -13.4700  -10.1195 C   0  0  0  0  0  0  0  0  0  0  0  0
   -1.4929  -14.7122  -11.5308 C   0  0  0  0  0  0  0  0  0  0  0  0
  1  2  1  6  0  0  0
  1  6  1  0  0  0  0
  1 21  1  0  0  0  0
  3  4  1  1  0  0  0
  3  8  1  0  0  0  0
  3 28  1  0  0  0  0
  5  9  1  0  0  0  0
  5 25  1  0  0  0  0
  5 29  1  6  0  0  0
  6  7  1  1  0  0  0
  6 11  1  0  0  0  0
  8 12  1  0  0  0  0
  9 10  1  6  0  0  0
  9 14  1  0  0  0  0
 11 16  1  0  0  0  0
 12 13  1  6  0  0  0
 12 17  1  0  0  0  0
 14 15  1  1  0  0  0
 14 18  1  0  0  0  0
 15 31  1  0  0  0  0
 16 20  1  0  0  0  0
 17  2  1  6  0  0  0
 17 22  1  0  0  0  0
 18 19  1  1  0  0  0
 18 24  1  0  0  0  0
 18 30  1  0  0  0  0
 20 21  1  0  0  0  0
 20 26  1  1  0  0  0
 22 23  1  1  0  0  0
 22 28  1  0  0  0  0
 24 25  1  0  0  0  0
 26 27  1  0  0  0  0
 28 29  1  1  0  0  0
M  END
>  <CHROM.1>
-164.18117636,-140.34419049,-82.70594282,-161.69609557,-76.71689850,94.63790878
-4.51978712,-10.69762431,-15.06988713,1.97666291,-0.19118218,-1.12346762

>  <Name>
ligand

>  <RI>
0

>  <Rbt.Current_Directory>
/home/itssahil/PROJECTS/Mol_Feturizer/New_Systems/rnas/4F8U

>  <Rbt.Executable>
rbdock ($Id: //depot/dev/client3/rdock/2013.1/src/exe/rbdock.cxx#4 $)

>  <Rbt.Library>
libRbt.so (2013.1, Build901 2013/11/27)

>  <Rbt.Parameter_File>
/export/apps/rDock/src/rDock_2013.1_src/data/scripts/dock_solv.prm

>  <Rbt.Receptor>
prm/pocket_docking_2.prm

>  <SCORE>
-16.7074

>  <SCORE.INTER>
-15.6265

>  <SCORE.INTER.CONST>
1

>  <SCORE.INTER.POLAR>
0

>  <SCORE.INTER.ROT>
6

>  <SCORE.INTER.SOLV>
22.0444

>  <SCORE.INTER.VDW>
-25.3658

>  <SCORE.INTER.norm>
-0.50408

>  <SCORE.INTRA>
-1.08095

>  <SCORE.INTRA.DIHEDRAL>
-2.63488

>  <SCORE.INTRA.DIHEDRAL.0>
18.77

>  <SCORE.INTRA.POLAR>
0

>  <SCORE.INTRA.POLAR.0>
0

>  <SCORE.INTRA.REPUL>
0

>  <SCORE.INTRA.REPUL.0>
0

>  <SCORE.INTRA.SOLV>
-0.71061

>  <SCORE.INTRA.SOLV.lig_0>
-77.2465

>  <SCORE.INTRA.VDW>
0.591798

>  <SCORE.INTRA.VDW.0>
-4.16072

>  <SCORE.INTRA.norm>
-0.0348692

>  <SCORE.RESTR>
0

>  <SCORE.RESTR.CAVITY>
0

>  <SCORE.RESTR.norm>
0

>  <SCORE.SYSTEM>
0

>  <SCORE.SYSTEM.CONST>
0

>  <SCORE.SYSTEM.DIHEDRAL>
0

>  <SCORE.SYSTEM.SOLV>
0

>  <SCORE.SYSTEM.norm>
0

>  <SCORE.heavy>
31

>  <SCORE.norm>
-0.538949

>  <RMSD>
0.425

$$$$
ligand
 OpenBabel11021811493D
libRbt.so/2013.1/901 2013/11/27
 31 33  0  0  0  0  0  0  0  0999 V2000
   -6.9629  -10.1221  -17.5092 C   0  0  2  0  0  0  0  0  0  0  0  0
   -5.5829  -10.4616  -17.7015 O   0  0  0  0  0  0  0  0  0  0  0  0
   -1.9852  -10.3718  -15.3837 C   0  0  2  0  0  0  0  0  0  0  0  0
   -0.9170   -9.8816  -14.5672 N   0  0  0  0  0  0  0  0  0  0  0  0
   -2.9481  -10.3409  -12.1290 C   0  0  2  0  0  0  0  0  0  0  0  0
   -7.7940  -11.1711  -18.3282 C   0  0  2  0  0  0  0  0  0  0  0  0
   -7.4748  -12.5186  -17.8697 N   0  0  0  0  0  0  0  0  0  0  0  0
   -1.9970   -9.5712  -16.7427 C   0  0  0  0  0  0  0  0  0  0  0  0
   -2.1173  -11.4484  -11.4103 C   0  0  2  0  0  0  0  0  0  0  0  0
   -0.9744  -11.7492  -12.1928 O   0  0  0  0  0  0  0  0  0  0  0  0
   -7.4834  -11.0174  -19.8578 C   0  0  0  0  0  0  0  0  0  0  0  0
   -3.1789  -10.1221  -17.6521 C   0  0  2  0  0  0  0  0  0  0  0  0
   -3.2009   -9.3757  -18.9318 N   0  0  0  0  0  0  0  0  0  0  0  0
   -3.0616  -12.7228  -11.2673 C   0  0  1  0  0  0  0  0  0  0  0  0
   -2.3261  -13.8565  -10.6109 N   0  0  0  0  0  0  0  0  0  0  0  0
   -7.5468   -9.5234  -20.2885 C   0  0  0  0  0  0  0  0  0  0  0  0
   -4.5652   -9.9471  -16.8863 C   0  0  2  0  0  0  0  0  0  0  0  0
   -4.3569  -12.3295  -10.3614 C   0  0  1  0  0  0  0  0  0  0  0  0
   -3.9892  -11.9087   -9.0619 O   0  0  0  0  0  0  0  0  0  0  0  0
   -7.4424   -8.5384  -19.3837 C   0  0  2  0  0  0  0  0  0  0  0  0
   -7.2714   -8.7742  -17.9752 O   0  0  0  0  0  0  0  0  0  0  0  0
   -4.5080  -10.7393  -15.5134 C   0  0  2  0  0  0  0  0  0  0  0  0
   -5.7412  -10.5696  -14.8033 O   0  0  0  0  0  0  0  0  0  0  0  0
   -5.1260  -11.1489  -11.0447 C   0  0  0  0  0  0  0  0  0  0  0  0
   -4.1700   -9.9994  -11.3156 O   0  0  0  0  0  0  0  0  0  0  0  0
   -7.5058   -7.0480  -19.7916 C   0  0  0  0  0  0  0  0  0  0  0  0
   -6.3328   -6.7106  -20.5858 N   0  0  0  0  0  0  0  0  0  0  0  0
   -3.3340  -10.1847  -14.6280 C   0  0  1  0  0  0  0  0  0  0  0  0
   -3.3122  -10.9139  -13.4243 O   0  0  0  0  0  0  0  0  0  0  0  0
   -5.3767  -13.4569  -10.1301 C   0  0  0  0  0  0  0  0  0  0  0  0
   -1.4968  -14.6977  -11.4946 C   0  0  0  0  0  0  0  0  0  0  0  0
  1  2  1  6  0  0  0
  1  6  1  0  0  0  0
  1 21  1  0  0  0  0
  3  4  1  1  0  0  0
  3  8  1  0  0  0  0
  3 28  1  0  0  0  0
  5  9  1  0  0  0  0
  5 25  1  0  0  0  0
  5 29  1  6  0  0  0
  6  7  1  1  0  0  0
  6 11  1  0  0  0  0
  8 12  1  0  0  0  0
  9 10  1  6  0  0  0
  9 14  1  0  0  0  0
 11 16  1  0  0  0  0
 12 13  1  6  0  0  0
 12 17  1  0  0  0  0
 14 15  1  1  0  0  0
 14 18  1  0  0  0  0
 15 31  1  0  0  0  0
 16 20  1  0  0  0  0
 17  2  1  6  0  0  0
 17 22  1  0  0  0  0
 18 19  1  1  0  0  0
 18 24  1  0  0  0  0
 18 30  1  0  0  0  0
 20 21  1  0  0  0  0
 20 26  1  1  0  0  0
 22 23  1  1  0  0  0
 22 28  1  0  0  0  0
 24 25  1  0  0  0  0
 26 27  1  0  0  0  0
 28 29  1  1  0  0  0
M  END
>  <CHROM.1>
-164.84920703,-141.15953991,-84.01777037,-161.33610785,-67.16951410,95.27593272
-4.51607589,-10.69499111,-15.07475550,1.97532034,-0.19664593,-1.12710887

>  <Name>
ligand

>  <RI>
0

>  <Rbt.Current_Directory>
/home/itssahil/PROJECTS/Mol_Feturizer/New_Systems/rnas/4F8U

>  <Rbt.Executable>
rbdock ($Id: //depot/dev/client3/rdock/2013.1/src/exe/rbdock.cxx#4 $)

>  <Rbt.Library>
libRbt.so (2013.1, Build901 2013/11/27)

>  <Rbt.Parameter_File>
/export/apps/rDock/src/rDock_2013.1_src/data/scripts/dock_solv.prm

>  <Rbt.Receptor>
prm/pocket_docking_2.prm

>  <SCORE>
-16.651

>  <SCORE.INTER>
-15.6882

>  <SCORE.INTER.CONST>
1

>  <SCORE.INTER.POLAR>
0

>  <SCORE.INTER.ROT>
6

>  <SCORE.INTER.SOLV>
21.5179

>  <SCORE.INTER.VDW>
-25.2314

>  <SCORE.INTER.norm>
-0.506071

>  <SCORE.INTRA>
-0.962856

>  <SCORE.INTRA.DIHEDRAL>
-2.37265

>  <SCORE.INTRA.DIHEDRAL.0>
18.77

>  <SCORE.INTRA.POLAR>
0

>  <SCORE.INTRA.POLAR.0>
0

>  <SCORE.INTRA.REPUL>
0

>  <SCORE.INTRA.REPUL.0>
0

>  <SCORE.INTRA.SOLV>
-0.780949

>  <SCORE.INTRA.SOLV.lig_0>
-77.2465

>  <SCORE.INTRA.VDW>
0.613945

>  <SCORE.INTRA.VDW.0>
-4.16072

>  <SCORE.INTRA.norm>
-0.0310599

>  <SCORE.RESTR>
0

>  <SCORE.RESTR.CAVITY>
0

>  <SCORE.RESTR.norm>
0

>  <SCORE.SYSTEM>
0

>  <SCORE.SYSTEM.CONST>
0

>  <SCORE.SYSTEM.DIHEDRAL>
0

>  <SCORE.SYSTEM.SOLV>
0

>  <SCORE.SYSTEM.norm>
0

>  <SCORE.heavy>
31

>  <SCORE.norm>
-0.53713

>  <RMSD>
0.430

$$$$
ligand
 OpenBabel11021811493D
libRbt.so/2013.1/901 2013/11/27
 31 33  0  0  0  0  0  0  0  0999 V2000
   -6.9889  -10.1233  -17.5136 C   0  0  2  0  0  0  0  0  0  0  0  0
   -5.6093  -10.4652  -17.7040 O   0  0  0  0  0  0  0  0  0  0  0  0
   -2.0269  -10.3989  -15.3617 C   0  0  2  0  0  0  0  0  0  0  0  0
   -0.9599   -9.9150  -14.5400 N   0  0  0  0  0  0  0  0  0  0  0  0
   -2.9832  -10.3521  -12.1188 C   0  0  2  0  0  0  0  0  0  0  0  0
   -7.8206  -11.1674  -18.3384 C   0  0  2  0  0  0  0  0  0  0  0  0
   -7.5055  -12.5173  -17.8840 N   0  0  0  0  0  0  0  0  0  0  0  0
   -2.0218   -9.6043  -16.7243 C   0  0  0  0  0  0  0  0  0  0  0  0
   -2.1380  -11.4624  -11.4215 C   0  0  2  0  0  0  0  0  0  0  0  0
   -1.0106  -11.7591  -12.2276 O   0  0  0  0  0  0  0  0  0  0  0  0
   -7.5060  -11.0088  -19.8667 C   0  0  0  0  0  0  0  0  0  0  0  0
   -3.2026  -10.1481  -17.6394 C   0  0  2  0  0  0  0  0  0  0  0  0
   -3.2087   -9.4074  -18.9225 N   0  0  0  0  0  0  0  0  0  0  0  0
   -3.0788  -12.7378  -11.2654 C   0  0  1  0  0  0  0  0  0  0  0  0
   -2.3299  -13.8740  -10.6286 N   0  0  0  0  0  0  0  0  0  0  0  0
   -7.5650   -9.5131  -20.2921 C   0  0  0  0  0  0  0  0  0  0  0  0
   -4.5924   -9.9567  -16.8840 C   0  0  2  0  0  0  0  0  0  0  0  0
   -4.3561  -12.3492  -10.3325 C   0  0  1  0  0  0  0  0  0  0  0  0
   -3.9631  -11.9338   -9.0387 O   0  0  0  0  0  0  0  0  0  0  0  0
   -7.4604   -8.5317  -19.3835 C   0  0  2  0  0  0  0  0  0  0  0  0
   -7.2933   -8.7730  -17.9754 O   0  0  0  0  0  0  0  0  0  0  0  0
   -4.5521  -10.7432  -15.5073 C   0  0  2  0  0  0  0  0  0  0  0  0
   -5.7886  -10.5588  -14.8064 O   0  0  0  0  0  0  0  0  0  0  0  0
   -5.1390  -11.1660  -10.9954 C   0  0  0  0  0  0  0  0  0  0  0  0
   -4.1890  -10.0148  -11.2800 O   0  0  0  0  0  0  0  0  0  0  0  0
   -7.5194   -7.0397  -19.7861 C   0  0  0  0  0  0  0  0  0  0  0  0
   -6.2479   -6.6440  -20.3753 N   0  0  0  0  0  0  0  0  0  0  0  0
   -3.3791  -10.1957  -14.6162 C   0  0  1  0  0  0  0  0  0  0  0  0
   -3.3725  -10.9197  -13.4092 O   0  0  0  0  0  0  0  0  0  0  0  0
   -5.3707  -13.4781  -10.0861 C   0  0  0  0  0  0  0  0  0  0  0  0
   -1.4913  -14.6904  -11.5267 C   0  0  0  0  0  0  0  0  0  0  0  0
  1  2  1  6  0  0  0
  1  6  1  0  0  0  0
  1 21  1  0  0  0  0
  3  4  1  1  0  0  0
  3  8  1  0  0  0  0
  3 28  1  0  0  0  0
  5  9  1  0  0  0  0
  5 25  1  0  0  0  0
  5 29  1  6  0  0  0
  6  7  1  1  0  0  0
  6 11  1  0  0  0  0
  8 12  1  0  0  0  0
  9 10  1  6  0  0  0
  9 14  1  0  0  0  0
 11 16  1  0  0  0  0
 12 13  1  6  0  0  0
 12 17  1  0  0  0  0
 14 15  1  1  0  0  0
 14 18  1  0  0  0  0
 15 31  1  0  0  0  0
 16 20  1  0  0  0  0
 17  2  1  6  0  0  0
 17 22  1  0  0  0  0
 18 19  1  1  0  0  0
 18 24  1  0  0  0  0
 18 30  1  0  0  0  0
 20 21  1  0  0  0  0
 20 26  1  1  0  0  0
 22 23  1  1  0  0  0
 22 28  1  0  0  0  0
 24 25  1  0  0  0  0
 26 27  1  0  0  0  0
 28 29  1  1  0  0  0
M  END
>  <CHROM.1>
-164.80989893,-139.13898304,-82.53841855,-162.02718803,-76.79122449,93.85136447
-4.53507949,-10.70218522,-15.06227467,1.97514356,-0.19311818,-1.12670514

>  <Name>
ligand

>  <RI>
0

>  <Rbt.Current_Directory>
/home/itssahil/PROJECTS/Mol_Feturizer/New_Systems/rnas/4F8U

>  <Rbt.Executable>
rbdock ($Id: //depot/dev/client3/rdock/2013.1/src/exe/rbdock.cxx#4 $)

>  <Rbt.Library>
libRbt.so (2013.1, Build901 2013/11/27)

>  <Rbt.Parameter_File>
/export/apps/rDock/src/rDock_2013.1_src/data/scripts/dock_solv.prm

>  <Rbt.Receptor>
prm/pocket_docking_2.prm

>  <SCORE>
-16.6738

>  <SCORE.INTER>
-15.5682

>  <SCORE.INTER.CONST>
1

>  <SCORE.INTER.POLAR>
0

>  <SCORE.INTER.ROT>
6

>  <SCORE.INTER.SOLV>
22.0979

>  <SCORE.INTER.VDW>
-25.3448

>  <SCORE.INTER.norm>
-0.5022

>  <SCORE.INTRA>
-1.10564

>  <SCORE.INTRA.DIHEDRAL>
-2.7288

>  <SCORE.INTRA.DIHEDRAL.0>
18.77

>  <SCORE.INTRA.POLAR>
0

>  <SCORE.INTRA.POLAR.0>
0

>  <SCORE.INTRA.REPUL>
0

>  <SCORE.INTRA.REPUL.0>
0

>  <SCORE.INTRA.SOLV>
-0.704757

>  <SCORE.INTRA.SOLV.lig_0>
-77.2465

>  <SCORE.INTRA.VDW>
0.611139

>  <SCORE.INTRA.VDW.0>
-4.16072

>  <SCORE.INTRA.norm>
-0.0356658

>  <SCORE.RESTR>
0

>  <SCORE.RESTR.CAVITY>
0

>  <SCORE.RESTR.norm>
0

>  <SCORE.SYSTEM>
0

>  <SCORE.SYSTEM.CONST>
0

>  <SCORE.SYSTEM.DIHEDRAL>
0

>  <SCORE.SYSTEM.SOLV>
0

>  <SCORE.SYSTEM.norm>
0

>  <SCORE.heavy>
31

>  <SCORE.norm>
-0.537866

>  <RMSD>
0.433

$$$$
ligand
 OpenBabel11021811493D
libRbt.so/2013.1/901 2013/11/27
 31 33  0  0  0  0  0  0  0  0999 V2000
   -6.9646  -10.1287  -17.5037 C   0  0  2  0  0  0  0  0  0  0  0  0
   -5.5831  -10.4572  -17.7035 O   0  0  0  0  0  0  0  0  0  0  0  0
   -2.0101  -10.3987  -15.3467 C   0  0  2  0  0  0  0  0  0  0  0  0
   -0.9440   -9.9166  -14.5228 N   0  0  0  0  0  0  0  0  0  0  0  0
   -2.9893  -10.3293  -12.1063 C   0  0  2  0  0  0  0  0  0  0  0  0
   -7.7916  -11.1774  -18.3273 C   0  0  2  0  0  0  0  0  0  0  0  0
   -7.4614  -12.5259  -17.8800 N   0  0  0  0  0  0  0  0  0  0  0  0
   -1.9953   -9.6104  -16.7129 C   0  0  0  0  0  0  0  0  0  0  0  0
   -2.1501  -11.4356  -11.3956 C   0  0  2  0  0  0  0  0  0  0  0  0
   -1.0152  -11.7359  -12.1897 O   0  0  0  0  0  0  0  0  0  0  0  0
   -7.4876  -11.0102  -19.8569 C   0  0  0  0  0  0  0  0  0  0  0  0
   -3.1750  -10.1523  -17.6304 C   0  0  2  0  0  0  0  0  0  0  0  0
   -3.1720   -9.4174  -18.9168 N   0  0  0  0  0  0  0  0  0  0  0  0
   -3.0918  -12.7107  -11.2419 C   0  0  1  0  0  0  0  0  0  0  0  0
   -2.3484  -13.8433  -10.5924 N   0  0  0  0  0  0  0  0  0  0  0  0
   -7.5629   -9.5136  -20.2763 C   0  0  0  0  0  0  0  0  0  0  0  0
   -4.5670   -9.9502  -16.8817 C   0  0  2  0  0  0  0  0  0  0  0  0
   -4.3779  -12.3179  -10.3228 C   0  0  1  0  0  0  0  0  0  0  0  0
   -3.9971  -11.8958   -9.0275 O   0  0  0  0  0  0  0  0  0  0  0  0
   -7.4619   -8.5346  -19.3647 C   0  0  2  0  0  0  0  0  0  0  0  0
   -7.2841   -8.7795  -17.9586 O   0  0  0  0  0  0  0  0  0  0  0  0
   -4.5364  -10.7306  -15.5012 C   0  0  2  0  0  0  0  0  0  0  0  0
   -5.7748  -10.5366  -14.8063 O   0  0  0  0  0  0  0  0  0  0  0  0
   -5.1551  -11.1384  -10.9989 C   0  0  0  0  0  0  0  0  0  0  0  0
   -4.2030   -9.9882  -11.2805 O   0  0  0  0  0  0  0  0  0  0  0  0
   -7.5370   -7.0417  -19.7613 C   0  0  0  0  0  0  0  0  0  0  0  0
   -6.2937   -6.6471  -20.4087 N   0  0  0  0  0  0  0  0  0  0  0  0
   -3.3643  -10.1851  -14.6078 C   0  0  1  0  0  0  0  0  0  0  0  0
   -3.3664  -10.9035  -13.3974 O   0  0  0  0  0  0  0  0  0  0  0  0
   -5.3942  -13.4460  -10.0801 C   0  0  0  0  0  0  0  0  0  0  0  0
   -1.5570  -14.7066  -11.4893 C   0  0  0  0  0  0  0  0  0  0  0  0
  1  2  1  6  0  0  0
  1  6  1  0  0  0  0
  1 21  1  0  0  0  0
  3  4  1  1  0  0  0
  3  8  1  0  0  0  0
  3 28  1  0  0  0  0
  5  9  1  0  0  0  0
  5 25  1  0  0  0  0
  5 29  1  6  0  0  0
  6  7  1  1  0  0  0
  6 11  1  0  0  0  0
  8 12  1  0  0  0  0
  9 10  1  6  0  0  0
  9 14  1  0  0  0  0
 11 16  1  0  0  0  0
 12 13  1  6  0  0  0
 12 17  1  0  0  0  0
 14 15  1  1  0  0  0
 14 18  1  0  0  0  0
 15 31  1  0  0  0  0
 16 20  1  0  0  0  0
 17  2  1  6  0  0  0
 17 22  1  0  0  0  0
 18 19  1  1  0  0  0
 18 24  1  0  0  0  0
 18 30  1  0  0  0  0
 20 21  1  0  0  0  0
 20 26  1  1  0  0  0
 22 23  1  1  0  0  0
 22 28  1  0  0  0  0
 24 25  1  0  0  0  0
 26 27  1  0  0  0  0
 28 29  1  1  0  0  0
M  END
>  <CHROM.1>
-164.33071278,-139.24885023,-85.62487956,-163.32063226,-74.36224292,94.33920871
-4.53358784,-10.69280866,-15.05061378,1.97207044,-0.18825298,-1.13240388

>  <Name>
ligand

>  <RI>
0

>  <Rbt.Current_Directory>
/home/itssahil/PROJECTS/Mol_Feturizer/New_Systems/rnas/4F8U

>  <Rbt.Executable>
rbdock ($Id: //depot/dev/client3/rdock/2013.1/src/exe/rbdock.cxx#4 $)

>  <Rbt.Library>
libRbt.so (2013.1, Build901 2013/11/27)

>  <Rbt.Parameter_File>
/export/apps/rDock/src/rDock_2013.1_src/data/scripts/dock_solv.prm

>  <Rbt.Receptor>
prm/pocket_docking_2.prm

>  <SCORE>
-16.7307

>  <SCORE.INTER>
-15.5631

>  <SCORE.INTER.CONST>
1

>  <SCORE.INTER.POLAR>
0

>  <SCORE.INTER.ROT>
6

>  <SCORE.INTER.SOLV>
22.1282

>  <SCORE.INTER.VDW>
-25.3514

>  <SCORE.INTER.norm>
-0.502034

>  <SCORE.INTRA>
-1.1687

>  <SCORE.INTRA.DIHEDRAL>
-2.60194

>  <SCORE.INTRA.DIHEDRAL.0>
18.77

>  <SCORE.INTRA.POLAR>
0

>  <SCORE.INTRA.POLAR.0>
0

>  <SCORE.INTRA.REPUL>
0

>  <SCORE.INTRA.REPUL.0>
0

>  <SCORE.INTRA.SOLV>
-0.838425

>  <SCORE.INTRA.SOLV.lig_0>
-77.2465

>  <SCORE.INTRA.VDW>
0.551484

>  <SCORE.INTRA.VDW.0>
-4.16072

>  <SCORE.INTRA.norm>
-0.0376999

>  <SCORE.RESTR>
0.00107199

>  <SCORE.RESTR.CAVITY>
0.00107199

>  <SCORE.RESTR.norm>
3.45803e-05

>  <SCORE.SYSTEM>
0

>  <SCORE.SYSTEM.CONST>
0

>  <SCORE.SYSTEM.DIHEDRAL>
0

>  <SCORE.SYSTEM.SOLV>
0

>  <SCORE.SYSTEM.norm>
0

>  <SCORE.heavy>
31

>  <SCORE.norm>
-0.5397

>  <RMSD>
0.435

$$$$
ligand
 OpenBabel11021811493D
libRbt.so/2013.1/901 2013/11/27
 31 33  0  0  0  0  0  0  0  0999 V2000
   -6.9810  -10.1336  -17.4999 C   0  0  2  0  0  0  0  0  0  0  0  0
   -5.5999  -10.4699  -17.6901 O   0  0  0  0  0  0  0  0  0  0  0  0
   -2.0136  -10.3781  -15.3549 C   0  0  2  0  0  0  0  0  0  0  0  0
   -0.9481   -9.8866  -14.5356 N   0  0  0  0  0  0  0  0  0  0  0  0
   -2.9839  -10.3291  -12.1066 C   0  0  2  0  0  0  0  0  0  0  0  0
   -7.8081  -11.1795  -18.3269 C   0  0  2  0  0  0  0  0  0  0  0  0
   -7.4881  -12.5290  -17.8747 N   0  0  0  0  0  0  0  0  0  0  0  0
   -2.0162   -9.5848  -16.7182 C   0  0  0  0  0  0  0  0  0  0  0  0
   -2.1451  -11.4320  -11.3902 C   0  0  2  0  0  0  0  0  0  0  0  0
   -1.0048  -11.7294  -12.1776 O   0  0  0  0  0  0  0  0  0  0  0  0
   -7.4934  -11.0170  -19.8547 C   0  0  0  0  0  0  0  0  0  0  0  0
   -3.1952  -10.1372  -17.6305 C   0  0  2  0  0  0  0  0  0  0  0  0
   -3.2086   -9.3976  -18.9142 N   0  0  0  0  0  0  0  0  0  0  0  0
   -3.0835  -12.7100  -11.2404 C   0  0  1  0  0  0  0  0  0  0  0  0
   -2.3401  -13.8396  -10.5857 N   0  0  0  0  0  0  0  0  0  0  0  0
   -7.5580   -9.5209  -20.2775 C   0  0  0  0  0  0  0  0  0  0  0  0
   -4.5848   -9.9540  -16.8726 C   0  0  2  0  0  0  0  0  0  0  0  0
   -4.3760  -12.3205  -10.3289 C   0  0  1  0  0  0  0  0  0  0  0  0
   -4.0038  -11.8960   -9.0320 O   0  0  0  0  0  0  0  0  0  0  0  0
   -7.4577   -8.5406  -19.3672 C   0  0  2  0  0  0  0  0  0  0  0  0
   -7.2903   -8.7837  -17.9595 O   0  0  0  0  0  0  0  0  0  0  0  0
   -4.5367  -10.7390  -15.4952 C   0  0  2  0  0  0  0  0  0  0  0  0
   -5.7730  -10.5619  -14.7921 O   0  0  0  0  0  0  0  0  0  0  0  0
   -5.1532  -11.1443  -11.0105 C   0  0  0  0  0  0  0  0  0  0  0  0
   -4.2033   -9.9912  -11.2879 O   0  0  0  0  0  0  0  0  0  0  0  0
   -7.5222   -7.0481  -19.7673 C   0  0  0  0  0  0  0  0  0  0  0  0
   -6.2829   -6.6682  -20.4306 N   0  0  0  0  0  0  0  0  0  0  0  0
   -3.3656  -10.1831  -14.6069 C   0  0  1  0  0  0  0  0  0  0  0  0
   -3.3519  -10.9058  -13.3992 O   0  0  0  0  0  0  0  0  0  0  0  0
   -5.3900  -13.4517  -10.0909 C   0  0  0  0  0  0  0  0  0  0  0  0
   -1.5463  -14.7053  -11.4783 C   0  0  0  0  0  0  0  0  0  0  0  0
  1  2  1  6  0  0  0
  1  6  1  0  0  0  0
  1 21  1  0  0  0  0
  3  4  1  1  0  0  0
  3  8  1  0  0  0  0
  3 28  1  0  0  0  0
  5  9  1  0  0  0  0
  5 25  1  0  0  0  0
  5 29  1  6  0  0  0
  6  7  1  1  0  0  0
  6 11  1  0  0  0  0
  8 12  1  0  0  0  0
  9 10  1  6  0  0  0
  9 14  1  0  0  0  0
 11 16  1  0  0  0  0
 12 13  1  6  0  0  0
 12 17  1  0  0  0  0
 14 15  1  1  0  0  0
 14 18  1  0  0  0  0
 15 31  1  0  0  0  0
 16 20  1  0  0  0  0
 17  2  1  6  0  0  0
 17 22  1  0  0  0  0
 18 19  1  1  0  0  0
 18 24  1  0  0  0  0
 18 30  1  0  0  0  0
 20 21  1  0  0  0  0
 20 26  1  1  0  0  0
 22 23  1  1  0  0  0
 22 28  1  0  0  0  0
 24 25  1  0  0  0  0
 26 27  1  0  0  0  0
 28 29  1  1  0  0  0
M  END
>  <CHROM.1>
-165.11174386,-140.28957728,-85.92464715,-161.83855182,-73.26579968,94.84760636
-4.53642951,-10.69312363,-15.05072064,1.97384106,-0.19915538,-1.12813964

>  <Name>
ligand

>  <RI>
0

>  <Rbt.Current_Directory>
/home/itssahil/PROJECTS/Mol_Feturizer/New_Systems/rnas/4F8U

>  <Rbt.Executable>
rbdock ($Id: //depot/dev/client3/rdock/2013.1/src/exe/rbdock.cxx#4 $)

>  <Rbt.Library>
libRbt.so (2013.1, Build901 2013/11/27)

>  <Rbt.Parameter_File>
/export/apps/rDock/src/rDock_2013.1_src/data/scripts/dock_solv.prm

>  <Rbt.Receptor>
prm/pocket_docking_2.prm

>  <SCORE>
-16.7185

>  <SCORE.INTER>
-15.5809

>  <SCORE.INTER.CONST>
1

>  <SCORE.INTER.POLAR>
0

>  <SCORE.INTER.ROT>
6

>  <SCORE.INTER.SOLV>
22.0478

>  <SCORE.INTER.VDW>
-25.3365

>  <SCORE.INTER.norm>
-0.502609

>  <SCORE.INTRA>
-1.1376

>  <SCORE.INTRA.DIHEDRAL>
-2.51659

>  <SCORE.INTRA.DIHEDRAL.0>
18.77

>  <SCORE.INTRA.POLAR>
0

>  <SCORE.INTRA.POLAR.0>
0

>  <SCORE.INTRA.REPUL>
0

>  <SCORE.INTRA.REPUL.0>
0

>  <SCORE.INTRA.SOLV>
-0.784617

>  <SCORE.INTRA.SOLV.lig_0>
-77.2465

>  <SCORE.INTRA.VDW>
0.513

>  <SCORE.INTRA.VDW.0>
-4.16072

>  <SCORE.INTRA.norm>
-0.0366969

>  <SCORE.RESTR>
0

>  <SCORE.RESTR.CAVITY>
0

>  <SCORE.RESTR.norm>
0

>  <SCORE.SYSTEM>
0

>  <SCORE.SYSTEM.CONST>
0

>  <SCORE.SYSTEM.DIHEDRAL>
0

>  <SCORE.SYSTEM.SOLV>
0

>  <SCORE.SYSTEM.norm>
0

>  <SCORE.heavy>
31

>  <SCORE.norm>
-0.539306

>  <RMSD>
0.436

$$$$
ligand
 OpenBabel11021811493D
libRbt.so/2013.1/901 2013/11/27
 31 33  0  0  0  0  0  0  0  0999 V2000
   -6.9721  -10.0946  -17.5278 C   0  0  2  0  0  0  0  0  0  0  0  0
   -5.5953  -10.4513  -17.7111 O   0  0  0  0  0  0  0  0  0  0  0  0
   -1.9837  -10.3583  -15.4151 C   0  0  2  0  0  0  0  0  0  0  0  0
   -0.9126   -9.8677  -14.6028 N   0  0  0  0  0  0  0  0  0  0  0  0
   -2.9278  -10.3466  -12.1542 C   0  0  2  0  0  0  0  0  0  0  0  0
   -7.8122  -11.1482  -18.3318 C   0  0  2  0  0  0  0  0  0  0  0  0
   -7.5079  -12.4913  -17.8506 N   0  0  0  0  0  0  0  0  0  0  0  0
   -2.0071   -9.5512  -16.7701 C   0  0  0  0  0  0  0  0  0  0  0  0
   -2.1071  -11.4621  -11.4363 C   0  0  2  0  0  0  0  0  0  0  0  0
   -0.9666  -11.7722  -12.2187 O   0  0  0  0  0  0  0  0  0  0  0  0
   -7.4963  -11.0225  -19.8629 C   0  0  0  0  0  0  0  0  0  0  0  0
   -3.1924  -10.1025  -17.6748 C   0  0  2  0  0  0  0  0  0  0  0  0
   -3.2252   -9.3501  -18.9507 N   0  0  0  0  0  0  0  0  0  0  0  0
   -3.0627  -12.7283  -11.2949 C   0  0  1  0  0  0  0  0  0  0  0  0
   -2.3373  -13.8691  -10.6393 N   0  0  0  0  0  0  0  0  0  0  0  0
   -7.5433   -9.5352  -20.3179 C   0  0  0  0  0  0  0  0  0  0  0  0
   -4.5747   -9.9368  -16.8997 C   0  0  2  0  0  0  0  0  0  0  0  0
   -4.3547  -12.3245  -10.3890 C   0  0  1  0  0  0  0  0  0  0  0  0
   -3.9838  -11.9081   -9.0890 O   0  0  0  0  0  0  0  0  0  0  0  0
   -7.4308   -8.5368  -19.4290 C   0  0  2  0  0  0  0  0  0  0  0  0
   -7.2656   -8.7513  -18.0164 O   0  0  0  0  0  0  0  0  0  0  0  0
   -4.5058  -10.7353  -15.5311 C   0  0  2  0  0  0  0  0  0  0  0  0
   -5.7353  -10.5740  -14.8125 O   0  0  0  0  0  0  0  0  0  0  0  0
   -5.1131  -11.1365  -11.0715 C   0  0  0  0  0  0  0  0  0  0  0  0
   -4.1470   -9.9951  -11.3408 O   0  0  0  0  0  0  0  0  0  0  0  0
   -7.4779   -7.0526  -19.8613 C   0  0  0  0  0  0  0  0  0  0  0  0
   -6.4099   -6.7897  -20.8156 N   0  0  0  0  0  0  0  0  0  0  0  0
   -3.3286  -10.1803  -14.6502 C   0  0  1  0  0  0  0  0  0  0  0  0
   -3.2965  -10.9151  -13.4502 O   0  0  0  0  0  0  0  0  0  0  0  0
   -5.3845  -13.4430  -10.1592 C   0  0  0  0  0  0  0  0  0  0  0  0
   -1.5420  -14.7366  -11.5287 C   0  0  0  0  0  0  0  0  0  0  0  0
  1  2  1  6  0  0  0
  1  6  1  0  0  0  0
  1 21  1  0  0  0  0
  3  4  1  1  0  0  0
  3  8  1  0  0  0  0
  3 28  1  0  0  0  0
  5  9  1  0  0  0  0
  5 25  1  0  0  0  0
  5 29  1  6  0  0  0
  6  7  1  1  0  0  0
  6 11  1  0  0  0  0
  8 12  1  0  0  0  0
  9 10  1  6  0  0  0
  9 14  1  0  0  0  0
 11 16  1  0  0  0  0
 12 13  1  6  0  0  0
 12 17  1  0  0  0  0
 14 15  1  1  0  0  0
 14 18  1  0  0  0  0
 15 31  1  0  0  0  0
 16 20  1  0  0  0  0
 17  2  1  6  0  0  0
 17 22  1  0  0  0  0
 18 19  1  1  0  0  0
 18 24  1  0  0  0  0
 18 30  1  0  0  0  0
 20 21  1  0  0  0  0
 20 26  1  1  0  0  0
 22 23  1  1  0  0  0
 22 28  1  0  0  0  0
 24 25  1  0  0  0  0
 26 27  1  0  0  0  0
 28 29  1  1  0  0  0
M  END
>  <CHROM.1>
-164.68927417,-142.04121941,-85.48047063,-159.88720993,-58.86390648,95.33147384
-4.51982301,-10.69346237,-15.10572966,1.97516082,-0.19985317,-1.12552337

>  <Name>
ligand

>  <RI>
0

>  <Rbt.Current_Directory>
/home/itssahil/PROJECTS/Mol_Feturizer/New_Systems/rnas/4F8U

>  <Rbt.Executable>
rbdock ($Id: //depot/dev/client3/rdock/2013.1/src/exe/rbdock.cxx#4 $)

>  <Rbt.Library>
libRbt.so (2013.1, Build901 2013/11/27)

>  <Rbt.Parameter_File>
/export/apps/rDock/src/rDock_2013.1_src/data/scripts/dock_solv.prm

>  <Rbt.Receptor>
prm/pocket_docking_2.prm

>  <SCORE>
-16.5632

>  <SCORE.INTER>
-15.7533

>  <SCORE.INTER.CONST>
1

>  <SCORE.INTER.POLAR>
0

>  <SCORE.INTER.ROT>
6

>  <SCORE.INTER.SOLV>
20.8715

>  <SCORE.INTER.VDW>
-25.0594

>  <SCORE.INTER.norm>
-0.508172

>  <SCORE.INTRA>
-0.809853

>  <SCORE.INTRA.DIHEDRAL>
-2.14931

>  <SCORE.INTRA.DIHEDRAL.0>
18.77

>  <SCORE.INTRA.POLAR>
0

>  <SCORE.INTRA.POLAR.0>
0

>  <SCORE.INTRA.REPUL>
0

>  <SCORE.INTRA.REPUL.0>
0

>  <SCORE.INTRA.SOLV>
-0.696435

>  <SCORE.INTRA.SOLV.lig_0>
-77.2465

>  <SCORE.INTRA.VDW>
0.613018

>  <SCORE.INTRA.VDW.0>
-4.16072

>  <SCORE.INTRA.norm>
-0.0261243

>  <SCORE.RESTR>
0

>  <SCORE.RESTR.CAVITY>
0

>  <SCORE.RESTR.norm>
0

>  <SCORE.SYSTEM>
0

>  <SCORE.SYSTEM.CONST>
0

>  <SCORE.SYSTEM.DIHEDRAL>
0

>  <SCORE.SYSTEM.SOLV>
0

>  <SCORE.SYSTEM.norm>
0

>  <SCORE.heavy>
31

>  <SCORE.norm>
-0.534296

>  <RMSD>
0.436

$$$$
ligand
 OpenBabel11021811493D
libRbt.so/2013.1/901 2013/11/27
 31 33  0  0  0  0  0  0  0  0999 V2000
   -6.9227  -10.0379  -17.5700 C   0  0  2  0  0  0  0  0  0  0  0  0
   -5.5484  -10.3808  -17.7941 O   0  0  0  0  0  0  0  0  0  0  0  0
   -1.9108  -10.3203  -15.5384 C   0  0  2  0  0  0  0  0  0  0  0  0
   -0.8237   -9.8383  -14.7422 N   0  0  0  0  0  0  0  0  0  0  0  0
   -2.7927  -10.2734  -12.2726 C   0  0  2  0  0  0  0  0  0  0  0  0
   -7.7758  -11.1150  -18.3277 C   0  0  2  0  0  0  0  0  0  0  0  0
   -7.4384  -12.4460  -17.8354 N   0  0  0  0  0  0  0  0  0  0  0  0
   -1.9374   -9.5249  -16.9002 C   0  0  0  0  0  0  0  0  0  0  0  0
   -2.0170  -11.4184  -11.5511 C   0  0  2  0  0  0  0  0  0  0  0  0
   -0.9060  -11.7957  -12.3461 O   0  0  0  0  0  0  0  0  0  0  0  0
   -7.5134  -11.0111  -19.8705 C   0  0  0  0  0  0  0  0  0  0  0  0
   -3.1404  -10.0667  -17.7870 C   0  0  2  0  0  0  0  0  0  0  0  0
   -3.1764   -9.3251  -19.0692 N   0  0  0  0  0  0  0  0  0  0  0  0
   -3.0319  -12.6332  -11.3766 C   0  0  1  0  0  0  0  0  0  0  0  0
   -2.3538  -13.7996  -10.7156 N   0  0  0  0  0  0  0  0  0  0  0  0
   -7.5947   -9.5323  -20.3479 C   0  0  0  0  0  0  0  0  0  0  0  0
   -4.5115   -9.8741  -16.9984 C   0  0  2  0  0  0  0  0  0  0  0  0
   -4.2877  -12.1529  -10.4573 C   0  0  1  0  0  0  0  0  0  0  0  0
   -3.8760  -11.7376   -9.1693 O   0  0  0  0  0  0  0  0  0  0  0  0
   -7.4651   -8.5178  -19.4797 C   0  0  2  0  0  0  0  0  0  0  0  0
   -7.2496   -8.7067  -18.0702 O   0  0  0  0  0  0  0  0  0  0  0  0
   -4.4391  -10.6615  -15.6235 C   0  0  2  0  0  0  0  0  0  0  0  0
   -5.6582  -10.4760  -14.8931 O   0  0  0  0  0  0  0  0  0  0  0  0
   -4.9970  -10.9382  -11.1454 C   0  0  0  0  0  0  0  0  0  0  0  0
   -3.9798   -9.8503  -11.4461 O   0  0  0  0  0  0  0  0  0  0  0  0
   -7.5456   -7.0418  -19.9342 C   0  0  0  0  0  0  0  0  0  0  0  0
   -6.2066   -6.5481  -20.2237 N   0  0  0  0  0  0  0  0  0  0  0  0
   -3.2444  -10.1160  -14.7605 C   0  0  1  0  0  0  0  0  0  0  0  0
   -3.2097  -10.8407  -13.5545 O   0  0  0  0  0  0  0  0  0  0  0  0
   -5.3680  -13.2155  -10.1954 C   0  0  0  0  0  0  0  0  0  0  0  0
   -1.6229  -14.7221  -11.6050 C   0  0  0  0  0  0  0  0  0  0  0  0
  1  2  1  6  0  0  0
  1  6  1  0  0  0  0
  1 21  1  0  0  0  0
  3  4  1  1  0  0  0
  3  8  1  0  0  0  0
  3 28  1  0  0  0  0
  5  9  1  0  0  0  0
  5 25  1  0  0  0  0
  5 29  1  6  0  0  0
  6  7  1  1  0  0  0
  6 11  1  0  0  0  0
  8 12  1  0  0  0  0
  9 10  1  6  0  0  0
  9 14  1  0  0  0  0
 11 16  1  0  0  0  0
 12 13  1  6  0  0  0
 12 17  1  0  0  0  0
 14 15  1  1  0  0  0
 14 18  1  0  0  0  0
 15 31  1  0  0  0  0
 16 20  1  0  0  0  0
 17  2  1  6  0  0  0
 17 22  1  0  0  0  0
 18 19  1  1  0  0  0
 18 24  1  0  0  0  0
 18 30  1  0  0  0  0
 20 21  1  0  0  0  0
 20 26  1  1  0  0  0
 22 23  1  1  0  0  0
 22 28  1  0  0  0  0
 24 25  1  0  0  0  0
 26 27  1  0  0  0  0
 28 29  1  1  0  0  0
M  END
>  <CHROM.1>
-162.56694979,-143.08187074,-85.80370432,-162.06260524,-92.90806082,94.04053796
-4.46617787,-10.62034878,-15.16401851,1.98414841,-0.19121000,-1.12922368

>  <Name>
ligand

>  <RI>
0

>  <Rbt.Current_Directory>
/home/itssahil/PROJECTS/Mol_Feturizer/New_Systems/rnas/4F8U

>  <Rbt.Executable>
rbdock ($Id: //depot/dev/client3/rdock/2013.1/src/exe/rbdock.cxx#4 $)

>  <Rbt.Library>
libRbt.so (2013.1, Build901 2013/11/27)

>  <Rbt.Parameter_File>
/export/apps/rDock/src/rDock_2013.1_src/data/scripts/dock_solv.prm

>  <Rbt.Receptor>
prm/pocket_docking_3.prm

>  <SCORE>
-16.7255

>  <SCORE.INTER>
-14.9731

>  <SCORE.INTER.CONST>
1

>  <SCORE.INTER.POLAR>
0

>  <SCORE.INTER.ROT>
6

>  <SCORE.INTER.SOLV>
23.1243

>  <SCORE.INTER.VDW>
-25.2901

>  <SCORE.INTER.norm>
-0.483002

>  <SCORE.INTRA>
-1.75239

>  <SCORE.INTRA.DIHEDRAL>
-3.70381

>  <SCORE.INTRA.DIHEDRAL.0>
18.77

>  <SCORE.INTRA.POLAR>
0

>  <SCORE.INTRA.POLAR.0>
0

>  <SCORE.INTRA.REPUL>
0

>  <SCORE.INTRA.REPUL.0>
0

>  <SCORE.INTRA.SOLV>
-0.670164

>  <SCORE.INTRA.SOLV.lig_0>
-77.2465

>  <SCORE.INTRA.VDW>
0.434595

>  <SCORE.INTRA.VDW.0>
-4.16072

>  <SCORE.INTRA.norm>
-0.0565288

>  <SCORE.RESTR>
0

>  <SCORE.RESTR.CAVITY>
0

>  <SCORE.RESTR.norm>
0

>  <SCORE.SYSTEM>
0

>  <SCORE.SYSTEM.CONST>
0

>  <SCORE.SYSTEM.DIHEDRAL>
0

>  <SCORE.SYSTEM.SOLV>
0

>  <SCORE.SYSTEM.norm>
0

>  <SCORE.heavy>
31

>  <SCORE.norm>
-0.539531

>  <RMSD>
0.439

$$$$
ligand
 OpenBabel11021811493D
libRbt.so/2013.1/901 2013/11/27
 31 33  0  0  0  0  0  0  0  0999 V2000
   -6.9715  -10.1396  -17.4882 C   0  0  2  0  0  0  0  0  0  0  0  0
   -5.5916  -10.4761  -17.6856 O   0  0  0  0  0  0  0  0  0  0  0  0
   -1.9693  -10.3532  -15.4080 C   0  0  2  0  0  0  0  0  0  0  0  0
   -0.8981   -9.8537  -14.6011 N   0  0  0  0  0  0  0  0  0  0  0  0
   -2.9100  -10.3460  -12.1400 C   0  0  2  0  0  0  0  0  0  0  0  0
   -7.8034  -11.1866  -18.3090 C   0  0  2  0  0  0  0  0  0  0  0  0
   -7.4808  -12.5354  -17.8567 N   0  0  0  0  0  0  0  0  0  0  0  0
   -2.0062   -9.5465  -16.7629 C   0  0  0  0  0  0  0  0  0  0  0  0
   -2.1007  -11.4603  -11.4074 C   0  0  2  0  0  0  0  0  0  0  0  0
   -0.9534  -11.7788  -12.1762 O   0  0  0  0  0  0  0  0  0  0  0  0
   -7.4972  -11.0263  -19.8388 C   0  0  0  0  0  0  0  0  0  0  0  0
   -3.1915  -10.1075  -17.6616 C   0  0  2  0  0  0  0  0  0  0  0  0
   -3.2370   -9.3555  -18.9373 N   0  0  0  0  0  0  0  0  0  0  0  0
   -3.0622  -12.7222  -11.2685 C   0  0  1  0  0  0  0  0  0  0  0  0
   -2.3477  -13.8617  -10.5990 N   0  0  0  0  0  0  0  0  0  0  0  0
   -7.5641   -9.5307  -20.2634 C   0  0  0  0  0  0  0  0  0  0  0  0
   -4.5711   -9.9531  -16.8794 C   0  0  2  0  0  0  0  0  0  0  0  0
   -4.3620  -12.3086  -10.3783 C   0  0  1  0  0  0  0  0  0  0  0  0
   -4.0030  -11.8861   -9.0769 O   0  0  0  0  0  0  0  0  0  0  0  0
   -7.4587   -8.5492  -19.3551 C   0  0  2  0  0  0  0  0  0  0  0  0
   -7.2834   -8.7903  -17.9480 O   0  0  0  0  0  0  0  0  0  0  0  0
   -4.4887  -10.7509  -15.5111 C   0  0  2  0  0  0  0  0  0  0  0  0
   -5.7159  -10.5997  -14.7864 O   0  0  0  0  0  0  0  0  0  0  0  0
   -5.1092  -11.1219  -11.0753 C   0  0  0  0  0  0  0  0  0  0  0  0
   -4.1362   -9.9856  -11.3412 O   0  0  0  0  0  0  0  0  0  0  0  0
   -7.5255   -7.0573  -19.7569 C   0  0  0  0  0  0  0  0  0  0  0  0
   -6.3270   -6.7002  -20.5029 N   0  0  0  0  0  0  0  0  0  0  0  0
   -3.3117  -10.1862  -14.6363 C   0  0  1  0  0  0  0  0  0  0  0  0
   -3.2675  -10.9207  -13.4365 O   0  0  0  0  0  0  0  0  0  0  0  0
   -5.3981  -13.4222  -10.1526 C   0  0  0  0  0  0  0  0  0  0  0  0
   -1.5348  -14.7286  -11.4730 C   0  0  0  0  0  0  0  0  0  0  0  0
  1  2  1  6  0  0  0
  1  6  1  0  0  0  0
  1 21  1  0  0  0  0
  3  4  1  1  0  0  0
  3  8  1  0  0  0  0
  3 28  1  0  0  0  0
  5  9  1  0  0  0  0
  5 25  1  0  0  0  0
  5 29  1  6  0  0  0
  6  7  1  1  0  0  0
  6 11  1  0  0  0  0
  8 12  1  0  0  0  0
  9 10  1  6  0  0  0
  9 14  1  0  0  0  0
 11 16  1  0  0  0  0
 12 13  1  6  0  0  0
 12 17  1  0  0  0  0
 14 15  1  1  0  0  0
 14 18  1  0  0  0  0
 15 31  1  0  0  0  0
 16 20  1  0  0  0  0
 17  2  1  6  0  0  0
 17 22  1  0  0  0  0
 18 19  1  1  0  0  0
 18 24  1  0  0  0  0
 18 30  1  0  0  0  0
 20 21  1  0  0  0  0
 20 26  1  1  0  0  0
 22 23  1  1  0  0  0
 22 28  1  0  0  0  0
 24 25  1  0  0  0  0
 26 27  1  0  0  0  0
 28 29  1  1  0  0  0
M  END
>  <CHROM.1>
-165.48802156,-143.42508891,-84.84675086,-160.42821733,-69.64468160,95.97830660
-4.51583904,-10.69586392,-15.07050887,1.97908116,-0.20460318,-1.12248237

>  <Name>
ligand

>  <RI>
0

>  <Rbt.Current_Directory>
/home/itssahil/PROJECTS/Mol_Feturizer/New_Systems/rnas/4F8U

>  <Rbt.Executable>
rbdock ($Id: //depot/dev/client3/rdock/2013.1/src/exe/rbdock.cxx#4 $)

>  <Rbt.Library>
libRbt.so (2013.1, Build901 2013/11/27)

>  <Rbt.Parameter_File>
/export/apps/rDock/src/rDock_2013.1_src/data/scripts/dock_solv.prm

>  <Rbt.Receptor>
prm/pocket_docking_2.prm

>  <SCORE>
-16.6508

>  <SCORE.INTER>
-15.504

>  <SCORE.INTER.CONST>
1

>  <SCORE.INTER.POLAR>
0

>  <SCORE.INTER.ROT>
6

>  <SCORE.INTER.SOLV>
21.7768

>  <SCORE.INTER.VDW>
-25.1949

>  <SCORE.INTER.norm>
-0.50013

>  <SCORE.INTRA>
-1.14677

>  <SCORE.INTRA.DIHEDRAL>
-2.60696

>  <SCORE.INTRA.DIHEDRAL.0>
18.77

>  <SCORE.INTRA.POLAR>
0

>  <SCORE.INTRA.POLAR.0>
0

>  <SCORE.INTRA.REPUL>
0

>  <SCORE.INTRA.REPUL.0>
0

>  <SCORE.INTRA.SOLV>
-0.788024

>  <SCORE.INTRA.SOLV.lig_0>
-77.2465

>  <SCORE.INTRA.VDW>
0.550718

>  <SCORE.INTRA.VDW.0>
-4.16072

>  <SCORE.INTRA.norm>
-0.0369927

>  <SCORE.RESTR>
0

>  <SCORE.RESTR.CAVITY>
0

>  <SCORE.RESTR.norm>
0

>  <SCORE.SYSTEM>
0

>  <SCORE.SYSTEM.CONST>
0

>  <SCORE.SYSTEM.DIHEDRAL>
0

>  <SCORE.SYSTEM.SOLV>
0

>  <SCORE.SYSTEM.norm>
0

>  <SCORE.heavy>
31

>  <SCORE.norm>
-0.537123

>  <RMSD>
0.440

$$$$
ligand
 OpenBabel11021811493D
libRbt.so/2013.1/901 2013/11/27
 31 33  0  0  0  0  0  0  0  0999 V2000
   -6.9476  -10.0966  -17.4785 C   0  0  2  0  0  0  0  0  0  0  0  0
   -5.5673  -10.4263  -17.6850 O   0  0  0  0  0  0  0  0  0  0  0  0
   -1.9898  -10.3912  -15.3348 C   0  0  2  0  0  0  0  0  0  0  0  0
   -0.9201   -9.9166  -14.5111 N   0  0  0  0  0  0  0  0  0  0  0  0
   -2.9714  -10.3270  -12.0909 C   0  0  2  0  0  0  0  0  0  0  0  0
   -7.7793  -11.1420  -18.3015 C   0  0  2  0  0  0  0  0  0  0  0  0
   -7.4490  -12.4922  -17.8592 N   0  0  0  0  0  0  0  0  0  0  0  0
   -1.9741   -9.5981  -16.6981 C   0  0  0  0  0  0  0  0  0  0  0  0
   -2.1372  -11.4366  -11.3794 C   0  0  2  0  0  0  0  0  0  0  0  0
   -0.9998  -11.7374  -12.1698 O   0  0  0  0  0  0  0  0  0  0  0  0
   -7.4816  -10.9711  -19.8319 C   0  0  0  0  0  0  0  0  0  0  0  0
   -3.1579  -10.1318  -17.6153 C   0  0  2  0  0  0  0  0  0  0  0  0
   -3.1542   -9.3923  -18.8991 N   0  0  0  0  0  0  0  0  0  0  0  0
   -3.0821  -12.7101  -11.2323 C   0  0  1  0  0  0  0  0  0  0  0  0
   -2.3436  -13.8458  -10.5826 N   0  0  0  0  0  0  0  0  0  0  0  0
   -7.5567   -9.4732  -20.2469 C   0  0  0  0  0  0  0  0  0  0  0  0
   -4.5476   -9.9266  -16.8633 C   0  0  2  0  0  0  0  0  0  0  0  0
   -4.3710  -12.3168  -10.3174 C   0  0  1  0  0  0  0  0  0  0  0  0
   -3.9944  -11.8985   -9.0197 O   0  0  0  0  0  0  0  0  0  0  0  0
   -7.4506   -8.4968  -19.3331 C   0  0  2  0  0  0  0  0  0  0  0  0
   -7.2672   -8.7458  -17.9284 O   0  0  0  0  0  0  0  0  0  0  0  0
   -4.5177  -10.7120  -15.4857 C   0  0  2  0  0  0  0  0  0  0  0  0
   -5.7540  -10.5153  -14.7878 O   0  0  0  0  0  0  0  0  0  0  0  0
   -5.1431  -11.1342  -10.9938 C   0  0  0  0  0  0  0  0  0  0  0  0
   -4.1876   -9.9853  -11.2690 O   0  0  0  0  0  0  0  0  0  0  0  0
   -7.5254   -7.0028  -19.7254 C   0  0  0  0  0  0  0  0  0  0  0  0
   -6.4062   -6.6717  -20.5961 N   0  0  0  0  0  0  0  0  0  0  0  0
   -3.3417  -10.1747  -14.5925 C   0  0  1  0  0  0  0  0  0  0  0  0
   -3.3446  -10.8974  -13.3848 O   0  0  0  0  0  0  0  0  0  0  0  0
   -5.3906  -13.4434  -10.0813 C   0  0  0  0  0  0  0  0  0  0  0  0
   -1.5477  -14.7066  -11.4779 C   0  0  0  0  0  0  0  0  0  0  0  0
  1  2  1  6  0  0  0
  1  6  1  0  0  0  0
  1 21  1  0  0  0  0
  3  4  1  1  0  0  0
  3  8  1  0  0  0  0
  3 28  1  0  0  0  0
  5  9  1  0  0  0  0
  5 25  1  0  0  0  0
  5 29  1  6  0  0  0
  6  7  1  1  0  0  0
  6 11  1  0  0  0  0
  8 12  1  0  0  0  0
  9 10  1  6  0  0  0
  9 14  1  0  0  0  0
 11 16  1  0  0  0  0
 12 13  1  6  0  0  0
 12 17  1  0  0  0  0
 14 15  1  1  0  0  0
 14 18  1  0  0  0  0
 15 31  1  0  0  0  0
 16 20  1  0  0  0  0
 17  2  1  6  0  0  0
 17 22  1  0  0  0  0
 18 19  1  1  0  0  0
 18 24  1  0  0  0  0
 18 30  1  0  0  0  0
 20 21  1  0  0  0  0
 20 26  1  1  0  0  0
 22 23  1  1  0  0  0
 22 28  1  0  0  0  0
 24 25  1  0  0  0  0
 26 27  1  0  0  0  0
 28 29  1  1  0  0  0
M  END
>  <CHROM.1>
-164.10542016,-139.53152874,-85.47868413,-163.54857606,-63.54446621,94.77231393
-4.52352227,-10.67844723,-15.04035963,1.97170976,-0.17800498,-1.13319925

>  <Name>
ligand

>  <RI>
0

>  <Rbt.Current_Directory>
/home/itssahil/PROJECTS/Mol_Feturizer/New_Systems/rnas/4F8U

>  <Rbt.Executable>
rbdock ($Id: //depot/dev/client3/rdock/2013.1/src/exe/rbdock.cxx#4 $)

>  <Rbt.Library>
libRbt.so (2013.1, Build901 2013/11/27)

>  <Rbt.Parameter_File>
/export/apps/rDock/src/rDock_2013.1_src/data/scripts/dock_solv.prm

>  <Rbt.Receptor>
prm/pocket_docking_2.prm

>  <SCORE>
-16.6715

>  <SCORE.INTER>
-15.7303

>  <SCORE.INTER.CONST>
1

>  <SCORE.INTER.POLAR>
0

>  <SCORE.INTER.ROT>
6

>  <SCORE.INTER.SOLV>
21.7112

>  <SCORE.INTER.VDW>
-25.3239

>  <SCORE.INTER.norm>
-0.50743

>  <SCORE.INTRA>
-0.943677

>  <SCORE.INTRA.DIHEDRAL>
-2.33066

>  <SCORE.INTRA.DIHEDRAL.0>
18.77

>  <SCORE.INTRA.POLAR>
0

>  <SCORE.INTRA.POLAR.0>
0

>  <SCORE.INTRA.REPUL>
0

>  <SCORE.INTRA.REPUL.0>
0

>  <SCORE.INTRA.SOLV>
-0.819459

>  <SCORE.INTRA.SOLV.lig_0>
-77.2465

>  <SCORE.INTRA.VDW>
0.631383

>  <SCORE.INTRA.VDW.0>
-4.16072

>  <SCORE.INTRA.norm>
-0.0304412

>  <SCORE.RESTR>
0.00245238

>  <SCORE.RESTR.CAVITY>
0.00245238

>  <SCORE.RESTR.norm>
7.91089e-05

>  <SCORE.SYSTEM>
0

>  <SCORE.SYSTEM.CONST>
0

>  <SCORE.SYSTEM.DIHEDRAL>
0

>  <SCORE.SYSTEM.SOLV>
0

>  <SCORE.SYSTEM.norm>
0

>  <SCORE.heavy>
31

>  <SCORE.norm>
-0.537792

>  <RMSD>
0.441

$$$$
ligand
 OpenBabel11021811493D
libRbt.so/2013.1/901 2013/11/27
 31 33  0  0  0  0  0  0  0  0999 V2000
   -6.9769  -10.0997  -17.5186 C   0  0  2  0  0  0  0  0  0  0  0  0
   -5.5995  -10.4572  -17.6964 O   0  0  0  0  0  0  0  0  0  0  0  0
   -2.0184  -10.3911  -15.3524 C   0  0  2  0  0  0  0  0  0  0  0  0
   -0.9513   -9.9071  -14.5307 N   0  0  0  0  0  0  0  0  0  0  0  0
   -2.9917  -10.3351  -12.1073 C   0  0  2  0  0  0  0  0  0  0  0  0
   -7.8123  -11.1289  -18.3581 C   0  0  2  0  0  0  0  0  0  0  0  0
   -7.5184  -12.4851  -17.9083 N   0  0  0  0  0  0  0  0  0  0  0  0
   -2.0118   -9.5983  -16.7160 C   0  0  0  0  0  0  0  0  0  0  0  0
   -2.1413  -11.4361  -11.4018 C   0  0  2  0  0  0  0  0  0  0  0  0
   -1.0048  -11.7231  -12.1986 O   0  0  0  0  0  0  0  0  0  0  0  0
   -7.4797  -10.9655  -19.8820 C   0  0  0  0  0  0  0  0  0  0  0  0
   -3.1926  -10.1422  -17.6310 C   0  0  2  0  0  0  0  0  0  0  0  0
   -3.1974   -9.4031  -18.9150 N   0  0  0  0  0  0  0  0  0  0  0  0
   -3.0709  -12.7203  -11.2511 C   0  0  1  0  0  0  0  0  0  0  0  0
   -2.3162  -13.8483  -10.6067 N   0  0  0  0  0  0  0  0  0  0  0  0
   -7.5161   -9.4668  -20.2994 C   0  0  0  0  0  0  0  0  0  0  0  0
   -4.5827   -9.9486  -16.8766 C   0  0  2  0  0  0  0  0  0  0  0  0
   -4.3592  -12.3426  -10.3288 C   0  0  1  0  0  0  0  0  0  0  0  0
   -3.9803  -11.9216   -9.0326 O   0  0  0  0  0  0  0  0  0  0  0  0
   -7.4093   -8.4919  -19.3840 C   0  0  2  0  0  0  0  0  0  0  0  0
   -7.2600   -8.7432  -17.9757 O   0  0  0  0  0  0  0  0  0  0  0  0
   -4.5438  -10.7334  -15.4988 C   0  0  2  0  0  0  0  0  0  0  0  0
   -5.7804  -10.5470  -14.7988 O   0  0  0  0  0  0  0  0  0  0  0  0
   -5.1482  -11.1680  -10.9996 C   0  0  0  0  0  0  0  0  0  0  0  0
   -4.2072  -10.0081  -11.2785 O   0  0  0  0  0  0  0  0  0  0  0  0
   -7.4461   -6.9970  -19.7786 C   0  0  0  0  0  0  0  0  0  0  0  0
   -6.4869   -6.7520  -20.8465 N   0  0  0  0  0  0  0  0  0  0  0  0
   -3.3708  -10.1858  -14.6078 C   0  0  1  0  0  0  0  0  0  0  0  0
   -3.3654  -10.9082  -13.3999 O   0  0  0  0  0  0  0  0  0  0  0  0
   -5.3647  -13.4809  -10.0886 C   0  0  0  0  0  0  0  0  0  0  0  0
   -1.4975  -14.6853  -11.5042 C   0  0  0  0  0  0  0  0  0  0  0  0
  1  2  1  6  0  0  0
  1  6  1  0  0  0  0
  1 21  1  0  0  0  0
  3  4  1  1  0  0  0
  3  8  1  0  0  0  0
  3 28  1  0  0  0  0
  5  9  1  0  0  0  0
  5 25  1  0  0  0  0
  5 29  1  6  0  0  0
  6  7  1  1  0  0  0
  6 11  1  0  0  0  0
  8 12  1  0  0  0  0
  9 10  1  6  0  0  0
  9 14  1  0  0  0  0
 11 16  1  0  0  0  0
 12 13  1  6  0  0  0
 12 17  1  0  0  0  0
 14 15  1  1  0  0  0
 14 18  1  0  0  0  0
 15 31  1  0  0  0  0
 16 20  1  0  0  0  0
 17  2  1  6  0  0  0
 17 22  1  0  0  0  0
 18 19  1  1  0  0  0
 18 24  1  0  0  0  0
 18 30  1  0  0  0  0
 20 21  1  0  0  0  0
 20 26  1  1  0  0  0
 22 23  1  1  0  0  0
 22 28  1  0  0  0  0
 24 25  1  0  0  0  0
 26 27  1  0  0  0  0
 28 29  1  1  0  0  0
M  END
>  <CHROM.1>
-165.87983091,-139.20046465,-84.48464918,-161.16329034,-51.25075736,94.61761261
-4.53298054,-10.68846148,-15.07239901,1.97091085,-0.18340913,-1.13319866

>  <Name>
ligand

>  <RI>
0

>  <Rbt.Current_Directory>
/home/itssahil/PROJECTS/Mol_Feturizer/New_Systems/rnas/4F8U

>  <Rbt.Executable>
rbdock ($Id: //depot/dev/client3/rdock/2013.1/src/exe/rbdock.cxx#4 $)

>  <Rbt.Library>
libRbt.so (2013.1, Build901 2013/11/27)

>  <Rbt.Parameter_File>
/export/apps/rDock/src/rDock_2013.1_src/data/scripts/dock_solv.prm

>  <Rbt.Receptor>
prm/pocket_docking_2.prm

>  <SCORE>
-16.6713

>  <SCORE.INTER>
-15.9411

>  <SCORE.INTER.CONST>
1

>  <SCORE.INTER.POLAR>
0

>  <SCORE.INTER.ROT>
6

>  <SCORE.INTER.SOLV>
20.963

>  <SCORE.INTER.VDW>
-25.2151

>  <SCORE.INTER.norm>
-0.51423

>  <SCORE.INTRA>
-0.73014

>  <SCORE.INTRA.DIHEDRAL>
-2.29559

>  <SCORE.INTRA.DIHEDRAL.0>
18.77

>  <SCORE.INTRA.POLAR>
0

>  <SCORE.INTRA.POLAR.0>
0

>  <SCORE.INTRA.REPUL>
0

>  <SCORE.INTRA.REPUL.0>
0

>  <SCORE.INTRA.SOLV>
-0.643254

>  <SCORE.INTRA.SOLV.lig_0>
-77.2465

>  <SCORE.INTRA.VDW>
0.739284

>  <SCORE.INTRA.VDW.0>
-4.16072

>  <SCORE.INTRA.norm>
-0.0235529

>  <SCORE.RESTR>
0

>  <SCORE.RESTR.CAVITY>
0

>  <SCORE.RESTR.norm>
0

>  <SCORE.SYSTEM>
0

>  <SCORE.SYSTEM.CONST>
0

>  <SCORE.SYSTEM.DIHEDRAL>
0

>  <SCORE.SYSTEM.SOLV>
0

>  <SCORE.SYSTEM.norm>
0

>  <SCORE.heavy>
31

>  <SCORE.norm>
-0.537783

>  <RMSD>
0.446

$$$$
ligand
 OpenBabel11021811493D
libRbt.so/2013.1/901 2013/11/27
 31 33  0  0  0  0  0  0  0  0999 V2000
   -6.9438  -10.0889  -17.5076 C   0  0  2  0  0  0  0  0  0  0  0  0
   -5.5668  -10.4347  -17.7093 O   0  0  0  0  0  0  0  0  0  0  0  0
   -1.9833  -10.3926  -15.3683 C   0  0  2  0  0  0  0  0  0  0  0  0
   -0.9087   -9.9143  -14.5531 N   0  0  0  0  0  0  0  0  0  0  0  0
   -2.9027  -10.2996  -12.1326 C   0  0  2  0  0  0  0  0  0  0  0  0
   -7.7851  -11.1286  -18.3281 C   0  0  2  0  0  0  0  0  0  0  0  0
   -7.4707  -12.4805  -17.8792 N   0  0  0  0  0  0  0  0  0  0  0  0
   -1.9663   -9.6162  -16.7413 C   0  0  0  0  0  0  0  0  0  0  0  0
   -2.0696  -11.4255  -11.4460 C   0  0  2  0  0  0  0  0  0  0  0  0
   -0.9691  -11.7568  -12.2755 O   0  0  0  0  0  0  0  0  0  0  0  0
   -7.4818  -10.9676  -19.8585 C   0  0  0  0  0  0  0  0  0  0  0  0
   -3.1555  -10.1538  -17.6490 C   0  0  2  0  0  0  0  0  0  0  0  0
   -3.1506   -9.4300  -18.9418 N   0  0  0  0  0  0  0  0  0  0  0  0
   -3.0383  -12.6755  -11.2579 C   0  0  1  0  0  0  0  0  0  0  0  0
   -2.3036  -13.8255  -10.6293 N   0  0  0  0  0  0  0  0  0  0  0  0
   -7.5394   -9.4708  -20.2801 C   0  0  0  0  0  0  0  0  0  0  0  0
   -4.5420   -9.9311  -16.8962 C   0  0  2  0  0  0  0  0  0  0  0  0
   -4.2833  -12.2476  -10.2989 C   0  0  1  0  0  0  0  0  0  0  0  0
   -3.8499  -11.8325   -9.0179 O   0  0  0  0  0  0  0  0  0  0  0  0
   -7.4248   -8.4917  -19.3702 C   0  0  2  0  0  0  0  0  0  0  0  0
   -7.2475   -8.7367  -17.9640 O   0  0  0  0  0  0  0  0  0  0  0  0
   -4.5135  -10.6999  -15.5092 C   0  0  2  0  0  0  0  0  0  0  0  0
   -5.7467  -10.4873  -14.8108 O   0  0  0  0  0  0  0  0  0  0  0  0
   -5.0515  -11.0501  -10.9531 C   0  0  0  0  0  0  0  0  0  0  0  0
   -4.0798   -9.9254  -11.2689 O   0  0  0  0  0  0  0  0  0  0  0  0
   -7.4823   -6.9986  -19.7691 C   0  0  0  0  0  0  0  0  0  0  0  0
   -6.2707   -6.6417  -20.4938 N   0  0  0  0  0  0  0  0  0  0  0  0
   -3.3320  -10.1588  -14.6255 C   0  0  1  0  0  0  0  0  0  0  0  0
   -3.3361  -10.8668  -13.4090 O   0  0  0  0  0  0  0  0  0  0  0  0
   -5.3199  -13.3486  -10.0199 C   0  0  0  0  0  0  0  0  0  0  0  0
   -1.5298  -14.6864  -11.5438 C   0  0  0  0  0  0  0  0  0  0  0  0
  1  2  1  6  0  0  0
  1  6  1  0  0  0  0
  1 21  1  0  0  0  0
  3  4  1  1  0  0  0
  3  8  1  0  0  0  0
  3 28  1  0  0  0  0
  5  9  1  0  0  0  0
  5 25  1  0  0  0  0
  5 29  1  6  0  0  0
  6  7  1  1  0  0  0
  6 11  1  0  0  0  0
  8 12  1  0  0  0  0
  9 10  1  6  0  0  0
  9 14  1  0  0  0  0
 11 16  1  0  0  0  0
 12 13  1  6  0  0  0
 12 17  1  0  0  0  0
 14 15  1  1  0  0  0
 14 18  1  0  0  0  0
 15 31  1  0  0  0  0
 16 20  1  0  0  0  0
 17  2  1  6  0  0  0
 17 22  1  0  0  0  0
 18 19  1  1  0  0  0
 18 24  1  0  0  0  0
 18 30  1  0  0  0  0
 20 21  1  0  0  0  0
 20 26  1  1  0  0  0
 22 23  1  1  0  0  0
 22 28  1  0  0  0  0
 24 25  1  0  0  0  0
 26 27  1  0  0  0  0
 28 29  1  1  0  0  0
M  END
>  <CHROM.1>
-164.81551091,-138.04919737,-83.78627451,-163.23230894,-70.80516295,92.08354288
-4.48897889,-10.66028309,-15.06409092,1.97549644,-0.17391142,-1.13960013

>  <Name>
ligand

>  <RI>
0

>  <Rbt.Current_Directory>
/home/itssahil/PROJECTS/Mol_Feturizer/New_Systems/rnas/4F8U

>  <Rbt.Executable>
rbdock ($Id: //depot/dev/client3/rdock/2013.1/src/exe/rbdock.cxx#4 $)

>  <Rbt.Library>
libRbt.so (2013.1, Build901 2013/11/27)

>  <Rbt.Parameter_File>
/export/apps/rDock/src/rDock_2013.1_src/data/scripts/dock_solv.prm

>  <Rbt.Receptor>
prm/pocket_docking_3.prm

>  <SCORE>
-16.8143

>  <SCORE.INTER>
-15.6492

>  <SCORE.INTER.CONST>
1

>  <SCORE.INTER.POLAR>
0

>  <SCORE.INTER.ROT>
6

>  <SCORE.INTER.SOLV>
22.1221

>  <SCORE.INTER.VDW>
-25.4068

>  <SCORE.INTER.norm>
-0.504812

>  <SCORE.INTRA>
-1.16509

>  <SCORE.INTRA.DIHEDRAL>
-2.83266

>  <SCORE.INTRA.DIHEDRAL.0>
18.77

>  <SCORE.INTRA.POLAR>
0

>  <SCORE.INTRA.POLAR.0>
0

>  <SCORE.INTRA.REPUL>
0

>  <SCORE.INTRA.REPUL.0>
0

>  <SCORE.INTRA.SOLV>
-0.786358

>  <SCORE.INTRA.SOLV.lig_0>
-77.2465

>  <SCORE.INTRA.VDW>
0.644416

>  <SCORE.INTRA.VDW.0>
-4.16072

>  <SCORE.INTRA.norm>
-0.0375836

>  <SCORE.RESTR>
0

>  <SCORE.RESTR.CAVITY>
0

>  <SCORE.RESTR.norm>
0

>  <SCORE.SYSTEM>
0

>  <SCORE.SYSTEM.CONST>
0

>  <SCORE.SYSTEM.DIHEDRAL>
0

>  <SCORE.SYSTEM.SOLV>
0

>  <SCORE.SYSTEM.norm>
0

>  <SCORE.heavy>
31

>  <SCORE.norm>
-0.542396

>  <RMSD>
0.451

$$$$
ligand
 OpenBabel11021811493D
libRbt.so/2013.1/901 2013/11/27
 31 33  0  0  0  0  0  0  0  0999 V2000
   -6.9877  -10.0987  -17.5243 C   0  0  2  0  0  0  0  0  0  0  0  0
   -5.6118  -10.4645  -17.6961 O   0  0  0  0  0  0  0  0  0  0  0  0
   -2.0270  -10.3972  -15.3576 C   0  0  2  0  0  0  0  0  0  0  0  0
   -0.9594   -9.9131  -14.5366 N   0  0  0  0  0  0  0  0  0  0  0  0
   -2.9866  -10.3516  -12.1124 C   0  0  2  0  0  0  0  0  0  0  0  0
   -7.8274  -11.1420  -18.3419 C   0  0  2  0  0  0  0  0  0  0  0  0
   -7.5377  -12.4897  -17.8649 N   0  0  0  0  0  0  0  0  0  0  0  0
   -2.0239   -9.6016  -16.7196 C   0  0  0  0  0  0  0  0  0  0  0  0
   -2.1462  -11.4619  -11.4094 C   0  0  2  0  0  0  0  0  0  0  0  0
   -1.0151  -11.7609  -12.2095 O   0  0  0  0  0  0  0  0  0  0  0  0
   -7.4958  -11.0107  -19.8692 C   0  0  0  0  0  0  0  0  0  0  0  0
   -3.2052  -10.1457  -17.6338 C   0  0  2  0  0  0  0  0  0  0  0  0
   -3.2133   -9.4039  -18.9164 N   0  0  0  0  0  0  0  0  0  0  0  0
   -3.0891  -12.7361  -11.2565 C   0  0  1  0  0  0  0  0  0  0  0  0
   -2.3448  -13.8723  -10.6144 N   0  0  0  0  0  0  0  0  0  0  0  0
   -7.5275   -9.5207  -20.3169 C   0  0  0  0  0  0  0  0  0  0  0  0
   -4.5944   -9.9559  -16.8769 C   0  0  2  0  0  0  0  0  0  0  0  0
   -4.3707  -12.3448  -10.3305 C   0  0  1  0  0  0  0  0  0  0  0  0
   -3.9837  -11.9282   -9.0353 O   0  0  0  0  0  0  0  0  0  0  0  0
   -7.4165   -8.5277  -19.4217 C   0  0  2  0  0  0  0  0  0  0  0  0
   -7.2666   -8.7508  -18.0087 O   0  0  0  0  0  0  0  0  0  0  0  0
   -4.5521  -10.7433  -15.5007 C   0  0  2  0  0  0  0  0  0  0  0  0
   -5.7879  -10.5604  -14.7985 O   0  0  0  0  0  0  0  0  0  0  0  0
   -5.1490  -11.1616  -10.9988 C   0  0  0  0  0  0  0  0  0  0  0  0
   -4.1963  -10.0119  -11.2801 O   0  0  0  0  0  0  0  0  0  0  0  0
   -7.4485   -7.0410  -19.8465 C   0  0  0  0  0  0  0  0  0  0  0  0
   -6.4599   -6.8120  -20.8908 N   0  0  0  0  0  0  0  0  0  0  0  0
   -3.3786  -10.1956  -14.6105 C   0  0  1  0  0  0  0  0  0  0  0  0
   -3.3701  -10.9204  -13.4040 O   0  0  0  0  0  0  0  0  0  0  0  0
   -5.3878  -13.4723  -10.0877 C   0  0  0  0  0  0  0  0  0  0  0  0
   -1.5277  -14.7102  -11.5125 C   0  0  0  0  0  0  0  0  0  0  0  0
  1  2  1  6  0  0  0
  1  6  1  0  0  0  0
  1 21  1  0  0  0  0
  3  4  1  1  0  0  0
  3  8  1  0  0  0  0
  3 28  1  0  0  0  0
  5  9  1  0  0  0  0
  5 25  1  0  0  0  0
  5 29  1  6  0  0  0
  6  7  1  1  0  0  0
  6 11  1  0  0  0  0
  8 12  1  0  0  0  0
  9 10  1  6  0  0  0
  9 14  1  0  0  0  0
 11 16  1  0  0  0  0
 12 13  1  6  0  0  0
 12 17  1  0  0  0  0
 14 15  1  1  0  0  0
 14 18  1  0  0  0  0
 15 31  1  0  0  0  0
 16 20  1  0  0  0  0
 17  2  1  6  0  0  0
 17 22  1  0  0  0  0
 18 19  1  1  0  0  0
 18 24  1  0  0  0  0
 18 30  1  0  0  0  0
 20 21  1  0  0  0  0
 20 26  1  1  0  0  0
 22 23  1  1  0  0  0
 22 28  1  0  0  0  0
 24 25  1  0  0  0  0
 26 27  1  0  0  0  0
 28 29  1  1  0  0  0
M  END
>  <CHROM.1>
-165.05358810,-139.58819186,-83.93996288,-160.49274377,-53.03345427,94.18789535
-4.54215847,-10.70411143,-15.07924377,1.97010261,-0.18839662,-1.13327957

>  <Name>
ligand

>  <RI>
0

>  <Rbt.Current_Directory>
/home/itssahil/PROJECTS/Mol_Feturizer/New_Systems/rnas/4F8U

>  <Rbt.Executable>
rbdock ($Id: //depot/dev/client3/rdock/2013.1/src/exe/rbdock.cxx#4 $)

>  <Rbt.Library>
libRbt.so (2013.1, Build901 2013/11/27)

>  <Rbt.Parameter_File>
/export/apps/rDock/src/rDock_2013.1_src/data/scripts/dock_solv.prm

>  <Rbt.Receptor>
prm/pocket_docking_2.prm

>  <SCORE>
-16.6951

>  <SCORE.INTER>
-16.0092

>  <SCORE.INTER.CONST>
1

>  <SCORE.INTER.POLAR>
0

>  <SCORE.INTER.ROT>
6

>  <SCORE.INTER.SOLV>
20.6426

>  <SCORE.INTER.VDW>
-25.1537

>  <SCORE.INTER.norm>
-0.516426

>  <SCORE.INTRA>
-0.685901

>  <SCORE.INTRA.DIHEDRAL>
-2.20317

>  <SCORE.INTRA.DIHEDRAL.0>
18.77

>  <SCORE.INTRA.POLAR>
0

>  <SCORE.INTRA.POLAR.0>
0

>  <SCORE.INTRA.REPUL>
0

>  <SCORE.INTRA.REPUL.0>
0

>  <SCORE.INTRA.SOLV>
-0.615459

>  <SCORE.INTRA.SOLV.lig_0>
-77.2465

>  <SCORE.INTRA.VDW>
0.723415

>  <SCORE.INTRA.VDW.0>
-4.16072

>  <SCORE.INTRA.norm>
-0.0221258

>  <SCORE.RESTR>
0

>  <SCORE.RESTR.CAVITY>
0

>  <SCORE.RESTR.norm>
0

>  <SCORE.SYSTEM>
0

>  <SCORE.SYSTEM.CONST>
0

>  <SCORE.SYSTEM.DIHEDRAL>
0

>  <SCORE.SYSTEM.SOLV>
0

>  <SCORE.SYSTEM.norm>
0

>  <SCORE.heavy>
31

>  <SCORE.norm>
-0.538552

>  <RMSD>
0.452

$$$$
ligand
 OpenBabel11021811493D
libRbt.so/2013.1/901 2013/11/27
 31 33  0  0  0  0  0  0  0  0999 V2000
   -6.9851  -10.1315  -17.5171 C   0  0  2  0  0  0  0  0  0  0  0  0
   -5.6090  -10.5001  -17.6818 O   0  0  0  0  0  0  0  0  0  0  0  0
   -2.0063  -10.3812  -15.3732 C   0  0  2  0  0  0  0  0  0  0  0  0
   -0.9388   -9.8817  -14.5614 N   0  0  0  0  0  0  0  0  0  0  0  0
   -2.9621  -10.3406  -12.1162 C   0  0  2  0  0  0  0  0  0  0  0  0
   -7.8211  -11.1578  -18.3596 C   0  0  2  0  0  0  0  0  0  0  0  0
   -7.5412  -12.5143  -17.9021 N   0  0  0  0  0  0  0  0  0  0  0  0
   -2.0255   -9.5868  -16.7357 C   0  0  0  0  0  0  0  0  0  0  0  0
   -2.1258  -11.4412  -11.3933 C   0  0  2  0  0  0  0  0  0  0  0  0
   -0.9829  -11.7413  -12.1760 O   0  0  0  0  0  0  0  0  0  0  0  0
   -7.4744  -11.0029  -19.8813 C   0  0  0  0  0  0  0  0  0  0  0  0
   -3.2067  -10.1479  -17.6397 C   0  0  2  0  0  0  0  0  0  0  0  0
   -3.2356   -9.4074  -18.9227 N   0  0  0  0  0  0  0  0  0  0  0  0
   -3.0649  -12.7186  -11.2426 C   0  0  1  0  0  0  0  0  0  0  0  0
   -2.3239  -13.8461  -10.5817 N   0  0  0  0  0  0  0  0  0  0  0  0
   -7.4960   -9.5057  -20.3048 C   0  0  0  0  0  0  0  0  0  0  0  0
   -4.5921   -9.9767  -16.8714 C   0  0  2  0  0  0  0  0  0  0  0  0
   -4.3604  -12.3260  -10.3367 C   0  0  1  0  0  0  0  0  0  0  0  0
   -3.9925  -11.8973   -9.0399 O   0  0  0  0  0  0  0  0  0  0  0  0
   -7.3896   -8.5280  -19.3924 C   0  0  2  0  0  0  0  0  0  0  0  0
   -7.2541   -8.7748  -17.9819 O   0  0  0  0  0  0  0  0  0  0  0  0
   -4.5274  -10.7624  -15.4951 C   0  0  2  0  0  0  0  0  0  0  0  0
   -5.7598  -10.5960  -14.7828 O   0  0  0  0  0  0  0  0  0  0  0  0
   -5.1352  -11.1519  -11.0247 C   0  0  0  0  0  0  0  0  0  0  0  0
   -4.1842   -9.9999  -11.3026 O   0  0  0  0  0  0  0  0  0  0  0  0
   -7.4117   -7.0344  -19.7931 C   0  0  0  0  0  0  0  0  0  0  0  0
   -6.4676   -6.8078  -20.8784 N   0  0  0  0  0  0  0  0  0  0  0  0
   -3.3543  -10.1978  -14.6150 C   0  0  1  0  0  0  0  0  0  0  0  0
   -3.3258  -10.9214  -13.4082 O   0  0  0  0  0  0  0  0  0  0  0  0
   -5.3753  -13.4563  -10.0984 C   0  0  0  0  0  0  0  0  0  0  0  0
   -1.5100  -14.7018  -11.4658 C   0  0  0  0  0  0  0  0  0  0  0  0
  1  2  1  6  0  0  0
  1  6  1  0  0  0  0
  1 21  1  0  0  0  0
  3  4  1  1  0  0  0
  3  8  1  0  0  0  0
  3 28  1  0  0  0  0
  5  9  1  0  0  0  0
  5 25  1  0  0  0  0
  5 29  1  6  0  0  0
  6  7  1  1  0  0  0
  6 11  1  0  0  0  0
  8 12  1  0  0  0  0
  9 10  1  6  0  0  0
  9 14  1  0  0  0  0
 11 16  1  0  0  0  0
 12 13  1  6  0  0  0
 12 17  1  0  0  0  0
 14 15  1  1  0  0  0
 14 18  1  0  0  0  0
 15 31  1  0  0  0  0
 16 20  1  0  0  0  0
 17  2  1  6  0  0  0
 17 22  1  0  0  0  0
 18 19  1  1  0  0  0
 18 24  1  0  0  0  0
 18 30  1  0  0  0  0
 20 21  1  0  0  0  0
 20 26  1  1  0  0  0
 22 23  1  1  0  0  0
 22 28  1  0  0  0  0
 24 25  1  0  0  0  0
 26 27  1  0  0  0  0
 28 29  1  1  0  0  0
M  END
>  <CHROM.1>
-167.09655514,-141.26285737,-84.98355431,-159.14523290,-49.73286051,95.29996177
-4.52758695,-10.70201254,-15.07550176,1.97193548,-0.19613548,-1.13229336

>  <Name>
ligand

>  <RI>
0

>  <Rbt.Current_Directory>
/home/itssahil/PROJECTS/Mol_Feturizer/New_Systems/rnas/4F8U

>  <Rbt.Executable>
rbdock ($Id: //depot/dev/client3/rdock/2013.1/src/exe/rbdock.cxx#4 $)

>  <Rbt.Library>
libRbt.so (2013.1, Build901 2013/11/27)

>  <Rbt.Parameter_File>
/export/apps/rDock/src/rDock_2013.1_src/data/scripts/dock_solv.prm

>  <Rbt.Receptor>
prm/pocket_docking_2.prm

>  <SCORE>
-16.61

>  <SCORE.INTER>
-15.8438

>  <SCORE.INTER.CONST>
1

>  <SCORE.INTER.POLAR>
0

>  <SCORE.INTER.ROT>
6

>  <SCORE.INTER.SOLV>
20.7299

>  <SCORE.INTER.VDW>
-25.0725

>  <SCORE.INTER.norm>
-0.51109

>  <SCORE.INTRA>
-0.76739

>  <SCORE.INTRA.DIHEDRAL>
-2.35266

>  <SCORE.INTRA.DIHEDRAL.0>
18.77

>  <SCORE.INTRA.POLAR>
0

>  <SCORE.INTRA.POLAR.0>
0

>  <SCORE.INTRA.REPUL>
0

>  <SCORE.INTRA.REPUL.0>
0

>  <SCORE.INTRA.SOLV>
-0.616145

>  <SCORE.INTRA.SOLV.lig_0>
-77.2465

>  <SCORE.INTRA.VDW>
0.717015

>  <SCORE.INTRA.VDW.0>
-4.16072

>  <SCORE.INTRA.norm>
-0.0247545

>  <SCORE.RESTR>
0.00120965

>  <SCORE.RESTR.CAVITY>
0.00120965

>  <SCORE.RESTR.norm>
3.90211e-05

>  <SCORE.SYSTEM>
0

>  <SCORE.SYSTEM.CONST>
0

>  <SCORE.SYSTEM.DIHEDRAL>
0

>  <SCORE.SYSTEM.SOLV>
0

>  <SCORE.SYSTEM.norm>
0

>  <SCORE.heavy>
31

>  <SCORE.norm>
-0.535805

>  <RMSD>
0.454

$$$$
ligand
 OpenBabel11021811493D
libRbt.so/2013.1/901 2013/11/27
 31 33  0  0  0  0  0  0  0  0999 V2000
   -6.9641  -10.1032  -17.5199 C   0  0  2  0  0  0  0  0  0  0  0  0
   -5.5878  -10.4579  -17.7105 O   0  0  0  0  0  0  0  0  0  0  0  0
   -2.0139  -10.4072  -15.3549 C   0  0  2  0  0  0  0  0  0  0  0  0
   -0.9413   -9.9255  -14.5391 N   0  0  0  0  0  0  0  0  0  0  0  0
   -2.9134  -10.2967  -12.1303 C   0  0  2  0  0  0  0  0  0  0  0  0
   -7.8070  -11.1598  -18.3168 C   0  0  2  0  0  0  0  0  0  0  0  0
   -7.4977  -12.5014  -17.8347 N   0  0  0  0  0  0  0  0  0  0  0  0
   -1.9889   -9.6422  -16.7341 C   0  0  0  0  0  0  0  0  0  0  0  0
   -2.0466  -11.4162  -11.4756 C   0  0  2  0  0  0  0  0  0  0  0  0
   -0.9665  -11.7281  -12.3387 O   0  0  0  0  0  0  0  0  0  0  0  0
   -7.5002  -11.0368  -19.8500 C   0  0  0  0  0  0  0  0  0  0  0  0
   -3.1759  -10.1837  -17.6424 C   0  0  2  0  0  0  0  0  0  0  0  0
   -3.1634   -9.4705  -18.9410 N   0  0  0  0  0  0  0  0  0  0  0  0
   -2.9936  -12.6797  -11.2680 C   0  0  1  0  0  0  0  0  0  0  0  0
   -2.2266  -13.8241  -10.6686 N   0  0  0  0  0  0  0  0  0  0  0  0
   -7.5524   -9.5505  -20.3078 C   0  0  0  0  0  0  0  0  0  0  0  0
   -4.5649   -9.9507  -16.8972 C   0  0  2  0  0  0  0  0  0  0  0  0
   -4.2157  -12.2739  -10.2706 C   0  0  1  0  0  0  0  0  0  0  0  0
   -3.7507  -11.8614   -9.0000 O   0  0  0  0  0  0  0  0  0  0  0  0
   -7.4365   -8.5500  -19.4216 C   0  0  2  0  0  0  0  0  0  0  0  0
   -7.2628   -8.7614  -18.0096 O   0  0  0  0  0  0  0  0  0  0  0  0
   -4.5444  -10.7082  -15.5039 C   0  0  2  0  0  0  0  0  0  0  0  0
   -5.7800  -10.4862  -14.8124 O   0  0  0  0  0  0  0  0  0  0  0  0
   -5.0175  -11.0821  -10.8944 C   0  0  0  0  0  0  0  0  0  0  0  0
   -4.0696   -9.9432  -11.2306 O   0  0  0  0  0  0  0  0  0  0  0  0
   -7.4886   -7.0668  -19.8566 C   0  0  0  0  0  0  0  0  0  0  0  0
   -6.1897   -6.6673  -20.3796 N   0  0  0  0  0  0  0  0  0  0  0  0
   -3.3650  -10.1634  -14.6197 C   0  0  1  0  0  0  0  0  0  0  0  0
   -3.3764  -10.8614  -13.3975 O   0  0  0  0  0  0  0  0  0  0  0  0
   -5.2298  -13.3898   -9.9692 C   0  0  0  0  0  0  0  0  0  0  0  0
   -1.5449  -14.7241  -11.6181 C   0  0  0  0  0  0  0  0  0  0  0  0
  1  2  1  6  0  0  0
  1  6  1  0  0  0  0
  1 21  1  0  0  0  0
  3  4  1  1  0  0  0
  3  8  1  0  0  0  0
  3 28  1  0  0  0  0
  5  9  1  0  0  0  0
  5 25  1  0  0  0  0
  5 29  1  6  0  0  0
  6  7  1  1  0  0  0
  6 11  1  0  0  0  0
  8 12  1  0  0  0  0
  9 10  1  6  0  0  0
  9 14  1  0  0  0  0
 11 16  1  0  0  0  0
 12 13  1  6  0  0  0
 12 17  1  0  0  0  0
 14 15  1  1  0  0  0
 14 18  1  0  0  0  0
 15 31  1  0  0  0  0
 16 20  1  0  0  0  0
 17  2  1  6  0  0  0
 17 22  1  0  0  0  0
 18 19  1  1  0  0  0
 18 24  1  0  0  0  0
 18 30  1  0  0  0  0
 20 21  1  0  0  0  0
 20 26  1  1  0  0  0
 22 23  1  1  0  0  0
 22 28  1  0  0  0  0
 24 25  1  0  0  0  0
 26 27  1  0  0  0  0
 28 29  1  1  0  0  0
M  END
>  <CHROM.1>
-164.01006762,-135.33173388,-87.86668952,-163.03578645,-80.55546559,90.39447284
-4.48657812,-10.68295454,-15.06451565,1.98054973,-0.18830433,-1.13692794

>  <Name>
ligand

>  <RI>
0

>  <Rbt.Current_Directory>
/home/itssahil/PROJECTS/Mol_Feturizer/New_Systems/rnas/4F8U

>  <Rbt.Executable>
rbdock ($Id: //depot/dev/client3/rdock/2013.1/src/exe/rbdock.cxx#4 $)

>  <Rbt.Library>
libRbt.so (2013.1, Build901 2013/11/27)

>  <Rbt.Parameter_File>
/export/apps/rDock/src/rDock_2013.1_src/data/scripts/dock_solv.prm

>  <Rbt.Receptor>
prm/pocket_docking_4.prm

>  <SCORE>
-16.7928

>  <SCORE.INTER>
-15.5582

>  <SCORE.INTER.CONST>
1

>  <SCORE.INTER.POLAR>
0

>  <SCORE.INTER.ROT>
6

>  <SCORE.INTER.SOLV>
22.1863

>  <SCORE.INTER.VDW>
-25.3675

>  <SCORE.INTER.norm>
-0.501876

>  <SCORE.INTRA>
-1.23467

>  <SCORE.INTRA.DIHEDRAL>
-2.84902

>  <SCORE.INTRA.DIHEDRAL.0>
18.77

>  <SCORE.INTRA.POLAR>
0

>  <SCORE.INTRA.POLAR.0>
0

>  <SCORE.INTRA.REPUL>
0

>  <SCORE.INTRA.REPUL.0>
0

>  <SCORE.INTRA.SOLV>
-0.633891

>  <SCORE.INTRA.SOLV.lig_0>
-77.2465

>  <SCORE.INTRA.VDW>
0.506779

>  <SCORE.INTRA.VDW.0>
-4.16072

>  <SCORE.INTRA.norm>
-0.0398282

>  <SCORE.RESTR>
0

>  <SCORE.RESTR.CAVITY>
0

>  <SCORE.RESTR.norm>
0

>  <SCORE.SYSTEM>
0

>  <SCORE.SYSTEM.CONST>
0

>  <SCORE.SYSTEM.DIHEDRAL>
0

>  <SCORE.SYSTEM.SOLV>
0

>  <SCORE.SYSTEM.norm>
0

>  <SCORE.heavy>
31

>  <SCORE.norm>
-0.541704

>  <RMSD>
0.464

$$$$
ligand
 OpenBabel11021811493D
libRbt.so/2013.1/901 2013/11/27
 31 33  0  0  0  0  0  0  0  0999 V2000
   -6.7839  -10.1128  -17.4947 C   0  0  2  0  0  0  0  0  0  0  0  0
   -5.4058  -10.4267  -17.7371 O   0  0  0  0  0  0  0  0  0  0  0  0
   -1.7340  -10.3105  -15.5398 C   0  0  2  0  0  0  0  0  0  0  0  0
   -0.6475   -9.8145  -14.7514 N   0  0  0  0  0  0  0  0  0  0  0  0
   -2.5862  -10.3489  -12.2547 C   0  0  2  0  0  0  0  0  0  0  0  0
   -7.6243  -11.2025  -18.2486 C   0  0  2  0  0  0  0  0  0  0  0  0
   -7.2544  -12.5292  -17.7682 N   0  0  0  0  0  0  0  0  0  0  0  0
   -1.8054   -9.4885  -16.8841 C   0  0  0  0  0  0  0  0  0  0  0  0
   -1.8504  -11.5094  -11.5165 C   0  0  2  0  0  0  0  0  0  0  0  0
   -0.7289  -11.9084  -12.2859 O   0  0  0  0  0  0  0  0  0  0  0  0
   -7.3826  -11.0845  -19.7937 C   0  0  0  0  0  0  0  0  0  0  0  0
   -3.0077  -10.0456  -17.7625 C   0  0  2  0  0  0  0  0  0  0  0  0
   -3.0856   -9.2794  -19.0281 N   0  0  0  0  0  0  0  0  0  0  0  0
   -2.8930  -12.7038  -11.3665 C   0  0  1  0  0  0  0  0  0  0  0  0
   -2.2536  -13.8837  -10.6910 N   0  0  0  0  0  0  0  0  0  0  0  0
   -7.4992   -9.6049  -20.2613 C   0  0  0  0  0  0  0  0  0  0  0  0
   -4.3701   -9.9075  -16.9480 C   0  0  2  0  0  0  0  0  0  0  0  0
   -4.1599  -12.1990  -10.4760 C   0  0  1  0  0  0  0  0  0  0  0  0
   -3.7699  -11.7925   -9.1785 O   0  0  0  0  0  0  0  0  0  0  0  0
   -7.3795   -8.5930  -19.3887 C   0  0  2  0  0  0  0  0  0  0  0  0
   -7.1434   -8.7856  -17.9830 O   0  0  0  0  0  0  0  0  0  0  0  0
   -4.2530  -10.7204  -15.5911 C   0  0  2  0  0  0  0  0  0  0  0  0
   -5.4643  -10.5840  -14.8373 O   0  0  0  0  0  0  0  0  0  0  0  0
   -4.8288  -10.9701  -11.1793 C   0  0  0  0  0  0  0  0  0  0  0  0
   -3.7835   -9.9026  -11.4555 O   0  0  0  0  0  0  0  0  0  0  0  0
   -7.4951   -7.1163  -19.8334 C   0  0  0  0  0  0  0  0  0  0  0  0
   -6.2410   -6.6912  -20.4393 N   0  0  0  0  0  0  0  0  0  0  0  0
   -3.0596  -10.1594  -14.7364 C   0  0  1  0  0  0  0  0  0  0  0  0
   -2.9847  -10.9072  -13.5464 O   0  0  0  0  0  0  0  0  0  0  0  0
   -5.2669  -13.2400  -10.2402 C   0  0  0  0  0  0  0  0  0  0  0  0
   -1.5104  -14.8135  -11.5623 C   0  0  0  0  0  0  0  0  0  0  0  0
  1  2  1  6  0  0  0
  1  6  1  0  0  0  0
  1 21  1  0  0  0  0
  3  4  1  1  0  0  0
  3  8  1  0  0  0  0
  3 28  1  0  0  0  0
  5  9  1  0  0  0  0
  5 25  1  0  0  0  0
  5 29  1  6  0  0  0
  6  7  1  1  0  0  0
  6 11  1  0  0  0  0
  8 12  1  0  0  0  0
  9 10  1  6  0  0  0
  9 14  1  0  0  0  0
 11 16  1  0  0  0  0
 12 13  1  6  0  0  0
 12 17  1  0  0  0  0
 14 15  1  1  0  0  0
 14 18  1  0  0  0  0
 15 31  1  0  0  0  0
 16 20  1  0  0  0  0
 17  2  1  6  0  0  0
 17 22  1  0  0  0  0
 18 19  1  1  0  0  0
 18 24  1  0  0  0  0
 18 30  1  0  0  0  0
 20 21  1  0  0  0  0
 20 26  1  1  0  0  0
 22 23  1  1  0  0  0
 22 28  1  0  0  0  0
 24 25  1  0  0  0  0
 26 27  1  0  0  0  0
 28 29  1  1  0  0  0
M  END
>  <CHROM.1>
-162.34033966,-147.34722459,-85.25847728,-161.21352457,-79.24607592,95.23950275
-4.32743283,-10.67648997,-15.13747658,1.99183020,-0.20365907,-1.11917916

>  <Name>
ligand

>  <RI>
0

>  <Rbt.Current_Directory>
/home/itssahil/PROJECTS/Mol_Feturizer/New_Systems/rnas/4F8U

>  <Rbt.Executable>
rbdock ($Id: //depot/dev/client3/rdock/2013.1/src/exe/rbdock.cxx#4 $)

>  <Rbt.Library>
libRbt.so (2013.1, Build901 2013/11/27)

>  <Rbt.Parameter_File>
/export/apps/rDock/src/rDock_2013.1_src/data/scripts/dock_solv.prm

>  <Rbt.Receptor>
prm/pocket_docking_3.prm

>  <SCORE>
-16.7785

>  <SCORE.INTER>
-15.1418

>  <SCORE.INTER.CONST>
1

>  <SCORE.INTER.POLAR>
0

>  <SCORE.INTER.ROT>
6

>  <SCORE.INTER.SOLV>
22.1196

>  <SCORE.INTER.VDW>
-25.0678

>  <SCORE.INTER.norm>
-0.488446

>  <SCORE.INTRA>
-1.63665

>  <SCORE.INTRA.DIHEDRAL>
-3.4549

>  <SCORE.INTRA.DIHEDRAL.0>
18.77

>  <SCORE.INTRA.POLAR>
0

>  <SCORE.INTRA.POLAR.0>
0

>  <SCORE.INTRA.REPUL>
0

>  <SCORE.INTRA.REPUL.0>
0

>  <SCORE.INTRA.SOLV>
-0.852292

>  <SCORE.INTRA.SOLV.lig_0>
-77.2465

>  <SCORE.INTRA.VDW>
0.516947

>  <SCORE.INTRA.VDW.0>
-4.16072

>  <SCORE.INTRA.norm>
-0.0527951

>  <SCORE.RESTR>
0

>  <SCORE.RESTR.CAVITY>
0

>  <SCORE.RESTR.norm>
0

>  <SCORE.SYSTEM>
0

>  <SCORE.SYSTEM.CONST>
0

>  <SCORE.SYSTEM.DIHEDRAL>
0

>  <SCORE.SYSTEM.SOLV>
0

>  <SCORE.SYSTEM.norm>
0

>  <SCORE.heavy>
31

>  <SCORE.norm>
-0.541241

>  <RMSD>
0.481

$$$$
ligand
 OpenBabel11021811493D
libRbt.so/2013.1/901 2013/11/27
 31 33  0  0  0  0  0  0  0  0999 V2000
   -6.9002  -10.1062  -17.4948 C   0  0  2  0  0  0  0  0  0  0  0  0
   -5.5265  -10.4467  -17.7261 O   0  0  0  0  0  0  0  0  0  0  0  0
   -1.8201  -10.2760  -15.5914 C   0  0  2  0  0  0  0  0  0  0  0  0
   -0.7258   -9.7628  -14.8251 N   0  0  0  0  0  0  0  0  0  0  0  0
   -2.6411  -10.2919  -12.2872 C   0  0  2  0  0  0  0  0  0  0  0  0
   -7.7552  -11.1589  -18.2839 C   0  0  2  0  0  0  0  0  0  0  0  0
   -7.4225  -12.5043  -17.8287 N   0  0  0  0  0  0  0  0  0  0  0  0
   -1.9222   -9.4654  -16.9407 C   0  0  0  0  0  0  0  0  0  0  0  0
   -1.9183  -11.4439  -11.5232 C   0  0  2  0  0  0  0  0  0  0  0  0
   -0.7924  -11.8618  -12.2759 O   0  0  0  0  0  0  0  0  0  0  0  0
   -7.4898  -11.0124  -19.8227 C   0  0  0  0  0  0  0  0  0  0  0  0
   -3.1332  -10.0416  -17.7945 C   0  0  2  0  0  0  0  0  0  0  0  0
   -3.2400   -9.2861  -19.0646 N   0  0  0  0  0  0  0  0  0  0  0  0
   -2.9688  -12.6301  -11.3627 C   0  0  1  0  0  0  0  0  0  0  0  0
   -2.3420  -13.8020  -10.6620 N   0  0  0  0  0  0  0  0  0  0  0  0
   -7.5659   -9.5205  -20.2584 C   0  0  0  0  0  0  0  0  0  0  0  0
   -4.4833   -9.9108  -16.9584 C   0  0  2  0  0  0  0  0  0  0  0  0
   -4.2407  -12.1037  -10.4920 C   0  0  1  0  0  0  0  0  0  0  0  0
   -3.8598  -11.6777   -9.1980 O   0  0  0  0  0  0  0  0  0  0  0  0
   -7.4348   -8.5313  -19.3618 C   0  0  2  0  0  0  0  0  0  0  0  0
   -7.2223   -8.7604  -17.9579 O   0  0  0  0  0  0  0  0  0  0  0  0
   -4.3353  -10.7118  -15.5975 C   0  0  2  0  0  0  0  0  0  0  0  0
   -5.5353  -10.5817  -14.8247 O   0  0  0  0  0  0  0  0  0  0  0  0
   -4.8965  -10.8831  -11.2215 C   0  0  0  0  0  0  0  0  0  0  0  0
   -3.8429   -9.8259  -11.5061 O   0  0  0  0  0  0  0  0  0  0  0  0
   -7.5102   -7.0428  -19.7748 C   0  0  0  0  0  0  0  0  0  0  0  0
   -6.2657   -6.6542  -20.4233 N   0  0  0  0  0  0  0  0  0  0  0  0
   -3.1337  -10.1320  -14.7671 C   0  0  1  0  0  0  0  0  0  0  0  0
   -3.0314  -10.8696  -13.5728 O   0  0  0  0  0  0  0  0  0  0  0  0
   -5.3554  -13.1345  -10.2487 C   0  0  0  0  0  0  0  0  0  0  0  0
   -1.5600  -14.7267  -11.5044 C   0  0  0  0  0  0  0  0  0  0  0  0
  1  2  1  6  0  0  0
  1  6  1  0  0  0  0
  1 21  1  0  0  0  0
  3  4  1  1  0  0  0
  3  8  1  0  0  0  0
  3 28  1  0  0  0  0
  5  9  1  0  0  0  0
  5 25  1  0  0  0  0
  5 29  1  6  0  0  0
  6  7  1  1  0  0  0
  6 11  1  0  0  0  0
  8 12  1  0  0  0  0
  9 10  1  6  0  0  0
  9 14  1  0  0  0  0
 11 16  1  0  0  0  0
 12 13  1  6  0  0  0
 12 17  1  0  0  0  0
 14 15  1  1  0  0  0
 14 18  1  0  0  0  0
 15 31  1  0  0  0  0
 16 20  1  0  0  0  0
 17  2  1  6  0  0  0
 17 22  1  0  0  0  0
 18 19  1  1  0  0  0
 18 24  1  0  0  0  0
 18 30  1  0  0  0  0
 20 21  1  0  0  0  0
 20 26  1  1  0  0  0
 22 23  1  1  0  0  0
 22 28  1  0  0  0  0
 24 25  1  0  0  0  0
 26 27  1  0  0  0  0
 28 29  1  1  0  0  0
M  END
>  <CHROM.1>
-165.96678254,-149.50103777,-83.36143757,-158.84753068,-76.04578786,96.41986611
-4.41145710,-10.62867447,-15.14895836,1.99416237,-0.20136225,-1.12451783

>  <Name>
ligand

>  <RI>
0

>  <Rbt.Current_Directory>
/home/itssahil/PROJECTS/Mol_Feturizer/New_Systems/rnas/4F8U

>  <Rbt.Executable>
rbdock ($Id: //depot/dev/client3/rdock/2013.1/src/exe/rbdock.cxx#4 $)

>  <Rbt.Library>
libRbt.so (2013.1, Build901 2013/11/27)

>  <Rbt.Parameter_File>
/export/apps/rDock/src/rDock_2013.1_src/data/scripts/dock_solv.prm

>  <Rbt.Receptor>
prm/pocket_docking_3.prm

>  <SCORE>
-16.9209

>  <SCORE.INTER>
-15.2009

>  <SCORE.INTER.CONST>
1

>  <SCORE.INTER.POLAR>
0

>  <SCORE.INTER.ROT>
6

>  <SCORE.INTER.SOLV>
22.3815

>  <SCORE.INTER.VDW>
-25.1944

>  <SCORE.INTER.norm>
-0.49035

>  <SCORE.INTRA>
-1.72004

>  <SCORE.INTRA.DIHEDRAL>
-3.69366

>  <SCORE.INTRA.DIHEDRAL.0>
18.77

>  <SCORE.INTRA.POLAR>
0

>  <SCORE.INTRA.POLAR.0>
0

>  <SCORE.INTRA.REPUL>
0

>  <SCORE.INTRA.REPUL.0>
0

>  <SCORE.INTRA.SOLV>
-0.754306

>  <SCORE.INTRA.SOLV.lig_0>
-77.2465

>  <SCORE.INTRA.VDW>
0.503944

>  <SCORE.INTRA.VDW.0>
-4.16072

>  <SCORE.INTRA.norm>
-0.0554851

>  <SCORE.RESTR>
0

>  <SCORE.RESTR.CAVITY>
0

>  <SCORE.RESTR.norm>
0

>  <SCORE.SYSTEM>
0

>  <SCORE.SYSTEM.CONST>
0

>  <SCORE.SYSTEM.DIHEDRAL>
0

>  <SCORE.SYSTEM.SOLV>
0

>  <SCORE.SYSTEM.norm>
0

>  <SCORE.heavy>
31

>  <SCORE.norm>
-0.545836

>  <RMSD>
0.492

$$$$
ligand
 OpenBabel11021811493D
libRbt.so/2013.1/901 2013/11/27
 31 33  0  0  0  0  0  0  0  0999 V2000
   -6.8776  -10.1143  -17.4483 C   0  0  2  0  0  0  0  0  0  0  0  0
   -5.5175  -10.5259  -17.6408 O   0  0  0  0  0  0  0  0  0  0  0  0
   -1.7647  -10.3363  -15.5903 C   0  0  2  0  0  0  0  0  0  0  0  0
   -0.6557   -9.8174  -14.8496 N   0  0  0  0  0  0  0  0  0  0  0  0
   -2.5733  -10.3400  -12.2547 C   0  0  2  0  0  0  0  0  0  0  0  0
   -7.7697  -11.1879  -18.1650 C   0  0  2  0  0  0  0  0  0  0  0  0
   -7.4949  -12.5078  -17.6081 N   0  0  0  0  0  0  0  0  0  0  0  0
   -1.9007   -9.5282  -16.9381 C   0  0  0  0  0  0  0  0  0  0  0  0
   -1.8595  -11.4791  -11.4634 C   0  0  2  0  0  0  0  0  0  0  0  0
   -0.7123  -11.8938  -12.1851 O   0  0  0  0  0  0  0  0  0  0  0  0
   -7.4888  -11.1673  -19.7079 C   0  0  0  0  0  0  0  0  0  0  0  0
   -3.1281  -10.1107  -17.7636 C   0  0  2  0  0  0  0  0  0  0  0  0
   -3.2666   -9.3576  -19.0320 N   0  0  0  0  0  0  0  0  0  0  0  0
   -2.9036  -12.6727  -11.3176 C   0  0  1  0  0  0  0  0  0  0  0  0
   -2.2841  -13.8331  -10.5916 N   0  0  0  0  0  0  0  0  0  0  0  0
   -7.5014   -9.7101  -20.2539 C   0  0  0  0  0  0  0  0  0  0  0  0
   -4.4595   -9.9845  -16.8975 C   0  0  2  0  0  0  0  0  0  0  0  0
   -4.2004  -12.1497  -10.4824 C   0  0  1  0  0  0  0  0  0  0  0  0
   -3.8544  -11.7092   -9.1835 O   0  0  0  0  0  0  0  0  0  0  0  0
   -7.3359   -8.6629  -19.4320 C   0  0  2  0  0  0  0  0  0  0  0  0
   -7.1419   -8.7950  -18.0130 O   0  0  0  0  0  0  0  0  0  0  0  0
   -4.2776  -10.7828  -15.5392 C   0  0  2  0  0  0  0  0  0  0  0  0
   -5.4604  -10.6567  -14.7398 O   0  0  0  0  0  0  0  0  0  0  0  0
   -4.8487  -10.9411  -11.2383 C   0  0  0  0  0  0  0  0  0  0  0  0
   -3.7974   -9.8775  -11.5069 O   0  0  0  0  0  0  0  0  0  0  0  0
   -7.3481   -7.2075  -19.9550 C   0  0  0  0  0  0  0  0  0  0  0  0
   -5.9795   -6.7404  -20.1259 N   0  0  0  0  0  0  0  0  0  0  0  0
   -3.0600  -10.1967  -14.7369 C   0  0  1  0  0  0  0  0  0  0  0  0
   -2.9277  -10.9322  -13.5442 O   0  0  0  0  0  0  0  0  0  0  0  0
   -5.3120  -13.1879  -10.2567 C   0  0  0  0  0  0  0  0  0  0  0  0
   -1.5460  -14.8051  -11.4202 C   0  0  0  0  0  0  0  0  0  0  0  0
  1  2  1  6  0  0  0
  1  6  1  0  0  0  0
  1 21  1  0  0  0  0
  3  4  1  1  0  0  0
  3  8  1  0  0  0  0
  3 28  1  0  0  0  0
  5  9  1  0  0  0  0
  5 25  1  0  0  0  0
  5 29  1  6  0  0  0
  6  7  1  1  0  0  0
  6 11  1  0  0  0  0
  8 12  1  0  0  0  0
  9 10  1  6  0  0  0
  9 14  1  0  0  0  0
 11 16  1  0  0  0  0
 12 13  1  6  0  0  0
 12 17  1  0  0  0  0
 14 15  1  1  0  0  0
 14 18  1  0  0  0  0
 15 31  1  0  0  0  0
 16 20  1  0  0  0  0
 17  2  1  6  0  0  0
 17 22  1  0  0  0  0
 18 19  1  1  0  0  0
 18 24  1  0  0  0  0
 18 30  1  0  0  0  0
 20 21  1  0  0  0  0
 20 26  1  1  0  0  0
 22 23  1  1  0  0  0
 22 28  1  0  0  0  0
 24 25  1  0  0  0  0
 26 27  1  0  0  0  0
 28 29  1  1  0  0  0
M  END
>  <CHROM.1>
-165.42598390,-152.17049227,-87.11705353,-153.94923531,-98.50619437,99.47429567
-4.35885770,-10.69481492,-15.10798320,1.99522418,-0.22295693,-1.11959269

>  <Name>
ligand

>  <RI>
0

>  <Rbt.Current_Directory>
/home/itssahil/PROJECTS/Mol_Feturizer/New_Systems/rnas/4F8U

>  <Rbt.Executable>
rbdock ($Id: //depot/dev/client3/rdock/2013.1/src/exe/rbdock.cxx#4 $)

>  <Rbt.Library>
libRbt.so (2013.1, Build901 2013/11/27)

>  <Rbt.Parameter_File>
/export/apps/rDock/src/rDock_2013.1_src/data/scripts/dock_solv.prm

>  <Rbt.Receptor>
prm/pocket_docking_3.prm

>  <SCORE>
-16.8068

>  <SCORE.INTER>
-15.047

>  <SCORE.INTER.CONST>
1

>  <SCORE.INTER.POLAR>
0

>  <SCORE.INTER.ROT>
6

>  <SCORE.INTER.SOLV>
22.4956

>  <SCORE.INTER.VDW>
-25.1299

>  <SCORE.INTER.norm>
-0.485388

>  <SCORE.INTRA>
-1.7598

>  <SCORE.INTRA.DIHEDRAL>
-3.67138

>  <SCORE.INTRA.DIHEDRAL.0>
18.77

>  <SCORE.INTRA.POLAR>
0

>  <SCORE.INTRA.POLAR.0>
0

>  <SCORE.INTRA.REPUL>
0

>  <SCORE.INTRA.REPUL.0>
0

>  <SCORE.INTRA.SOLV>
-0.166406

>  <SCORE.INTRA.SOLV.lig_0>
-77.2465

>  <SCORE.INTRA.VDW>
0.159093

>  <SCORE.INTRA.VDW.0>
-4.16072

>  <SCORE.INTRA.norm>
-0.0567678

>  <SCORE.RESTR>
0

>  <SCORE.RESTR.CAVITY>
0

>  <SCORE.RESTR.norm>
0

>  <SCORE.SYSTEM>
0

>  <SCORE.SYSTEM.CONST>
0

>  <SCORE.SYSTEM.DIHEDRAL>
0

>  <SCORE.SYSTEM.SOLV>
0

>  <SCORE.SYSTEM.norm>
0

>  <SCORE.heavy>
31

>  <SCORE.norm>
-0.542156

>  <RMSD>
0.494

$$$$
ligand
 OpenBabel11021811493D
libRbt.so/2013.1/901 2013/11/27
 31 33  0  0  0  0  0  0  0  0999 V2000
   -6.8802  -10.1343  -17.4733 C   0  0  2  0  0  0  0  0  0  0  0  0
   -5.5147  -10.5264  -17.6686 O   0  0  0  0  0  0  0  0  0  0  0  0
   -1.7744  -10.3259  -15.5965 C   0  0  2  0  0  0  0  0  0  0  0  0
   -0.6736   -9.8051  -14.8449 N   0  0  0  0  0  0  0  0  0  0  0  0
   -2.5531  -10.3767  -12.2755 C   0  0  2  0  0  0  0  0  0  0  0  0
   -7.7575  -11.2091  -18.2061 C   0  0  2  0  0  0  0  0  0  0  0  0
   -7.4674  -12.5328  -17.6663 N   0  0  0  0  0  0  0  0  0  0  0  0
   -1.9100   -9.5057  -16.9370 C   0  0  0  0  0  0  0  0  0  0  0  0
   -1.8549  -11.5381  -11.5030 C   0  0  2  0  0  0  0  0  0  0  0  0
   -0.7302  -11.9763  -12.2460 O   0  0  0  0  0  0  0  0  0  0  0  0
   -7.4741  -11.1644  -19.7480 C   0  0  0  0  0  0  0  0  0  0  0  0
   -3.1282  -10.0902  -17.7747 C   0  0  2  0  0  0  0  0  0  0  0  0
   -3.2665   -9.3258  -19.0363 N   0  0  0  0  0  0  0  0  0  0  0  0
   -2.9257  -12.7066  -11.3473 C   0  0  1  0  0  0  0  0  0  0  0  0
   -2.3234  -13.8866  -10.6388 N   0  0  0  0  0  0  0  0  0  0  0  0
   -7.5039   -9.7003  -20.2745 C   0  0  0  0  0  0  0  0  0  0  0  0
   -4.4652   -9.9835  -16.9145 C   0  0  2  0  0  0  0  0  0  0  0  0
   -4.1954  -12.1572  -10.4877 C   0  0  1  0  0  0  0  0  0  0  0  0
   -3.8175  -11.7339   -9.1920 O   0  0  0  0  0  0  0  0  0  0  0  0
   -7.3529   -8.6622  -19.4383 C   0  0  2  0  0  0  0  0  0  0  0  0
   -7.1598   -8.8109  -18.0208 O   0  0  0  0  0  0  0  0  0  0  0  0
   -4.2836  -10.7937  -15.5631 C   0  0  2  0  0  0  0  0  0  0  0  0
   -5.4716  -10.6852  -14.7687 O   0  0  0  0  0  0  0  0  0  0  0  0
   -4.8258  -10.9281  -11.2254 C   0  0  0  0  0  0  0  0  0  0  0  0
   -3.7530   -9.8890  -11.5048 O   0  0  0  0  0  0  0  0  0  0  0  0
   -7.3822   -7.2002  -19.9418 C   0  0  0  0  0  0  0  0  0  0  0  0
   -6.0192   -6.7181  -20.1159 N   0  0  0  0  0  0  0  0  0  0  0  0
   -3.0752  -10.2054  -14.7486 C   0  0  1  0  0  0  0  0  0  0  0  0
   -2.9429  -10.9515  -13.5625 O   0  0  0  0  0  0  0  0  0  0  0  0
   -5.3286  -13.1691  -10.2502 C   0  0  0  0  0  0  0  0  0  0  0  0
   -1.4474  -14.7574  -11.4454 C   0  0  0  0  0  0  0  0  0  0  0  0
  1  2  1  6  0  0  0
  1  6  1  0  0  0  0
  1 21  1  0  0  0  0
  3  4  1  1  0  0  0
  3  8  1  0  0  0  0
  3 28  1  0  0  0  0
  5  9  1  0  0  0  0
  5 25  1  0  0  0  0
  5 29  1  6  0  0  0
  6  7  1  1  0  0  0
  6 11  1  0  0  0  0
  8 12  1  0  0  0  0
  9 10  1  6  0  0  0
  9 14  1  0  0  0  0
 11 16  1  0  0  0  0
 12 13  1  6  0  0  0
 12 17  1  0  0  0  0
 14 15  1  1  0  0  0
 14 18  1  0  0  0  0
 15 31  1  0  0  0  0
 16 20  1  0  0  0  0
 17  2  1  6  0  0  0
 17 22  1  0  0  0  0
 18 19  1  1  0  0  0
 18 24  1  0  0  0  0
 18 30  1  0  0  0  0
 20 21  1  0  0  0  0
 20 26  1  1  0  0  0
 22 23  1  1  0  0  0
 22 28  1  0  0  0  0
 24 25  1  0  0  0  0
 26 27  1  0  0  0  0
 28 29  1  1  0  0  0
M  END
>  <CHROM.1>
-165.31407413,-152.10742309,-77.87076944,-154.36138531,-97.96979469,97.17013253
-4.35881953,-10.70273473,-15.12529702,1.99717344,-0.22152064,-1.11754692

>  <Name>
ligand

>  <RI>
0

>  <Rbt.Current_Directory>
/home/itssahil/PROJECTS/Mol_Feturizer/New_Systems/rnas/4F8U

>  <Rbt.Executable>
rbdock ($Id: //depot/dev/client3/rdock/2013.1/src/exe/rbdock.cxx#4 $)

>  <Rbt.Library>
libRbt.so (2013.1, Build901 2013/11/27)

>  <Rbt.Parameter_File>
/export/apps/rDock/src/rDock_2013.1_src/data/scripts/dock_solv.prm

>  <Rbt.Receptor>
prm/pocket_docking_3.prm

>  <SCORE>
-16.7469

>  <SCORE.INTER>
-15.0108

>  <SCORE.INTER.CONST>
1

>  <SCORE.INTER.POLAR>
0

>  <SCORE.INTER.ROT>
6

>  <SCORE.INTER.SOLV>
22.4583

>  <SCORE.INTER.VDW>
-25.0933

>  <SCORE.INTER.norm>
-0.484218

>  <SCORE.INTRA>
-1.73611

>  <SCORE.INTRA.DIHEDRAL>
-4.35532

>  <SCORE.INTRA.DIHEDRAL.0>
18.77

>  <SCORE.INTRA.POLAR>
0

>  <SCORE.INTRA.POLAR.0>
0

>  <SCORE.INTRA.REPUL>
0

>  <SCORE.INTRA.REPUL.0>
0

>  <SCORE.INTRA.SOLV>
-0.179088

>  <SCORE.INTRA.SOLV.lig_0>
-77.2465

>  <SCORE.INTRA.VDW>
0.531092

>  <SCORE.INTRA.VDW.0>
-4.16072

>  <SCORE.INTRA.norm>
-0.0560036

>  <SCORE.RESTR>
0

>  <SCORE.RESTR.CAVITY>
0

>  <SCORE.RESTR.norm>
0

>  <SCORE.SYSTEM>
0

>  <SCORE.SYSTEM.CONST>
0

>  <SCORE.SYSTEM.DIHEDRAL>
0

>  <SCORE.SYSTEM.SOLV>
0

>  <SCORE.SYSTEM.norm>
0

>  <SCORE.heavy>
31

>  <SCORE.norm>
-0.540222

>  <RMSD>
0.502

$$$$
ligand
 OpenBabel11021811493D
libRbt.so/2013.1/901 2013/11/27
 31 33  0  0  0  0  0  0  0  0999 V2000
   -6.8713   -9.8629  -17.6497 C   0  0  2  0  0  0  0  0  0  0  0  0
   -5.5368  -10.3859  -17.6943 O   0  0  0  0  0  0  0  0  0  0  0  0
   -1.9629  -10.3914  -15.3381 C   0  0  2  0  0  0  0  0  0  0  0  0
   -0.8905   -9.9294  -14.5108 N   0  0  0  0  0  0  0  0  0  0  0  0
   -2.9684  -10.3268  -12.0925 C   0  0  2  0  0  0  0  0  0  0  0  0
   -7.8074  -10.9930  -18.2052 C   0  0  2  0  0  0  0  0  0  0  0  0
   -7.6478  -12.2022  -17.4052 N   0  0  0  0  0  0  0  0  0  0  0  0
   -1.9382   -9.5928  -16.6981 C   0  0  0  0  0  0  0  0  0  0  0  0
   -2.1386  -11.4362  -11.3756 C   0  0  2  0  0  0  0  0  0  0  0  0
   -0.9914  -11.7304  -12.1541 O   0  0  0  0  0  0  0  0  0  0  0  0
   -7.4652  -11.2740  -19.7098 C   0  0  0  0  0  0  0  0  0  0  0  0
   -3.1250  -10.1124  -17.6195 C   0  0  2  0  0  0  0  0  0  0  0  0
   -3.1128   -9.3676  -18.9002 N   0  0  0  0  0  0  0  0  0  0  0  0
   -3.0808  -12.7133  -11.2434 C   0  0  1  0  0  0  0  0  0  0  0  0
   -2.3458  -13.8487  -10.5893 N   0  0  0  0  0  0  0  0  0  0  0  0
   -7.3544   -9.9443  -20.5104 C   0  0  0  0  0  0  0  0  0  0  0  0
   -4.5141   -9.8984  -16.8688 C   0  0  2  0  0  0  0  0  0  0  0  0
   -4.3811  -12.3274  -10.3417 C   0  0  1  0  0  0  0  0  0  0  0  0
   -4.0205  -11.9123   -9.0384 O   0  0  0  0  0  0  0  0  0  0  0  0
   -7.1485   -8.7758  -19.8843 C   0  0  2  0  0  0  0  0  0  0  0  0
   -7.0201   -8.6563  -18.4567 O   0  0  0  0  0  0  0  0  0  0  0  0
   -4.4933  -10.6898  -15.4944 C   0  0  2  0  0  0  0  0  0  0  0  0
   -5.7289  -10.4853  -14.7977 O   0  0  0  0  0  0  0  0  0  0  0  0
   -5.1496  -11.1451  -11.0226 C   0  0  0  0  0  0  0  0  0  0  0  0
   -4.1949   -9.9921  -11.2831 O   0  0  0  0  0  0  0  0  0  0  0  0
   -7.0382   -7.4436  -20.6619 C   0  0  0  0  0  0  0  0  0  0  0  0
   -7.5675   -6.3592  -19.8469 N   0  0  0  0  0  0  0  0  0  0  0  0
   -3.3141  -10.1663  -14.5971 C   0  0  1  0  0  0  0  0  0  0  0  0
   -3.3252  -10.8940  -13.3925 O   0  0  0  0  0  0  0  0  0  0  0  0
   -5.3995  -13.4582  -10.1209 C   0  0  0  0  0  0  0  0  0  0  0  0
   -1.5441  -14.7091  -11.4799 C   0  0  0  0  0  0  0  0  0  0  0  0
  1  2  1  6  0  0  0
  1  6  1  0  0  0  0
  1 21  1  0  0  0  0
  3  4  1  1  0  0  0
  3  8  1  0  0  0  0
  3 28  1  0  0  0  0
  5  9  1  0  0  0  0
  5 25  1  0  0  0  0
  5 29  1  6  0  0  0
  6  7  1  1  0  0  0
  6 11  1  0  0  0  0
  8 12  1  0  0  0  0
  9 10  1  6  0  0  0
  9 14  1  0  0  0  0
 11 16  1  0  0  0  0
 12 13  1  6  0  0  0
 12 17  1  0  0  0  0
 14 15  1  1  0  0  0
 14 18  1  0  0  0  0
 15 31  1  0  0  0  0
 16 20  1  0  0  0  0
 17  2  1  6  0  0  0
 17 22  1  0  0  0  0
 18 19  1  1  0  0  0
 18 24  1  0  0  0  0
 18 30  1  0  0  0  0
 20 21  1  0  0  0  0
 20 26  1  1  0  0  0
 22 23  1  1  0  0  0
 22 28  1  0  0  0  0
 24 25  1  0  0  0  0
 26 27  1  0  0  0  0
 28 29  1  1  0  0  0
M  END
>  <CHROM.1>
-156.47391017,-139.68018241,-85.86540376,-151.85563768,147.81053962,95.72557698
-4.51605324,-10.68809052,-15.08026847,1.96999886,-0.17320640,-1.14372042

>  <Name>
ligand

>  <RI>
0

>  <Rbt.Current_Directory>
/home/itssahil/PROJECTS/Mol_Feturizer/New_Systems/rnas/4F8U

>  <Rbt.Executable>
rbdock ($Id: //depot/dev/client3/rdock/2013.1/src/exe/rbdock.cxx#4 $)

>  <Rbt.Library>
libRbt.so (2013.1, Build901 2013/11/27)

>  <Rbt.Parameter_File>
/export/apps/rDock/src/rDock_2013.1_src/data/scripts/dock_solv.prm

>  <Rbt.Receptor>
prm/pocket_docking_2.prm

>  <SCORE>
-13.3541

>  <SCORE.INTER>
-13.8225

>  <SCORE.INTER.CONST>
1

>  <SCORE.INTER.POLAR>
0

>  <SCORE.INTER.ROT>
6

>  <SCORE.INTER.SOLV>
25.4744

>  <SCORE.INTER.VDW>
-25.3065

>  <SCORE.INTER.norm>
-0.445886

>  <SCORE.INTRA>
0.468387

>  <SCORE.INTRA.DIHEDRAL>
-0.00287289

>  <SCORE.INTRA.DIHEDRAL.0>
18.77

>  <SCORE.INTRA.POLAR>
0

>  <SCORE.INTRA.POLAR.0>
0

>  <SCORE.INTRA.REPUL>
0

>  <SCORE.INTRA.REPUL.0>
0

>  <SCORE.INTRA.SOLV>
0.146914

>  <SCORE.INTRA.SOLV.lig_0>
-77.2465

>  <SCORE.INTRA.VDW>
0.396366

>  <SCORE.INTRA.VDW.0>
-4.16072

>  <SCORE.INTRA.norm>
0.0151093

>  <SCORE.RESTR>
0

>  <SCORE.RESTR.CAVITY>
0

>  <SCORE.RESTR.norm>
0

>  <SCORE.SYSTEM>
0

>  <SCORE.SYSTEM.CONST>
0

>  <SCORE.SYSTEM.DIHEDRAL>
0

>  <SCORE.SYSTEM.SOLV>
0

>  <SCORE.SYSTEM.norm>
0

>  <SCORE.heavy>
31

>  <SCORE.norm>
-0.430777

>  <RMSD>
0.508

$$$$
ligand
 OpenBabel11021811493D
libRbt.so/2013.1/901 2013/11/27
 31 33  0  0  0  0  0  0  0  0999 V2000
   -6.9030  -10.1695  -17.4687 C   0  0  2  0  0  0  0  0  0  0  0  0
   -5.5345  -10.5599  -17.6455 O   0  0  0  0  0  0  0  0  0  0  0  0
   -1.8017  -10.3070  -15.5657 C   0  0  2  0  0  0  0  0  0  0  0  0
   -0.7092   -9.7705  -14.8129 N   0  0  0  0  0  0  0  0  0  0  0  0
   -2.5475  -10.3673  -12.2554 C   0  0  2  0  0  0  0  0  0  0  0  0
   -7.7680  -11.2334  -18.2314 C   0  0  2  0  0  0  0  0  0  0  0  0
   -7.4881  -12.5647  -17.7049 N   0  0  0  0  0  0  0  0  0  0  0  0
   -1.9448   -9.4916  -16.9084 C   0  0  0  0  0  0  0  0  0  0  0  0
   -1.8085  -11.5209  -11.5094 C   0  0  2  0  0  0  0  0  0  0  0  0
   -0.6999  -11.9383  -12.2876 O   0  0  0  0  0  0  0  0  0  0  0  0
   -7.4576  -11.1678  -19.7674 C   0  0  0  0  0  0  0  0  0  0  0  0
   -3.1535  -10.0935  -17.7474 C   0  0  2  0  0  0  0  0  0  0  0  0
   -3.2987   -9.3338  -19.0111 N   0  0  0  0  0  0  0  0  0  0  0  0
   -2.8558  -12.7066  -11.3273 C   0  0  1  0  0  0  0  0  0  0  0  0
   -2.2143  -13.8799  -10.6424 N   0  0  0  0  0  0  0  0  0  0  0  0
   -7.4774   -9.6966  -20.2741 C   0  0  0  0  0  0  0  0  0  0  0  0
   -4.4937  -10.0020  -16.8903 C   0  0  2  0  0  0  0  0  0  0  0  0
   -4.1077  -12.1808  -10.4276 C   0  0  1  0  0  0  0  0  0  0  0  0
   -3.6978  -11.7570   -9.1418 O   0  0  0  0  0  0  0  0  0  0  0  0
   -7.3405   -8.6702  -19.4213 C   0  0  2  0  0  0  0  0  0  0  0  0
   -7.1722   -8.8385  -18.0028 O   0  0  0  0  0  0  0  0  0  0  0  0
   -4.3048  -10.8067  -15.5367 C   0  0  2  0  0  0  0  0  0  0  0  0
   -5.4958  -10.7116  -14.7452 O   0  0  0  0  0  0  0  0  0  0  0  0
   -4.7789  -10.9587  -11.1406 C   0  0  0  0  0  0  0  0  0  0  0  0
   -3.7312   -9.9018  -11.4470 O   0  0  0  0  0  0  0  0  0  0  0  0
   -7.3602   -7.2014  -19.9051 C   0  0  0  0  0  0  0  0  0  0  0  0
   -5.9947   -6.7364  -20.1043 N   0  0  0  0  0  0  0  0  0  0  0  0
   -3.1058  -10.2013  -14.7210 C   0  0  1  0  0  0  0  0  0  0  0  0
   -2.9666  -10.9429  -13.5329 O   0  0  0  0  0  0  0  0  0  0  0  0
   -5.2173  -13.2114  -10.1611 C   0  0  0  0  0  0  0  0  0  0  0  0
   -1.5638  -14.8734  -11.5177 C   0  0  0  0  0  0  0  0  0  0  0  0
  1  2  1  6  0  0  0
  1  6  1  0  0  0  0
  1 21  1  0  0  0  0
  3  4  1  1  0  0  0
  3  8  1  0  0  0  0
  3 28  1  0  0  0  0
  5  9  1  0  0  0  0
  5 25  1  0  0  0  0
  5 29  1  6  0  0  0
  6  7  1  1  0  0  0
  6 11  1  0  0  0  0
  8 12  1  0  0  0  0
  9 10  1  6  0  0  0
  9 14  1  0  0  0  0
 11 16  1  0  0  0  0
 12 13  1  6  0  0  0
 12 17  1  0  0  0  0
 14 15  1  1  0  0  0
 14 18  1  0  0  0  0
 15 31  1  0  0  0  0
 16 20  1  0  0  0  0
 17  2  1  6  0  0  0
 17 22  1  0  0  0  0
 18 19  1  1  0  0  0
 18 24  1  0  0  0  0
 18 30  1  0  0  0  0
 20 21  1  0  0  0  0
 20 26  1  1  0  0  0
 22 23  1  1  0  0  0
 22 28  1  0  0  0  0
 24 25  1  0  0  0  0
 26 27  1  0  0  0  0
 28 29  1  1  0  0  0
M  END
>  <CHROM.1>
-167.06571332,-150.04845953,-89.11211401,-153.35248317,-95.52563409,95.22463385
-4.35026234,-10.71430246,-15.10719248,2.00217732,-0.24796260,-1.10651108

>  <Name>
ligand

>  <RI>
0

>  <Rbt.Current_Directory>
/home/itssahil/PROJECTS/Mol_Feturizer/New_Systems/rnas/4F8U

>  <Rbt.Executable>
rbdock ($Id: //depot/dev/client3/rdock/2013.1/src/exe/rbdock.cxx#4 $)

>  <Rbt.Library>
libRbt.so (2013.1, Build901 2013/11/27)

>  <Rbt.Parameter_File>
/export/apps/rDock/src/rDock_2013.1_src/data/scripts/dock_solv.prm

>  <Rbt.Receptor>
prm/pocket_docking_4.prm

>  <SCORE>
-17.0415

>  <SCORE.INTER>
-15.209

>  <SCORE.INTER.CONST>
1

>  <SCORE.INTER.POLAR>
0

>  <SCORE.INTER.ROT>
6

>  <SCORE.INTER.SOLV>
22.5414

>  <SCORE.INTER.VDW>
-25.2531

>  <SCORE.INTER.norm>
-0.490614

>  <SCORE.INTRA>
-1.83248

>  <SCORE.INTRA.DIHEDRAL>
-3.90445

>  <SCORE.INTRA.DIHEDRAL.0>
18.77

>  <SCORE.INTRA.POLAR>
0

>  <SCORE.INTRA.POLAR.0>
0

>  <SCORE.INTRA.REPUL>
0

>  <SCORE.INTRA.REPUL.0>
0

>  <SCORE.INTRA.SOLV>
-0.0376706

>  <SCORE.INTRA.SOLV.lig_0>
-77.2465

>  <SCORE.INTRA.VDW>
0.138582

>  <SCORE.INTRA.VDW.0>
-4.16072

>  <SCORE.INTRA.norm>
-0.0591122

>  <SCORE.RESTR>
0

>  <SCORE.RESTR.CAVITY>
0

>  <SCORE.RESTR.norm>
0

>  <SCORE.SYSTEM>
0

>  <SCORE.SYSTEM.CONST>
0

>  <SCORE.SYSTEM.DIHEDRAL>
0

>  <SCORE.SYSTEM.SOLV>
0

>  <SCORE.SYSTEM.norm>
0

>  <SCORE.heavy>
31

>  <SCORE.norm>
-0.549726

>  <RMSD>
0.518

$$$$
ligand
 OpenBabel11021811493D
libRbt.so/2013.1/901 2013/11/27
 31 33  0  0  0  0  0  0  0  0999 V2000
   -6.8770   -9.8935  -17.6878 C   0  0  2  0  0  0  0  0  0  0  0  0
   -5.5380  -10.4064  -17.7145 O   0  0  0  0  0  0  0  0  0  0  0  0
   -2.0208  -10.4056  -15.2747 C   0  0  2  0  0  0  0  0  0  0  0  0
   -0.9649   -9.9401  -14.4283 N   0  0  0  0  0  0  0  0  0  0  0  0
   -3.0308  -10.3133  -12.0652 C   0  0  2  0  0  0  0  0  0  0  0  0
   -7.7943  -11.0225  -18.2758 C   0  0  2  0  0  0  0  0  0  0  0  0
   -7.6407  -12.2414  -17.4893 N   0  0  0  0  0  0  0  0  0  0  0  0
   -1.9583   -9.6251  -16.6440 C   0  0  0  0  0  0  0  0  0  0  0  0
   -2.1681  -11.4227  -11.3882 C   0  0  2  0  0  0  0  0  0  0  0  0
   -1.0488  -11.7037  -12.2110 O   0  0  0  0  0  0  0  0  0  0  0  0
   -7.4223  -11.2807  -19.7774 C   0  0  0  0  0  0  0  0  0  0  0  0
   -3.1268  -10.1486  -17.5863 C   0  0  2  0  0  0  0  0  0  0  0  0
   -3.0791   -9.4209  -18.8760 N   0  0  0  0  0  0  0  0  0  0  0  0
   -3.0969  -12.7068  -11.2311 C   0  0  1  0  0  0  0  0  0  0  0  0
   -2.3312  -13.8423  -10.6134 N   0  0  0  0  0  0  0  0  0  0  0  0
   -7.3063   -9.9395  -20.5579 C   0  0  0  0  0  0  0  0  0  0  0  0
   -4.5316   -9.9152  -16.8716 C   0  0  2  0  0  0  0  0  0  0  0  0
   -4.3652  -12.3361  -10.2788 C   0  0  1  0  0  0  0  0  0  0  0  0
   -3.9590  -11.9285   -8.9866 O   0  0  0  0  0  0  0  0  0  0  0  0
   -7.1206   -8.7782  -19.9124 C   0  0  2  0  0  0  0  0  0  0  0  0
   -7.0196   -8.6772  -18.4812 O   0  0  0  0  0  0  0  0  0  0  0  0
   -4.5489  -10.6885  -15.4869 C   0  0  2  0  0  0  0  0  0  0  0  0
   -5.7991  -10.4664  -14.8223 O   0  0  0  0  0  0  0  0  0  0  0  0
   -5.1657  -11.1536  -10.9216 C   0  0  0  0  0  0  0  0  0  0  0  0
   -4.2284   -9.9926  -11.2084 O   0  0  0  0  0  0  0  0  0  0  0  0
   -7.0056   -7.4349  -20.6699 C   0  0  0  0  0  0  0  0  0  0  0  0
   -7.5634   -6.3663  -19.8529 N   0  0  0  0  0  0  0  0  0  0  0  0
   -3.3874  -10.1614  -14.5689 C   0  0  1  0  0  0  0  0  0  0  0  0
   -3.4321  -10.8731  -13.3554 O   0  0  0  0  0  0  0  0  0  0  0  0
   -5.3677  -13.4750  -10.0292 C   0  0  0  0  0  0  0  0  0  0  0  0
   -1.5455  -14.6816  -11.5379 C   0  0  0  0  0  0  0  0  0  0  0  0
  1  2  1  6  0  0  0
  1  6  1  0  0  0  0
  1 21  1  0  0  0  0
  3  4  1  1  0  0  0
  3  8  1  0  0  0  0
  3 28  1  0  0  0  0
  5  9  1  0  0  0  0
  5 25  1  0  0  0  0
  5 29  1  6  0  0  0
  6  7  1  1  0  0  0
  6 11  1  0  0  0  0
  8 12  1  0  0  0  0
  9 10  1  6  0  0  0
  9 14  1  0  0  0  0
 11 16  1  0  0  0  0
 12 13  1  6  0  0  0
 12 17  1  0  0  0  0
 14 15  1  1  0  0  0
 14 18  1  0  0  0  0
 15 31  1  0  0  0  0
 16 20  1  0  0  0  0
 17  2  1  6  0  0  0
 17 22  1  0  0  0  0
 18 19  1  1  0  0  0
 18 24  1  0  0  0  0
 18 30  1  0  0  0  0
 20 21  1  0  0  0  0
 20 26  1  1  0  0  0
 22 23  1  1  0  0  0
 22 28  1  0  0  0  0
 24 25  1  0  0  0  0
 26 27  1  0  0  0  0
 28 29  1  1  0  0  0
M  END
>  <CHROM.1>
-157.02613898,-135.37175012,-85.19436919,-153.24885958,147.55586164,92.17414200
-4.52813113,-10.69473099,-15.07464276,1.96442569,-0.17182248,-1.15121967

>  <Name>
ligand

>  <RI>
0

>  <Rbt.Current_Directory>
/home/itssahil/PROJECTS/Mol_Feturizer/New_Systems/rnas/4F8U

>  <Rbt.Executable>
rbdock ($Id: //depot/dev/client3/rdock/2013.1/src/exe/rbdock.cxx#4 $)

>  <Rbt.Library>
libRbt.so (2013.1, Build901 2013/11/27)

>  <Rbt.Parameter_File>
/export/apps/rDock/src/rDock_2013.1_src/data/scripts/dock_solv.prm

>  <Rbt.Receptor>
prm/pocket_docking_2.prm

>  <SCORE>
-13.4135

>  <SCORE.INTER>
-13.8083

>  <SCORE.INTER.CONST>
1

>  <SCORE.INTER.POLAR>
0

>  <SCORE.INTER.ROT>
6

>  <SCORE.INTER.SOLV>
25.3311

>  <SCORE.INTER.VDW>
-25.2492

>  <SCORE.INTER.norm>
-0.445429

>  <SCORE.INTRA>
0.374019

>  <SCORE.INTRA.DIHEDRAL>
-0.404406

>  <SCORE.INTRA.DIHEDRAL.0>
18.77

>  <SCORE.INTRA.POLAR>
0

>  <SCORE.INTRA.POLAR.0>
0

>  <SCORE.INTRA.REPUL>
0

>  <SCORE.INTRA.REPUL.0>
0

>  <SCORE.INTRA.SOLV>
0.224767

>  <SCORE.INTRA.SOLV.lig_0>
-77.2465

>  <SCORE.INTRA.VDW>
0.463839

>  <SCORE.INTRA.VDW.0>
-4.16072

>  <SCORE.INTRA.norm>
0.0120651

>  <SCORE.RESTR>
0.0207829

>  <SCORE.RESTR.CAVITY>
0.0207829

>  <SCORE.RESTR.norm>
0.000670417

>  <SCORE.SYSTEM>
0

>  <SCORE.SYSTEM.CONST>
0

>  <SCORE.SYSTEM.DIHEDRAL>
0

>  <SCORE.SYSTEM.SOLV>
0

>  <SCORE.SYSTEM.norm>
0

>  <SCORE.heavy>
31

>  <SCORE.norm>
-0.432693

>  <RMSD>
0.519

$$$$
ligand
 OpenBabel11021811493D
libRbt.so/2013.1/901 2013/11/27
 31 33  0  0  0  0  0  0  0  0999 V2000
   -6.9277  -10.0961  -17.4914 C   0  0  2  0  0  0  0  0  0  0  0  0
   -5.5588  -10.4682  -17.7015 O   0  0  0  0  0  0  0  0  0  0  0  0
   -1.8320  -10.2833  -15.6037 C   0  0  2  0  0  0  0  0  0  0  0  0
   -0.7338   -9.7669  -14.8452 N   0  0  0  0  0  0  0  0  0  0  0  0
   -2.6203  -10.3276  -12.2911 C   0  0  2  0  0  0  0  0  0  0  0  0
   -7.7951  -11.1426  -18.2752 C   0  0  2  0  0  0  0  0  0  0  0  0
   -7.4957  -12.4876  -17.7965 N   0  0  0  0  0  0  0  0  0  0  0  0
   -1.9542   -9.4644  -16.9463 C   0  0  0  0  0  0  0  0  0  0  0  0
   -1.8868  -11.4807  -11.5390 C   0  0  2  0  0  0  0  0  0  0  0  0
   -0.7649  -11.8896  -12.3023 O   0  0  0  0  0  0  0  0  0  0  0  0
   -7.5090  -11.0244  -19.8127 C   0  0  0  0  0  0  0  0  0  0  0  0
   -3.1694  -10.0441  -17.7916 C   0  0  2  0  0  0  0  0  0  0  0  0
   -3.2951   -9.2810  -19.0553 N   0  0  0  0  0  0  0  0  0  0  0  0
   -2.9311  -12.6722  -11.3771 C   0  0  1  0  0  0  0  0  0  0  0  0
   -2.2940  -13.8452  -10.6876 N   0  0  0  0  0  0  0  0  0  0  0  0
   -7.5492   -9.5378  -20.2709 C   0  0  0  0  0  0  0  0  0  0  0  0
   -4.5118   -9.9294  -16.9409 C   0  0  2  0  0  0  0  0  0  0  0  0
   -4.1986  -12.1561  -10.4940 C   0  0  1  0  0  0  0  0  0  0  0  0
   -3.8099  -11.7356   -9.2006 O   0  0  0  0  0  0  0  0  0  0  0  0
   -7.4080   -8.5384  -19.3873 C   0  0  2  0  0  0  0  0  0  0  0  0
   -7.2165   -8.7510  -17.9778 O   0  0  0  0  0  0  0  0  0  0  0  0
   -4.3437  -10.7384  -15.5870 C   0  0  2  0  0  0  0  0  0  0  0  0
   -5.5366  -10.6228  -14.8011 O   0  0  0  0  0  0  0  0  0  0  0  0
   -4.8651  -10.9343  -11.2119 C   0  0  0  0  0  0  0  0  0  0  0  0
   -3.8181   -9.8711  -11.4985 O   0  0  0  0  0  0  0  0  0  0  0  0
   -7.4478   -7.0549  -19.8227 C   0  0  0  0  0  0  0  0  0  0  0  0
   -6.5176   -6.8458  -20.9234 N   0  0  0  0  0  0  0  0  0  0  0  0
   -3.1380  -10.1550  -14.7651 C   0  0  1  0  0  0  0  0  0  0  0  0
   -3.0177  -10.8999  -13.5770 O   0  0  0  0  0  0  0  0  0  0  0  0
   -5.3071  -13.1930  -10.2481 C   0  0  0  0  0  0  0  0  0  0  0  0
   -1.5612  -14.7922  -11.5493 C   0  0  0  0  0  0  0  0  0  0  0  0
  1  2  1  6  0  0  0
  1  6  1  0  0  0  0
  1 21  1  0  0  0  0
  3  4  1  1  0  0  0
  3  8  1  0  0  0  0
  3 28  1  0  0  0  0
  5  9  1  0  0  0  0
  5 25  1  0  0  0  0
  5 29  1  6  0  0  0
  6  7  1  1  0  0  0
  6 11  1  0  0  0  0
  8 12  1  0  0  0  0
  9 10  1  6  0  0  0
  9 14  1  0  0  0  0
 11 16  1  0  0  0  0
 12 13  1  6  0  0  0
 12 17  1  0  0  0  0
 14 15  1  1  0  0  0
 14 18  1  0  0  0  0
 15 31  1  0  0  0  0
 16 20  1  0  0  0  0
 17  2  1  6  0  0  0
 17 22  1  0  0  0  0
 18 19  1  1  0  0  0
 18 24  1  0  0  0  0
 18 30  1  0  0  0  0
 20 21  1  0  0  0  0
 20 26  1  1  0  0  0
 22 23  1  1  0  0  0
 22 28  1  0  0  0  0
 24 25  1  0  0  0  0
 26 27  1  0  0  0  0
 28 29  1  1  0  0  0
M  END
>  <CHROM.1>
-166.81365889,-149.79977453,-85.80134885,-156.11140071,-51.43462023,96.49946297
-4.41563273,-10.65725494,-15.16887883,1.99734563,-0.20358213,-1.12151927

>  <Name>
ligand

>  <RI>
0

>  <Rbt.Current_Directory>
/home/itssahil/PROJECTS/Mol_Feturizer/New_Systems/rnas/4F8U

>  <Rbt.Executable>
rbdock ($Id: //depot/dev/client3/rdock/2013.1/src/exe/rbdock.cxx#4 $)

>  <Rbt.Library>
libRbt.so (2013.1, Build901 2013/11/27)

>  <Rbt.Parameter_File>
/export/apps/rDock/src/rDock_2013.1_src/data/scripts/dock_solv.prm

>  <Rbt.Receptor>
prm/pocket_docking_3.prm

>  <SCORE>
-16.8515

>  <SCORE.INTER>
-15.5528

>  <SCORE.INTER.CONST>
1

>  <SCORE.INTER.POLAR>
0

>  <SCORE.INTER.ROT>
6

>  <SCORE.INTER.SOLV>
20.8983

>  <SCORE.INTER.VDW>
-24.9347

>  <SCORE.INTER.norm>
-0.501705

>  <SCORE.INTRA>
-1.29922

>  <SCORE.INTRA.DIHEDRAL>
-3.06402

>  <SCORE.INTRA.DIHEDRAL.0>
18.77

>  <SCORE.INTRA.POLAR>
0

>  <SCORE.INTRA.POLAR.0>
0

>  <SCORE.INTRA.REPUL>
0

>  <SCORE.INTRA.REPUL.0>
0

>  <SCORE.INTRA.SOLV>
-0.751998

>  <SCORE.INTRA.SOLV.lig_0>
-77.2465

>  <SCORE.INTRA.VDW>
0.608789

>  <SCORE.INTRA.VDW.0>
-4.16072

>  <SCORE.INTRA.norm>
-0.0419103

>  <SCORE.RESTR>
0.000552077

>  <SCORE.RESTR.CAVITY>
0.000552077

>  <SCORE.RESTR.norm>
1.78089e-05

>  <SCORE.SYSTEM>
0

>  <SCORE.SYSTEM.CONST>
0

>  <SCORE.SYSTEM.DIHEDRAL>
0

>  <SCORE.SYSTEM.SOLV>
0

>  <SCORE.SYSTEM.norm>
0

>  <SCORE.heavy>
31

>  <SCORE.norm>
-0.543597

>  <RMSD>
0.523

$$$$
ligand
 OpenBabel11021811493D
libRbt.so/2013.1/901 2013/11/27
 31 33  0  0  0  0  0  0  0  0999 V2000
   -6.8933  -10.0864  -17.4686 C   0  0  2  0  0  0  0  0  0  0  0  0
   -5.5281  -10.4802  -17.6631 O   0  0  0  0  0  0  0  0  0  0  0  0
   -1.8182  -10.3390  -15.5323 C   0  0  2  0  0  0  0  0  0  0  0  0
   -0.7198   -9.8350  -14.7658 N   0  0  0  0  0  0  0  0  0  0  0  0
   -2.6115  -10.3650  -12.2324 C   0  0  2  0  0  0  0  0  0  0  0  0
   -7.7692  -11.1299  -18.2469 C   0  0  2  0  0  0  0  0  0  0  0  0
   -7.4927  -12.4731  -17.7499 N   0  0  0  0  0  0  0  0  0  0  0  0
   -1.9169   -9.5238  -16.8790 C   0  0  0  0  0  0  0  0  0  0  0  0
   -1.8371  -11.5116  -11.5120 C   0  0  2  0  0  0  0  0  0  0  0  0
   -0.7275  -11.8905  -12.3082 O   0  0  0  0  0  0  0  0  0  0  0  0
   -7.4692  -11.0341  -19.7834 C   0  0  0  0  0  0  0  0  0  0  0  0
   -3.1324  -10.0898  -17.7331 C   0  0  2  0  0  0  0  0  0  0  0  0
   -3.2360   -9.3299  -19.0008 N   0  0  0  0  0  0  0  0  0  0  0  0
   -2.8540  -12.7247  -11.3370 C   0  0  1  0  0  0  0  0  0  0  0  0
   -2.1772  -13.8925  -10.6770 N   0  0  0  0  0  0  0  0  0  0  0  0
   -7.4846   -9.5527  -20.2595 C   0  0  0  0  0  0  0  0  0  0  0  0
   -4.4807   -9.9531  -16.8950 C   0  0  2  0  0  0  0  0  0  0  0  0
   -4.1081  -12.2426  -10.4163 C   0  0  1  0  0  0  0  0  0  0  0  0
   -3.6944  -11.8285   -9.1285 O   0  0  0  0  0  0  0  0  0  0  0  0
   -7.3363   -8.5448  -19.3867 C   0  0  2  0  0  0  0  0  0  0  0  0
   -7.1591   -8.7433  -17.9732 O   0  0  0  0  0  0  0  0  0  0  0  0
   -4.3361  -10.7590  -15.5367 C   0  0  2  0  0  0  0  0  0  0  0  0
   -5.5343  -10.6238  -14.7621 O   0  0  0  0  0  0  0  0  0  0  0  0
   -4.8159  -11.0264  -11.1033 C   0  0  0  0  0  0  0  0  0  0  0  0
   -3.7971   -9.9401  -11.4046 O   0  0  0  0  0  0  0  0  0  0  0  0
   -7.3515   -7.0663  -19.8400 C   0  0  0  0  0  0  0  0  0  0  0  0
   -6.5110   -6.9101  -21.0188 N   0  0  0  0  0  0  0  0  0  0  0  0
   -3.1299  -10.1893  -14.7060 C   0  0  1  0  0  0  0  0  0  0  0  0
   -3.0307  -10.9311  -13.5140 O   0  0  0  0  0  0  0  0  0  0  0  0
   -5.1899  -13.3034  -10.1539 C   0  0  0  0  0  0  0  0  0  0  0  0
   -1.4748  -14.8328  -11.5707 C   0  0  0  0  0  0  0  0  0  0  0  0
  1  2  1  6  0  0  0
  1  6  1  0  0  0  0
  1 21  1  0  0  0  0
  3  4  1  1  0  0  0
  3  8  1  0  0  0  0
  3 28  1  0  0  0  0
  5  9  1  0  0  0  0
  5 25  1  0  0  0  0
  5 29  1  6  0  0  0
  6  7  1  1  0  0  0
  6 11  1  0  0  0  0
  8 12  1  0  0  0  0
  9 10  1  6  0  0  0
  9 14  1  0  0  0  0
 11 16  1  0  0  0  0
 12 13  1  6  0  0  0
 12 17  1  0  0  0  0
 14 15  1  1  0  0  0
 14 18  1  0  0  0  0
 15 31  1  0  0  0  0
 16 20  1  0  0  0  0
 17  2  1  6  0  0  0
 17 22  1  0  0  0  0
 18 19  1  1  0  0  0
 18 24  1  0  0  0  0
 18 30  1  0  0  0  0
 20 21  1  0  0  0  0
 20 26  1  1  0  0  0
 22 23  1  1  0  0  0
 22 28  1  0  0  0  0
 24 25  1  0  0  0  0
 26 27  1  0  0  0  0
 28 29  1  1  0  0  0
M  END
>  <CHROM.1>
-166.42469506,-146.42126474,-87.15620604,-155.98855339,-45.84640153,95.23796674
-4.37049281,-10.69345859,-15.12985915,1.99579806,-0.19753744,-1.12183980

>  <Name>
ligand

>  <RI>
0

>  <Rbt.Current_Directory>
/home/itssahil/PROJECTS/Mol_Feturizer/New_Systems/rnas/4F8U

>  <Rbt.Executable>
rbdock ($Id: //depot/dev/client3/rdock/2013.1/src/exe/rbdock.cxx#4 $)

>  <Rbt.Library>
libRbt.so (2013.1, Build901 2013/11/27)

>  <Rbt.Parameter_File>
/export/apps/rDock/src/rDock_2013.1_src/data/scripts/dock_solv.prm

>  <Rbt.Receptor>
prm/pocket_docking_3.prm

>  <SCORE>
-16.8149

>  <SCORE.INTER>
-15.8337

>  <SCORE.INTER.CONST>
1

>  <SCORE.INTER.POLAR>
0

>  <SCORE.INTER.ROT>
6

>  <SCORE.INTER.SOLV>
20.452

>  <SCORE.INTER.VDW>
-24.9732

>  <SCORE.INTER.norm>
-0.510766

>  <SCORE.INTRA>
-0.986001

>  <SCORE.INTRA.DIHEDRAL>
-2.70316

>  <SCORE.INTRA.DIHEDRAL.0>
18.77

>  <SCORE.INTRA.POLAR>
0

>  <SCORE.INTRA.POLAR.0>
0

>  <SCORE.INTRA.REPUL>
0

>  <SCORE.INTRA.REPUL.0>
0

>  <SCORE.INTRA.SOLV>
-0.603573

>  <SCORE.INTRA.SOLV.lig_0>
-77.2465

>  <SCORE.INTRA.VDW>
0.667363

>  <SCORE.INTRA.VDW.0>
-4.16072

>  <SCORE.INTRA.norm>
-0.0318065

>  <SCORE.RESTR>
0.00480584

>  <SCORE.RESTR.CAVITY>
0.00480584

>  <SCORE.RESTR.norm>
0.000155027

>  <SCORE.SYSTEM>
0

>  <SCORE.SYSTEM.CONST>
0

>  <SCORE.SYSTEM.DIHEDRAL>
0

>  <SCORE.SYSTEM.SOLV>
0

>  <SCORE.SYSTEM.norm>
0

>  <SCORE.heavy>
31

>  <SCORE.norm>
-0.542417

>  <RMSD>
0.523

$$$$
ligand
 OpenBabel11021811493D
libRbt.so/2013.1/901 2013/11/27
 31 33  0  0  0  0  0  0  0  0999 V2000
   -6.8788  -10.1442  -17.4736 C   0  0  2  0  0  0  0  0  0  0  0  0
   -5.5143  -10.5388  -17.6708 O   0  0  0  0  0  0  0  0  0  0  0  0
   -1.7649  -10.3343  -15.6156 C   0  0  2  0  0  0  0  0  0  0  0  0
   -0.6616   -9.8126  -14.8683 N   0  0  0  0  0  0  0  0  0  0  0  0
   -2.4895  -10.3983  -12.3003 C   0  0  2  0  0  0  0  0  0  0  0  0
   -7.7586  -11.2100  -18.2165 C   0  0  2  0  0  0  0  0  0  0  0  0
   -7.4732  -12.5392  -17.6877 N   0  0  0  0  0  0  0  0  0  0  0  0
   -1.9082   -9.5126  -16.9543 C   0  0  0  0  0  0  0  0  0  0  0  0
   -1.7663  -11.5650  -11.5593 C   0  0  2  0  0  0  0  0  0  0  0  0
   -0.6677  -11.9988  -12.3427 O   0  0  0  0  0  0  0  0  0  0  0  0
   -7.4733  -11.1529  -19.7577 C   0  0  0  0  0  0  0  0  0  0  0  0
   -3.1291  -10.0982  -17.7872 C   0  0  2  0  0  0  0  0  0  0  0  0
   -3.2745   -9.3324  -19.0472 N   0  0  0  0  0  0  0  0  0  0  0  0
   -2.8320  -12.7340  -11.3750 C   0  0  1  0  0  0  0  0  0  0  0  0
   -2.2067  -13.9187  -10.6947 N   0  0  0  0  0  0  0  0  0  0  0  0
   -7.4980   -9.6844  -20.2716 C   0  0  0  0  0  0  0  0  0  0  0  0
   -4.4623   -9.9951  -16.9207 C   0  0  2  0  0  0  0  0  0  0  0  0
   -4.0715  -12.1896  -10.4694 C   0  0  1  0  0  0  0  0  0  0  0  0
   -3.6498  -11.7748   -9.1846 O   0  0  0  0  0  0  0  0  0  0  0  0
   -7.3448   -8.6539  -19.4265 C   0  0  2  0  0  0  0  0  0  0  0  0
   -7.1537   -8.8153  -18.0100 O   0  0  0  0  0  0  0  0  0  0  0  0
   -4.2731  -10.8067  -15.5712 C   0  0  2  0  0  0  0  0  0  0  0  0
   -5.4576  -10.7014  -14.7713 O   0  0  0  0  0  0  0  0  0  0  0  0
   -4.7258  -10.9556  -11.1776 C   0  0  0  0  0  0  0  0  0  0  0  0
   -3.6623   -9.9151  -11.4864 O   0  0  0  0  0  0  0  0  0  0  0  0
   -7.3690   -7.1876  -19.9175 C   0  0  0  0  0  0  0  0  0  0  0  0
   -6.0054   -6.6890  -20.0284 N   0  0  0  0  0  0  0  0  0  0  0  0
   -3.0620  -10.2173  -14.7616 C   0  0  1  0  0  0  0  0  0  0  0  0
   -2.9230  -10.9647  -13.5771 O   0  0  0  0  0  0  0  0  0  0  0  0
   -5.1966  -13.2026  -10.2002 C   0  0  0  0  0  0  0  0  0  0  0  0
   -1.5353  -14.8976  -11.5707 C   0  0  0  0  0  0  0  0  0  0  0  0
  1  2  1  6  0  0  0
  1  6  1  0  0  0  0
  1 21  1  0  0  0  0
  3  4  1  1  0  0  0
  3  8  1  0  0  0  0
  3 28  1  0  0  0  0
  5  9  1  0  0  0  0
  5 25  1  0  0  0  0
  5 29  1  6  0  0  0
  6  7  1  1  0  0  0
  6 11  1  0  0  0  0
  8 12  1  0  0  0  0
  9 10  1  6  0  0  0
  9 14  1  0  0  0  0
 11 16  1  0  0  0  0
 12 13  1  6  0  0  0
 12 17  1  0  0  0  0
 14 15  1  1  0  0  0
 14 18  1  0  0  0  0
 15 31  1  0  0  0  0
 16 20  1  0  0  0  0
 17  2  1  6  0  0  0
 17 22  1  0  0  0  0
 18 19  1  1  0  0  0
 18 24  1  0  0  0  0
 18 30  1  0  0  0  0
 20 21  1  0  0  0  0
 20 26  1  1  0  0  0
 22 23  1  1  0  0  0
 22 28  1  0  0  0  0
 24 25  1  0  0  0  0
 26 27  1  0  0  0  0
 28 29  1  1  0  0  0
M  END
>  <CHROM.1>
-166.01820605,-150.41816126,-87.07761904,-154.02021081,-100.49954109,95.25556984
-4.32405286,-10.71903255,-15.13447999,2.00595282,-0.23307108,-1.10484648

>  <Name>
ligand

>  <RI>
0

>  <Rbt.Current_Directory>
/home/itssahil/PROJECTS/Mol_Feturizer/New_Systems/rnas/4F8U

>  <Rbt.Executable>
rbdock ($Id: //depot/dev/client3/rdock/2013.1/src/exe/rbdock.cxx#4 $)

>  <Rbt.Library>
libRbt.so (2013.1, Build901 2013/11/27)

>  <Rbt.Parameter_File>
/export/apps/rDock/src/rDock_2013.1_src/data/scripts/dock_solv.prm

>  <Rbt.Receptor>
prm/pocket_docking_6.prm

>  <SCORE>
-17.0635

>  <SCORE.INTER>
-15.0916

>  <SCORE.INTER.CONST>
1

>  <SCORE.INTER.POLAR>
0

>  <SCORE.INTER.ROT>
6

>  <SCORE.INTER.SOLV>
22.742

>  <SCORE.INTER.VDW>
-25.2417

>  <SCORE.INTER.norm>
-0.486825

>  <SCORE.INTRA>
-1.9719

>  <SCORE.INTRA.DIHEDRAL>
-4.25511

>  <SCORE.INTRA.DIHEDRAL.0>
18.77

>  <SCORE.INTRA.POLAR>
0

>  <SCORE.INTRA.POLAR.0>
0

>  <SCORE.INTRA.REPUL>
0

>  <SCORE.INTRA.REPUL.0>
0

>  <SCORE.INTRA.SOLV>
-0.102673

>  <SCORE.INTRA.SOLV.lig_0>
-77.2465

>  <SCORE.INTRA.VDW>
0.20699

>  <SCORE.INTRA.VDW.0>
-4.16072

>  <SCORE.INTRA.norm>
-0.0636097

>  <SCORE.RESTR>
0

>  <SCORE.RESTR.CAVITY>
0

>  <SCORE.RESTR.norm>
0

>  <SCORE.SYSTEM>
0

>  <SCORE.SYSTEM.CONST>
0

>  <SCORE.SYSTEM.DIHEDRAL>
0

>  <SCORE.SYSTEM.SOLV>
0

>  <SCORE.SYSTEM.norm>
0

>  <SCORE.heavy>
31

>  <SCORE.norm>
-0.550434

>  <RMSD>
0.533

$$$$
ligand
 OpenBabel11021811493D
libRbt.so/2013.1/901 2013/11/27
 31 33  0  0  0  0  0  0  0  0999 V2000
   -6.9015  -10.1134  -17.4745 C   0  0  2  0  0  0  0  0  0  0  0  0
   -5.5378  -10.5140  -17.6656 O   0  0  0  0  0  0  0  0  0  0  0  0
   -1.7929  -10.3206  -15.6012 C   0  0  2  0  0  0  0  0  0  0  0  0
   -0.6904   -9.8025  -14.8501 N   0  0  0  0  0  0  0  0  0  0  0  0
   -2.5581  -10.3848  -12.2799 C   0  0  2  0  0  0  0  0  0  0  0  0
   -7.7808  -11.1554  -18.2510 C   0  0  2  0  0  0  0  0  0  0  0  0
   -7.5112  -12.4984  -17.7494 N   0  0  0  0  0  0  0  0  0  0  0  0
   -1.9316   -9.4955  -16.9383 C   0  0  0  0  0  0  0  0  0  0  0  0
   -1.8305  -11.5420  -11.5284 C   0  0  2  0  0  0  0  0  0  0  0  0
   -0.7096  -11.9550  -12.2911 O   0  0  0  0  0  0  0  0  0  0  0  0
   -7.4780  -11.0658  -19.7872 C   0  0  0  0  0  0  0  0  0  0  0  0
   -3.1516  -10.0771  -17.7754 C   0  0  2  0  0  0  0  0  0  0  0  0
   -3.2928   -9.3080  -19.0339 N   0  0  0  0  0  0  0  0  0  0  0  0
   -2.8801  -12.7290  -11.3689 C   0  0  1  0  0  0  0  0  0  0  0  0
   -2.2490  -13.9057  -10.6802 N   0  0  0  0  0  0  0  0  0  0  0  0
   -7.4860   -9.5858  -20.2680 C   0  0  0  0  0  0  0  0  0  0  0  0
   -4.4867   -9.9738  -16.9118 C   0  0  2  0  0  0  0  0  0  0  0  0
   -4.1462  -12.2083  -10.4865 C   0  0  1  0  0  0  0  0  0  0  0  0
   -3.7569  -11.7910   -9.1922 O   0  0  0  0  0  0  0  0  0  0  0  0
   -7.3346   -8.5759  -19.3981 C   0  0  2  0  0  0  0  0  0  0  0  0
   -7.1605   -8.7707  -17.9837 O   0  0  0  0  0  0  0  0  0  0  0  0
   -4.3020  -10.7889  -15.5638 C   0  0  2  0  0  0  0  0  0  0  0  0
   -5.4882  -10.6835  -14.7664 O   0  0  0  0  0  0  0  0  0  0  0  0
   -4.8066  -10.9827  -11.2036 C   0  0  0  0  0  0  0  0  0  0  0  0
   -3.7546   -9.9239  -11.4880 O   0  0  0  0  0  0  0  0  0  0  0  0
   -7.3424   -7.0987  -19.8560 C   0  0  0  0  0  0  0  0  0  0  0  0
   -6.4526   -6.9384  -20.9974 N   0  0  0  0  0  0  0  0  0  0  0  0
   -3.0918  -10.2035  -14.7499 C   0  0  1  0  0  0  0  0  0  0  0  0
   -2.9568  -10.9539  -13.5669 O   0  0  0  0  0  0  0  0  0  0  0  0
   -5.2596  -13.2406  -10.2429 C   0  0  0  0  0  0  0  0  0  0  0  0
   -1.4947  -14.8392  -11.5380 C   0  0  0  0  0  0  0  0  0  0  0  0
  1  2  1  6  0  0  0
  1  6  1  0  0  0  0
  1 21  1  0  0  0  0
  3  4  1  1  0  0  0
  3  8  1  0  0  0  0
  3 28  1  0  0  0  0
  5  9  1  0  0  0  0
  5 25  1  0  0  0  0
  5 29  1  6  0  0  0
  6  7  1  1  0  0  0
  6 11  1  0  0  0  0
  8 12  1  0  0  0  0
  9 10  1  6  0  0  0
  9 14  1  0  0  0  0
 11 16  1  0  0  0  0
 12 13  1  6  0  0  0
 12 17  1  0  0  0  0
 14 15  1  1  0  0  0
 14 18  1  0  0  0  0
 15 31  1  0  0  0  0
 16 20  1  0  0  0  0
 17  2  1  6  0  0  0
 17 22  1  0  0  0  0
 18 19  1  1  0  0  0
 18 24  1  0  0  0  0
 18 30  1  0  0  0  0
 20 21  1  0  0  0  0
 20 26  1  1  0  0  0
 22 23  1  1  0  0  0
 22 28  1  0  0  0  0
 24 25  1  0  0  0  0
 26 27  1  0  0  0  0
 28 29  1  1  0  0  0
M  END
>  <CHROM.1>
-167.44926228,-150.78339994,-84.51828446,-153.75267666,-48.36800136,96.87373789
-4.37019902,-10.70254269,-15.15962583,1.99748615,-0.20754479,-1.11835868

>  <Name>
ligand

>  <RI>
0

>  <Rbt.Current_Directory>
/home/itssahil/PROJECTS/Mol_Feturizer/New_Systems/rnas/4F8U

>  <Rbt.Executable>
rbdock ($Id: //depot/dev/client3/rdock/2013.1/src/exe/rbdock.cxx#4 $)

>  <Rbt.Library>
libRbt.so (2013.1, Build901 2013/11/27)

>  <Rbt.Parameter_File>
/export/apps/rDock/src/rDock_2013.1_src/data/scripts/dock_solv.prm

>  <Rbt.Receptor>
prm/pocket_docking_3.prm

>  <SCORE>
-16.9063

>  <SCORE.INTER>
-15.7439

>  <SCORE.INTER.CONST>
1

>  <SCORE.INTER.POLAR>
0

>  <SCORE.INTER.ROT>
6

>  <SCORE.INTER.SOLV>
20.194

>  <SCORE.INTER.VDW>
-24.8273

>  <SCORE.INTER.norm>
-0.507869

>  <SCORE.INTRA>
-1.16401

>  <SCORE.INTRA.DIHEDRAL>
-2.9448

>  <SCORE.INTRA.DIHEDRAL.0>
18.77

>  <SCORE.INTRA.POLAR>
0

>  <SCORE.INTRA.POLAR.0>
0

>  <SCORE.INTRA.REPUL>
0

>  <SCORE.INTRA.REPUL.0>
0

>  <SCORE.INTRA.SOLV>
-0.638974

>  <SCORE.INTRA.SOLV.lig_0>
-77.2465

>  <SCORE.INTRA.VDW>
0.627873

>  <SCORE.INTRA.VDW.0>
-4.16072

>  <SCORE.INTRA.norm>
-0.0375488

>  <SCORE.RESTR>
0.00161498

>  <SCORE.RESTR.CAVITY>
0.00161498

>  <SCORE.RESTR.norm>
5.20962e-05

>  <SCORE.SYSTEM>
0

>  <SCORE.SYSTEM.CONST>
0

>  <SCORE.SYSTEM.DIHEDRAL>
0

>  <SCORE.SYSTEM.SOLV>
0

>  <SCORE.SYSTEM.norm>
0

>  <SCORE.heavy>
31

>  <SCORE.norm>
-0.545366

>  <RMSD>
0.535

$$$$
ligand
 OpenBabel11021811493D
libRbt.so/2013.1/901 2013/11/27
 31 33  0  0  0  0  0  0  0  0999 V2000
   -6.8704  -10.1644  -17.4696 C   0  0  2  0  0  0  0  0  0  0  0  0
   -5.4958  -10.5113  -17.6857 O   0  0  0  0  0  0  0  0  0  0  0  0
   -1.7835  -10.3138  -15.5636 C   0  0  2  0  0  0  0  0  0  0  0  0
   -0.6938   -9.7947  -14.7948 N   0  0  0  0  0  0  0  0  0  0  0  0
   -2.5705  -10.3907  -12.2611 C   0  0  2  0  0  0  0  0  0  0  0  0
   -7.7206  -11.1943  -18.2934 C   0  0  2  0  0  0  0  0  0  0  0  0
   -7.4058  -12.5511  -17.8600 N   0  0  0  0  0  0  0  0  0  0  0  0
   -1.9034   -9.4867  -16.9013 C   0  0  0  0  0  0  0  0  0  0  0  0
   -1.8332  -11.5502  -11.5226 C   0  0  2  0  0  0  0  0  0  0  0  0
   -0.7169  -11.9546  -12.2966 O   0  0  0  0  0  0  0  0  0  0  0  0
   -7.4292  -11.0193  -19.8245 C   0  0  0  0  0  0  0  0  0  0  0  0
   -3.1091  -10.0693  -17.7581 C   0  0  2  0  0  0  0  0  0  0  0  0
   -3.2325   -9.2985  -19.0173 N   0  0  0  0  0  0  0  0  0  0  0  0
   -2.8777  -12.7417  -11.3627 C   0  0  1  0  0  0  0  0  0  0  0  0
   -2.2373  -13.9206  -10.6863 N   0  0  0  0  0  0  0  0  0  0  0  0
   -7.4867   -9.5184  -20.2313 C   0  0  0  0  0  0  0  0  0  0  0  0
   -4.4575   -9.9703  -16.9149 C   0  0  2  0  0  0  0  0  0  0  0  0
   -4.1386  -12.2309  -10.4672 C   0  0  1  0  0  0  0  0  0  0  0  0
   -3.7407  -11.8206   -9.1733 O   0  0  0  0  0  0  0  0  0  0  0  0
   -7.3626   -8.5483  -19.3130 C   0  0  2  0  0  0  0  0  0  0  0  0
   -7.1746   -8.8072  -17.9106 O   0  0  0  0  0  0  0  0  0  0  0  0
   -4.2919  -10.7873  -15.5656 C   0  0  2  0  0  0  0  0  0  0  0  0
   -5.4904  -10.6857  -14.7864 O   0  0  0  0  0  0  0  0  0  0  0  0
   -4.8086  -11.0030  -11.1713 C   0  0  0  0  0  0  0  0  0  0  0  0
   -3.7624   -9.9388  -11.4570 O   0  0  0  0  0  0  0  0  0  0  0  0
   -7.4198   -7.0514  -19.6970 C   0  0  0  0  0  0  0  0  0  0  0  0
   -6.6004   -6.8205  -20.8785 N   0  0  0  0  0  0  0  0  0  0  0  0
   -3.0956  -10.2008  -14.7323 C   0  0  1  0  0  0  0  0  0  0  0  0
   -2.9772  -10.9529  -13.5485 O   0  0  0  0  0  0  0  0  0  0  0  0
   -5.2466  -13.2685  -10.2215 C   0  0  0  0  0  0  0  0  0  0  0  0
   -1.5166  -14.8652  -11.5608 C   0  0  0  0  0  0  0  0  0  0  0  0
  1  2  1  6  0  0  0
  1  6  1  0  0  0  0
  1 21  1  0  0  0  0
  3  4  1  1  0  0  0
  3  8  1  0  0  0  0
  3 28  1  0  0  0  0
  5  9  1  0  0  0  0
  5 25  1  0  0  0  0
  5 29  1  6  0  0  0
  6  7  1  1  0  0  0
  6 11  1  0  0  0  0
  8 12  1  0  0  0  0
  9 10  1  6  0  0  0
  9 14  1  0  0  0  0
 11 16  1  0  0  0  0
 12 13  1  6  0  0  0
 12 17  1  0  0  0  0
 14 15  1  1  0  0  0
 14 18  1  0  0  0  0
 15 31  1  0  0  0  0
 16 20  1  0  0  0  0
 17  2  1  6  0  0  0
 17 22  1  0  0  0  0
 18 19  1  1  0  0  0
 18 24  1  0  0  0  0
 18 30  1  0  0  0  0
 20 21  1  0  0  0  0
 20 26  1  1  0  0  0
 22 23  1  1  0  0  0
 22 28  1  0  0  0  0
 24 25  1  0  0  0  0
 26 27  1  0  0  0  0
 28 29  1  1  0  0  0
M  END
>  <CHROM.1>
-167.80164773,-149.33306070,-86.07321228,-156.97873033,-45.20499482,95.44229626
-4.36522995,-10.70293247,-15.14162505,1.99900125,-0.20507296,-1.11424903

>  <Name>
ligand

>  <RI>
0

>  <Rbt.Current_Directory>
/home/itssahil/PROJECTS/Mol_Feturizer/New_Systems/rnas/4F8U

>  <Rbt.Executable>
rbdock ($Id: //depot/dev/client3/rdock/2013.1/src/exe/rbdock.cxx#4 $)

>  <Rbt.Library>
libRbt.so (2013.1, Build901 2013/11/27)

>  <Rbt.Parameter_File>
/export/apps/rDock/src/rDock_2013.1_src/data/scripts/dock_solv.prm

>  <Rbt.Receptor>
prm/pocket_docking_3.prm

>  <SCORE>
-16.8532

>  <SCORE.INTER>
-15.358

>  <SCORE.INTER.CONST>
1

>  <SCORE.INTER.POLAR>
0

>  <SCORE.INTER.ROT>
6

>  <SCORE.INTER.SOLV>
20.917

>  <SCORE.INTER.VDW>
-24.811

>  <SCORE.INTER.norm>
-0.495421

>  <SCORE.INTRA>
-1.49512

>  <SCORE.INTRA.DIHEDRAL>
-3.60449

>  <SCORE.INTRA.DIHEDRAL.0>
18.77

>  <SCORE.INTRA.POLAR>
0

>  <SCORE.INTRA.POLAR.0>
0

>  <SCORE.INTRA.REPUL>
0

>  <SCORE.INTRA.REPUL.0>
0

>  <SCORE.INTRA.SOLV>
-0.765561

>  <SCORE.INTRA.SOLV.lig_0>
-77.2465

>  <SCORE.INTRA.VDW>
0.689905

>  <SCORE.INTRA.VDW.0>
-4.16072

>  <SCORE.INTRA.norm>
-0.0482296

>  <SCORE.RESTR>
0

>  <SCORE.RESTR.CAVITY>
0

>  <SCORE.RESTR.norm>
0

>  <SCORE.SYSTEM>
0

>  <SCORE.SYSTEM.CONST>
0

>  <SCORE.SYSTEM.DIHEDRAL>
0

>  <SCORE.SYSTEM.SOLV>
0

>  <SCORE.SYSTEM.norm>
0

>  <SCORE.heavy>
31

>  <SCORE.norm>
-0.54365

>  <RMSD>
0.537

$$$$
ligand
 OpenBabel11021811493D
libRbt.so/2013.1/901 2013/11/27
 31 33  0  0  0  0  0  0  0  0999 V2000
   -6.9600  -10.0747  -17.5295 C   0  0  2  0  0  0  0  0  0  0  0  0
   -5.5781  -10.4104  -17.7150 O   0  0  0  0  0  0  0  0  0  0  0  0
   -2.0375  -10.3833  -15.3094 C   0  0  2  0  0  0  0  0  0  0  0  0
   -0.9782   -9.9105  -14.4714 N   0  0  0  0  0  0  0  0  0  0  0  0
   -3.0390  -10.3067  -12.0862 C   0  0  2  0  0  0  0  0  0  0  0  0
   -7.7837  -11.1192  -18.3617 C   0  0  2  0  0  0  0  0  0  0  0  0
   -7.4652  -12.4694  -17.9107 N   0  0  0  0  0  0  0  0  0  0  0  0
   -1.9963   -9.5970  -16.6761 C   0  0  0  0  0  0  0  0  0  0  0  0
   -2.1751  -11.4085  -11.3986 C   0  0  2  0  0  0  0  0  0  0  0  0
   -1.0467  -11.6843  -12.2108 O   0  0  0  0  0  0  0  0  0  0  0  0
   -7.4630  -10.9539  -19.8880 C   0  0  0  0  0  0  0  0  0  0  0  0
   -3.1685  -10.1286  -17.6091 C   0  0  2  0  0  0  0  0  0  0  0  0
   -3.1407   -9.3954  -18.8963 N   0  0  0  0  0  0  0  0  0  0  0  0
   -3.0967  -12.6983  -11.2462 C   0  0  1  0  0  0  0  0  0  0  0  0
   -2.3289  -13.8272  -10.6188 N   0  0  0  0  0  0  0  0  0  0  0  0
   -7.5262   -9.4570  -20.3083 C   0  0  0  0  0  0  0  0  0  0  0  0
   -4.5686   -9.9122  -16.8798 C   0  0  2  0  0  0  0  0  0  0  0  0
   -4.3757  -12.3336  -10.3061 C   0  0  1  0  0  0  0  0  0  0  0  0
   -3.9836  -11.9199   -9.0114 O   0  0  0  0  0  0  0  0  0  0  0  0
   -7.4297   -8.4783  -19.3958 C   0  0  2  0  0  0  0  0  0  0  0  0
   -7.2677   -8.7240  -17.9879 O   0  0  0  0  0  0  0  0  0  0  0  0
   -4.5645  -10.6910  -15.4982 C   0  0  2  0  0  0  0  0  0  0  0  0
   -5.8104  -10.4841  -14.8206 O   0  0  0  0  0  0  0  0  0  0  0  0
   -5.1783  -11.1581  -10.9591 C   0  0  0  0  0  0  0  0  0  0  0  0
   -4.2463   -9.9917  -11.2408 O   0  0  0  0  0  0  0  0  0  0  0  0
   -7.4929   -6.9852  -19.7934 C   0  0  0  0  0  0  0  0  0  0  0  0
   -7.3581   -6.8602  -21.2379 N   0  0  0  0  0  0  0  0  0  0  0  0
   -3.3996  -10.1557  -14.5893 C   0  0  1  0  0  0  0  0  0  0  0  0
   -3.4253  -10.8725  -13.3783 O   0  0  0  0  0  0  0  0  0  0  0  0
   -5.3728  -13.4784  -10.0622 C   0  0  0  0  0  0  0  0  0  0  0  0
   -1.5559  -14.6837  -11.5381 C   0  0  0  0  0  0  0  0  0  0  0  0
  1  2  1  6  0  0  0
  1  6  1  0  0  0  0
  1 21  1  0  0  0  0
  3  4  1  1  0  0  0
  3  8  1  0  0  0  0
  3 28  1  0  0  0  0
  5  9  1  0  0  0  0
  5 25  1  0  0  0  0
  5 29  1  6  0  0  0
  6  7  1  1  0  0  0
  6 11  1  0  0  0  0
  8 12  1  0  0  0  0
  9 10  1  6  0  0  0
  9 14  1  0  0  0  0
 11 16  1  0  0  0  0
 12 13  1  6  0  0  0
 12 17  1  0  0  0  0
 14 15  1  1  0  0  0
 14 18  1  0  0  0  0
 15 31  1  0  0  0  0
 16 20  1  0  0  0  0
 17  2  1  6  0  0  0
 17 22  1  0  0  0  0
 18 19  1  1  0  0  0
 18 24  1  0  0  0  0
 18 30  1  0  0  0  0
 20 21  1  0  0  0  0
 20 26  1  1  0  0  0
 22 23  1  1  0  0  0
 22 28  1  0  0  0  0
 24 25  1  0  0  0  0
 26 27  1  0  0  0  0
 28 29  1  1  0  0  0
M  END
>  <CHROM.1>
-164.10528125,-136.67263218,-86.63732961,-163.70699034,-12.79824101,93.27531105
-4.57233592,-10.67305263,-15.07783197,1.97574764,-0.15452769,-1.14731936

>  <Name>
ligand

>  <RI>
0

>  <Rbt.Current_Directory>
/home/itssahil/PROJECTS/Mol_Feturizer/New_Systems/rnas/4F8U

>  <Rbt.Executable>
rbdock ($Id: //depot/dev/client3/rdock/2013.1/src/exe/rbdock.cxx#4 $)

>  <Rbt.Library>
libRbt.so (2013.1, Build901 2013/11/27)

>  <Rbt.Parameter_File>
/export/apps/rDock/src/rDock_2013.1_src/data/scripts/dock_solv.prm

>  <Rbt.Receptor>
prm/pocket_docking_2.prm

>  <SCORE>
-16.2971

>  <SCORE.INTER>
-15.4433

>  <SCORE.INTER.CONST>
1

>  <SCORE.INTER.POLAR>
0

>  <SCORE.INTER.ROT>
6

>  <SCORE.INTER.SOLV>
22.5994

>  <SCORE.INTER.VDW>
-25.4287

>  <SCORE.INTER.norm>
-0.498171

>  <SCORE.INTRA>
-0.853744

>  <SCORE.INTRA.DIHEDRAL>
-3.85039

>  <SCORE.INTRA.DIHEDRAL.0>
18.77

>  <SCORE.INTRA.POLAR>
0

>  <SCORE.INTRA.POLAR.0>
0

>  <SCORE.INTRA.REPUL>
0

>  <SCORE.INTRA.REPUL.0>
0

>  <SCORE.INTRA.SOLV>
-0.541064

>  <SCORE.INTRA.SOLV.lig_0>
-77.2465

>  <SCORE.INTRA.VDW>
1.34198

>  <SCORE.INTRA.VDW.0>
-4.16072

>  <SCORE.INTRA.norm>
-0.0275401

>  <SCORE.RESTR>
0

>  <SCORE.RESTR.CAVITY>
0

>  <SCORE.RESTR.norm>
0

>  <SCORE.SYSTEM>
0

>  <SCORE.SYSTEM.CONST>
0

>  <SCORE.SYSTEM.DIHEDRAL>
0

>  <SCORE.SYSTEM.SOLV>
0

>  <SCORE.SYSTEM.norm>
0

>  <SCORE.heavy>
31

>  <SCORE.norm>
-0.525711

>  <RMSD>
0.541

$$$$
ligand
 OpenBabel11021811493D
libRbt.so/2013.1/901 2013/11/27
 31 33  0  0  0  0  0  0  0  0999 V2000
   -6.8930  -10.1716  -17.4496 C   0  0  2  0  0  0  0  0  0  0  0  0
   -5.5191  -10.5184  -17.6708 O   0  0  0  0  0  0  0  0  0  0  0  0
   -1.7928  -10.3028  -15.5753 C   0  0  2  0  0  0  0  0  0  0  0  0
   -0.6996   -9.7780  -14.8152 N   0  0  0  0  0  0  0  0  0  0  0  0
   -2.5701  -10.3725  -12.2639 C   0  0  2  0  0  0  0  0  0  0  0  0
   -7.7469  -11.2213  -18.2439 C   0  0  2  0  0  0  0  0  0  0  0  0
   -7.4234  -12.5677  -17.7852 N   0  0  0  0  0  0  0  0  0  0  0  0
   -1.9250   -9.4791  -16.9139 C   0  0  0  0  0  0  0  0  0  0  0  0
   -1.8592  -11.5353  -11.5051 C   0  0  2  0  0  0  0  0  0  0  0  0
   -0.7400  -11.9641  -12.2616 O   0  0  0  0  0  0  0  0  0  0  0  0
   -7.4698  -11.0773  -19.7809 C   0  0  0  0  0  0  0  0  0  0  0  0
   -3.1346  -10.0680  -17.7609 C   0  0  2  0  0  0  0  0  0  0  0  0
   -3.2697   -9.3004  -19.0209 N   0  0  0  0  0  0  0  0  0  0  0  0
   -2.9233  -12.7094  -11.3457 C   0  0  1  0  0  0  0  0  0  0  0  0
   -2.3088  -13.8907  -10.6499 N   0  0  0  0  0  0  0  0  0  0  0  0
   -7.5363   -9.5855  -20.2184 C   0  0  0  0  0  0  0  0  0  0  0  0
   -4.4774   -9.9719  -16.9085 C   0  0  2  0  0  0  0  0  0  0  0  0
   -4.1869  -12.1706  -10.4705 C   0  0  1  0  0  0  0  0  0  0  0  0
   -3.7981  -11.7531   -9.1761 O   0  0  0  0  0  0  0  0  0  0  0  0
   -7.4073   -8.5960  -19.3217 C   0  0  2  0  0  0  0  0  0  0  0  0
   -7.2058   -8.8249  -17.9161 O   0  0  0  0  0  0  0  0  0  0  0  0
   -4.2994  -10.7852  -15.5586 C   0  0  2  0  0  0  0  0  0  0  0  0
   -5.4928  -10.6863  -14.7712 O   0  0  0  0  0  0  0  0  0  0  0  0
   -4.8299  -10.9402  -11.1949 C   0  0  0  0  0  0  0  0  0  0  0  0
   -3.7645   -9.8947  -11.4787 O   0  0  0  0  0  0  0  0  0  0  0  0
   -7.4732   -7.1076  -19.7364 C   0  0  0  0  0  0  0  0  0  0  0  0
   -6.5065   -6.8544  -20.7957 N   0  0  0  0  0  0  0  0  0  0  0  0
   -3.0994  -10.1926  -14.7350 C   0  0  1  0  0  0  0  0  0  0  0  0
   -2.9700  -10.9417  -13.5504 O   0  0  0  0  0  0  0  0  0  0  0  0
   -5.3132  -13.1890  -10.2278 C   0  0  0  0  0  0  0  0  0  0  0  0
   -1.5329  -14.8178  -11.4954 C   0  0  0  0  0  0  0  0  0  0  0  0
  1  2  1  6  0  0  0
  1  6  1  0  0  0  0
  1 21  1  0  0  0  0
  3  4  1  1  0  0  0
  3  8  1  0  0  0  0
  3 28  1  0  0  0  0
  5  9  1  0  0  0  0
  5 25  1  0  0  0  0
  5 29  1  6  0  0  0
  6  7  1  1  0  0  0
  6 11  1  0  0  0  0
  8 12  1  0  0  0  0
  9 10  1  6  0  0  0
  9 14  1  0  0  0  0
 11 16  1  0  0  0  0
 12 13  1  6  0  0  0
 12 17  1  0  0  0  0
 14 15  1  1  0  0  0
 14 18  1  0  0  0  0
 15 31  1  0  0  0  0
 16 20  1  0  0  0  0
 17  2  1  6  0  0  0
 17 22  1  0  0  0  0
 18 19  1  1  0  0  0
 18 24  1  0  0  0  0
 18 30  1  0  0  0  0
 20 21  1  0  0  0  0
 20 26  1  1  0  0  0
 22 23  1  1  0  0  0
 22 28  1  0  0  0  0
 24 25  1  0  0  0  0
 26 27  1  0  0  0  0
 28 29  1  1  0  0  0
M  END
>  <CHROM.1>
-166.89566522,-151.19647295,-83.01144762,-156.70593902,-54.08392949,96.12475848
-4.38829932,-10.69729571,-15.13100595,1.99970206,-0.20764044,-1.12031616

>  <Name>
ligand

>  <RI>
0

>  <Rbt.Current_Directory>
/home/itssahil/PROJECTS/Mol_Feturizer/New_Systems/rnas/4F8U

>  <Rbt.Executable>
rbdock ($Id: //depot/dev/client3/rdock/2013.1/src/exe/rbdock.cxx#4 $)

>  <Rbt.Library>
libRbt.so (2013.1, Build901 2013/11/27)

>  <Rbt.Parameter_File>
/export/apps/rDock/src/rDock_2013.1_src/data/scripts/dock_solv.prm

>  <Rbt.Receptor>
prm/pocket_docking_3.prm

>  <SCORE>
-16.9028

>  <SCORE.INTER>
-15.3902

>  <SCORE.INTER.CONST>
1

>  <SCORE.INTER.POLAR>
0

>  <SCORE.INTER.ROT>
6

>  <SCORE.INTER.SOLV>
20.8785

>  <SCORE.INTER.VDW>
-24.8197

>  <SCORE.INTER.norm>
-0.496459

>  <SCORE.INTRA>
-1.51254

>  <SCORE.INTRA.DIHEDRAL>
-3.54423

>  <SCORE.INTRA.DIHEDRAL.0>
18.77

>  <SCORE.INTRA.POLAR>
0

>  <SCORE.INTRA.POLAR.0>
0

>  <SCORE.INTRA.REPUL>
0

>  <SCORE.INTRA.REPUL.0>
0

>  <SCORE.INTRA.SOLV>
-0.836538

>  <SCORE.INTRA.SOLV.lig_0>
-77.2465

>  <SCORE.INTRA.VDW>
0.677839

>  <SCORE.INTRA.VDW.0>
-4.16072

>  <SCORE.INTRA.norm>
-0.0487917

>  <SCORE.RESTR>
0

>  <SCORE.RESTR.CAVITY>
0

>  <SCORE.RESTR.norm>
0

>  <SCORE.SYSTEM>
0

>  <SCORE.SYSTEM.CONST>
0

>  <SCORE.SYSTEM.DIHEDRAL>
0

>  <SCORE.SYSTEM.SOLV>
0

>  <SCORE.SYSTEM.norm>
0

>  <SCORE.heavy>
31

>  <SCORE.norm>
-0.545251

>  <RMSD>
0.543

$$$$
ligand
 OpenBabel11021811493D
libRbt.so/2013.1/901 2013/11/27
 31 33  0  0  0  0  0  0  0  0999 V2000
   -6.9068  -10.0749  -17.4719 C   0  0  2  0  0  0  0  0  0  0  0  0
   -5.5381  -10.4515  -17.6751 O   0  0  0  0  0  0  0  0  0  0  0  0
   -1.8151  -10.2652  -15.5707 C   0  0  2  0  0  0  0  0  0  0  0  0
   -0.7184   -9.7483  -14.8104 N   0  0  0  0  0  0  0  0  0  0  0  0
   -2.6180  -10.3070  -12.2576 C   0  0  2  0  0  0  0  0  0  0  0  0
   -7.7733  -11.1116  -18.2696 C   0  0  2  0  0  0  0  0  0  0  0  0
   -7.4832  -12.4615  -17.7989 N   0  0  0  0  0  0  0  0  0  0  0  0
   -1.9350   -9.4468  -16.9138 C   0  0  0  0  0  0  0  0  0  0  0  0
   -1.8808  -11.4553  -11.5019 C   0  0  2  0  0  0  0  0  0  0  0  0
   -0.7518  -11.8561  -12.2593 O   0  0  0  0  0  0  0  0  0  0  0  0
   -7.4758  -10.9833  -19.8041 C   0  0  0  0  0  0  0  0  0  0  0  0
   -3.1487  -10.0270  -17.7611 C   0  0  2  0  0  0  0  0  0  0  0  0
   -3.2722   -9.2643  -19.0253 N   0  0  0  0  0  0  0  0  0  0  0  0
   -2.9176  -12.6540  -11.3463 C   0  0  1  0  0  0  0  0  0  0  0  0
   -2.2763  -13.8229  -10.6538 N   0  0  0  0  0  0  0  0  0  0  0  0
   -7.5061   -9.4932  -20.2515 C   0  0  0  0  0  0  0  0  0  0  0  0
   -4.4926   -9.9123  -16.9128 C   0  0  2  0  0  0  0  0  0  0  0  0
   -4.1935  -12.1470  -10.4700 C   0  0  1  0  0  0  0  0  0  0  0  0
   -3.8148  -11.7245   -9.1743 O   0  0  0  0  0  0  0  0  0  0  0  0
   -7.3667   -8.5009  -19.3595 C   0  0  2  0  0  0  0  0  0  0  0  0
   -7.1862   -8.7249  -17.9502 O   0  0  0  0  0  0  0  0  0  0  0  0
   -4.3268  -10.7208  -15.5584 C   0  0  2  0  0  0  0  0  0  0  0  0
   -5.5211  -10.6052  -14.7746 O   0  0  0  0  0  0  0  0  0  0  0  0
   -4.8645  -10.9296  -11.1910 C   0  0  0  0  0  0  0  0  0  0  0  0
   -3.8233   -9.8590  -11.4714 O   0  0  0  0  0  0  0  0  0  0  0  0
   -7.3968   -7.0141  -19.7841 C   0  0  0  0  0  0  0  0  0  0  0  0
   -6.9105   -6.8885  -21.1509 N   0  0  0  0  0  0  0  0  0  0  0  0
   -3.1227  -10.1369  -14.7345 C   0  0  1  0  0  0  0  0  0  0  0  0
   -3.0044  -10.8814  -13.5459 O   0  0  0  0  0  0  0  0  0  0  0  0
   -5.2962  -13.1917  -10.2306 C   0  0  0  0  0  0  0  0  0  0  0  0
   -1.5186  -14.7556  -11.5095 C   0  0  0  0  0  0  0  0  0  0  0  0
  1  2  1  6  0  0  0
  1  6  1  0  0  0  0
  1 21  1  0  0  0  0
  3  4  1  1  0  0  0
  3  8  1  0  0  0  0
  3 28  1  0  0  0  0
  5  9  1  0  0  0  0
  5 25  1  0  0  0  0
  5 29  1  6  0  0  0
  6  7  1  1  0  0  0
  6 11  1  0  0  0  0
  8 12  1  0  0  0  0
  9 10  1  6  0  0  0
  9 14  1  0  0  0  0
 11 16  1  0  0  0  0
 12 13  1  6  0  0  0
 12 17  1  0  0  0  0
 14 15  1  1  0  0  0
 14 18  1  0  0  0  0
 15 31  1  0  0  0  0
 16 20  1  0  0  0  0
 17  2  1  6  0  0  0
 17 22  1  0  0  0  0
 18 19  1  1  0  0  0
 18 24  1  0  0  0  0
 18 30  1  0  0  0  0
 20 21  1  0  0  0  0
 20 26  1  1  0  0  0
 22 23  1  1  0  0  0
 22 28  1  0  0  0  0
 24 25  1  0  0  0  0
 26 27  1  0  0  0  0
 28 29  1  1  0  0  0
M  END
>  <CHROM.1>
-167.51974580,-149.76972002,-85.09136941,-155.80614145,-28.89706544,96.92279040
-4.41049023,-10.63747191,-15.14991095,1.99858857,-0.19299714,-1.12642774

>  <Name>
ligand

>  <RI>
0

>  <Rbt.Current_Directory>
/home/itssahil/PROJECTS/Mol_Feturizer/New_Systems/rnas/4F8U

>  <Rbt.Executable>
rbdock ($Id: //depot/dev/client3/rdock/2013.1/src/exe/rbdock.cxx#4 $)

>  <Rbt.Library>
libRbt.so (2013.1, Build901 2013/11/27)

>  <Rbt.Parameter_File>
/export/apps/rDock/src/rDock_2013.1_src/data/scripts/dock_solv.prm

>  <Rbt.Receptor>
prm/pocket_docking_3.prm

>  <SCORE>
-16.6963

>  <SCORE.INTER>
-15.3722

>  <SCORE.INTER.CONST>
1

>  <SCORE.INTER.POLAR>
0

>  <SCORE.INTER.ROT>
6

>  <SCORE.INTER.SOLV>
21.609

>  <SCORE.INTER.VDW>
-25.0512

>  <SCORE.INTER.norm>
-0.495878

>  <SCORE.INTRA>
-1.32609

>  <SCORE.INTRA.DIHEDRAL>
-3.95254

>  <SCORE.INTRA.DIHEDRAL.0>
18.77

>  <SCORE.INTRA.POLAR>
0

>  <SCORE.INTRA.POLAR.0>
0

>  <SCORE.INTRA.REPUL>
0

>  <SCORE.INTRA.REPUL.0>
0

>  <SCORE.INTRA.SOLV>
-0.649583

>  <SCORE.INTRA.SOLV.lig_0>
-77.2465

>  <SCORE.INTRA.VDW>
0.974971

>  <SCORE.INTRA.VDW.0>
-4.16072

>  <SCORE.INTRA.norm>
-0.042777

>  <SCORE.RESTR>
0.00204863

>  <SCORE.RESTR.CAVITY>
0.00204863

>  <SCORE.RESTR.norm>
6.60848e-05

>  <SCORE.SYSTEM>
0

>  <SCORE.SYSTEM.CONST>
0

>  <SCORE.SYSTEM.DIHEDRAL>
0

>  <SCORE.SYSTEM.SOLV>
0

>  <SCORE.SYSTEM.norm>
0

>  <SCORE.heavy>
31

>  <SCORE.norm>
-0.538589

>  <RMSD>
0.552

$$$$
ligand
 OpenBabel11021811493D
libRbt.so/2013.1/901 2013/11/27
 31 33  0  0  0  0  0  0  0  0999 V2000
   -6.8960  -10.1715  -17.4642 C   0  0  2  0  0  0  0  0  0  0  0  0
   -5.5249  -10.5322  -17.6801 O   0  0  0  0  0  0  0  0  0  0  0  0
   -1.8194  -10.3625  -15.5438 C   0  0  2  0  0  0  0  0  0  0  0  0
   -0.7241   -9.8492  -14.7791 N   0  0  0  0  0  0  0  0  0  0  0  0
   -2.5910  -10.3735  -12.2516 C   0  0  2  0  0  0  0  0  0  0  0  0
   -7.7578  -11.2216  -18.2495 C   0  0  2  0  0  0  0  0  0  0  0  0
   -7.4465  -12.5661  -17.7772 N   0  0  0  0  0  0  0  0  0  0  0  0
   -1.9183   -9.5576  -16.8967 C   0  0  0  0  0  0  0  0  0  0  0  0
   -1.8359  -11.5292  -11.5252 C   0  0  2  0  0  0  0  0  0  0  0  0
   -0.7417  -11.9410  -12.3263 O   0  0  0  0  0  0  0  0  0  0  0  0
   -7.4775  -11.0950  -19.7874 C   0  0  0  0  0  0  0  0  0  0  0  0
   -3.1304  -10.1341  -17.7488 C   0  0  2  0  0  0  0  0  0  0  0  0
   -3.2343   -9.3839  -19.0222 N   0  0  0  0  0  0  0  0  0  0  0  0
   -2.8776  -12.7176  -11.3285 C   0  0  1  0  0  0  0  0  0  0  0  0
   -2.2211  -13.8929  -10.6615 N   0  0  0  0  0  0  0  0  0  0  0  0
   -7.5307   -9.6070  -20.2395 C   0  0  0  0  0  0  0  0  0  0  0  0
   -4.4806   -9.9959  -16.9141 C   0  0  2  0  0  0  0  0  0  0  0  0
   -4.1130  -12.1981  -10.4028 C   0  0  1  0  0  0  0  0  0  0  0  0
   -3.6793  -11.7795   -9.1231 O   0  0  0  0  0  0  0  0  0  0  0  0
   -7.3944   -8.6100  -19.3524 C   0  0  2  0  0  0  0  0  0  0  0  0
   -7.1967   -8.8268  -17.9443 O   0  0  0  0  0  0  0  0  0  0  0  0
   -4.3358  -10.7913  -15.5496 C   0  0  2  0  0  0  0  0  0  0  0  0
   -5.5358  -10.6544  -14.7781 O   0  0  0  0  0  0  0  0  0  0  0  0
   -4.7997  -10.9740  -11.0971 C   0  0  0  0  0  0  0  0  0  0  0  0
   -3.7599   -9.9138  -11.4186 O   0  0  0  0  0  0  0  0  0  0  0  0
   -7.4470   -7.1252  -19.7816 C   0  0  0  0  0  0  0  0  0  0  0  0
   -6.5006   -6.8980  -20.8648 N   0  0  0  0  0  0  0  0  0  0  0  0
   -3.1330  -10.2113  -14.7210 C   0  0  1  0  0  0  0  0  0  0  0  0
   -3.0335  -10.9439  -13.5234 O   0  0  0  0  0  0  0  0  0  0  0  0
   -5.2156  -13.2319  -10.1198 C   0  0  0  0  0  0  0  0  0  0  0  0
   -1.5011  -14.8292  -11.5453 C   0  0  0  0  0  0  0  0  0  0  0  0
  1  2  1  6  0  0  0
  1  6  1  0  0  0  0
  1 21  1  0  0  0  0
  3  4  1  1  0  0  0
  3  8  1  0  0  0  0
  3 28  1  0  0  0  0
  5  9  1  0  0  0  0
  5 25  1  0  0  0  0
  5 29  1  6  0  0  0
  6  7  1  1  0  0  0
  6 11  1  0  0  0  0
  8 12  1  0  0  0  0
  9 10  1  6  0  0  0
  9 14  1  0  0  0  0
 11 16  1  0  0  0  0
 12 13  1  6  0  0  0
 12 17  1  0  0  0  0
 14 15  1  1  0  0  0
 14 18  1  0  0  0  0
 15 31  1  0  0  0  0
 16 20  1  0  0  0  0
 17  2  1  6  0  0  0
 17 22  1  0  0  0  0
 18 19  1  1  0  0  0
 18 24  1  0  0  0  0
 18 30  1  0  0  0  0
 20 21  1  0  0  0  0
 20 26  1  1  0  0  0
 22 23  1  1  0  0  0
 22 28  1  0  0  0  0
 24 25  1  0  0  0  0
 26 27  1  0  0  0  0
 28 29  1  1  0  0  0
M  END
>  <CHROM.1>
-166.33210410,-146.76092742,-84.78675738,-157.89614920,-52.67281540,93.86981843
-4.37803028,-10.71773116,-15.12530598,1.99958275,-0.19511863,-1.12968003

>  <Name>
ligand

>  <RI>
0

>  <Rbt.Current_Directory>
/home/itssahil/PROJECTS/Mol_Feturizer/New_Systems/rnas/4F8U

>  <Rbt.Executable>
rbdock ($Id: //depot/dev/client3/rdock/2013.1/src/exe/rbdock.cxx#4 $)

>  <Rbt.Library>
libRbt.so (2013.1, Build901 2013/11/27)

>  <Rbt.Parameter_File>
/export/apps/rDock/src/rDock_2013.1_src/data/scripts/dock_solv.prm

>  <Rbt.Receptor>
prm/pocket_docking_4.prm

>  <SCORE>
-16.9328

>  <SCORE.INTER>
-15.6345

>  <SCORE.INTER.CONST>
1

>  <SCORE.INTER.POLAR>
0

>  <SCORE.INTER.ROT>
6

>  <SCORE.INTER.SOLV>
20.618

>  <SCORE.INTER.VDW>
-24.8957

>  <SCORE.INTER.norm>
-0.504339

>  <SCORE.INTRA>
-1.29825

>  <SCORE.INTRA.DIHEDRAL>
-3.23228

>  <SCORE.INTRA.DIHEDRAL.0>
18.77

>  <SCORE.INTRA.POLAR>
0

>  <SCORE.INTRA.POLAR.0>
0

>  <SCORE.INTRA.REPUL>
0

>  <SCORE.INTRA.REPUL.0>
0

>  <SCORE.INTRA.SOLV>
-0.740443

>  <SCORE.INTRA.SOLV.lig_0>
-77.2465

>  <SCORE.INTRA.VDW>
0.688113

>  <SCORE.INTRA.VDW.0>
-4.16072

>  <SCORE.INTRA.norm>
-0.041879

>  <SCORE.RESTR>
0

>  <SCORE.RESTR.CAVITY>
0

>  <SCORE.RESTR.norm>
0

>  <SCORE.SYSTEM>
0

>  <SCORE.SYSTEM.CONST>
0

>  <SCORE.SYSTEM.DIHEDRAL>
0

>  <SCORE.SYSTEM.SOLV>
0

>  <SCORE.SYSTEM.norm>
0

>  <SCORE.heavy>
31

>  <SCORE.norm>
-0.546218

>  <RMSD>
0.553

$$$$
ligand
 OpenBabel11021811493D
libRbt.so/2013.1/901 2013/11/27
 31 33  0  0  0  0  0  0  0  0999 V2000
   -6.9044  -10.1209  -17.4894 C   0  0  2  0  0  0  0  0  0  0  0  0
   -5.5372  -10.5080  -17.6830 O   0  0  0  0  0  0  0  0  0  0  0  0
   -1.7957  -10.3028  -15.6136 C   0  0  2  0  0  0  0  0  0  0  0  0
   -0.6983   -9.7827  -14.8565 N   0  0  0  0  0  0  0  0  0  0  0  0
   -2.5242  -10.4136  -12.3031 C   0  0  2  0  0  0  0  0  0  0  0  0
   -7.7741  -11.1614  -18.2786 C   0  0  2  0  0  0  0  0  0  0  0  0
   -7.4940  -12.5076  -17.7916 N   0  0  0  0  0  0  0  0  0  0  0  0
   -1.9405   -9.4658  -16.9427 C   0  0  0  0  0  0  0  0  0  0  0  0
   -1.8210  -11.5941  -11.5648 C   0  0  2  0  0  0  0  0  0  0  0  0
   -0.7224  -12.0367  -12.3432 O   0  0  0  0  0  0  0  0  0  0  0  0
   -7.4700  -11.0521  -19.8134 C   0  0  0  0  0  0  0  0  0  0  0  0
   -3.1548  -10.0495  -17.7865 C   0  0  2  0  0  0  0  0  0  0  0  0
   -3.3016   -9.2693  -19.0375 N   0  0  0  0  0  0  0  0  0  0  0  0
   -2.9026  -12.7508  -11.3958 C   0  0  1  0  0  0  0  0  0  0  0  0
   -2.2972  -13.9477  -10.7190 N   0  0  0  0  0  0  0  0  0  0  0  0
   -7.4897   -9.5670  -20.2777 C   0  0  0  0  0  0  0  0  0  0  0  0
   -4.4913   -9.9662  -16.9231 C   0  0  2  0  0  0  0  0  0  0  0  0
   -4.1417  -12.1967  -10.4954 C   0  0  1  0  0  0  0  0  0  0  0  0
   -3.7239  -11.7956   -9.2049 O   0  0  0  0  0  0  0  0  0  0  0  0
   -7.3477   -8.5656  -19.3963 C   0  0  2  0  0  0  0  0  0  0  0  0
   -7.1738   -8.7748  -17.9839 O   0  0  0  0  0  0  0  0  0  0  0  0
   -4.3007  -10.7930  -15.5830 C   0  0  2  0  0  0  0  0  0  0  0  0
   -5.4883  -10.7057  -14.7856 O   0  0  0  0  0  0  0  0  0  0  0  0
   -4.7752  -10.9499  -11.2000 C   0  0  0  0  0  0  0  0  0  0  0  0
   -3.6966   -9.9210  -11.4944 O   0  0  0  0  0  0  0  0  0  0  0  0
   -7.3672   -7.0836  -19.8377 C   0  0  0  0  0  0  0  0  0  0  0  0
   -6.5348   -6.9173  -21.0209 N   0  0  0  0  0  0  0  0  0  0  0  0
   -3.0962  -10.2053  -14.7624 C   0  0  1  0  0  0  0  0  0  0  0  0
   -2.9556  -10.9662  -13.5867 O   0  0  0  0  0  0  0  0  0  0  0  0
   -5.2813  -13.1971  -10.2409 C   0  0  0  0  0  0  0  0  0  0  0  0
   -1.5559  -14.8841  -11.5849 C   0  0  0  0  0  0  0  0  0  0  0  0
  1  2  1  6  0  0  0
  1  6  1  0  0  0  0
  1 21  1  0  0  0  0
  3  4  1  1  0  0  0
  3  8  1  0  0  0  0
  3 28  1  0  0  0  0
  5  9  1  0  0  0  0
  5 25  1  0  0  0  0
  5 29  1  6  0  0  0
  6  7  1  1  0  0  0
  6 11  1  0  0  0  0
  8 12  1  0  0  0  0
  9 10  1  6  0  0  0
  9 14  1  0  0  0  0
 11 16  1  0  0  0  0
 12 13  1  6  0  0  0
 12 17  1  0  0  0  0
 14 15  1  1  0  0  0
 14 18  1  0  0  0  0
 15 31  1  0  0  0  0
 16 20  1  0  0  0  0
 17  2  1  6  0  0  0
 17 22  1  0  0  0  0
 18 19  1  1  0  0  0
 18 24  1  0  0  0  0
 18 30  1  0  0  0  0
 20 21  1  0  0  0  0
 20 26  1  1  0  0  0
 22 23  1  1  0  0  0
 22 28  1  0  0  0  0
 24 25  1  0  0  0  0
 26 27  1  0  0  0  0
 28 29  1  1  0  0  0
M  END
>  <CHROM.1>
-167.53669319,-151.41973278,-83.20899381,-153.73853689,-45.26629231,94.96602867
-4.37465194,-10.70383404,-15.17611976,1.99882637,-0.21210038,-1.11276128

>  <Name>
ligand

>  <RI>
0

>  <Rbt.Current_Directory>
/home/itssahil/PROJECTS/Mol_Feturizer/New_Systems/rnas/4F8U

>  <Rbt.Executable>
rbdock ($Id: //depot/dev/client3/rdock/2013.1/src/exe/rbdock.cxx#4 $)

>  <Rbt.Library>
libRbt.so (2013.1, Build901 2013/11/27)

>  <Rbt.Parameter_File>
/export/apps/rDock/src/rDock_2013.1_src/data/scripts/dock_solv.prm

>  <Rbt.Receptor>
prm/pocket_docking_3.prm

>  <SCORE>
-16.9011

>  <SCORE.INTER>
-15.5471

>  <SCORE.INTER.CONST>
1

>  <SCORE.INTER.POLAR>
0

>  <SCORE.INTER.ROT>
6

>  <SCORE.INTER.SOLV>
20.2794

>  <SCORE.INTER.VDW>
-24.7245

>  <SCORE.INTER.norm>
-0.501519

>  <SCORE.INTRA>
-1.36685

>  <SCORE.INTRA.DIHEDRAL>
-3.55198

>  <SCORE.INTRA.DIHEDRAL.0>
18.77

>  <SCORE.INTRA.POLAR>
0

>  <SCORE.INTRA.POLAR.0>
0

>  <SCORE.INTRA.REPUL>
0

>  <SCORE.INTRA.REPUL.0>
0

>  <SCORE.INTRA.SOLV>
-0.641449

>  <SCORE.INTRA.SOLV.lig_0>
-77.2465

>  <SCORE.INTRA.VDW>
0.729864

>  <SCORE.INTRA.VDW.0>
-4.16072

>  <SCORE.INTRA.norm>
-0.0440919

>  <SCORE.RESTR>
0.0128492

>  <SCORE.RESTR.CAVITY>
0.0128492

>  <SCORE.RESTR.norm>
0.000414489

>  <SCORE.SYSTEM>
0

>  <SCORE.SYSTEM.CONST>
0

>  <SCORE.SYSTEM.DIHEDRAL>
0

>  <SCORE.SYSTEM.SOLV>
0

>  <SCORE.SYSTEM.norm>
0

>  <SCORE.heavy>
31

>  <SCORE.norm>
-0.545196

>  <RMSD>
0.554

$$$$
ligand
 OpenBabel11021811493D
libRbt.so/2013.1/901 2013/11/27
 31 33  0  0  0  0  0  0  0  0999 V2000
   -6.9232  -10.1686  -17.4611 C   0  0  2  0  0  0  0  0  0  0  0  0
   -5.5516  -10.5364  -17.6609 O   0  0  0  0  0  0  0  0  0  0  0  0
   -1.8028  -10.2776  -15.6108 C   0  0  2  0  0  0  0  0  0  0  0  0
   -0.7094   -9.7419  -14.8588 N   0  0  0  0  0  0  0  0  0  0  0  0
   -2.5222  -10.4016  -12.2942 C   0  0  2  0  0  0  0  0  0  0  0  0
   -7.7809  -11.2089  -18.2636 C   0  0  2  0  0  0  0  0  0  0  0  0
   -7.4841  -12.5580  -17.7948 N   0  0  0  0  0  0  0  0  0  0  0  0
   -1.9671   -9.4411  -16.9380 C   0  0  0  0  0  0  0  0  0  0  0  0
   -1.8078  -11.5727  -11.5517 C   0  0  2  0  0  0  0  0  0  0  0  0
   -0.7009  -12.0029  -12.3253 O   0  0  0  0  0  0  0  0  0  0  0  0
   -7.4796  -11.0755  -19.7969 C   0  0  0  0  0  0  0  0  0  0  0  0
   -3.1769  -10.0420  -17.7762 C   0  0  2  0  0  0  0  0  0  0  0  0
   -3.3420   -9.2626  -19.0254 N   0  0  0  0  0  0  0  0  0  0  0  0
   -2.8760  -12.7420  -11.3854 C   0  0  1  0  0  0  0  0  0  0  0  0
   -2.2589  -13.9308  -10.7049 N   0  0  0  0  0  0  0  0  0  0  0  0
   -7.5177   -9.5847  -20.2413 C   0  0  0  0  0  0  0  0  0  0  0  0
   -4.5100   -9.9799  -16.9057 C   0  0  2  0  0  0  0  0  0  0  0  0
   -4.1252  -12.2018  -10.4906 C   0  0  1  0  0  0  0  0  0  0  0  0
   -3.7172  -11.7942   -9.1989 O   0  0  0  0  0  0  0  0  0  0  0  0
   -7.3871   -8.5935  -19.3468 C   0  0  2  0  0  0  0  0  0  0  0  0
   -7.2094   -8.8193  -17.9374 O   0  0  0  0  0  0  0  0  0  0  0  0
   -4.2999  -10.8054  -15.5678 C   0  0  2  0  0  0  0  0  0  0  0  0
   -5.4846  -10.7370  -14.7641 O   0  0  0  0  0  0  0  0  0  0  0  0
   -4.7709  -10.9636  -11.1991 C   0  0  0  0  0  0  0  0  0  0  0  0
   -3.7036   -9.9221  -11.4906 O   0  0  0  0  0  0  0  0  0  0  0  0
   -7.4250   -7.1060  -19.7683 C   0  0  0  0  0  0  0  0  0  0  0  0
   -6.5068   -6.8912  -20.8779 N   0  0  0  0  0  0  0  0  0  0  0  0
   -3.1001  -10.2007  -14.7527 C   0  0  1  0  0  0  0  0  0  0  0  0
   -2.9420  -10.9608  -13.5787 O   0  0  0  0  0  0  0  0  0  0  0  0
   -5.2537  -13.2156  -10.2392 C   0  0  0  0  0  0  0  0  0  0  0  0
   -1.5680  -14.8991  -11.5774 C   0  0  0  0  0  0  0  0  0  0  0  0
  1  2  1  6  0  0  0
  1  6  1  0  0  0  0
  1 21  1  0  0  0  0
  3  4  1  1  0  0  0
  3  8  1  0  0  0  0
  3 28  1  0  0  0  0
  5  9  1  0  0  0  0
  5 25  1  0  0  0  0
  5 29  1  6  0  0  0
  6  7  1  1  0  0  0
  6 11  1  0  0  0  0
  8 12  1  0  0  0  0
  9 10  1  6  0  0  0
  9 14  1  0  0  0  0
 11 16  1  0  0  0  0
 12 13  1  6  0  0  0
 12 17  1  0  0  0  0
 14 15  1  1  0  0  0
 14 18  1  0  0  0  0
 15 31  1  0  0  0  0
 16 20  1  0  0  0  0
 17  2  1  6  0  0  0
 17 22  1  0  0  0  0
 18 19  1  1  0  0  0
 18 24  1  0  0  0  0
 18 30  1  0  0  0  0
 20 21  1  0  0  0  0
 20 26  1  1  0  0  0
 22 23  1  1  0  0  0
 22 28  1  0  0  0  0
 24 25  1  0  0  0  0
 26 27  1  0  0  0  0
 28 29  1  1  0  0  0
M  END
>  <CHROM.1>
-168.34255076,-152.08780947,-86.54500100,-153.63515356,-50.13355203,95.46186016
-4.37928229,-10.70995303,-15.15635014,2.00582883,-0.22767928,-1.10555704

>  <Name>
ligand

>  <RI>
0

>  <Rbt.Current_Directory>
/home/itssahil/PROJECTS/Mol_Feturizer/New_Systems/rnas/4F8U

>  <Rbt.Executable>
rbdock ($Id: //depot/dev/client3/rdock/2013.1/src/exe/rbdock.cxx#4 $)

>  <Rbt.Library>
libRbt.so (2013.1, Build901 2013/11/27)

>  <Rbt.Parameter_File>
/export/apps/rDock/src/rDock_2013.1_src/data/scripts/dock_solv.prm

>  <Rbt.Receptor>
prm/pocket_docking_3.prm

>  <SCORE>
-16.9793

>  <SCORE.INTER>
-15.524

>  <SCORE.INTER.CONST>
1

>  <SCORE.INTER.POLAR>
0

>  <SCORE.INTER.ROT>
6

>  <SCORE.INTER.SOLV>
20.5023

>  <SCORE.INTER.VDW>
-24.7835

>  <SCORE.INTER.norm>
-0.500776

>  <SCORE.INTRA>
-1.47157

>  <SCORE.INTRA.DIHEDRAL>
-3.41088

>  <SCORE.INTRA.DIHEDRAL.0>
18.77

>  <SCORE.INTRA.POLAR>
0

>  <SCORE.INTRA.POLAR.0>
0

>  <SCORE.INTRA.REPUL>
0

>  <SCORE.INTRA.REPUL.0>
0

>  <SCORE.INTRA.SOLV>
-0.649828

>  <SCORE.INTRA.SOLV.lig_0>
-77.2465

>  <SCORE.INTRA.VDW>
0.558785

>  <SCORE.INTRA.VDW.0>
-4.16072

>  <SCORE.INTRA.norm>
-0.0474699

>  <SCORE.RESTR>
0.0163572

>  <SCORE.RESTR.CAVITY>
0.0163572

>  <SCORE.RESTR.norm>
0.000527652

>  <SCORE.SYSTEM>
0

>  <SCORE.SYSTEM.CONST>
0

>  <SCORE.SYSTEM.DIHEDRAL>
0

>  <SCORE.SYSTEM.SOLV>
0

>  <SCORE.SYSTEM.norm>
0

>  <SCORE.heavy>
31

>  <SCORE.norm>
-0.547718

>  <RMSD>
0.562

$$$$
ligand
 OpenBabel11021811493D
libRbt.so/2013.1/901 2013/11/27
 31 33  0  0  0  0  0  0  0  0999 V2000
   -6.8945   -9.9553  -17.6500 C   0  0  2  0  0  0  0  0  0  0  0  0
   -5.5846  -10.5366  -17.5972 O   0  0  0  0  0  0  0  0  0  0  0  0
   -1.9522  -10.3978  -15.3368 C   0  0  2  0  0  0  0  0  0  0  0  0
   -0.8808   -9.8943  -14.5326 N   0  0  0  0  0  0  0  0  0  0  0  0
   -2.8677  -10.4171  -12.0658 C   0  0  2  0  0  0  0  0  0  0  0  0
   -7.8250  -11.0235  -18.3246 C   0  0  2  0  0  0  0  0  0  0  0  0
   -7.7880  -12.2636  -17.5573 N   0  0  0  0  0  0  0  0  0  0  0  0
   -2.0020   -9.5842  -16.6872 C   0  0  0  0  0  0  0  0  0  0  0  0
   -2.0497  -11.5338  -11.3465 C   0  0  2  0  0  0  0  0  0  0  0  0
   -0.9090  -11.8463  -12.1275 O   0  0  0  0  0  0  0  0  0  0  0  0
   -7.3635  -11.2718  -19.8029 C   0  0  0  0  0  0  0  0  0  0  0  0
   -3.1874  -10.1496  -17.5830 C   0  0  2  0  0  0  0  0  0  0  0  0
   -3.2450   -9.3912  -18.8544 N   0  0  0  0  0  0  0  0  0  0  0  0
   -3.0078  -12.7980  -11.2053 C   0  0  1  0  0  0  0  0  0  0  0  0
   -2.2852  -13.9398  -10.5484 N   0  0  0  0  0  0  0  0  0  0  0  0
   -7.1262   -9.9237  -20.5430 C   0  0  0  0  0  0  0  0  0  0  0  0
   -4.5642  -10.0100  -16.7933 C   0  0  2  0  0  0  0  0  0  0  0  0
   -4.3000  -12.3914  -10.3011 C   0  0  1  0  0  0  0  0  0  0  0  0
   -3.9297  -11.9750   -9.0009 O   0  0  0  0  0  0  0  0  0  0  0  0
   -6.9270   -8.7863  -19.8601 C   0  0  2  0  0  0  0  0  0  0  0  0
   -6.9202   -8.7181  -18.4234 O   0  0  0  0  0  0  0  0  0  0  0  0
   -4.4689  -10.8144  -15.4296 C   0  0  2  0  0  0  0  0  0  0  0  0
   -5.6936  -10.6765  -14.6980 O   0  0  0  0  0  0  0  0  0  0  0  0
   -5.0556  -11.2024  -10.9849 C   0  0  0  0  0  0  0  0  0  0  0  0
   -4.0870  -10.0629  -11.2539 O   0  0  0  0  0  0  0  0  0  0  0  0
   -6.6921   -7.4365  -20.5774 C   0  0  0  0  0  0  0  0  0  0  0  0
   -7.8265   -6.5551  -20.3393 N   0  0  0  0  0  0  0  0  0  0  0  0
   -3.2920  -10.2452  -14.5576 C   0  0  1  0  0  0  0  0  0  0  0  0
   -3.2361  -10.9857  -13.3619 O   0  0  0  0  0  0  0  0  0  0  0  0
   -5.3321  -13.5079  -10.0717 C   0  0  0  0  0  0  0  0  0  0  0  0
   -1.5792  -14.8719  -11.4478 C   0  0  0  0  0  0  0  0  0  0  0  0
  1  2  1  6  0  0  0
  1  6  1  0  0  0  0
  1 21  1  0  0  0  0
  3  4  1  1  0  0  0
  3  8  1  0  0  0  0
  3 28  1  0  0  0  0
  5  9  1  0  0  0  0
  5 25  1  0  0  0  0
  5 29  1  6  0  0  0
  6  7  1  1  0  0  0
  6 11  1  0  0  0  0
  8 12  1  0  0  0  0
  9 10  1  6  0  0  0
  9 14  1  0  0  0  0
 11 16  1  0  0  0  0
 12 13  1  6  0  0  0
 12 17  1  0  0  0  0
 14 15  1  1  0  0  0
 14 18  1  0  0  0  0
 15 31  1  0  0  0  0
 16 20  1  0  0  0  0
 17  2  1  6  0  0  0
 17 22  1  0  0  0  0
 18 19  1  1  0  0  0
 18 24  1  0  0  0  0
 18 30  1  0  0  0  0
 20 21  1  0  0  0  0
 20 26  1  6  0  0  0
 22 23  1  1  0  0  0
 22 28  1  0  0  0  0
 24 25  1  0  0  0  0
 26 27  1  0  0  0  0
 28 29  1  1  0  0  0
M  END
>  <CHROM.1>
-164.99548441,-143.38892825,-90.21009978,-142.81156747,112.35759748,95.53699883
-4.47655911,-10.75852814,-15.07531070,1.97005719,-0.20586027,-1.13063124

>  <Name>
ligand

>  <RI>
0

>  <Rbt.Current_Directory>
/home/itssahil/PROJECTS/Mol_Feturizer/New_Systems/rnas/4F8U

>  <Rbt.Executable>
rbdock ($Id: //depot/dev/client3/rdock/2013.1/src/exe/rbdock.cxx#4 $)

>  <Rbt.Library>
libRbt.so (2013.1, Build901 2013/11/27)

>  <Rbt.Parameter_File>
/export/apps/rDock/src/rDock_2013.1_src/data/scripts/dock_solv.prm

>  <Rbt.Receptor>
prm/pocket_docking_2.prm

>  <SCORE>
-13.551

>  <SCORE.INTER>
-13.3148

>  <SCORE.INTER.CONST>
1

>  <SCORE.INTER.POLAR>
0

>  <SCORE.INTER.ROT>
6

>  <SCORE.INTER.SOLV>
24.632

>  <SCORE.INTER.VDW>
-24.6872

>  <SCORE.INTER.norm>
-0.429511

>  <SCORE.INTRA>
-0.236188

>  <SCORE.INTRA.DIHEDRAL>
-0.979357

>  <SCORE.INTRA.DIHEDRAL.0>
18.77

>  <SCORE.INTRA.POLAR>
0

>  <SCORE.INTRA.POLAR.0>
0

>  <SCORE.INTRA.REPUL>
0

>  <SCORE.INTRA.REPUL.0>
0

>  <SCORE.INTRA.SOLV>
0.327277

>  <SCORE.INTRA.SOLV.lig_0>
-77.2465

>  <SCORE.INTRA.VDW>
0.0898518

>  <SCORE.INTRA.VDW.0>
-4.16072

>  <SCORE.INTRA.norm>
-0.00761898

>  <SCORE.RESTR>
0

>  <SCORE.RESTR.CAVITY>
0

>  <SCORE.RESTR.norm>
0

>  <SCORE.SYSTEM>
0

>  <SCORE.SYSTEM.CONST>
0

>  <SCORE.SYSTEM.DIHEDRAL>
0

>  <SCORE.SYSTEM.SOLV>
0

>  <SCORE.SYSTEM.norm>
0

>  <SCORE.heavy>
31

>  <SCORE.norm>
-0.43713

>  <RMSD>
0.565

$$$$
ligand
 OpenBabel11021811493D
libRbt.so/2013.1/901 2013/11/27
 31 33  0  0  0  0  0  0  0  0999 V2000
   -6.7433   -9.6884  -17.6765 C   0  0  2  0  0  0  0  0  0  0  0  0
   -5.5176  -10.4204  -17.5418 O   0  0  0  0  0  0  0  0  0  0  0  0
   -1.7214  -10.3911  -15.5639 C   0  0  2  0  0  0  0  0  0  0  0  0
   -0.5821   -9.9227  -14.8355 N   0  0  0  0  0  0  0  0  0  0  0  0
   -2.4695  -10.4366  -12.2123 C   0  0  2  0  0  0  0  0  0  0  0  0
   -7.7249  -10.6142  -18.4774 C   0  0  2  0  0  0  0  0  0  0  0  0
   -7.8969  -11.8783  -17.7701 N   0  0  0  0  0  0  0  0  0  0  0  0
   -1.8577   -9.5517  -16.8924 C   0  0  0  0  0  0  0  0  0  0  0  0
   -1.7687  -11.6095  -11.4597 C   0  0  2  0  0  0  0  0  0  0  0  0
   -0.6459  -12.0356  -12.2123 O   0  0  0  0  0  0  0  0  0  0  0  0
   -7.1648  -10.8583  -19.9219 C   0  0  0  0  0  0  0  0  0  0  0  0
   -3.1189  -10.0783  -17.7044 C   0  0  2  0  0  0  0  0  0  0  0  0
   -3.2581   -9.2954  -18.9545 N   0  0  0  0  0  0  0  0  0  0  0  0
   -2.8386  -12.7807  -11.3191 C   0  0  1  0  0  0  0  0  0  0  0  0
   -2.2338  -13.9712  -10.6304 N   0  0  0  0  0  0  0  0  0  0  0  0
   -6.7116   -9.5201  -20.5738 C   0  0  0  0  0  0  0  0  0  0  0  0
   -4.4286   -9.9279  -16.8094 C   0  0  2  0  0  0  0  0  0  0  0  0
   -4.1062  -12.2453  -10.4478 C   0  0  1  0  0  0  0  0  0  0  0  0
   -3.7250  -11.8418   -9.1467 O   0  0  0  0  0  0  0  0  0  0  0  0
   -6.4466   -8.4405  -19.8228 C   0  0  2  0  0  0  0  0  0  0  0  0
   -6.5600   -8.4283  -18.3890 O   0  0  0  0  0  0  0  0  0  0  0  0
   -4.2457  -10.7592  -15.4710 C   0  0  2  0  0  0  0  0  0  0  0  0
   -5.4080  -10.6122  -14.6456 O   0  0  0  0  0  0  0  0  0  0  0  0
   -4.7391  -11.0053  -11.1648 C   0  0  0  0  0  0  0  0  0  0  0  0
   -3.6675   -9.9615  -11.4310 O   0  0  0  0  0  0  0  0  0  0  0  0
   -5.9976   -7.1011  -20.4521 C   0  0  0  0  0  0  0  0  0  0  0  0
   -7.0183   -6.0886  -20.2210 N   0  0  0  0  0  0  0  0  0  0  0  0
   -2.9946  -10.2283  -14.6820 C   0  0  1  0  0  0  0  0  0  0  0  0
   -2.8626  -10.9918  -13.5070 O   0  0  0  0  0  0  0  0  0  0  0  0
   -5.2383  -13.2613  -10.2228 C   0  0  0  0  0  0  0  0  0  0  0  0
   -1.4660  -14.8997  -11.4816 C   0  0  0  0  0  0  0  0  0  0  0  0
  1  2  1  6  0  0  0
  1  6  1  0  0  0  0
  1 21  1  0  0  0  0
  3  4  1  1  0  0  0
  3  8  1  0  0  0  0
  3 28  1  0  0  0  0
  5  9  1  0  0  0  0
  5 25  1  0  0  0  0
  5 29  1  6  0  0  0
  6  7  1  1  0  0  0
  6 11  1  0  0  0  0
  8 12  1  0  0  0  0
  9 10  1  6  0  0  0
  9 14  1  0  0  0  0
 11 16  1  0  0  0  0
 12 13  1  6  0  0  0
 12 17  1  0  0  0  0
 14 15  1  1  0  0  0
 14 18  1  0  0  0  0
 15 31  1  0  0  0  0
 16 20  1  0  0  0  0
 17  2  1  6  0  0  0
 17 22  1  0  0  0  0
 18 19  1  1  0  0  0
 18 24  1  0  0  0  0
 18 30  1  0  0  0  0
 20 21  1  0  0  0  0
 20 26  1  6  0  0  0
 22 23  1  1  0  0  0
 22 28  1  0  0  0  0
 24 25  1  0  0  0  0
 26 27  1  0  0  0  0
 28 29  1  1  0  0  0
M  END
>  <CHROM.1>
-176.30923631,-151.91699144,-83.54661999,-131.41482077,114.63307690,99.72516778
-4.22659554,-10.62060088,-15.16350394,1.95435532,-0.17489130,-1.11289390

>  <Name>
ligand

>  <RI>
0

>  <Rbt.Current_Directory>
/home/itssahil/PROJECTS/Mol_Feturizer/New_Systems/rnas/4F8U

>  <Rbt.Executable>
rbdock ($Id: //depot/dev/client3/rdock/2013.1/src/exe/rbdock.cxx#4 $)

>  <Rbt.Library>
libRbt.so (2013.1, Build901 2013/11/27)

>  <Rbt.Parameter_File>
/export/apps/rDock/src/rDock_2013.1_src/data/scripts/dock_solv.prm

>  <Rbt.Receptor>
prm/pocket_docking_3.prm

>  <SCORE>
-13.8583

>  <SCORE.INTER>
-13.6001

>  <SCORE.INTER.CONST>
1

>  <SCORE.INTER.POLAR>
0

>  <SCORE.INTER.ROT>
6

>  <SCORE.INTER.SOLV>
24.0129

>  <SCORE.INTER.VDW>
-24.6711

>  <SCORE.INTER.norm>
-0.438715

>  <SCORE.INTRA>
-0.25817

>  <SCORE.INTRA.DIHEDRAL>
-1.4151

>  <SCORE.INTRA.DIHEDRAL.0>
18.77

>  <SCORE.INTRA.POLAR>
0

>  <SCORE.INTRA.POLAR.0>
0

>  <SCORE.INTRA.REPUL>
0

>  <SCORE.INTRA.REPUL.0>
0

>  <SCORE.INTRA.SOLV>
0.901793

>  <SCORE.INTRA.SOLV.lig_0>
-77.2465

>  <SCORE.INTRA.VDW>
-0.00151472

>  <SCORE.INTRA.VDW.0>
-4.16072

>  <SCORE.INTRA.norm>
-0.00832805

>  <SCORE.RESTR>
0

>  <SCORE.RESTR.CAVITY>
0

>  <SCORE.RESTR.norm>
0

>  <SCORE.SYSTEM>
0

>  <SCORE.SYSTEM.CONST>
0

>  <SCORE.SYSTEM.DIHEDRAL>
0

>  <SCORE.SYSTEM.SOLV>
0

>  <SCORE.SYSTEM.norm>
0

>  <SCORE.heavy>
31

>  <SCORE.norm>
-0.447043

>  <RMSD>
0.565

$$$$
ligand
 OpenBabel11021811493D
libRbt.so/2013.1/901 2013/11/27
 31 33  0  0  0  0  0  0  0  0999 V2000
   -6.9054  -10.1228  -17.4808 C   0  0  2  0  0  0  0  0  0  0  0  0
   -5.5364  -10.5057  -17.6702 O   0  0  0  0  0  0  0  0  0  0  0  0
   -1.8050  -10.2875  -15.5839 C   0  0  2  0  0  0  0  0  0  0  0  0
   -0.7114   -9.7626  -14.8246 N   0  0  0  0  0  0  0  0  0  0  0  0
   -2.5690  -10.3749  -12.2718 C   0  0  2  0  0  0  0  0  0  0  0  0
   -7.7691  -11.1620  -18.2784 C   0  0  2  0  0  0  0  0  0  0  0  0
   -7.4877  -12.5096  -17.7961 N   0  0  0  0  0  0  0  0  0  0  0  0
   -1.9435   -9.4584  -16.9186 C   0  0  0  0  0  0  0  0  0  0  0  0
   -1.8427  -11.5367  -11.5262 C   0  0  2  0  0  0  0  0  0  0  0  0
   -0.7262  -11.9516  -12.2944 O   0  0  0  0  0  0  0  0  0  0  0  0
   -7.4587  -11.0452  -19.8113 C   0  0  0  0  0  0  0  0  0  0  0  0
   -3.1536  -10.0474  -17.7649 C   0  0  2  0  0  0  0  0  0  0  0  0
   -3.2945   -9.2747  -19.0211 N   0  0  0  0  0  0  0  0  0  0  0  0
   -2.8960  -12.7204  -11.3660 C   0  0  1  0  0  0  0  0  0  0  0  0
   -2.2665  -13.9012  -10.6829 N   0  0  0  0  0  0  0  0  0  0  0  0
   -7.4800   -9.5582  -20.2691 C   0  0  0  0  0  0  0  0  0  0  0  0
   -4.4943   -9.9592  -16.9084 C   0  0  2  0  0  0  0  0  0  0  0  0
   -4.1569  -12.1976  -10.4773 C   0  0  1  0  0  0  0  0  0  0  0  0
   -3.7611  -11.7853   -9.1834 O   0  0  0  0  0  0  0  0  0  0  0  0
   -7.3444   -8.5603  -19.3828 C   0  0  2  0  0  0  0  0  0  0  0  0
   -7.1760   -8.7752  -17.9706 O   0  0  0  0  0  0  0  0  0  0  0  0
   -4.3100  -10.7779  -15.5626 C   0  0  2  0  0  0  0  0  0  0  0  0
   -5.5016  -10.6862  -14.7715 O   0  0  0  0  0  0  0  0  0  0  0  0
   -4.8156  -10.9677  -11.1885 C   0  0  0  0  0  0  0  0  0  0  0  0
   -3.7609   -9.9118  -11.4740 O   0  0  0  0  0  0  0  0  0  0  0  0
   -7.3657   -7.0764  -19.8177 C   0  0  0  0  0  0  0  0  0  0  0  0
   -6.8394   -6.9582  -21.1703 N   0  0  0  0  0  0  0  0  0  0  0  0
   -3.1097  -10.1851  -14.7396 C   0  0  1  0  0  0  0  0  0  0  0  0
   -2.9747  -10.9389  -13.5587 O   0  0  0  0  0  0  0  0  0  0  0  0
   -5.2730  -13.2265  -10.2322 C   0  0  0  0  0  0  0  0  0  0  0  0
   -1.5552  -14.8577  -11.5519 C   0  0  0  0  0  0  0  0  0  0  0  0
  1  2  1  6  0  0  0
  1  6  1  0  0  0  0
  1 21  1  0  0  0  0
  3  4  1  1  0  0  0
  3  8  1  0  0  0  0
  3 28  1  0  0  0  0
  5  9  1  0  0  0  0
  5 25  1  0  0  0  0
  5 29  1  6  0  0  0
  6  7  1  1  0  0  0
  6 11  1  0  0  0  0
  8 12  1  0  0  0  0
  9 10  1  6  0  0  0
  9 14  1  0  0  0  0
 11 16  1  0  0  0  0
 12 13  1  6  0  0  0
 12 17  1  0  0  0  0
 14 15  1  1  0  0  0
 14 18  1  0  0  0  0
 15 31  1  0  0  0  0
 16 20  1  0  0  0  0
 17  2  1  6  0  0  0
 17 22  1  0  0  0  0
 18 19  1  1  0  0  0
 18 24  1  0  0  0  0
 18 30  1  0  0  0  0
 20 21  1  0  0  0  0
 20 26  1  1  0  0  0
 22 23  1  1  0  0  0
 22 28  1  0  0  0  0
 24 25  1  0  0  0  0
 26 27  1  0  0  0  0
 28 29  1  1  0  0  0
M  END
>  <CHROM.1>
-167.89938410,-150.68792632,-86.38893396,-154.07129171,-30.18137551,95.92706798
-4.39184782,-10.69173809,-15.16159486,2.00012130,-0.20984113,-1.11738425

>  <Name>
ligand

>  <RI>
0

>  <Rbt.Current_Directory>
/home/itssahil/PROJECTS/Mol_Feturizer/New_Systems/rnas/4F8U

>  <Rbt.Executable>
rbdock ($Id: //depot/dev/client3/rdock/2013.1/src/exe/rbdock.cxx#4 $)

>  <Rbt.Library>
libRbt.so (2013.1, Build901 2013/11/27)

>  <Rbt.Parameter_File>
/export/apps/rDock/src/rDock_2013.1_src/data/scripts/dock_solv.prm

>  <Rbt.Receptor>
prm/pocket_docking_3.prm

>  <SCORE>
-16.7753

>  <SCORE.INTER>
-15.4017

>  <SCORE.INTER.CONST>
1

>  <SCORE.INTER.POLAR>
0

>  <SCORE.INTER.ROT>
6

>  <SCORE.INTER.SOLV>
20.8876

>  <SCORE.INTER.VDW>
-24.8303

>  <SCORE.INTER.norm>
-0.49683

>  <SCORE.INTRA>
-1.37614

>  <SCORE.INTRA.DIHEDRAL>
-3.92531

>  <SCORE.INTRA.DIHEDRAL.0>
18.77

>  <SCORE.INTRA.POLAR>
0

>  <SCORE.INTRA.POLAR.0>
0

>  <SCORE.INTRA.REPUL>
0

>  <SCORE.INTRA.REPUL.0>
0

>  <SCORE.INTRA.SOLV>
-0.594158

>  <SCORE.INTRA.SOLV.lig_0>
-77.2465

>  <SCORE.INTRA.VDW>
0.883596

>  <SCORE.INTRA.VDW.0>
-4.16072

>  <SCORE.INTRA.norm>
-0.0443915

>  <SCORE.RESTR>
0.00259211

>  <SCORE.RESTR.CAVITY>
0.00259211

>  <SCORE.RESTR.norm>
8.36164e-05

>  <SCORE.SYSTEM>
0

>  <SCORE.SYSTEM.CONST>
0

>  <SCORE.SYSTEM.DIHEDRAL>
0

>  <SCORE.SYSTEM.SOLV>
0

>  <SCORE.SYSTEM.norm>
0

>  <SCORE.heavy>
31

>  <SCORE.norm>
-0.541138

>  <RMSD>
0.565

$$$$
ligand
 OpenBabel11021811493D
libRbt.so/2013.1/901 2013/11/27
 31 33  0  0  0  0  0  0  0  0999 V2000
   -6.9404  -10.1731  -17.4397 C   0  0  2  0  0  0  0  0  0  0  0  0
   -5.5729  -10.5586  -17.6339 O   0  0  0  0  0  0  0  0  0  0  0  0
   -1.7982  -10.2734  -15.6353 C   0  0  2  0  0  0  0  0  0  0  0  0
   -0.6977   -9.7296  -14.8998 N   0  0  0  0  0  0  0  0  0  0  0  0
   -2.4680  -10.3910  -12.3100 C   0  0  2  0  0  0  0  0  0  0  0  0
   -7.8108  -11.2356  -18.1984 C   0  0  2  0  0  0  0  0  0  0  0  0
   -7.5212  -12.5688  -17.6821 N   0  0  0  0  0  0  0  0  0  0  0  0
   -1.9848   -9.4422  -16.9628 C   0  0  0  0  0  0  0  0  0  0  0  0
   -1.7620  -11.5647  -11.5636 C   0  0  2  0  0  0  0  0  0  0  0  0
   -0.6677  -12.0159  -12.3432 O   0  0  0  0  0  0  0  0  0  0  0  0
   -7.5179  -11.1609  -19.7374 C   0  0  0  0  0  0  0  0  0  0  0  0
   -3.2026  -10.0522  -17.7828 C   0  0  2  0  0  0  0  0  0  0  0  0
   -3.3886   -9.2778  -19.0321 N   0  0  0  0  0  0  0  0  0  0  0  0
   -2.8436  -12.7187  -11.3776 C   0  0  1  0  0  0  0  0  0  0  0  0
   -2.2357  -13.9094  -10.6921 N   0  0  0  0  0  0  0  0  0  0  0  0
   -7.5475   -9.6872  -20.2360 C   0  0  0  0  0  0  0  0  0  0  0  0
   -4.5242   -9.9942  -16.8946 C   0  0  2  0  0  0  0  0  0  0  0  0
   -4.0776  -12.1547  -10.4765 C   0  0  1  0  0  0  0  0  0  0  0  0
   -3.6530  -11.7412   -9.1922 O   0  0  0  0  0  0  0  0  0  0  0  0
   -7.4040   -8.6648  -19.3793 C   0  0  2  0  0  0  0  0  0  0  0  0
   -7.2194   -8.8401  -17.9637 O   0  0  0  0  0  0  0  0  0  0  0  0
   -4.2918  -10.8141  -15.5569 C   0  0  2  0  0  0  0  0  0  0  0  0
   -5.4658  -10.7493  -14.7376 O   0  0  0  0  0  0  0  0  0  0  0  0
   -4.7138  -10.9144  -11.1901 C   0  0  0  0  0  0  0  0  0  0  0  0
   -3.6359   -9.8894  -11.5002 O   0  0  0  0  0  0  0  0  0  0  0  0
   -7.4334   -7.1936  -19.8550 C   0  0  0  0  0  0  0  0  0  0  0  0
   -6.0705   -6.7094  -20.0235 N   0  0  0  0  0  0  0  0  0  0  0  0
   -3.0843  -10.2004  -14.7600 C   0  0  1  0  0  0  0  0  0  0  0  0
   -2.9064  -10.9558  -13.5858 O   0  0  0  0  0  0  0  0  0  0  0  0
   -5.2168  -13.1516  -10.2063 C   0  0  0  0  0  0  0  0  0  0  0  0
   -1.5643  -14.8936  -11.5621 C   0  0  0  0  0  0  0  0  0  0  0  0
  1  2  1  6  0  0  0
  1  6  1  0  0  0  0
  1 21  1  0  0  0  0
  3  4  1  1  0  0  0
  3  8  1  0  0  0  0
  3 28  1  0  0  0  0
  5  9  1  0  0  0  0
  5 25  1  0  0  0  0
  5 29  1  6  0  0  0
  6  7  1  1  0  0  0
  6 11  1  0  0  0  0
  8 12  1  0  0  0  0
  9 10  1  6  0  0  0
  9 14  1  0  0  0  0
 11 16  1  0  0  0  0
 12 13  1  6  0  0  0
 12 17  1  0  0  0  0
 14 15  1  1  0  0  0
 14 18  1  0  0  0  0
 15 31  1  0  0  0  0
 16 20  1  0  0  0  0
 17  2  1  6  0  0  0
 17 22  1  0  0  0  0
 18 19  1  1  0  0  0
 18 24  1  0  0  0  0
 18 30  1  0  0  0  0
 20 21  1  0  0  0  0
 20 26  1  1  0  0  0
 22 23  1  1  0  0  0
 22 28  1  0  0  0  0
 24 25  1  0  0  0  0
 26 27  1  0  0  0  0
 28 29  1  1  0  0  0
M  END
>  <CHROM.1>
-167.56681129,-153.06723002,-86.50234639,-152.05548396,-97.43405041,95.24538177
-4.35677170,-10.70934234,-15.12516989,2.01574896,-0.25112601,-1.09567135

>  <Name>
ligand

>  <RI>
0

>  <Rbt.Current_Directory>
/home/itssahil/PROJECTS/Mol_Feturizer/New_Systems/rnas/4F8U

>  <Rbt.Executable>
rbdock ($Id: //depot/dev/client3/rdock/2013.1/src/exe/rbdock.cxx#4 $)

>  <Rbt.Library>
libRbt.so (2013.1, Build901 2013/11/27)

>  <Rbt.Parameter_File>
/export/apps/rDock/src/rDock_2013.1_src/data/scripts/dock_solv.prm

>  <Rbt.Receptor>
prm/pocket_docking_4.prm

>  <SCORE>
-16.9318

>  <SCORE.INTER>
-14.8999

>  <SCORE.INTER.CONST>
1

>  <SCORE.INTER.POLAR>
0

>  <SCORE.INTER.ROT>
6

>  <SCORE.INTER.SOLV>
22.6975

>  <SCORE.INTER.VDW>
-25.0991

>  <SCORE.INTER.norm>
-0.480641

>  <SCORE.INTRA>
-2.03187

>  <SCORE.INTRA.DIHEDRAL>
-4.45502

>  <SCORE.INTRA.DIHEDRAL.0>
18.77

>  <SCORE.INTRA.POLAR>
0

>  <SCORE.INTRA.POLAR.0>
0

>  <SCORE.INTRA.REPUL>
0

>  <SCORE.INTRA.REPUL.0>
0

>  <SCORE.INTRA.SOLV>
0.0352346

>  <SCORE.INTRA.SOLV.lig_0>
-77.2465

>  <SCORE.INTRA.VDW>
0.178019

>  <SCORE.INTRA.VDW.0>
-4.16072

>  <SCORE.INTRA.norm>
-0.0655443

>  <SCORE.RESTR>
0

>  <SCORE.RESTR.CAVITY>
0

>  <SCORE.RESTR.norm>
0

>  <SCORE.SYSTEM>
0

>  <SCORE.SYSTEM.CONST>
0

>  <SCORE.SYSTEM.DIHEDRAL>
0

>  <SCORE.SYSTEM.SOLV>
0

>  <SCORE.SYSTEM.norm>
0

>  <SCORE.heavy>
31

>  <SCORE.norm>
-0.546186

>  <RMSD>
0.566

$$$$
ligand
 OpenBabel11021811493D
libRbt.so/2013.1/901 2013/11/27
 31 33  0  0  0  0  0  0  0  0999 V2000
   -6.9735   -9.9401  -17.5975 C   0  0  2  0  0  0  0  0  0  0  0  0
   -5.6464  -10.4833  -17.6195 O   0  0  0  0  0  0  0  0  0  0  0  0
   -1.9939  -10.3766  -15.3899 C   0  0  2  0  0  0  0  0  0  0  0  0
   -0.9092   -9.8816  -14.5985 N   0  0  0  0  0  0  0  0  0  0  0  0
   -2.9240  -10.3490  -12.1040 C   0  0  2  0  0  0  0  0  0  0  0  0
   -7.9232  -11.0728  -18.1238 C   0  0  2  0  0  0  0  0  0  0  0  0
   -7.7849  -12.2597  -17.2871 N   0  0  0  0  0  0  0  0  0  0  0  0
   -2.0438   -9.5728  -16.7462 C   0  0  0  0  0  0  0  0  0  0  0  0
   -2.0900  -11.4449  -11.3715 C   0  0  2  0  0  0  0  0  0  0  0  0
   -0.9363  -11.7383  -12.1407 O   0  0  0  0  0  0  0  0  0  0  0  0
   -7.5780  -11.4037  -19.6175 C   0  0  0  0  0  0  0  0  0  0  0  0
   -3.2441  -10.1289  -17.6279 C   0  0  2  0  0  0  0  0  0  0  0  0
   -3.3020   -9.3796  -18.9047 N   0  0  0  0  0  0  0  0  0  0  0  0
   -3.0234  -12.7276  -11.2318 C   0  0  1  0  0  0  0  0  0  0  0  0
   -2.2837  -13.8510  -10.5624 N   0  0  0  0  0  0  0  0  0  0  0  0
   -7.4441  -10.1003  -20.4570 C   0  0  0  0  0  0  0  0  0  0  0  0
   -4.6124   -9.9645  -16.8280 C   0  0  2  0  0  0  0  0  0  0  0  0
   -4.3316  -12.3426  -10.3411 C   0  0  1  0  0  0  0  0  0  0  0  0
   -3.9814  -11.9119   -9.0401 O   0  0  0  0  0  0  0  0  0  0  0  0
   -7.2243   -8.9167  -19.8650 C   0  0  2  0  0  0  0  0  0  0  0  0
   -7.1009   -8.7563  -18.4410 O   0  0  0  0  0  0  0  0  0  0  0  0
   -4.5167  -10.7596  -15.4590 C   0  0  2  0  0  0  0  0  0  0  0  0
   -5.7333  -10.5994  -14.7185 O   0  0  0  0  0  0  0  0  0  0  0  0
   -5.1050  -11.1728  -11.0381 C   0  0  0  0  0  0  0  0  0  0  0  0
   -4.1575  -10.0154  -11.3048 O   0  0  0  0  0  0  0  0  0  0  0  0
   -7.0910   -7.6102  -20.6816 C   0  0  0  0  0  0  0  0  0  0  0  0
   -7.5712   -6.4885  -19.8868 N   0  0  0  0  0  0  0  0  0  0  0  0
   -3.3250  -10.1998  -14.6011 C   0  0  1  0  0  0  0  0  0  0  0  0
   -3.2693  -10.9317  -13.4002 O   0  0  0  0  0  0  0  0  0  0  0  0
   -5.3428  -13.4787  -10.1147 C   0  0  0  0  0  0  0  0  0  0  0  0
   -1.5010  -14.7371  -11.4447 C   0  0  0  0  0  0  0  0  0  0  0  0
  1  2  1  6  0  0  0
  1  6  1  0  0  0  0
  1 21  1  0  0  0  0
  3  4  1  1  0  0  0
  3  8  1  0  0  0  0
  3 28  1  0  0  0  0
  5  9  1  0  0  0  0
  5 25  1  0  0  0  0
  5 29  1  6  0  0  0
  6  7  1  1  0  0  0
  6 11  1  0  0  0  0
  8 12  1  0  0  0  0
  9 10  1  6  0  0  0
  9 14  1  0  0  0  0
 11 16  1  0  0  0  0
 12 13  1  6  0  0  0
 12 17  1  0  0  0  0
 14 15  1  1  0  0  0
 14 18  1  0  0  0  0
 15 31  1  0  0  0  0
 16 20  1  0  0  0  0
 17  2  1  6  0  0  0
 17 22  1  0  0  0  0
 18 19  1  1  0  0  0
 18 24  1  0  0  0  0
 18 30  1  0  0  0  0
 20 21  1  0  0  0  0
 20 26  1  1  0  0  0
 22 23  1  1  0  0  0
 22 28  1  0  0  0  0
 24 25  1  0  0  0  0
 26 27  1  0  0  0  0
 28 29  1  1  0  0  0
M  END
>  <CHROM.1>
-158.09337809,-143.15758638,-87.52742062,-147.14514882,149.50878077,97.57848956
-4.54353368,-10.73901700,-15.06582123,1.98816098,-0.20497470,-1.13532283

>  <Name>
ligand

>  <RI>
0

>  <Rbt.Current_Directory>
/home/itssahil/PROJECTS/Mol_Feturizer/New_Systems/rnas/4F8U

>  <Rbt.Executable>
rbdock ($Id: //depot/dev/client3/rdock/2013.1/src/exe/rbdock.cxx#4 $)

>  <Rbt.Library>
libRbt.so (2013.1, Build901 2013/11/27)

>  <Rbt.Parameter_File>
/export/apps/rDock/src/rDock_2013.1_src/data/scripts/dock_solv.prm

>  <Rbt.Receptor>
prm/pocket_docking_2.prm

>  <SCORE>
-13.3419

>  <SCORE.INTER>
-14.0535

>  <SCORE.INTER.CONST>
1

>  <SCORE.INTER.POLAR>
0

>  <SCORE.INTER.ROT>
6

>  <SCORE.INTER.SOLV>
24.9694

>  <SCORE.INTER.VDW>
-25.2921

>  <SCORE.INTER.norm>
-0.453337

>  <SCORE.INTRA>
0.71159

>  <SCORE.INTRA.DIHEDRAL>
0.474112

>  <SCORE.INTRA.DIHEDRAL.0>
18.77

>  <SCORE.INTRA.POLAR>
0

>  <SCORE.INTRA.POLAR.0>
0

>  <SCORE.INTRA.REPUL>
0

>  <SCORE.INTRA.REPUL.0>
0

>  <SCORE.INTRA.SOLV>
0.317925

>  <SCORE.INTRA.SOLV.lig_0>
-77.2465

>  <SCORE.INTRA.VDW>
0.315572

>  <SCORE.INTRA.VDW.0>
-4.16072

>  <SCORE.INTRA.norm>
0.0229545

>  <SCORE.RESTR>
0

>  <SCORE.RESTR.CAVITY>
0

>  <SCORE.RESTR.norm>
0

>  <SCORE.SYSTEM>
0

>  <SCORE.SYSTEM.CONST>
0

>  <SCORE.SYSTEM.DIHEDRAL>
0

>  <SCORE.SYSTEM.SOLV>
0

>  <SCORE.SYSTEM.norm>
0

>  <SCORE.heavy>
31

>  <SCORE.norm>
-0.430383

>  <RMSD>
0.569

$$$$
ligand
 OpenBabel11021811493D
libRbt.so/2013.1/901 2013/11/27
 31 33  0  0  0  0  0  0  0  0999 V2000
   -6.8969  -10.1750  -17.4523 C   0  0  2  0  0  0  0  0  0  0  0  0
   -5.5355  -10.5848  -17.6400 O   0  0  0  0  0  0  0  0  0  0  0  0
   -1.7522  -10.3271  -15.6540 C   0  0  2  0  0  0  0  0  0  0  0  0
   -0.6435   -9.7901  -14.9258 N   0  0  0  0  0  0  0  0  0  0  0  0
   -2.4316  -10.4077  -12.3215 C   0  0  2  0  0  0  0  0  0  0  0  0
   -7.7835  -11.2339  -18.1970 C   0  0  2  0  0  0  0  0  0  0  0  0
   -7.5154  -12.5643  -17.6621 N   0  0  0  0  0  0  0  0  0  0  0  0
   -1.9331   -9.5042  -16.9875 C   0  0  0  0  0  0  0  0  0  0  0  0
   -1.7115  -11.5709  -11.5721 C   0  0  2  0  0  0  0  0  0  0  0  0
   -0.6113  -12.0102  -12.3502 O   0  0  0  0  0  0  0  0  0  0  0  0
   -7.4885  -11.1850  -19.7366 C   0  0  0  0  0  0  0  0  0  0  0  0
   -3.1600  -10.1067  -17.7993 C   0  0  2  0  0  0  0  0  0  0  0  0
   -3.3406   -9.3400  -19.0542 N   0  0  0  0  0  0  0  0  0  0  0  0
   -2.7788  -12.7378  -11.3842 C   0  0  1  0  0  0  0  0  0  0  0  0
   -2.1565  -13.9194  -10.6957 N   0  0  0  0  0  0  0  0  0  0  0  0
   -7.4945   -9.7180  -20.2554 C   0  0  0  0  0  0  0  0  0  0  0  0
   -4.4784  -10.0266  -16.9080 C   0  0  2  0  0  0  0  0  0  0  0  0
   -4.0202  -12.1872  -10.4849 C   0  0  1  0  0  0  0  0  0  0  0  0
   -3.6014  -11.7657   -9.2012 O   0  0  0  0  0  0  0  0  0  0  0  0
   -7.3353   -8.6863  -19.4128 C   0  0  2  0  0  0  0  0  0  0  0  0
   -7.1544   -8.8451  -17.9947 O   0  0  0  0  0  0  0  0  0  0  0  0
   -4.2515  -10.8386  -15.5646 C   0  0  2  0  0  0  0  0  0  0  0  0
   -5.4225  -10.7539  -14.7426 O   0  0  0  0  0  0  0  0  0  0  0  0
   -4.6714  -10.9565  -11.2015 C   0  0  0  0  0  0  0  0  0  0  0  0
   -3.6061   -9.9188  -11.5133 O   0  0  0  0  0  0  0  0  0  0  0  0
   -7.3410   -7.2215  -19.9087 C   0  0  0  0  0  0  0  0  0  0  0  0
   -5.9744   -6.7220  -19.9664 N   0  0  0  0  0  0  0  0  0  0  0  0
   -3.0349  -10.2326  -14.7758 C   0  0  1  0  0  0  0  0  0  0  0  0
   -2.8624  -10.9807  -13.5962 O   0  0  0  0  0  0  0  0  0  0  0  0
   -5.1470  -13.1976  -10.2130 C   0  0  0  0  0  0  0  0  0  0  0  0
   -1.5245  -14.9273  -11.5681 C   0  0  0  0  0  0  0  0  0  0  0  0
  1  2  1  6  0  0  0
  1  6  1  0  0  0  0
  1 21  1  0  0  0  0
  3  4  1  1  0  0  0
  3  8  1  0  0  0  0
  3 28  1  0  0  0  0
  5  9  1  0  0  0  0
  5 25  1  0  0  0  0
  5 29  1  6  0  0  0
  6  7  1  1  0  0  0
  6 11  1  0  0  0  0
  8 12  1  0  0  0  0
  9 10  1  6  0  0  0
  9 14  1  0  0  0  0
 11 16  1  0  0  0  0
 12 13  1  6  0  0  0
 12 17  1  0  0  0  0
 14 15  1  1  0  0  0
 14 18  1  0  0  0  0
 15 31  1  0  0  0  0
 16 20  1  0  0  0  0
 17  2  1  6  0  0  0
 17 22  1  0  0  0  0
 18 19  1  1  0  0  0
 18 24  1  0  0  0  0
 18 30  1  0  0  0  0
 20 21  1  0  0  0  0
 20 26  1  1  0  0  0
 22 23  1  1  0  0  0
 22 28  1  0  0  0  0
 24 25  1  0  0  0  0
 26 27  1  0  0  0  0
 28 29  1  1  0  0  0
M  END
>  <CHROM.1>
-167.59058162,-152.34316833,-89.11975061,-151.57557643,-102.56514316,96.12379921
-4.30643520,-10.73521916,-15.13576047,2.01474376,-0.24564315,-1.09839278

>  <Name>
ligand

>  <RI>
0

>  <Rbt.Current_Directory>
/home/itssahil/PROJECTS/Mol_Feturizer/New_Systems/rnas/4F8U

>  <Rbt.Executable>
rbdock ($Id: //depot/dev/client3/rdock/2013.1/src/exe/rbdock.cxx#4 $)

>  <Rbt.Library>
libRbt.so (2013.1, Build901 2013/11/27)

>  <Rbt.Parameter_File>
/export/apps/rDock/src/rDock_2013.1_src/data/scripts/dock_solv.prm

>  <Rbt.Receptor>
prm/pocket_docking_4.prm

>  <SCORE>
-16.979

>  <SCORE.INTER>
-15.0288

>  <SCORE.INTER.CONST>
1

>  <SCORE.INTER.POLAR>
0

>  <SCORE.INTER.ROT>
6

>  <SCORE.INTER.SOLV>
22.6727

>  <SCORE.INTER.VDW>
-25.1768

>  <SCORE.INTER.norm>
-0.484799

>  <SCORE.INTRA>
-1.95022

>  <SCORE.INTRA.DIHEDRAL>
-4.21525

>  <SCORE.INTRA.DIHEDRAL.0>
18.77

>  <SCORE.INTRA.POLAR>
0

>  <SCORE.INTRA.POLAR.0>
0

>  <SCORE.INTRA.REPUL>
0

>  <SCORE.INTRA.REPUL.0>
0

>  <SCORE.INTRA.SOLV>
0.135938

>  <SCORE.INTRA.SOLV.lig_0>
-77.2465

>  <SCORE.INTRA.VDW>
0.0894346

>  <SCORE.INTRA.VDW.0>
-4.16072

>  <SCORE.INTRA.norm>
-0.0629104

>  <SCORE.RESTR>
0

>  <SCORE.RESTR.CAVITY>
0

>  <SCORE.RESTR.norm>
0

>  <SCORE.SYSTEM>
0

>  <SCORE.SYSTEM.CONST>
0

>  <SCORE.SYSTEM.DIHEDRAL>
0

>  <SCORE.SYSTEM.SOLV>
0

>  <SCORE.SYSTEM.norm>
0

>  <SCORE.heavy>
31

>  <SCORE.norm>
-0.547709

>  <RMSD>
0.569

$$$$
ligand
 OpenBabel11021811493D
libRbt.so/2013.1/901 2013/11/27
 31 33  0  0  0  0  0  0  0  0999 V2000
   -6.9443  -10.1733  -17.4708 C   0  0  2  0  0  0  0  0  0  0  0  0
   -5.5737  -10.5492  -17.6628 O   0  0  0  0  0  0  0  0  0  0  0  0
   -1.8376  -10.3010  -15.5884 C   0  0  2  0  0  0  0  0  0  0  0  0
   -0.7447   -9.7667  -14.8346 N   0  0  0  0  0  0  0  0  0  0  0  0
   -2.5531  -10.3848  -12.2831 C   0  0  2  0  0  0  0  0  0  0  0  0
   -7.8024  -11.1953  -18.2961 C   0  0  2  0  0  0  0  0  0  0  0  0
   -7.5207  -12.5531  -17.8437 N   0  0  0  0  0  0  0  0  0  0  0  0
   -1.9845   -9.4789  -16.9264 C   0  0  0  0  0  0  0  0  0  0  0  0
   -1.8214  -11.5519  -11.5511 C   0  0  2  0  0  0  0  0  0  0  0  0
   -0.7297  -11.9829  -12.3457 O   0  0  0  0  0  0  0  0  0  0  0  0
   -7.4852  -11.0426  -19.8245 C   0  0  0  0  0  0  0  0  0  0  0  0
   -3.1937  -10.0784  -17.7664 C   0  0  2  0  0  0  0  0  0  0  0  0
   -3.3424   -9.3124  -19.0259 N   0  0  0  0  0  0  0  0  0  0  0  0
   -2.8838  -12.7226  -11.3589 C   0  0  1  0  0  0  0  0  0  0  0  0
   -2.2506  -13.9078  -10.6869 N   0  0  0  0  0  0  0  0  0  0  0  0
   -7.5073   -9.5454  -20.2480 C   0  0  0  0  0  0  0  0  0  0  0  0
   -4.5325   -9.9936  -16.9066 C   0  0  2  0  0  0  0  0  0  0  0  0
   -4.1154  -12.1815  -10.4407 C   0  0  1  0  0  0  0  0  0  0  0  0
   -3.6820  -11.7685   -9.1591 O   0  0  0  0  0  0  0  0  0  0  0  0
   -7.3775   -8.5680  -19.3383 C   0  0  2  0  0  0  0  0  0  0  0  0
   -7.2152   -8.8152  -17.9307 O   0  0  0  0  0  0  0  0  0  0  0  0
   -4.3399  -10.8050  -15.5575 C   0  0  2  0  0  0  0  0  0  0  0  0
   -5.5296  -10.7160  -14.7634 O   0  0  0  0  0  0  0  0  0  0  0  0
   -4.7779  -10.9470  -11.1403 C   0  0  0  0  0  0  0  0  0  0  0  0
   -3.7187   -9.9046  -11.4572 O   0  0  0  0  0  0  0  0  0  0  0  0
   -7.3997   -7.0745  -19.7390 C   0  0  0  0  0  0  0  0  0  0  0  0
   -6.6061   -6.8825  -20.9448 N   0  0  0  0  0  0  0  0  0  0  0  0
   -3.1404  -10.2018  -14.7407 C   0  0  1  0  0  0  0  0  0  0  0  0
   -2.9979  -10.9494  -13.5567 O   0  0  0  0  0  0  0  0  0  0  0  0
   -5.2366  -13.1964  -10.1627 C   0  0  0  0  0  0  0  0  0  0  0  0
   -1.5060  -14.8350  -11.5599 C   0  0  0  0  0  0  0  0  0  0  0  0
  1  2  1  6  0  0  0
  1  6  1  0  0  0  0
  1 21  1  0  0  0  0
  3  4  1  1  0  0  0
  3  8  1  0  0  0  0
  3 28  1  0  0  0  0
  5  9  1  0  0  0  0
  5 25  1  0  0  0  0
  5 29  1  6  0  0  0
  6  7  1  1  0  0  0
  6 11  1  0  0  0  0
  8 12  1  0  0  0  0
  9 10  1  6  0  0  0
  9 14  1  0  0  0  0
 11 16  1  0  0  0  0
 12 13  1  6  0  0  0
 12 17  1  0  0  0  0
 14 15  1  1  0  0  0
 14 18  1  0  0  0  0
 15 31  1  0  0  0  0
 16 20  1  0  0  0  0
 17  2  1  6  0  0  0
 17 22  1  0  0  0  0
 18 19  1  1  0  0  0
 18 24  1  0  0  0  0
 18 30  1  0  0  0  0
 20 21  1  0  0  0  0
 20 26  1  1  0  0  0
 22 23  1  1  0  0  0
 22 28  1  0  0  0  0
 24 25  1  0  0  0  0
 26 27  1  0  0  0  0
 28 29  1  1  0  0  0
M  END
>  <CHROM.1>
-169.54487105,-149.96743452,-82.96294788,-154.09238680,-42.72880134,94.01729702
-4.39349529,-10.70142353,-15.14736450,2.00451369,-0.21271697,-1.11662076

>  <Name>
ligand

>  <RI>
0

>  <Rbt.Current_Directory>
/home/itssahil/PROJECTS/Mol_Feturizer/New_Systems/rnas/4F8U

>  <Rbt.Executable>
rbdock ($Id: //depot/dev/client3/rdock/2013.1/src/exe/rbdock.cxx#4 $)

>  <Rbt.Library>
libRbt.so (2013.1, Build901 2013/11/27)

>  <Rbt.Parameter_File>
/export/apps/rDock/src/rDock_2013.1_src/data/scripts/dock_solv.prm

>  <Rbt.Receptor>
prm/pocket_docking_4.prm

>  <SCORE>
-17.0832

>  <SCORE.INTER>
-15.623

>  <SCORE.INTER.CONST>
1

>  <SCORE.INTER.POLAR>
0

>  <SCORE.INTER.ROT>
6

>  <SCORE.INTER.SOLV>
20.7231

>  <SCORE.INTER.VDW>
-24.923

>  <SCORE.INTER.norm>
-0.503966

>  <SCORE.INTRA>
-1.46019

>  <SCORE.INTRA.DIHEDRAL>
-3.83308

>  <SCORE.INTRA.DIHEDRAL.0>
18.77

>  <SCORE.INTRA.POLAR>
0

>  <SCORE.INTRA.POLAR.0>
0

>  <SCORE.INTRA.REPUL>
0

>  <SCORE.INTRA.REPUL.0>
0

>  <SCORE.INTRA.SOLV>
-0.619934

>  <SCORE.INTRA.SOLV.lig_0>
-77.2465

>  <SCORE.INTRA.VDW>
0.766315

>  <SCORE.INTRA.VDW.0>
-4.16072

>  <SCORE.INTRA.norm>
-0.047103

>  <SCORE.RESTR>
0

>  <SCORE.RESTR.CAVITY>
0

>  <SCORE.RESTR.norm>
0

>  <SCORE.SYSTEM>
0

>  <SCORE.SYSTEM.CONST>
0

>  <SCORE.SYSTEM.DIHEDRAL>
0

>  <SCORE.SYSTEM.SOLV>
0

>  <SCORE.SYSTEM.norm>
0

>  <SCORE.heavy>
31

>  <SCORE.norm>
-0.551069

>  <RMSD>
0.572

$$$$
ligand
 OpenBabel11021811493D
libRbt.so/2013.1/901 2013/11/27
 31 33  0  0  0  0  0  0  0  0999 V2000
   -6.9421  -10.1626  -17.4614 C   0  0  2  0  0  0  0  0  0  0  0  0
   -5.5715  -10.5314  -17.6659 O   0  0  0  0  0  0  0  0  0  0  0  0
   -1.8312  -10.2991  -15.5971 C   0  0  2  0  0  0  0  0  0  0  0  0
   -0.7358   -9.7700  -14.8433 N   0  0  0  0  0  0  0  0  0  0  0  0
   -2.5337  -10.3951  -12.2928 C   0  0  2  0  0  0  0  0  0  0  0  0
   -7.8018  -11.1815  -18.2889 C   0  0  2  0  0  0  0  0  0  0  0  0
   -7.5114  -12.5418  -17.8493 N   0  0  0  0  0  0  0  0  0  0  0  0
   -1.9786   -9.4717  -16.9319 C   0  0  0  0  0  0  0  0  0  0  0  0
   -1.8085  -11.5704  -11.5675 C   0  0  2  0  0  0  0  0  0  0  0  0
   -0.7243  -12.0085  -12.3684 O   0  0  0  0  0  0  0  0  0  0  0  0
   -7.4960  -11.0154  -19.8181 C   0  0  0  0  0  0  0  0  0  0  0  0
   -3.1906  -10.0654  -17.7720 C   0  0  2  0  0  0  0  0  0  0  0  0
   -3.3398   -9.2944  -19.0283 N   0  0  0  0  0  0  0  0  0  0  0  0
   -2.8799  -12.7326  -11.3734 C   0  0  1  0  0  0  0  0  0  0  0  0
   -2.2537  -13.9250  -10.7076 N   0  0  0  0  0  0  0  0  0  0  0  0
   -7.5271   -9.5150  -20.2295 C   0  0  0  0  0  0  0  0  0  0  0  0
   -4.5277   -9.9808  -16.9094 C   0  0  2  0  0  0  0  0  0  0  0  0
   -4.1026  -12.1836  -10.4479 C   0  0  1  0  0  0  0  0  0  0  0  0
   -3.6596  -11.7778   -9.1673 O   0  0  0  0  0  0  0  0  0  0  0  0
   -7.3950   -8.5443  -19.3129 C   0  0  2  0  0  0  0  0  0  0  0  0
   -7.2218   -8.8020  -17.9085 O   0  0  0  0  0  0  0  0  0  0  0  0
   -4.3345  -10.7977  -15.5637 C   0  0  2  0  0  0  0  0  0  0  0  0
   -5.5226  -10.7090  -14.7672 O   0  0  0  0  0  0  0  0  0  0  0  0
   -4.7578  -10.9416  -11.1410 C   0  0  0  0  0  0  0  0  0  0  0  0
   -3.6914   -9.9074  -11.4601 O   0  0  0  0  0  0  0  0  0  0  0  0
   -7.4260   -7.0478  -19.7015 C   0  0  0  0  0  0  0  0  0  0  0  0
   -6.5761   -6.8291  -20.8636 N   0  0  0  0  0  0  0  0  0  0  0  0
   -3.1322  -10.2002  -14.7468 C   0  0  1  0  0  0  0  0  0  0  0  0
   -2.9893  -10.9524  -13.5659 O   0  0  0  0  0  0  0  0  0  0  0  0
   -5.2310  -13.1897  -10.1674 C   0  0  0  0  0  0  0  0  0  0  0  0
   -1.5378  -14.8663  -11.5894 C   0  0  0  0  0  0  0  0  0  0  0  0
  1  2  1  6  0  0  0
  1  6  1  0  0  0  0
  1 21  1  0  0  0  0
  3  4  1  1  0  0  0
  3  8  1  0  0  0  0
  3 28  1  0  0  0  0
  5  9  1  0  0  0  0
  5 25  1  0  0  0  0
  5 29  1  6  0  0  0
  6  7  1  1  0  0  0
  6 11  1  0  0  0  0
  8 12  1  0  0  0  0
  9 10  1  6  0  0  0
  9 14  1  0  0  0  0
 11 16  1  0  0  0  0
 12 13  1  6  0  0  0
 12 17  1  0  0  0  0
 14 15  1  1  0  0  0
 14 18  1  0  0  0  0
 15 31  1  0  0  0  0
 16 20  1  0  0  0  0
 17  2  1  6  0  0  0
 17 22  1  0  0  0  0
 18 19  1  1  0  0  0
 18 24  1  0  0  0  0
 18 30  1  0  0  0  0
 20 21  1  0  0  0  0
 20 26  1  1  0  0  0
 22 23  1  1  0  0  0
 22 28  1  0  0  0  0
 24 25  1  0  0  0  0
 26 27  1  0  0  0  0
 28 29  1  1  0  0  0
M  END
>  <CHROM.1>
-169.32470023,-150.02921620,-83.82267665,-154.70445919,-46.16090597,93.65252004
-4.38961524,-10.69595078,-15.14737903,2.00632774,-0.21077791,-1.11189929

>  <Name>
ligand

>  <RI>
0

>  <Rbt.Current_Directory>
/home/itssahil/PROJECTS/Mol_Feturizer/New_Systems/rnas/4F8U

>  <Rbt.Executable>
rbdock ($Id: //depot/dev/client3/rdock/2013.1/src/exe/rbdock.cxx#4 $)

>  <Rbt.Library>
libRbt.so (2013.1, Build901 2013/11/27)

>  <Rbt.Parameter_File>
/export/apps/rDock/src/rDock_2013.1_src/data/scripts/dock_solv.prm

>  <Rbt.Receptor>
prm/pocket_docking_6.prm

>  <SCORE>
-17.0991

>  <SCORE.INTER>
-15.5365

>  <SCORE.INTER.CONST>
1

>  <SCORE.INTER.POLAR>
0

>  <SCORE.INTER.ROT>
6

>  <SCORE.INTER.SOLV>
20.8844

>  <SCORE.INTER.VDW>
-24.9192

>  <SCORE.INTER.norm>
-0.501178

>  <SCORE.INTRA>
-1.56324

>  <SCORE.INTRA.DIHEDRAL>
-3.85207

>  <SCORE.INTRA.DIHEDRAL.0>
18.77

>  <SCORE.INTRA.POLAR>
0

>  <SCORE.INTRA.POLAR.0>
0

>  <SCORE.INTRA.REPUL>
0

>  <SCORE.INTRA.REPUL.0>
0

>  <SCORE.INTRA.SOLV>
-0.678144

>  <SCORE.INTRA.SOLV.lig_0>
-77.2465

>  <SCORE.INTRA.VDW>
0.701862

>  <SCORE.INTRA.VDW.0>
-4.16072

>  <SCORE.INTRA.norm>
-0.0504272

>  <SCORE.RESTR>
0.000656649

>  <SCORE.RESTR.CAVITY>
0.000656649

>  <SCORE.RESTR.norm>
2.11822e-05

>  <SCORE.SYSTEM>
0

>  <SCORE.SYSTEM.CONST>
0

>  <SCORE.SYSTEM.DIHEDRAL>
0

>  <SCORE.SYSTEM.SOLV>
0

>  <SCORE.SYSTEM.norm>
0

>  <SCORE.heavy>
31

>  <SCORE.norm>
-0.551584

>  <RMSD>
0.574

$$$$
ligand
 OpenBabel11021811493D
libRbt.so/2013.1/901 2013/11/27
 31 33  0  0  0  0  0  0  0  0999 V2000
   -6.9079   -9.9631  -17.7105 C   0  0  2  0  0  0  0  0  0  0  0  0
   -5.5895  -10.5261  -17.6743 O   0  0  0  0  0  0  0  0  0  0  0  0
   -2.0413  -10.4616  -15.2806 C   0  0  2  0  0  0  0  0  0  0  0  0
   -0.9826   -9.9770  -14.4486 N   0  0  0  0  0  0  0  0  0  0  0  0
   -3.0262  -10.3776  -12.0557 C   0  0  2  0  0  0  0  0  0  0  0  0
   -7.8409  -11.0626  -18.3289 C   0  0  2  0  0  0  0  0  0  0  0  0
   -7.7680  -12.2786  -17.5264 N   0  0  0  0  0  0  0  0  0  0  0  0
   -2.0101   -9.6820  -16.6515 C   0  0  0  0  0  0  0  0  0  0  0  0
   -2.1603  -11.4763  -11.3655 C   0  0  2  0  0  0  0  0  0  0  0  0
   -1.0361  -11.7583  -12.1813 O   0  0  0  0  0  0  0  0  0  0  0  0
   -7.4140  -11.3493  -19.8106 C   0  0  0  0  0  0  0  0  0  0  0  0
   -3.1816  -10.2268  -17.5778 C   0  0  2  0  0  0  0  0  0  0  0  0
   -3.1632   -9.5000  -18.8688 N   0  0  0  0  0  0  0  0  0  0  0  0
   -3.0827  -12.7641  -11.2009 C   0  0  1  0  0  0  0  0  0  0  0  0
   -2.3133  -13.8900  -10.5704 N   0  0  0  0  0  0  0  0  0  0  0  0
   -7.2134  -10.0211  -20.5962 C   0  0  0  0  0  0  0  0  0  0  0  0
   -4.5808  -10.0165  -16.8451 C   0  0  2  0  0  0  0  0  0  0  0  0
   -4.3569  -12.3920  -10.2570 C   0  0  1  0  0  0  0  0  0  0  0  0
   -3.9582  -11.9710   -8.9668 O   0  0  0  0  0  0  0  0  0  0  0  0
   -7.0121   -8.8613  -19.9526 C   0  0  2  0  0  0  0  0  0  0  0  0
   -6.9697   -8.7501  -18.5192 O   0  0  0  0  0  0  0  0  0  0  0  0
   -4.5667  -10.7882  -15.4595 C   0  0  2  0  0  0  0  0  0  0  0  0
   -5.8117  -10.5867  -14.7789 O   0  0  0  0  0  0  0  0  0  0  0  0
   -5.1612  -11.2196  -10.9133 C   0  0  0  0  0  0  0  0  0  0  0  0
   -4.2291  -10.0560  -11.2065 O   0  0  0  0  0  0  0  0  0  0  0  0
   -6.8135   -7.5307  -20.7153 C   0  0  0  0  0  0  0  0  0  0  0  0
   -7.8475   -6.5845  -20.3204 N   0  0  0  0  0  0  0  0  0  0  0  0
   -3.4026  -10.2400  -14.5572 C   0  0  1  0  0  0  0  0  0  0  0  0
   -3.4192  -10.9507  -13.3425 O   0  0  0  0  0  0  0  0  0  0  0  0
   -5.3542  -13.5342  -10.0015 C   0  0  0  0  0  0  0  0  0  0  0  0
   -1.4770  -14.6996  -11.4767 C   0  0  0  0  0  0  0  0  0  0  0  0
  1  2  1  6  0  0  0
  1  6  1  0  0  0  0
  1 21  1  0  0  0  0
  3  4  1  1  0  0  0
  3  8  1  0  0  0  0
  3 28  1  0  0  0  0
  5  9  1  0  0  0  0
  5 25  1  0  0  0  0
  5 29  1  6  0  0  0
  6  7  1  1  0  0  0
  6 11  1  0  0  0  0
  8 12  1  0  0  0  0
  9 10  1  6  0  0  0
  9 14  1  0  0  0  0
 11 16  1  0  0  0  0
 12 13  1  6  0  0  0
 12 17  1  0  0  0  0
 14 15  1  1  0  0  0
 14 18  1  0  0  0  0
 15 31  1  0  0  0  0
 16 20  1  0  0  0  0
 17  2  1  6  0  0  0
 17 22  1  0  0  0  0
 18 19  1  1  0  0  0
 18 24  1  0  0  0  0
 18 30  1  0  0  0  0
 20 21  1  0  0  0  0
 20 26  1  1  0  0  0
 22 23  1  1  0  0  0
 22 28  1  0  0  0  0
 24 25  1  0  0  0  0
 26 27  1  0  0  0  0
 28 29  1  1  0  0  0
M  END
>  <CHROM.1>
-160.64832675,-136.88968430,-82.83339723,-147.95743492,120.71998417,92.94557305
-4.53559627,-10.76760066,-15.08546119,1.96410244,-0.17476227,-1.15759977

>  <Name>
ligand

>  <RI>
0

>  <Rbt.Current_Directory>
/home/itssahil/PROJECTS/Mol_Feturizer/New_Systems/rnas/4F8U

>  <Rbt.Executable>
rbdock ($Id: //depot/dev/client3/rdock/2013.1/src/exe/rbdock.cxx#4 $)

>  <Rbt.Library>
libRbt.so (2013.1, Build901 2013/11/27)

>  <Rbt.Parameter_File>
/export/apps/rDock/src/rDock_2013.1_src/data/scripts/dock_solv.prm

>  <Rbt.Receptor>
prm/pocket_docking_2.prm

>  <SCORE>
-13.6174

>  <SCORE.INTER>
-13.6312

>  <SCORE.INTER.CONST>
1

>  <SCORE.INTER.POLAR>
0

>  <SCORE.INTER.ROT>
6

>  <SCORE.INTER.SOLV>
24.371

>  <SCORE.INTER.VDW>
-24.8111

>  <SCORE.INTER.norm>
-0.439715

>  <SCORE.INTRA>
0.0100195

>  <SCORE.INTRA.DIHEDRAL>
-0.996251

>  <SCORE.INTRA.DIHEDRAL.0>
18.77

>  <SCORE.INTRA.POLAR>
0

>  <SCORE.INTRA.POLAR.0>
0

>  <SCORE.INTRA.REPUL>
0

>  <SCORE.INTRA.REPUL.0>
0

>  <SCORE.INTRA.SOLV>
0.28761

>  <SCORE.INTRA.SOLV.lig_0>
-77.2465

>  <SCORE.INTRA.VDW>
0.36434

>  <SCORE.INTRA.VDW.0>
-4.16072

>  <SCORE.INTRA.norm>
0.000323209

>  <SCORE.RESTR>
0.00371403

>  <SCORE.RESTR.CAVITY>
0.00371403

>  <SCORE.RESTR.norm>
0.000119807

>  <SCORE.SYSTEM>
0

>  <SCORE.SYSTEM.CONST>
0

>  <SCORE.SYSTEM.DIHEDRAL>
0

>  <SCORE.SYSTEM.SOLV>
0

>  <SCORE.SYSTEM.norm>
0

>  <SCORE.heavy>
31

>  <SCORE.norm>
-0.439272

>  <RMSD>
0.583

$$$$
ligand
 OpenBabel11021811493D
libRbt.so/2013.1/901 2013/11/27
 31 33  0  0  0  0  0  0  0  0999 V2000
   -6.8662  -10.1843  -17.4481 C   0  0  2  0  0  0  0  0  0  0  0  0
   -5.4931  -10.5332  -17.6700 O   0  0  0  0  0  0  0  0  0  0  0  0
   -1.7710  -10.3383  -15.5648 C   0  0  2  0  0  0  0  0  0  0  0  0
   -0.6772   -9.8198  -14.8015 N   0  0  0  0  0  0  0  0  0  0  0  0
   -2.5385  -10.4112  -12.2598 C   0  0  2  0  0  0  0  0  0  0  0  0
   -7.7220  -11.2257  -18.2514 C   0  0  2  0  0  0  0  0  0  0  0  0
   -7.4029  -12.5764  -17.8023 N   0  0  0  0  0  0  0  0  0  0  0  0
   -1.8958   -9.5126  -16.9030 C   0  0  0  0  0  0  0  0  0  0  0  0
   -1.7916  -11.5696  -11.5294 C   0  0  2  0  0  0  0  0  0  0  0  0
   -0.6820  -11.9711  -12.3145 O   0  0  0  0  0  0  0  0  0  0  0  0
   -7.4424  -11.0710  -19.7869 C   0  0  0  0  0  0  0  0  0  0  0  0
   -3.1062  -10.0946  -17.7536 C   0  0  2  0  0  0  0  0  0  0  0  0
   -3.2342   -9.3251  -19.0132 N   0  0  0  0  0  0  0  0  0  0  0  0
   -2.8320  -12.7635  -11.3601 C   0  0  1  0  0  0  0  0  0  0  0  0
   -2.1826  -13.9415  -10.6909 N   0  0  0  0  0  0  0  0  0  0  0  0
   -7.5042   -9.5758  -20.2133 C   0  0  0  0  0  0  0  0  0  0  0  0
   -4.4506   -9.9927  -16.9046 C   0  0  2  0  0  0  0  0  0  0  0  0
   -4.0852  -12.2560  -10.4520 C   0  0  1  0  0  0  0  0  0  0  0  0
   -3.6755  -11.8457   -9.1618 O   0  0  0  0  0  0  0  0  0  0  0  0
   -7.3737   -8.5934  -19.3091 C   0  0  2  0  0  0  0  0  0  0  0  0
   -7.1748   -8.8333  -17.9049 O   0  0  0  0  0  0  0  0  0  0  0  0
   -4.2801  -10.8083  -15.5550 C   0  0  2  0  0  0  0  0  0  0  0  0
   -5.4749  -10.7042  -14.7705 O   0  0  0  0  0  0  0  0  0  0  0  0
   -4.7646  -11.0290  -11.1487 C   0  0  0  0  0  0  0  0  0  0  0  0
   -3.7235   -9.9624  -11.4438 O   0  0  0  0  0  0  0  0  0  0  0  0
   -7.4349   -7.1017  -19.7127 C   0  0  0  0  0  0  0  0  0  0  0  0
   -6.9341   -6.9443  -21.0710 N   0  0  0  0  0  0  0  0  0  0  0  0
   -3.0792  -10.2225  -14.7277 C   0  0  1  0  0  0  0  0  0  0  0  0
   -2.9566  -10.9734  -13.5436 O   0  0  0  0  0  0  0  0  0  0  0  0
   -5.1885  -13.2960  -10.1963 C   0  0  0  0  0  0  0  0  0  0  0  0
   -1.4819  -14.8923  -11.5747 C   0  0  0  0  0  0  0  0  0  0  0  0
  1  2  1  6  0  0  0
  1  6  1  0  0  0  0
  1 21  1  0  0  0  0
  3  4  1  1  0  0  0
  3  8  1  0  0  0  0
  3 28  1  0  0  0  0
  5  9  1  0  0  0  0
  5 25  1  0  0  0  0
  5 29  1  6  0  0  0
  6  7  1  1  0  0  0
  6 11  1  0  0  0  0
  8 12  1  0  0  0  0
  9 10  1  6  0  0  0
  9 14  1  0  0  0  0
 11 16  1  0  0  0  0
 12 13  1  6  0  0  0
 12 17  1  0  0  0  0
 14 15  1  1  0  0  0
 14 18  1  0  0  0  0
 15 31  1  0  0  0  0
 16 20  1  0  0  0  0
 17  2  1  6  0  0  0
 17 22  1  0  0  0  0
 18 19  1  1  0  0  0
 18 24  1  0  0  0  0
 18 30  1  0  0  0  0
 20 21  1  0  0  0  0
 20 26  1  1  0  0  0
 22 23  1  1  0  0  0
 22 28  1  0  0  0  0
 24 25  1  0  0  0  0
 26 27  1  0  0  0  0
 28 29  1  1  0  0  0
M  END
>  <CHROM.1>
-167.06466102,-148.87938672,-86.76404675,-156.98646756,-30.27844311,95.20607410
-4.35743142,-10.73306327,-15.13884902,2.00766036,-0.19722792,-1.11833977

>  <Name>
ligand

>  <RI>
0

>  <Rbt.Current_Directory>
/home/itssahil/PROJECTS/Mol_Feturizer/New_Systems/rnas/4F8U

>  <Rbt.Executable>
rbdock ($Id: //depot/dev/client3/rdock/2013.1/src/exe/rbdock.cxx#4 $)

>  <Rbt.Library>
libRbt.so (2013.1, Build901 2013/11/27)

>  <Rbt.Parameter_File>
/export/apps/rDock/src/rDock_2013.1_src/data/scripts/dock_solv.prm

>  <Rbt.Receptor>
prm/pocket_docking_3.prm

>  <SCORE>
-16.7281

>  <SCORE.INTER>
-15.2425

>  <SCORE.INTER.CONST>
1

>  <SCORE.INTER.POLAR>
0

>  <SCORE.INTER.ROT>
6

>  <SCORE.INTER.SOLV>
21.242

>  <SCORE.INTER.VDW>
-24.8423

>  <SCORE.INTER.norm>
-0.491694

>  <SCORE.INTRA>
-1.48577

>  <SCORE.INTRA.DIHEDRAL>
-4.12839

>  <SCORE.INTRA.DIHEDRAL.0>
18.77

>  <SCORE.INTRA.POLAR>
0

>  <SCORE.INTRA.POLAR.0>
0

>  <SCORE.INTRA.REPUL>
0

>  <SCORE.INTRA.REPUL.0>
0

>  <SCORE.INTRA.SOLV>
-0.685926

>  <SCORE.INTRA.SOLV.lig_0>
-77.2465

>  <SCORE.INTRA.VDW>
0.921387

>  <SCORE.INTRA.VDW.0>
-4.16072

>  <SCORE.INTRA.norm>
-0.047928

>  <SCORE.RESTR>
0.000143104

>  <SCORE.RESTR.CAVITY>
0.000143104

>  <SCORE.RESTR.norm>
4.61624e-06

>  <SCORE.SYSTEM>
0

>  <SCORE.SYSTEM.CONST>
0

>  <SCORE.SYSTEM.DIHEDRAL>
0

>  <SCORE.SYSTEM.SOLV>
0

>  <SCORE.SYSTEM.norm>
0

>  <SCORE.heavy>
31

>  <SCORE.norm>
-0.539617

>  <RMSD>
0.592

$$$$
ligand
 OpenBabel11021811493D
libRbt.so/2013.1/901 2013/11/27
 31 33  0  0  0  0  0  0  0  0999 V2000
   -6.9224  -10.1781  -17.4996 C   0  0  2  0  0  0  0  0  0  0  0  0
   -5.5508  -10.5656  -17.6582 O   0  0  0  0  0  0  0  0  0  0  0  0
   -1.8200  -10.2679  -15.5808 C   0  0  2  0  0  0  0  0  0  0  0  0
   -0.7372   -9.7205  -14.8219 N   0  0  0  0  0  0  0  0  0  0  0  0
   -2.5603  -10.3915  -12.2700 C   0  0  2  0  0  0  0  0  0  0  0  0
   -7.7723  -11.2217  -18.3061 C   0  0  2  0  0  0  0  0  0  0  0  0
   -7.5040  -12.5660  -17.8074 N   0  0  0  0  0  0  0  0  0  0  0  0
   -1.9820   -9.4359  -16.9111 C   0  0  0  0  0  0  0  0  0  0  0  0
   -1.8382  -11.5543  -11.5219 C   0  0  2  0  0  0  0  0  0  0  0  0
   -0.7232  -11.9749  -12.2892 O   0  0  0  0  0  0  0  0  0  0  0  0
   -7.4307  -11.1181  -19.8333 C   0  0  0  0  0  0  0  0  0  0  0  0
   -3.1800  -10.0497  -17.7570 C   0  0  2  0  0  0  0  0  0  0  0  0
   -3.3428   -9.2746  -19.0091 N   0  0  0  0  0  0  0  0  0  0  0  0
   -2.8958  -12.7338  -11.3590 C   0  0  1  0  0  0  0  0  0  0  0  0
   -2.2705  -13.9153  -10.6733 N   0  0  0  0  0  0  0  0  0  0  0  0
   -7.4392   -9.6347  -20.3034 C   0  0  0  0  0  0  0  0  0  0  0  0
   -4.5201   -9.9979  -16.8966 C   0  0  2  0  0  0  0  0  0  0  0  0
   -4.1547  -12.2044  -10.4714 C   0  0  1  0  0  0  0  0  0  0  0  0
   -3.7573  -11.7907   -9.1784 O   0  0  0  0  0  0  0  0  0  0  0  0
   -7.3191   -8.6300  -19.4226 C   0  0  2  0  0  0  0  0  0  0  0  0
   -7.1799   -8.8339  -18.0056 O   0  0  0  0  0  0  0  0  0  0  0  0
   -4.3125  -10.8184  -15.5552 C   0  0  2  0  0  0  0  0  0  0  0  0
   -5.5036  -10.7591  -14.7605 O   0  0  0  0  0  0  0  0  0  0  0  0
   -4.8089  -10.9737  -11.1853 C   0  0  0  0  0  0  0  0  0  0  0  0
   -3.7504   -9.9223  -11.4732 O   0  0  0  0  0  0  0  0  0  0  0  0
   -7.3280   -7.1496  -19.8699 C   0  0  0  0  0  0  0  0  0  0  0  0
   -6.9614   -7.0641  -21.2765 N   0  0  0  0  0  0  0  0  0  0  0  0
   -3.1244  -10.2009  -14.7325 C   0  0  1  0  0  0  0  0  0  0  0  0
   -2.9681  -10.9569  -13.5557 O   0  0  0  0  0  0  0  0  0  0  0  0
   -5.2744  -13.2288  -10.2241 C   0  0  0  0  0  0  0  0  0  0  0  0
   -1.5272  -14.8544  -11.5347 C   0  0  0  0  0  0  0  0  0  0  0  0
  1  2  1  6  0  0  0
  1  6  1  0  0  0  0
  1 21  1  0  0  0  0
  3  4  1  1  0  0  0
  3  8  1  0  0  0  0
  3 28  1  0  0  0  0
  5  9  1  0  0  0  0
  5 25  1  0  0  0  0
  5 29  1  6  0  0  0
  6  7  1  1  0  0  0
  6 11  1  0  0  0  0
  8 12  1  0  0  0  0
  9 10  1  6  0  0  0
  9 14  1  0  0  0  0
 11 16  1  0  0  0  0
 12 13  1  6  0  0  0
 12 17  1  0  0  0  0
 14 15  1  1  0  0  0
 14 18  1  0  0  0  0
 15 31  1  0  0  0  0
 16 20  1  0  0  0  0
 17  2  1  6  0  0  0
 17 22  1  0  0  0  0
 18 19  1  1  0  0  0
 18 24  1  0  0  0  0
 18 30  1  0  0  0  0
 20 21  1  0  0  0  0
 20 26  1  1  0  0  0
 22 23  1  1  0  0  0
 22 28  1  0  0  0  0
 24 25  1  0  0  0  0
 26 27  1  0  0  0  0
 28 29  1  1  0  0  0
M  END
>  <CHROM.1>
-169.07154092,-151.91685435,-84.56488562,-151.55592666,-21.86781350,95.32826012
-4.39723752,-10.72112265,-15.16767980,2.00265225,-0.23033344,-1.11550691

>  <Name>
ligand

>  <RI>
0

>  <Rbt.Current_Directory>
/home/itssahil/PROJECTS/Mol_Feturizer/New_Systems/rnas/4F8U

>  <Rbt.Executable>
rbdock ($Id: //depot/dev/client3/rdock/2013.1/src/exe/rbdock.cxx#4 $)

>  <Rbt.Library>
libRbt.so (2013.1, Build901 2013/11/27)

>  <Rbt.Parameter_File>
/export/apps/rDock/src/rDock_2013.1_src/data/scripts/dock_solv.prm

>  <Rbt.Receptor>
prm/pocket_docking_3.prm

>  <SCORE>
-16.6763

>  <SCORE.INTER>
-15.3124

>  <SCORE.INTER.CONST>
1

>  <SCORE.INTER.POLAR>
0

>  <SCORE.INTER.ROT>
6

>  <SCORE.INTER.SOLV>
20.7452

>  <SCORE.INTER.VDW>
-24.7233

>  <SCORE.INTER.norm>
-0.493947

>  <SCORE.INTRA>
-1.3655

>  <SCORE.INTRA.DIHEDRAL>
-4.38237

>  <SCORE.INTRA.DIHEDRAL.0>
18.77

>  <SCORE.INTRA.POLAR>
0

>  <SCORE.INTRA.POLAR.0>
0

>  <SCORE.INTRA.REPUL>
0

>  <SCORE.INTRA.REPUL.0>
0

>  <SCORE.INTRA.SOLV>
-0.419691

>  <SCORE.INTRA.SOLV.lig_0>
-77.2465

>  <SCORE.INTRA.VDW>
1.03553

>  <SCORE.INTRA.VDW.0>
-4.16072

>  <SCORE.INTRA.norm>
-0.0440482

>  <SCORE.RESTR>
0.00158021

>  <SCORE.RESTR.CAVITY>
0.00158021

>  <SCORE.RESTR.norm>
5.09745e-05

>  <SCORE.SYSTEM>
0

>  <SCORE.SYSTEM.CONST>
0

>  <SCORE.SYSTEM.DIHEDRAL>
0

>  <SCORE.SYSTEM.SOLV>
0

>  <SCORE.SYSTEM.norm>
0

>  <SCORE.heavy>
31

>  <SCORE.norm>
-0.537944

>  <RMSD>
0.593

$$$$
ligand
 OpenBabel11021811493D
libRbt.so/2013.1/901 2013/11/27
 31 33  0  0  0  0  0  0  0  0999 V2000
   -6.9138  -10.2698  -17.4216 C   0  0  2  0  0  0  0  0  0  0  0  0
   -5.5389  -10.6181  -17.6330 O   0  0  0  0  0  0  0  0  0  0  0  0
   -1.7924  -10.3356  -15.5817 C   0  0  2  0  0  0  0  0  0  0  0  0
   -0.7015   -9.7923  -14.8315 N   0  0  0  0  0  0  0  0  0  0  0  0
   -2.5083  -10.4470  -12.2663 C   0  0  2  0  0  0  0  0  0  0  0  0
   -7.7615  -11.2852  -18.2657 C   0  0  2  0  0  0  0  0  0  0  0  0
   -7.4540  -12.6490  -17.8493 N   0  0  0  0  0  0  0  0  0  0  0  0
   -1.9589   -9.5062  -16.9130 C   0  0  0  0  0  0  0  0  0  0  0  0
   -1.7748  -11.6084  -11.5272 C   0  0  2  0  0  0  0  0  0  0  0  0
   -0.6684  -12.0266  -12.3081 O   0  0  0  0  0  0  0  0  0  0  0  0
   -7.4588  -11.0896  -19.7921 C   0  0  0  0  0  0  0  0  0  0  0  0
   -3.1659  -10.1156  -17.7491 C   0  0  2  0  0  0  0  0  0  0  0  0
   -3.3330   -9.3429  -19.0022 N   0  0  0  0  0  0  0  0  0  0  0  0
   -2.8279  -12.7901  -11.3518 C   0  0  1  0  0  0  0  0  0  0  0  0
   -2.1919  -13.9705  -10.6739 N   0  0  0  0  0  0  0  0  0  0  0  0
   -7.5088   -9.5829  -20.1781 C   0  0  0  0  0  0  0  0  0  0  0  0
   -4.4999  -10.0541  -16.8798 C   0  0  2  0  0  0  0  0  0  0  0  0
   -4.0770  -12.2635  -10.4488 C   0  0  1  0  0  0  0  0  0  0  0  0
   -3.6649  -11.8492   -9.1607 O   0  0  0  0  0  0  0  0  0  0  0  0
   -7.3879   -8.6263  -19.2453 C   0  0  2  0  0  0  0  0  0  0  0  0
   -7.2106   -8.9055  -17.8455 O   0  0  0  0  0  0  0  0  0  0  0  0
   -4.2876  -10.8723  -15.5377 C   0  0  2  0  0  0  0  0  0  0  0  0
   -5.4731  -10.8043  -14.7351 O   0  0  0  0  0  0  0  0  0  0  0  0
   -4.7424  -11.0340  -11.1545 C   0  0  0  0  0  0  0  0  0  0  0  0
   -3.6897   -9.9804  -11.4550 O   0  0  0  0  0  0  0  0  0  0  0  0
   -7.4377   -7.1239  -19.6087 C   0  0  0  0  0  0  0  0  0  0  0  0
   -6.5797   -6.8726  -20.7580 N   0  0  0  0  0  0  0  0  0  0  0  0
   -3.0906  -10.2592  -14.7248 C   0  0  1  0  0  0  0  0  0  0  0  0
   -2.9305  -11.0130  -13.5470 O   0  0  0  0  0  0  0  0  0  0  0  0
   -5.1916  -13.2902  -10.1881 C   0  0  0  0  0  0  0  0  0  0  0  0
   -1.5214  -14.9473  -11.5529 C   0  0  0  0  0  0  0  0  0  0  0  0
  1  2  1  6  0  0  0
  1  6  1  0  0  0  0
  1 21  1  0  0  0  0
  3  4  1  1  0  0  0
  3  8  1  0  0  0  0
  3 28  1  0  0  0  0
  5  9  1  0  0  0  0
  5 25  1  0  0  0  0
  5 29  1  6  0  0  0
  6  7  1  1  0  0  0
  6 11  1  0  0  0  0
  8 12  1  0  0  0  0
  9 10  1  6  0  0  0
  9 14  1  0  0  0  0
 11 16  1  0  0  0  0
 12 13  1  6  0  0  0
 12 17  1  0  0  0  0
 14 15  1  1  0  0  0
 14 18  1  0  0  0  0
 15 31  1  0  0  0  0
 16 20  1  0  0  0  0
 17  2  1  6  0  0  0
 17 22  1  0  0  0  0
 18 19  1  1  0  0  0
 18 24  1  0  0  0  0
 18 30  1  0  0  0  0
 20 21  1  0  0  0  0
 20 26  1  1  0  0  0
 22 23  1  1  0  0  0
 22 28  1  0  0  0  0
 24 25  1  0  0  0  0
 26 27  1  0  0  0  0
 28 29  1  1  0  0  0
M  END
>  <CHROM.1>
-170.19293137,-151.30142305,-87.85242165,-154.63397778,-46.79715683,95.20038287
-4.36105704,-10.76443699,-15.11756513,2.01132268,-0.22461359,-1.10428104

>  <Name>
ligand

>  <RI>
0

>  <Rbt.Current_Directory>
/home/itssahil/PROJECTS/Mol_Feturizer/New_Systems/rnas/4F8U

>  <Rbt.Executable>
rbdock ($Id: //depot/dev/client3/rdock/2013.1/src/exe/rbdock.cxx#4 $)

>  <Rbt.Library>
libRbt.so (2013.1, Build901 2013/11/27)

>  <Rbt.Parameter_File>
/export/apps/rDock/src/rDock_2013.1_src/data/scripts/dock_solv.prm

>  <Rbt.Receptor>
prm/pocket_docking_3.prm

>  <SCORE>
-16.9598

>  <SCORE.INTER>
-15.31

>  <SCORE.INTER.CONST>
1

>  <SCORE.INTER.POLAR>
0

>  <SCORE.INTER.ROT>
6

>  <SCORE.INTER.SOLV>
20.6518

>  <SCORE.INTER.VDW>
-24.6906

>  <SCORE.INTER.norm>
-0.49387

>  <SCORE.INTRA>
-1.65093

>  <SCORE.INTRA.DIHEDRAL>
-3.73445

>  <SCORE.INTRA.DIHEDRAL.0>
18.77

>  <SCORE.INTRA.POLAR>
0

>  <SCORE.INTRA.POLAR.0>
0

>  <SCORE.INTRA.REPUL>
0

>  <SCORE.INTRA.REPUL.0>
0

>  <SCORE.INTRA.SOLV>
-0.739291

>  <SCORE.INTRA.SOLV.lig_0>
-77.2465

>  <SCORE.INTRA.VDW>
0.585942

>  <SCORE.INTRA.VDW.0>
-4.16072

>  <SCORE.INTRA.norm>
-0.0532557

>  <SCORE.RESTR>
0.00108926

>  <SCORE.RESTR.CAVITY>
0.00108926

>  <SCORE.RESTR.norm>
3.51375e-05

>  <SCORE.SYSTEM>
0

>  <SCORE.SYSTEM.CONST>
0

>  <SCORE.SYSTEM.DIHEDRAL>
0

>  <SCORE.SYSTEM.SOLV>
0

>  <SCORE.SYSTEM.norm>
0

>  <SCORE.heavy>
31

>  <SCORE.norm>
-0.547091

>  <RMSD>
0.593

$$$$
ligand
 OpenBabel11021811493D
libRbt.so/2013.1/901 2013/11/27
 31 33  0  0  0  0  0  0  0  0999 V2000
   -6.9704  -10.1722  -17.4326 C   0  0  2  0  0  0  0  0  0  0  0  0
   -5.6037  -10.5697  -17.6077 O   0  0  0  0  0  0  0  0  0  0  0  0
   -1.8484  -10.2895  -15.5725 C   0  0  2  0  0  0  0  0  0  0  0  0
   -0.7518   -9.7455  -14.8311 N   0  0  0  0  0  0  0  0  0  0  0  0
   -2.5875  -10.3618  -12.2452 C   0  0  2  0  0  0  0  0  0  0  0  0
   -7.8387  -11.2195  -18.2143 C   0  0  2  0  0  0  0  0  0  0  0  0
   -7.5707  -12.5598  -17.7047 N   0  0  0  0  0  0  0  0  0  0  0  0
   -2.0152   -9.4709  -16.9104 C   0  0  0  0  0  0  0  0  0  0  0  0
   -1.8853  -11.5193  -11.4703 C   0  0  2  0  0  0  0  0  0  0  0  0
   -0.7637  -11.9604  -12.2162 O   0  0  0  0  0  0  0  0  0  0  0  0
   -7.5198  -11.1349  -19.7476 C   0  0  0  0  0  0  0  0  0  0  0  0
   -3.2286  -10.0811  -17.7368 C   0  0  2  0  0  0  0  0  0  0  0  0
   -3.3961   -9.3186  -18.9960 N   0  0  0  0  0  0  0  0  0  0  0  0
   -2.9549  -12.6875  -11.3046 C   0  0  1  0  0  0  0  0  0  0  0  0
   -2.3488  -13.8640  -10.5932 N   0  0  0  0  0  0  0  0  0  0  0  0
   -7.5268   -9.6568  -20.2341 C   0  0  0  0  0  0  0  0  0  0  0  0
   -4.5590  -10.0048  -16.8633 C   0  0  2  0  0  0  0  0  0  0  0  0
   -4.2211  -12.1348  -10.4420 C   0  0  1  0  0  0  0  0  0  0  0  0
   -3.8377  -11.7053   -9.1499 O   0  0  0  0  0  0  0  0  0  0  0  0
   -7.3873   -8.6432  -19.3665 C   0  0  2  0  0  0  0  0  0  0  0  0
   -7.2277   -8.8321  -17.9496 O   0  0  0  0  0  0  0  0  0  0  0  0
   -4.3463  -10.8122  -15.5148 C   0  0  2  0  0  0  0  0  0  0  0  0
   -5.5284  -10.7307  -14.7086 O   0  0  0  0  0  0  0  0  0  0  0  0
   -4.8553  -10.9094  -11.1826 C   0  0  0  0  0  0  0  0  0  0  0  0
   -3.7842   -9.8711  -11.4715 O   0  0  0  0  0  0  0  0  0  0  0  0
   -7.3943   -7.1678  -19.8302 C   0  0  0  0  0  0  0  0  0  0  0  0
   -6.8256   -7.0753  -21.1675 N   0  0  0  0  0  0  0  0  0  0  0  0
   -3.1430  -10.1985  -14.7116 C   0  0  1  0  0  0  0  0  0  0  0  0
   -2.9827  -10.9428  -13.5278 O   0  0  0  0  0  0  0  0  0  0  0  0
   -5.3527  -13.1461  -10.1948 C   0  0  0  0  0  0  0  0  0  0  0  0
   -1.5100  -14.7617  -11.4096 C   0  0  0  0  0  0  0  0  0  0  0  0
  1  2  1  6  0  0  0
  1  6  1  0  0  0  0
  1 21  1  0  0  0  0
  3  4  1  1  0  0  0
  3  8  1  0  0  0  0
  3 28  1  0  0  0  0
  5  9  1  0  0  0  0
  5 25  1  0  0  0  0
  5 29  1  6  0  0  0
  6  7  1  1  0  0  0
  6 11  1  0  0  0  0
  8 12  1  0  0  0  0
  9 10  1  6  0  0  0
  9 14  1  0  0  0  0
 11 16  1  0  0  0  0
 12 13  1  6  0  0  0
 12 17  1  0  0  0  0
 14 15  1  1  0  0  0
 14 18  1  0  0  0  0
 15 31  1  0  0  0  0
 16 20  1  0  0  0  0
 17  2  1  6  0  0  0
 17 22  1  0  0  0  0
 18 19  1  1  0  0  0
 18 24  1  0  0  0  0
 18 30  1  0  0  0  0
 20 21  1  0  0  0  0
 20 26  1  1  0  0  0
 22 23  1  1  0  0  0
 22 28  1  0  0  0  0
 24 25  1  0  0  0  0
 26 27  1  0  0  0  0
 28 29  1  1  0  0  0
M  END
>  <CHROM.1>
-168.73352967,-153.25763429,-79.71667046,-152.01220523,-31.76754351,96.91079675
-4.43915841,-10.70617684,-15.12120508,2.00248298,-0.21344703,-1.12925888

>  <Name>
ligand

>  <RI>
0

>  <Rbt.Current_Directory>
/home/itssahil/PROJECTS/Mol_Feturizer/New_Systems/rnas/4F8U

>  <Rbt.Executable>
rbdock ($Id: //depot/dev/client3/rdock/2013.1/src/exe/rbdock.cxx#4 $)

>  <Rbt.Library>
libRbt.so (2013.1, Build901 2013/11/27)

>  <Rbt.Parameter_File>
/export/apps/rDock/src/rDock_2013.1_src/data/scripts/dock_solv.prm

>  <Rbt.Receptor>
prm/pocket_docking_3.prm

>  <SCORE>
-16.7514

>  <SCORE.INTER>
-15.4803

>  <SCORE.INTER.CONST>
1

>  <SCORE.INTER.POLAR>
0

>  <SCORE.INTER.ROT>
6

>  <SCORE.INTER.SOLV>
20.6464

>  <SCORE.INTER.VDW>
-24.8023

>  <SCORE.INTER.norm>
-0.499365

>  <SCORE.INTRA>
-1.27107

>  <SCORE.INTRA.DIHEDRAL>
-4.05429

>  <SCORE.INTRA.DIHEDRAL.0>
18.77

>  <SCORE.INTRA.POLAR>
0

>  <SCORE.INTRA.POLAR.0>
0

>  <SCORE.INTRA.REPUL>
0

>  <SCORE.INTRA.REPUL.0>
0

>  <SCORE.INTRA.SOLV>
-0.515919

>  <SCORE.INTRA.SOLV.lig_0>
-77.2465

>  <SCORE.INTRA.VDW>
1.01403

>  <SCORE.INTRA.VDW.0>
-4.16072

>  <SCORE.INTRA.norm>
-0.0410024

>  <SCORE.RESTR>
0

>  <SCORE.RESTR.CAVITY>
0

>  <SCORE.RESTR.norm>
0

>  <SCORE.SYSTEM>
0

>  <SCORE.SYSTEM.CONST>
0

>  <SCORE.SYSTEM.DIHEDRAL>
0

>  <SCORE.SYSTEM.SOLV>
0

>  <SCORE.SYSTEM.norm>
0

>  <SCORE.heavy>
31

>  <SCORE.norm>
-0.540368

>  <RMSD>
0.599

$$$$
ligand
 OpenBabel11021811493D
libRbt.so/2013.1/901 2013/11/27
 31 33  0  0  0  0  0  0  0  0999 V2000
   -6.9569  -10.1530  -17.4731 C   0  0  2  0  0  0  0  0  0  0  0  0
   -5.5894  -10.5392  -17.6665 O   0  0  0  0  0  0  0  0  0  0  0  0
   -1.8510  -10.2998  -15.5951 C   0  0  2  0  0  0  0  0  0  0  0  0
   -0.7522   -9.7657  -14.8499 N   0  0  0  0  0  0  0  0  0  0  0  0
   -2.5872  -10.3172  -12.2844 C   0  0  2  0  0  0  0  0  0  0  0  0
   -7.8245  -11.1799  -18.2822 C   0  0  2  0  0  0  0  0  0  0  0  0
   -7.5486  -12.5338  -17.8147 N   0  0  0  0  0  0  0  0  0  0  0  0
   -1.9883   -9.4979  -16.9465 C   0  0  0  0  0  0  0  0  0  0  0  0
   -1.8087  -11.4545  -11.5537 C   0  0  2  0  0  0  0  0  0  0  0  0
   -0.7069  -11.8476  -12.3539 O   0  0  0  0  0  0  0  0  0  0  0  0
   -7.5133  -11.0475  -19.8137 C   0  0  0  0  0  0  0  0  0  0  0  0
   -3.2042  -10.0973  -17.7770 C   0  0  2  0  0  0  0  0  0  0  0  0
   -3.3439   -9.3502  -19.0488 N   0  0  0  0  0  0  0  0  0  0  0  0
   -2.8263  -12.6627  -11.3514 C   0  0  1  0  0  0  0  0  0  0  0  0
   -2.1460  -13.8218  -10.6800 N   0  0  0  0  0  0  0  0  0  0  0  0
   -7.5286   -9.5554  -20.2551 C   0  0  0  0  0  0  0  0  0  0  0  0
   -4.5420   -9.9832  -16.9191 C   0  0  2  0  0  0  0  0  0  0  0  0
   -4.0712  -12.1643  -10.4270 C   0  0  1  0  0  0  0  0  0  0  0  0
   -3.6453  -11.7317   -9.1494 O   0  0  0  0  0  0  0  0  0  0  0  0
   -7.3892   -8.5679  -19.3579 C   0  0  2  0  0  0  0  0  0  0  0  0
   -7.2221   -8.7990  -17.9481 O   0  0  0  0  0  0  0  0  0  0  0  0
   -4.3588  -10.7747  -15.5568 C   0  0  2  0  0  0  0  0  0  0  0  0
   -5.5476  -10.6592  -14.7647 O   0  0  0  0  0  0  0  0  0  0  0  0
   -4.7828  -10.9570  -11.1260 C   0  0  0  0  0  0  0  0  0  0  0  0
   -3.7646   -9.8775  -11.4526 O   0  0  0  0  0  0  0  0  0  0  0  0
   -7.4045   -7.0792  -19.7765 C   0  0  0  0  0  0  0  0  0  0  0  0
   -6.9736   -6.9590  -21.1622 N   0  0  0  0  0  0  0  0  0  0  0  0
   -3.1527  -10.1720  -14.7497 C   0  0  1  0  0  0  0  0  0  0  0  0
   -3.0189  -10.9017  -13.5536 O   0  0  0  0  0  0  0  0  0  0  0  0
   -5.1527  -13.2187  -10.1391 C   0  0  0  0  0  0  0  0  0  0  0  0
   -1.4617  -14.7822  -11.5663 C   0  0  0  0  0  0  0  0  0  0  0  0
  1  2  1  6  0  0  0
  1  6  1  0  0  0  0
  1 21  1  0  0  0  0
  3  4  1  1  0  0  0
  3  8  1  0  0  0  0
  3 28  1  0  0  0  0
  5  9  1  0  0  0  0
  5 25  1  0  0  0  0
  5 29  1  6  0  0  0
  6  7  1  1  0  0  0
  6 11  1  0  0  0  0
  8 12  1  0  0  0  0
  9 10  1  6  0  0  0
  9 14  1  0  0  0  0
 11 16  1  0  0  0  0
 12 13  1  6  0  0  0
 12 17  1  0  0  0  0
 14 15  1  1  0  0  0
 14 18  1  0  0  0  0
 15 31  1  0  0  0  0
 16 20  1  0  0  0  0
 17  2  1  6  0  0  0
 17 22  1  0  0  0  0
 18 19  1  1  0  0  0
 18 24  1  0  0  0  0
 18 30  1  0  0  0  0
 20 21  1  0  0  0  0
 20 26  1  1  0  0  0
 22 23  1  1  0  0  0
 22 28  1  0  0  0  0
 24 25  1  0  0  0  0
 26 27  1  0  0  0  0
 28 29  1  1  0  0  0
M  END
>  <CHROM.1>
-169.36719836,-147.73770274,-87.58535944,-154.64594335,-25.88951962,94.98002817
-4.40347182,-10.68031767,-15.15643312,2.01192591,-0.19951454,-1.12827854

>  <Name>
ligand

>  <RI>
0

>  <Rbt.Current_Directory>
/home/itssahil/PROJECTS/Mol_Feturizer/New_Systems/rnas/4F8U

>  <Rbt.Executable>
rbdock ($Id: //depot/dev/client3/rdock/2013.1/src/exe/rbdock.cxx#4 $)

>  <Rbt.Library>
libRbt.so (2013.1, Build901 2013/11/27)

>  <Rbt.Parameter_File>
/export/apps/rDock/src/rDock_2013.1_src/data/scripts/dock_solv.prm

>  <Rbt.Receptor>
prm/pocket_docking_4.prm

>  <SCORE>
-16.8889

>  <SCORE.INTER>
-15.5673

>  <SCORE.INTER.CONST>
1

>  <SCORE.INTER.POLAR>
0

>  <SCORE.INTER.ROT>
6

>  <SCORE.INTER.SOLV>
21.5156

>  <SCORE.INTER.VDW>
-25.1501

>  <SCORE.INTER.norm>
-0.50217

>  <SCORE.INTRA>
-1.32162

>  <SCORE.INTRA.DIHEDRAL>
-3.97921

>  <SCORE.INTRA.DIHEDRAL.0>
18.77

>  <SCORE.INTRA.POLAR>
0

>  <SCORE.INTRA.POLAR.0>
0

>  <SCORE.INTRA.REPUL>
0

>  <SCORE.INTRA.REPUL.0>
0

>  <SCORE.INTRA.SOLV>
-0.530688

>  <SCORE.INTRA.SOLV.lig_0>
-77.2465

>  <SCORE.INTRA.VDW>
0.933334

>  <SCORE.INTRA.VDW.0>
-4.16072

>  <SCORE.INTRA.norm>
-0.0426328

>  <SCORE.RESTR>
0

>  <SCORE.RESTR.CAVITY>
0

>  <SCORE.RESTR.norm>
0

>  <SCORE.SYSTEM>
0

>  <SCORE.SYSTEM.CONST>
0

>  <SCORE.SYSTEM.DIHEDRAL>
0

>  <SCORE.SYSTEM.SOLV>
0

>  <SCORE.SYSTEM.norm>
0

>  <SCORE.heavy>
31

>  <SCORE.norm>
-0.544803

>  <RMSD>
0.606

$$$$
ligand
 OpenBabel11021811493D
libRbt.so/2013.1/901 2013/11/27
 31 33  0  0  0  0  0  0  0  0999 V2000
   -6.8731  -10.3196  -17.4819 C   0  0  2  0  0  0  0  0  0  0  0  0
   -5.4939  -10.6592  -17.6793 O   0  0  0  0  0  0  0  0  0  0  0  0
   -1.7585  -10.3182  -15.6168 C   0  0  2  0  0  0  0  0  0  0  0  0
   -0.6774   -9.7572  -14.8655 N   0  0  0  0  0  0  0  0  0  0  0  0
   -2.4611  -10.4283  -12.3092 C   0  0  2  0  0  0  0  0  0  0  0  0
   -7.7059  -11.3433  -18.3308 C   0  0  2  0  0  0  0  0  0  0  0  0
   -7.3931  -12.7037  -17.9074 N   0  0  0  0  0  0  0  0  0  0  0  0
   -1.9314   -9.4970  -16.9524 C   0  0  0  0  0  0  0  0  0  0  0  0
   -1.7442  -11.5929  -11.5589 C   0  0  2  0  0  0  0  0  0  0  0  0
   -0.6460  -12.0368  -12.3371 O   0  0  0  0  0  0  0  0  0  0  0  0
   -7.3903  -11.1501  -19.8549 C   0  0  0  0  0  0  0  0  0  0  0  0
   -3.1274  -10.1260  -17.7898 C   0  0  2  0  0  0  0  0  0  0  0  0
   -3.3004   -9.3611  -19.0469 N   0  0  0  0  0  0  0  0  0  0  0  0
   -2.8152  -12.7562  -11.3687 C   0  0  1  0  0  0  0  0  0  0  0  0
   -2.1964  -13.9389  -10.6793 N   0  0  0  0  0  0  0  0  0  0  0  0
   -7.4468   -9.6450  -20.2459 C   0  0  0  0  0  0  0  0  0  0  0  0
   -4.4650  -10.0782  -16.9252 C   0  0  2  0  0  0  0  0  0  0  0  0
   -4.0543  -12.2004  -10.4694 C   0  0  1  0  0  0  0  0  0  0  0  0
   -3.6332  -11.7787   -9.1865 O   0  0  0  0  0  0  0  0  0  0  0  0
   -7.3412   -8.6848  -19.3149 C   0  0  2  0  0  0  0  0  0  0  0  0
   -7.1752   -8.9586  -17.9127 O   0  0  0  0  0  0  0  0  0  0  0  0
   -4.2466  -10.8875  -15.5788 C   0  0  2  0  0  0  0  0  0  0  0  0
   -5.4355  -10.8316  -14.7805 O   0  0  0  0  0  0  0  0  0  0  0  0
   -4.7018  -10.9685  -11.1871 C   0  0  0  0  0  0  0  0  0  0  0  0
   -3.6334   -9.9346  -11.5009 O   0  0  0  0  0  0  0  0  0  0  0  0
   -7.3978   -7.1839  -19.6833 C   0  0  0  0  0  0  0  0  0  0  0  0
   -6.5469   -6.9339  -20.8382 N   0  0  0  0  0  0  0  0  0  0  0  0
   -3.0605  -10.2551  -14.7646 C   0  0  1  0  0  0  0  0  0  0  0  0
   -2.8945  -11.0015  -13.5829 O   0  0  0  0  0  0  0  0  0  0  0  0
   -5.1842  -13.2068  -10.1955 C   0  0  0  0  0  0  0  0  0  0  0  0
   -1.5109  -14.9168  -11.5454 C   0  0  0  0  0  0  0  0  0  0  0  0
  1  2  1  6  0  0  0
  1  6  1  0  0  0  0
  1 21  1  0  0  0  0
  3  4  1  1  0  0  0
  3  8  1  0  0  0  0
  3 28  1  0  0  0  0
  5  9  1  0  0  0  0
  5 25  1  0  0  0  0
  5 29  1  6  0  0  0
  6  7  1  1  0  0  0
  6 11  1  0  0  0  0
  8 12  1  0  0  0  0
  9 10  1  6  0  0  0
  9 14  1  0  0  0  0
 11 16  1  0  0  0  0
 12 13  1  6  0  0  0
 12 17  1  0  0  0  0
 14 15  1  1  0  0  0
 14 18  1  0  0  0  0
 15 31  1  0  0  0  0
 16 20  1  0  0  0  0
 17  2  1  6  0  0  0
 17 22  1  0  0  0  0
 18 19  1  1  0  0  0
 18 24  1  0  0  0  0
 18 30  1  0  0  0  0
 20 21  1  0  0  0  0
 20 26  1  1  0  0  0
 22 23  1  1  0  0  0
 22 28  1  0  0  0  0
 24 25  1  0  0  0  0
 26 27  1  0  0  0  0
 28 29  1  1  0  0  0
M  END
>  <CHROM.1>
-170.69954260,-152.09133925,-86.24307821,-154.09012215,-45.91700558,94.06027107
-4.32557397,-10.76832601,-15.15950211,2.00969818,-0.23631305,-1.11193251

>  <Name>
ligand

>  <RI>
0

>  <Rbt.Current_Directory>
/home/itssahil/PROJECTS/Mol_Feturizer/New_Systems/rnas/4F8U

>  <Rbt.Executable>
rbdock ($Id: //depot/dev/client3/rdock/2013.1/src/exe/rbdock.cxx#4 $)

>  <Rbt.Library>
libRbt.so (2013.1, Build901 2013/11/27)

>  <Rbt.Parameter_File>
/export/apps/rDock/src/rDock_2013.1_src/data/scripts/dock_solv.prm

>  <Rbt.Receptor>
prm/pocket_docking_6.prm

>  <SCORE>
-17.0163

>  <SCORE.INTER>
-15.2217

>  <SCORE.INTER.CONST>
1

>  <SCORE.INTER.POLAR>
0

>  <SCORE.INTER.ROT>
6

>  <SCORE.INTER.SOLV>
20.3211

>  <SCORE.INTER.VDW>
-24.5215

>  <SCORE.INTER.norm>
-0.491023

>  <SCORE.INTRA>
-1.79642

>  <SCORE.INTRA.DIHEDRAL>
-4.116

>  <SCORE.INTRA.DIHEDRAL.0>
18.77

>  <SCORE.INTRA.POLAR>
0

>  <SCORE.INTRA.POLAR.0>
0

>  <SCORE.INTRA.REPUL>
0

>  <SCORE.INTRA.REPUL.0>
0

>  <SCORE.INTRA.SOLV>
-0.722175

>  <SCORE.INTRA.SOLV.lig_0>
-77.2465

>  <SCORE.INTRA.VDW>
0.622667

>  <SCORE.INTRA.VDW.0>
-4.16072

>  <SCORE.INTRA.norm>
-0.057949

>  <SCORE.RESTR>
0.00178865

>  <SCORE.RESTR.CAVITY>
0.00178865

>  <SCORE.RESTR.norm>
5.76984e-05

>  <SCORE.SYSTEM>
0

>  <SCORE.SYSTEM.CONST>
0

>  <SCORE.SYSTEM.DIHEDRAL>
0

>  <SCORE.SYSTEM.SOLV>
0

>  <SCORE.SYSTEM.norm>
0

>  <SCORE.heavy>
31

>  <SCORE.norm>
-0.548914

>  <RMSD>
0.611

$$$$
ligand
 OpenBabel11021811493D
libRbt.so/2013.1/901 2013/11/27
 31 33  0  0  0  0  0  0  0  0999 V2000
   -6.8953  -10.2963  -17.4274 C   0  0  2  0  0  0  0  0  0  0  0  0
   -5.5177  -10.6388  -17.6308 O   0  0  0  0  0  0  0  0  0  0  0  0
   -1.7691  -10.3020  -15.5917 C   0  0  2  0  0  0  0  0  0  0  0  0
   -0.6834   -9.7427  -14.8456 N   0  0  0  0  0  0  0  0  0  0  0  0
   -2.4555  -10.4220  -12.2784 C   0  0  2  0  0  0  0  0  0  0  0  0
   -7.7351  -11.3393  -18.2453 C   0  0  2  0  0  0  0  0  0  0  0  0
   -7.4166  -12.6897  -17.7950 N   0  0  0  0  0  0  0  0  0  0  0  0
   -1.9512   -9.4767  -16.9235 C   0  0  0  0  0  0  0  0  0  0  0  0
   -1.7430  -11.5900  -11.5292 C   0  0  2  0  0  0  0  0  0  0  0  0
   -0.6465  -12.0373  -12.3079 O   0  0  0  0  0  0  0  0  0  0  0  0
   -7.4346  -11.1795  -19.7763 C   0  0  0  0  0  0  0  0  0  0  0  0
   -3.1523  -10.1038  -17.7550 C   0  0  2  0  0  0  0  0  0  0  0  0
   -3.3340   -9.3351  -19.0085 N   0  0  0  0  0  0  0  0  0  0  0  0
   -2.8184  -12.7493  -11.3399 C   0  0  1  0  0  0  0  0  0  0  0  0
   -2.2039  -13.9350  -10.6516 N   0  0  0  0  0  0  0  0  0  0  0  0
   -7.4967   -9.6835  -20.1998 C   0  0  0  0  0  0  0  0  0  0  0  0
   -4.4842  -10.0596  -16.8816 C   0  0  2  0  0  0  0  0  0  0  0  0
   -4.0552  -12.1897  -10.4399 C   0  0  1  0  0  0  0  0  0  0  0  0
   -3.6324  -11.7707   -9.1567 O   0  0  0  0  0  0  0  0  0  0  0  0
   -7.3832   -8.7028  -19.2914 C   0  0  2  0  0  0  0  0  0  0  0  0
   -7.2031   -8.9454  -17.8852 O   0  0  0  0  0  0  0  0  0  0  0  0
   -4.2565  -10.8731  -15.5391 C   0  0  2  0  0  0  0  0  0  0  0  0
   -5.4402  -10.8204  -14.7329 O   0  0  0  0  0  0  0  0  0  0  0  0
   -4.6982  -10.9547  -11.1565 C   0  0  0  0  0  0  0  0  0  0  0  0
   -3.6259   -9.9247  -11.4695 O   0  0  0  0  0  0  0  0  0  0  0  0
   -7.4451   -7.2105  -19.6922 C   0  0  0  0  0  0  0  0  0  0  0  0
   -6.5647   -6.9748  -20.8279 N   0  0  0  0  0  0  0  0  0  0  0  0
   -3.0655  -10.2425  -14.7307 C   0  0  1  0  0  0  0  0  0  0  0  0
   -2.8913  -10.9925  -13.5526 O   0  0  0  0  0  0  0  0  0  0  0  0
   -5.1888  -13.1921  -10.1667 C   0  0  0  0  0  0  0  0  0  0  0  0
   -1.5348  -14.9221  -11.5201 C   0  0  0  0  0  0  0  0  0  0  0  0
  1  2  1  6  0  0  0
  1  6  1  0  0  0  0
  1 21  1  0  0  0  0
  3  4  1  1  0  0  0
  3  8  1  0  0  0  0
  3 28  1  0  0  0  0
  5  9  1  0  0  0  0
  5 25  1  0  0  0  0
  5 29  1  6  0  0  0
  6  7  1  1  0  0  0
  6 11  1  0  0  0  0
  8 12  1  0  0  0  0
  9 10  1  6  0  0  0
  9 14  1  0  0  0  0
 11 16  1  0  0  0  0
 12 13  1  6  0  0  0
 12 17  1  0  0  0  0
 14 15  1  1  0  0  0
 14 18  1  0  0  0  0
 15 31  1  0  0  0  0
 16 20  1  0  0  0  0
 17  2  1  6  0  0  0
 17 22  1  0  0  0  0
 18 19  1  1  0  0  0
 18 24  1  0  0  0  0
 18 30  1  0  0  0  0
 20 21  1  0  0  0  0
 20 26  1  1  0  0  0
 22 23  1  1  0  0  0
 22 28  1  0  0  0  0
 24 25  1  0  0  0  0
 26 27  1  0  0  0  0
 28 29  1  1  0  0  0
M  END
>  <CHROM.1>
-169.41558422,-152.65069956,-86.87657586,-153.79912213,-48.15513947,94.33972968
-4.34086893,-10.76322096,-15.12279452,2.01381891,-0.23905807,-1.11011974

>  <Name>
ligand

>  <RI>
0

>  <Rbt.Current_Directory>
/home/itssahil/PROJECTS/Mol_Feturizer/New_Systems/rnas/4F8U

>  <Rbt.Executable>
rbdock ($Id: //depot/dev/client3/rdock/2013.1/src/exe/rbdock.cxx#4 $)

>  <Rbt.Library>
libRbt.so (2013.1, Build901 2013/11/27)

>  <Rbt.Parameter_File>
/export/apps/rDock/src/rDock_2013.1_src/data/scripts/dock_solv.prm

>  <Rbt.Receptor>
prm/pocket_docking_4.prm

>  <SCORE>
-17.0753

>  <SCORE.INTER>
-15.3539

>  <SCORE.INTER.CONST>
1

>  <SCORE.INTER.POLAR>
0

>  <SCORE.INTER.ROT>
6

>  <SCORE.INTER.SOLV>
20.3975

>  <SCORE.INTER.VDW>
-24.6351

>  <SCORE.INTER.norm>
-0.495288

>  <SCORE.INTRA>
-1.72139

>  <SCORE.INTRA.DIHEDRAL>
-3.90517

>  <SCORE.INTRA.DIHEDRAL.0>
18.77

>  <SCORE.INTRA.POLAR>
0

>  <SCORE.INTRA.POLAR.0>
0

>  <SCORE.INTRA.REPUL>
0

>  <SCORE.INTRA.REPUL.0>
0

>  <SCORE.INTRA.SOLV>
-0.715511

>  <SCORE.INTRA.SOLV.lig_0>
-77.2465

>  <SCORE.INTRA.VDW>
0.588955

>  <SCORE.INTRA.VDW.0>
-4.16072

>  <SCORE.INTRA.norm>
-0.0555286

>  <SCORE.RESTR>
0

>  <SCORE.RESTR.CAVITY>
0

>  <SCORE.RESTR.norm>
0

>  <SCORE.SYSTEM>
0

>  <SCORE.SYSTEM.CONST>
0

>  <SCORE.SYSTEM.DIHEDRAL>
0

>  <SCORE.SYSTEM.SOLV>
0

>  <SCORE.SYSTEM.norm>
0

>  <SCORE.heavy>
31

>  <SCORE.norm>
-0.550816

>  <RMSD>
0.622

$$$$
ligand
 OpenBabel11021811493D
libRbt.so/2013.1/901 2013/11/27
 31 33  0  0  0  0  0  0  0  0999 V2000
   -6.9297  -10.1444  -17.4608 C   0  0  2  0  0  0  0  0  0  0  0  0
   -5.5690  -10.5649  -17.6283 O   0  0  0  0  0  0  0  0  0  0  0  0
   -1.7889  -10.2967  -15.6376 C   0  0  2  0  0  0  0  0  0  0  0  0
   -0.6848   -9.7582  -14.9035 N   0  0  0  0  0  0  0  0  0  0  0  0
   -2.4420  -10.4201  -12.3137 C   0  0  2  0  0  0  0  0  0  0  0  0
   -7.8136  -11.1963  -18.2184 C   0  0  2  0  0  0  0  0  0  0  0  0
   -7.5640  -12.5287  -17.6796 N   0  0  0  0  0  0  0  0  0  0  0  0
   -1.9756   -9.4623  -16.9631 C   0  0  0  0  0  0  0  0  0  0  0  0
   -1.7400  -11.6008  -11.5747 C   0  0  2  0  0  0  0  0  0  0  0  0
   -0.6555  -12.0597  -12.3634 O   0  0  0  0  0  0  0  0  0  0  0  0
   -7.4955  -11.1500  -19.7535 C   0  0  0  0  0  0  0  0  0  0  0  0
   -3.1973  -10.0665  -17.7815 C   0  0  2  0  0  0  0  0  0  0  0  0
   -3.3833   -9.2891  -19.0290 N   0  0  0  0  0  0  0  0  0  0  0  0
   -2.8296  -12.7462  -11.3822 C   0  0  1  0  0  0  0  0  0  0  0  0
   -2.2262  -13.9430  -10.7033 N   0  0  0  0  0  0  0  0  0  0  0  0
   -7.4822   -9.6831  -20.2725 C   0  0  0  0  0  0  0  0  0  0  0  0
   -4.5167  -10.0056  -16.8903 C   0  0  2  0  0  0  0  0  0  0  0  0
   -4.0520  -12.1737  -10.4707 C   0  0  1  0  0  0  0  0  0  0  0  0
   -3.6140  -11.7658   -9.1890 O   0  0  0  0  0  0  0  0  0  0  0  0
   -7.3273   -8.6526  -19.4276 C   0  0  2  0  0  0  0  0  0  0  0  0
   -7.1686   -8.8125  -18.0070 O   0  0  0  0  0  0  0  0  0  0  0  0
   -4.2842  -10.8289  -15.5547 C   0  0  2  0  0  0  0  0  0  0  0  0
   -5.4562  -10.7615  -14.7326 O   0  0  0  0  0  0  0  0  0  0  0  0
   -4.6834  -10.9270  -11.1774 C   0  0  0  0  0  0  0  0  0  0  0  0
   -3.5995   -9.9103  -11.4941 O   0  0  0  0  0  0  0  0  0  0  0  0
   -7.3141   -7.1878  -19.9236 C   0  0  0  0  0  0  0  0  0  0  0  0
   -6.6669   -7.1211  -21.2263 N   0  0  0  0  0  0  0  0  0  0  0  0
   -3.0728  -10.2209  -14.7593 C   0  0  1  0  0  0  0  0  0  0  0  0
   -2.8949  -10.9792  -13.5870 O   0  0  0  0  0  0  0  0  0  0  0  0
   -5.1971  -13.1616  -10.1932 C   0  0  0  0  0  0  0  0  0  0  0  0
   -1.5473  -14.9184  -11.5774 C   0  0  0  0  0  0  0  0  0  0  0  0
  1  2  1  6  0  0  0
  1  6  1  0  0  0  0
  1 21  1  0  0  0  0
  3  4  1  1  0  0  0
  3  8  1  0  0  0  0
  3 28  1  0  0  0  0
  5  9  1  0  0  0  0
  5 25  1  0  0  0  0
  5 29  1  6  0  0  0
  6  7  1  1  0  0  0
  6 11  1  0  0  0  0
  8 12  1  0  0  0  0
  9 10  1  6  0  0  0
  9 14  1  0  0  0  0
 11 16  1  0  0  0  0
 12 13  1  6  0  0  0
 12 17  1  0  0  0  0
 14 15  1  1  0  0  0
 14 18  1  0  0  0  0
 15 31  1  0  0  0  0
 16 20  1  0  0  0  0
 17  2  1  6  0  0  0
 17 22  1  0  0  0  0
 18 19  1  1  0  0  0
 18 24  1  0  0  0  0
 18 30  1  0  0  0  0
 20 21  1  0  0  0  0
 20 26  1  1  0  0  0
 22 23  1  1  0  0  0
 22 28  1  0  0  0  0
 24 25  1  0  0  0  0
 26 27  1  0  0  0  0
 28 29  1  1  0  0  0
M  END
>  <CHROM.1>
-168.24244016,-152.91940729,-85.38415554,-150.00101182,-35.43871637,94.76763386
-4.35491923,-10.73236406,-15.17208006,2.00976767,-0.22614685,-1.11417065

>  <Name>
ligand

>  <RI>
0

>  <Rbt.Current_Directory>
/home/itssahil/PROJECTS/Mol_Feturizer/New_Systems/rnas/4F8U

>  <Rbt.Executable>
rbdock ($Id: //depot/dev/client3/rdock/2013.1/src/exe/rbdock.cxx#4 $)

>  <Rbt.Library>
libRbt.so (2013.1, Build901 2013/11/27)

>  <Rbt.Parameter_File>
/export/apps/rDock/src/rDock_2013.1_src/data/scripts/dock_solv.prm

>  <Rbt.Receptor>
prm/pocket_docking_4.prm

>  <SCORE>
-16.9208

>  <SCORE.INTER>
-15.6941

>  <SCORE.INTER.CONST>
1

>  <SCORE.INTER.POLAR>
0

>  <SCORE.INTER.ROT>
6

>  <SCORE.INTER.SOLV>
19.9363

>  <SCORE.INTER.VDW>
-24.7081

>  <SCORE.INTER.norm>
-0.50626

>  <SCORE.INTRA>
-1.22677

>  <SCORE.INTRA.DIHEDRAL>
-3.60052

>  <SCORE.INTRA.DIHEDRAL.0>
18.77

>  <SCORE.INTRA.POLAR>
0

>  <SCORE.INTRA.POLAR.0>
0

>  <SCORE.INTRA.REPUL>
0

>  <SCORE.INTRA.REPUL.0>
0

>  <SCORE.INTRA.SOLV>
-0.379116

>  <SCORE.INTRA.SOLV.lig_0>
-77.2465

>  <SCORE.INTRA.VDW>
0.763046

>  <SCORE.INTRA.VDW.0>
-4.16072

>  <SCORE.INTRA.norm>
-0.0395734

>  <SCORE.RESTR>
0

>  <SCORE.RESTR.CAVITY>
0

>  <SCORE.RESTR.norm>
0

>  <SCORE.SYSTEM>
0

>  <SCORE.SYSTEM.CONST>
0

>  <SCORE.SYSTEM.DIHEDRAL>
0

>  <SCORE.SYSTEM.SOLV>
0

>  <SCORE.SYSTEM.norm>
0

>  <SCORE.heavy>
31

>  <SCORE.norm>
-0.545834

>  <RMSD>
0.626

$$$$
ligand
 OpenBabel11021811493D
libRbt.so/2013.1/901 2013/11/27
 31 33  0  0  0  0  0  0  0  0999 V2000
   -7.0481  -10.0384  -17.6523 C   0  0  2  0  0  0  0  0  0  0  0  0
   -5.7253  -10.5916  -17.6301 O   0  0  0  0  0  0  0  0  0  0  0  0
   -2.0185  -10.3397  -15.5040 C   0  0  2  0  0  0  0  0  0  0  0  0
   -0.9354   -9.8035  -14.7375 N   0  0  0  0  0  0  0  0  0  0  0  0
   -2.8571  -10.3913  -12.1921 C   0  0  2  0  0  0  0  0  0  0  0  0
   -7.9918  -11.1715  -18.1883 C   0  0  2  0  0  0  0  0  0  0  0  0
   -7.8858  -12.3472  -17.3313 N   0  0  0  0  0  0  0  0  0  0  0  0
   -2.1448   -9.5241  -16.8481 C   0  0  0  0  0  0  0  0  0  0  0  0
   -2.0723  -11.5087  -11.4379 C   0  0  2  0  0  0  0  0  0  0  0  0
   -0.9215  -11.8528  -12.1903 O   0  0  0  0  0  0  0  0  0  0  0  0
   -7.6085  -11.5265  -19.6671 C   0  0  0  0  0  0  0  0  0  0  0  0
   -3.3431  -10.1256  -17.7022 C   0  0  2  0  0  0  0  0  0  0  0  0
   -3.4725   -9.3657  -18.9675 N   0  0  0  0  0  0  0  0  0  0  0  0
   -3.0537  -12.7547  -11.2953 C   0  0  1  0  0  0  0  0  0  0  0  0
   -2.3634  -13.8968  -10.6050 N   0  0  0  0  0  0  0  0  0  0  0  0
   -7.4416  -10.2363  -20.5210 C   0  0  0  0  0  0  0  0  0  0  0  0
   -4.6938  -10.0340  -16.8619 C   0  0  2  0  0  0  0  0  0  0  0  0
   -4.3569  -12.3120  -10.4243 C   0  0  1  0  0  0  0  0  0  0  0  0
   -4.0060  -11.8798   -9.1240 O   0  0  0  0  0  0  0  0  0  0  0  0
   -7.2288   -9.0460  -19.9401 C   0  0  2  0  0  0  0  0  0  0  0  0
   -7.1432   -8.8659  -18.5157 O   0  0  0  0  0  0  0  0  0  0  0  0
   -4.5219  -10.8390  -15.5061 C   0  0  2  0  0  0  0  0  0  0  0  0
   -5.7227  -10.7438  -14.7295 O   0  0  0  0  0  0  0  0  0  0  0  0
   -5.0789  -11.1227  -11.1430 C   0  0  0  0  0  0  0  0  0  0  0  0
   -4.0865  -10.0038  -11.4111 O   0  0  0  0  0  0  0  0  0  0  0  0
   -7.0631   -7.7523  -20.7713 C   0  0  0  0  0  0  0  0  0  0  0  0
   -7.6380   -6.6296  -20.0437 N   0  0  0  0  0  0  0  0  0  0  0  0
   -3.3330  -10.2338  -14.6755 C   0  0  1  0  0  0  0  0  0  0  0  0
   -3.2088  -10.9756  -13.4858 O   0  0  0  0  0  0  0  0  0  0  0  0
   -5.4117  -13.4077  -10.1975 C   0  0  0  0  0  0  0  0  0  0  0  0
   -1.4836  -14.7330  -11.4434 C   0  0  0  0  0  0  0  0  0  0  0  0
  1  2  1  6  0  0  0
  1  6  1  0  0  0  0
  1 21  1  0  0  0  0
  3  4  1  1  0  0  0
  3  8  1  0  0  0  0
  3 28  1  0  0  0  0
  5  9  1  0  0  0  0
  5 25  1  0  0  0  0
  5 29  1  6  0  0  0
  6  7  1  1  0  0  0
  6 11  1  0  0  0  0
  8 12  1  0  0  0  0
  9 10  1  6  0  0  0
  9 14  1  0  0  0  0
 11 16  1  0  0  0  0
 12 13  1  6  0  0  0
 12 17  1  0  0  0  0
 14 15  1  1  0  0  0
 14 18  1  0  0  0  0
 15 31  1  0  0  0  0
 16 20  1  0  0  0  0
 17  2  1  6  0  0  0
 17 22  1  0  0  0  0
 18 19  1  1  0  0  0
 18 24  1  0  0  0  0
 18 30  1  0  0  0  0
 20 21  1  0  0  0  0
 20 26  1  1  0  0  0
 22 23  1  1  0  0  0
 22 28  1  0  0  0  0
 24 25  1  0  0  0  0
 26 27  1  0  0  0  0
 28 29  1  1  0  0  0
M  END
>  <CHROM.1>
-160.91192347,-148.70484844,-80.97994937,-141.58249753,145.69945929,97.75556385
-4.57149521,-10.78649553,-15.13625048,1.99664358,-0.23552662,-1.13098128

>  <Name>
ligand

>  <RI>
0

>  <Rbt.Current_Directory>
/home/itssahil/PROJECTS/Mol_Feturizer/New_Systems/rnas/4F8U

>  <Rbt.Executable>
rbdock ($Id: //depot/dev/client3/rdock/2013.1/src/exe/rbdock.cxx#4 $)

>  <Rbt.Library>
libRbt.so (2013.1, Build901 2013/11/27)

>  <Rbt.Parameter_File>
/export/apps/rDock/src/rDock_2013.1_src/data/scripts/dock_solv.prm

>  <Rbt.Receptor>
prm/pocket_docking_2.prm

>  <SCORE>
-13.4061

>  <SCORE.INTER>
-13.8506

>  <SCORE.INTER.CONST>
1

>  <SCORE.INTER.POLAR>
0

>  <SCORE.INTER.ROT>
6

>  <SCORE.INTER.SOLV>
24.1061

>  <SCORE.INTER.VDW>
-24.8691

>  <SCORE.INTER.norm>
-0.446794

>  <SCORE.INTRA>
0.444463

>  <SCORE.INTRA.DIHEDRAL>
-0.365295

>  <SCORE.INTRA.DIHEDRAL.0>
18.77

>  <SCORE.INTRA.POLAR>
0

>  <SCORE.INTRA.POLAR.0>
0

>  <SCORE.INTRA.REPUL>
0

>  <SCORE.INTRA.REPUL.0>
0

>  <SCORE.INTRA.SOLV>
0.463841

>  <SCORE.INTRA.SOLV.lig_0>
-77.2465

>  <SCORE.INTRA.VDW>
0.395191

>  <SCORE.INTRA.VDW.0>
-4.16072

>  <SCORE.INTRA.norm>
0.0143375

>  <SCORE.RESTR>
0

>  <SCORE.RESTR.CAVITY>
0

>  <SCORE.RESTR.norm>
0

>  <SCORE.SYSTEM>
0

>  <SCORE.SYSTEM.CONST>
0

>  <SCORE.SYSTEM.DIHEDRAL>
0

>  <SCORE.SYSTEM.SOLV>
0

>  <SCORE.SYSTEM.norm>
0

>  <SCORE.heavy>
31

>  <SCORE.norm>
-0.432456

>  <RMSD>
0.628

$$$$
ligand
 OpenBabel11021811493D
libRbt.so/2013.1/901 2013/11/27
 31 33  0  0  0  0  0  0  0  0999 V2000
   -6.9238  -10.1567  -17.4532 C   0  0  2  0  0  0  0  0  0  0  0  0
   -5.5596  -10.5541  -17.6465 O   0  0  0  0  0  0  0  0  0  0  0  0
   -1.7911  -10.3114  -15.6306 C   0  0  2  0  0  0  0  0  0  0  0  0
   -0.6867   -9.7792  -14.8923 N   0  0  0  0  0  0  0  0  0  0  0  0
   -2.4845  -10.4020  -12.3067 C   0  0  2  0  0  0  0  0  0  0  0  0
   -7.8016  -11.1958  -18.2353 C   0  0  2  0  0  0  0  0  0  0  0  0
   -7.5299  -12.5410  -17.7409 N   0  0  0  0  0  0  0  0  0  0  0  0
   -1.9597   -9.4843  -16.9631 C   0  0  0  0  0  0  0  0  0  0  0  0
   -1.7801  -11.5748  -11.5571 C   0  0  2  0  0  0  0  0  0  0  0  0
   -0.6832  -12.0260  -12.3330 O   0  0  0  0  0  0  0  0  0  0  0  0
   -7.4989  -11.0975  -19.7711 C   0  0  0  0  0  0  0  0  0  0  0  0
   -3.1818  -10.0814  -17.7860 C   0  0  2  0  0  0  0  0  0  0  0  0
   -3.3509   -9.3107  -19.0401 N   0  0  0  0  0  0  0  0  0  0  0  0
   -2.8617  -12.7292  -11.3735 C   0  0  1  0  0  0  0  0  0  0  0  0
   -2.2553  -13.9190  -10.6851 N   0  0  0  0  0  0  0  0  0  0  0  0
   -7.5091   -9.6150  -20.2439 C   0  0  0  0  0  0  0  0  0  0  0  0
   -4.5068  -10.0007  -16.9047 C   0  0  2  0  0  0  0  0  0  0  0  0
   -4.0988  -12.1651  -10.4766 C   0  0  1  0  0  0  0  0  0  0  0  0
   -3.6782  -11.7503   -9.1913 O   0  0  0  0  0  0  0  0  0  0  0  0
   -7.3592   -8.6095  -19.3686 C   0  0  2  0  0  0  0  0  0  0  0  0
   -7.1848   -8.8117  -17.9553 O   0  0  0  0  0  0  0  0  0  0  0  0
   -4.2923  -10.8171  -15.5619 C   0  0  2  0  0  0  0  0  0  0  0  0
   -5.4693  -10.7319  -14.7487 O   0  0  0  0  0  0  0  0  0  0  0  0
   -4.7334  -10.9257  -11.1932 C   0  0  0  0  0  0  0  0  0  0  0  0
   -3.6551   -9.9004  -11.5009 O   0  0  0  0  0  0  0  0  0  0  0  0
   -7.3693   -7.1299  -19.8186 C   0  0  0  0  0  0  0  0  0  0  0  0
   -7.0378   -7.0497  -21.2342 N   0  0  0  0  0  0  0  0  0  0  0  0
   -3.0803  -10.2162  -14.7621 C   0  0  1  0  0  0  0  0  0  0  0  0
   -2.9187  -10.9682  -13.5833 O   0  0  0  0  0  0  0  0  0  0  0  0
   -5.2382  -13.1624  -10.2090 C   0  0  0  0  0  0  0  0  0  0  0  0
   -1.5162  -14.8650  -11.5425 C   0  0  0  0  0  0  0  0  0  0  0  0
  1  2  1  6  0  0  0
  1  6  1  0  0  0  0
  1 21  1  0  0  0  0
  3  4  1  1  0  0  0
  3  8  1  0  0  0  0
  3 28  1  0  0  0  0
  5  9  1  0  0  0  0
  5 25  1  0  0  0  0
  5 29  1  6  0  0  0
  6  7  1  1  0  0  0
  6 11  1  0  0  0  0
  8 12  1  0  0  0  0
  9 10  1  6  0  0  0
  9 14  1  0  0  0  0
 11 16  1  0  0  0  0
 12 13  1  6  0  0  0
 12 17  1  0  0  0  0
 14 15  1  1  0  0  0
 14 18  1  0  0  0  0
 15 31  1  0  0  0  0
 16 20  1  0  0  0  0
 17  2  1  6  0  0  0
 17 22  1  0  0  0  0
 18 19  1  1  0  0  0
 18 24  1  0  0  0  0
 18 30  1  0  0  0  0
 20 21  1  0  0  0  0
 20 26  1  1  0  0  0
 22 23  1  1  0  0  0
 22 28  1  0  0  0  0
 24 25  1  0  0  0  0
 26 27  1  0  0  0  0
 28 29  1  1  0  0  0
M  END
>  <CHROM.1>
-168.50527601,-152.39491511,-83.22326673,-152.58043595,-21.89979973,95.53145569
-4.38172203,-10.71737947,-15.16662826,2.01155716,-0.20279030,-1.12229849

>  <Name>
ligand

>  <RI>
0

>  <Rbt.Current_Directory>
/home/itssahil/PROJECTS/Mol_Feturizer/New_Systems/rnas/4F8U

>  <Rbt.Executable>
rbdock ($Id: //depot/dev/client3/rdock/2013.1/src/exe/rbdock.cxx#4 $)

>  <Rbt.Library>
libRbt.so (2013.1, Build901 2013/11/27)

>  <Rbt.Parameter_File>
/export/apps/rDock/src/rDock_2013.1_src/data/scripts/dock_solv.prm

>  <Rbt.Receptor>
prm/pocket_docking_6.prm

>  <SCORE>
-16.8225

>  <SCORE.INTER>
-15.3571

>  <SCORE.INTER.CONST>
1

>  <SCORE.INTER.POLAR>
0

>  <SCORE.INTER.ROT>
6

>  <SCORE.INTER.SOLV>
21.0575

>  <SCORE.INTER.VDW>
-24.8572

>  <SCORE.INTER.norm>
-0.495389

>  <SCORE.INTRA>
-1.46541

>  <SCORE.INTRA.DIHEDRAL>
-4.60644

>  <SCORE.INTRA.DIHEDRAL.0>
18.77

>  <SCORE.INTRA.POLAR>
0

>  <SCORE.INTRA.POLAR.0>
0

>  <SCORE.INTRA.REPUL>
0

>  <SCORE.INTRA.REPUL.0>
0

>  <SCORE.INTRA.SOLV>
-0.507631

>  <SCORE.INTRA.SOLV.lig_0>
-77.2465

>  <SCORE.INTRA.VDW>
1.09163

>  <SCORE.INTRA.VDW.0>
-4.16072

>  <SCORE.INTRA.norm>
-0.0472714

>  <SCORE.RESTR>
0

>  <SCORE.RESTR.CAVITY>
0

>  <SCORE.RESTR.norm>
0

>  <SCORE.SYSTEM>
0

>  <SCORE.SYSTEM.CONST>
0

>  <SCORE.SYSTEM.DIHEDRAL>
0

>  <SCORE.SYSTEM.SOLV>
0

>  <SCORE.SYSTEM.norm>
0

>  <SCORE.heavy>
31

>  <SCORE.norm>
-0.542661

>  <RMSD>
0.634

$$$$
ligand
 OpenBabel11021811493D
libRbt.so/2013.1/901 2013/11/27
 31 33  0  0  0  0  0  0  0  0999 V2000
   -7.0481  -10.0837  -17.6507 C   0  0  2  0  0  0  0  0  0  0  0  0
   -5.7119  -10.6043  -17.6482 O   0  0  0  0  0  0  0  0  0  0  0  0
   -2.0121  -10.3124  -15.5152 C   0  0  2  0  0  0  0  0  0  0  0  0
   -0.9372   -9.7652  -14.7450 N   0  0  0  0  0  0  0  0  0  0  0  0
   -2.8417  -10.3896  -12.2076 C   0  0  2  0  0  0  0  0  0  0  0  0
   -7.9699  -11.2354  -18.1853 C   0  0  2  0  0  0  0  0  0  0  0  0
   -7.8250  -12.4149  -17.3394 N   0  0  0  0  0  0  0  0  0  0  0  0
   -2.1468   -9.4933  -16.8565 C   0  0  0  0  0  0  0  0  0  0  0  0
   -2.0478  -11.5056  -11.4610 C   0  0  2  0  0  0  0  0  0  0  0  0
   -0.8991  -11.8419  -12.2202 O   0  0  0  0  0  0  0  0  0  0  0  0
   -7.5952  -11.5689  -19.6713 C   0  0  0  0  0  0  0  0  0  0  0  0
   -3.3359  -10.1071  -17.7148 C   0  0  2  0  0  0  0  0  0  0  0  0
   -3.4731   -9.3441  -18.9773 N   0  0  0  0  0  0  0  0  0  0  0  0
   -3.0225  -12.7568  -11.3174 C   0  0  1  0  0  0  0  0  0  0  0  0
   -2.3233  -13.8978  -10.6342 N   0  0  0  0  0  0  0  0  0  0  0  0
   -7.4699  -10.2682  -20.5163 C   0  0  0  0  0  0  0  0  0  0  0  0
   -4.6890  -10.0363  -16.8763 C   0  0  2  0  0  0  0  0  0  0  0  0
   -4.3234  -12.3231  -10.4385 C   0  0  1  0  0  0  0  0  0  0  0  0
   -3.9680  -11.8933   -9.1386 O   0  0  0  0  0  0  0  0  0  0  0  0
   -7.2797   -9.0777  -19.9280 C   0  0  2  0  0  0  0  0  0  0  0  0
   -7.1820   -8.9070  -18.5032 O   0  0  0  0  0  0  0  0  0  0  0  0
   -4.5087  -10.8442  -15.5233 C   0  0  2  0  0  0  0  0  0  0  0  0
   -5.7118  -10.7676  -14.7482 O   0  0  0  0  0  0  0  0  0  0  0  0
   -5.0547  -11.1350  -11.1498 C   0  0  0  0  0  0  0  0  0  0  0  0
   -4.0690  -10.0105  -11.4193 O   0  0  0  0  0  0  0  0  0  0  0  0
   -7.1554   -7.7737  -20.7502 C   0  0  0  0  0  0  0  0  0  0  0  0
   -7.6460   -6.6524  -19.9612 N   0  0  0  0  0  0  0  0  0  0  0  0
   -3.3291  -10.2268  -14.6884 C   0  0  1  0  0  0  0  0  0  0  0  0
   -3.1971  -10.9716  -13.5014 O   0  0  0  0  0  0  0  0  0  0  0  0
   -5.3718  -13.4246  -10.2099 C   0  0  0  0  0  0  0  0  0  0  0  0
   -1.4601  -14.7398  -11.4841 C   0  0  0  0  0  0  0  0  0  0  0  0
  1  2  1  6  0  0  0
  1  6  1  0  0  0  0
  1 21  1  0  0  0  0
  3  4  1  1  0  0  0
  3  8  1  0  0  0  0
  3 28  1  0  0  0  0
  5  9  1  0  0  0  0
  5 25  1  0  0  0  0
  5 29  1  6  0  0  0
  6  7  1  1  0  0  0
  6 11  1  0  0  0  0
  8 12  1  0  0  0  0
  9 10  1  6  0  0  0
  9 14  1  0  0  0  0
 11 16  1  0  0  0  0
 12 13  1  6  0  0  0
 12 17  1  0  0  0  0
 14 15  1  1  0  0  0
 14 18  1  0  0  0  0
 15 31  1  0  0  0  0
 16 20  1  0  0  0  0
 17  2  1  6  0  0  0
 17 22  1  0  0  0  0
 18 19  1  1  0  0  0
 18 24  1  0  0  0  0
 18 30  1  0  0  0  0
 20 21  1  0  0  0  0
 20 26  1  1  0  0  0
 22 23  1  1  0  0  0
 22 28  1  0  0  0  0
 24 25  1  0  0  0  0
 26 27  1  0  0  0  0
 28 29  1  1  0  0  0
M  END
>  <CHROM.1>
-160.21414947,-148.61690841,-81.89655326,-142.80326833,150.47954374,97.10505255
-4.56316680,-10.79689759,-15.14409877,2.00439218,-0.24938723,-1.12459448

>  <Name>
ligand

>  <RI>
0

>  <Rbt.Current_Directory>
/home/itssahil/PROJECTS/Mol_Feturizer/New_Systems/rnas/4F8U

>  <Rbt.Executable>
rbdock ($Id: //depot/dev/client3/rdock/2013.1/src/exe/rbdock.cxx#4 $)

>  <Rbt.Library>
libRbt.so (2013.1, Build901 2013/11/27)

>  <Rbt.Parameter_File>
/export/apps/rDock/src/rDock_2013.1_src/data/scripts/dock_solv.prm

>  <Rbt.Receptor>
prm/pocket_docking_2.prm

>  <SCORE>
-13.4096

>  <SCORE.INTER>
-13.8873

>  <SCORE.INTER.CONST>
1

>  <SCORE.INTER.POLAR>
0

>  <SCORE.INTER.ROT>
6

>  <SCORE.INTER.SOLV>
24.2676

>  <SCORE.INTER.VDW>
-24.9474

>  <SCORE.INTER.norm>
-0.447977

>  <SCORE.INTRA>
0.465628

>  <SCORE.INTRA.DIHEDRAL>
-0.29699

>  <SCORE.INTRA.DIHEDRAL.0>
18.77

>  <SCORE.INTRA.POLAR>
0

>  <SCORE.INTRA.POLAR.0>
0

>  <SCORE.INTRA.REPUL>
0

>  <SCORE.INTRA.REPUL.0>
0

>  <SCORE.INTRA.SOLV>
0.418036

>  <SCORE.INTRA.SOLV.lig_0>
-77.2465

>  <SCORE.INTRA.VDW>
0.405105

>  <SCORE.INTRA.VDW.0>
-4.16072

>  <SCORE.INTRA.norm>
0.0150203

>  <SCORE.RESTR>
0.012049

>  <SCORE.RESTR.CAVITY>
0.012049

>  <SCORE.RESTR.norm>
0.000388676

>  <SCORE.SYSTEM>
0

>  <SCORE.SYSTEM.CONST>
0

>  <SCORE.SYSTEM.DIHEDRAL>
0

>  <SCORE.SYSTEM.SOLV>
0

>  <SCORE.SYSTEM.norm>
0

>  <SCORE.heavy>
31

>  <SCORE.norm>
-0.432568

>  <RMSD>
0.637

$$$$
ligand
 OpenBabel11021811493D
libRbt.so/2013.1/901 2013/11/27
 31 33  0  0  0  0  0  0  0  0999 V2000
   -7.0251  -10.0303  -17.6709 C   0  0  2  0  0  0  0  0  0  0  0  0
   -5.7134  -10.6072  -17.6147 O   0  0  0  0  0  0  0  0  0  0  0  0
   -2.0049  -10.3461  -15.4928 C   0  0  2  0  0  0  0  0  0  0  0  0
   -0.9213   -9.8067  -14.7294 N   0  0  0  0  0  0  0  0  0  0  0  0
   -2.8544  -10.3827  -12.1773 C   0  0  2  0  0  0  0  0  0  0  0  0
   -7.9731  -11.1432  -18.2405 C   0  0  2  0  0  0  0  0  0  0  0  0
   -7.9123  -12.3255  -17.3882 N   0  0  0  0  0  0  0  0  0  0  0  0
   -2.1325   -9.5359  -16.8401 C   0  0  0  0  0  0  0  0  0  0  0  0
   -2.0617  -11.4896  -11.4160 C   0  0  2  0  0  0  0  0  0  0  0  0
   -0.9035  -11.8236  -12.1615 O   0  0  0  0  0  0  0  0  0  0  0  0
   -7.5543  -11.4965  -19.7100 C   0  0  0  0  0  0  0  0  0  0  0  0
   -3.3314  -10.1411  -17.6907 C   0  0  2  0  0  0  0  0  0  0  0  0
   -3.4620   -9.3862  -18.9589 N   0  0  0  0  0  0  0  0  0  0  0  0
   -3.0306  -12.7456  -11.2748 C   0  0  1  0  0  0  0  0  0  0  0  0
   -2.3319  -13.8784  -10.5778 N   0  0  0  0  0  0  0  0  0  0  0  0
   -7.3403  -10.2047  -20.5508 C   0  0  0  0  0  0  0  0  0  0  0  0
   -4.6814  -10.0464  -16.8497 C   0  0  2  0  0  0  0  0  0  0  0  0
   -4.3429  -12.3143  -10.4117 C   0  0  1  0  0  0  0  0  0  0  0  0
   -4.0031  -11.8747   -9.1108 O   0  0  0  0  0  0  0  0  0  0  0  0
   -7.1231   -9.0217  -19.9567 C   0  0  2  0  0  0  0  0  0  0  0  0
   -7.0748   -8.8514  -18.5293 O   0  0  0  0  0  0  0  0  0  0  0  0
   -4.5082  -10.8459  -15.4908 C   0  0  2  0  0  0  0  0  0  0  0  0
   -5.7083  -10.7479  -14.7136 O   0  0  0  0  0  0  0  0  0  0  0  0
   -5.0737  -11.1347  -11.1374 C   0  0  0  0  0  0  0  0  0  0  0  0
   -4.0918  -10.0061  -11.4037 O   0  0  0  0  0  0  0  0  0  0  0  0
   -6.9109   -7.7265  -20.7747 C   0  0  0  0  0  0  0  0  0  0  0  0
   -7.8631   -6.7145  -20.3392 N   0  0  0  0  0  0  0  0  0  0  0  0
   -3.3187  -10.2373  -14.6636 C   0  0  1  0  0  0  0  0  0  0  0  0
   -3.1933  -10.9743  -13.4711 O   0  0  0  0  0  0  0  0  0  0  0  0
   -5.3871  -13.4204  -10.1871 C   0  0  0  0  0  0  0  0  0  0  0  0
   -1.4769  -14.7370  -11.4192 C   0  0  0  0  0  0  0  0  0  0  0  0
  1  2  1  6  0  0  0
  1  6  1  0  0  0  0
  1 21  1  0  0  0  0
  3  4  1  1  0  0  0
  3  8  1  0  0  0  0
  3 28  1  0  0  0  0
  5  9  1  0  0  0  0
  5 25  1  0  0  0  0
  5 29  1  6  0  0  0
  6  7  1  1  0  0  0
  6 11  1  0  0  0  0
  8 12  1  0  0  0  0
  9 10  1  6  0  0  0
  9 14  1  0  0  0  0
 11 16  1  0  0  0  0
 12 13  1  6  0  0  0
 12 17  1  0  0  0  0
 14 15  1  1  0  0  0
 14 18  1  0  0  0  0
 15 31  1  0  0  0  0
 16 20  1  0  0  0  0
 17  2  1  6  0  0  0
 17 22  1  0  0  0  0
 18 19  1  1  0  0  0
 18 24  1  0  0  0  0
 18 30  1  0  0  0  0
 20 21  1  0  0  0  0
 20 26  1  1  0  0  0
 22 23  1  1  0  0  0
 22 28  1  0  0  0  0
 24 25  1  0  0  0  0
 26 27  1  0  0  0  0
 28 29  1  1  0  0  0
M  END
>  <CHROM.1>
-163.13379762,-148.67420589,-83.10252763,-139.58407854,125.33738649,98.42575864
-4.55383887,-10.78468643,-15.14265538,1.99233610,-0.22862092,-1.13719088

>  <Name>
ligand

>  <RI>
0

>  <Rbt.Current_Directory>
/home/itssahil/PROJECTS/Mol_Feturizer/New_Systems/rnas/4F8U

>  <Rbt.Executable>
rbdock ($Id: //depot/dev/client3/rdock/2013.1/src/exe/rbdock.cxx#4 $)

>  <Rbt.Library>
libRbt.so (2013.1, Build901 2013/11/27)

>  <Rbt.Parameter_File>
/export/apps/rDock/src/rDock_2013.1_src/data/scripts/dock_solv.prm

>  <Rbt.Receptor>
prm/pocket_docking_2.prm

>  <SCORE>
-13.703

>  <SCORE.INTER>
-13.6978

>  <SCORE.INTER.CONST>
1

>  <SCORE.INTER.POLAR>
0

>  <SCORE.INTER.ROT>
6

>  <SCORE.INTER.SOLV>
24.1208

>  <SCORE.INTER.VDW>
-24.7721

>  <SCORE.INTER.norm>
-0.441865

>  <SCORE.INTRA>
-0.00517884

>  <SCORE.INTRA.DIHEDRAL>
-0.897291

>  <SCORE.INTRA.DIHEDRAL.0>
18.77

>  <SCORE.INTRA.POLAR>
0

>  <SCORE.INTRA.POLAR.0>
0

>  <SCORE.INTRA.REPUL>
0

>  <SCORE.INTRA.REPUL.0>
0

>  <SCORE.INTRA.SOLV>
0.461124

>  <SCORE.INTRA.SOLV.lig_0>
-77.2465

>  <SCORE.INTRA.VDW>
0.212905

>  <SCORE.INTRA.VDW.0>
-4.16072

>  <SCORE.INTRA.norm>
-0.000167059

>  <SCORE.RESTR>
0

>  <SCORE.RESTR.CAVITY>
0

>  <SCORE.RESTR.norm>
0

>  <SCORE.SYSTEM>
0

>  <SCORE.SYSTEM.CONST>
0

>  <SCORE.SYSTEM.DIHEDRAL>
0

>  <SCORE.SYSTEM.SOLV>
0

>  <SCORE.SYSTEM.norm>
0

>  <SCORE.heavy>
31

>  <SCORE.norm>
-0.442032

>  <RMSD>
0.641

$$$$
ligand
 OpenBabel11021811493D
libRbt.so/2013.1/901 2013/11/27
 31 33  0  0  0  0  0  0  0  0999 V2000
   -6.9056  -10.3699  -17.4328 C   0  0  2  0  0  0  0  0  0  0  0  0
   -5.5213  -10.6780  -17.6459 O   0  0  0  0  0  0  0  0  0  0  0  0
   -1.7815  -10.2833  -15.6010 C   0  0  2  0  0  0  0  0  0  0  0  0
   -0.7058   -9.7074  -14.8531 N   0  0  0  0  0  0  0  0  0  0  0  0
   -2.4464  -10.4197  -12.2953 C   0  0  2  0  0  0  0  0  0  0  0  0
   -7.7246  -11.4200  -18.2625 C   0  0  2  0  0  0  0  0  0  0  0  0
   -7.3737  -12.7691  -17.8328 N   0  0  0  0  0  0  0  0  0  0  0  0
   -1.9745   -9.4604  -16.9327 C   0  0  0  0  0  0  0  0  0  0  0  0
   -1.7242  -11.5860  -11.5528 C   0  0  2  0  0  0  0  0  0  0  0  0
   -0.6361  -12.0331  -12.3433 O   0  0  0  0  0  0  0  0  0  0  0  0
   -7.4336  -11.2317  -19.7922 C   0  0  0  0  0  0  0  0  0  0  0  0
   -3.1644  -10.1059  -17.7663 C   0  0  2  0  0  0  0  0  0  0  0  0
   -3.3562   -9.3396  -19.0198 N   0  0  0  0  0  0  0  0  0  0  0  0
   -2.7961  -12.7463  -11.3501 C   0  0  1  0  0  0  0  0  0  0  0  0
   -2.1727  -13.9305  -10.6673 N   0  0  0  0  0  0  0  0  0  0  0  0
   -7.5314   -9.7316  -20.1941 C   0  0  0  0  0  0  0  0  0  0  0  0
   -4.4981  -10.0830  -16.8949 C   0  0  2  0  0  0  0  0  0  0  0  0
   -4.0233  -12.1869  -10.4368 C   0  0  1  0  0  0  0  0  0  0  0  0
   -3.5865  -11.7658   -9.1590 O   0  0  0  0  0  0  0  0  0  0  0  0
   -7.4367   -8.7617  -19.2722 C   0  0  2  0  0  0  0  0  0  0  0  0
   -7.2458   -9.0200  -17.8702 O   0  0  0  0  0  0  0  0  0  0  0  0
   -4.2597  -10.8933  -15.5524 C   0  0  2  0  0  0  0  0  0  0  0  0
   -5.4454  -10.8595  -14.7480 O   0  0  0  0  0  0  0  0  0  0  0  0
   -4.6757  -10.9534  -11.1476 C   0  0  0  0  0  0  0  0  0  0  0  0
   -3.6081   -9.9226  -11.4739 O   0  0  0  0  0  0  0  0  0  0  0  0
   -7.5340   -7.2655  -19.6514 C   0  0  0  0  0  0  0  0  0  0  0  0
   -6.4883   -6.9376  -20.6102 N   0  0  0  0  0  0  0  0  0  0  0  0
   -3.0800  -10.2445  -14.7420 C   0  0  1  0  0  0  0  0  0  0  0  0
   -2.8958  -10.9921  -13.5638 O   0  0  0  0  0  0  0  0  0  0  0  0
   -5.1528  -13.1901  -10.1497 C   0  0  0  0  0  0  0  0  0  0  0  0
   -1.5498  -14.9393  -11.5451 C   0  0  0  0  0  0  0  0  0  0  0  0
  1  2  1  6  0  0  0
  1  6  1  0  0  0  0
  1 21  1  0  0  0  0
  3  4  1  1  0  0  0
  3  8  1  0  0  0  0
  3 28  1  0  0  0  0
  5  9  1  0  0  0  0
  5 25  1  0  0  0  0
  5 29  1  6  0  0  0
  6  7  1  1  0  0  0
  6 11  1  0  0  0  0
  8 12  1  0  0  0  0
  9 10  1  6  0  0  0
  9 14  1  0  0  0  0
 11 16  1  0  0  0  0
 12 13  1  6  0  0  0
 12 17  1  0  0  0  0
 14 15  1  1  0  0  0
 14 18  1  0  0  0  0
 15 31  1  0  0  0  0
 16 20  1  0  0  0  0
 17  2  1  6  0  0  0
 17 22  1  0  0  0  0
 18 19  1  1  0  0  0
 18 24  1  0  0  0  0
 18 30  1  0  0  0  0
 20 21  1  0  0  0  0
 20 26  1  1  0  0  0
 22 23  1  1  0  0  0
 22 28  1  0  0  0  0
 24 25  1  0  0  0  0
 26 27  1  0  0  0  0
 28 29  1  1  0  0  0
M  END
>  <CHROM.1>
-169.61754218,-152.43848372,-88.75342263,-154.61604761,-58.81810307,93.12029291
-4.34094157,-10.78041368,-15.12320874,2.02185964,-0.25852754,-1.10343317

>  <Name>
ligand

>  <RI>
0

>  <Rbt.Current_Directory>
/home/itssahil/PROJECTS/Mol_Feturizer/New_Systems/rnas/4F8U

>  <Rbt.Executable>
rbdock ($Id: //depot/dev/client3/rdock/2013.1/src/exe/rbdock.cxx#4 $)

>  <Rbt.Library>
libRbt.so (2013.1, Build901 2013/11/27)

>  <Rbt.Parameter_File>
/export/apps/rDock/src/rDock_2013.1_src/data/scripts/dock_solv.prm

>  <Rbt.Receptor>
prm/pocket_docking_4.prm

>  <SCORE>
-17.0216

>  <SCORE.INTER>
-15.1098

>  <SCORE.INTER.CONST>
1

>  <SCORE.INTER.POLAR>
0

>  <SCORE.INTER.ROT>
6

>  <SCORE.INTER.SOLV>
20.7224

>  <SCORE.INTER.VDW>
-24.5806

>  <SCORE.INTER.norm>
-0.487412

>  <SCORE.INTRA>
-1.91185

>  <SCORE.INTRA.DIHEDRAL>
-4.0264

>  <SCORE.INTRA.DIHEDRAL.0>
18.77

>  <SCORE.INTRA.POLAR>
0

>  <SCORE.INTRA.POLAR.0>
0

>  <SCORE.INTRA.REPUL>
0

>  <SCORE.INTRA.REPUL.0>
0

>  <SCORE.INTRA.SOLV>
-0.646871

>  <SCORE.INTRA.SOLV.lig_0>
-77.2465

>  <SCORE.INTRA.VDW>
0.424784

>  <SCORE.INTRA.VDW.0>
-4.16072

>  <SCORE.INTRA.norm>
-0.0616725

>  <SCORE.RESTR>
0

>  <SCORE.RESTR.CAVITY>
0

>  <SCORE.RESTR.norm>
0

>  <SCORE.SYSTEM>
0

>  <SCORE.SYSTEM.CONST>
0

>  <SCORE.SYSTEM.DIHEDRAL>
0

>  <SCORE.SYSTEM.SOLV>
0

>  <SCORE.SYSTEM.norm>
0

>  <SCORE.heavy>
31

>  <SCORE.norm>
-0.549085

>  <RMSD>
0.642

$$$$
ligand
 OpenBabel11021811493D
libRbt.so/2013.1/901 2013/11/27
 31 33  0  0  0  0  0  0  0  0999 V2000
   -7.0787  -10.0452  -17.6290 C   0  0  2  0  0  0  0  0  0  0  0  0
   -5.7572  -10.6008  -17.5904 O   0  0  0  0  0  0  0  0  0  0  0  0
   -2.0411  -10.3073  -15.4861 C   0  0  2  0  0  0  0  0  0  0  0  0
   -0.9606   -9.7596  -14.7241 N   0  0  0  0  0  0  0  0  0  0  0  0
   -2.8620  -10.3833  -12.1686 C   0  0  2  0  0  0  0  0  0  0  0  0
   -8.0212  -11.1839  -18.1555 C   0  0  2  0  0  0  0  0  0  0  0  0
   -7.9232  -12.3477  -17.2815 N   0  0  0  0  0  0  0  0  0  0  0  0
   -2.1867   -9.4880  -16.8261 C   0  0  0  0  0  0  0  0  0  0  0  0
   -2.0766  -11.4996  -11.4135 C   0  0  2  0  0  0  0  0  0  0  0  0
   -0.9237  -11.8412  -12.1638 O   0  0  0  0  0  0  0  0  0  0  0  0
   -7.6289  -11.5602  -19.6266 C   0  0  0  0  0  0  0  0  0  0  0  0
   -3.3820  -10.1022  -17.6752 C   0  0  2  0  0  0  0  0  0  0  0  0
   -3.5295   -9.3390  -18.9365 N   0  0  0  0  0  0  0  0  0  0  0  0
   -3.0560  -12.7476  -11.2735 C   0  0  1  0  0  0  0  0  0  0  0  0
   -2.3649  -13.8887  -10.5825 N   0  0  0  0  0  0  0  0  0  0  0  0
   -7.4537  -10.2824  -20.4973 C   0  0  0  0  0  0  0  0  0  0  0  0
   -4.7286  -10.0324  -16.8263 C   0  0  2  0  0  0  0  0  0  0  0  0
   -4.3617  -12.3077  -10.4048 C   0  0  1  0  0  0  0  0  0  0  0  0
   -4.0140  -11.8756   -9.1036 O   0  0  0  0  0  0  0  0  0  0  0  0
   -7.2422   -9.0845  -19.9316 C   0  0  2  0  0  0  0  0  0  0  0  0
   -7.1657   -8.8847  -18.5093 O   0  0  0  0  0  0  0  0  0  0  0  0
   -4.5374  -10.8404  -15.4749 C   0  0  2  0  0  0  0  0  0  0  0  0
   -5.7345  -10.7648  -14.6905 O   0  0  0  0  0  0  0  0  0  0  0  0
   -5.0844  -11.1194  -11.1243 C   0  0  0  0  0  0  0  0  0  0  0  0
   -4.0936   -9.9985  -11.3898 O   0  0  0  0  0  0  0  0  0  0  0  0
   -7.0684   -7.8029  -20.7796 C   0  0  0  0  0  0  0  0  0  0  0  0
   -7.6560   -6.6710  -20.0768 N   0  0  0  0  0  0  0  0  0  0  0  0
   -3.3517  -10.2226  -14.6491 C   0  0  1  0  0  0  0  0  0  0  0  0
   -3.2101  -10.9676  -13.4633 O   0  0  0  0  0  0  0  0  0  0  0  0
   -5.4148  -13.4055  -10.1806 C   0  0  0  0  0  0  0  0  0  0  0  0
   -1.5038  -14.7397  -11.4255 C   0  0  0  0  0  0  0  0  0  0  0  0
  1  2  1  6  0  0  0
  1  6  1  0  0  0  0
  1 21  1  0  0  0  0
  3  4  1  1  0  0  0
  3  8  1  0  0  0  0
  3 28  1  0  0  0  0
  5  9  1  0  0  0  0
  5 25  1  0  0  0  0
  5 29  1  6  0  0  0
  6  7  1  1  0  0  0
  6 11  1  0  0  0  0
  8 12  1  0  0  0  0
  9 10  1  6  0  0  0
  9 14  1  0  0  0  0
 11 16  1  0  0  0  0
 12 13  1  6  0  0  0
 12 17  1  0  0  0  0
 14 15  1  1  0  0  0
 14 18  1  0  0  0  0
 15 31  1  0  0  0  0
 16 20  1  0  0  0  0
 17  2  1  6  0  0  0
 17 22  1  0  0  0  0
 18 19  1  1  0  0  0
 18 24  1  0  0  0  0
 18 30  1  0  0  0  0
 20 21  1  0  0  0  0
 20 26  1  1  0  0  0
 22 23  1  1  0  0  0
 22 28  1  0  0  0  0
 24 25  1  0  0  0  0
 26 27  1  0  0  0  0
 28 29  1  1  0  0  0
M  END
>  <CHROM.1>
-161.09778530,-149.63286377,-82.20502534,-139.94071250,145.21186085,97.93439760
-4.58911630,-10.78798384,-15.11420748,1.99982678,-0.25035504,-1.12693354

>  <Name>
ligand

>  <RI>
0

>  <Rbt.Current_Directory>
/home/itssahil/PROJECTS/Mol_Feturizer/New_Systems/rnas/4F8U

>  <Rbt.Executable>
rbdock ($Id: //depot/dev/client3/rdock/2013.1/src/exe/rbdock.cxx#4 $)

>  <Rbt.Library>
libRbt.so (2013.1, Build901 2013/11/27)

>  <Rbt.Parameter_File>
/export/apps/rDock/src/rDock_2013.1_src/data/scripts/dock_solv.prm

>  <Rbt.Receptor>
prm/pocket_docking_2.prm

>  <SCORE>
-13.4514

>  <SCORE.INTER>
-13.9198

>  <SCORE.INTER.CONST>
1

>  <SCORE.INTER.POLAR>
0

>  <SCORE.INTER.ROT>
6

>  <SCORE.INTER.SOLV>
24.08

>  <SCORE.INTER.VDW>
-24.9065

>  <SCORE.INTER.norm>
-0.449026

>  <SCORE.INTRA>
0.468403

>  <SCORE.INTRA.DIHEDRAL>
-0.253651

>  <SCORE.INTRA.DIHEDRAL.0>
18.77

>  <SCORE.INTRA.POLAR>
0

>  <SCORE.INTRA.POLAR.0>
0

>  <SCORE.INTRA.REPUL>
0

>  <SCORE.INTRA.REPUL.0>
0

>  <SCORE.INTRA.SOLV>
0.530255

>  <SCORE.INTRA.SOLV.lig_0>
-77.2465

>  <SCORE.INTRA.VDW>
0.330101

>  <SCORE.INTRA.VDW.0>
-4.16072

>  <SCORE.INTRA.norm>
0.0151098

>  <SCORE.RESTR>
0

>  <SCORE.RESTR.CAVITY>
0

>  <SCORE.RESTR.norm>
0

>  <SCORE.SYSTEM>
0

>  <SCORE.SYSTEM.CONST>
0

>  <SCORE.SYSTEM.DIHEDRAL>
0

>  <SCORE.SYSTEM.SOLV>
0

>  <SCORE.SYSTEM.norm>
0

>  <SCORE.heavy>
31

>  <SCORE.norm>
-0.433917

>  <RMSD>
0.649

$$$$
ligand
 OpenBabel11021811493D
libRbt.so/2013.1/901 2013/11/27
 31 33  0  0  0  0  0  0  0  0999 V2000
   -6.9160  -10.3439  -17.4233 C   0  0  2  0  0  0  0  0  0  0  0  0
   -5.5358  -10.6762  -17.6263 O   0  0  0  0  0  0  0  0  0  0  0  0
   -1.7786  -10.2862  -15.6126 C   0  0  2  0  0  0  0  0  0  0  0  0
   -0.6965   -9.7120  -14.8728 N   0  0  0  0  0  0  0  0  0  0  0  0
   -2.4294  -10.4261  -12.2977 C   0  0  2  0  0  0  0  0  0  0  0  0
   -7.7470  -11.3755  -18.2642 C   0  0  2  0  0  0  0  0  0  0  0  0
   -7.4243  -12.7325  -17.8373 N   0  0  0  0  0  0  0  0  0  0  0  0
   -1.9828   -9.4608  -16.9411 C   0  0  0  0  0  0  0  0  0  0  0  0
   -1.7081  -11.5922  -11.5539 C   0  0  2  0  0  0  0  0  0  0  0  0
   -0.6181  -12.0384  -12.3423 O   0  0  0  0  0  0  0  0  0  0  0  0
   -7.4400  -11.1863  -19.7906 C   0  0  0  0  0  0  0  0  0  0  0  0
   -3.1798  -10.1045  -17.7658 C   0  0  2  0  0  0  0  0  0  0  0  0
   -3.3821   -9.3358  -19.0161 N   0  0  0  0  0  0  0  0  0  0  0  0
   -2.7798  -12.7531  -11.3537 C   0  0  1  0  0  0  0  0  0  0  0  0
   -2.1570  -13.9371  -10.6699 N   0  0  0  0  0  0  0  0  0  0  0  0
   -7.5072   -9.6830  -20.1869 C   0  0  0  0  0  0  0  0  0  0  0  0
   -4.5061  -10.0828  -16.8830 C   0  0  2  0  0  0  0  0  0  0  0  0
   -4.0092  -12.1946  -10.4430 C   0  0  1  0  0  0  0  0  0  0  0  0
   -3.5754  -11.7736   -9.1641 O   0  0  0  0  0  0  0  0  0  0  0  0
   -7.4026   -8.7187  -19.2601 C   0  0  2  0  0  0  0  0  0  0  0  0
   -7.2280   -8.9862  -17.8577 O   0  0  0  0  0  0  0  0  0  0  0  0
   -4.2566  -10.8957  -15.5441 C   0  0  2  0  0  0  0  0  0  0  0  0
   -5.4353  -10.8631  -14.7295 O   0  0  0  0  0  0  0  0  0  0  0  0
   -4.6608  -10.9614  -11.1549 C   0  0  0  0  0  0  0  0  0  0  0  0
   -3.5932   -9.9299  -11.4787 O   0  0  0  0  0  0  0  0  0  0  0  0
   -7.4696   -7.2195  -19.6338 C   0  0  0  0  0  0  0  0  0  0  0  0
   -6.6584   -6.9766  -20.8184 N   0  0  0  0  0  0  0  0  0  0  0  0
   -3.0698  -10.2487  -14.7425 C   0  0  1  0  0  0  0  0  0  0  0  0
   -2.8758  -10.9985  -13.5673 O   0  0  0  0  0  0  0  0  0  0  0  0
   -5.1387  -13.1986  -10.1585 C   0  0  0  0  0  0  0  0  0  0  0  0
   -1.5168  -14.9368  -11.5455 C   0  0  0  0  0  0  0  0  0  0  0  0
  1  2  1  6  0  0  0
  1  6  1  0  0  0  0
  1 21  1  0  0  0  0
  3  4  1  1  0  0  0
  3  8  1  0  0  0  0
  3 28  1  0  0  0  0
  5  9  1  0  0  0  0
  5 25  1  0  0  0  0
  5 29  1  6  0  0  0
  6  7  1  1  0  0  0
  6 11  1  0  0  0  0
  8 12  1  0  0  0  0
  9 10  1  6  0  0  0
  9 14  1  0  0  0  0
 11 16  1  0  0  0  0
 12 13  1  6  0  0  0
 12 17  1  0  0  0  0
 14 15  1  1  0  0  0
 14 18  1  0  0  0  0
 15 31  1  0  0  0  0
 16 20  1  0  0  0  0
 17  2  1  6  0  0  0
 17 22  1  0  0  0  0
 18 19  1  1  0  0  0
 18 24  1  0  0  0  0
 18 30  1  0  0  0  0
 20 21  1  0  0  0  0
 20 26  1  1  0  0  0
 22 23  1  1  0  0  0
 22 28  1  0  0  0  0
 24 25  1  0  0  0  0
 26 27  1  0  0  0  0
 28 29  1  1  0  0  0
M  END
>  <CHROM.1>
-170.94307164,-153.04986452,-88.00361208,-153.05247445,-44.18890253,93.81386558
-4.33906328,-10.77415864,-15.12874210,2.02269679,-0.24910949,-1.10402904

>  <Name>
ligand

>  <RI>
0

>  <Rbt.Current_Directory>
/home/itssahil/PROJECTS/Mol_Feturizer/New_Systems/rnas/4F8U

>  <Rbt.Executable>
rbdock ($Id: //depot/dev/client3/rdock/2013.1/src/exe/rbdock.cxx#4 $)

>  <Rbt.Library>
libRbt.so (2013.1, Build901 2013/11/27)

>  <Rbt.Parameter_File>
/export/apps/rDock/src/rDock_2013.1_src/data/scripts/dock_solv.prm

>  <Rbt.Receptor>
prm/pocket_docking_4.prm

>  <SCORE>
-17.0258

>  <SCORE.INTER>
-15.192

>  <SCORE.INTER.CONST>
1

>  <SCORE.INTER.POLAR>
0

>  <SCORE.INTER.ROT>
6

>  <SCORE.INTER.SOLV>
20.6038

>  <SCORE.INTER.VDW>
-24.5959

>  <SCORE.INTER.norm>
-0.490065

>  <SCORE.INTRA>
-1.83378

>  <SCORE.INTRA.DIHEDRAL>
-4.17595

>  <SCORE.INTRA.DIHEDRAL.0>
18.77

>  <SCORE.INTRA.POLAR>
0

>  <SCORE.INTRA.POLAR.0>
0

>  <SCORE.INTRA.REPUL>
0

>  <SCORE.INTRA.REPUL.0>
0

>  <SCORE.INTRA.SOLV>
-0.672175

>  <SCORE.INTRA.SOLV.lig_0>
-77.2465

>  <SCORE.INTRA.VDW>
0.590282

>  <SCORE.INTRA.VDW.0>
-4.16072

>  <SCORE.INTRA.norm>
-0.0591542

>  <SCORE.RESTR>
0

>  <SCORE.RESTR.CAVITY>
0

>  <SCORE.RESTR.norm>
0

>  <SCORE.SYSTEM>
0

>  <SCORE.SYSTEM.CONST>
0

>  <SCORE.SYSTEM.DIHEDRAL>
0

>  <SCORE.SYSTEM.SOLV>
0

>  <SCORE.SYSTEM.norm>
0

>  <SCORE.heavy>
31

>  <SCORE.norm>
-0.549219

>  <RMSD>
0.653

$$$$
ligand
 OpenBabel11021811493D
libRbt.so/2013.1/901 2013/11/27
 31 33  0  0  0  0  0  0  0  0999 V2000
   -6.8023   -9.6906  -17.7271 C   0  0  2  0  0  0  0  0  0  0  0  0
   -5.4503  -10.1010  -17.9725 O   0  0  0  0  0  0  0  0  0  0  0  0
   -1.8082  -10.3053  -15.7327 C   0  0  2  0  0  0  0  0  0  0  0  0
   -0.6909   -9.9056  -14.9326 N   0  0  0  0  0  0  0  0  0  0  0  0
   -3.7604  -10.3351  -12.5113 C   0  0  2  0  0  0  0  0  0  0  0  0
   -7.7202  -10.7457  -18.4384 C   0  0  2  0  0  0  0  0  0  0  0  0
   -7.4318  -12.0784  -17.9201 N   0  0  0  0  0  0  0  0  0  0  0  0
   -1.7907   -9.4844  -17.0794 C   0  0  0  0  0  0  0  0  0  0  0  0
   -3.0536  -11.1425  -11.3791 C   0  0  2  0  0  0  0  0  0  0  0  0
   -1.6669  -10.8501  -11.4001 O   0  0  0  0  0  0  0  0  0  0  0  0
   -7.4891  -10.6913  -19.9887 C   0  0  0  0  0  0  0  0  0  0  0  0
   -3.0276   -9.9349  -17.9706 C   0  0  2  0  0  0  0  0  0  0  0  0
   -3.0225   -9.1687  -19.2387 N   0  0  0  0  0  0  0  0  0  0  0  0
   -3.3152  -12.6859  -11.6720 C   0  0  1  0  0  0  0  0  0  0  0  0
   -2.6370  -13.5433  -10.6413 N   0  0  0  0  0  0  0  0  0  0  0  0
   -7.5147   -9.2224  -20.5014 C   0  0  0  0  0  0  0  0  0  0  0  0
   -4.3816   -9.6736  -17.1724 C   0  0  2  0  0  0  0  0  0  0  0  0
   -4.9181  -12.9728  -11.6360 C   0  0  1  0  0  0  0  0  0  0  0  0
   -5.4858  -12.6632  -10.3779 O   0  0  0  0  0  0  0  0  0  0  0  0
   -7.3196   -8.1941  -19.6622 C   0  0  2  0  0  0  0  0  0  0  0  0
   -7.0804   -8.3584  -18.2535 O   0  0  0  0  0  0  0  0  0  0  0  0
   -4.3530  -10.4896  -15.8126 C   0  0  2  0  0  0  0  0  0  0  0  0
   -5.5559  -10.2436  -15.0733 O   0  0  0  0  0  0  0  0  0  0  0  0
   -5.6268  -12.0812  -12.7108 C   0  0  0  0  0  0  0  0  0  0  0  0
   -5.2392  -10.6258  -12.5098 O   0  0  0  0  0  0  0  0  0  0  0  0
   -7.3441   -6.7274  -20.1521 C   0  0  0  0  0  0  0  0  0  0  0  0
   -5.9829   -6.2759  -20.4044 N   0  0  0  0  0  0  0  0  0  0  0  0
   -3.1242  -10.0344  -14.9451 C   0  0  1  0  0  0  0  0  0  0  0  0
   -3.1298  -10.7823  -13.7528 O   0  0  0  0  0  0  0  0  0  0  0  0
   -5.3423  -14.4259  -11.9061 C   0  0  0  0  0  0  0  0  0  0  0  0
   -1.5491  -14.4134  -11.1266 C   0  0  0  0  0  0  0  0  0  0  0  0
  1  2  1  6  0  0  0
  1  6  1  0  0  0  0
  1 21  1  0  0  0  0
  3  4  1  1  0  0  0
  3  8  1  0  0  0  0
  3 28  1  0  0  0  0
  5  9  1  0  0  0  0
  5 25  1  0  0  0  0
  5 29  1  6  0  0  0
  6  7  1  1  0  0  0
  6 11  1  0  0  0  0
  8 12  1  0  0  0  0
  9 10  1  6  0  0  0
  9 14  1  0  0  0  0
 11 16  1  0  0  0  0
 12 13  1  6  0  0  0
 12 17  1  0  0  0  0
 14 15  1  1  0  0  0
 14 18  1  0  0  0  0
 15 31  1  0  0  0  0
 16 20  1  0  0  0  0
 17  2  1  6  0  0  0
 17 22  1  0  0  0  0
 18 19  1  1  0  0  0
 18 24  1  0  0  0  0
 18 30  1  0  0  0  0
 20 21  1  0  0  0  0
 20 26  1  1  0  0  0
 22 23  1  1  0  0  0
 22 28  1  0  0  0  0
 24 25  1  0  0  0  0
 26 27  1  0  0  0  0
 28 29  1  1  0  0  0
M  END
>  <CHROM.1>
-159.40396667,-157.86389421,-114.99905622,-162.75642703,-96.39765829,147.38559663
-4.63668732,-10.58777212,-15.45532409,1.93113366,-0.27537401,-1.02724628

>  <Name>
ligand

>  <RI>
0

>  <Rbt.Current_Directory>
/home/itssahil/PROJECTS/Mol_Feturizer/New_Systems/rnas/4F8U

>  <Rbt.Executable>
rbdock ($Id: //depot/dev/client3/rdock/2013.1/src/exe/rbdock.cxx#4 $)

>  <Rbt.Library>
libRbt.so (2013.1, Build901 2013/11/27)

>  <Rbt.Parameter_File>
/export/apps/rDock/src/rDock_2013.1_src/data/scripts/dock_solv.prm

>  <Rbt.Receptor>
prm/pocket_docking_2.prm

>  <SCORE>
-13.69

>  <SCORE.INTER>
-10.3526

>  <SCORE.INTER.CONST>
1

>  <SCORE.INTER.POLAR>
0

>  <SCORE.INTER.ROT>
6

>  <SCORE.INTER.SOLV>
22.8661

>  <SCORE.INTER.VDW>
-22.1238

>  <SCORE.INTER.norm>
-0.333955

>  <SCORE.INTRA>
-3.3374

>  <SCORE.INTRA.DIHEDRAL>
-5.74765

>  <SCORE.INTRA.DIHEDRAL.0>
18.77

>  <SCORE.INTRA.POLAR>
0

>  <SCORE.INTRA.POLAR.0>
0

>  <SCORE.INTRA.REPUL>
0

>  <SCORE.INTRA.REPUL.0>
0

>  <SCORE.INTRA.SOLV>
-1.71792

>  <SCORE.INTRA.SOLV.lig_0>
-77.2465

>  <SCORE.INTRA.VDW>
0.395386

>  <SCORE.INTRA.VDW.0>
-4.16072

>  <SCORE.INTRA.norm>
-0.107658

>  <SCORE.RESTR>
0

>  <SCORE.RESTR.CAVITY>
0

>  <SCORE.RESTR.norm>
0

>  <SCORE.SYSTEM>
0

>  <SCORE.SYSTEM.CONST>
0

>  <SCORE.SYSTEM.DIHEDRAL>
0

>  <SCORE.SYSTEM.SOLV>
0

>  <SCORE.SYSTEM.norm>
0

>  <SCORE.heavy>
31

>  <SCORE.norm>
-0.441613

>  <RMSD>
0.681

$$$$
ligand
 OpenBabel11021811493D
libRbt.so/2013.1/901 2013/11/27
 31 33  0  0  0  0  0  0  0  0999 V2000
   -6.9557  -10.0887  -17.4630 C   0  0  2  0  0  0  0  0  0  0  0  0
   -5.6314  -10.6374  -17.5018 O   0  0  0  0  0  0  0  0  0  0  0  0
   -1.8035  -10.3416  -15.6087 C   0  0  2  0  0  0  0  0  0  0  0  0
   -0.6860   -9.7957  -14.9008 N   0  0  0  0  0  0  0  0  0  0  0  0
   -2.4427  -10.4770  -12.2487 C   0  0  2  0  0  0  0  0  0  0  0  0
   -7.9029  -11.1769  -18.0801 C   0  0  2  0  0  0  0  0  0  0  0  0
   -7.7839  -12.4190  -17.3246 N   0  0  0  0  0  0  0  0  0  0  0  0
   -2.0328   -9.5025  -16.9245 C   0  0  0  0  0  0  0  0  0  0  0  0
   -1.7334  -11.6419  -11.4918 C   0  0  2  0  0  0  0  0  0  0  0  0
   -0.6182  -12.0750  -12.2518 O   0  0  0  0  0  0  0  0  0  0  0  0
   -7.5360  -11.4071  -19.5875 C   0  0  0  0  0  0  0  0  0  0  0  0
   -3.2695  -10.1147  -17.7140 C   0  0  2  0  0  0  0  0  0  0  0  0
   -3.4956   -9.3329  -18.9521 N   0  0  0  0  0  0  0  0  0  0  0  0
   -2.8011  -12.8122  -11.3284 C   0  0  1  0  0  0  0  0  0  0  0  0
   -2.1884  -13.9955  -10.6342 N   0  0  0  0  0  0  0  0  0  0  0  0
   -7.3822  -10.0502  -20.3336 C   0  0  0  0  0  0  0  0  0  0  0  0
   -4.5657  -10.0714  -16.7885 C   0  0  2  0  0  0  0  0  0  0  0  0
   -4.0599  -12.2687  -10.4492 C   0  0  1  0  0  0  0  0  0  0  0  0
   -3.6653  -11.8521   -9.1563 O   0  0  0  0  0  0  0  0  0  0  0  0
   -7.1656   -8.9112  -19.6588 C   0  0  2  0  0  0  0  0  0  0  0  0
   -7.0638   -8.8493  -18.2254 O   0  0  0  0  0  0  0  0  0  0  0  0
   -4.2904  -10.8989  -15.4638 C   0  0  2  0  0  0  0  0  0  0  0  0
   -5.4412  -10.8473  -14.6111 O   0  0  0  0  0  0  0  0  0  0  0  0
   -4.7010  -11.0362  -11.1719 C   0  0  0  0  0  0  0  0  0  0  0  0
   -3.6328   -9.9946  -11.4597 O   0  0  0  0  0  0  0  0  0  0  0  0
   -7.0128   -7.5528  -20.3819 C   0  0  0  0  0  0  0  0  0  0  0  0
   -7.8803   -6.5666  -19.7533 N   0  0  0  0  0  0  0  0  0  0  0  0
   -3.0648  -10.2829  -14.6970 C   0  0  1  0  0  0  0  0  0  0  0  0
   -2.8490  -11.0452  -13.5336 O   0  0  0  0  0  0  0  0  0  0  0  0
   -5.1889  -13.2830  -10.2023 C   0  0  0  0  0  0  0  0  0  0  0  0
   -1.4782  -14.9625  -11.4925 C   0  0  0  0  0  0  0  0  0  0  0  0
  1  2  1  6  0  0  0
  1  6  1  0  0  0  0
  1 21  1  0  0  0  0
  3  4  1  1  0  0  0
  3  8  1  0  0  0  0
  3 28  1  0  0  0  0
  5  9  1  0  0  0  0
  5 25  1  0  0  0  0
  5 29  1  6  0  0  0
  6  7  1  1  0  0  0
  6 11  1  0  0  0  0
  8 12  1  0  0  0  0
  9 10  1  6  0  0  0
  9 14  1  0  0  0  0
 11 16  1  0  0  0  0
 12 13  1  6  0  0  0
 12 17  1  0  0  0  0
 14 15  1  1  0  0  0
 14 18  1  0  0  0  0
 15 31  1  0  0  0  0
 16 20  1  0  0  0  0
 17  2  1  6  0  0  0
 17 22  1  0  0  0  0
 18 19  1  1  0  0  0
 18 24  1  0  0  0  0
 18 30  1  0  0  0  0
 20 21  1  0  0  0  0
 20 26  1  1  0  0  0
 22 23  1  1  0  0  0
 22 28  1  0  0  0  0
 24 25  1  0  0  0  0
 26 27  1  0  0  0  0
 28 29  1  1  0  0  0
M  END
>  <CHROM.1>
-166.45265583,-155.54873870,-86.08361169,-139.50244207,130.46508364,98.44360050
-4.39117172,-10.79553416,-15.09231224,2.02946478,-0.21782612,-1.10718806

>  <Name>
ligand

>  <RI>
0

>  <Rbt.Current_Directory>
/home/itssahil/PROJECTS/Mol_Feturizer/New_Systems/rnas/4F8U

>  <Rbt.Executable>
rbdock ($Id: //depot/dev/client3/rdock/2013.1/src/exe/rbdock.cxx#4 $)

>  <Rbt.Library>
libRbt.so (2013.1, Build901 2013/11/27)

>  <Rbt.Parameter_File>
/export/apps/rDock/src/rDock_2013.1_src/data/scripts/dock_solv.prm

>  <Rbt.Receptor>
prm/pocket_docking_3.prm

>  <SCORE>
-14.4746

>  <SCORE.INTER>
-13.5398

>  <SCORE.INTER.CONST>
1

>  <SCORE.INTER.POLAR>
0

>  <SCORE.INTER.ROT>
6

>  <SCORE.INTER.SOLV>
25.5946

>  <SCORE.INTER.VDW>
-25.1581

>  <SCORE.INTER.norm>
-0.436769

>  <SCORE.INTRA>
-0.934769

>  <SCORE.INTRA.DIHEDRAL>
-2.41541

>  <SCORE.INTRA.DIHEDRAL.0>
18.77

>  <SCORE.INTRA.POLAR>
0

>  <SCORE.INTRA.POLAR.0>
0

>  <SCORE.INTRA.REPUL>
0

>  <SCORE.INTRA.REPUL.0>
0

>  <SCORE.INTRA.SOLV>
0.280394

>  <SCORE.INTRA.SOLV.lig_0>
-77.2465

>  <SCORE.INTRA.VDW>
0.132736

>  <SCORE.INTRA.VDW.0>
-4.16072

>  <SCORE.INTRA.norm>
-0.0301538

>  <SCORE.RESTR>
0

>  <SCORE.RESTR.CAVITY>
0

>  <SCORE.RESTR.norm>
0

>  <SCORE.SYSTEM>
0

>  <SCORE.SYSTEM.CONST>
0

>  <SCORE.SYSTEM.DIHEDRAL>
0

>  <SCORE.SYSTEM.SOLV>
0

>  <SCORE.SYSTEM.norm>
0

>  <SCORE.heavy>
31

>  <SCORE.norm>
-0.466923

>  <RMSD>
0.711

$$$$
ligand
 OpenBabel11021811493D
libRbt.so/2013.1/901 2013/11/27
 31 33  0  0  0  0  0  0  0  0999 V2000
   -6.9126   -9.8302  -17.7451 C   0  0  2  0  0  0  0  0  0  0  0  0
   -5.5469  -10.2124  -17.9575 O   0  0  0  0  0  0  0  0  0  0  0  0
   -1.9061  -10.2478  -15.7064 C   0  0  2  0  0  0  0  0  0  0  0  0
   -0.8122   -9.7973  -14.9011 N   0  0  0  0  0  0  0  0  0  0  0  0
   -3.8275  -10.3655  -12.4796 C   0  0  2  0  0  0  0  0  0  0  0  0
   -7.7881  -10.8558  -18.5473 C   0  0  2  0  0  0  0  0  0  0  0  0
   -7.5032  -12.2110  -18.0889 N   0  0  0  0  0  0  0  0  0  0  0  0
   -1.9245   -9.4215  -17.0499 C   0  0  0  0  0  0  0  0  0  0  0  0
   -3.0788  -11.1537  -11.3610 C   0  0  2  0  0  0  0  0  0  0  0  0
   -1.7008  -10.8254  -11.4081 O   0  0  0  0  0  0  0  0  0  0  0  0
   -7.4968  -10.7165  -20.0821 C   0  0  0  0  0  0  0  0  0  0  0  0
   -3.1352   -9.9283  -17.9469 C   0  0  2  0  0  0  0  0  0  0  0  0
   -3.1635   -9.1575  -19.2119 N   0  0  0  0  0  0  0  0  0  0  0  0
   -3.3057  -12.7035  -11.6489 C   0  0  1  0  0  0  0  0  0  0  0  0
   -2.5862  -13.5425  -10.6312 N   0  0  0  0  0  0  0  0  0  0  0  0
   -7.5211   -9.2226  -20.5172 C   0  0  0  0  0  0  0  0  0  0  0  0
   -4.5029   -9.7366  -17.1521 C   0  0  2  0  0  0  0  0  0  0  0  0
   -4.8996  -13.0319  -11.5827 C   0  0  1  0  0  0  0  0  0  0  0  0
   -5.4514  -12.7366  -10.3141 O   0  0  0  0  0  0  0  0  0  0  0  0
   -7.3726   -8.2385  -19.6177 C   0  0  2  0  0  0  0  0  0  0  0  0
   -7.1870   -8.4749  -18.2111 O   0  0  0  0  0  0  0  0  0  0  0  0
   -4.4386  -10.5557  -15.7955 C   0  0  2  0  0  0  0  0  0  0  0  0
   -5.6544  -10.3717  -15.0592 O   0  0  0  0  0  0  0  0  0  0  0  0
   -5.6513  -12.1595  -12.6439 C   0  0  0  0  0  0  0  0  0  0  0  0
   -5.2980  -10.6945  -12.4502 O   0  0  0  0  0  0  0  0  0  0  0  0
   -7.3966   -6.7481  -20.0300 C   0  0  0  0  0  0  0  0  0  0  0  0
   -6.4791   -6.5356  -21.1406 N   0  0  0  0  0  0  0  0  0  0  0  0
   -3.2362  -10.0446  -14.9221 C   0  0  1  0  0  0  0  0  0  0  0  0
   -3.2090  -10.7967  -13.7328 O   0  0  0  0  0  0  0  0  0  0  0  0
   -5.2909  -14.4957  -11.8448 C   0  0  0  0  0  0  0  0  0  0  0  0
   -1.4954  -14.3959  -11.1394 C   0  0  0  0  0  0  0  0  0  0  0  0
  1  2  1  6  0  0  0
  1  6  1  0  0  0  0
  1 21  1  0  0  0  0
  3  4  1  1  0  0  0
  3  8  1  0  0  0  0
  3 28  1  0  0  0  0
  5  9  1  0  0  0  0
  5 25  1  0  0  0  0
  5 29  1  6  0  0  0
  6  7  1  1  0  0  0
  6 11  1  0  0  0  0
  8 12  1  0  0  0  0
  9 10  1  6  0  0  0
  9 14  1  0  0  0  0
 11 16  1  0  0  0  0
 12 13  1  6  0  0  0
 12 17  1  0  0  0  0
 14 15  1  1  0  0  0
 14 18  1  0  0  0  0
 15 31  1  0  0  0  0
 16 20  1  0  0  0  0
 17  2  1  6  0  0  0
 17 22  1  0  0  0  0
 18 19  1  1  0  0  0
 18 24  1  0  0  0  0
 18 30  1  0  0  0  0
 20 21  1  0  0  0  0
 20 26  1  1  0  0  0
 22 23  1  1  0  0  0
 22 28  1  0  0  0  0
 24 25  1  0  0  0  0
 26 27  1  0  0  0  0
 28 29  1  1  0  0  0
M  END
>  <CHROM.1>
-164.24114953,-157.33867062,-115.67527061,-160.40605891,-50.43183717,145.30922102
-4.70574512,-10.63247468,-15.46490087,1.94218473,-0.29920336,-1.02740800

>  <Name>
ligand

>  <RI>
0

>  <Rbt.Current_Directory>
/home/itssahil/PROJECTS/Mol_Feturizer/New_Systems/rnas/4F8U

>  <Rbt.Executable>
rbdock ($Id: //depot/dev/client3/rdock/2013.1/src/exe/rbdock.cxx#4 $)

>  <Rbt.Library>
libRbt.so (2013.1, Build901 2013/11/27)

>  <Rbt.Parameter_File>
/export/apps/rDock/src/rDock_2013.1_src/data/scripts/dock_solv.prm

>  <Rbt.Receptor>
prm/pocket_docking_2.prm

>  <SCORE>
-13.5506

>  <SCORE.INTER>
-11.0226

>  <SCORE.INTER.CONST>
1

>  <SCORE.INTER.POLAR>
0

>  <SCORE.INTER.ROT>
6

>  <SCORE.INTER.SOLV>
20.8849

>  <SCORE.INTER.VDW>
-21.9101

>  <SCORE.INTER.norm>
-0.355569

>  <SCORE.INTRA>
-2.52797

>  <SCORE.INTRA.DIHEDRAL>
-4.48443

>  <SCORE.INTRA.DIHEDRAL.0>
18.77

>  <SCORE.INTRA.POLAR>
0

>  <SCORE.INTRA.POLAR.0>
0

>  <SCORE.INTRA.REPUL>
0

>  <SCORE.INTRA.REPUL.0>
0

>  <SCORE.INTRA.SOLV>
-1.72768

>  <SCORE.INTRA.SOLV.lig_0>
-77.2465

>  <SCORE.INTRA.VDW>
0.578083

>  <SCORE.INTRA.VDW.0>
-4.16072

>  <SCORE.INTRA.norm>
-0.0815474

>  <SCORE.RESTR>
0

>  <SCORE.RESTR.CAVITY>
0

>  <SCORE.RESTR.norm>
0

>  <SCORE.SYSTEM>
0

>  <SCORE.SYSTEM.CONST>
0

>  <SCORE.SYSTEM.DIHEDRAL>
0

>  <SCORE.SYSTEM.SOLV>
0

>  <SCORE.SYSTEM.norm>
0

>  <SCORE.heavy>
31

>  <SCORE.norm>
-0.437117

>  <RMSD>
0.717

$$$$
ligand
 OpenBabel11021811493D
libRbt.so/2013.1/901 2013/11/27
 31 33  0  0  0  0  0  0  0  0999 V2000
   -6.9924   -9.7038  -18.1884 C   0  0  2  0  0  0  0  0  0  0  0  0
   -5.6074  -10.0572  -18.3049 O   0  0  0  0  0  0  0  0  0  0  0  0
   -2.2702  -10.2286  -15.6296 C   0  0  2  0  0  0  0  0  0  0  0  0
   -1.2580   -9.8167  -14.7056 N   0  0  0  0  0  0  0  0  0  0  0  0
   -3.0389  -10.4254  -12.6112 C   0  0  2  0  0  0  0  0  0  0  0  0
   -7.7832  -10.7120  -19.0941 C   0  0  2  0  0  0  0  0  0  0  0  0
   -7.5110  -12.0789  -18.6633 N   0  0  0  0  0  0  0  0  0  0  0  0
   -2.0826   -9.4339  -16.9792 C   0  0  0  0  0  0  0  0  0  0  0  0
   -2.2994  -11.7705  -12.3337 C   0  0  2  0  0  0  0  0  0  0  0  0
   -1.4783  -12.0840  -13.4456 O   0  0  0  0  0  0  0  0  0  0  0  0
   -7.3739  -10.5114  -20.5948 C   0  0  0  0  0  0  0  0  0  0  0  0
   -3.2026   -9.8981  -18.0074 C   0  0  2  0  0  0  0  0  0  0  0  0
   -3.0373   -9.1565  -19.2794 N   0  0  0  0  0  0  0  0  0  0  0  0
   -3.4179  -12.8836  -12.1192 C   0  0  1  0  0  0  0  0  0  0  0  0
   -2.7896  -14.2268  -11.8774 N   0  0  0  0  0  0  0  0  0  0  0  0
   -7.3907   -9.0030  -20.9766 C   0  0  0  0  0  0  0  0  0  0  0  0
   -4.6433   -9.6175  -17.3873 C   0  0  2  0  0  0  0  0  0  0  0  0
   -4.3329  -12.4815  -10.8331 C   0  0  1  0  0  0  0  0  0  0  0  0
   -3.5704  -12.3920   -9.6450 O   0  0  0  0  0  0  0  0  0  0  0  0
   -7.3314   -8.0508  -20.0335 C   0  0  2  0  0  0  0  0  0  0  0  0
   -7.2534   -8.3365  -18.6260 O   0  0  0  0  0  0  0  0  0  0  0  0
   -4.7867  -10.4071  -16.0192 C   0  0  2  0  0  0  0  0  0  0  0  0
   -6.0702  -10.1433  -15.4387 O   0  0  0  0  0  0  0  0  0  0  0  0
   -4.9901  -11.0824  -11.0839 C   0  0  0  0  0  0  0  0  0  0  0  0
   -3.9185  -10.0663  -11.4413 O   0  0  0  0  0  0  0  0  0  0  0  0
   -7.3496   -6.5467  -20.3927 C   0  0  0  0  0  0  0  0  0  0  0  0
   -5.9912   -6.0229  -20.3630 N   0  0  0  0  0  0  0  0  0  0  0  0
   -3.6718   -9.9387  -15.0156 C   0  0  1  0  0  0  0  0  0  0  0  0
   -3.8282  -10.6634  -13.8192 O   0  0  0  0  0  0  0  0  0  0  0  0
   -5.4703  -13.4583  -10.4916 C   0  0  0  0  0  0  0  0  0  0  0  0
   -1.6611  -14.2602  -10.9278 C   0  0  0  0  0  0  0  0  0  0  0  0
  1  2  1  6  0  0  0
  1  6  1  0  0  0  0
  1 21  1  0  0  0  0
  3  4  1  1  0  0  0
  3  8  1  0  0  0  0
  3 28  1  0  0  0  0
  5  9  1  0  0  0  0
  5 25  1  0  0  0  0
  5 29  1  6  0  0  0
  6  7  1  1  0  0  0
  6 11  1  0  0  0  0
  8 12  1  0  0  0  0
  9 10  1  6  0  0  0
  9 14  1  0  0  0  0
 11 16  1  0  0  0  0
 12 13  1  6  0  0  0
 12 17  1  0  0  0  0
 14 15  1  1  0  0  0
 14 18  1  0  0  0  0
 15 31  1  0  0  0  0
 16 20  1  0  0  0  0
 17  2  1  6  0  0  0
 17 22  1  0  0  0  0
 18 19  1  1  0  0  0
 18 24  1  0  0  0  0
 18 30  1  0  0  0  0
 20 21  1  0  0  0  0
 20 26  1  1  0  0  0
 22 23  1  1  0  0  0
 22 28  1  0  0  0  0
 24 25  1  0  0  0  0
 26 27  1  0  0  0  0
 28 29  1  1  0  0  0
M  END
>  <CHROM.1>
-162.95400687,-119.64666183,45.15603738,-166.64908259,-99.69641219,65.85437088
-4.59078524,-10.51044306,-15.57307460,1.94545300,-0.24716337,-1.05921355

>  <Name>
ligand

>  <RI>
0

>  <Rbt.Current_Directory>
/home/itssahil/PROJECTS/Mol_Feturizer/New_Systems/rnas/4F8U

>  <Rbt.Executable>
rbdock ($Id: //depot/dev/client3/rdock/2013.1/src/exe/rbdock.cxx#4 $)

>  <Rbt.Library>
libRbt.so (2013.1, Build901 2013/11/27)

>  <Rbt.Parameter_File>
/export/apps/rDock/src/rDock_2013.1_src/data/scripts/dock_solv.prm

>  <Rbt.Receptor>
prm/pocket_docking_2.prm

>  <SCORE>
-12.6307

>  <SCORE.INTER>
-12.1912

>  <SCORE.INTER.CONST>
1

>  <SCORE.INTER.POLAR>
0

>  <SCORE.INTER.ROT>
6

>  <SCORE.INTER.SOLV>
23.1452

>  <SCORE.INTER.VDW>
-23.4425

>  <SCORE.INTER.norm>
-0.393263

>  <SCORE.INTRA>
-0.440943

>  <SCORE.INTRA.DIHEDRAL>
-6.8719

>  <SCORE.INTRA.DIHEDRAL.0>
18.77

>  <SCORE.INTRA.POLAR>
0

>  <SCORE.INTRA.POLAR.0>
0

>  <SCORE.INTRA.REPUL>
0

>  <SCORE.INTRA.REPUL.0>
0

>  <SCORE.INTRA.SOLV>
-0.0212819

>  <SCORE.INTRA.SOLV.lig_0>
-77.2465

>  <SCORE.INTRA.VDW>
3.00565

>  <SCORE.INTRA.VDW.0>
-4.16072

>  <SCORE.INTRA.norm>
-0.014224

>  <SCORE.RESTR>
0.00140599

>  <SCORE.RESTR.CAVITY>
0.00140599

>  <SCORE.RESTR.norm>
4.53545e-05

>  <SCORE.SYSTEM>
0

>  <SCORE.SYSTEM.CONST>
0

>  <SCORE.SYSTEM.DIHEDRAL>
0

>  <SCORE.SYSTEM.SOLV>
0

>  <SCORE.SYSTEM.norm>
0

>  <SCORE.heavy>
31

>  <SCORE.norm>
-0.407442

>  <RMSD>
0.728

$$$$
ligand
 OpenBabel11021811493D
libRbt.so/2013.1/901 2013/11/27
 31 33  0  0  0  0  0  0  0  0999 V2000
   -6.9739  -10.1505  -17.4840 C   0  0  2  0  0  0  0  0  0  0  0  0
   -5.6356  -10.6627  -17.5414 O   0  0  0  0  0  0  0  0  0  0  0  0
   -1.8196  -10.3106  -15.6341 C   0  0  2  0  0  0  0  0  0  0  0  0
   -0.7121   -9.7478  -14.9237 N   0  0  0  0  0  0  0  0  0  0  0  0
   -2.4227  -10.4479  -12.2891 C   0  0  2  0  0  0  0  0  0  0  0  0
   -7.8980  -11.2595  -18.0989 C   0  0  2  0  0  0  0  0  0  0  0  0
   -7.7370  -12.5034  -17.3541 N   0  0  0  0  0  0  0  0  0  0  0  0
   -2.0543   -9.4794  -16.9539 C   0  0  0  0  0  0  0  0  0  0  0  0
   -1.7286  -11.6213  -11.5313 C   0  0  2  0  0  0  0  0  0  0  0  0
   -0.6373  -12.0893  -12.3051 O   0  0  0  0  0  0  0  0  0  0  0  0
   -7.5418  -11.4686  -19.6119 C   0  0  0  0  0  0  0  0  0  0  0  0
   -3.2798  -10.1104  -17.7461 C   0  0  2  0  0  0  0  0  0  0  0  0
   -3.5109   -9.3362  -18.9880 N   0  0  0  0  0  0  0  0  0  0  0  0
   -2.8210  -12.7637  -11.3368 C   0  0  1  0  0  0  0  0  0  0  0  0
   -2.2250  -13.9538  -10.6398 N   0  0  0  0  0  0  0  0  0  0  0  0
   -7.4332  -10.1027  -20.3494 C   0  0  0  0  0  0  0  0  0  0  0  0
   -4.5803  -10.0803  -16.8259 C   0  0  2  0  0  0  0  0  0  0  0  0
   -4.0512  -12.1806  -10.4427 C   0  0  1  0  0  0  0  0  0  0  0  0
   -3.6247  -11.7596   -9.1613 O   0  0  0  0  0  0  0  0  0  0  0  0
   -7.2400   -8.9632  -19.6683 C   0  0  2  0  0  0  0  0  0  0  0  0
   -7.1240   -8.9089  -18.2357 O   0  0  0  0  0  0  0  0  0  0  0  0
   -4.2997  -10.8994  -15.4970 C   0  0  2  0  0  0  0  0  0  0  0  0
   -5.4545  -10.8594  -14.6492 O   0  0  0  0  0  0  0  0  0  0  0  0
   -4.6749  -10.9409  -11.1682 C   0  0  0  0  0  0  0  0  0  0  0  0
   -3.5872   -9.9285  -11.4857 O   0  0  0  0  0  0  0  0  0  0  0  0
   -7.1322   -7.5958  -20.3827 C   0  0  0  0  0  0  0  0  0  0  0  0
   -7.9019   -6.6013  -19.6487 N   0  0  0  0  0  0  0  0  0  0  0  0
   -3.0852  -10.2648  -14.7276 C   0  0  1  0  0  0  0  0  0  0  0  0
   -2.8643  -11.0200  -13.5606 O   0  0  0  0  0  0  0  0  0  0  0  0
   -5.1997  -13.1647  -10.1654 C   0  0  0  0  0  0  0  0  0  0  0  0
   -1.5443  -14.9420  -11.4980 C   0  0  0  0  0  0  0  0  0  0  0  0
  1  2  1  6  0  0  0
  1  6  1  0  0  0  0
  1 21  1  0  0  0  0
  3  4  1  1  0  0  0
  3  8  1  0  0  0  0
  3 28  1  0  0  0  0
  5  9  1  0  0  0  0
  5 25  1  0  0  0  0
  5 29  1  6  0  0  0
  6  7  1  1  0  0  0
  6 11  1  0  0  0  0
  8 12  1  0  0  0  0
  9 10  1  6  0  0  0
  9 14  1  0  0  0  0
 11 16  1  0  0  0  0
 12 13  1  6  0  0  0
 12 17  1  0  0  0  0
 14 15  1  1  0  0  0
 14 18  1  0  0  0  0
 15 31  1  0  0  0  0
 16 20  1  0  0  0  0
 17  2  1  6  0  0  0
 17 22  1  0  0  0  0
 18 19  1  1  0  0  0
 18 24  1  0  0  0  0
 18 30  1  0  0  0  0
 20 21  1  0  0  0  0
 20 26  1  1  0  0  0
 22 23  1  1  0  0  0
 22 28  1  0  0  0  0
 24 25  1  0  0  0  0
 26 27  1  0  0  0  0
 28 29  1  1  0  0  0
M  END
>  <CHROM.1>
-165.85980177,-155.72548716,-85.65035034,-141.07474015,136.79156760,96.08094728
-4.40627394,-10.78959121,-15.10894479,2.03542154,-0.22839260,-1.11270849

>  <Name>
ligand

>  <RI>
0

>  <Rbt.Current_Directory>
/home/itssahil/PROJECTS/Mol_Feturizer/New_Systems/rnas/4F8U

>  <Rbt.Executable>
rbdock ($Id: //depot/dev/client3/rdock/2013.1/src/exe/rbdock.cxx#4 $)

>  <Rbt.Library>
libRbt.so (2013.1, Build901 2013/11/27)

>  <Rbt.Parameter_File>
/export/apps/rDock/src/rDock_2013.1_src/data/scripts/dock_solv.prm

>  <Rbt.Receptor>
prm/pocket_docking_4.prm

>  <SCORE>
-14.5642

>  <SCORE.INTER>
-13.4483

>  <SCORE.INTER.CONST>
1

>  <SCORE.INTER.POLAR>
0

>  <SCORE.INTER.ROT>
6

>  <SCORE.INTER.SOLV>
25.9545

>  <SCORE.INTER.VDW>
-25.217

>  <SCORE.INTER.norm>
-0.433816

>  <SCORE.INTRA>
-1.11588

>  <SCORE.INTRA.DIHEDRAL>
-2.85153

>  <SCORE.INTRA.DIHEDRAL.0>
18.77

>  <SCORE.INTRA.POLAR>
0

>  <SCORE.INTRA.POLAR.0>
0

>  <SCORE.INTRA.REPUL>
0

>  <SCORE.INTRA.REPUL.0>
0

>  <SCORE.INTRA.SOLV>
0.207415

>  <SCORE.INTRA.SOLV.lig_0>
-77.2465

>  <SCORE.INTRA.VDW>
0.206175

>  <SCORE.INTRA.VDW.0>
-4.16072

>  <SCORE.INTRA.norm>
-0.0359962

>  <SCORE.RESTR>
0

>  <SCORE.RESTR.CAVITY>
0

>  <SCORE.RESTR.norm>
0

>  <SCORE.SYSTEM>
0

>  <SCORE.SYSTEM.CONST>
0

>  <SCORE.SYSTEM.DIHEDRAL>
0

>  <SCORE.SYSTEM.SOLV>
0

>  <SCORE.SYSTEM.norm>
0

>  <SCORE.heavy>
31

>  <SCORE.norm>
-0.469813

>  <RMSD>
0.743

$$$$
ligand
 OpenBabel11021811493D
libRbt.so/2013.1/901 2013/11/27
 31 33  0  0  0  0  0  0  0  0999 V2000
   -7.0780  -10.1312  -17.4630 C   0  0  2  0  0  0  0  0  0  0  0  0
   -5.7684  -10.7146  -17.4314 O   0  0  0  0  0  0  0  0  0  0  0  0
   -1.9033  -10.3192  -15.6345 C   0  0  2  0  0  0  0  0  0  0  0  0
   -0.7846   -9.7457  -14.9508 N   0  0  0  0  0  0  0  0  0  0  0  0
   -2.4510  -10.5000  -12.2605 C   0  0  2  0  0  0  0  0  0  0  0  0
   -8.0205  -11.1968  -18.1249 C   0  0  2  0  0  0  0  0  0  0  0  0
   -7.9737  -12.4382  -17.3602 N   0  0  0  0  0  0  0  0  0  0  0  0
   -2.1914   -9.4771  -16.9367 C   0  0  0  0  0  0  0  0  0  0  0  0
   -1.7446  -11.6678  -11.5051 C   0  0  2  0  0  0  0  0  0  0  0  0
   -0.6399  -12.1133  -12.2732 O   0  0  0  0  0  0  0  0  0  0  0  0
   -7.5824  -11.4434  -19.6105 C   0  0  0  0  0  0  0  0  0  0  0  0
   -3.4293  -10.1198  -17.6995 C   0  0  2  0  0  0  0  0  0  0  0  0
   -3.7105   -9.3355  -18.9246 N   0  0  0  0  0  0  0  0  0  0  0  0
   -2.8205  -12.8285  -11.3274 C   0  0  1  0  0  0  0  0  0  0  0  0
   -2.2116  -14.0140  -10.6338 N   0  0  0  0  0  0  0  0  0  0  0  0
   -7.3543  -10.0945  -20.3519 C   0  0  0  0  0  0  0  0  0  0  0  0
   -4.7019  -10.1225  -16.7407 C   0  0  2  0  0  0  0  0  0  0  0  0
   -4.0669  -12.2709  -10.4393 C   0  0  1  0  0  0  0  0  0  0  0  0
   -3.6573  -11.8523   -9.1517 O   0  0  0  0  0  0  0  0  0  0  0  0
   -7.1428   -8.9585  -19.6703 C   0  0  2  0  0  0  0  0  0  0  0  0
   -7.1137   -8.8927  -18.2338 O   0  0  0  0  0  0  0  0  0  0  0  0
   -4.3680  -10.9519  -15.4306 C   0  0  2  0  0  0  0  0  0  0  0  0
   -5.4974  -10.9413  -14.5483 O   0  0  0  0  0  0  0  0  0  0  0  0
   -4.7041  -11.0361  -11.1614 C   0  0  0  0  0  0  0  0  0  0  0  0
   -3.6299  -10.0046  -11.4630 O   0  0  0  0  0  0  0  0  0  0  0  0
   -6.9168   -7.6078  -20.3889 C   0  0  0  0  0  0  0  0  0  0  0  0
   -7.8708   -6.6265  -19.8916 N   0  0  0  0  0  0  0  0  0  0  0  0
   -3.1417  -10.3055  -14.6902 C   0  0  1  0  0  0  0  0  0  0  0  0
   -2.8734  -11.0701  -13.5394 O   0  0  0  0  0  0  0  0  0  0  0  0
   -5.2021  -13.2747  -10.1782 C   0  0  0  0  0  0  0  0  0  0  0  0
   -1.4888  -14.9734  -11.4901 C   0  0  0  0  0  0  0  0  0  0  0  0
  1  2  1  6  0  0  0
  1  6  1  0  0  0  0
  1 21  1  0  0  0  0
  3  4  1  1  0  0  0
  3  8  1  0  0  0  0
  3 28  1  0  0  0  0
  5  9  1  0  0  0  0
  5 25  1  0  0  0  0
  5 29  1  6  0  0  0
  6  7  1  1  0  0  0
  6 11  1  0  0  0  0
  8 12  1  0  0  0  0
  9 10  1  6  0  0  0
  9 14  1  0  0  0  0
 11 16  1  0  0  0  0
 12 13  1  6  0  0  0
 12 17  1  0  0  0  0
 14 15  1  1  0  0  0
 14 18  1  0  0  0  0
 15 31  1  0  0  0  0
 16 20  1  0  0  0  0
 17  2  1  6  0  0  0
 17 22  1  0  0  0  0
 18 19  1  1  0  0  0
 18 24  1  0  0  0  0
 18 30  1  0  0  0  0
 20 21  1  0  0  0  0
 20 26  1  1  0  0  0
 22 23  1  1  0  0  0
 22 28  1  0  0  0  0
 24 25  1  0  0  0  0
 26 27  1  0  0  0  0
 28 29  1  1  0  0  0
M  END
>  <CHROM.1>
-171.00174283,-158.03800226,-84.63889889,-133.09742340,125.46513317,98.43924108
-4.44559812,-10.81981112,-15.09550690,2.03487609,-0.24704761,-1.09656137

>  <Name>
ligand

>  <RI>
0

>  <Rbt.Current_Directory>
/home/itssahil/PROJECTS/Mol_Feturizer/New_Systems/rnas/4F8U

>  <Rbt.Executable>
rbdock ($Id: //depot/dev/client3/rdock/2013.1/src/exe/rbdock.cxx#4 $)

>  <Rbt.Library>
libRbt.so (2013.1, Build901 2013/11/27)

>  <Rbt.Parameter_File>
/export/apps/rDock/src/rDock_2013.1_src/data/scripts/dock_solv.prm

>  <Rbt.Receptor>
prm/pocket_docking_3.prm

>  <SCORE>
-14.4854

>  <SCORE.INTER>
-13.5679

>  <SCORE.INTER.CONST>
1

>  <SCORE.INTER.POLAR>
0

>  <SCORE.INTER.ROT>
6

>  <SCORE.INTER.SOLV>
24.942

>  <SCORE.INTER.VDW>
-24.9592

>  <SCORE.INTER.norm>
-0.437673

>  <SCORE.INTRA>
-0.918778

>  <SCORE.INTRA.DIHEDRAL>
-2.57146

>  <SCORE.INTRA.DIHEDRAL.0>
18.77

>  <SCORE.INTRA.POLAR>
0

>  <SCORE.INTRA.POLAR.0>
0

>  <SCORE.INTRA.REPUL>
0

>  <SCORE.INTRA.REPUL.0>
0

>  <SCORE.INTRA.SOLV>
0.627033

>  <SCORE.INTRA.SOLV.lig_0>
-77.2465

>  <SCORE.INTRA.VDW>
0.0534378

>  <SCORE.INTRA.VDW.0>
-4.16072

>  <SCORE.INTRA.norm>
-0.029638

>  <SCORE.RESTR>
0.00121935

>  <SCORE.RESTR.CAVITY>
0.00121935

>  <SCORE.RESTR.norm>
3.93339e-05

>  <SCORE.SYSTEM>
0

>  <SCORE.SYSTEM.CONST>
0

>  <SCORE.SYSTEM.DIHEDRAL>
0

>  <SCORE.SYSTEM.SOLV>
0

>  <SCORE.SYSTEM.norm>
0

>  <SCORE.heavy>
31

>  <SCORE.norm>
-0.467272

>  <RMSD>
0.749

$$$$
ligand
 OpenBabel11021811493D
libRbt.so/2013.1/901 2013/11/27
 31 33  0  0  0  0  0  0  0  0999 V2000
   -7.0482   -9.8650  -18.2562 C   0  0  2  0  0  0  0  0  0  0  0  0
   -5.6464  -10.1435  -18.3736 O   0  0  0  0  0  0  0  0  0  0  0  0
   -2.2996  -10.1610  -15.7048 C   0  0  2  0  0  0  0  0  0  0  0  0
   -1.3117   -9.7052  -14.7752 N   0  0  0  0  0  0  0  0  0  0  0  0
   -3.0571  -10.4453  -12.6858 C   0  0  2  0  0  0  0  0  0  0  0  0
   -7.7869  -10.9426  -19.1251 C   0  0  2  0  0  0  0  0  0  0  0  0
   -7.4355  -12.2785  -18.6564 N   0  0  0  0  0  0  0  0  0  0  0  0
   -2.1618   -9.3349  -17.0414 C   0  0  0  0  0  0  0  0  0  0  0  0
   -2.2854  -11.7674  -12.3860 C   0  0  2  0  0  0  0  0  0  0  0  0
   -1.4434  -12.0699  -13.4852 O   0  0  0  0  0  0  0  0  0  0  0  0
   -7.3994  -10.7644  -20.6344 C   0  0  0  0  0  0  0  0  0  0  0  0
   -3.2546   -9.8476  -18.0760 C   0  0  2  0  0  0  0  0  0  0  0  0
   -3.1357   -9.0770  -19.3358 N   0  0  0  0  0  0  0  0  0  0  0  0
   -3.3765  -12.9077  -12.1728 C   0  0  1  0  0  0  0  0  0  0  0  0
   -2.7155  -14.2311  -11.9099 N   0  0  0  0  0  0  0  0  0  0  0  0
   -7.5036   -9.2714  -21.0605 C   0  0  0  0  0  0  0  0  0  0  0  0
   -4.7081   -9.6626  -17.4499 C   0  0  2  0  0  0  0  0  0  0  0  0
   -4.3167  -12.5173  -10.9014 C   0  0  1  0  0  0  0  0  0  0  0  0
   -3.5708  -12.3956   -9.7056 O   0  0  0  0  0  0  0  0  0  0  0  0
   -7.4918   -8.2895  -20.1465 C   0  0  2  0  0  0  0  0  0  0  0  0
   -7.3886   -8.5281  -18.7318 O   0  0  0  0  0  0  0  0  0  0  0  0
   -4.8019  -10.4814  -16.0947 C   0  0  2  0  0  0  0  0  0  0  0  0
   -6.0976  -10.3033  -15.5087 O   0  0  0  0  0  0  0  0  0  0  0  0
   -5.0079  -11.1388  -11.1740 C   0  0  0  0  0  0  0  0  0  0  0  0
   -3.9596  -10.0981  -11.5297 O   0  0  0  0  0  0  0  0  0  0  0  0
   -7.5970   -6.8003  -20.5499 C   0  0  0  0  0  0  0  0  0  0  0  0
   -6.2938   -6.1654  -20.4112 N   0  0  0  0  0  0  0  0  0  0  0  0
   -3.7146   -9.9644  -15.0847 C   0  0  1  0  0  0  0  0  0  0  0  0
   -3.8257  -10.7164  -13.9001 O   0  0  0  0  0  0  0  0  0  0  0  0
   -5.4316  -13.5206  -10.5628 C   0  0  0  0  0  0  0  0  0  0  0  0
   -1.6230  -14.2319  -10.9186 C   0  0  0  0  0  0  0  0  0  0  0  0
  1  2  1  6  0  0  0
  1  6  1  0  0  0  0
  1 21  1  0  0  0  0
  3  4  1  1  0  0  0
  3  8  1  0  0  0  0
  3 28  1  0  0  0  0
  5  9  1  0  0  0  0
  5 25  1  0  0  0  0
  5 29  1  6  0  0  0
  6  7  1  1  0  0  0
  6 11  1  0  0  0  0
  8 12  1  0  0  0  0
  9 10  1  6  0  0  0
  9 14  1  0  0  0  0
 11 16  1  0  0  0  0
 12 13  1  6  0  0  0
 12 17  1  0  0  0  0
 14 15  1  1  0  0  0
 14 18  1  0  0  0  0
 15 31  1  0  0  0  0
 16 20  1  0  0  0  0
 17  2  1  6  0  0  0
 17 22  1  0  0  0  0
 18 19  1  1  0  0  0
 18 24  1  0  0  0  0
 18 30  1  0  0  0  0
 20 21  1  0  0  0  0
 20 26  1  1  0  0  0
 22 23  1  1  0  0  0
 22 28  1  0  0  0  0
 24 25  1  0  0  0  0
 26 27  1  0  0  0  0
 28 29  1  1  0  0  0
M  END
>  <CHROM.1>
-160.61364742,-122.40335537,46.84173374,-166.11166561,-105.63326957,66.35840391
-4.63199184,-10.58057018,-15.63827931,1.96677684,-0.29839723,-1.04972827

>  <Name>
ligand

>  <RI>
0

>  <Rbt.Current_Directory>
/home/itssahil/PROJECTS/Mol_Feturizer/New_Systems/rnas/4F8U

>  <Rbt.Executable>
rbdock ($Id: //depot/dev/client3/rdock/2013.1/src/exe/rbdock.cxx#4 $)

>  <Rbt.Library>
libRbt.so (2013.1, Build901 2013/11/27)

>  <Rbt.Parameter_File>
/export/apps/rDock/src/rDock_2013.1_src/data/scripts/dock_solv.prm

>  <Rbt.Receptor>
prm/pocket_docking_2.prm

>  <SCORE>
-12.5997

>  <SCORE.INTER>
-11.9842

>  <SCORE.INTER.CONST>
1

>  <SCORE.INTER.POLAR>
0

>  <SCORE.INTER.ROT>
6

>  <SCORE.INTER.SOLV>
22.5283

>  <SCORE.INTER.VDW>
-23.0989

>  <SCORE.INTER.norm>
-0.386588

>  <SCORE.INTRA>
-0.635761

>  <SCORE.INTRA.DIHEDRAL>
-6.71334

>  <SCORE.INTRA.DIHEDRAL.0>
18.77

>  <SCORE.INTRA.POLAR>
0

>  <SCORE.INTRA.POLAR.0>
0

>  <SCORE.INTRA.REPUL>
0

>  <SCORE.INTRA.REPUL.0>
0

>  <SCORE.INTRA.SOLV>
-0.0349478

>  <SCORE.INTRA.SOLV.lig_0>
-77.2465

>  <SCORE.INTRA.VDW>
2.73838

>  <SCORE.INTRA.VDW.0>
-4.16072

>  <SCORE.INTRA.norm>
-0.0205084

>  <SCORE.RESTR>
0.0203239

>  <SCORE.RESTR.CAVITY>
0.0203239

>  <SCORE.RESTR.norm>
0.000655611

>  <SCORE.SYSTEM>
0

>  <SCORE.SYSTEM.CONST>
0

>  <SCORE.SYSTEM.DIHEDRAL>
0

>  <SCORE.SYSTEM.SOLV>
0

>  <SCORE.SYSTEM.norm>
0

>  <SCORE.heavy>
31

>  <SCORE.norm>
-0.406441

>  <RMSD>
0.767

$$$$
ligand
 OpenBabel11021811493D
libRbt.so/2013.1/901 2013/11/27
 31 33  0  0  0  0  0  0  0  0999 V2000
   -7.1043  -10.1310  -17.4279 C   0  0  2  0  0  0  0  0  0  0  0  0
   -5.7976  -10.7203  -17.3867 O   0  0  0  0  0  0  0  0  0  0  0  0
   -1.9166  -10.3006  -15.6302 C   0  0  2  0  0  0  0  0  0  0  0  0
   -0.7946   -9.7202  -14.9578 N   0  0  0  0  0  0  0  0  0  0  0  0
   -2.4567  -10.4853  -12.2422 C   0  0  2  0  0  0  0  0  0  0  0  0
   -8.0567  -11.2114  -18.0505 C   0  0  2  0  0  0  0  0  0  0  0  0
   -8.0114  -12.4288  -17.2482 N   0  0  0  0  0  0  0  0  0  0  0  0
   -2.2239   -9.4595  -16.9287 C   0  0  0  0  0  0  0  0  0  0  0  0
   -1.7383  -11.6434  -11.4833 C   0  0  2  0  0  0  0  0  0  0  0  0
   -0.6205  -12.0699  -12.2431 O   0  0  0  0  0  0  0  0  0  0  0  0
   -7.6297  -11.5061  -19.5306 C   0  0  0  0  0  0  0  0  0  0  0  0
   -3.4655  -10.1099  -17.6789 C   0  0  2  0  0  0  0  0  0  0  0  0
   -3.7647   -9.3266  -18.9004 N   0  0  0  0  0  0  0  0  0  0  0  0
   -2.7972  -12.8212  -11.3166 C   0  0  1  0  0  0  0  0  0  0  0  0
   -2.1754  -13.9984  -10.6204 N   0  0  0  0  0  0  0  0  0  0  0  0
   -7.3995  -10.1819  -20.3148 C   0  0  0  0  0  0  0  0  0  0  0  0
   -4.7279  -10.1217  -16.7068 C   0  0  2  0  0  0  0  0  0  0  0  0
   -4.0594  -12.2851  -10.4378 C   0  0  1  0  0  0  0  0  0  0  0  0
   -3.6671  -11.8628   -9.1460 O   0  0  0  0  0  0  0  0  0  0  0  0
   -7.1775   -9.0266  -19.6700 C   0  0  2  0  0  0  0  0  0  0  0  0
   -7.1386   -8.9167  -18.2364 O   0  0  0  0  0  0  0  0  0  0  0  0
   -4.3748  -10.9497  -15.4010 C   0  0  2  0  0  0  0  0  0  0  0  0
   -5.4948  -10.9472  -14.5069 O   0  0  0  0  0  0  0  0  0  0  0  0
   -4.7101  -11.0590  -11.1627 C   0  0  0  0  0  0  0  0  0  0  0  0
   -3.6498  -10.0101  -11.4534 O   0  0  0  0  0  0  0  0  0  0  0  0
   -6.9493   -7.7000  -20.4313 C   0  0  0  0  0  0  0  0  0  0  0  0
   -7.8346   -6.6743  -19.8979 N   0  0  0  0  0  0  0  0  0  0  0  0
   -3.1451  -10.2957  -14.6730 C   0  0  1  0  0  0  0  0  0  0  0  0
   -2.8596  -11.0593  -13.5256 O   0  0  0  0  0  0  0  0  0  0  0  0
   -5.1808  -13.3071  -10.1880 C   0  0  0  0  0  0  0  0  0  0  0  0
   -1.4922  -14.9823  -11.4814 C   0  0  0  0  0  0  0  0  0  0  0  0
  1  2  1  6  0  0  0
  1  6  1  0  0  0  0
  1 21  1  0  0  0  0
  3  4  1  1  0  0  0
  3  8  1  0  0  0  0
  3 28  1  0  0  0  0
  5  9  1  0  0  0  0
  5 25  1  0  0  0  0
  5 29  1  6  0  0  0
  6  7  1  1  0  0  0
  6 11  1  0  0  0  0
  8 12  1  0  0  0  0
  9 10  1  6  0  0  0
  9 14  1  0  0  0  0
 11 16  1  0  0  0  0
 12 13  1  6  0  0  0
 12 17  1  0  0  0  0
 14 15  1  1  0  0  0
 14 18  1  0  0  0  0
 15 31  1  0  0  0  0
 16 20  1  0  0  0  0
 17  2  1  6  0  0  0
 17 22  1  0  0  0  0
 18 19  1  1  0  0  0
 18 24  1  0  0  0  0
 18 30  1  0  0  0  0
 20 21  1  0  0  0  0
 20 26  1  1  0  0  0
 22 23  1  1  0  0  0
 22 28  1  0  0  0  0
 24 25  1  0  0  0  0
 26 27  1  0  0  0  0
 28 29  1  1  0  0  0
M  END
>  <CHROM.1>
-170.15034310,-158.78171975,-87.79533745,-131.74140029,129.17065378,99.87717501
-4.45746258,-10.82894845,-15.07537223,2.04101608,-0.25942867,-1.09231164

>  <Name>
ligand

>  <RI>
0

>  <Rbt.Current_Directory>
/home/itssahil/PROJECTS/Mol_Feturizer/New_Systems/rnas/4F8U

>  <Rbt.Executable>
rbdock ($Id: //depot/dev/client3/rdock/2013.1/src/exe/rbdock.cxx#4 $)

>  <Rbt.Library>
libRbt.so (2013.1, Build901 2013/11/27)

>  <Rbt.Parameter_File>
/export/apps/rDock/src/rDock_2013.1_src/data/scripts/dock_solv.prm

>  <Rbt.Receptor>
prm/pocket_docking_3.prm

>  <SCORE>
-14.528

>  <SCORE.INTER>
-13.8022

>  <SCORE.INTER.CONST>
1

>  <SCORE.INTER.POLAR>
0

>  <SCORE.INTER.ROT>
6

>  <SCORE.INTER.SOLV>
24.6745

>  <SCORE.INTER.VDW>
-25.0263

>  <SCORE.INTER.norm>
-0.445231

>  <SCORE.INTRA>
-0.725858

>  <SCORE.INTRA.DIHEDRAL>
-2.06096

>  <SCORE.INTRA.DIHEDRAL.0>
18.77

>  <SCORE.INTRA.POLAR>
0

>  <SCORE.INTRA.POLAR.0>
0

>  <SCORE.INTRA.REPUL>
0

>  <SCORE.INTRA.REPUL.0>
0

>  <SCORE.INTRA.SOLV>
0.699819

>  <SCORE.INTRA.SOLV.lig_0>
-77.2465

>  <SCORE.INTRA.VDW>
-0.045289

>  <SCORE.INTRA.VDW.0>
-4.16072

>  <SCORE.INTRA.norm>
-0.0234148

>  <SCORE.RESTR>
0

>  <SCORE.RESTR.CAVITY>
0

>  <SCORE.RESTR.norm>
0

>  <SCORE.SYSTEM>
0

>  <SCORE.SYSTEM.CONST>
0

>  <SCORE.SYSTEM.DIHEDRAL>
0

>  <SCORE.SYSTEM.SOLV>
0

>  <SCORE.SYSTEM.norm>
0

>  <SCORE.heavy>
31

>  <SCORE.norm>
-0.468646

>  <RMSD>
0.767

$$$$
ligand
 OpenBabel11021811493D
libRbt.so/2013.1/901 2013/11/27
 31 33  0  0  0  0  0  0  0  0999 V2000
   -7.0945  -10.1584  -17.3719 C   0  0  2  0  0  0  0  0  0  0  0  0
   -5.7740  -10.7174  -17.3847 O   0  0  0  0  0  0  0  0  0  0  0  0
   -1.8944  -10.3122  -15.6217 C   0  0  2  0  0  0  0  0  0  0  0  0
   -0.7711   -9.7358  -14.9478 N   0  0  0  0  0  0  0  0  0  0  0  0
   -2.4508  -10.4917  -12.2318 C   0  0  2  0  0  0  0  0  0  0  0  0
   -8.0376  -11.2386  -18.0088 C   0  0  2  0  0  0  0  0  0  0  0  0
   -7.9435  -12.4822  -17.2522 N   0  0  0  0  0  0  0  0  0  0  0  0
   -2.1960   -9.4707  -16.9214 C   0  0  0  0  0  0  0  0  0  0  0  0
   -1.7331  -11.6483  -11.4699 C   0  0  2  0  0  0  0  0  0  0  0  0
   -0.6094  -12.0702  -12.2236 O   0  0  0  0  0  0  0  0  0  0  0  0
   -7.6425  -11.4705  -19.5088 C   0  0  0  0  0  0  0  0  0  0  0  0
   -3.4389  -10.1166  -17.6733 C   0  0  2  0  0  0  0  0  0  0  0  0
   -3.7328   -9.3330  -18.8959 N   0  0  0  0  0  0  0  0  0  0  0  0
   -2.7891  -12.8297  -11.3110 C   0  0  1  0  0  0  0  0  0  0  0  0
   -2.1676  -14.0057  -10.6123 N   0  0  0  0  0  0  0  0  0  0  0  0
   -7.4632  -10.1143  -20.2504 C   0  0  0  0  0  0  0  0  0  0  0  0
   -4.7030  -10.1226  -16.7034 C   0  0  2  0  0  0  0  0  0  0  0  0
   -4.0583  -12.2988  -10.4390 C   0  0  1  0  0  0  0  0  0  0  0  0
   -3.6751  -11.8767   -9.1445 O   0  0  0  0  0  0  0  0  0  0  0  0
   -7.2512   -8.9775  -19.5703 C   0  0  2  0  0  0  0  0  0  0  0  0
   -7.1776   -8.9175  -18.1351 O   0  0  0  0  0  0  0  0  0  0  0  0
   -4.3555  -10.9511  -15.3963 C   0  0  2  0  0  0  0  0  0  0  0  0
   -5.4771  -10.9435  -14.5042 O   0  0  0  0  0  0  0  0  0  0  0  0
   -4.7086  -11.0739  -11.1664 C   0  0  0  0  0  0  0  0  0  0  0  0
   -3.6501  -10.0213  -11.4497 O   0  0  0  0  0  0  0  0  0  0  0  0
   -7.0733   -7.6198  -20.2890 C   0  0  0  0  0  0  0  0  0  0  0  0
   -7.8745   -6.6056  -19.6182 N   0  0  0  0  0  0  0  0  0  0  0  0
   -3.1245  -10.3016  -14.6667 C   0  0  1  0  0  0  0  0  0  0  0  0
   -2.8441  -11.0655  -13.5183 O   0  0  0  0  0  0  0  0  0  0  0  0
   -5.1778  -13.3248  -10.1971 C   0  0  0  0  0  0  0  0  0  0  0  0
   -1.4896  -14.9944  -11.4719 C   0  0  0  0  0  0  0  0  0  0  0  0
  1  2  1  6  0  0  0
  1  6  1  0  0  0  0
  1 21  1  0  0  0  0
  3  4  1  1  0  0  0
  3  8  1  0  0  0  0
  3 28  1  0  0  0  0
  5  9  1  0  0  0  0
  5 25  1  0  0  0  0
  5 29  1  6  0  0  0
  6  7  1  1  0  0  0
  6 11  1  0  0  0  0
  8 12  1  0  0  0  0
  9 10  1  6  0  0  0
  9 14  1  0  0  0  0
 11 16  1  0  0  0  0
 12 13  1  6  0  0  0
 12 17  1  0  0  0  0
 14 15  1  1  0  0  0
 14 18  1  0  0  0  0
 15 31  1  0  0  0  0
 16 20  1  0  0  0  0
 17  2  1  6  0  0  0
 17 22  1  0  0  0  0
 18 19  1  1  0  0  0
 18 24  1  0  0  0  0
 18 30  1  0  0  0  0
 20 21  1  0  0  0  0
 20 26  1  1  0  0  0
 22 23  1  1  0  0  0
 22 28  1  0  0  0  0
 24 25  1  0  0  0  0
 26 27  1  0  0  0  0
 28 29  1  1  0  0  0
M  END
>  <CHROM.1>
-169.71112858,-158.74353775,-88.47749531,-134.99673932,134.42046843,100.35035516
-4.45642547,-10.82821682,-15.04576067,2.04691233,-0.24871436,-1.08865867

>  <Name>
ligand

>  <RI>
0

>  <Rbt.Current_Directory>
/home/itssahil/PROJECTS/Mol_Feturizer/New_Systems/rnas/4F8U

>  <Rbt.Executable>
rbdock ($Id: //depot/dev/client3/rdock/2013.1/src/exe/rbdock.cxx#4 $)

>  <Rbt.Library>
libRbt.so (2013.1, Build901 2013/11/27)

>  <Rbt.Parameter_File>
/export/apps/rDock/src/rDock_2013.1_src/data/scripts/dock_solv.prm

>  <Rbt.Receptor>
prm/pocket_docking_3.prm

>  <SCORE>
-14.4592

>  <SCORE.INTER>
-13.6485

>  <SCORE.INTER.CONST>
1

>  <SCORE.INTER.POLAR>
0

>  <SCORE.INTER.ROT>
6

>  <SCORE.INTER.SOLV>
25.5711

>  <SCORE.INTER.VDW>
-25.2227

>  <SCORE.INTER.norm>
-0.440275

>  <SCORE.INTRA>
-0.810641

>  <SCORE.INTRA.DIHEDRAL>
-2.15739

>  <SCORE.INTRA.DIHEDRAL.0>
18.77

>  <SCORE.INTRA.POLAR>
0

>  <SCORE.INTRA.POLAR.0>
0

>  <SCORE.INTRA.REPUL>
0

>  <SCORE.INTRA.REPUL.0>
0

>  <SCORE.INTRA.SOLV>
0.516059

>  <SCORE.INTRA.SOLV.lig_0>
-77.2465

>  <SCORE.INTRA.VDW>
0.0100246

>  <SCORE.INTRA.VDW.0>
-4.16072

>  <SCORE.INTRA.norm>
-0.0261497

>  <SCORE.RESTR>
0

>  <SCORE.RESTR.CAVITY>
0

>  <SCORE.RESTR.norm>
0

>  <SCORE.SYSTEM>
0

>  <SCORE.SYSTEM.CONST>
0

>  <SCORE.SYSTEM.DIHEDRAL>
0

>  <SCORE.SYSTEM.SOLV>
0

>  <SCORE.SYSTEM.norm>
0

>  <SCORE.heavy>
31

>  <SCORE.norm>
-0.466425

>  <RMSD>
0.770

$$$$
ligand
 OpenBabel11021811493D
libRbt.so/2013.1/901 2013/11/27
 31 33  0  0  0  0  0  0  0  0999 V2000
   -6.8571   -9.7643  -17.7021 C   0  0  2  0  0  0  0  0  0  0  0  0
   -5.5003  -10.1553  -17.9527 O   0  0  0  0  0  0  0  0  0  0  0  0
   -1.8547  -10.3293  -15.7160 C   0  0  2  0  0  0  0  0  0  0  0  0
   -0.7414   -9.9209  -14.9148 N   0  0  0  0  0  0  0  0  0  0  0  0
   -3.8586  -10.4258  -12.5126 C   0  0  2  0  0  0  0  0  0  0  0  0
   -7.7621  -10.8093  -18.4443 C   0  0  2  0  0  0  0  0  0  0  0  0
   -7.4628  -12.1522  -17.9597 N   0  0  0  0  0  0  0  0  0  0  0  0
   -1.8472   -9.5021  -17.0590 C   0  0  0  0  0  0  0  0  0  0  0  0
   -3.1314  -11.1890  -11.3628 C   0  0  2  0  0  0  0  0  0  0  0  0
   -1.7658  -10.8097  -11.3483 O   0  0  0  0  0  0  0  0  0  0  0  0
   -7.5257  -10.7123  -19.9918 C   0  0  0  0  0  0  0  0  0  0  0  0
   -3.0797   -9.9622  -17.9515 C   0  0  2  0  0  0  0  0  0  0  0  0
   -3.0839   -9.1901  -19.2160 N   0  0  0  0  0  0  0  0  0  0  0  0
   -3.2876  -12.7453  -11.6625 C   0  0  1  0  0  0  0  0  0  0  0  0
   -2.5832  -13.5600  -10.6149 N   0  0  0  0  0  0  0  0  0  0  0  0
   -7.5636   -9.2308  -20.4662 C   0  0  0  0  0  0  0  0  0  0  0  0
   -4.4360   -9.7197  -17.1512 C   0  0  2  0  0  0  0  0  0  0  0  0
   -4.8696  -13.1327  -11.6675 C   0  0  1  0  0  0  0  0  0  0  0  0
   -5.4876  -12.8618  -10.4243 O   0  0  0  0  0  0  0  0  0  0  0  0
   -7.3816   -8.2229  -19.5998 C   0  0  2  0  0  0  0  0  0  0  0  0
   -7.1461   -8.4215  -18.1948 O   0  0  0  0  0  0  0  0  0  0  0  0
   -4.3973  -10.5415  -15.7953 C   0  0  2  0  0  0  0  0  0  0  0  0
   -5.6024  -10.3124  -15.0542 O   0  0  0  0  0  0  0  0  0  0  0  0
   -5.6054  -12.2857  -12.7599 C   0  0  0  0  0  0  0  0  0  0  0  0
   -5.3157  -10.8091  -12.5489 O   0  0  0  0  0  0  0  0  0  0  0  0
   -7.4184   -6.7443  -20.0514 C   0  0  0  0  0  0  0  0  0  0  0  0
   -6.6639   -6.5942  -21.2877 N   0  0  0  0  0  0  0  0  0  0  0  0
   -3.1731  -10.0767  -14.9264 C   0  0  1  0  0  0  0  0  0  0  0  0
   -3.1696  -10.8301  -13.7376 O   0  0  0  0  0  0  0  0  0  0  0  0
   -5.1942  -14.6092  -11.9486 C   0  0  0  0  0  0  0  0  0  0  0  0
   -1.4844  -14.4239  -11.0867 C   0  0  0  0  0  0  0  0  0  0  0  0
  1  2  1  6  0  0  0
  1  6  1  0  0  0  0
  1 21  1  0  0  0  0
  3  4  1  1  0  0  0
  3  8  1  0  0  0  0
  3 28  1  0  0  0  0
  5  9  1  0  0  0  0
  5 25  1  0  0  0  0
  5 29  1  6  0  0  0
  6  7  1  1  0  0  0
  6 11  1  0  0  0  0
  8 12  1  0  0  0  0
  9 10  1  6  0  0  0
  9 14  1  0  0  0  0
 11 16  1  0  0  0  0
 12 13  1  6  0  0  0
 12 17  1  0  0  0  0
 14 15  1  1  0  0  0
 14 18  1  0  0  0  0
 15 31  1  0  0  0  0
 16 20  1  0  0  0  0
 17  2  1  6  0  0  0
 17 22  1  0  0  0  0
 18 19  1  1  0  0  0
 18 24  1  0  0  0  0
 18 30  1  0  0  0  0
 20 21  1  0  0  0  0
 20 26  1  1  0  0  0
 22 23  1  1  0  0  0
 22 28  1  0  0  0  0
 24 25  1  0  0  0  0
 26 27  1  0  0  0  0
 28 29  1  1  0  0  0
M  END
>  <CHROM.1>
-160.54681415,-157.40468744,-118.71253495,-162.95080328,-43.98202361,150.44900518
-4.68929052,-10.65924403,-15.47153358,1.94370376,-0.28034149,-1.02221315

>  <Name>
ligand

>  <RI>
0

>  <Rbt.Current_Directory>
/home/itssahil/PROJECTS/Mol_Feturizer/New_Systems/rnas/4F8U

>  <Rbt.Executable>
rbdock ($Id: //depot/dev/client3/rdock/2013.1/src/exe/rbdock.cxx#4 $)

>  <Rbt.Library>
libRbt.so (2013.1, Build901 2013/11/27)

>  <Rbt.Parameter_File>
/export/apps/rDock/src/rDock_2013.1_src/data/scripts/dock_solv.prm

>  <Rbt.Receptor>
prm/pocket_docking_3.prm

>  <SCORE>
-13.5462

>  <SCORE.INTER>
-10.8174

>  <SCORE.INTER.CONST>
1

>  <SCORE.INTER.POLAR>
0

>  <SCORE.INTER.ROT>
6

>  <SCORE.INTER.SOLV>
20.7799

>  <SCORE.INTER.VDW>
-21.7382

>  <SCORE.INTER.norm>
-0.348947

>  <SCORE.INTRA>
-2.72886

>  <SCORE.INTRA.DIHEDRAL>
-5.47966

>  <SCORE.INTRA.DIHEDRAL.0>
18.77

>  <SCORE.INTRA.POLAR>
0

>  <SCORE.INTRA.POLAR.0>
0

>  <SCORE.INTRA.REPUL>
0

>  <SCORE.INTRA.REPUL.0>
0

>  <SCORE.INTRA.SOLV>
-1.84714

>  <SCORE.INTRA.SOLV.lig_0>
-77.2465

>  <SCORE.INTRA.VDW>
0.934537

>  <SCORE.INTRA.VDW.0>
-4.16072

>  <SCORE.INTRA.norm>
-0.0880278

>  <SCORE.RESTR>
0

>  <SCORE.RESTR.CAVITY>
0

>  <SCORE.RESTR.norm>
0

>  <SCORE.SYSTEM>
0

>  <SCORE.SYSTEM.CONST>
0

>  <SCORE.SYSTEM.DIHEDRAL>
0

>  <SCORE.SYSTEM.SOLV>
0

>  <SCORE.SYSTEM.norm>
0

>  <SCORE.heavy>
31

>  <SCORE.norm>
-0.436975

>  <RMSD>
0.778

$$$$
ligand
 OpenBabel11021811493D
libRbt.so/2013.1/901 2013/11/27
 31 33  0  0  0  0  0  0  0  0999 V2000
   -7.1108  -10.1777  -17.3582 C   0  0  2  0  0  0  0  0  0  0  0  0
   -5.7937  -10.7449  -17.3497 O   0  0  0  0  0  0  0  0  0  0  0  0
   -1.8940  -10.2910  -15.6438 C   0  0  2  0  0  0  0  0  0  0  0  0
   -0.7702   -9.7024  -14.9816 N   0  0  0  0  0  0  0  0  0  0  0  0
   -2.3911  -10.5147  -12.2483 C   0  0  2  0  0  0  0  0  0  0  0  0
   -8.0501  -11.2520  -18.0105 C   0  0  2  0  0  0  0  0  0  0  0  0
   -7.9759  -12.4963  -17.2528 N   0  0  0  0  0  0  0  0  0  0  0  0
   -2.2305   -9.4418  -16.9296 C   0  0  0  0  0  0  0  0  0  0  0  0
   -1.7039  -11.6869  -11.4822 C   0  0  2  0  0  0  0  0  0  0  0  0
   -0.5903  -12.1393  -12.2333 O   0  0  0  0  0  0  0  0  0  0  0  0
   -7.6321  -11.4861  -19.5040 C   0  0  0  0  0  0  0  0  0  0  0  0
   -3.4740  -10.1012  -17.6687 C   0  0  2  0  0  0  0  0  0  0  0  0
   -3.8006   -9.3103  -18.8782 N   0  0  0  0  0  0  0  0  0  0  0  0
   -2.7896  -12.8408  -11.3213 C   0  0  1  0  0  0  0  0  0  0  0  0
   -2.1990  -14.0301  -10.6186 N   0  0  0  0  0  0  0  0  0  0  0  0
   -7.4325  -10.1309  -20.2423 C   0  0  0  0  0  0  0  0  0  0  0  0
   -4.7223  -10.1387  -16.6791 C   0  0  2  0  0  0  0  0  0  0  0  0
   -4.0460  -12.2754  -10.4525 C   0  0  1  0  0  0  0  0  0  0  0  0
   -3.6538  -11.8595   -9.1587 O   0  0  0  0  0  0  0  0  0  0  0  0
   -7.2246   -8.9956  -19.5585 C   0  0  2  0  0  0  0  0  0  0  0  0
   -7.1739   -8.9362  -18.1223 O   0  0  0  0  0  0  0  0  0  0  0  0
   -4.3400  -10.9744  -15.3864 C   0  0  2  0  0  0  0  0  0  0  0  0
   -5.4473  -10.9951  -14.4768 O   0  0  0  0  0  0  0  0  0  0  0  0
   -4.6642  -11.0365  -11.1841 C   0  0  0  0  0  0  0  0  0  0  0  0
   -3.5790  -10.0118  -11.4689 O   0  0  0  0  0  0  0  0  0  0  0  0
   -7.0268   -7.6389  -20.2739 C   0  0  0  0  0  0  0  0  0  0  0  0
   -7.9000   -6.6403  -19.6733 N   0  0  0  0  0  0  0  0  0  0  0  0
   -3.1088  -10.3113  -14.6694 C   0  0  1  0  0  0  0  0  0  0  0  0
   -2.7973  -11.0819  -13.5336 O   0  0  0  0  0  0  0  0  0  0  0  0
   -5.1914  -13.2720  -10.2091 C   0  0  0  0  0  0  0  0  0  0  0  0
   -1.5410  -15.0358  -11.4741 C   0  0  0  0  0  0  0  0  0  0  0  0
  1  2  1  6  0  0  0
  1  6  1  0  0  0  0
  1 21  1  0  0  0  0
  3  4  1  1  0  0  0
  3  8  1  0  0  0  0
  3 28  1  0  0  0  0
  5  9  1  0  0  0  0
  5 25  1  0  0  0  0
  5 29  1  6  0  0  0
  6  7  1  1  0  0  0
  6 11  1  0  0  0  0
  8 12  1  0  0  0  0
  9 10  1  6  0  0  0
  9 14  1  0  0  0  0
 11 16  1  0  0  0  0
 12 13  1  6  0  0  0
 12 17  1  0  0  0  0
 14 15  1  1  0  0  0
 14 18  1  0  0  0  0
 15 31  1  0  0  0  0
 16 20  1  0  0  0  0
 17  2  1  6  0  0  0
 17 22  1  0  0  0  0
 18 19  1  1  0  0  0
 18 24  1  0  0  0  0
 18 30  1  0  0  0  0
 20 21  1  0  0  0  0
 20 26  1  1  0  0  0
 22 23  1  1  0  0  0
 22 28  1  0  0  0  0
 24 25  1  0  0  0  0
 26 27  1  0  0  0  0
 28 29  1  1  0  0  0
M  END
>  <CHROM.1>
-171.37096764,-161.40321421,-88.27159395,-132.24147996,130.62223167,100.23690902
-4.45200633,-10.83703826,-15.04847613,2.05065899,-0.26180975,-1.08128985

>  <Name>
ligand

>  <RI>
0

>  <Rbt.Current_Directory>
/home/itssahil/PROJECTS/Mol_Feturizer/New_Systems/rnas/4F8U

>  <Rbt.Executable>
rbdock ($Id: //depot/dev/client3/rdock/2013.1/src/exe/rbdock.cxx#4 $)

>  <Rbt.Library>
libRbt.so (2013.1, Build901 2013/11/27)

>  <Rbt.Parameter_File>
/export/apps/rDock/src/rDock_2013.1_src/data/scripts/dock_solv.prm

>  <Rbt.Receptor>
prm/pocket_docking_3.prm

>  <SCORE>
-14.4894

>  <SCORE.INTER>
-13.466

>  <SCORE.INTER.CONST>
1

>  <SCORE.INTER.POLAR>
0

>  <SCORE.INTER.ROT>
6

>  <SCORE.INTER.SOLV>
25.3277

>  <SCORE.INTER.VDW>
-25.0199

>  <SCORE.INTER.norm>
-0.434388

>  <SCORE.INTRA>
-1.02333

>  <SCORE.INTRA.DIHEDRAL>
-2.54005

>  <SCORE.INTRA.DIHEDRAL.0>
18.77

>  <SCORE.INTRA.POLAR>
0

>  <SCORE.INTRA.POLAR.0>
0

>  <SCORE.INTRA.REPUL>
0

>  <SCORE.INTRA.REPUL.0>
0

>  <SCORE.INTRA.SOLV>
0.602411

>  <SCORE.INTRA.SOLV.lig_0>
-77.2465

>  <SCORE.INTRA.VDW>
-0.054509

>  <SCORE.INTRA.VDW.0>
-4.16072

>  <SCORE.INTRA.norm>
-0.0330105

>  <SCORE.RESTR>
0

>  <SCORE.RESTR.CAVITY>
0

>  <SCORE.RESTR.norm>
0

>  <SCORE.SYSTEM>
0

>  <SCORE.SYSTEM.CONST>
0

>  <SCORE.SYSTEM.DIHEDRAL>
0

>  <SCORE.SYSTEM.SOLV>
0

>  <SCORE.SYSTEM.norm>
0

>  <SCORE.heavy>
31

>  <SCORE.norm>
-0.467398

>  <RMSD>
0.798

$$$$
ligand
 OpenBabel11021811493D
libRbt.so/2013.1/901 2013/11/27
 31 33  0  0  0  0  0  0  0  0999 V2000
   -6.9984  -10.1374  -17.4788 C   0  0  2  0  0  0  0  0  0  0  0  0
   -5.7017  -10.7428  -17.3869 O   0  0  0  0  0  0  0  0  0  0  0  0
   -1.7687  -10.2093  -15.7836 C   0  0  2  0  0  0  0  0  0  0  0  0
   -0.6445   -9.6026  -15.1385 N   0  0  0  0  0  0  0  0  0  0  0  0
   -2.1997  -10.5405  -12.3686 C   0  0  2  0  0  0  0  0  0  0  0  0
   -7.9352  -11.2001  -18.1536 C   0  0  2  0  0  0  0  0  0  0  0  0
   -7.9390  -12.4259  -17.3629 N   0  0  0  0  0  0  0  0  0  0  0  0
   -2.1702   -9.3372  -17.0351 C   0  0  0  0  0  0  0  0  0  0  0  0
   -1.5562  -11.7347  -11.5986 C   0  0  2  0  0  0  0  0  0  0  0  0
   -0.4322  -12.2008  -12.3255 O   0  0  0  0  0  0  0  0  0  0  0  0
   -7.4473  -11.4851  -19.6167 C   0  0  0  0  0  0  0  0  0  0  0  0
   -3.4140  -10.0164  -17.7555 C   0  0  2  0  0  0  0  0  0  0  0  0
   -3.8015   -9.2044  -18.9327 N   0  0  0  0  0  0  0  0  0  0  0  0
   -2.6683  -12.8684  -11.4798 C   0  0  1  0  0  0  0  0  0  0  0  0
   -2.1200  -14.0771  -10.7758 N   0  0  0  0  0  0  0  0  0  0  0  0
   -7.1678  -10.1560  -20.3762 C   0  0  0  0  0  0  0  0  0  0  0  0
   -4.6302  -10.1206  -16.7314 C   0  0  2  0  0  0  0  0  0  0  0  0
   -3.9358  -12.2877  -10.6377 C   0  0  1  0  0  0  0  0  0  0  0  0
   -3.5699  -11.8943   -9.3292 O   0  0  0  0  0  0  0  0  0  0  0  0
   -6.9608   -9.0100  -19.7103 C   0  0  2  0  0  0  0  0  0  0  0  0
   -6.9833   -8.9148  -18.2753 O   0  0  0  0  0  0  0  0  0  0  0  0
   -4.1832  -10.9778  -15.4740 C   0  0  2  0  0  0  0  0  0  0  0  0
   -5.2614  -11.0585  -14.5333 O   0  0  0  0  0  0  0  0  0  0  0  0
   -4.5100  -11.0287  -11.3707 C   0  0  0  0  0  0  0  0  0  0  0  0
   -3.3977  -10.0227  -11.6149 O   0  0  0  0  0  0  0  0  0  0  0  0
   -6.6842   -7.6787  -20.4471 C   0  0  0  0  0  0  0  0  0  0  0  0
   -7.7591   -6.7364  -20.1693 N   0  0  0  0  0  0  0  0  0  0  0  0
   -2.9524  -10.2948  -14.7752 C   0  0  1  0  0  0  0  0  0  0  0  0
   -2.5828  -11.0851  -13.6708 O   0  0  0  0  0  0  0  0  0  0  0  0
   -5.1067  -13.2639  -10.4361 C   0  0  0  0  0  0  0  0  0  0  0  0
   -1.4212  -15.0652  -11.6194 C   0  0  0  0  0  0  0  0  0  0  0  0
  1  2  1  6  0  0  0
  1  6  1  0  0  0  0
  1 21  1  0  0  0  0
  3  4  1  1  0  0  0
  3  8  1  0  0  0  0
  3 28  1  0  0  0  0
  5  9  1  0  0  0  0
  5 25  1  0  0  0  0
  5 29  1  6  0  0  0
  6  7  1  1  0  0  0
  6 11  1  0  0  0  0
  8 12  1  0  0  0  0
  9 10  1  6  0  0  0
  9 14  1  0  0  0  0
 11 16  1  0  0  0  0
 12 13  1  6  0  0  0
 12 17  1  0  0  0  0
 14 15  1  1  0  0  0
 14 18  1  0  0  0  0
 15 31  1  0  0  0  0
 16 20  1  0  0  0  0
 17  2  1  6  0  0  0
 17 22  1  0  0  0  0
 18 19  1  1  0  0  0
 18 24  1  0  0  0  0
 18 30  1  0  0  0  0
 20 21  1  0  0  0  0
 20 26  1  6  0  0  0
 22 23  1  1  0  0  0
 22 28  1  0  0  0  0
 24 25  1  0  0  0  0
 26 27  1  0  0  0  0
 28 29  1  1  0  0  0
M  END
>  <CHROM.1>
-174.57596347,-166.69161988,-86.36169547,-124.48746249,116.51211407,102.39443144
-4.31111031,-10.83259162,-15.18756036,2.04924981,-0.29150834,-1.06326286

>  <Name>
ligand

>  <RI>
0

>  <Rbt.Current_Directory>
/home/itssahil/PROJECTS/Mol_Feturizer/New_Systems/rnas/4F8U

>  <Rbt.Executable>
rbdock ($Id: //depot/dev/client3/rdock/2013.1/src/exe/rbdock.cxx#4 $)

>  <Rbt.Library>
libRbt.so (2013.1, Build901 2013/11/27)

>  <Rbt.Parameter_File>
/export/apps/rDock/src/rDock_2013.1_src/data/scripts/dock_solv.prm

>  <Rbt.Receptor>
prm/pocket_docking_3.prm

>  <SCORE>
-14.4054

>  <SCORE.INTER>
-13.2997

>  <SCORE.INTER.CONST>
1

>  <SCORE.INTER.POLAR>
0

>  <SCORE.INTER.ROT>
6

>  <SCORE.INTER.SOLV>
23.1427

>  <SCORE.INTER.VDW>
-24.1807

>  <SCORE.INTER.norm>
-0.429023

>  <SCORE.INTRA>
-1.10566

>  <SCORE.INTRA.DIHEDRAL>
-2.72794

>  <SCORE.INTRA.DIHEDRAL.0>
18.77

>  <SCORE.INTRA.POLAR>
0

>  <SCORE.INTRA.POLAR.0>
0

>  <SCORE.INTRA.REPUL>
0

>  <SCORE.INTRA.REPUL.0>
0

>  <SCORE.INTRA.SOLV>
0.904564

>  <SCORE.INTRA.SOLV.lig_0>
-77.2465

>  <SCORE.INTRA.VDW>
-0.193969

>  <SCORE.INTRA.VDW.0>
-4.16072

>  <SCORE.INTRA.norm>
-0.0356664

>  <SCORE.RESTR>
0

>  <SCORE.RESTR.CAVITY>
0

>  <SCORE.RESTR.norm>
0

>  <SCORE.SYSTEM>
0

>  <SCORE.SYSTEM.CONST>
0

>  <SCORE.SYSTEM.DIHEDRAL>
0

>  <SCORE.SYSTEM.SOLV>
0

>  <SCORE.SYSTEM.norm>
0

>  <SCORE.heavy>
31

>  <SCORE.norm>
-0.464689

>  <RMSD>
0.807

$$$$
ligand
 OpenBabel11021811493D
libRbt.so/2013.1/901 2013/11/27
 31 33  0  0  0  0  0  0  0  0999 V2000
   -6.7980   -9.7958  -17.8389 C   0  0  2  0  0  0  0  0  0  0  0  0
   -5.4295  -10.1290  -18.1084 O   0  0  0  0  0  0  0  0  0  0  0  0
   -1.7789  -10.1824  -15.8737 C   0  0  2  0  0  0  0  0  0  0  0  0
   -0.6742   -9.7352  -15.0814 N   0  0  0  0  0  0  0  0  0  0  0  0
   -3.8320  -10.3012  -12.6874 C   0  0  2  0  0  0  0  0  0  0  0  0
   -7.6691  -10.8472  -18.6120 C   0  0  2  0  0  0  0  0  0  0  0  0
   -7.3191  -12.1940  -18.1742 N   0  0  0  0  0  0  0  0  0  0  0  0
   -1.7908   -9.3795  -17.2313 C   0  0  0  0  0  0  0  0  0  0  0  0
   -3.1093  -11.0224  -11.5080 C   0  0  2  0  0  0  0  0  0  0  0  0
   -1.7656  -10.5756  -11.4476 O   0  0  0  0  0  0  0  0  0  0  0  0
   -7.4448  -10.6900  -20.1563 C   0  0  0  0  0  0  0  0  0  0  0  0
   -3.0137   -9.8827  -18.1138 C   0  0  2  0  0  0  0  0  0  0  0  0
   -3.0361   -9.1338  -19.3920 N   0  0  0  0  0  0  0  0  0  0  0  0
   -3.1775  -12.5858  -11.8035 C   0  0  1  0  0  0  0  0  0  0  0  0
   -2.4714  -13.3599  -10.7267 N   0  0  0  0  0  0  0  0  0  0  0  0
   -7.5385   -9.1957  -20.5803 C   0  0  0  0  0  0  0  0  0  0  0  0
   -4.3743   -9.6557  -17.3163 C   0  0  2  0  0  0  0  0  0  0  0  0
   -4.7372  -13.0513  -11.8621 C   0  0  1  0  0  0  0  0  0  0  0  0
   -5.4118  -12.8060  -10.6432 O   0  0  0  0  0  0  0  0  0  0  0  0
   -7.3880   -8.2116  -19.6812 C   0  0  2  0  0  0  0  0  0  0  0  0
   -7.1378   -8.4486  -18.2848 O   0  0  0  0  0  0  0  0  0  0  0  0
   -4.3163  -10.4519  -15.9458 C   0  0  2  0  0  0  0  0  0  0  0  0
   -5.5254  -10.2360  -15.2073 O   0  0  0  0  0  0  0  0  0  0  0  0
   -5.4747  -12.2467  -12.9850 C   0  0  0  0  0  0  0  0  0  0  0  0
   -5.2661  -10.7567  -12.7729 O   0  0  0  0  0  0  0  0  0  0  0  0
   -7.4803   -6.7209  -20.0825 C   0  0  0  0  0  0  0  0  0  0  0  0
   -6.1517   -6.2213  -20.4074 N   0  0  0  0  0  0  0  0  0  0  0  0
   -3.1018   -9.9446  -15.0870 C   0  0  1  0  0  0  0  0  0  0  0  0
   -3.0807  -10.6762  -13.8848 O   0  0  0  0  0  0  0  0  0  0  0  0
   -4.9782  -14.5434  -12.1455 C   0  0  0  0  0  0  0  0  0  0  0  0
   -1.5100  -14.3831  -11.1794 C   0  0  0  0  0  0  0  0  0  0  0  0
  1  2  1  6  0  0  0
  1  6  1  0  0  0  0
  1 21  1  0  0  0  0
  3  4  1  1  0  0  0
  3  8  1  0  0  0  0
  3 28  1  0  0  0  0
  5  9  1  0  0  0  0
  5 25  1  0  0  0  0
  5 29  1  6  0  0  0
  6  7  1  1  0  0  0
  6 11  1  0  0  0  0
  8 12  1  0  0  0  0
  9 10  1  6  0  0  0
  9 14  1  0  0  0  0
 11 16  1  0  0  0  0
 12 13  1  6  0  0  0
 12 17  1  0  0  0  0
 14 15  1  1  0  0  0
 14 18  1  0  0  0  0
 15 31  1  0  0  0  0
 16 20  1  0  0  0  0
 17  2  1  6  0  0  0
 17 22  1  0  0  0  0
 18 19  1  1  0  0  0
 18 24  1  0  0  0  0
 18 30  1  0  0  0  0
 20 21  1  0  0  0  0
 20 26  1  1  0  0  0
 22 23  1  1  0  0  0
 22 28  1  0  0  0  0
 24 25  1  0  0  0  0
 26 27  1  0  0  0  0
 28 29  1  1  0  0  0
M  END
>  <CHROM.1>
-162.13953654,-158.83312349,-131.29488830,-164.86529176,-92.04327048,153.70298243
-4.61022515,-10.57297683,-15.59143912,1.95468541,-0.32565422,-1.00203012

>  <Name>
ligand

>  <RI>
0

>  <Rbt.Current_Directory>
/home/itssahil/PROJECTS/Mol_Feturizer/New_Systems/rnas/4F8U

>  <Rbt.Executable>
rbdock ($Id: //depot/dev/client3/rdock/2013.1/src/exe/rbdock.cxx#4 $)

>  <Rbt.Library>
libRbt.so (2013.1, Build901 2013/11/27)

>  <Rbt.Parameter_File>
/export/apps/rDock/src/rDock_2013.1_src/data/scripts/dock_solv.prm

>  <Rbt.Receptor>
prm/pocket_docking_3.prm

>  <SCORE>
-13.8536

>  <SCORE.INTER>
-9.84636

>  <SCORE.INTER.CONST>
1

>  <SCORE.INTER.POLAR>
0

>  <SCORE.INTER.ROT>
6

>  <SCORE.INTER.SOLV>
23.6585

>  <SCORE.INTER.VDW>
-22.0504

>  <SCORE.INTER.norm>
-0.317625

>  <SCORE.INTRA>
-4.00729

>  <SCORE.INTRA.DIHEDRAL>
-7.699

>  <SCORE.INTRA.DIHEDRAL.0>
18.77

>  <SCORE.INTRA.POLAR>
0

>  <SCORE.INTRA.POLAR.0>
0

>  <SCORE.INTRA.REPUL>
0

>  <SCORE.INTRA.REPUL.0>
0

>  <SCORE.INTRA.SOLV>
-2.16684

>  <SCORE.INTRA.SOLV.lig_0>
-77.2465

>  <SCORE.INTRA.VDW>
0.925633

>  <SCORE.INTRA.VDW.0>
-4.16072

>  <SCORE.INTRA.norm>
-0.129267

>  <SCORE.RESTR>
0

>  <SCORE.RESTR.CAVITY>
0

>  <SCORE.RESTR.norm>
0

>  <SCORE.SYSTEM>
0

>  <SCORE.SYSTEM.CONST>
0

>  <SCORE.SYSTEM.DIHEDRAL>
0

>  <SCORE.SYSTEM.SOLV>
0

>  <SCORE.SYSTEM.norm>
0

>  <SCORE.heavy>
31

>  <SCORE.norm>
-0.446892

>  <RMSD>
0.820

$$$$
ligand
 OpenBabel11021811493D
libRbt.so/2013.1/901 2013/11/27
 31 33  0  0  0  0  0  0  0  0999 V2000
   -7.5351  -11.2335  -17.6033 C   0  0  2  0  0  0  0  0  0  0  0  0
   -6.1504  -11.5788  -17.4627 O   0  0  0  0  0  0  0  0  0  0  0  0
   -2.4394  -10.2721  -15.7761 C   0  0  2  0  0  0  0  0  0  0  0  0
   -1.4708   -9.4495  -15.1180 N   0  0  0  0  0  0  0  0  0  0  0  0
   -2.6063  -10.5850  -12.4708 C   0  0  2  0  0  0  0  0  0  0  0  0
   -8.2413  -12.4865  -18.2305 C   0  0  2  0  0  0  0  0  0  0  0  0
   -8.0333  -13.6490  -17.3742 N   0  0  0  0  0  0  0  0  0  0  0  0
   -2.9640   -9.5165  -17.0574 C   0  0  0  0  0  0  0  0  0  0  0  0
   -1.8312  -11.6935  -11.6939 C   0  0  2  0  0  0  0  0  0  0  0  0
   -0.7925  -12.1945  -12.5179 O   0  0  0  0  0  0  0  0  0  0  0  0
   -7.6764  -12.7494  -19.6698 C   0  0  0  0  0  0  0  0  0  0  0  0
   -4.0340  -10.4346  -17.7920 C   0  0  2  0  0  0  0  0  0  0  0  0
   -4.5354   -9.7339  -18.9972 N   0  0  0  0  0  0  0  0  0  0  0  0
   -2.8807  -12.8379  -11.3404 C   0  0  1  0  0  0  0  0  0  0  0  0
   -2.2078  -13.9687  -10.6154 N   0  0  0  0  0  0  0  0  0  0  0  0
   -7.6336  -11.4322  -20.4972 C   0  0  0  0  0  0  0  0  0  0  0  0
   -5.2368  -10.7508  -16.7959 C   0  0  2  0  0  0  0  0  0  0  0  0
   -4.0511  -12.2163  -10.3935 C   0  0  1  0  0  0  0  0  0  0  0  0
   -3.5369  -11.7034   -9.1797 O   0  0  0  0  0  0  0  0  0  0  0  0
   -7.6595  -10.2351  -19.8923 C   0  0  2  0  0  0  0  0  0  0  0  0
   -7.7313  -10.0724  -18.4650 O   0  0  0  0  0  0  0  0  0  0  0  0
   -4.6706  -11.4830  -15.5079 C   0  0  2  0  0  0  0  0  0  0  0  0
   -5.7401  -11.7513  -14.5924 O   0  0  0  0  0  0  0  0  0  0  0  0
   -4.7550  -11.0384  -11.1481 C   0  0  0  0  0  0  0  0  0  0  0  0
   -3.7168  -10.0320  -11.6150 O   0  0  0  0  0  0  0  0  0  0  0  0
   -7.6205   -8.9151  -20.6972 C   0  0  0  0  0  0  0  0  0  0  0  0
   -6.5251   -8.0846  -20.2169 N   0  0  0  0  0  0  0  0  0  0  0  0
   -3.6135  -10.5640  -14.7954 C   0  0  1  0  0  0  0  0  0  0  0  0
   -3.1316  -11.2482  -13.6637 O   0  0  0  0  0  0  0  0  0  0  0  0
   -5.1537  -13.1981   -9.9638 C   0  0  0  0  0  0  0  0  0  0  0  0
   -1.4913  -14.9492  -11.4529 C   0  0  0  0  0  0  0  0  0  0  0  0
  1  2  1  6  0  0  0
  1  6  1  0  0  0  0
  1 21  1  0  0  0  0
  3  4  1  1  0  0  0
  3  8  1  0  0  0  0
  3 28  1  0  0  0  0
  5  9  1  0  0  0  0
  5 25  1  0  0  0  0
  5 29  1  6  0  0  0
  6  7  1  1  0  0  0
  6 11  1  0  0  0  0
  8 12  1  0  0  0  0
  9 10  1  6  0  0  0
  9 14  1  0  0  0  0
 11 16  1  0  0  0  0
 12 13  1  6  0  0  0
 12 17  1  0  0  0  0
 14 15  1  1  0  0  0
 14 18  1  0  0  0  0
 15 31  1  0  0  0  0
 16 20  1  0  0  0  0
 17  2  1  6  0  0  0
 17 22  1  0  0  0  0
 18 19  1  1  0  0  0
 18 24  1  0  0  0  0
 18 30  1  0  0  0  0
 20 21  1  0  0  0  0
 20 26  1  6  0  0  0
 22 23  1  1  0  0  0
 22 28  1  0  0  0  0
 24 25  1  0  0  0  0
 26 27  1  0  0  0  0
 28 29  1  1  0  0  0
M  END
>  <CHROM.1>
-172.72989126,-163.99682369,-81.42879037,-124.35353491,-125.66569013,87.68090223
-4.68830120,-11.30247571,-15.19496491,2.12275748,-0.52963319,-1.06474581

>  <Name>
ligand

>  <RI>
0

>  <Rbt.Current_Directory>
/home/itssahil/PROJECTS/Mol_Feturizer/New_Systems/rnas/4F8U

>  <Rbt.Executable>
rbdock ($Id: //depot/dev/client3/rdock/2013.1/src/exe/rbdock.cxx#4 $)

>  <Rbt.Library>
libRbt.so (2013.1, Build901 2013/11/27)

>  <Rbt.Parameter_File>
/export/apps/rDock/src/rDock_2013.1_src/data/scripts/dock_solv.prm

>  <Rbt.Receptor>
prm/pocket_docking_5.prm

>  <SCORE>
-15.2749

>  <SCORE.INTER>
-14.4172

>  <SCORE.INTER.CONST>
1

>  <SCORE.INTER.POLAR>
0

>  <SCORE.INTER.ROT>
6

>  <SCORE.INTER.SOLV>
16.0683

>  <SCORE.INTER.VDW>
-22.5676

>  <SCORE.INTER.norm>
-0.46507

>  <SCORE.INTRA>
-0.857696

>  <SCORE.INTRA.DIHEDRAL>
-4.98738

>  <SCORE.INTRA.DIHEDRAL.0>
18.77

>  <SCORE.INTRA.POLAR>
0

>  <SCORE.INTRA.POLAR.0>
0

>  <SCORE.INTRA.REPUL>
0

>  <SCORE.INTRA.REPUL.0>
0

>  <SCORE.INTRA.SOLV>
3.27708

>  <SCORE.INTRA.SOLV.lig_0>
-77.2465

>  <SCORE.INTRA.VDW>
-0.00254602

>  <SCORE.INTRA.VDW.0>
-4.16072

>  <SCORE.INTRA.norm>
-0.0276676

>  <SCORE.RESTR>
0

>  <SCORE.RESTR.CAVITY>
0

>  <SCORE.RESTR.norm>
0

>  <SCORE.SYSTEM>
0

>  <SCORE.SYSTEM.CONST>
0

>  <SCORE.SYSTEM.DIHEDRAL>
0

>  <SCORE.SYSTEM.SOLV>
0

>  <SCORE.SYSTEM.norm>
0

>  <SCORE.heavy>
31

>  <SCORE.norm>
-0.492738

>  <RMSD>
1.326

$$$$
ligand
 OpenBabel11021811493D
libRbt.so/2013.1/901 2013/11/27
 31 33  0  0  0  0  0  0  0  0999 V2000
   -6.8047  -10.6957  -18.0669 C   0  0  2  0  0  0  0  0  0  0  0  0
   -5.3858  -10.8339  -18.2215 O   0  0  0  0  0  0  0  0  0  0  0  0
   -1.9345  -10.7628  -15.6902 C   0  0  2  0  0  0  0  0  0  0  0  0
   -0.9750  -10.3142  -14.7278 N   0  0  0  0  0  0  0  0  0  0  0  0
   -2.4914  -11.6242  -12.7316 C   0  0  2  0  0  0  0  0  0  0  0  0
   -7.4595  -11.6170  -19.1552 C   0  0  2  0  0  0  0  0  0  0  0  0
   -7.0032  -12.9910  -18.9764 N   0  0  0  0  0  0  0  0  0  0  0  0
   -1.9895   -9.7255  -16.8772 C   0  0  0  0  0  0  0  0  0  0  0  0
   -2.7575  -12.8978  -11.8711 C   0  0  2  0  0  0  0  0  0  0  0  0
   -2.3244  -14.0397  -12.5903 O   0  0  0  0  0  0  0  0  0  0  0  0
   -7.0916  -11.0921  -20.5866 C   0  0  0  0  0  0  0  0  0  0  0  0
   -3.0498  -10.2289  -17.9494 C   0  0  2  0  0  0  0  0  0  0  0  0
   -3.1113   -9.2608  -19.0692 N   0  0  0  0  0  0  0  0  0  0  0  0
   -4.3250  -12.9577  -11.5965 C   0  0  1  0  0  0  0  0  0  0  0  0
   -4.6766  -14.1799  -10.7966 N   0  0  0  0  0  0  0  0  0  0  0  0
   -7.3135   -9.5551  -20.6868 C   0  0  0  0  0  0  0  0  0  0  0  0
   -4.4793  -10.3675  -17.2594 C   0  0  2  0  0  0  0  0  0  0  0  0
   -4.7741  -11.6288  -10.7687 C   0  0  1  0  0  0  0  0  0  0  0  0
   -4.1143  -11.5309   -9.5213 O   0  0  0  0  0  0  0  0  0  0  0  0
   -7.3758   -8.7926  -19.5849 C   0  0  2  0  0  0  0  0  0  0  0  0
   -7.2500   -9.3185  -18.2520 O   0  0  0  0  0  0  0  0  0  0  0  0
   -4.3810  -11.3939  -16.0542 C   0  0  2  0  0  0  0  0  0  0  0  0
   -5.6558  -11.5090  -15.4094 O   0  0  0  0  0  0  0  0  0  0  0  0
   -4.4099  -10.3537  -11.6016 C   0  0  0  0  0  0  0  0  0  0  0  0
   -2.9410  -10.3928  -11.9881 O   0  0  0  0  0  0  0  0  0  0  0  0
   -7.5983   -7.2642  -19.6637 C   0  0  0  0  0  0  0  0  0  0  0  0
   -6.5155   -6.6534  -20.4219 N   0  0  0  0  0  0  0  0  0  0  0  0
   -3.3280  -10.8832  -15.0053 C   0  0  1  0  0  0  0  0  0  0  0  0
   -3.2655  -11.8202  -13.9569 O   0  0  0  0  0  0  0  0  0  0  0  0
   -6.2697  -11.5301  -10.4254 C   0  0  0  0  0  0  0  0  0  0  0  0
   -5.7732  -15.0142  -11.3236 C   0  0  0  0  0  0  0  0  0  0  0  0
  1  2  1  6  0  0  0
  1  6  1  0  0  0  0
  1 21  1  0  0  0  0
  3  4  1  1  0  0  0
  3  8  1  0  0  0  0
  3 28  1  0  0  0  0
  5  9  1  0  0  0  0
  5 25  1  0  0  0  0
  5 29  1  6  0  0  0
  6  7  1  6  0  0  0
  6 11  1  0  0  0  0
  8 12  1  0  0  0  0
  9 10  1  6  0  0  0
  9 14  1  0  0  0  0
 11 16  1  0  0  0  0
 12 13  1  6  0  0  0
 12 17  1  0  0  0  0
 14 15  1  1  0  0  0
 14 18  1  0  0  0  0
 15 31  1  0  0  0  0
 16 20  1  0  0  0  0
 17  2  1  6  0  0  0
 17 22  1  0  0  0  0
 18 19  1  1  0  0  0
 18 24  1  0  0  0  0
 18 30  1  0  0  0  0
 20 21  1  0  0  0  0
 20 26  1  1  0  0  0
 22 23  1  1  0  0  0
 22 28  1  0  0  0  0
 24 25  1  0  0  0  0
 26 27  1  0  0  0  0
 28 29  1  1  0  0  0
M  END
>  <CHROM.1>
-167.12515641,178.69207801,-129.62480666,-160.97459774,-60.07598964,66.99184639
-4.74065201,-11.02321533,-15.46185543,1.87818538,-0.32492876,-1.12098769

>  <Name>
ligand

>  <RI>
0

>  <Rbt.Current_Directory>
/home/itssahil/PROJECTS/Mol_Feturizer/New_Systems/rnas/4F8U

>  <Rbt.Executable>
rbdock ($Id: //depot/dev/client3/rdock/2013.1/src/exe/rbdock.cxx#4 $)

>  <Rbt.Library>
libRbt.so (2013.1, Build901 2013/11/27)

>  <Rbt.Parameter_File>
/export/apps/rDock/src/rDock_2013.1_src/data/scripts/dock_solv.prm

>  <Rbt.Receptor>
prm/pocket_docking_2.prm

>  <SCORE>
-13.4818

>  <SCORE.INTER>
-7.99951

>  <SCORE.INTER.CONST>
1

>  <SCORE.INTER.POLAR>
0

>  <SCORE.INTER.ROT>
6

>  <SCORE.INTER.SOLV>
17.4635

>  <SCORE.INTER.VDW>
-18.7542

>  <SCORE.INTER.norm>
-0.258049

>  <SCORE.INTRA>
-5.48228

>  <SCORE.INTRA.DIHEDRAL>
-11.363

>  <SCORE.INTRA.DIHEDRAL.0>
18.77

>  <SCORE.INTRA.POLAR>
0

>  <SCORE.INTRA.POLAR.0>
0

>  <SCORE.INTRA.REPUL>
0

>  <SCORE.INTRA.REPUL.0>
0

>  <SCORE.INTRA.SOLV>
-1.35394

>  <SCORE.INTRA.SOLV.lig_0>
-77.2465

>  <SCORE.INTRA.VDW>
0.876182

>  <SCORE.INTRA.VDW.0>
-4.16072

>  <SCORE.INTRA.norm>
-0.176848

>  <SCORE.RESTR>
0

>  <SCORE.RESTR.CAVITY>
0

>  <SCORE.RESTR.norm>
0

>  <SCORE.SYSTEM>
0

>  <SCORE.SYSTEM.CONST>
0

>  <SCORE.SYSTEM.DIHEDRAL>
0

>  <SCORE.SYSTEM.SOLV>
0

>  <SCORE.SYSTEM.norm>
0

>  <SCORE.heavy>
31

>  <SCORE.norm>
-0.434896

>  <RMSD>
1.477

$$$$
ligand
 OpenBabel11021811493D
libRbt.so/2013.1/901 2013/11/27
 31 33  0  0  0  0  0  0  0  0999 V2000
   -6.9276  -10.5991  -18.2461 C   0  0  2  0  0  0  0  0  0  0  0  0
   -5.5136  -10.7878  -18.3927 O   0  0  0  0  0  0  0  0  0  0  0  0
   -1.9430  -10.5535  -16.0432 C   0  0  2  0  0  0  0  0  0  0  0  0
   -0.9672  -10.0705  -15.1146 N   0  0  0  0  0  0  0  0  0  0  0  0
   -2.1710  -11.6135  -13.1665 C   0  0  2  0  0  0  0  0  0  0  0  0
   -7.6068  -11.4589  -19.3692 C   0  0  2  0  0  0  0  0  0  0  0  0
   -7.2060  -12.8546  -19.2311 N   0  0  0  0  0  0  0  0  0  0  0  0
   -2.1375   -9.4805  -17.1829 C   0  0  0  0  0  0  0  0  0  0  0  0
   -2.3732  -12.8867  -12.2883 C   0  0  2  0  0  0  0  0  0  0  0  0
   -2.0734  -14.0348  -13.0635 O   0  0  0  0  0  0  0  0  0  0  0  0
   -7.2046  -10.9032  -20.7796 C   0  0  0  0  0  0  0  0  0  0  0  0
   -3.2159  -10.0217  -18.2181 C   0  0  2  0  0  0  0  0  0  0  0  0
   -3.4082   -9.0206  -19.2932 N   0  0  0  0  0  0  0  0  0  0  0  0
   -3.8957  -12.8959  -11.8213 C   0  0  1  0  0  0  0  0  0  0  0  0
   -4.1885  -14.1142  -10.9921 N   0  0  0  0  0  0  0  0  0  0  0  0
   -7.3656   -9.3563  -20.8321 C   0  0  0  0  0  0  0  0  0  0  0  0
   -4.5918  -10.2909  -17.4609 C   0  0  2  0  0  0  0  0  0  0  0  0
   -4.1912  -11.5617  -10.9350 C   0  0  1  0  0  0  0  0  0  0  0  0
   -3.3787  -11.5005   -9.7787 O   0  0  0  0  0  0  0  0  0  0  0  0
   -7.4092   -8.6276  -19.7065 C   0  0  2  0  0  0  0  0  0  0  0  0
   -7.3172   -9.2003  -18.3904 O   0  0  0  0  0  0  0  0  0  0  0  0
   -4.3540  -11.3504  -16.3049 C   0  0  2  0  0  0  0  0  0  0  0  0
   -5.5800  -11.5831  -15.5999 O   0  0  0  0  0  0  0  0  0  0  0  0
   -3.8883  -10.2906  -11.7980 C   0  0  0  0  0  0  0  0  0  0  0  0
   -2.4809  -10.3758  -12.3644 O   0  0  0  0  0  0  0  0  0  0  0  0
   -7.5713   -7.0899  -19.7379 C   0  0  0  0  0  0  0  0  0  0  0  0
   -6.7646   -6.5375  -20.8169 N   0  0  0  0  0  0  0  0  0  0  0  0
   -3.2847  -10.8018  -15.2923 C   0  0  1  0  0  0  0  0  0  0  0  0
   -3.0976  -11.7691  -14.2873 O   0  0  0  0  0  0  0  0  0  0  0  0
   -5.6282  -11.4156  -10.4076 C   0  0  0  0  0  0  0  0  0  0  0  0
   -5.2903  -14.9759  -11.4609 C   0  0  0  0  0  0  0  0  0  0  0  0
  1  2  1  6  0  0  0
  1  6  1  0  0  0  0
  1 21  1  0  0  0  0
  3  4  1  1  0  0  0
  3  8  1  0  0  0  0
  3 28  1  0  0  0  0
  5  9  1  0  0  0  0
  5 25  1  0  0  0  0
  5 29  1  6  0  0  0
  6  7  1  6  0  0  0
  6 11  1  0  0  0  0
  8 12  1  0  0  0  0
  9 10  1  6  0  0  0
  9 14  1  0  0  0  0
 11 16  1  0  0  0  0
 12 13  1  6  0  0  0
 12 17  1  0  0  0  0
 14 15  1  1  0  0  0
 14 18  1  0  0  0  0
 15 31  1  0  0  0  0
 16 20  1  0  0  0  0
 17  2  1  6  0  0  0
 17 22  1  0  0  0  0
 18 19  1  1  0  0  0
 18 24  1  0  0  0  0
 18 30  1  0  0  0  0
 20 21  1  0  0  0  0
 20 26  1  1  0  0  0
 22 23  1  1  0  0  0
 22 28  1  0  0  0  0
 24 25  1  0  0  0  0
 26 27  1  0  0  0  0
 28 29  1  1  0  0  0
M  END
>  <CHROM.1>
-172.49183814,176.76921481,-123.89929072,-152.29518551,-40.47436891,60.63084400
-4.61358264,-10.92209153,-15.70521785,1.95934846,-0.42225924,-1.04367622

>  <Name>
ligand

>  <RI>
0

>  <Rbt.Current_Directory>
/home/itssahil/PROJECTS/Mol_Feturizer/New_Systems/rnas/4F8U

>  <Rbt.Executable>
rbdock ($Id: //depot/dev/client3/rdock/2013.1/src/exe/rbdock.cxx#4 $)

>  <Rbt.Library>
libRbt.so (2013.1, Build901 2013/11/27)

>  <Rbt.Parameter_File>
/export/apps/rDock/src/rDock_2013.1_src/data/scripts/dock_solv.prm

>  <Rbt.Receptor>
prm/pocket_docking_4.prm

>  <SCORE>
-13.7339

>  <SCORE.INTER>
-9.19142

>  <SCORE.INTER.CONST>
1

>  <SCORE.INTER.POLAR>
0

>  <SCORE.INTER.ROT>
6

>  <SCORE.INTER.SOLV>
18.6076

>  <SCORE.INTER.VDW>
-19.9301

>  <SCORE.INTER.norm>
-0.296497

>  <SCORE.INTRA>
-4.54264

>  <SCORE.INTRA.DIHEDRAL>
-10.9405

>  <SCORE.INTRA.DIHEDRAL.0>
18.77

>  <SCORE.INTRA.POLAR>
0

>  <SCORE.INTRA.POLAR.0>
0

>  <SCORE.INTRA.REPUL>
0

>  <SCORE.INTRA.REPUL.0>
0

>  <SCORE.INTRA.SOLV>
-0.495542

>  <SCORE.INTRA.SOLV.lig_0>
-77.2465

>  <SCORE.INTRA.VDW>
1.17538

>  <SCORE.INTRA.VDW.0>
-4.16072

>  <SCORE.INTRA.norm>
-0.146537

>  <SCORE.RESTR>
0.000122263

>  <SCORE.RESTR.CAVITY>
0.000122263

>  <SCORE.RESTR.norm>
3.94398e-06

>  <SCORE.SYSTEM>
0

>  <SCORE.SYSTEM.CONST>
0

>  <SCORE.SYSTEM.DIHEDRAL>
0

>  <SCORE.SYSTEM.SOLV>
0

>  <SCORE.SYSTEM.norm>
0

>  <SCORE.heavy>
31

>  <SCORE.norm>
-0.44303

>  <RMSD>
1.513

$$$$
ligand
 OpenBabel11021811493D
libRbt.so/2013.1/901 2013/11/27
 31 33  0  0  0  0  0  0  0  0999 V2000
   -6.7497  -10.7292  -18.0878 C   0  0  2  0  0  0  0  0  0  0  0  0
   -5.3287  -10.8586  -18.2307 O   0  0  0  0  0  0  0  0  0  0  0  0
   -1.9607  -10.8851  -15.5888 C   0  0  2  0  0  0  0  0  0  0  0  0
   -1.0140  -10.4590  -14.6038 N   0  0  0  0  0  0  0  0  0  0  0  0
   -2.6349  -11.6714  -12.6421 C   0  0  2  0  0  0  0  0  0  0  0  0
   -7.3898  -11.6618  -19.1753 C   0  0  2  0  0  0  0  0  0  0  0  0
   -6.9255  -13.0314  -18.9845 N   0  0  0  0  0  0  0  0  0  0  0  0
   -1.9323   -9.8703  -16.7960 C   0  0  0  0  0  0  0  0  0  0  0  0
   -2.9650  -12.9265  -11.7766 C   0  0  2  0  0  0  0  0  0  0  0  0
   -2.5604  -14.0901  -12.4775 O   0  0  0  0  0  0  0  0  0  0  0  0
   -7.0145  -11.1431  -20.6071 C   0  0  0  0  0  0  0  0  0  0  0  0
   -2.9786  -10.3490  -17.8930 C   0  0  2  0  0  0  0  0  0  0  0  0
   -2.9619   -9.4016  -19.0320 N   0  0  0  0  0  0  0  0  0  0  0  0
   -4.5389  -12.9260  -11.5331 C   0  0  1  0  0  0  0  0  0  0  0  0
   -4.9513  -14.1271  -10.7303 N   0  0  0  0  0  0  0  0  0  0  0  0
   -7.2462   -9.6084  -20.7186 C   0  0  0  0  0  0  0  0  0  0  0  0
   -4.4342  -10.4124  -17.2480 C   0  0  2  0  0  0  0  0  0  0  0  0
   -4.9546  -11.5741  -10.7255 C   0  0  1  0  0  0  0  0  0  0  0  0
   -4.3164  -11.4893   -9.4659 O   0  0  0  0  0  0  0  0  0  0  0  0
   -7.3222   -8.8396  -19.6218 C   0  0  2  0  0  0  0  0  0  0  0  0
   -7.2030   -9.3563  -18.2848 O   0  0  0  0  0  0  0  0  0  0  0  0
   -4.4194  -11.4178  -16.0214 C   0  0  2  0  0  0  0  0  0  0  0  0
   -5.7180  -11.4653  -15.4169 O   0  0  0  0  0  0  0  0  0  0  0  0
   -4.5270  -10.3208  -11.5614 C   0  0  0  0  0  0  0  0  0  0  0  0
   -3.0531  -10.4176  -11.9179 O   0  0  0  0  0  0  0  0  0  0  0  0
   -7.5546   -7.3133  -19.7119 C   0  0  0  0  0  0  0  0  0  0  0  0
   -6.4558   -6.6960  -20.4413 N   0  0  0  0  0  0  0  0  0  0  0  0
   -3.3794  -10.9320  -14.9481 C   0  0  1  0  0  0  0  0  0  0  0  0
   -3.3914  -11.8497  -13.8810 O   0  0  0  0  0  0  0  0  0  0  0  0
   -6.4520  -11.4171  -10.4131 C   0  0  0  0  0  0  0  0  0  0  0  0
   -5.7327  -15.1548  -11.4441 C   0  0  0  0  0  0  0  0  0  0  0  0
  1  2  1  6  0  0  0
  1  6  1  0  0  0  0
  1 21  1  0  0  0  0
  3  4  1  1  0  0  0
  3  8  1  0  0  0  0
  3 28  1  0  0  0  0
  5  9  1  0  0  0  0
  5 25  1  0  0  0  0
  5 29  1  6  0  0  0
  6  7  1  1  0  0  0
  6 11  1  0  0  0  0
  8 12  1  0  0  0  0
  9 10  1  6  0  0  0
  9 14  1  0  0  0  0
 11 16  1  0  0  0  0
 12 13  1  6  0  0  0
 12 17  1  0  0  0  0
 14 15  1  1  0  0  0
 14 18  1  0  0  0  0
 15 31  1  0  0  0  0
 16 20  1  0  0  0  0
 17  2  1  6  0  0  0
 17 22  1  0  0  0  0
 18 19  1  1  0  0  0
 18 24  1  0  0  0  0
 18 30  1  0  0  0  0
 20 21  1  0  0  0  0
 20 26  1  1  0  0  0
 22 23  1  1  0  0  0
 22 28  1  0  0  0  0
 24 25  1  0  0  0  0
 26 27  1  0  0  0  0
 28 29  1  1  0  0  0
M  END
>  <CHROM.1>
-165.36674337,179.88216682,-110.42978294,-164.84917319,-61.26594667,66.12959083
-4.78191003,-11.06004269,-15.43489263,1.84935986,-0.30214166,-1.14614109

>  <Name>
ligand

>  <RI>
0

>  <Rbt.Current_Directory>
/home/itssahil/PROJECTS/Mol_Feturizer/New_Systems/rnas/4F8U

>  <Rbt.Executable>
rbdock ($Id: //depot/dev/client3/rdock/2013.1/src/exe/rbdock.cxx#4 $)

>  <Rbt.Library>
libRbt.so (2013.1, Build901 2013/11/27)

>  <Rbt.Parameter_File>
/export/apps/rDock/src/rDock_2013.1_src/data/scripts/dock_solv.prm

>  <Rbt.Receptor>
prm/pocket_docking_5.prm

>  <SCORE>
-13.4515

>  <SCORE.INTER>
-7.73087

>  <SCORE.INTER.CONST>
1

>  <SCORE.INTER.POLAR>
0

>  <SCORE.INTER.ROT>
6

>  <SCORE.INTER.SOLV>
16.8118

>  <SCORE.INTER.VDW>
-18.3578

>  <SCORE.INTER.norm>
-0.249383

>  <SCORE.INTRA>
-5.7206

>  <SCORE.INTRA.DIHEDRAL>
-11.7775

>  <SCORE.INTRA.DIHEDRAL.0>
18.77

>  <SCORE.INTRA.POLAR>
0

>  <SCORE.INTRA.POLAR.0>
0

>  <SCORE.INTRA.REPUL>
0

>  <SCORE.INTRA.REPUL.0>
0

>  <SCORE.INTRA.SOLV>
-1.5092

>  <SCORE.INTRA.SOLV.lig_0>
-77.2465

>  <SCORE.INTRA.VDW>
0.922737

>  <SCORE.INTRA.VDW.0>
-4.16072

>  <SCORE.INTRA.norm>
-0.184535

>  <SCORE.RESTR>
0

>  <SCORE.RESTR.CAVITY>
0

>  <SCORE.RESTR.norm>
0

>  <SCORE.SYSTEM>
0

>  <SCORE.SYSTEM.CONST>
0

>  <SCORE.SYSTEM.DIHEDRAL>
0

>  <SCORE.SYSTEM.SOLV>
0

>  <SCORE.SYSTEM.norm>
0

>  <SCORE.heavy>
31

>  <SCORE.norm>
-0.433918

>  <RMSD>
1.519

$$$$
ligand
 OpenBabel11021811493D
libRbt.so/2013.1/901 2013/11/27
 31 33  0  0  0  0  0  0  0  0999 V2000
   -6.7770  -10.4386  -18.0512 C   0  0  2  0  0  0  0  0  0  0  0  0
   -5.3812  -10.7427  -18.1771 O   0  0  0  0  0  0  0  0  0  0  0  0
   -1.8917  -10.8700  -15.7011 C   0  0  2  0  0  0  0  0  0  0  0  0
   -0.8956  -10.4794  -14.7507 N   0  0  0  0  0  0  0  0  0  0  0  0
   -2.5013  -11.6958  -12.7101 C   0  0  2  0  0  0  0  0  0  0  0  0
   -7.5479  -11.5888  -18.7893 C   0  0  2  0  0  0  0  0  0  0  0  0
   -7.1949  -12.8755  -18.1998 N   0  0  0  0  0  0  0  0  0  0  0  0
   -1.9120   -9.8208  -16.8788 C   0  0  0  0  0  0  0  0  0  0  0  0
   -2.8340  -12.9541  -11.8503 C   0  0  2  0  0  0  0  0  0  0  0  0
   -2.4204  -14.1146  -12.5510 O   0  0  0  0  0  0  0  0  0  0  0  0
   -7.2001  -11.5650  -20.3185 C   0  0  0  0  0  0  0  0  0  0  0  0
   -3.0134  -10.2601  -17.9377 C   0  0  2  0  0  0  0  0  0  0  0  0
   -3.0428   -9.2802  -19.0487 N   0  0  0  0  0  0  0  0  0  0  0  0
   -4.4096  -12.9591  -11.6188 C   0  0  1  0  0  0  0  0  0  0  0  0
   -4.8244  -14.1636  -10.8221 N   0  0  0  0  0  0  0  0  0  0  0  0
   -7.3035  -10.1204  -20.8877 C   0  0  0  0  0  0  0  0  0  0  0  0
   -4.4372  -10.3316  -17.2260 C   0  0  2  0  0  0  0  0  0  0  0  0
   -4.8357  -11.6105  -10.8109 C   0  0  1  0  0  0  0  0  0  0  0  0
   -4.2074  -11.5270   -9.5463 O   0  0  0  0  0  0  0  0  0  0  0  0
   -7.2587   -9.0531  -20.0761 C   0  0  2  0  0  0  0  0  0  0  0  0
   -7.1191   -9.1518  -18.6480 O   0  0  0  0  0  0  0  0  0  0  0  0
   -4.3727  -11.3722  -16.0307 C   0  0  2  0  0  0  0  0  0  0  0  0
   -5.6414  -11.4278  -15.3665 O   0  0  0  0  0  0  0  0  0  0  0  0
   -4.4057  -10.3538  -11.6404 C   0  0  0  0  0  0  0  0  0  0  0  0
   -2.9289  -10.4451  -11.9860 O   0  0  0  0  0  0  0  0  0  0  0  0
   -7.3625   -7.6100  -20.6223 C   0  0  0  0  0  0  0  0  0  0  0  0
   -7.5965   -6.6881  -19.5197 N   0  0  0  0  0  0  0  0  0  0  0  0
   -3.2786  -10.9252  -14.9949 C   0  0  1  0  0  0  0  0  0  0  0  0
   -3.2477  -11.8733  -13.9552 O   0  0  0  0  0  0  0  0  0  0  0  0
   -6.3359  -11.4590  -10.5096 C   0  0  0  0  0  0  0  0  0  0  0  0
   -5.7947  -15.0706  -11.4639 C   0  0  0  0  0  0  0  0  0  0  0  0
  1  2  1  6  0  0  0
  1  6  1  0  0  0  0
  1 21  1  0  0  0  0
  3  4  1  1  0  0  0
  3  8  1  0  0  0  0
  3 28  1  0  0  0  0
  5  9  1  0  0  0  0
  5 25  1  0  0  0  0
  5 29  1  6  0  0  0
  6  7  1  1  0  0  0
  6 11  1  0  0  0  0
  8 12  1  0  0  0  0
  9 10  1  6  0  0  0
  9 14  1  0  0  0  0
 11 16  1  0  0  0  0
 12 13  1  6  0  0  0
 12 17  1  0  0  0  0
 14 15  1  1  0  0  0
 14 18  1  0  0  0  0
 15 31  1  0  0  0  0
 16 20  1  0  0  0  0
 17  2  1  6  0  0  0
 17 22  1  0  0  0  0
 18 19  1  1  0  0  0
 18 24  1  0  0  0  0
 18 30  1  0  0  0  0
 20 21  1  0  0  0  0
 20 26  1  1  0  0  0
 22 23  1  1  0  0  0
 22 28  1  0  0  0  0
 24 25  1  0  0  0  0
 26 27  1  0  0  0  0
 28 29  1  1  0  0  0
M  END
>  <CHROM.1>
-151.75391456,176.89672624,-121.08701889,-155.81417191,166.90046313,70.36170407
-4.77750851,-11.07326090,-15.45902508,1.88474901,-0.27176381,-1.14128178

>  <Name>
ligand

>  <RI>
0

>  <Rbt.Current_Directory>
/home/itssahil/PROJECTS/Mol_Feturizer/New_Systems/rnas/4F8U

>  <Rbt.Executable>
rbdock ($Id: //depot/dev/client3/rdock/2013.1/src/exe/rbdock.cxx#4 $)

>  <Rbt.Library>
libRbt.so (2013.1, Build901 2013/11/27)

>  <Rbt.Parameter_File>
/export/apps/rDock/src/rDock_2013.1_src/data/scripts/dock_solv.prm

>  <Rbt.Receptor>
prm/pocket_docking_2.prm

>  <SCORE>
-9.6605

>  <SCORE.INTER>
-6.10683

>  <SCORE.INTER.CONST>
1

>  <SCORE.INTER.POLAR>
0

>  <SCORE.INTER.ROT>
6

>  <SCORE.INTER.SOLV>
21.0575

>  <SCORE.INTER.VDW>
-18.6904

>  <SCORE.INTER.norm>
-0.196995

>  <SCORE.INTRA>
-3.55366

>  <SCORE.INTRA.DIHEDRAL>
-7.83067

>  <SCORE.INTRA.DIHEDRAL.0>
18.77

>  <SCORE.INTRA.POLAR>
0

>  <SCORE.INTRA.POLAR.0>
0

>  <SCORE.INTRA.REPUL>
0

>  <SCORE.INTRA.REPUL.0>
0

>  <SCORE.INTRA.SOLV>
-0.548505

>  <SCORE.INTRA.SOLV.lig_0>
-77.2465

>  <SCORE.INTRA.VDW>
0.635926

>  <SCORE.INTRA.VDW.0>
-4.16072

>  <SCORE.INTRA.norm>
-0.114634

>  <SCORE.RESTR>
0

>  <SCORE.RESTR.CAVITY>
0

>  <SCORE.RESTR.norm>
0

>  <SCORE.SYSTEM>
0

>  <SCORE.SYSTEM.CONST>
0

>  <SCORE.SYSTEM.DIHEDRAL>
0

>  <SCORE.SYSTEM.SOLV>
0

>  <SCORE.SYSTEM.norm>
0

>  <SCORE.heavy>
31

>  <SCORE.norm>
-0.311629

>  <RMSD>
1.524

$$$$
ligand
 OpenBabel11021811493D
libRbt.so/2013.1/901 2013/11/27
 31 33  0  0  0  0  0  0  0  0999 V2000
   -7.0197  -10.6010  -18.0617 C   0  0  2  0  0  0  0  0  0  0  0  0
   -5.6088  -10.8311  -18.1751 O   0  0  0  0  0  0  0  0  0  0  0  0
   -2.1283  -10.7791  -15.6837 C   0  0  2  0  0  0  0  0  0  0  0  0
   -1.1632  -10.3427  -14.7213 N   0  0  0  0  0  0  0  0  0  0  0  0
   -2.6419  -11.7222  -12.7399 C   0  0  2  0  0  0  0  0  0  0  0  0
   -7.7033  -11.5054  -19.1465 C   0  0  2  0  0  0  0  0  0  0  0  0
   -7.3391  -12.9005  -18.9252 N   0  0  0  0  0  0  0  0  0  0  0  0
   -2.2113   -9.7122  -16.8425 C   0  0  0  0  0  0  0  0  0  0  0  0
   -2.9583  -12.9756  -11.8669 C   0  0  2  0  0  0  0  0  0  0  0  0
   -2.5720  -14.1410  -12.5750 O   0  0  0  0  0  0  0  0  0  0  0  0
   -7.2669  -11.0385  -20.5788 C   0  0  0  0  0  0  0  0  0  0  0  0
   -3.2778  -10.2019  -17.9148 C   0  0  2  0  0  0  0  0  0  0  0  0
   -3.3657   -9.2060  -19.0082 N   0  0  0  0  0  0  0  0  0  0  0  0
   -4.5268  -12.9697  -11.5912 C   0  0  1  0  0  0  0  0  0  0  0  0
   -4.9267  -14.1689  -10.7792 N   0  0  0  0  0  0  0  0  0  0  0  0
   -7.3890   -9.4936  -20.7189 C   0  0  0  0  0  0  0  0  0  0  0  0
   -4.6969  -10.3776  -17.2119 C   0  0  2  0  0  0  0  0  0  0  0  0
   -4.9214  -11.6158  -10.7762 C   0  0  1  0  0  0  0  0  0  0  0  0
   -4.2572  -11.5323   -9.5301 O   0  0  0  0  0  0  0  0  0  0  0  0
   -7.4312   -8.7027  -19.6361 C   0  0  2  0  0  0  0  0  0  0  0  0
   -7.3726   -9.2035  -18.2891 O   0  0  0  0  0  0  0  0  0  0  0  0
   -4.5706  -11.4334  -16.0351 C   0  0  2  0  0  0  0  0  0  0  0  0
   -5.8358  -11.5823  -15.3785 O   0  0  0  0  0  0  0  0  0  0  0  0
   -4.5069  -10.3646  -11.6217 C   0  0  0  0  0  0  0  0  0  0  0  0
   -3.0410  -10.4665  -12.0083 O   0  0  0  0  0  0  0  0  0  0  0  0
   -7.5550   -7.1657  -19.7548 C   0  0  0  0  0  0  0  0  0  0  0  0
   -7.1870   -6.7504  -21.1010 N   0  0  0  0  0  0  0  0  0  0  0  0
   -3.5117  -10.9360  -14.9858 C   0  0  1  0  0  0  0  0  0  0  0  0
   -3.4242  -11.8988  -13.9629 O   0  0  0  0  0  0  0  0  0  0  0  0
   -6.4115  -11.4536  -10.4333 C   0  0  0  0  0  0  0  0  0  0  0  0
   -5.5352  -15.2890  -11.5216 C   0  0  0  0  0  0  0  0  0  0  0  0
  1  2  1  6  0  0  0
  1  6  1  0  0  0  0
  1 21  1  0  0  0  0
  3  4  1  1  0  0  0
  3  8  1  0  0  0  0
  3 28  1  0  0  0  0
  5  9  1  0  0  0  0
  5 25  1  0  0  0  0
  5 29  1  6  0  0  0
  6  7  1  1  0  0  0
  6 11  1  0  0  0  0
  8 12  1  0  0  0  0
  9 10  1  6  0  0  0
  9 14  1  0  0  0  0
 11 16  1  0  0  0  0
 12 13  1  6  0  0  0
 12 17  1  0  0  0  0
 14 15  1  1  0  0  0
 14 18  1  0  0  0  0
 15 31  1  0  0  0  0
 16 20  1  0  0  0  0
 17  2  1  6  0  0  0
 17 22  1  0  0  0  0
 18 19  1  1  0  0  0
 18 24  1  0  0  0  0
 18 30  1  0  0  0  0
 20 21  1  0  0  0  0
 20 26  1  1  0  0  0
 22 23  1  1  0  0  0
 22 28  1  0  0  0  0
 24 25  1  0  0  0  0
 26 27  1  0  0  0  0
 28 29  1  1  0  0  0
M  END
>  <CHROM.1>
-168.34038260,174.81767456,-100.98490129,-154.80092738,-18.03544688,67.22948859
-4.91756229,-11.02895392,-15.48630122,1.88977990,-0.34893990,-1.09612701

>  <Name>
ligand

>  <RI>
0

>  <Rbt.Current_Directory>
/home/itssahil/PROJECTS/Mol_Feturizer/New_Systems/rnas/4F8U

>  <Rbt.Executable>
rbdock ($Id: //depot/dev/client3/rdock/2013.1/src/exe/rbdock.cxx#4 $)

>  <Rbt.Library>
libRbt.so (2013.1, Build901 2013/11/27)

>  <Rbt.Parameter_File>
/export/apps/rDock/src/rDock_2013.1_src/data/scripts/dock_solv.prm

>  <Rbt.Receptor>
prm/pocket_docking_4.prm

>  <SCORE>
-13.2508

>  <SCORE.INTER>
-8.22728

>  <SCORE.INTER.CONST>
1

>  <SCORE.INTER.POLAR>
0

>  <SCORE.INTER.ROT>
6

>  <SCORE.INTER.SOLV>
17.3772

>  <SCORE.INTER.VDW>
-18.8772

>  <SCORE.INTER.norm>
-0.265396

>  <SCORE.INTRA>
-5.02355

>  <SCORE.INTRA.DIHEDRAL>
-12.0199

>  <SCORE.INTRA.DIHEDRAL.0>
18.77

>  <SCORE.INTRA.POLAR>
0

>  <SCORE.INTRA.POLAR.0>
0

>  <SCORE.INTRA.REPUL>
0

>  <SCORE.INTRA.REPUL.0>
0

>  <SCORE.INTRA.SOLV>
-0.727683

>  <SCORE.INTRA.SOLV.lig_0>
-77.2465

>  <SCORE.INTRA.VDW>
1.35022

>  <SCORE.INTRA.VDW.0>
-4.16072

>  <SCORE.INTRA.norm>
-0.16205

>  <SCORE.RESTR>
0

>  <SCORE.RESTR.CAVITY>
0

>  <SCORE.RESTR.norm>
0

>  <SCORE.SYSTEM>
0

>  <SCORE.SYSTEM.CONST>
0

>  <SCORE.SYSTEM.DIHEDRAL>
0

>  <SCORE.SYSTEM.SOLV>
0

>  <SCORE.SYSTEM.norm>
0

>  <SCORE.heavy>
31

>  <SCORE.norm>
-0.427446

>  <RMSD>
1.529

$$$$
ligand
 OpenBabel11021811493D
libRbt.so/2013.1/901 2013/11/27
 31 33  0  0  0  0  0  0  0  0999 V2000
   -6.8595  -10.7877  -18.0202 C   0  0  2  0  0  0  0  0  0  0  0  0
   -5.4410  -10.9630  -18.1373 O   0  0  0  0  0  0  0  0  0  0  0  0
   -2.0200  -10.8620  -15.5664 C   0  0  2  0  0  0  0  0  0  0  0  0
   -1.0716  -10.4019  -14.5985 N   0  0  0  0  0  0  0  0  0  0  0  0
   -2.6342  -11.6737  -12.5929 C   0  0  2  0  0  0  0  0  0  0  0  0
   -7.5088  -11.6856  -19.1311 C   0  0  2  0  0  0  0  0  0  0  0  0
   -7.0942  -13.0722  -18.9482 N   0  0  0  0  0  0  0  0  0  0  0  0
   -2.0599   -9.8399  -16.7671 C   0  0  0  0  0  0  0  0  0  0  0  0
   -2.9450  -12.9172  -11.7038 C   0  0  2  0  0  0  0  0  0  0  0  0
   -2.5058  -14.0859  -12.3747 O   0  0  0  0  0  0  0  0  0  0  0  0
   -7.0885  -11.1633  -20.5489 C   0  0  0  0  0  0  0  0  0  0  0  0
   -3.1079  -10.3562  -17.8453 C   0  0  2  0  0  0  0  0  0  0  0  0
   -3.1553   -9.4024  -18.9780 N   0  0  0  0  0  0  0  0  0  0  0  0
   -4.5211  -12.9481  -11.4773 C   0  0  1  0  0  0  0  0  0  0  0  0
   -4.9147  -14.1408  -10.6529 N   0  0  0  0  0  0  0  0  0  0  0  0
   -7.2667   -9.6205  -20.6461 C   0  0  0  0  0  0  0  0  0  0  0  0
   -4.5456  -10.4850  -17.1706 C   0  0  2  0  0  0  0  0  0  0  0  0
   -4.9769  -11.5890  -10.7039 C   0  0  1  0  0  0  0  0  0  0  0  0
   -4.3550  -11.4623   -9.4397 O   0  0  0  0  0  0  0  0  0  0  0  0
   -7.3386   -8.8623  -19.5417 C   0  0  2  0  0  0  0  0  0  0  0  0
   -7.2629   -9.3982  -18.2091 O   0  0  0  0  0  0  0  0  0  0  0  0
   -4.4626  -11.4959  -15.9513 C   0  0  2  0  0  0  0  0  0  0  0  0
   -5.7450  -11.6019  -15.3202 O   0  0  0  0  0  0  0  0  0  0  0  0
   -4.5689  -10.3445  -11.5624 C   0  0  0  0  0  0  0  0  0  0  0  0
   -3.0893  -10.4146  -11.9008 O   0  0  0  0  0  0  0  0  0  0  0  0
   -7.5182   -7.3281  -19.6176 C   0  0  0  0  0  0  0  0  0  0  0  0
   -6.6174   -6.7818  -20.6229 N   0  0  0  0  0  0  0  0  0  0  0  0
   -3.4216  -10.9727  -14.8966 C   0  0  1  0  0  0  0  0  0  0  0  0
   -3.3724  -11.8963  -13.8357 O   0  0  0  0  0  0  0  0  0  0  0  0
   -6.4809  -11.4602  -10.4111 C   0  0  0  0  0  0  0  0  0  0  0  0
   -5.8973  -15.0597  -11.2583 C   0  0  0  0  0  0  0  0  0  0  0  0
  1  2  1  6  0  0  0
  1  6  1  0  0  0  0
  1 21  1  0  0  0  0
  3  4  1  1  0  0  0
  3  8  1  0  0  0  0
  3 28  1  0  0  0  0
  5  9  1  0  0  0  0
  5 25  1  0  0  0  0
  5 29  1  6  0  0  0
  6  7  1  1  0  0  0
  6 11  1  0  0  0  0
  8 12  1  0  0  0  0
  9 10  1  6  0  0  0
  9 14  1  0  0  0  0
 11 16  1  0  0  0  0
 12 13  1  6  0  0  0
 12 17  1  0  0  0  0
 14 15  1  1  0  0  0
 14 18  1  0  0  0  0
 15 31  1  0  0  0  0
 16 20  1  0  0  0  0
 17  2  1  6  0  0  0
 17 22  1  0  0  0  0
 18 19  1  1  0  0  0
 18 24  1  0  0  0  0
 18 30  1  0  0  0  0
 20 21  1  0  0  0  0
 20 26  1  1  0  0  0
 22 23  1  1  0  0  0
 22 28  1  0  0  0  0
 24 25  1  0  0  0  0
 26 27  1  0  0  0  0
 28 29  1  1  0  0  0
M  END
>  <CHROM.1>
-169.37948598,176.69328436,-122.97023114,-159.13419985,-45.12573720,68.25786958
-4.83887828,-11.08223517,-15.38425886,1.85807315,-0.31988411,-1.14181504

>  <Name>
ligand

>  <RI>
0

>  <Rbt.Current_Directory>
/home/itssahil/PROJECTS/Mol_Feturizer/New_Systems/rnas/4F8U

>  <Rbt.Executable>
rbdock ($Id: //depot/dev/client3/rdock/2013.1/src/exe/rbdock.cxx#4 $)

>  <Rbt.Library>
libRbt.so (2013.1, Build901 2013/11/27)

>  <Rbt.Parameter_File>
/export/apps/rDock/src/rDock_2013.1_src/data/scripts/dock_solv.prm

>  <Rbt.Receptor>
prm/pocket_docking_5.prm

>  <SCORE>
-13.432

>  <SCORE.INTER>
-8.06736

>  <SCORE.INTER.CONST>
1

>  <SCORE.INTER.POLAR>
0

>  <SCORE.INTER.ROT>
6

>  <SCORE.INTER.SOLV>
16.2124

>  <SCORE.INTER.VDW>
-18.3824

>  <SCORE.INTER.norm>
-0.260238

>  <SCORE.INTRA>
-5.36468

>  <SCORE.INTRA.DIHEDRAL>
-11.3783

>  <SCORE.INTRA.DIHEDRAL.0>
18.77

>  <SCORE.INTRA.POLAR>
0

>  <SCORE.INTRA.POLAR.0>
0

>  <SCORE.INTRA.REPUL>
0

>  <SCORE.INTRA.REPUL.0>
0

>  <SCORE.INTRA.SOLV>
-1.20174

>  <SCORE.INTRA.SOLV.lig_0>
-77.2465

>  <SCORE.INTRA.VDW>
0.925345

>  <SCORE.INTRA.VDW.0>
-4.16072

>  <SCORE.INTRA.norm>
-0.173054

>  <SCORE.RESTR>
0

>  <SCORE.RESTR.CAVITY>
0

>  <SCORE.RESTR.norm>
0

>  <SCORE.SYSTEM>
0

>  <SCORE.SYSTEM.CONST>
0

>  <SCORE.SYSTEM.DIHEDRAL>
0

>  <SCORE.SYSTEM.SOLV>
0

>  <SCORE.SYSTEM.norm>
0

>  <SCORE.heavy>
31

>  <SCORE.norm>
-0.433292

>  <RMSD>
1.535

$$$$
ligand
 OpenBabel11021811493D
libRbt.so/2013.1/901 2013/11/27
 31 33  0  0  0  0  0  0  0  0999 V2000
   -6.7864  -10.7271  -18.1203 C   0  0  2  0  0  0  0  0  0  0  0  0
   -5.3632  -10.8575  -18.2393 O   0  0  0  0  0  0  0  0  0  0  0  0
   -1.9844  -10.8001  -15.6117 C   0  0  2  0  0  0  0  0  0  0  0  0
   -1.0524  -10.3567  -14.6203 N   0  0  0  0  0  0  0  0  0  0  0  0
   -2.6000  -11.6910  -12.6874 C   0  0  2  0  0  0  0  0  0  0  0  0
   -7.4081  -11.6364  -19.2377 C   0  0  2  0  0  0  0  0  0  0  0  0
   -6.9507  -13.0107  -19.0655 N   0  0  0  0  0  0  0  0  0  0  0  0
   -2.0063   -9.7562  -16.7940 C   0  0  0  0  0  0  0  0  0  0  0  0
   -2.9012  -12.9623  -11.8350 C   0  0  2  0  0  0  0  0  0  0  0  0
   -2.4821  -14.1099  -12.5535 O   0  0  0  0  0  0  0  0  0  0  0  0
   -7.0051  -11.0905  -20.6518 C   0  0  0  0  0  0  0  0  0  0  0  0
   -3.0360  -10.2538  -17.8983 C   0  0  2  0  0  0  0  0  0  0  0  0
   -3.0663   -9.2794  -19.0140 N   0  0  0  0  0  0  0  0  0  0  0  0
   -4.4728  -12.9924  -11.5792 C   0  0  1  0  0  0  0  0  0  0  0  0
   -4.8577  -14.2104  -10.7882 N   0  0  0  0  0  0  0  0  0  0  0  0
   -7.2311   -9.5533  -20.7372 C   0  0  0  0  0  0  0  0  0  0  0  0
   -4.4843  -10.3964  -17.2495 C   0  0  2  0  0  0  0  0  0  0  0  0
   -4.9055  -11.6580  -10.7515 C   0  0  1  0  0  0  0  0  0  0  0  0
   -4.2587  -11.5777   -9.4960 O   0  0  0  0  0  0  0  0  0  0  0  0
   -7.3257   -8.8061  -19.6271 C   0  0  2  0  0  0  0  0  0  0  0  0
   -7.2327   -9.3494  -18.2986 O   0  0  0  0  0  0  0  0  0  0  0  0
   -4.4196  -11.4294  -16.0477 C   0  0  2  0  0  0  0  0  0  0  0  0
   -5.7119  -11.5483  -15.4397 O   0  0  0  0  0  0  0  0  0  0  0  0
   -4.5065  -10.3872  -11.5750 C   0  0  0  0  0  0  0  0  0  0  0  0
   -3.0341  -10.4537  -11.9443 O   0  0  0  0  0  0  0  0  0  0  0  0
   -7.5529   -7.2777  -19.6912 C   0  0  0  0  0  0  0  0  0  0  0  0
   -7.2053   -6.7894  -21.0183 N   0  0  0  0  0  0  0  0  0  0  0  0
   -3.3966  -10.9245  -14.9669 C   0  0  1  0  0  0  0  0  0  0  0  0
   -3.3633  -11.8673  -13.9224 O   0  0  0  0  0  0  0  0  0  0  0  0
   -6.4028  -11.5311  -10.4254 C   0  0  0  0  0  0  0  0  0  0  0  0
   -5.8901  -15.0790  -11.3846 C   0  0  0  0  0  0  0  0  0  0  0  0
  1  2  1  6  0  0  0
  1  6  1  0  0  0  0
  1 21  1  0  0  0  0
  3  4  1  1  0  0  0
  3  8  1  0  0  0  0
  3 28  1  0  0  0  0
  5  9  1  0  0  0  0
  5 25  1  0  0  0  0
  5 29  1  6  0  0  0
  6  7  1  1  0  0  0
  6 11  1  0  0  0  0
  8 12  1  0  0  0  0
  9 10  1  6  0  0  0
  9 14  1  0  0  0  0
 11 16  1  0  0  0  0
 12 13  1  6  0  0  0
 12 17  1  0  0  0  0
 14 15  1  1  0  0  0
 14 18  1  0  0  0  0
 15 31  1  0  0  0  0
 16 20  1  0  0  0  0
 17  2  1  6  0  0  0
 17 22  1  0  0  0  0
 18 19  1  1  0  0  0
 18 24  1  0  0  0  0
 18 30  1  0  0  0  0
 20 21  1  0  0  0  0
 20 26  1  1  0  0  0
 22 23  1  1  0  0  0
 22 28  1  0  0  0  0
 24 25  1  0  0  0  0
 26 27  1  0  0  0  0
 28 29  1  1  0  0  0
M  END
>  <CHROM.1>
-167.35005520,178.59109816,-124.94101277,-161.33942477,-18.43880235,65.57821693
-4.80823142,-11.06007726,-15.47627439,1.86477570,-0.30310455,-1.13340064

>  <Name>
ligand

>  <RI>
0

>  <Rbt.Current_Directory>
/home/itssahil/PROJECTS/Mol_Feturizer/New_Systems/rnas/4F8U

>  <Rbt.Executable>
rbdock ($Id: //depot/dev/client3/rdock/2013.1/src/exe/rbdock.cxx#4 $)

>  <Rbt.Library>
libRbt.so (2013.1, Build901 2013/11/27)

>  <Rbt.Parameter_File>
/export/apps/rDock/src/rDock_2013.1_src/data/scripts/dock_solv.prm

>  <Rbt.Receptor>
prm/pocket_docking_2.prm

>  <SCORE>
-13.447

>  <SCORE.INTER>
-7.87925

>  <SCORE.INTER.CONST>
1

>  <SCORE.INTER.POLAR>
0

>  <SCORE.INTER.ROT>
6

>  <SCORE.INTER.SOLV>
17.3682

>  <SCORE.INTER.VDW>
-18.6422

>  <SCORE.INTER.norm>
-0.254169

>  <SCORE.INTRA>
-5.56771

>  <SCORE.INTRA.DIHEDRAL>
-12.9812

>  <SCORE.INTRA.DIHEDRAL.0>
18.77

>  <SCORE.INTRA.POLAR>
0

>  <SCORE.INTRA.POLAR.0>
0

>  <SCORE.INTRA.REPUL>
0

>  <SCORE.INTRA.REPUL.0>
0

>  <SCORE.INTRA.SOLV>
-1.1557

>  <SCORE.INTRA.SOLV.lig_0>
-77.2465

>  <SCORE.INTRA.VDW>
1.50073

>  <SCORE.INTRA.VDW.0>
-4.16072

>  <SCORE.INTRA.norm>
-0.179603

>  <SCORE.RESTR>
0

>  <SCORE.RESTR.CAVITY>
0

>  <SCORE.RESTR.norm>
0

>  <SCORE.SYSTEM>
0

>  <SCORE.SYSTEM.CONST>
0

>  <SCORE.SYSTEM.DIHEDRAL>
0

>  <SCORE.SYSTEM.SOLV>
0

>  <SCORE.SYSTEM.norm>
0

>  <SCORE.heavy>
31

>  <SCORE.norm>
-0.433773

>  <RMSD>
1.545

$$$$
ligand
 OpenBabel11021811493D
libRbt.so/2013.1/901 2013/11/27
 31 33  0  0  0  0  0  0  0  0999 V2000
   -7.2705  -10.6785  -18.6604 C   0  0  2  0  0  0  0  0  0  0  0  0
   -5.9682  -11.1987  -18.3605 O   0  0  0  0  0  0  0  0  0  0  0  0
   -2.2972  -10.2588  -16.3695 C   0  0  2  0  0  0  0  0  0  0  0  0
   -1.3519   -9.6001  -15.5207 N   0  0  0  0  0  0  0  0  0  0  0  0
   -2.1691  -11.3749  -13.4007 C   0  0  2  0  0  0  0  0  0  0  0  0
   -8.0373  -11.8180  -19.4191 C   0  0  2  0  0  0  0  0  0  0  0  0
   -8.0854  -13.0164  -18.5889 N   0  0  0  0  0  0  0  0  0  0  0  0
   -2.8359   -9.2246  -17.4318 C   0  0  0  0  0  0  0  0  0  0  0  0
   -1.6551  -12.7281  -12.8193 C   0  0  2  0  0  0  0  0  0  0  0  0
   -0.8814  -13.3901  -13.8053 O   0  0  0  0  0  0  0  0  0  0  0  0
   -7.3274  -12.1174  -20.7851 C   0  0  0  0  0  0  0  0  0  0  0  0
   -3.8799   -9.9595  -18.3791 C   0  0  2  0  0  0  0  0  0  0  0  0
   -4.3944   -8.9967  -19.3808 N   0  0  0  0  0  0  0  0  0  0  0  0
   -2.9381  -13.5873  -12.4297 C   0  0  1  0  0  0  0  0  0  0  0  0
   -2.5331  -14.9291  -11.8886 N   0  0  0  0  0  0  0  0  0  0  0  0
   -7.0174  -10.7978  -21.5493 C   0  0  0  0  0  0  0  0  0  0  0  0
   -5.0780  -10.5383  -17.5025 C   0  0  2  0  0  0  0  0  0  0  0  0
   -3.7923  -12.7888  -11.2960 C   0  0  1  0  0  0  0  0  0  0  0  0
   -3.0388  -12.5684  -10.1192 O   0  0  0  0  0  0  0  0  0  0  0  0
   -6.9749   -9.6209  -20.9067 C   0  0  2  0  0  0  0  0  0  0  0  0
   -7.2102   -9.4827  -19.4945 O   0  0  0  0  0  0  0  0  0  0  0  0
   -4.4983  -11.5503  -16.4276 C   0  0  2  0  0  0  0  0  0  0  0  0
   -5.5641  -12.0598  -15.6161 O   0  0  0  0  0  0  0  0  0  0  0  0
   -4.2169  -11.3904  -11.8586 C   0  0  0  0  0  0  0  0  0  0  0  0
   -2.9939  -10.6478  -12.3700 O   0  0  0  0  0  0  0  0  0  0  0  0
   -6.6712   -8.2985  -21.6489 C   0  0  0  0  0  0  0  0  0  0  0  0
   -7.6936   -7.3133  -21.3258 N   0  0  0  0  0  0  0  0  0  0  0  0
   -3.4671  -10.8095  -15.5016 C   0  0  1  0  0  0  0  0  0  0  0  0
   -2.9724  -11.7388  -14.5674 O   0  0  0  0  0  0  0  0  0  0  0  0
   -5.0738  -13.4867  -10.8111 C   0  0  0  0  0  0  0  0  0  0  0  0
   -1.4041  -14.9385  -10.9392 C   0  0  0  0  0  0  0  0  0  0  0  0
  1  2  1  6  0  0  0
  1  6  1  0  0  0  0
  1 21  1  0  0  0  0
  3  4  1  1  0  0  0
  3  8  1  0  0  0  0
  3 28  1  0  0  0  0
  5  9  1  0  0  0  0
  5 25  1  0  0  0  0
  5 29  1  6  0  0  0
  6  7  1  1  0  0  0
  6 11  1  0  0  0  0
  8 12  1  0  0  0  0
  9 10  1  6  0  0  0
  9 14  1  0  0  0  0
 11 16  1  0  0  0  0
 12 13  1  6  0  0  0
 12 17  1  0  0  0  0
 14 15  1  1  0  0  0
 14 18  1  0  0  0  0
 15 31  1  0  0  0  0
 16 20  1  0  0  0  0
 17  2  1  6  0  0  0
 17 22  1  0  0  0  0
 18 19  1  1  0  0  0
 18 24  1  0  0  0  0
 18 30  1  0  0  0  0
 20 21  1  0  0  0  0
 20 26  1  6  0  0  0
 22 23  1  1  0  0  0
 22 28  1  0  0  0  0
 24 25  1  0  0  0  0
 26 27  1  0  0  0  0
 28 29  1  1  0  0  0
M  END
>  <CHROM.1>
-169.65673385,-170.41953491,43.09993567,-109.60435492,128.75775531,71.66701585
-4.48059969,-11.33833397,-16.05154442,2.09035646,-0.54108803,-0.93358011

>  <Name>
ligand

>  <RI>
0

>  <Rbt.Current_Directory>
/home/itssahil/PROJECTS/Mol_Feturizer/New_Systems/rnas/4F8U

>  <Rbt.Executable>
rbdock ($Id: //depot/dev/client3/rdock/2013.1/src/exe/rbdock.cxx#4 $)

>  <Rbt.Library>
libRbt.so (2013.1, Build901 2013/11/27)

>  <Rbt.Parameter_File>
/export/apps/rDock/src/rDock_2013.1_src/data/scripts/dock_solv.prm

>  <Rbt.Receptor>
prm/pocket_docking_5.prm

>  <SCORE>
-9.49743

>  <SCORE.INTER>
-8.41386

>  <SCORE.INTER.CONST>
1

>  <SCORE.INTER.POLAR>
0

>  <SCORE.INTER.ROT>
6

>  <SCORE.INTER.SOLV>
17.8758

>  <SCORE.INTER.VDW>
-19.1679

>  <SCORE.INTER.norm>
-0.271415

>  <SCORE.INTRA>
-1.08358

>  <SCORE.INTRA.DIHEDRAL>
-8.47989

>  <SCORE.INTRA.DIHEDRAL.0>
18.77

>  <SCORE.INTRA.POLAR>
0

>  <SCORE.INTRA.POLAR.0>
0

>  <SCORE.INTRA.REPUL>
0

>  <SCORE.INTRA.REPUL.0>
0

>  <SCORE.INTRA.SOLV>
2.20262

>  <SCORE.INTRA.SOLV.lig_0>
-77.2465

>  <SCORE.INTRA.VDW>
2.05506

>  <SCORE.INTRA.VDW.0>
-4.16072

>  <SCORE.INTRA.norm>
-0.0349541

>  <SCORE.RESTR>
0

>  <SCORE.RESTR.CAVITY>
0

>  <SCORE.RESTR.norm>
0

>  <SCORE.SYSTEM>
0

>  <SCORE.SYSTEM.CONST>
0

>  <SCORE.SYSTEM.DIHEDRAL>
0

>  <SCORE.SYSTEM.SOLV>
0

>  <SCORE.SYSTEM.norm>
0

>  <SCORE.heavy>
31

>  <SCORE.norm>
-0.306369

>  <RMSD>
1.560

$$$$
ligand
 OpenBabel11021811493D
libRbt.so/2013.1/901 2013/11/27
 31 33  0  0  0  0  0  0  0  0999 V2000
   -6.7574  -10.6196  -18.1240 C   0  0  2  0  0  0  0  0  0  0  0  0
   -5.3556  -10.9180  -18.1727 O   0  0  0  0  0  0  0  0  0  0  0  0
   -1.9592  -10.9129  -15.5673 C   0  0  2  0  0  0  0  0  0  0  0  0
   -1.0114  -10.4820  -14.5855 N   0  0  0  0  0  0  0  0  0  0  0  0
   -2.6002  -11.7521  -12.6183 C   0  0  2  0  0  0  0  0  0  0  0  0
   -7.4598  -11.6391  -19.0880 C   0  0  2  0  0  0  0  0  0  0  0  0
   -7.1579  -13.0028  -18.6673 N   0  0  0  0  0  0  0  0  0  0  0  0
   -1.9662   -9.8784  -16.7580 C   0  0  0  0  0  0  0  0  0  0  0  0
   -2.9639  -12.9845  -11.7341 C   0  0  2  0  0  0  0  0  0  0  0  0
   -2.5781  -14.1685  -12.4110 O   0  0  0  0  0  0  0  0  0  0  0  0
   -6.9803  -11.3939  -20.5610 C   0  0  0  0  0  0  0  0  0  0  0  0
   -3.0136  -10.3623  -17.8516 C   0  0  2  0  0  0  0  0  0  0  0  0
   -3.0301   -9.3965  -18.9750 N   0  0  0  0  0  0  0  0  0  0  0  0
   -4.5394  -12.9468  -11.5044 C   0  0  1  0  0  0  0  0  0  0  0  0
   -4.9838  -14.1247  -10.6844 N   0  0  0  0  0  0  0  0  0  0  0  0
   -7.0355   -9.8800  -20.9168 C   0  0  0  0  0  0  0  0  0  0  0  0
   -4.4604  -10.4681  -17.1924 C   0  0  2  0  0  0  0  0  0  0  0  0
   -4.9333  -11.5725  -10.7241 C   0  0  1  0  0  0  0  0  0  0  0  0
   -4.3041  -11.4790   -9.4607 O   0  0  0  0  0  0  0  0  0  0  0  0
   -7.0628   -8.9448  -19.9554 C   0  0  2  0  0  0  0  0  0  0  0  0
   -7.0479   -9.2548  -18.5509 O   0  0  0  0  0  0  0  0  0  0  0  0
   -4.4103  -11.4926  -15.9826 C   0  0  2  0  0  0  0  0  0  0  0  0
   -5.7009  -11.5784  -15.3653 O   0  0  0  0  0  0  0  0  0  0  0  0
   -4.4724  -10.3433  -11.5780 C   0  0  0  0  0  0  0  0  0  0  0  0
   -2.9979  -10.4772  -11.9198 O   0  0  0  0  0  0  0  0  0  0  0  0
   -7.1204   -7.4358  -20.2888 C   0  0  0  0  0  0  0  0  0  0  0  0
   -8.0127   -6.7647  -19.3540 N   0  0  0  0  0  0  0  0  0  0  0  0
   -3.3695  -11.0014  -14.9125 C   0  0  1  0  0  0  0  0  0  0  0  0
   -3.3498  -11.9363  -13.8605 O   0  0  0  0  0  0  0  0  0  0  0  0
   -6.4296  -11.3787  -10.4277 C   0  0  0  0  0  0  0  0  0  0  0  0
   -5.6594  -15.2136  -11.4152 C   0  0  0  0  0  0  0  0  0  0  0  0
  1  2  1  6  0  0  0
  1  6  1  0  0  0  0
  1 21  1  0  0  0  0
  3  4  1  1  0  0  0
  3  8  1  0  0  0  0
  3 28  1  0  0  0  0
  5  9  1  0  0  0  0
  5 25  1  0  0  0  0
  5 29  1  6  0  0  0
  6  7  1  1  0  0  0
  6 11  1  0  0  0  0
  8 12  1  0  0  0  0
  9 10  1  6  0  0  0
  9 14  1  0  0  0  0
 11 16  1  0  0  0  0
 12 13  1  6  0  0  0
 12 17  1  0  0  0  0
 14 15  1  1  0  0  0
 14 18  1  0  0  0  0
 15 31  1  0  0  0  0
 16 20  1  0  0  0  0
 17  2  1  6  0  0  0
 17 22  1  0  0  0  0
 18 19  1  1  0  0  0
 18 24  1  0  0  0  0
 18 30  1  0  0  0  0
 20 21  1  0  0  0  0
 20 26  1  1  0  0  0
 22 23  1  1  0  0  0
 22 28  1  0  0  0  0
 24 25  1  0  0  0  0
 26 27  1  0  0  0  0
 28 29  1  1  0  0  0
M  END
>  <CHROM.1>
-162.48782547,176.11888758,-104.33479885,-153.86581987,140.45413364,67.10294876
-4.80213320,-11.10567501,-15.41045942,1.86381435,-0.25869092,-1.15802900

>  <Name>
ligand

>  <RI>
0

>  <Rbt.Current_Directory>
/home/itssahil/PROJECTS/Mol_Feturizer/New_Systems/rnas/4F8U

>  <Rbt.Executable>
rbdock ($Id: //depot/dev/client3/rdock/2013.1/src/exe/rbdock.cxx#4 $)

>  <Rbt.Library>
libRbt.so (2013.1, Build901 2013/11/27)

>  <Rbt.Parameter_File>
/export/apps/rDock/src/rDock_2013.1_src/data/scripts/dock_solv.prm

>  <Rbt.Receptor>
prm/pocket_docking_4.prm

>  <SCORE>
-10.6783

>  <SCORE.INTER>
-5.47743

>  <SCORE.INTER.CONST>
1

>  <SCORE.INTER.POLAR>
0

>  <SCORE.INTER.ROT>
6

>  <SCORE.INTER.SOLV>
22.1989

>  <SCORE.INTER.VDW>
-18.6513

>  <SCORE.INTER.norm>
-0.176691

>  <SCORE.INTRA>
-5.2009

>  <SCORE.INTRA.DIHEDRAL>
-10.972

>  <SCORE.INTRA.DIHEDRAL.0>
18.77

>  <SCORE.INTRA.POLAR>
0

>  <SCORE.INTRA.POLAR.0>
0

>  <SCORE.INTRA.REPUL>
0

>  <SCORE.INTRA.REPUL.0>
0

>  <SCORE.INTRA.SOLV>
-0.660812

>  <SCORE.INTRA.SOLV.lig_0>
-77.2465

>  <SCORE.INTRA.VDW>
0.615494

>  <SCORE.INTRA.VDW.0>
-4.16072

>  <SCORE.INTRA.norm>
-0.167771

>  <SCORE.RESTR>
0

>  <SCORE.RESTR.CAVITY>
0

>  <SCORE.RESTR.norm>
0

>  <SCORE.SYSTEM>
0

>  <SCORE.SYSTEM.CONST>
0

>  <SCORE.SYSTEM.DIHEDRAL>
0

>  <SCORE.SYSTEM.SOLV>
0

>  <SCORE.SYSTEM.norm>
0

>  <SCORE.heavy>
31

>  <SCORE.norm>
-0.344462

>  <RMSD>
1.577

$$$$
ligand
 OpenBabel11021811493D
libRbt.so/2013.1/901 2013/11/27
 31 33  0  0  0  0  0  0  0  0999 V2000
   -7.7570  -11.6302  -17.7985 C   0  0  2  0  0  0  0  0  0  0  0  0
   -6.3696  -11.8921  -17.5476 O   0  0  0  0  0  0  0  0  0  0  0  0
   -2.8154  -10.2297  -15.8365 C   0  0  2  0  0  0  0  0  0  0  0  0
   -1.9370   -9.3181  -15.1691 N   0  0  0  0  0  0  0  0  0  0  0  0
   -2.8478  -10.5743  -12.5866 C   0  0  2  0  0  0  0  0  0  0  0  0
   -8.3383  -12.9276  -18.4625 C   0  0  2  0  0  0  0  0  0  0  0  0
   -8.1300  -14.0690  -17.5784 N   0  0  0  0  0  0  0  0  0  0  0  0
   -3.4083   -9.5224  -17.1156 C   0  0  0  0  0  0  0  0  0  0  0  0
   -1.9679  -11.6284  -11.8464 C   0  0  2  0  0  0  0  0  0  0  0  0
   -0.9601  -12.0905  -12.7295 O   0  0  0  0  0  0  0  0  0  0  0  0
   -7.6491  -13.1681  -19.8508 C   0  0  0  0  0  0  0  0  0  0  0  0
   -4.3777  -10.5388  -17.8604 C   0  0  2  0  0  0  0  0  0  0  0  0
   -4.9424   -9.8843  -19.0637 N   0  0  0  0  0  0  0  0  0  0  0  0
   -2.9319  -12.8181  -11.4090 C   0  0  1  0  0  0  0  0  0  0  0  0
   -2.1560  -13.9006  -10.7135 N   0  0  0  0  0  0  0  0  0  0  0  0
   -7.6191  -11.8572  -20.6887 C   0  0  0  0  0  0  0  0  0  0  0  0
   -5.5465  -10.9807  -16.8717 C   0  0  2  0  0  0  0  0  0  0  0  0
   -4.0692  -12.2400  -10.3964 C   0  0  1  0  0  0  0  0  0  0  0  0
   -3.5048  -11.6807   -9.2261 O   0  0  0  0  0  0  0  0  0  0  0  0
   -7.7615  -10.6590  -20.1026 C   0  0  2  0  0  0  0  0  0  0  0  0
   -7.9530  -10.4896  -18.6871 O   0  0  0  0  0  0  0  0  0  0  0  0
   -4.9145  -11.6605  -15.5856 C   0  0  2  0  0  0  0  0  0  0  0  0
   -5.9551  -12.0408  -14.6766 O   0  0  0  0  0  0  0  0  0  0  0  0
   -4.8802  -11.1127  -11.1200 C   0  0  0  0  0  0  0  0  0  0  0  0
   -3.9277  -10.0633  -11.6679 O   0  0  0  0  0  0  0  0  0  0  0  0
   -7.7371   -9.3454  -20.9184 C   0  0  0  0  0  0  0  0  0  0  0  0
   -6.8053   -8.4092  -20.3055 N   0  0  0  0  0  0  0  0  0  0  0  0
   -3.9579  -10.6445  -14.8628 C   0  0  1  0  0  0  0  0  0  0  0  0
   -3.4141  -11.2840  -13.7331 O   0  0  0  0  0  0  0  0  0  0  0  0
   -5.0896  -13.2688   -9.8816 C   0  0  0  0  0  0  0  0  0  0  0  0
   -1.4995  -14.8964  -11.5816 C   0  0  0  0  0  0  0  0  0  0  0  0
  1  2  1  6  0  0  0
  1  6  1  0  0  0  0
  1 21  1  0  0  0  0
  3  4  1  1  0  0  0
  3  8  1  0  0  0  0
  3 28  1  0  0  0  0
  5  9  1  0  0  0  0
  5 25  1  0  0  0  0
  5 29  1  6  0  0  0
  6  7  1  1  0  0  0
  6 11  1  0  0  0  0
  8 12  1  0  0  0  0
  9 10  1  6  0  0  0
  9 14  1  0  0  0  0
 11 16  1  0  0  0  0
 12 13  1  6  0  0  0
 12 17  1  0  0  0  0
 14 15  1  1  0  0  0
 14 18  1  0  0  0  0
 15 31  1  0  0  0  0
 16 20  1  0  0  0  0
 17  2  1  6  0  0  0
 17 22  1  0  0  0  0
 18 19  1  1  0  0  0
 18 24  1  0  0  0  0
 18 30  1  0  0  0  0
 20 21  1  0  0  0  0
 20 26  1  6  0  0  0
 22 23  1  1  0  0  0
 22 28  1  0  0  0  0
 24 25  1  0  0  0  0
 26 27  1  0  0  0  0
 28 29  1  1  0  0  0
M  END
>  <CHROM.1>
-175.48026134,-161.53875856,-84.29919506,-118.54691078,-129.92806371,81.69894291
-4.86633853,-11.45563518,-15.30054643,2.17983677,-0.64789272,-1.01973886

>  <Name>
ligand

>  <RI>
0

>  <Rbt.Current_Directory>
/home/itssahil/PROJECTS/Mol_Feturizer/New_Systems/rnas/4F8U

>  <Rbt.Executable>
rbdock ($Id: //depot/dev/client3/rdock/2013.1/src/exe/rbdock.cxx#4 $)

>  <Rbt.Library>
libRbt.so (2013.1, Build901 2013/11/27)

>  <Rbt.Parameter_File>
/export/apps/rDock/src/rDock_2013.1_src/data/scripts/dock_solv.prm

>  <Rbt.Receptor>
prm/pocket_docking_5.prm

>  <SCORE>
-15.3042

>  <SCORE.INTER>
-14.6704

>  <SCORE.INTER.CONST>
1

>  <SCORE.INTER.POLAR>
0

>  <SCORE.INTER.ROT>
6

>  <SCORE.INTER.SOLV>
15.9283

>  <SCORE.INTER.VDW>
-22.6897

>  <SCORE.INTER.norm>
-0.473239

>  <SCORE.INTRA>
-0.633812

>  <SCORE.INTRA.DIHEDRAL>
-5.60901

>  <SCORE.INTRA.DIHEDRAL.0>
18.77

>  <SCORE.INTRA.POLAR>
0

>  <SCORE.INTRA.POLAR.0>
0

>  <SCORE.INTRA.REPUL>
0

>  <SCORE.INTRA.REPUL.0>
0

>  <SCORE.INTRA.SOLV>
4.07657

>  <SCORE.INTRA.SOLV.lig_0>
-77.2465

>  <SCORE.INTRA.VDW>
0.132409

>  <SCORE.INTRA.VDW.0>
-4.16072

>  <SCORE.INTRA.norm>
-0.0204455

>  <SCORE.RESTR>
0

>  <SCORE.RESTR.CAVITY>
0

>  <SCORE.RESTR.norm>
0

>  <SCORE.SYSTEM>
0

>  <SCORE.SYSTEM.CONST>
0

>  <SCORE.SYSTEM.DIHEDRAL>
0

>  <SCORE.SYSTEM.SOLV>
0

>  <SCORE.SYSTEM.norm>
0

>  <SCORE.heavy>
31

>  <SCORE.norm>
-0.493685

>  <RMSD>
1.616

$$$$
ligand
 OpenBabel11021811493D
libRbt.so/2013.1/901 2013/11/27
 31 33  0  0  0  0  0  0  0  0999 V2000
   -6.7636  -10.5926  -17.8972 C   0  0  2  0  0  0  0  0  0  0  0  0
   -5.3671  -10.8067  -18.1434 O   0  0  0  0  0  0  0  0  0  0  0  0
   -1.7953  -11.0431  -15.7961 C   0  0  2  0  0  0  0  0  0  0  0  0
   -0.7554  -10.6853  -14.8804 N   0  0  0  0  0  0  0  0  0  0  0  0
   -2.2132  -11.9409  -12.8583 C   0  0  2  0  0  0  0  0  0  0  0  0
   -7.5356  -11.5569  -18.8648 C   0  0  2  0  0  0  0  0  0  0  0  0
   -7.1236  -12.9345  -18.6191 N   0  0  0  0  0  0  0  0  0  0  0  0
   -1.8298   -9.9863  -16.9666 C   0  0  0  0  0  0  0  0  0  0  0  0
   -2.6356  -13.1168  -11.9245 C   0  0  2  0  0  0  0  0  0  0  0  0
   -2.4871  -14.3395  -12.6257 O   0  0  0  0  0  0  0  0  0  0  0  0
   -7.2556  -11.1512  -20.3537 C   0  0  0  0  0  0  0  0  0  0  0  0
   -2.9801  -10.3892  -17.9874 C   0  0  2  0  0  0  0  0  0  0  0  0
   -3.0231   -9.4019  -19.0912 N   0  0  0  0  0  0  0  0  0  0  0  0
   -4.1569  -12.8714  -11.5223 C   0  0  1  0  0  0  0  0  0  0  0  0
   -4.6588  -13.9823  -10.6441 N   0  0  0  0  0  0  0  0  0  0  0  0
   -7.4215   -9.6165  -20.5502 C   0  0  0  0  0  0  0  0  0  0  0  0
   -4.3787  -10.4271  -17.2249 C   0  0  2  0  0  0  0  0  0  0  0  0
   -4.2767  -11.4592  -10.7198 C   0  0  1  0  0  0  0  0  0  0  0  0
   -3.5040  -11.4533   -9.5350 O   0  0  0  0  0  0  0  0  0  0  0  0
   -7.3693   -8.7765  -19.5055 C   0  0  2  0  0  0  0  0  0  0  0  0
   -7.1650   -9.2127  -18.1502 O   0  0  0  0  0  0  0  0  0  0  0  0
   -4.2992  -11.4766  -16.0384 C   0  0  2  0  0  0  0  0  0  0  0  0
   -5.5442  -11.5024  -15.3289 O   0  0  0  0  0  0  0  0  0  0  0  0
   -3.7556  -10.2995  -11.6341 C   0  0  0  0  0  0  0  0  0  0  0  0
   -2.3590  -10.6265  -12.1354 O   0  0  0  0  0  0  0  0  0  0  0  0
   -7.5346   -7.2487  -19.6800 C   0  0  0  0  0  0  0  0  0  0  0  0
   -6.4057   -6.7201  -20.4327 N   0  0  0  0  0  0  0  0  0  0  0  0
   -3.1569  -11.0656  -15.0405 C   0  0  1  0  0  0  0  0  0  0  0  0
   -3.1141  -12.0207  -14.0076 O   0  0  0  0  0  0  0  0  0  0  0  0
   -5.6921  -11.0697  -10.2619 C   0  0  0  0  0  0  0  0  0  0  0  0
   -6.0404  -14.4375  -10.8894 C   0  0  0  0  0  0  0  0  0  0  0  0
  1  2  1  6  0  0  0
  1  6  1  0  0  0  0
  1 21  1  0  0  0  0
  3  4  1  1  0  0  0
  3  8  1  0  0  0  0
  3 28  1  0  0  0  0
  5  9  1  0  0  0  0
  5 25  1  0  0  0  0
  5 29  1  6  0  0  0
  6  7  1  6  0  0  0
  6 11  1  0  0  0  0
  8 12  1  0  0  0  0
  9 10  1  6  0  0  0
  9 14  1  0  0  0  0
 11 16  1  0  0  0  0
 12 13  1  6  0  0  0
 12 17  1  0  0  0  0
 14 15  1  1  0  0  0
 14 18  1  0  0  0  0
 15 31  1  0  0  0  0
 16 20  1  0  0  0  0
 17  2  1  6  0  0  0
 17 22  1  0  0  0  0
 18 19  1  1  0  0  0
 18 24  1  0  0  0  0
 18 30  1  0  0  0  0
 20 21  1  0  0  0  0
 20 26  1  1  0  0  0
 22 23  1  1  0  0  0
 22 28  1  0  0  0  0
 24 25  1  0  0  0  0
 26 27  1  0  0  0  0
 28 29  1  1  0  0  0
M  END
>  <CHROM.1>
-160.99556286,173.99457073,-140.66823918,-162.64246880,-66.38658644,63.55620678
-4.60295188,-11.05302214,-15.41260886,1.90289763,-0.21645687,-1.15162539

>  <Name>
ligand

>  <RI>
0

>  <Rbt.Current_Directory>
/home/itssahil/PROJECTS/Mol_Feturizer/New_Systems/rnas/4F8U

>  <Rbt.Executable>
rbdock ($Id: //depot/dev/client3/rdock/2013.1/src/exe/rbdock.cxx#4 $)

>  <Rbt.Library>
libRbt.so (2013.1, Build901 2013/11/27)

>  <Rbt.Parameter_File>
/export/apps/rDock/src/rDock_2013.1_src/data/scripts/dock_solv.prm

>  <Rbt.Receptor>
prm/pocket_docking_5.prm

>  <SCORE>
-13.3557

>  <SCORE.INTER>
-8.43907

>  <SCORE.INTER.CONST>
1

>  <SCORE.INTER.POLAR>
0

>  <SCORE.INTER.ROT>
6

>  <SCORE.INTER.SOLV>
17.1444

>  <SCORE.INTER.VDW>
-18.9408

>  <SCORE.INTER.norm>
-0.272228

>  <SCORE.INTRA>
-4.91731

>  <SCORE.INTRA.DIHEDRAL>
-11.0722

>  <SCORE.INTRA.DIHEDRAL.0>
18.77

>  <SCORE.INTRA.POLAR>
0

>  <SCORE.INTRA.POLAR.0>
0

>  <SCORE.INTRA.REPUL>
0

>  <SCORE.INTRA.REPUL.0>
0

>  <SCORE.INTRA.SOLV>
-1.11764

>  <SCORE.INTRA.SOLV.lig_0>
-77.2465

>  <SCORE.INTRA.VDW>
1.17763

>  <SCORE.INTRA.VDW.0>
-4.16072

>  <SCORE.INTRA.norm>
-0.158623

>  <SCORE.RESTR>
0.000665921

>  <SCORE.RESTR.CAVITY>
0.000665921

>  <SCORE.RESTR.norm>
2.14813e-05

>  <SCORE.SYSTEM>
0

>  <SCORE.SYSTEM.CONST>
0

>  <SCORE.SYSTEM.DIHEDRAL>
0

>  <SCORE.SYSTEM.SOLV>
0

>  <SCORE.SYSTEM.norm>
0

>  <SCORE.heavy>
31

>  <SCORE.norm>
-0.430829

>  <RMSD>
1.621

$$$$
ligand
 OpenBabel11021811493D
libRbt.so/2013.1/901 2013/11/27
 31 33  0  0  0  0  0  0  0  0999 V2000
   -7.0185   -9.9215  -18.5098 C   0  0  2  0  0  0  0  0  0  0  0  0
   -5.6115  -10.1795  -18.6116 O   0  0  0  0  0  0  0  0  0  0  0  0
   -2.3285  -10.2263  -15.8650 C   0  0  2  0  0  0  0  0  0  0  0  0
   -1.3613   -9.7801  -14.9093 N   0  0  0  0  0  0  0  0  0  0  0  0
   -5.0228  -10.6595  -13.1747 C   0  0  2  0  0  0  0  0  0  0  0  0
   -7.7291  -10.9812  -19.4231 C   0  0  2  0  0  0  0  0  0  0  0  0
   -7.3688  -12.3263  -18.9887 N   0  0  0  0  0  0  0  0  0  0  0  0
   -2.1569   -9.3912  -17.1921 C   0  0  0  0  0  0  0  0  0  0  0  0
   -4.4515  -11.0569  -11.7786 C   0  0  2  0  0  0  0  0  0  0  0  0
   -3.3914  -10.1768  -11.4460 O   0  0  0  0  0  0  0  0  0  0  0  0
   -7.3188  -10.7528  -20.9195 C   0  0  0  0  0  0  0  0  0  0  0  0
   -3.2265   -9.8933  -18.2557 C   0  0  2  0  0  0  0  0  0  0  0  0
   -3.0758   -9.1142  -19.5069 N   0  0  0  0  0  0  0  0  0  0  0  0
   -3.9310  -12.5574  -11.8960 C   0  0  1  0  0  0  0  0  0  0  0  0
   -3.3302  -13.0131  -10.5965 N   0  0  0  0  0  0  0  0  0  0  0  0
   -7.4345   -9.2490  -21.3023 C   0  0  0  0  0  0  0  0  0  0  0  0
   -4.6938   -9.7081  -17.6627 C   0  0  2  0  0  0  0  0  0  0  0  0
   -5.1816  -13.5288  -12.2771 C   0  0  1  0  0  0  0  0  0  0  0  0
   -6.2004  -13.4940  -11.2964 O   0  0  0  0  0  0  0  0  0  0  0  0
   -7.4502   -8.2951  -20.3592 C   0  0  2  0  0  0  0  0  0  0  0  0
   -7.3676   -8.5751  -18.9508 O   0  0  0  0  0  0  0  0  0  0  0  0
   -4.8219  -10.5360  -16.3160 C   0  0  2  0  0  0  0  0  0  0  0  0
   -6.1305  -10.3580  -15.7593 O   0  0  0  0  0  0  0  0  0  0  0  0
   -5.8084  -13.0565  -13.6322 C   0  0  0  0  0  0  0  0  0  0  0  0
   -6.1554  -11.5793  -13.5523 O   0  0  0  0  0  0  0  0  0  0  0  0
   -7.5673   -6.7957  -20.7194 C   0  0  0  0  0  0  0  0  0  0  0  0
   -6.2646   -6.1594  -20.5829 N   0  0  0  0  0  0  0  0  0  0  0  0
   -3.7571  -10.0295  -15.2770 C   0  0  1  0  0  0  0  0  0  0  0  0
   -3.8983  -10.7894  -14.1007 O   0  0  0  0  0  0  0  0  0  0  0  0
   -4.8442  -15.0209  -12.4332 C   0  0  0  0  0  0  0  0  0  0  0  0
   -4.1513  -12.8088   -9.3882 C   0  0  0  0  0  0  0  0  0  0  0  0
  1  2  1  6  0  0  0
  1  6  1  0  0  0  0
  1 21  1  0  0  0  0
  3  4  1  1  0  0  0
  3  8  1  0  0  0  0
  3 28  1  0  0  0  0
  5  9  1  0  0  0  0
  5 25  1  0  0  0  0
  5 29  1  6  0  0  0
  6  7  1  1  0  0  0
  6 11  1  0  0  0  0
  8 12  1  0  0  0  0
  9 10  1  6  0  0  0
  9 14  1  0  0  0  0
 11 16  1  0  0  0  0
 12 13  1  6  0  0  0
 12 17  1  0  0  0  0
 14 15  1  1  0  0  0
 14 18  1  0  0  0  0
 15 31  1  0  0  0  0
 16 20  1  0  0  0  0
 17  2  1  6  0  0  0
 17 22  1  0  0  0  0
 18 19  1  1  0  0  0
 18 24  1  0  0  0  0
 18 30  1  0  0  0  0
 20 21  1  0  0  0  0
 20 26  1  1  0  0  0
 22 23  1  1  0  0  0
 22 28  1  0  0  0  0
 24 25  1  0  0  0  0
 26 27  1  0  0  0  0
 28 29  1  1  0  0  0
M  END
>  <CHROM.1>
-161.04279943,-151.30450076,50.85546520,-167.47433830,-103.73313553,169.03682681
-5.14511405,-10.65782243,-15.90811109,1.84353993,-0.50412576,-1.02894308

>  <Name>
ligand

>  <RI>
0

>  <Rbt.Current_Directory>
/home/itssahil/PROJECTS/Mol_Feturizer/New_Systems/rnas/4F8U

>  <Rbt.Executable>
rbdock ($Id: //depot/dev/client3/rdock/2013.1/src/exe/rbdock.cxx#4 $)

>  <Rbt.Library>
libRbt.so (2013.1, Build901 2013/11/27)

>  <Rbt.Parameter_File>
/export/apps/rDock/src/rDock_2013.1_src/data/scripts/dock_solv.prm

>  <Rbt.Receptor>
prm/pocket_docking_3.prm

>  <SCORE>
-11.6571

>  <SCORE.INTER>
-8.33021

>  <SCORE.INTER.CONST>
1

>  <SCORE.INTER.POLAR>
0

>  <SCORE.INTER.ROT>
6

>  <SCORE.INTER.SOLV>
22.9707

>  <SCORE.INTER.VDW>
-20.8104

>  <SCORE.INTER.norm>
-0.268717

>  <SCORE.INTRA>
-3.32693

>  <SCORE.INTRA.DIHEDRAL>
-10.3827

>  <SCORE.INTRA.DIHEDRAL.0>
18.77

>  <SCORE.INTRA.POLAR>
0

>  <SCORE.INTRA.POLAR.0>
0

>  <SCORE.INTRA.REPUL>
0

>  <SCORE.INTRA.REPUL.0>
0

>  <SCORE.INTRA.SOLV>
-2.22635

>  <SCORE.INTRA.SOLV.lig_0>
-77.2465

>  <SCORE.INTRA.VDW>
2.97757

>  <SCORE.INTRA.VDW.0>
-4.16072

>  <SCORE.INTRA.norm>
-0.10732

>  <SCORE.RESTR>
0

>  <SCORE.RESTR.CAVITY>
0

>  <SCORE.RESTR.norm>
0

>  <SCORE.SYSTEM>
0

>  <SCORE.SYSTEM.CONST>
0

>  <SCORE.SYSTEM.DIHEDRAL>
0

>  <SCORE.SYSTEM.SOLV>
0

>  <SCORE.SYSTEM.norm>
0

>  <SCORE.heavy>
31

>  <SCORE.norm>
-0.376037

>  <RMSD>
1.632

$$$$
ligand
 OpenBabel11021811493D
libRbt.so/2013.1/901 2013/11/27
 31 33  0  0  0  0  0  0  0  0999 V2000
   -6.5196  -10.6094  -17.9961 C   0  0  2  0  0  0  0  0  0  0  0  0
   -5.1357  -10.9742  -18.0871 O   0  0  0  0  0  0  0  0  0  0  0  0
   -1.6878  -11.1770  -15.5584 C   0  0  2  0  0  0  0  0  0  0  0  0
   -0.6941  -10.8052  -14.5980 N   0  0  0  0  0  0  0  0  0  0  0  0
   -2.3024  -11.9868  -12.6014 C   0  0  2  0  0  0  0  0  0  0  0  0
   -7.2929  -11.5628  -18.9733 C   0  0  2  0  0  0  0  0  0  0  0  0
   -7.0495  -12.9521  -18.6011 N   0  0  0  0  0  0  0  0  0  0  0  0
   -1.6592  -10.1421  -16.7484 C   0  0  0  0  0  0  0  0  0  0  0  0
   -2.7875  -13.1403  -11.6701 C   0  0  2  0  0  0  0  0  0  0  0  0
   -2.5611  -14.3814  -12.3160 O   0  0  0  0  0  0  0  0  0  0  0  0
   -6.8349  -11.2954  -20.4493 C   0  0  0  0  0  0  0  0  0  0  0  0
   -2.7580  -10.5606  -17.8184 C   0  0  2  0  0  0  0  0  0  0  0  0
   -2.7416   -9.5939  -18.9410 N   0  0  0  0  0  0  0  0  0  0  0  0
   -4.3413  -12.9086  -11.4090 C   0  0  1  0  0  0  0  0  0  0  0  0
   -4.9016  -14.0003  -10.5420 N   0  0  0  0  0  0  0  0  0  0  0  0
   -6.8230   -9.7703  -20.7579 C   0  0  0  0  0  0  0  0  0  0  0  0
   -4.1934  -10.5804  -17.1270 C   0  0  2  0  0  0  0  0  0  0  0  0
   -4.5506  -11.4745  -10.6658 C   0  0  1  0  0  0  0  0  0  0  0  0
   -3.8839  -11.4189   -9.4195 O   0  0  0  0  0  0  0  0  0  0  0  0
   -6.7825   -8.8654  -19.7683 C   0  0  2  0  0  0  0  0  0  0  0  0
   -6.7516   -9.2194  -18.3746 O   0  0  0  0  0  0  0  0  0  0  0  0
   -4.1779  -11.6078  -15.9188 C   0  0  2  0  0  0  0  0  0  0  0  0
   -5.4572  -11.6169  -15.2728 O   0  0  0  0  0  0  0  0  0  0  0  0
   -3.9687  -10.3350  -11.5686 C   0  0  0  0  0  0  0  0  0  0  0  0
   -2.5293  -10.6534  -11.9366 O   0  0  0  0  0  0  0  0  0  0  0  0
   -6.7728   -7.3456  -20.0547 C   0  0  0  0  0  0  0  0  0  0  0  0
   -7.9446   -6.7289  -19.4489 N   0  0  0  0  0  0  0  0  0  0  0  0
   -3.0858  -11.1816  -14.8722 C   0  0  1  0  0  0  0  0  0  0  0  0
   -3.0989  -12.1175  -13.8211 O   0  0  0  0  0  0  0  0  0  0  0  0
   -6.0058  -11.0953  -10.3446 C   0  0  0  0  0  0  0  0  0  0  0  0
   -5.8194  -14.9510  -11.1977 C   0  0  0  0  0  0  0  0  0  0  0  0
  1  2  1  6  0  0  0
  1  6  1  0  0  0  0
  1 21  1  0  0  0  0
  3  4  1  1  0  0  0
  3  8  1  0  0  0  0
  3 28  1  0  0  0  0
  5  9  1  0  0  0  0
  5 25  1  0  0  0  0
  5 29  1  6  0  0  0
  6  7  1  1  0  0  0
  6 11  1  0  0  0  0
  8 12  1  0  0  0  0
  9 10  1  6  0  0  0
  9 14  1  0  0  0  0
 11 16  1  0  0  0  0
 12 13  1  6  0  0  0
 12 17  1  0  0  0  0
 14 15  1  1  0  0  0
 14 18  1  0  0  0  0
 15 31  1  0  0  0  0
 16 20  1  0  0  0  0
 17  2  1  6  0  0  0
 17 22  1  0  0  0  0
 18 19  1  1  0  0  0
 18 24  1  0  0  0  0
 18 30  1  0  0  0  0
 20 21  1  0  0  0  0
 20 26  1  1  0  0  0
 22 23  1  1  0  0  0
 22 28  1  0  0  0  0
 24 25  1  0  0  0  0
 26 27  1  0  0  0  0
 28 29  1  1  0  0  0
M  END
>  <CHROM.1>
-163.58766594,172.64709477,-109.78367645,-154.84735392,119.31668814,66.50174638
-4.55678138,-11.14503036,-15.33429575,1.86439931,-0.14024850,-1.18801221

>  <Name>
ligand

>  <RI>
0

>  <Rbt.Current_Directory>
/home/itssahil/PROJECTS/Mol_Feturizer/New_Systems/rnas/4F8U

>  <Rbt.Executable>
rbdock ($Id: //depot/dev/client3/rdock/2013.1/src/exe/rbdock.cxx#4 $)

>  <Rbt.Library>
libRbt.so (2013.1, Build901 2013/11/27)

>  <Rbt.Parameter_File>
/export/apps/rDock/src/rDock_2013.1_src/data/scripts/dock_solv.prm

>  <Rbt.Receptor>
prm/pocket_docking_4.prm

>  <SCORE>
-10.7322

>  <SCORE.INTER>
-5.10353

>  <SCORE.INTER.CONST>
1

>  <SCORE.INTER.POLAR>
0

>  <SCORE.INTER.ROT>
6

>  <SCORE.INTER.SOLV>
21.4994

>  <SCORE.INTER.VDW>
-18.1688

>  <SCORE.INTER.norm>
-0.16463

>  <SCORE.INTRA>
-5.62867

>  <SCORE.INTRA.DIHEDRAL>
-11.5537

>  <SCORE.INTRA.DIHEDRAL.0>
18.77

>  <SCORE.INTRA.POLAR>
0

>  <SCORE.INTRA.POLAR.0>
0

>  <SCORE.INTRA.REPUL>
0

>  <SCORE.INTRA.REPUL.0>
0

>  <SCORE.INTRA.SOLV>
-0.761185

>  <SCORE.INTRA.SOLV.lig_0>
-77.2465

>  <SCORE.INTRA.VDW>
0.528777

>  <SCORE.INTRA.VDW.0>
-4.16072

>  <SCORE.INTRA.norm>
-0.18157

>  <SCORE.RESTR>
0

>  <SCORE.RESTR.CAVITY>
0

>  <SCORE.RESTR.norm>
0

>  <SCORE.SYSTEM>
0

>  <SCORE.SYSTEM.CONST>
0

>  <SCORE.SYSTEM.DIHEDRAL>
0

>  <SCORE.SYSTEM.SOLV>
0

>  <SCORE.SYSTEM.norm>
0

>  <SCORE.heavy>
31

>  <SCORE.norm>
-0.3462

>  <RMSD>
1.661

$$$$
ligand
 OpenBabel11021811493D
libRbt.so/2013.1/901 2013/11/27
 31 33  0  0  0  0  0  0  0  0999 V2000
   -7.7939  -11.6512  -17.9124 C   0  0  2  0  0  0  0  0  0  0  0  0
   -6.4122  -11.9071  -17.6264 O   0  0  0  0  0  0  0  0  0  0  0  0
   -2.8943  -10.1992  -15.8853 C   0  0  2  0  0  0  0  0  0  0  0  0
   -2.0347   -9.2789  -15.2055 N   0  0  0  0  0  0  0  0  0  0  0  0
   -2.8851  -10.5771  -12.6626 C   0  0  2  0  0  0  0  0  0  0  0  0
   -8.3940  -13.0027  -18.4371 C   0  0  2  0  0  0  0  0  0  0  0  0
   -8.2087  -14.0459  -17.4345 N   0  0  0  0  0  0  0  0  0  0  0  0
   -3.4950   -9.4899  -17.1596 C   0  0  0  0  0  0  0  0  0  0  0  0
   -2.0095  -11.6405  -11.9306 C   0  0  2  0  0  0  0  0  0  0  0  0
   -1.0243  -12.1239  -12.8276 O   0  0  0  0  0  0  0  0  0  0  0  0
   -7.7031  -13.4019  -19.7873 C   0  0  0  0  0  0  0  0  0  0  0  0
   -4.4435  -10.5157  -17.9182 C   0  0  2  0  0  0  0  0  0  0  0  0
   -5.0153   -9.8594  -19.1171 N   0  0  0  0  0  0  0  0  0  0  0  0
   -2.9845  -12.8121  -11.4693 C   0  0  1  0  0  0  0  0  0  0  0  0
   -2.2140  -13.9023  -10.7801 N   0  0  0  0  0  0  0  0  0  0  0  0
   -7.6474  -12.1891  -20.7608 C   0  0  0  0  0  0  0  0  0  0  0  0
   -5.6078  -10.9881  -16.9384 C   0  0  2  0  0  0  0  0  0  0  0  0
   -4.0952  -12.2098  -10.4414 C   0  0  1  0  0  0  0  0  0  0  0  0
   -3.5023  -11.6522   -9.2844 O   0  0  0  0  0  0  0  0  0  0  0  0
   -7.7722  -10.9328  -20.3073 C   0  0  2  0  0  0  0  0  0  0  0  0
   -7.9669  -10.6094  -18.9194 O   0  0  0  0  0  0  0  0  0  0  0  0
   -4.9686  -11.6693  -15.6566 C   0  0  2  0  0  0  0  0  0  0  0  0
   -6.0057  -12.0771  -14.7554 O   0  0  0  0  0  0  0  0  0  0  0  0
   -4.9006  -11.0742  -11.1583 C   0  0  0  0  0  0  0  0  0  0  0  0
   -3.9411  -10.0434  -11.7290 O   0  0  0  0  0  0  0  0  0  0  0  0
   -7.7222   -9.7148  -21.2590 C   0  0  0  0  0  0  0  0  0  0  0  0
   -6.6893   -8.7906  -20.8127 N   0  0  0  0  0  0  0  0  0  0  0  0
   -4.0329  -10.6438  -14.9202 C   0  0  1  0  0  0  0  0  0  0  0  0
   -3.4819  -11.2849  -13.7948 O   0  0  0  0  0  0  0  0  0  0  0  0
   -5.1227  -13.2190   -9.9028 C   0  0  0  0  0  0  0  0  0  0  0  0
   -1.5778  -14.9068  -11.6533 C   0  0  0  0  0  0  0  0  0  0  0  0
  1  2  1  6  0  0  0
  1  6  1  0  0  0  0
  1 21  1  0  0  0  0
  3  4  1  1  0  0  0
  3  8  1  0  0  0  0
  3 28  1  0  0  0  0
  5  9  1  0  0  0  0
  5 25  1  0  0  0  0
  5 29  1  6  0  0  0
  6  7  1  1  0  0  0
  6 11  1  0  0  0  0
  8 12  1  0  0  0  0
  9 10  1  6  0  0  0
  9 14  1  0  0  0  0
 11 16  1  0  0  0  0
 12 13  1  6  0  0  0
 12 17  1  0  0  0  0
 14 15  1  1  0  0  0
 14 18  1  0  0  0  0
 15 31  1  0  0  0  0
 16 20  1  0  0  0  0
 17  2  1  6  0  0  0
 17 22  1  0  0  0  0
 18 19  1  1  0  0  0
 18 24  1  0  0  0  0
 18 30  1  0  0  0  0
 20 21  1  0  0  0  0
 20 26  1  6  0  0  0
 22 23  1  1  0  0  0
 22 28  1  0  0  0  0
 24 25  1  0  0  0  0
 26 27  1  0  0  0  0
 28 29  1  1  0  0  0
M  END
>  <CHROM.1>
-169.57490682,-161.43378914,-83.75736796,-116.78495049,-124.69815486,79.20044680
-4.90870740,-11.50651118,-15.38418808,2.17612665,-0.65868125,-1.04091722

>  <Name>
ligand

>  <RI>
0

>  <Rbt.Current_Directory>
/home/itssahil/PROJECTS/Mol_Feturizer/New_Systems/rnas/4F8U

>  <Rbt.Executable>
rbdock ($Id: //depot/dev/client3/rdock/2013.1/src/exe/rbdock.cxx#4 $)

>  <Rbt.Library>
libRbt.so (2013.1, Build901 2013/11/27)

>  <Rbt.Parameter_File>
/export/apps/rDock/src/rDock_2013.1_src/data/scripts/dock_solv.prm

>  <Rbt.Receptor>
prm/pocket_docking_4.prm

>  <SCORE>
-15.1405

>  <SCORE.INTER>
-14.6236

>  <SCORE.INTER.CONST>
1

>  <SCORE.INTER.POLAR>
0

>  <SCORE.INTER.ROT>
6

>  <SCORE.INTER.SOLV>
16.2554

>  <SCORE.INTER.VDW>
-22.7675

>  <SCORE.INTER.norm>
-0.471728

>  <SCORE.INTRA>
-0.516929

>  <SCORE.INTRA.DIHEDRAL>
-5.73767

>  <SCORE.INTRA.DIHEDRAL.0>
18.77

>  <SCORE.INTRA.POLAR>
0

>  <SCORE.INTRA.POLAR.0>
0

>  <SCORE.INTRA.REPUL>
0

>  <SCORE.INTRA.REPUL.0>
0

>  <SCORE.INTRA.SOLV>
4.06442

>  <SCORE.INTRA.SOLV.lig_0>
-77.2465

>  <SCORE.INTRA.VDW>
0.319698

>  <SCORE.INTRA.VDW.0>
-4.16072

>  <SCORE.INTRA.norm>
-0.0166751

>  <SCORE.RESTR>
0

>  <SCORE.RESTR.CAVITY>
0

>  <SCORE.RESTR.norm>
0

>  <SCORE.SYSTEM>
0

>  <SCORE.SYSTEM.CONST>
0

>  <SCORE.SYSTEM.DIHEDRAL>
0

>  <SCORE.SYSTEM.SOLV>
0

>  <SCORE.SYSTEM.norm>
0

>  <SCORE.heavy>
31

>  <SCORE.norm>
-0.488404

>  <RMSD>
1.738

$$$$
ligand
 OpenBabel11021811493D
libRbt.so/2013.1/901 2013/11/27
 31 33  0  0  0  0  0  0  0  0999 V2000
   -6.6452   -9.5794  -17.7242 C   0  0  2  0  0  0  0  0  0  0  0  0
   -5.2936   -9.9458  -18.0329 O   0  0  0  0  0  0  0  0  0  0  0  0
   -1.5192   -9.7412  -16.0239 C   0  0  2  0  0  0  0  0  0  0  0  0
   -0.3715   -9.2052  -15.3579 N   0  0  0  0  0  0  0  0  0  0  0  0
   -1.9815  -11.2222  -13.6326 C   0  0  2  0  0  0  0  0  0  0  0  0
   -7.5591  -10.6825  -18.3645 C   0  0  2  0  0  0  0  0  0  0  0  0
   -7.1943  -11.9921  -17.8357 N   0  0  0  0  0  0  0  0  0  0  0  0
   -1.6121   -9.1108  -17.4668 C   0  0  0  0  0  0  0  0  0  0  0  0
   -3.0716  -12.3380  -13.6326 C   0  0  2  0  0  0  0  0  0  0  0  0
   -3.6970  -12.3726  -14.9040 O   0  0  0  0  0  0  0  0  0  0  0  0
   -7.4116  -10.6539  -19.9257 C   0  0  0  0  0  0  0  0  0  0  0  0
   -2.8828   -9.7129  -18.2085 C   0  0  2  0  0  0  0  0  0  0  0  0
   -2.9814   -9.1263  -19.5655 N   0  0  0  0  0  0  0  0  0  0  0  0
   -4.1194  -11.9681  -12.4918 C   0  0  1  0  0  0  0  0  0  0  0  0
   -5.2295  -12.9794  -12.4436 N   0  0  0  0  0  0  0  0  0  0  0  0
   -7.5190   -9.1984  -20.4656 C   0  0  0  0  0  0  0  0  0  0  0  0
   -4.1954   -9.3838  -17.3673 C   0  0  2  0  0  0  0  0  0  0  0  0
   -3.3565  -11.9421  -11.0530 C   0  0  1  0  0  0  0  0  0  0  0  0
   -2.7834  -13.1949  -10.7320 O   0  0  0  0  0  0  0  0  0  0  0  0
   -7.3188   -8.1455  -19.6587 C   0  0  2  0  0  0  0  0  0  0  0  0
   -7.0002   -8.2701  -18.2616 O   0  0  0  0  0  0  0  0  0  0  0  0
   -4.0558  -10.0062  -15.9152 C   0  0  2  0  0  0  0  0  0  0  0  0
   -5.2206   -9.6959  -15.1400 O   0  0  0  0  0  0  0  0  0  0  0  0
   -2.2000  -10.8874  -11.1004 C   0  0  0  0  0  0  0  0  0  0  0  0
   -1.2975  -11.1654  -12.2908 O   0  0  0  0  0  0  0  0  0  0  0  0
   -7.4237   -6.6918  -20.1757 C   0  0  0  0  0  0  0  0  0  0  0  0
   -6.0938   -6.1915  -20.4942 N   0  0  0  0  0  0  0  0  0  0  0  0
   -2.7948   -9.4029  -15.1970 C   0  0  1  0  0  0  0  0  0  0  0  0
   -2.7019   -9.9817  -13.9174 O   0  0  0  0  0  0  0  0  0  0  0  0
   -4.2334  -11.5940   -9.8387 C   0  0  0  0  0  0  0  0  0  0  0  0
   -4.8399  -14.3641  -12.1167 C   0  0  0  0  0  0  0  0  0  0  0  0
  1  2  1  6  0  0  0
  1  6  1  0  0  0  0
  1 21  1  0  0  0  0
  3  4  1  1  0  0  0
  3  8  1  0  0  0  0
  3 28  1  0  0  0  0
  5  9  1  0  0  0  0
  5 25  1  0  0  0  0
  5 29  1  1  0  0  0
  6  7  1  1  0  0  0
  6 11  1  0  0  0  0
  8 12  1  0  0  0  0
  9 10  1  6  0  0  0
  9 14  1  0  0  0  0
 11 16  1  0  0  0  0
 12 13  1  6  0  0  0
 12 17  1  0  0  0  0
 14 15  1  1  0  0  0
 14 18  1  0  0  0  0
 15 31  1  0  0  0  0
 16 20  1  0  0  0  0
 17  2  1  6  0  0  0
 17 22  1  0  0  0  0
 18 19  1  1  0  0  0
 18 24  1  0  0  0  0
 18 30  1  0  0  0  0
 20 21  1  0  0  0  0
 20 26  1  1  0  0  0
 22 23  1  1  0  0  0
 22 28  1  0  0  0  0
 24 25  1  0  0  0  0
 26 27  1  0  0  0  0
 28 29  1  1  0  0  0
M  END
>  <CHROM.1>
-164.44166696,-97.28356390,62.31849586,-165.08644525,-97.05983765,-30.30011208
-4.34041749,-10.36521361,-15.74122273,1.98828448,-0.34643235,-1.00317861

>  <Name>
ligand

>  <RI>
0

>  <Rbt.Current_Directory>
/home/itssahil/PROJECTS/Mol_Feturizer/New_Systems/rnas/4F8U

>  <Rbt.Executable>
rbdock ($Id: //depot/dev/client3/rdock/2013.1/src/exe/rbdock.cxx#4 $)

>  <Rbt.Library>
libRbt.so (2013.1, Build901 2013/11/27)

>  <Rbt.Parameter_File>
/export/apps/rDock/src/rDock_2013.1_src/data/scripts/dock_solv.prm

>  <Rbt.Receptor>
prm/pocket_docking_2.prm

>  <SCORE>
-7.00794

>  <SCORE.INTER>
-8.59994

>  <SCORE.INTER.CONST>
1

>  <SCORE.INTER.POLAR>
0

>  <SCORE.INTER.ROT>
6

>  <SCORE.INTER.SOLV>
22.908

>  <SCORE.INTER.VDW>
-20.9693

>  <SCORE.INTER.norm>
-0.277417

>  <SCORE.INTRA>
1.05192

>  <SCORE.INTRA.DIHEDRAL>
-5.81756

>  <SCORE.INTRA.DIHEDRAL.0>
18.77

>  <SCORE.INTRA.POLAR>
0

>  <SCORE.INTRA.POLAR.0>
0

>  <SCORE.INTRA.REPUL>
0

>  <SCORE.INTRA.REPUL.0>
0

>  <SCORE.INTRA.SOLV>
-0.852455

>  <SCORE.INTRA.SOLV.lig_0>
-77.2465

>  <SCORE.INTRA.VDW>
4.38692

>  <SCORE.INTRA.VDW.0>
-4.16072

>  <SCORE.INTRA.norm>
0.0339328

>  <SCORE.RESTR>
0.540082

>  <SCORE.RESTR.CAVITY>
0.540082

>  <SCORE.RESTR.norm>
0.017422

>  <SCORE.SYSTEM>
0

>  <SCORE.SYSTEM.CONST>
0

>  <SCORE.SYSTEM.DIHEDRAL>
0

>  <SCORE.SYSTEM.SOLV>
0

>  <SCORE.SYSTEM.norm>
0

>  <SCORE.heavy>
31

>  <SCORE.norm>
-0.226063

>  <RMSD>
1.761

$$$$
ligand
 OpenBabel11021811493D
libRbt.so/2013.1/901 2013/11/27
 31 33  0  0  0  0  0  0  0  0999 V2000
   -7.8514  -11.8566  -17.9720 C   0  0  2  0  0  0  0  0  0  0  0  0
   -6.4671  -12.0571  -17.6556 O   0  0  0  0  0  0  0  0  0  0  0  0
   -3.0303  -10.1393  -15.9722 C   0  0  2  0  0  0  0  0  0  0  0  0
   -2.2191   -9.1756  -15.2930 N   0  0  0  0  0  0  0  0  0  0  0  0
   -2.8611  -10.5952  -12.7803 C   0  0  2  0  0  0  0  0  0  0  0  0
   -8.4302  -13.2688  -18.3362 C   0  0  2  0  0  0  0  0  0  0  0  0
   -8.2335  -14.1849  -17.2183 N   0  0  0  0  0  0  0  0  0  0  0  0
   -3.7206   -9.4442  -17.2084 C   0  0  0  0  0  0  0  0  0  0  0  0
   -1.9821  -11.6508  -12.0412 C   0  0  2  0  0  0  0  0  0  0  0  0
   -1.0076  -12.1513  -12.9405 O   0  0  0  0  0  0  0  0  0  0  0  0
   -7.7289  -13.8128  -19.6293 C   0  0  0  0  0  0  0  0  0  0  0  0
   -4.6151  -10.5176  -17.9667 C   0  0  2  0  0  0  0  0  0  0  0  0
   -5.2703   -9.8752  -19.1299 N   0  0  0  0  0  0  0  0  0  0  0  0
   -2.9567  -12.8117  -11.5528 C   0  0  1  0  0  0  0  0  0  0  0  0
   -2.1834  -13.8945  -10.8551 N   0  0  0  0  0  0  0  0  0  0  0  0
   -7.6872  -12.7214  -20.7377 C   0  0  0  0  0  0  0  0  0  0  0  0
   -5.7107  -11.0990  -16.9665 C   0  0  2  0  0  0  0  0  0  0  0  0
   -4.0550  -12.1900  -10.5232 C   0  0  1  0  0  0  0  0  0  0  0  0
   -3.4487  -11.6175   -9.3806 O   0  0  0  0  0  0  0  0  0  0  0  0
   -7.8315  -11.4226  -20.4344 C   0  0  2  0  0  0  0  0  0  0  0  0
   -8.0358  -10.9422  -19.0941 O   0  0  0  0  0  0  0  0  0  0  0  0
   -4.9838  -11.7634  -15.7232 C   0  0  2  0  0  0  0  0  0  0  0  0
   -5.9598  -12.2690  -14.8035 O   0  0  0  0  0  0  0  0  0  0  0  0
   -4.8634  -11.0623  -11.2491 C   0  0  0  0  0  0  0  0  0  0  0  0
   -3.9059  -10.0437  -11.8445 O   0  0  0  0  0  0  0  0  0  0  0  0
   -7.7957  -10.3236  -21.5218 C   0  0  0  0  0  0  0  0  0  0  0  0
   -6.6764   -9.4267  -21.2705 N   0  0  0  0  0  0  0  0  0  0  0  0
   -4.1028  -10.6907  -14.9866 C   0  0  1  0  0  0  0  0  0  0  0  0
   -3.4717  -11.3175  -13.8959 O   0  0  0  0  0  0  0  0  0  0  0  0
   -5.0808  -13.1873   -9.9595 C   0  0  0  0  0  0  0  0  0  0  0  0
   -1.6081  -14.9461  -11.7149 C   0  0  0  0  0  0  0  0  0  0  0  0
  1  2  1  6  0  0  0
  1  6  1  0  0  0  0
  1 21  1  0  0  0  0
  3  4  1  1  0  0  0
  3  8  1  0  0  0  0
  3 28  1  0  0  0  0
  5  9  1  0  0  0  0
  5 25  1  0  0  0  0
  5 29  1  6  0  0  0
  6  7  1  1  0  0  0
  6 11  1  0  0  0  0
  8 12  1  0  0  0  0
  9 10  1  6  0  0  0
  9 14  1  0  0  0  0
 11 16  1  0  0  0  0
 12 13  1  6  0  0  0
 12 17  1  0  0  0  0
 14 15  1  1  0  0  0
 14 18  1  0  0  0  0
 15 31  1  0  0  0  0
 16 20  1  0  0  0  0
 17  2  1  6  0  0  0
 17 22  1  0  0  0  0
 18 19  1  1  0  0  0
 18 24  1  0  0  0  0
 18 30  1  0  0  0  0
 20 21  1  0  0  0  0
 20 26  1  6  0  0  0
 22 23  1  1  0  0  0
 22 28  1  0  0  0  0
 24 25  1  0  0  0  0
 26 27  1  0  0  0  0
 28 29  1  1  0  0  0
M  END
>  <CHROM.1>
-163.51596387,-165.41455395,-86.28557469,-112.52294570,-118.03952371,77.48381553
-4.94674324,-11.63675222,-15.45638014,2.21607739,-0.70472441,-1.03097598

>  <Name>
ligand

>  <RI>
0

>  <Rbt.Current_Directory>
/home/itssahil/PROJECTS/Mol_Feturizer/New_Systems/rnas/4F8U

>  <Rbt.Executable>
rbdock ($Id: //depot/dev/client3/rdock/2013.1/src/exe/rbdock.cxx#4 $)

>  <Rbt.Library>
libRbt.so (2013.1, Build901 2013/11/27)

>  <Rbt.Parameter_File>
/export/apps/rDock/src/rDock_2013.1_src/data/scripts/dock_solv.prm

>  <Rbt.Receptor>
prm/pocket_docking_6.prm

>  <SCORE>
-15.1739

>  <SCORE.INTER>
-14.4894

>  <SCORE.INTER.CONST>
1

>  <SCORE.INTER.POLAR>
0

>  <SCORE.INTER.ROT>
6

>  <SCORE.INTER.SOLV>
16.6693

>  <SCORE.INTER.VDW>
-22.816

>  <SCORE.INTER.norm>
-0.467399

>  <SCORE.INTRA>
-0.684559

>  <SCORE.INTRA.DIHEDRAL>
-6.00646

>  <SCORE.INTRA.DIHEDRAL.0>
18.77

>  <SCORE.INTRA.POLAR>
0

>  <SCORE.INTRA.POLAR.0>
0

>  <SCORE.INTRA.REPUL>
0

>  <SCORE.INTRA.REPUL.0>
0

>  <SCORE.INTRA.SOLV>
3.98907

>  <SCORE.INTRA.SOLV.lig_0>
-77.2465

>  <SCORE.INTRA.VDW>
0.324135

>  <SCORE.INTRA.VDW.0>
-4.16072

>  <SCORE.INTRA.norm>
-0.0220825

>  <SCORE.RESTR>
0

>  <SCORE.RESTR.CAVITY>
0

>  <SCORE.RESTR.norm>
0

>  <SCORE.SYSTEM>
0

>  <SCORE.SYSTEM.CONST>
0

>  <SCORE.SYSTEM.DIHEDRAL>
0

>  <SCORE.SYSTEM.SOLV>
0

>  <SCORE.SYSTEM.norm>
0

>  <SCORE.heavy>
31

>  <SCORE.norm>
-0.489482

>  <RMSD>
1.993

$$$$
ligand
 OpenBabel11021811493D
libRbt.so/2013.1/901 2013/11/27
 31 33  0  0  0  0  0  0  0  0999 V2000
   -6.3291  -10.1631  -18.1720 C   0  0  2  0  0  0  0  0  0  0  0  0
   -5.2865  -10.8718  -17.4886 O   0  0  0  0  0  0  0  0  0  0  0  0
   -1.4476  -10.1637  -15.7321 C   0  0  2  0  0  0  0  0  0  0  0  0
   -0.3844   -9.5157  -15.0267 N   0  0  0  0  0  0  0  0  0  0  0  0
   -1.9146  -10.6482  -12.3634 C   0  0  2  0  0  0  0  0  0  0  0  0
   -7.5685  -10.1647  -17.2097 C   0  0  2  0  0  0  0  0  0  0  0  0
   -7.2058   -9.5478  -15.9386 N   0  0  0  0  0  0  0  0  0  0  0  0
   -1.8618   -9.2696  -16.9637 C   0  0  0  0  0  0  0  0  0  0  0  0
   -1.3885  -11.8813  -11.5659 C   0  0  2  0  0  0  0  0  0  0  0  0
   -0.2663  -12.4232  -12.2410 O   0  0  0  0  0  0  0  0  0  0  0  0
   -8.0685  -11.6349  -16.9903 C   0  0  0  0  0  0  0  0  0  0  0  0
   -3.0375   -9.9943  -17.7511 C   0  0  2  0  0  0  0  0  0  0  0  0
   -3.4364   -9.1622  -18.9102 N   0  0  0  0  0  0  0  0  0  0  0  0
   -2.5784  -12.9376  -11.4992 C   0  0  1  0  0  0  0  0  0  0  0  0
   -2.1451  -14.1789  -10.7720 N   0  0  0  0  0  0  0  0  0  0  0  0
   -8.1831  -12.3893  -18.3464 C   0  0  0  0  0  0  0  0  0  0  0  0
   -4.2772  -10.2118  -16.7740 C   0  0  2  0  0  0  0  0  0  0  0  0
   -3.8414  -12.2716  -10.7154 C   0  0  1  0  0  0  0  0  0  0  0  0
   -3.5100  -11.9008   -9.3911 O   0  0  0  0  0  0  0  0  0  0  0  0
   -7.5267  -11.9587  -19.4343 C   0  0  2  0  0  0  0  0  0  0  0  0
   -6.6865  -10.7914  -19.4396 O   0  0  0  0  0  0  0  0  0  0  0  0
   -3.8186  -11.0885  -15.5344 C   0  0  2  0  0  0  0  0  0  0  0  0
   -4.9195  -11.2709  -14.6350 O   0  0  0  0  0  0  0  0  0  0  0  0
   -4.2957  -10.9784  -11.4727 C   0  0  0  0  0  0  0  0  0  0  0  0
   -3.1085  -10.0498  -11.6648 O   0  0  0  0  0  0  0  0  0  0  0  0
   -7.6301  -12.6930  -20.7914 C   0  0  0  0  0  0  0  0  0  0  0  0
   -7.7841  -11.7179  -21.8618 N   0  0  0  0  0  0  0  0  0  0  0  0
   -2.6555  -10.3599  -14.7689 C   0  0  1  0  0  0  0  0  0  0  0  0
   -2.2735  -11.1687  -13.6822 O   0  0  0  0  0  0  0  0  0  0  0  0
   -5.0830  -13.1667  -10.5685 C   0  0  0  0  0  0  0  0  0  0  0  0
   -1.4877  -15.2188  -11.5862 C   0  0  0  0  0  0  0  0  0  0  0  0
  1  2  1  1  0  0  0
  1  6  1  0  0  0  0
  1 21  1  0  0  0  0
  3  4  1  1  0  0  0
  3  8  1  0  0  0  0
  3 28  1  0  0  0  0
  5  9  1  0  0  0  0
  5 25  1  0  0  0  0
  5 29  1  6  0  0  0
  6  7  1  1  0  0  0
  6 11  1  0  0  0  0
  8 12  1  0  0  0  0
  9 10  1  6  0  0  0
  9 14  1  0  0  0  0
 11 16  1  0  0  0  0
 12 13  1  6  0  0  0
 12 17  1  0  0  0  0
 14 15  1  1  0  0  0
 14 18  1  0  0  0  0
 15 31  1  0  0  0  0
 16 20  1  0  0  0  0
 17  2  1  6  0  0  0
 17 22  1  0  0  0  0
 18 19  1  1  0  0  0
 18 24  1  0  0  0  0
 18 30  1  0  0  0  0
 20 21  1  0  0  0  0
 20 26  1  6  0  0  0
 22 23  1  1  0  0  0
 22 28  1  0  0  0  0
 24 25  1  0  0  0  0
 26 27  1  0  0  0  0
 28 29  1  1  0  0  0
M  END
>  <CHROM.1>
-97.52821427,-172.66427803,-86.91942221,-92.82109958,136.71630474,99.82238144
-4.18435063,-11.30079354,-15.09642897,-2.13274371,0.37793556,1.94720098

>  <Name>
ligand

>  <RI>
0

>  <Rbt.Current_Directory>
/home/itssahil/PROJECTS/Mol_Feturizer/New_Systems/rnas/4F8U

>  <Rbt.Executable>
rbdock ($Id: //depot/dev/client3/rdock/2013.1/src/exe/rbdock.cxx#4 $)

>  <Rbt.Library>
libRbt.so (2013.1, Build901 2013/11/27)

>  <Rbt.Parameter_File>
/export/apps/rDock/src/rDock_2013.1_src/data/scripts/dock_solv.prm

>  <Rbt.Receptor>
prm/pocket_docking_3.prm

>  <SCORE>
-10.3302

>  <SCORE.INTER>
-10.0458

>  <SCORE.INTER.CONST>
1

>  <SCORE.INTER.POLAR>
0

>  <SCORE.INTER.ROT>
6

>  <SCORE.INTER.SOLV>
25.1134

>  <SCORE.INTER.VDW>
-22.6684

>  <SCORE.INTER.norm>
-0.324059

>  <SCORE.INTRA>
-0.284368

>  <SCORE.INTRA.DIHEDRAL>
-1.49684

>  <SCORE.INTRA.DIHEDRAL.0>
18.77

>  <SCORE.INTRA.POLAR>
0

>  <SCORE.INTRA.POLAR.0>
0

>  <SCORE.INTRA.REPUL>
0

>  <SCORE.INTRA.REPUL.0>
0

>  <SCORE.INTRA.SOLV>
0.545589

>  <SCORE.INTRA.SOLV.lig_0>
-77.2465

>  <SCORE.INTRA.VDW>
0.191257

>  <SCORE.INTRA.VDW.0>
-4.16072

>  <SCORE.INTRA.norm>
-0.00917315

>  <SCORE.RESTR>
0

>  <SCORE.RESTR.CAVITY>
0

>  <SCORE.RESTR.norm>
0

>  <SCORE.SYSTEM>
0

>  <SCORE.SYSTEM.CONST>
0

>  <SCORE.SYSTEM.DIHEDRAL>
0

>  <SCORE.SYSTEM.SOLV>
0

>  <SCORE.SYSTEM.norm>
0

>  <SCORE.heavy>
31

>  <SCORE.norm>
-0.333232

>  <RMSD>
2.158

$$$$
ligand
 OpenBabel11021811493D
libRbt.so/2013.1/901 2013/11/27
 31 33  0  0  0  0  0  0  0  0999 V2000
   -7.9620  -12.0597  -17.8831 C   0  0  2  0  0  0  0  0  0  0  0  0
   -6.6037  -12.2602  -17.4692 O   0  0  0  0  0  0  0  0  0  0  0  0
   -3.1978  -10.1623  -15.9454 C   0  0  2  0  0  0  0  0  0  0  0  0
   -2.4081   -9.1591  -15.2989 N   0  0  0  0  0  0  0  0  0  0  0  0
   -2.8674  -10.6356  -12.7523 C   0  0  2  0  0  0  0  0  0  0  0  0
   -8.4926  -13.4603  -18.3507 C   0  0  2  0  0  0  0  0  0  0  0  0
   -8.3706  -14.4221  -17.2608 N   0  0  0  0  0  0  0  0  0  0  0  0
   -3.9899   -9.4982  -17.1369 C   0  0  0  0  0  0  0  0  0  0  0  0
   -1.9513  -11.6613  -12.0163 C   0  0  2  0  0  0  0  0  0  0  0  0
   -0.9677  -12.1341  -12.9207 O   0  0  0  0  0  0  0  0  0  0  0  0
   -7.6869  -13.9408  -19.6076 C   0  0  0  0  0  0  0  0  0  0  0  0
   -4.8606  -10.6151  -17.8593 C   0  0  2  0  0  0  0  0  0  0  0  0
   -5.6110  -10.0022  -18.9801 N   0  0  0  0  0  0  0  0  0  0  0  0
   -2.8862  -12.8504  -11.5182 C   0  0  1  0  0  0  0  0  0  0  0  0
   -2.0751  -13.9067  -10.8227 N   0  0  0  0  0  0  0  0  0  0  0  0
   -7.5743  -12.8020  -20.6620 C   0  0  0  0  0  0  0  0  0  0  0  0
   -5.8678  -11.2658  -16.8100 C   0  0  2  0  0  0  0  0  0  0  0  0
   -3.9964  -12.2600  -10.4828 C   0  0  1  0  0  0  0  0  0  0  0  0
   -3.4005  -11.6656   -9.3459 O   0  0  0  0  0  0  0  0  0  0  0  0
   -7.7585  -11.5190  -20.3158 C   0  0  2  0  0  0  0  0  0  0  0  0
   -8.0715  -11.0992  -18.9762 O   0  0  0  0  0  0  0  0  0  0  0  0
   -5.0406  -11.8972  -15.6131 C   0  0  2  0  0  0  0  0  0  0  0  0
   -5.9370  -12.4647  -14.6496 O   0  0  0  0  0  0  0  0  0  0  0  0
   -4.8440  -11.1599  -11.2064 C   0  0  0  0  0  0  0  0  0  0  0  0
   -3.9225  -10.1140  -11.8110 O   0  0  0  0  0  0  0  0  0  0  0  0
   -7.6536  -10.3736  -21.3496 C   0  0  0  0  0  0  0  0  0  0  0  0
   -7.2279  -10.9139  -22.6330 N   0  0  0  0  0  0  0  0  0  0  0  0
   -4.1844  -10.7816  -14.9117 C   0  0  1  0  0  0  0  0  0  0  0  0
   -3.4627  -11.3797  -13.8618 O   0  0  0  0  0  0  0  0  0  0  0  0
   -4.9870  -13.2868   -9.9095 C   0  0  0  0  0  0  0  0  0  0  0  0
   -1.5023  -14.9622  -11.6794 C   0  0  0  0  0  0  0  0  0  0  0  0
  1  2  1  6  0  0  0
  1  6  1  0  0  0  0
  1 21  1  0  0  0  0
  3  4  1  1  0  0  0
  3  8  1  0  0  0  0
  3 28  1  0  0  0  0
  5  9  1  0  0  0  0
  5 25  1  0  0  0  0
  5 29  1  6  0  0  0
  6  7  1  1  0  0  0
  6 11  1  0  0  0  0
  8 12  1  0  0  0  0
  9 10  1  6  0  0  0
  9 14  1  0  0  0  0
 11 16  1  0  0  0  0
 12 13  1  6  0  0  0
 12 17  1  0  0  0  0
 14 15  1  1  0  0  0
 14 18  1  0  0  0  0
 15 31  1  0  0  0  0
 16 20  1  0  0  0  0
 17  2  1  6  0  0  0
 17 22  1  0  0  0  0
 18 19  1  1  0  0  0
 18 24  1  0  0  0  0
 18 30  1  0  0  0  0
 20 21  1  0  0  0  0
 20 26  1  6  0  0  0
 22 23  1  1  0  0  0
 22 28  1  0  0  0  0
 24 25  1  0  0  0  0
 26 27  1  0  0  0  0
 28 29  1  1  0  0  0
M  END
>  <CHROM.1>
-170.65826633,-169.09404990,-87.81591415,-103.32476909,-4.89044425,79.20894668
-4.99606826,-11.77374649,-15.43564447,2.23741502,-0.72411243,-1.03497014

>  <Name>
ligand

>  <RI>
0

>  <Rbt.Current_Directory>
/home/itssahil/PROJECTS/Mol_Feturizer/New_Systems/rnas/4F8U

>  <Rbt.Executable>
rbdock ($Id: //depot/dev/client3/rdock/2013.1/src/exe/rbdock.cxx#4 $)

>  <Rbt.Library>
libRbt.so (2013.1, Build901 2013/11/27)

>  <Rbt.Parameter_File>
/export/apps/rDock/src/rDock_2013.1_src/data/scripts/dock_solv.prm

>  <Rbt.Receptor>
prm/pocket_docking_5.prm

>  <SCORE>
-15.5129

>  <SCORE.INTER>
-13.9303

>  <SCORE.INTER.CONST>
1

>  <SCORE.INTER.POLAR>
0

>  <SCORE.INTER.ROT>
6

>  <SCORE.INTER.SOLV>
18.8436

>  <SCORE.INTER.VDW>
-23.168

>  <SCORE.INTER.norm>
-0.449363

>  <SCORE.INTRA>
-1.5826

>  <SCORE.INTRA.DIHEDRAL>
-7.9463

>  <SCORE.INTRA.DIHEDRAL.0>
18.77

>  <SCORE.INTRA.POLAR>
0

>  <SCORE.INTRA.POLAR.0>
0

>  <SCORE.INTRA.REPUL>
0

>  <SCORE.INTRA.REPUL.0>
0

>  <SCORE.INTRA.SOLV>
2.42047

>  <SCORE.INTRA.SOLV.lig_0>
-77.2465

>  <SCORE.INTRA.VDW>
1.18031

>  <SCORE.INTRA.VDW.0>
-4.16072

>  <SCORE.INTRA.norm>
-0.0510518

>  <SCORE.RESTR>
0

>  <SCORE.RESTR.CAVITY>
0

>  <SCORE.RESTR.norm>
0

>  <SCORE.SYSTEM>
0

>  <SCORE.SYSTEM.CONST>
0

>  <SCORE.SYSTEM.DIHEDRAL>
0

>  <SCORE.SYSTEM.SOLV>
0

>  <SCORE.SYSTEM.norm>
0

>  <SCORE.heavy>
31

>  <SCORE.norm>
-0.500415

>  <RMSD>
2.233

$$$$
ligand
 OpenBabel11021811493D
libRbt.so/2013.1/901 2013/11/27
 31 33  0  0  0  0  0  0  0  0999 V2000
   -5.9150   -9.7458  -17.9382 C   0  0  2  0  0  0  0  0  0  0  0  0
   -4.9323  -10.6841  -17.4794 O   0  0  0  0  0  0  0  0  0  0  0  0
   -1.3545  -10.9902  -15.1493 C   0  0  2  0  0  0  0  0  0  0  0  0
   -0.3197  -10.6664  -14.2153 N   0  0  0  0  0  0  0  0  0  0  0  0
   -2.1056  -11.8937  -12.0761 C   0  0  2  0  0  0  0  0  0  0  0  0
   -7.0919   -9.7964  -16.9017 C   0  0  2  0  0  0  0  0  0  0  0  0
   -6.5887   -9.4809  -15.5694 N   0  0  0  0  0  0  0  0  0  0  0  0
   -1.4080   -9.8709  -16.2594 C   0  0  0  0  0  0  0  0  0  0  0  0
   -2.6292  -13.1024  -11.2406 C   0  0  2  0  0  0  0  0  0  0  0  0
   -2.1668  -14.3058  -11.8297 O   0  0  0  0  0  0  0  0  0  0  0  0
   -7.7564  -11.2170  -16.9217 C   0  0  0  0  0  0  0  0  0  0  0  0
   -2.5524  -10.2358  -17.3007 C   0  0  2  0  0  0  0  0  0  0  0  0
   -2.6132   -9.1896  -18.3481 N   0  0  0  0  0  0  0  0  0  0  0  0
   -4.2200  -13.0318  -11.2620 C   0  0  1  0  0  0  0  0  0  0  0  0
   -4.8120  -14.1857  -10.5036 N   0  0  0  0  0  0  0  0  0  0  0  0
   -8.0353  -11.6775  -18.3817 C   0  0  0  0  0  0  0  0  0  0  0  0
   -3.9493  -10.3394  -16.5414 C   0  0  2  0  0  0  0  0  0  0  0  0
   -4.7026  -11.6360  -10.5752 C   0  0  1  0  0  0  0  0  0  0  0  0
   -4.2774  -11.5301   -9.2302 O   0  0  0  0  0  0  0  0  0  0  0  0
   -7.3900  -11.1200  -19.4173 C   0  0  2  0  0  0  0  0  0  0  0  0
   -6.4141  -10.0738  -19.2696 O   0  0  0  0  0  0  0  0  0  0  0  0
   -3.8510  -11.4516  -15.4149 C   0  0  2  0  0  0  0  0  0  0  0  0
   -5.0947  -11.5377  -14.7078 O   0  0  0  0  0  0  0  0  0  0  0  0
   -4.0878  -10.4318  -11.3652 C   0  0  0  0  0  0  0  0  0  0  0  0
   -2.5812  -10.5989  -11.4690 O   0  0  0  0  0  0  0  0  0  0  0  0
   -7.6553  -11.5621  -20.8754 C   0  0  0  0  0  0  0  0  0  0  0  0
   -7.7687  -10.3865  -21.7272 N   0  0  0  0  0  0  0  0  0  0  0  0
   -2.7147  -11.0775  -14.3959 C   0  0  1  0  0  0  0  0  0  0  0  0
   -2.6548  -12.0876  -13.4176 O   0  0  0  0  0  0  0  0  0  0  0  0
   -6.2225  -11.4095  -10.5206 C   0  0  0  0  0  0  0  0  0  0  0  0
   -5.8099  -14.9994  -11.2236 C   0  0  0  0  0  0  0  0  0  0  0  0
  1  2  1  1  0  0  0
  1  6  1  0  0  0  0
  1 21  1  0  0  0  0
  3  4  1  1  0  0  0
  3  8  1  0  0  0  0
  3 28  1  0  0  0  0
  5  9  1  0  0  0  0
  5 25  1  0  0  0  0
  5 29  1  6  0  0  0
  6  7  1  1  0  0  0
  6 11  1  0  0  0  0
  8 12  1  0  0  0  0
  9 10  1  6  0  0  0
  9 14  1  0  0  0  0
 11 16  1  0  0  0  0
 12 13  1  6  0  0  0
 12 17  1  0  0  0  0
 14 15  1  1  0  0  0
 14 18  1  0  0  0  0
 15 31  1  0  0  0  0
 16 20  1  0  0  0  0
 17  2  1  6  0  0  0
 17 22  1  0  0  0  0
 18 19  1  1  0  0  0
 18 24  1  0  0  0  0
 18 30  1  0  0  0  0
 20 21  1  0  0  0  0
 20 26  1  6  0  0  0
 22 23  1  1  0  0  0
 22 28  1  0  0  0  0
 24 25  1  0  0  0  0
 26 27  1  0  0  0  0
 28 29  1  1  0  0  0
M  END
>  <CHROM.1>
-85.87451204,163.50759571,-126.71071249,-107.32385991,135.72188355,84.03277638
-4.50963580,-11.31910066,-14.84945230,-1.92644176,0.23707044,1.89302576

>  <Name>
ligand

>  <RI>
0

>  <Rbt.Current_Directory>
/home/itssahil/PROJECTS/Mol_Feturizer/New_Systems/rnas/4F8U

>  <Rbt.Executable>
rbdock ($Id: //depot/dev/client3/rdock/2013.1/src/exe/rbdock.cxx#4 $)

>  <Rbt.Library>
libRbt.so (2013.1, Build901 2013/11/27)

>  <Rbt.Parameter_File>
/export/apps/rDock/src/rDock_2013.1_src/data/scripts/dock_solv.prm

>  <Rbt.Receptor>
prm/pocket_docking_2.prm

>  <SCORE>
-6.30538

>  <SCORE.INTER>
-5.87733

>  <SCORE.INTER.CONST>
1

>  <SCORE.INTER.POLAR>
0

>  <SCORE.INTER.ROT>
6

>  <SCORE.INTER.SOLV>
19.7342

>  <SCORE.INTER.VDW>
-18.0963

>  <SCORE.INTER.norm>
-0.189591

>  <SCORE.INTRA>
-0.568152

>  <SCORE.INTRA.DIHEDRAL>
-2.60134

>  <SCORE.INTRA.DIHEDRAL.0>
18.77

>  <SCORE.INTRA.POLAR>
0

>  <SCORE.INTRA.POLAR.0>
0

>  <SCORE.INTRA.REPUL>
0

>  <SCORE.INTRA.REPUL.0>
0

>  <SCORE.INTRA.SOLV>
1.25645

>  <SCORE.INTRA.SOLV.lig_0>
-77.2465

>  <SCORE.INTRA.VDW>
0.104294

>  <SCORE.INTRA.VDW.0>
-4.16072

>  <SCORE.INTRA.norm>
-0.0183275

>  <SCORE.RESTR>
0.140104

>  <SCORE.RESTR.CAVITY>
0.140104

>  <SCORE.RESTR.norm>
0.00451949

>  <SCORE.SYSTEM>
0

>  <SCORE.SYSTEM.CONST>
0

>  <SCORE.SYSTEM.DIHEDRAL>
0

>  <SCORE.SYSTEM.SOLV>
0

>  <SCORE.SYSTEM.norm>
0

>  <SCORE.heavy>
31

>  <SCORE.norm>
-0.203399

>  <RMSD>
2.292

$$$$
ligand
 OpenBabel11021811493D
libRbt.so/2013.1/901 2013/11/27
 31 33  0  0  0  0  0  0  0  0999 V2000
   -6.7983   -9.0237  -18.5431 C   0  0  2  0  0  0  0  0  0  0  0  0
   -5.5768   -9.7473  -18.3411 O   0  0  0  0  0  0  0  0  0  0  0  0
   -2.9119  -10.5767  -15.0954 C   0  0  2  0  0  0  0  0  0  0  0  0
   -2.0331  -10.3734  -13.9844 N   0  0  0  0  0  0  0  0  0  0  0  0
   -6.1380  -10.3792  -13.0211 C   0  0  2  0  0  0  0  0  0  0  0  0
   -7.5796   -9.7826  -19.6726 C   0  0  2  0  0  0  0  0  0  0  0  0
   -7.8032  -11.1672  -19.2717 N   0  0  0  0  0  0  0  0  0  0  0  0
   -2.3168   -9.8411  -16.3575 C   0  0  0  0  0  0  0  0  0  0  0  0
   -5.9971  -10.7881  -11.5224 C   0  0  2  0  0  0  0  0  0  0  0  0
   -4.9527  -10.0322  -10.9337 O   0  0  0  0  0  0  0  0  0  0  0  0
   -6.7699   -9.7174  -21.0142 C   0  0  0  0  0  0  0  0  0  0  0  0
   -3.2898  -10.0742  -17.5929 C   0  0  2  0  0  0  0  0  0  0  0  0
   -2.7415   -9.3859  -18.7848 N   0  0  0  0  0  0  0  0  0  0  0  0
   -5.6615  -12.3446  -11.4918 C   0  0  1  0  0  0  0  0  0  0  0  0
   -5.4752  -12.8189  -10.0784 N   0  0  0  0  0  0  0  0  0  0  0  0
   -6.2828   -8.2668  -21.2973 C   0  0  0  0  0  0  0  0  0  0  0  0
   -4.7375   -9.5072  -17.2444 C   0  0  2  0  0  0  0  0  0  0  0  0
   -6.8879  -13.1697  -12.1759 C   0  0  1  0  0  0  0  0  0  0  0  0
   -8.1097  -12.9715  -11.4912 O   0  0  0  0  0  0  0  0  0  0  0  0
   -6.2062   -7.3591  -20.3124 C   0  0  2  0  0  0  0  0  0  0  0  0
   -6.5624   -7.6418  -18.9479 O   0  0  0  0  0  0  0  0  0  0  0  0
   -5.2925  -10.2466  -15.9557 C   0  0  2  0  0  0  0  0  0  0  0  0
   -6.5849   -9.7279  -15.6171 O   0  0  0  0  0  0  0  0  0  0  0  0
   -7.0827  -12.6779  -13.6499 C   0  0  0  0  0  0  0  0  0  0  0  0
   -7.2456  -11.1673  -13.6718 O   0  0  0  0  0  0  0  0  0  0  0  0
   -5.7273   -5.9121  -20.5742 C   0  0  0  0  0  0  0  0  0  0  0  0
   -6.8670   -5.0797  -20.9328 N   0  0  0  0  0  0  0  0  0  0  0  0
   -4.3190  -10.0084  -14.7452 C   0  0  1  0  0  0  0  0  0  0  0  0
   -4.8410  -10.6823  -13.6252 O   0  0  0  0  0  0  0  0  0  0  0  0
   -6.7167  -14.6968  -12.2300 C   0  0  0  0  0  0  0  0  0  0  0  0
   -4.0942  -12.8052   -9.5599 C   0  0  0  0  0  0  0  0  0  0  0  0
  1  2  1  6  0  0  0
  1  6  1  0  0  0  0
  1 21  1  0  0  0  0
  3  4  1  1  0  0  0
  3  8  1  0  0  0  0
  3 28  1  0  0  0  0
  5  9  1  0  0  0  0
  5 25  1  0  0  0  0
  5 29  1  6  0  0  0
  6  7  1  1  0  0  0
  6 11  1  0  0  0  0
  8 12  1  0  0  0  0
  9 10  1  6  0  0  0
  9 14  1  0  0  0  0
 11 16  1  0  0  0  0
 12 13  1  6  0  0  0
 12 17  1  0  0  0  0
 14 15  1  1  0  0  0
 14 18  1  0  0  0  0
 15 31  1  0  0  0  0
 16 20  1  0  0  0  0
 17  2  1  6  0  0  0
 17 22  1  0  0  0  0
 18 19  1  1  0  0  0
 18 24  1  0  0  0  0
 18 30  1  0  0  0  0
 20 21  1  0  0  0  0
 20 26  1  6  0  0  0
 22 23  1  1  0  0  0
 22 28  1  0  0  0  0
 24 25  1  0  0  0  0
 26 27  1  0  0  0  0
 28 29  1  1  0  0  0
M  END
>  <CHROM.1>
-168.07941696,-152.49377450,-92.62833845,-160.25046918,88.95362334,179.01665799
-5.62061868,-10.26706316,-15.68854636,1.60895315,-0.33582992,-1.09521220

>  <Name>
ligand

>  <RI>
0

>  <Rbt.Current_Directory>
/home/itssahil/PROJECTS/Mol_Feturizer/New_Systems/rnas/4F8U

>  <Rbt.Executable>
rbdock ($Id: //depot/dev/client3/rdock/2013.1/src/exe/rbdock.cxx#4 $)

>  <Rbt.Library>
libRbt.so (2013.1, Build901 2013/11/27)

>  <Rbt.Parameter_File>
/export/apps/rDock/src/rDock_2013.1_src/data/scripts/dock_solv.prm

>  <Rbt.Receptor>
prm/pocket_docking_4.prm

>  <SCORE>
-10.2518

>  <SCORE.INTER>
-5.76035

>  <SCORE.INTER.CONST>
1

>  <SCORE.INTER.POLAR>
0

>  <SCORE.INTER.ROT>
6

>  <SCORE.INTER.SOLV>
21.8976

>  <SCORE.INTER.VDW>
-18.7394

>  <SCORE.INTER.norm>
-0.185818

>  <SCORE.INTRA>
-4.49147

>  <SCORE.INTRA.DIHEDRAL>
-9.8165

>  <SCORE.INTRA.DIHEDRAL.0>
18.77

>  <SCORE.INTRA.POLAR>
0

>  <SCORE.INTRA.POLAR.0>
0

>  <SCORE.INTRA.REPUL>
0

>  <SCORE.INTRA.REPUL.0>
0

>  <SCORE.INTRA.SOLV>
-2.48639

>  <SCORE.INTRA.SOLV.lig_0>
-77.2465

>  <SCORE.INTRA.VDW>
1.65997

>  <SCORE.INTRA.VDW.0>
-4.16072

>  <SCORE.INTRA.norm>
-0.144886

>  <SCORE.RESTR>
0

>  <SCORE.RESTR.CAVITY>
0

>  <SCORE.RESTR.norm>
0

>  <SCORE.SYSTEM>
0

>  <SCORE.SYSTEM.CONST>
0

>  <SCORE.SYSTEM.DIHEDRAL>
0

>  <SCORE.SYSTEM.SOLV>
0

>  <SCORE.SYSTEM.norm>
0

>  <SCORE.heavy>
31

>  <SCORE.norm>
-0.330704

>  <RMSD>
2.297

$$$$
ligand
 OpenBabel11021811493D
libRbt.so/2013.1/901 2013/11/27
 31 33  0  0  0  0  0  0  0  0999 V2000
   -7.3093  -10.2324  -18.6980 C   0  0  2  0  0  0  0  0  0  0  0  0
   -5.8991  -10.4357  -18.5348 O   0  0  0  0  0  0  0  0  0  0  0  0
   -3.2601  -10.3187  -15.1666 C   0  0  2  0  0  0  0  0  0  0  0  0
   -2.5023   -9.8151  -14.0620 N   0  0  0  0  0  0  0  0  0  0  0  0
   -6.4791  -10.5671  -13.0975 C   0  0  2  0  0  0  0  0  0  0  0  0
   -7.7544  -11.1568  -19.8851 C   0  0  2  0  0  0  0  0  0  0  0  0
   -7.4148  -12.5431  -19.5839 N   0  0  0  0  0  0  0  0  0  0  0  0
   -2.7971   -9.5806  -16.4814 C   0  0  0  0  0  0  0  0  0  0  0  0
   -6.2435  -10.8866  -11.5889 C   0  0  2  0  0  0  0  0  0  0  0  0
   -5.2793   -9.9859  -11.0714 O   0  0  0  0  0  0  0  0  0  0  0  0
   -7.0582  -10.6906  -21.2110 C   0  0  0  0  0  0  0  0  0  0  0  0
   -3.6340  -10.1465  -17.7089 C   0  0  2  0  0  0  0  0  0  0  0  0
   -3.2085   -9.4587  -18.9503 N   0  0  0  0  0  0  0  0  0  0  0  0
   -5.7229  -12.3893  -11.5048 C   0  0  1  0  0  0  0  0  0  0  0  0
   -5.4370  -12.7721  -10.0804 N   0  0  0  0  0  0  0  0  0  0  0  0
   -7.1786   -9.1493  -21.3875 C   0  0  0  0  0  0  0  0  0  0  0  0
   -5.1877   -9.9069  -17.4490 C   0  0  2  0  0  0  0  0  0  0  0  0
   -6.8624  -13.3845  -12.1080 C   0  0  1  0  0  0  0  0  0  0  0  0
   -8.0771  -13.3008  -11.3880 O   0  0  0  0  0  0  0  0  0  0  0  0
   -7.4431   -8.3525  -20.3411 C   0  0  2  0  0  0  0  0  0  0  0  0
   -7.6367   -8.8436  -19.0031 O   0  0  0  0  0  0  0  0  0  0  0  0
   -5.6120  -10.6370  -16.1064 C   0  0  2  0  0  0  0  0  0  0  0  0
   -7.0032  -10.4086  -15.8484 O   0  0  0  0  0  0  0  0  0  0  0  0
   -7.1607  -12.9881  -13.5933 C   0  0  0  0  0  0  0  0  0  0  0  0
   -7.5041  -11.5102  -13.6732 O   0  0  0  0  0  0  0  0  0  0  0  0
   -7.5693   -6.8190  -20.4967 C   0  0  0  0  0  0  0  0  0  0  0  0
   -7.1522   -6.4300  -21.8366 N   0  0  0  0  0  0  0  0  0  0  0  0
   -4.7747  -10.0683  -14.9043 C   0  0  1  0  0  0  0  0  0  0  0  0
   -5.1748  -10.7424  -13.7353 O   0  0  0  0  0  0  0  0  0  0  0  0
   -6.5112  -14.8815  -12.1036 C   0  0  0  0  0  0  0  0  0  0  0  0
   -4.0587  -12.5460   -9.6057 C   0  0  0  0  0  0  0  0  0  0  0  0
  1  2  1  6  0  0  0
  1  6  1  0  0  0  0
  1 21  1  0  0  0  0
  3  4  1  1  0  0  0
  3  8  1  0  0  0  0
  3 28  1  0  0  0  0
  5  9  1  0  0  0  0
  5 25  1  0  0  0  0
  5 29  1  6  0  0  0
  6  7  1  1  0  0  0
  6 11  1  0  0  0  0
  8 12  1  0  0  0  0
  9 10  1  6  0  0  0
  9 14  1  0  0  0  0
 11 16  1  0  0  0  0
 12 13  1  6  0  0  0
 12 17  1  0  0  0  0
 14 15  1  1  0  0  0
 14 18  1  0  0  0  0
 15 31  1  0  0  0  0
 16 20  1  0  0  0  0
 17  2  1  6  0  0  0
 17 22  1  0  0  0  0
 18 19  1  1  0  0  0
 18 24  1  0  0  0  0
 18 30  1  0  0  0  0
 20 21  1  0  0  0  0
 20 26  1  6  0  0  0
 22 23  1  1  0  0  0
 22 28  1  0  0  0  0
 24 25  1  0  0  0  0
 26 27  1  0  0  0  0
 28 29  1  1  0  0  0
M  END
>  <CHROM.1>
-171.28022431,-152.77033779,-91.45085003,-171.75032948,-9.01710819,170.92567157
-5.98441706,-10.68598369,-15.79977881,1.68839290,-0.52532774,-1.15439364

>  <Name>
ligand

>  <RI>
0

>  <Rbt.Current_Directory>
/home/itssahil/PROJECTS/Mol_Feturizer/New_Systems/rnas/4F8U

>  <Rbt.Executable>
rbdock ($Id: //depot/dev/client3/rdock/2013.1/src/exe/rbdock.cxx#4 $)

>  <Rbt.Library>
libRbt.so (2013.1, Build901 2013/11/27)

>  <Rbt.Parameter_File>
/export/apps/rDock/src/rDock_2013.1_src/data/scripts/dock_solv.prm

>  <Rbt.Receptor>
prm/pocket_docking_5.prm

>  <SCORE>
-13.0374

>  <SCORE.INTER>
-8.0838

>  <SCORE.INTER.CONST>
1

>  <SCORE.INTER.POLAR>
0

>  <SCORE.INTER.ROT>
6

>  <SCORE.INTER.SOLV>
19.3101

>  <SCORE.INTER.VDW>
-19.4259

>  <SCORE.INTER.norm>
-0.260768

>  <SCORE.INTRA>
-4.95364

>  <SCORE.INTRA.DIHEDRAL>
-12.1576

>  <SCORE.INTRA.DIHEDRAL.0>
18.77

>  <SCORE.INTRA.POLAR>
0

>  <SCORE.INTRA.POLAR.0>
0

>  <SCORE.INTRA.REPUL>
0

>  <SCORE.INTRA.REPUL.0>
0

>  <SCORE.INTRA.SOLV>
-2.65966

>  <SCORE.INTRA.SOLV.lig_0>
-77.2465

>  <SCORE.INTRA.VDW>
2.455

>  <SCORE.INTRA.VDW.0>
-4.16072

>  <SCORE.INTRA.norm>
-0.159795

>  <SCORE.RESTR>
0

>  <SCORE.RESTR.CAVITY>
0

>  <SCORE.RESTR.norm>
0

>  <SCORE.SYSTEM>
0

>  <SCORE.SYSTEM.CONST>
0

>  <SCORE.SYSTEM.DIHEDRAL>
0

>  <SCORE.SYSTEM.SOLV>
0

>  <SCORE.SYSTEM.norm>
0

>  <SCORE.heavy>
31

>  <SCORE.norm>
-0.420562

>  <RMSD>
2.384

$$$$
ligand
 OpenBabel11021811493D
libRbt.so/2013.1/901 2013/11/27
 31 33  0  0  0  0  0  0  0  0999 V2000
   -7.3256  -10.2280  -18.7090 C   0  0  2  0  0  0  0  0  0  0  0  0
   -5.9194  -10.4465  -18.5318 O   0  0  0  0  0  0  0  0  0  0  0  0
   -3.3041  -10.3517  -15.1444 C   0  0  2  0  0  0  0  0  0  0  0  0
   -2.5514   -9.8547  -14.0333 N   0  0  0  0  0  0  0  0  0  0  0  0
   -6.5119  -10.5353  -13.0602 C   0  0  2  0  0  0  0  0  0  0  0  0
   -7.7686  -11.1465  -19.9015 C   0  0  2  0  0  0  0  0  0  0  0  0
   -7.4470  -12.5366  -19.5982 N   0  0  0  0  0  0  0  0  0  0  0  0
   -2.8274   -9.6135  -16.4543 C   0  0  0  0  0  0  0  0  0  0  0  0
   -6.2539  -10.8590  -11.5562 C   0  0  2  0  0  0  0  0  0  0  0  0
   -5.2411   -9.9975  -11.0656 O   0  0  0  0  0  0  0  0  0  0  0  0
   -7.0541  -10.6866  -21.2198 C   0  0  0  0  0  0  0  0  0  0  0  0
   -3.6586  -10.1721  -17.6890 C   0  0  2  0  0  0  0  0  0  0  0  0
   -3.2203   -9.4843  -18.9258 N   0  0  0  0  0  0  0  0  0  0  0  0
   -5.7945  -12.3818  -11.4776 C   0  0  1  0  0  0  0  0  0  0  0  0
   -5.4910  -12.7712  -10.0586 N   0  0  0  0  0  0  0  0  0  0  0  0
   -7.1560   -9.1439  -21.3960 C   0  0  0  0  0  0  0  0  0  0  0  0
   -5.2128   -9.9241  -17.4398 C   0  0  2  0  0  0  0  0  0  0  0  0
   -6.9885  -13.3308  -12.0492 C   0  0  1  0  0  0  0  0  0  0  0  0
   -8.1812  -13.1939  -11.3012 O   0  0  0  0  0  0  0  0  0  0  0  0
   -7.4225   -8.3453  -20.3515 C   0  0  2  0  0  0  0  0  0  0  0  0
   -7.6349   -8.8354  -19.0161 O   0  0  0  0  0  0  0  0  0  0  0  0
   -5.6510  -10.6544  -16.1018 C   0  0  2  0  0  0  0  0  0  0  0  0
   -7.0426  -10.4185  -15.8533 O   0  0  0  0  0  0  0  0  0  0  0  0
   -7.3053  -12.9276  -13.5289 C   0  0  0  0  0  0  0  0  0  0  0  0
   -7.5886  -11.4368  -13.6074 O   0  0  0  0  0  0  0  0  0  0  0  0
   -7.5305   -6.8104  -20.5069 C   0  0  0  0  0  0  0  0  0  0  0  0
   -6.8734   -6.3987  -21.7394 N   0  0  0  0  0  0  0  0  0  0  0  0
   -4.8191  -10.0931  -14.8925 C   0  0  1  0  0  0  0  0  0  0  0  0
   -5.2314  -10.7671  -13.7278 O   0  0  0  0  0  0  0  0  0  0  0  0
   -6.6999  -14.8411  -12.0464 C   0  0  0  0  0  0  0  0  0  0  0  0
   -4.0913  -12.6114   -9.6209 C   0  0  0  0  0  0  0  0  0  0  0  0
  1  2  1  6  0  0  0
  1  6  1  0  0  0  0
  1 21  1  0  0  0  0
  3  4  1  1  0  0  0
  3  8  1  0  0  0  0
  3 28  1  0  0  0  0
  5  9  1  0  0  0  0
  5 25  1  0  0  0  0
  5 29  1  6  0  0  0
  6  7  1  1  0  0  0
  6 11  1  0  0  0  0
  8 12  1  0  0  0  0
  9 10  1  6  0  0  0
  9 14  1  0  0  0  0
 11 16  1  0  0  0  0
 12 13  1  6  0  0  0
 12 17  1  0  0  0  0
 14 15  1  1  0  0  0
 14 18  1  0  0  0  0
 15 31  1  0  0  0  0
 16 20  1  0  0  0  0
 17  2  1  6  0  0  0
 17 22  1  0  0  0  0
 18 19  1  1  0  0  0
 18 24  1  0  0  0  0
 18 30  1  0  0  0  0
 20 21  1  0  0  0  0
 20 26  1  6  0  0  0
 22 23  1  1  0  0  0
 22 28  1  0  0  0  0
 24 25  1  0  0  0  0
 26 27  1  0  0  0  0
 28 29  1  1  0  0  0
M  END
>  <CHROM.1>
-171.41700521,-151.30898491,-91.92950193,-171.35957023,-19.31348844,167.65599371
-6.01345042,-10.68081948,-15.78031470,1.67195881,-0.51433261,-1.16618665

>  <Name>
ligand

>  <RI>
0

>  <Rbt.Current_Directory>
/home/itssahil/PROJECTS/Mol_Feturizer/New_Systems/rnas/4F8U

>  <Rbt.Executable>
rbdock ($Id: //depot/dev/client3/rdock/2013.1/src/exe/rbdock.cxx#4 $)

>  <Rbt.Library>
libRbt.so (2013.1, Build901 2013/11/27)

>  <Rbt.Parameter_File>
/export/apps/rDock/src/rDock_2013.1_src/data/scripts/dock_solv.prm

>  <Rbt.Receptor>
prm/pocket_docking_6.prm

>  <SCORE>
-13.0159

>  <SCORE.INTER>
-8.1929

>  <SCORE.INTER.CONST>
1

>  <SCORE.INTER.POLAR>
0

>  <SCORE.INTER.ROT>
6

>  <SCORE.INTER.SOLV>
18.6182

>  <SCORE.INTER.VDW>
-19.268

>  <SCORE.INTER.norm>
-0.264287

>  <SCORE.INTRA>
-4.82304

>  <SCORE.INTRA.DIHEDRAL>
-11.1755

>  <SCORE.INTRA.DIHEDRAL.0>
18.77

>  <SCORE.INTRA.POLAR>
0

>  <SCORE.INTRA.POLAR.0>
0

>  <SCORE.INTRA.REPUL>
0

>  <SCORE.INTRA.REPUL.0>
0

>  <SCORE.INTRA.SOLV>
-2.59162

>  <SCORE.INTRA.SOLV.lig_0>
-77.2465

>  <SCORE.INTRA.VDW>
2.06052

>  <SCORE.INTRA.VDW.0>
-4.16072

>  <SCORE.INTRA.norm>
-0.155582

>  <SCORE.RESTR>
0

>  <SCORE.RESTR.CAVITY>
0

>  <SCORE.RESTR.norm>
0

>  <SCORE.SYSTEM>
0

>  <SCORE.SYSTEM.CONST>
0

>  <SCORE.SYSTEM.DIHEDRAL>
0

>  <SCORE.SYSTEM.SOLV>
0

>  <SCORE.SYSTEM.norm>
0

>  <SCORE.heavy>
31

>  <SCORE.norm>
-0.419869

>  <RMSD>
2.395

$$$$
ligand
 OpenBabel11021811493D
libRbt.so/2013.1/901 2013/11/27
 31 33  0  0  0  0  0  0  0  0999 V2000
   -5.1359  -10.0529  -18.9248 C   0  0  2  0  0  0  0  0  0  0  0  0
   -5.1795   -9.4455  -17.6264 O   0  0  0  0  0  0  0  0  0  0  0  0
   -1.8016  -10.7025  -15.3169 C   0  0  2  0  0  0  0  0  0  0  0  0
   -0.6299  -10.6455  -14.4973 N   0  0  0  0  0  0  0  0  0  0  0  0
   -2.9355  -10.2236  -12.0290 C   0  0  2  0  0  0  0  0  0  0  0  0
   -6.2227   -9.3235  -19.7903 C   0  0  2  0  0  0  0  0  0  0  0  0
   -5.9439   -7.8922  -19.8268 N   0  0  0  0  0  0  0  0  0  0  0  0
   -1.5178   -9.9365  -16.6662 C   0  0  0  0  0  0  0  0  0  0  0  0
   -2.0955  -11.3386  -11.3330 C   0  0  2  0  0  0  0  0  0  0  0  0
   -0.9187  -11.5696  -12.0883 O   0  0  0  0  0  0  0  0  0  0  0  0
   -7.6474   -9.5963  -19.1939 C   0  0  0  0  0  0  0  0  0  0  0  0
   -2.8174  -10.0072  -17.5791 C   0  0  2  0  0  0  0  0  0  0  0  0
   -2.5630   -9.2890  -18.8497 N   0  0  0  0  0  0  0  0  0  0  0  0
   -3.0047  -12.6451  -11.2803 C   0  0  1  0  0  0  0  0  0  0  0  0
   -2.2570  -13.7861  -10.6509 N   0  0  0  0  0  0  0  0  0  0  0  0
   -7.8388  -11.1097  -18.8866 C   0  0  0  0  0  0  0  0  0  0  0  0
   -4.0458   -9.3477  -16.8078 C   0  0  2  0  0  0  0  0  0  0  0  0
   -4.3407  -12.3318  -10.4028 C   0  0  1  0  0  0  0  0  0  0  0  0
   -4.0293  -11.9610   -9.0737 O   0  0  0  0  0  0  0  0  0  0  0  0
   -6.7830  -11.9260  -18.7498 C   0  0  2  0  0  0  0  0  0  0  0  0
   -5.4204  -11.4833  -18.8765 O   0  0  0  0  0  0  0  0  0  0  0  0
   -4.2843  -10.1226  -15.4446 C   0  0  2  0  0  0  0  0  0  0  0  0
   -5.3720   -9.5232  -14.7293 O   0  0  0  0  0  0  0  0  0  0  0  0
   -5.1224  -11.1437  -11.0581 C   0  0  0  0  0  0  0  0  0  0  0  0
   -4.1935   -9.9556  -11.2436 O   0  0  0  0  0  0  0  0  0  0  0  0
   -6.9527  -13.4330  -18.4471 C   0  0  0  0  0  0  0  0  0  0  0  0
   -6.9974  -13.6378  -17.0061 N   0  0  0  0  0  0  0  0  0  0  0  0
   -2.9907  -10.0452  -14.5556 C   0  0  1  0  0  0  0  0  0  0  0  0
   -3.2388  -10.7465  -13.3607 O   0  0  0  0  0  0  0  0  0  0  0  0
   -5.3327  -13.4977  -10.2580 C   0  0  0  0  0  0  0  0  0  0  0  0
   -1.4578  -14.6271  -11.5621 C   0  0  0  0  0  0  0  0  0  0  0  0
  1  2  1  1  0  0  0
  1  6  1  0  0  0  0
  1 21  1  0  0  0  0
  3  4  1  1  0  0  0
  3  8  1  0  0  0  0
  3 28  1  0  0  0  0
  5  9  1  0  0  0  0
  5 25  1  0  0  0  0
  5 29  1  6  0  0  0
  6  7  1  1  0  0  0
  6 11  1  0  0  0  0
  8 12  1  0  0  0  0
  9 10  1  6  0  0  0
  9 14  1  0  0  0  0
 11 16  1  0  0  0  0
 12 13  1  6  0  0  0
 12 17  1  0  0  0  0
 14 15  1  1  0  0  0
 14 18  1  0  0  0  0
 15 31  1  0  0  0  0
 16 20  1  0  0  0  0
 17  2  1  6  0  0  0
 17 22  1  0  0  0  0
 18 19  1  1  0  0  0
 18 24  1  0  0  0  0
 18 30  1  0  0  0  0
 20 21  1  0  0  0  0
 20 26  1  6  0  0  0
 22 23  1  1  0  0  0
 22 28  1  0  0  0  0
 24 25  1  0  0  0  0
 26 27  1  0  0  0  0
 28 29  1  1  0  0  0
M  END
>  <CHROM.1>
-149.55948785,-128.05667361,-88.72358983,-0.11080047,-89.02719429,108.54215702
-4.16423236,-11.02073828,-14.98604583,-1.94329200,0.43467712,1.97484141

>  <Name>
ligand

>  <RI>
0

>  <Rbt.Current_Directory>
/home/itssahil/PROJECTS/Mol_Feturizer/New_Systems/rnas/4F8U

>  <Rbt.Executable>
rbdock ($Id: //depot/dev/client3/rdock/2013.1/src/exe/rbdock.cxx#4 $)

>  <Rbt.Library>
libRbt.so (2013.1, Build901 2013/11/27)

>  <Rbt.Parameter_File>
/export/apps/rDock/src/rDock_2013.1_src/data/scripts/dock_solv.prm

>  <Rbt.Receptor>
prm/pocket_docking_2.prm

>  <SCORE>
-1.1433

>  <SCORE.INTER>
-9.83151

>  <SCORE.INTER.CONST>
1

>  <SCORE.INTER.POLAR>
0

>  <SCORE.INTER.ROT>
6

>  <SCORE.INTER.SOLV>
19.5585

>  <SCORE.INTER.VDW>
-20.6738

>  <SCORE.INTER.norm>
-0.317145

>  <SCORE.INTRA>
8.60297

>  <SCORE.INTRA.DIHEDRAL>
8.81158

>  <SCORE.INTRA.DIHEDRAL.0>
18.77

>  <SCORE.INTRA.POLAR>
0

>  <SCORE.INTRA.POLAR.0>
0

>  <SCORE.INTRA.REPUL>
0

>  <SCORE.INTRA.REPUL.0>
0

>  <SCORE.INTRA.SOLV>
1.55222

>  <SCORE.INTRA.SOLV.lig_0>
-77.2465

>  <SCORE.INTRA.VDW>
3.42107

>  <SCORE.INTRA.VDW.0>
-4.16072

>  <SCORE.INTRA.norm>
0.277515

>  <SCORE.RESTR>
0.0852412

>  <SCORE.RESTR.CAVITY>
0.0852412

>  <SCORE.RESTR.norm>
0.00274972

>  <SCORE.SYSTEM>
0

>  <SCORE.SYSTEM.CONST>
0

>  <SCORE.SYSTEM.DIHEDRAL>
0

>  <SCORE.SYSTEM.SOLV>
0

>  <SCORE.SYSTEM.norm>
0

>  <SCORE.heavy>
31

>  <SCORE.norm>
-0.0368806

>  <RMSD>
2.437

$$$$
ligand
 OpenBabel11021811493D
libRbt.so/2013.1/901 2013/11/27
 31 33  0  0  0  0  0  0  0  0999 V2000
   -5.1378  -10.1557  -18.8310 C   0  0  2  0  0  0  0  0  0  0  0  0
   -5.1018   -9.3961  -17.6151 O   0  0  0  0  0  0  0  0  0  0  0  0
   -1.7470  -10.7666  -15.3368 C   0  0  2  0  0  0  0  0  0  0  0  0
   -0.5688  -10.7494  -14.5247 N   0  0  0  0  0  0  0  0  0  0  0  0
   -2.9008  -10.2533  -12.0356 C   0  0  2  0  0  0  0  0  0  0  0  0
   -6.2932   -9.5449  -19.6993 C   0  0  2  0  0  0  0  0  0  0  0  0
   -6.0410   -8.1263  -19.9270 N   0  0  0  0  0  0  0  0  0  0  0  0
   -1.4498   -9.9996  -16.6827 C   0  0  0  0  0  0  0  0  0  0  0  0
   -2.1043  -11.3772  -11.3037 C   0  0  2  0  0  0  0  0  0  0  0  0
   -0.9090  -11.6372  -12.0196 O   0  0  0  0  0  0  0  0  0  0  0  0
   -7.6689   -9.7548  -18.9759 C   0  0  0  0  0  0  0  0  0  0  0  0
   -2.7568  -10.0262  -17.5874 C   0  0  2  0  0  0  0  0  0  0  0  0
   -2.4899   -9.3066  -18.8547 N   0  0  0  0  0  0  0  0  0  0  0  0
   -3.0392  -12.6660  -11.2681 C   0  0  1  0  0  0  0  0  0  0  0  0
   -2.3333  -13.8148  -10.6055 N   0  0  0  0  0  0  0  0  0  0  0  0
   -7.8141  -11.2214  -18.4764 C   0  0  0  0  0  0  0  0  0  0  0  0
   -3.9606   -9.3370  -16.8034 C   0  0  2  0  0  0  0  0  0  0  0  0
   -4.3958  -12.3197  -10.4358 C   0  0  1  0  0  0  0  0  0  0  0  0
   -4.1191  -11.9422   -9.1009 O   0  0  0  0  0  0  0  0  0  0  0  0
   -6.7382  -12.0068  -18.3172 C   0  0  2  0  0  0  0  0  0  0  0  0
   -5.3949  -11.5719  -18.5914 O   0  0  0  0  0  0  0  0  0  0  0  0
   -4.2126  -10.1143  -15.4440 C   0  0  2  0  0  0  0  0  0  0  0  0
   -5.2779   -9.4888  -14.7174 O   0  0  0  0  0  0  0  0  0  0  0  0
   -5.1341  -11.1234  -11.1259 C   0  0  0  0  0  0  0  0  0  0  0  0
   -4.1775   -9.9546  -11.2925 O   0  0  0  0  0  0  0  0  0  0  0  0
   -6.8622  -13.4675  -17.8245 C   0  0  0  0  0  0  0  0  0  0  0  0
   -8.0541  -13.6030  -16.9990 N   0  0  0  0  0  0  0  0  0  0  0  0
   -2.9116  -10.0807  -14.5631 C   0  0  1  0  0  0  0  0  0  0  0  0
   -3.1722  -10.7829  -13.3715 O   0  0  0  0  0  0  0  0  0  0  0  0
   -5.4137  -13.4655  -10.3121 C   0  0  0  0  0  0  0  0  0  0  0  0
   -1.5375  -14.6902  -11.4867 C   0  0  0  0  0  0  0  0  0  0  0  0
  1  2  1  1  0  0  0
  1  6  1  0  0  0  0
  1 21  1  0  0  0  0
  3  4  1  1  0  0  0
  3  8  1  0  0  0  0
  3 28  1  0  0  0  0
  5  9  1  0  0  0  0
  5 25  1  0  0  0  0
  5 29  1  6  0  0  0
  6  7  1  1  0  0  0
  6 11  1  0  0  0  0
  8 12  1  0  0  0  0
  9 10  1  6  0  0  0
  9 14  1  0  0  0  0
 11 16  1  0  0  0  0
 12 13  1  6  0  0  0
 12 17  1  0  0  0  0
 14 15  1  1  0  0  0
 14 18  1  0  0  0  0
 15 31  1  0  0  0  0
 16 20  1  0  0  0  0
 17  2  1  6  0  0  0
 17 22  1  0  0  0  0
 18 19  1  1  0  0  0
 18 24  1  0  0  0  0
 18 30  1  0  0  0  0
 20 21  1  0  0  0  0
 20 26  1  6  0  0  0
 22 23  1  1  0  0  0
 22 28  1  0  0  0  0
 24 25  1  0  0  0  0
 26 27  1  0  0  0  0
 28 29  1  1  0  0  0
M  END
>  <CHROM.1>
-158.18251947,-130.09678566,-89.56621667,8.88155520,-27.53436868,111.42546122
-4.18487535,-11.06473457,-14.92227462,-1.94521618,0.39817947,1.96411299

>  <Name>
ligand

>  <RI>
0

>  <Rbt.Current_Directory>
/home/itssahil/PROJECTS/Mol_Feturizer/New_Systems/rnas/4F8U

>  <Rbt.Executable>
rbdock ($Id: //depot/dev/client3/rdock/2013.1/src/exe/rbdock.cxx#4 $)

>  <Rbt.Library>
libRbt.so (2013.1, Build901 2013/11/27)

>  <Rbt.Parameter_File>
/export/apps/rDock/src/rDock_2013.1_src/data/scripts/dock_solv.prm

>  <Rbt.Receptor>
prm/pocket_docking_2.prm

>  <SCORE>
-1.50272

>  <SCORE.INTER>
-8.98693

>  <SCORE.INTER.CONST>
1

>  <SCORE.INTER.POLAR>
0

>  <SCORE.INTER.ROT>
6

>  <SCORE.INTER.SOLV>
18.8587

>  <SCORE.INTER.VDW>
-19.8775

>  <SCORE.INTER.norm>
-0.289901

>  <SCORE.INTRA>
7.41619

>  <SCORE.INTRA.DIHEDRAL>
6.80431

>  <SCORE.INTRA.DIHEDRAL.0>
18.77

>  <SCORE.INTRA.POLAR>
0

>  <SCORE.INTRA.POLAR.0>
0

>  <SCORE.INTRA.REPUL>
0

>  <SCORE.INTRA.REPUL.0>
0

>  <SCORE.INTRA.SOLV>
1.22874

>  <SCORE.INTRA.SOLV.lig_0>
-77.2465

>  <SCORE.INTRA.VDW>
3.39966

>  <SCORE.INTRA.VDW.0>
-4.16072

>  <SCORE.INTRA.norm>
0.239232

>  <SCORE.RESTR>
0.0680149

>  <SCORE.RESTR.CAVITY>
0.0680149

>  <SCORE.RESTR.norm>
0.00219403

>  <SCORE.SYSTEM>
0

>  <SCORE.SYSTEM.CONST>
0

>  <SCORE.SYSTEM.DIHEDRAL>
0

>  <SCORE.SYSTEM.SOLV>
0

>  <SCORE.SYSTEM.norm>
0

>  <SCORE.heavy>
31

>  <SCORE.norm>
-0.0484748

>  <RMSD>
2.492

$$$$
ligand
 OpenBabel11021811493D
libRbt.so/2013.1/901 2013/11/27
 31 33  0  0  0  0  0  0  0  0999 V2000
   -5.3853  -10.8716  -18.7837 C   0  0  2  0  0  0  0  0  0  0  0  0
   -5.3888   -9.7332  -17.9115 O   0  0  0  0  0  0  0  0  0  0  0  0
   -1.8719  -10.3729  -15.5566 C   0  0  2  0  0  0  0  0  0  0  0  0
   -0.7536  -10.1136  -14.7021 N   0  0  0  0  0  0  0  0  0  0  0  0
   -2.7591  -10.4240  -12.3425 C   0  0  2  0  0  0  0  0  0  0  0  0
   -6.3934  -10.5446  -19.9407 C   0  0  2  0  0  0  0  0  0  0  0  0
   -5.9882   -9.3158  -20.6143 N   0  0  0  0  0  0  0  0  0  0  0  0
   -1.7246   -9.5063  -16.8663 C   0  0  0  0  0  0  0  0  0  0  0  0
   -2.1455  -11.7373  -11.7664 C   0  0  2  0  0  0  0  0  0  0  0  0
   -1.1383  -12.2022  -12.6486 O   0  0  0  0  0  0  0  0  0  0  0  0
   -7.8431  -10.4061  -19.3585 C   0  0  0  0  0  0  0  0  0  0  0  0
   -2.9632   -9.8012  -17.8182 C   0  0  2  0  0  0  0  0  0  0  0  0
   -2.8365   -8.9908  -19.0520 N   0  0  0  0  0  0  0  0  0  0  0  0
   -3.3308  -12.7942  -11.6469 C   0  0  1  0  0  0  0  0  0  0  0  0
   -2.8192  -14.1080  -11.1277 N   0  0  0  0  0  0  0  0  0  0  0  0
   -8.1716  -11.5892  -18.4026 C   0  0  0  0  0  0  0  0  0  0  0  0
   -4.3163   -9.4417  -17.0574 C   0  0  2  0  0  0  0  0  0  0  0  0
   -4.4600  -12.2179  -10.6243 C   0  0  1  0  0  0  0  0  0  0  0  0
   -3.9396  -11.9949   -9.3280 O   0  0  0  0  0  0  0  0  0  0  0  0
   -7.1941  -12.3263  -17.8542 C   0  0  2  0  0  0  0  0  0  0  0  0
   -5.7962  -12.0936  -18.1004 O   0  0  0  0  0  0  0  0  0  0  0  0
   -4.4176  -10.3083  -15.7328 C   0  0  2  0  0  0  0  0  0  0  0  0
   -5.6195   -9.9763  -15.0263 O   0  0  0  0  0  0  0  0  0  0  0  0
   -4.9959  -10.8493  -11.1645 C   0  0  0  0  0  0  0  0  0  0  0  0
   -3.8330   -9.9055  -11.4208 O   0  0  0  0  0  0  0  0  0  0  0  0
   -7.5003  -13.5075  -16.9042 C   0  0  0  0  0  0  0  0  0  0  0  0
   -7.3850  -13.0631  -15.5223 N   0  0  0  0  0  0  0  0  0  0  0  0
   -3.1858  -10.0072  -14.8047 C   0  0  1  0  0  0  0  0  0  0  0  0
   -3.3083  -10.7963  -13.6458 O   0  0  0  0  0  0  0  0  0  0  0  0
   -5.6827  -13.1234  -10.4011 C   0  0  0  0  0  0  0  0  0  0  0  0
   -2.6693  -15.1901  -12.1191 C   0  0  0  0  0  0  0  0  0  0  0  0
  1  2  1  1  0  0  0
  1  6  1  0  0  0  0
  1 21  1  0  0  0  0
  3  4  1  1  0  0  0
  3  8  1  0  0  0  0
  3 28  1  0  0  0  0
  5  9  1  0  0  0  0
  5 25  1  0  0  0  0
  5 29  1  6  0  0  0
  6  7  1  1  0  0  0
  6 11  1  0  0  0  0
  8 12  1  0  0  0  0
  9 10  1  6  0  0  0
  9 14  1  0  0  0  0
 11 16  1  0  0  0  0
 12 13  1  6  0  0  0
 12 17  1  0  0  0  0
 14 15  1  1  0  0  0
 14 18  1  0  0  0  0
 15 31  1  0  0  0  0
 16 20  1  0  0  0  0
 17  2  1  6  0  0  0
 17 22  1  0  0  0  0
 18 19  1  1  0  0  0
 18 24  1  0  0  0  0
 18 30  1  0  0  0  0
 20 21  1  0  0  0  0
 20 26  1  6  0  0  0
 22 23  1  1  0  0  0
 22 28  1  0  0  0  0
 24 25  1  0  0  0  0
 26 27  1  0  0  0  0
 28 29  1  1  0  0  0
M  END
>  <CHROM.1>
-157.07534559,-138.05153217,-104.09351754,37.42159486,-97.31568947,88.80654736
-4.38230554,-11.21543723,-15.05635141,1.94355811,-0.47015299,-1.17269471

>  <Name>
ligand

>  <RI>
0

>  <Rbt.Current_Directory>
/home/itssahil/PROJECTS/Mol_Feturizer/New_Systems/rnas/4F8U

>  <Rbt.Executable>
rbdock ($Id: //depot/dev/client3/rdock/2013.1/src/exe/rbdock.cxx#4 $)

>  <Rbt.Library>
libRbt.so (2013.1, Build901 2013/11/27)

>  <Rbt.Parameter_File>
/export/apps/rDock/src/rDock_2013.1_src/data/scripts/dock_solv.prm

>  <Rbt.Receptor>
prm/pocket_docking_2.prm

>  <SCORE>
-3.00819

>  <SCORE.INTER>
-4.85951

>  <SCORE.INTER.CONST>
1

>  <SCORE.INTER.POLAR>
0

>  <SCORE.INTER.ROT>
6

>  <SCORE.INTER.SOLV>
18.9266

>  <SCORE.INTER.VDW>
-17.1485

>  <SCORE.INTER.norm>
-0.156758

>  <SCORE.INTRA>
0.78548

>  <SCORE.INTRA.DIHEDRAL>
-1.87109

>  <SCORE.INTRA.DIHEDRAL.0>
18.77

>  <SCORE.INTRA.POLAR>
0

>  <SCORE.INTRA.POLAR.0>
0

>  <SCORE.INTRA.REPUL>
0

>  <SCORE.INTRA.REPUL.0>
0

>  <SCORE.INTRA.SOLV>
1.99076

>  <SCORE.INTRA.SOLV.lig_0>
-77.2465

>  <SCORE.INTRA.VDW>
0.725644

>  <SCORE.INTRA.VDW.0>
-4.16072

>  <SCORE.INTRA.norm>
0.0253381

>  <SCORE.RESTR>
1.06584

>  <SCORE.RESTR.CAVITY>
1.06584

>  <SCORE.RESTR.norm>
0.034382

>  <SCORE.SYSTEM>
0

>  <SCORE.SYSTEM.CONST>
0

>  <SCORE.SYSTEM.DIHEDRAL>
0

>  <SCORE.SYSTEM.SOLV>
0

>  <SCORE.SYSTEM.norm>
0

>  <SCORE.heavy>
31

>  <SCORE.norm>
-0.0970384

>  <RMSD>
2.565

$$$$
ligand
 OpenBabel11021811493D
libRbt.so/2013.1/901 2013/11/27
 31 33  0  0  0  0  0  0  0  0999 V2000
   -5.3614  -10.5841  -18.6945 C   0  0  2  0  0  0  0  0  0  0  0  0
   -4.6314  -11.1568  -17.6011 O   0  0  0  0  0  0  0  0  0  0  0  0
   -0.9379  -10.1764  -15.6722 C   0  0  2  0  0  0  0  0  0  0  0  0
    0.0470   -9.4485  -14.9318 N   0  0  0  0  0  0  0  0  0  0  0  0
   -1.7268  -10.6378  -12.2835 C   0  0  2  0  0  0  0  0  0  0  0  0
   -6.1159   -9.3357  -18.1162 C   0  0  2  0  0  0  0  0  0  0  0  0
   -5.1551   -8.4073  -17.5307 N   0  0  0  0  0  0  0  0  0  0  0  0
   -1.3389   -9.3393  -16.9475 C   0  0  0  0  0  0  0  0  0  0  0  0
   -1.3843  -11.8594  -11.3760 C   0  0  2  0  0  0  0  0  0  0  0  0
   -0.1505  -12.4157  -11.7969 O   0  0  0  0  0  0  0  0  0  0  0  0
   -7.1641   -9.7981  -17.0451 C   0  0  0  0  0  0  0  0  0  0  0  0
   -2.4271  -10.1525  -17.7732 C   0  0  2  0  0  0  0  0  0  0  0  0
   -2.8130   -9.3746  -18.9736 N   0  0  0  0  0  0  0  0  0  0  0  0
   -2.5691  -12.9108  -11.5399 C   0  0  1  0  0  0  0  0  0  0  0  0
   -2.3029  -14.1414  -10.7202 N   0  0  0  0  0  0  0  0  0  0  0  0
   -8.0081  -10.9929  -17.5756 C   0  0  0  0  0  0  0  0  0  0  0  0
   -3.7014  -10.4200  -16.8547 C   0  0  2  0  0  0  0  0  0  0  0  0
   -3.9622  -12.2282  -11.0435 C   0  0  1  0  0  0  0  0  0  0  0  0
   -3.9085  -11.8370   -9.6852 O   0  0  0  0  0  0  0  0  0  0  0  0
   -7.5722  -11.7479  -18.5953 C   0  0  2  0  0  0  0  0  0  0  0  0
   -6.3221  -11.5200  -19.2692 O   0  0  0  0  0  0  0  0  0  0  0  0
   -3.2577  -11.2369  -15.5697 C   0  0  2  0  0  0  0  0  0  0  0  0
   -4.3915  -11.4630  -14.7227 O   0  0  0  0  0  0  0  0  0  0  0  0
   -4.2424  -10.9461  -11.8979 C   0  0  0  0  0  0  0  0  0  0  0  0
   -3.0352  -10.0244  -11.8552 O   0  0  0  0  0  0  0  0  0  0  0  0
   -8.3975  -12.9377  -19.1384 C   0  0  0  0  0  0  0  0  0  0  0  0
   -8.4949  -13.9695  -18.1155 N   0  0  0  0  0  0  0  0  0  0  0  0
   -2.1810  -10.4211  -14.7665 C   0  0  1  0  0  0  0  0  0  0  0  0
   -1.8095  -11.1785  -13.6399 O   0  0  0  0  0  0  0  0  0  0  0  0
   -5.2131  -13.1169  -11.1422 C   0  0  0  0  0  0  0  0  0  0  0  0
   -1.4785  -15.1863  -11.3566 C   0  0  0  0  0  0  0  0  0  0  0  0
  1  2  1  1  0  0  0
  1  6  1  0  0  0  0
  1 21  1  0  0  0  0
  3  4  1  1  0  0  0
  3  8  1  0  0  0  0
  3 28  1  0  0  0  0
  5  9  1  0  0  0  0
  5 25  1  0  0  0  0
  5 29  1  6  0  0  0
  6  7  1  1  0  0  0
  6 11  1  0  0  0  0
  8 12  1  0  0  0  0
  9 10  1  6  0  0  0
  9 14  1  0  0  0  0
 11 16  1  0  0  0  0
 12 13  1  6  0  0  0
 12 17  1  0  0  0  0
 14 15  1  1  0  0  0
 14 18  1  0  0  0  0
 15 31  1  0  0  0  0
 16 20  1  0  0  0  0
 17  2  1  6  0  0  0
 17 22  1  0  0  0  0
 18 19  1  1  0  0  0
 18 24  1  0  0  0  0
 18 30  1  0  0  0  0
 20 21  1  0  0  0  0
 20 26  1  6  0  0  0
 22 23  1  1  0  0  0
 22 28  1  0  0  0  0
 24 25  1  0  0  0  0
 26 27  1  0  0  0  0
 28 29  1  1  0  0  0
M  END
>  <CHROM.1>
-56.68143680,175.97715361,-85.87305769,-70.67272405,-65.46182657,108.42585189
-3.86786607,-11.27943990,-14.99678402,-2.16178764,0.42821242,2.02687928

>  <Name>
ligand

>  <RI>
0

>  <Rbt.Current_Directory>
/home/itssahil/PROJECTS/Mol_Feturizer/New_Systems/rnas/4F8U

>  <Rbt.Executable>
rbdock ($Id: //depot/dev/client3/rdock/2013.1/src/exe/rbdock.cxx#4 $)

>  <Rbt.Library>
libRbt.so (2013.1, Build901 2013/11/27)

>  <Rbt.Parameter_File>
/export/apps/rDock/src/rDock_2013.1_src/data/scripts/dock_solv.prm

>  <Rbt.Receptor>
prm/pocket_docking_2.prm

>  <SCORE>
-4.16155

>  <SCORE.INTER>
-5.56936

>  <SCORE.INTER.CONST>
1

>  <SCORE.INTER.POLAR>
0

>  <SCORE.INTER.ROT>
6

>  <SCORE.INTER.SOLV>
23.3601

>  <SCORE.INTER.VDW>
-19.0996

>  <SCORE.INTER.norm>
-0.179657

>  <SCORE.INTRA>
0.543726

>  <SCORE.INTRA.DIHEDRAL>
-7.49709

>  <SCORE.INTRA.DIHEDRAL.0>
18.77

>  <SCORE.INTRA.POLAR>
0

>  <SCORE.INTRA.POLAR.0>
0

>  <SCORE.INTRA.REPUL>
0

>  <SCORE.INTRA.REPUL.0>
0

>  <SCORE.INTRA.SOLV>
3.14198

>  <SCORE.INTRA.SOLV.lig_0>
-77.2465

>  <SCORE.INTRA.VDW>
2.72128

>  <SCORE.INTRA.VDW.0>
-4.16072

>  <SCORE.INTRA.norm>
0.0175396

>  <SCORE.RESTR>
0.864088

>  <SCORE.RESTR.CAVITY>
0.864088

>  <SCORE.RESTR.norm>
0.0278738

>  <SCORE.SYSTEM>
0

>  <SCORE.SYSTEM.CONST>
0

>  <SCORE.SYSTEM.DIHEDRAL>
0

>  <SCORE.SYSTEM.SOLV>
0

>  <SCORE.SYSTEM.norm>
0

>  <SCORE.heavy>
31

>  <SCORE.norm>
-0.134244

>  <RMSD>
2.585

$$$$
ligand
 OpenBabel11021811493D
libRbt.so/2013.1/901 2013/11/27
 31 33  0  0  0  0  0  0  0  0999 V2000
   -5.9226   -9.3613  -17.3659 C   0  0  2  0  0  0  0  0  0  0  0  0
   -5.1682  -10.5806  -17.3403 O   0  0  0  0  0  0  0  0  0  0  0  0
   -1.1851  -12.0334  -16.7503 C   0  0  2  0  0  0  0  0  0  0  0  0
    0.1653  -12.1200  -16.2846 N   0  0  0  0  0  0  0  0  0  0  0  0
   -0.8203  -13.5862  -14.0048 C   0  0  2  0  0  0  0  0  0  0  0  0
   -7.4061   -9.7663  -17.6775 C   0  0  2  0  0  0  0  0  0  0  0  0
   -7.8831  -10.7043  -16.6674 N   0  0  0  0  0  0  0  0  0  0  0  0
   -1.3592  -10.6930  -17.5633 C   0  0  0  0  0  0  0  0  0  0  0  0
   -1.1320  -14.9757  -13.3681 C   0  0  2  0  0  0  0  0  0  0  0  0
   -1.3277  -15.9243  -14.4029 O   0  0  0  0  0  0  0  0  0  0  0  0
   -7.4938  -10.4006  -19.1092 C   0  0  0  0  0  0  0  0  0  0  0  0
   -2.8575  -10.6018  -18.0868 C   0  0  2  0  0  0  0  0  0  0  0  0
   -3.0335   -9.3449  -18.8512 N   0  0  0  0  0  0  0  0  0  0  0  0
   -2.4526  -14.8043  -12.4947 C   0  0  1  0  0  0  0  0  0  0  0  0
   -2.8465  -16.1115  -11.8675 N   0  0  0  0  0  0  0  0  0  0  0  0
   -6.7300   -9.5301  -20.1486 C   0  0  0  0  0  0  0  0  0  0  0  0
   -3.8575  -10.6393  -16.8468 C   0  0  2  0  0  0  0  0  0  0  0  0
   -2.1789  -13.7086  -11.3210 C   0  0  1  0  0  0  0  0  0  0  0  0
   -1.1309  -14.1045  -10.4575 O   0  0  0  0  0  0  0  0  0  0  0  0
   -5.7985   -8.6468  -19.7588 C   0  0  2  0  0  0  0  0  0  0  0  0
   -5.4394   -8.4328  -18.3825 O   0  0  0  0  0  0  0  0  0  0  0  0
   -3.6354  -11.9844  -16.0363 C   0  0  2  0  0  0  0  0  0  0  0  0
   -4.5127  -12.0191  -14.9035 O   0  0  0  0  0  0  0  0  0  0  0  0
   -1.7697  -12.3448  -11.9728 C   0  0  0  0  0  0  0  0  0  0  0  0
   -0.6047  -12.5575  -12.9246 O   0  0  0  0  0  0  0  0  0  0  0  0
   -5.0308   -7.7709  -20.7761 C   0  0  0  0  0  0  0  0  0  0  0  0
   -5.5111   -6.3985  -20.6966 N   0  0  0  0  0  0  0  0  0  0  0  0
   -2.1502  -12.0601  -15.5283 C   0  0  1  0  0  0  0  0  0  0  0  0
   -1.9913  -13.2663  -14.8205 O   0  0  0  0  0  0  0  0  0  0  0  0
   -3.3652  -13.4223  -10.3855 C   0  0  0  0  0  0  0  0  0  0  0  0
   -3.8087  -16.9363  -12.6225 C   0  0  0  0  0  0  0  0  0  0  0  0
  1  2  1  6  0  0  0
  1  6  1  0  0  0  0
  1 21  1  0  0  0  0
  3  4  1  1  0  0  0
  3  8  1  0  0  0  0
  3 28  1  0  0  0  0
  5  9  1  0  0  0  0
  5 25  1  0  0  0  0
  5 29  1  6  0  0  0
  6  7  1  1  0  0  0
  6 11  1  0  0  0  0
  8 12  1  0  0  0  0
  9 10  1  6  0  0  0
  9 14  1  0  0  0  0
 11 16  1  0  0  0  0
 12 13  1  1  0  0  0
 12 17  1  0  0  0  0
 14 15  1  1  0  0  0
 14 18  1  0  0  0  0
 15 31  1  0  0  0  0
 16 20  1  0  0  0  0
 17  2  1  6  0  0  0
 17 22  1  0  0  0  0
 18 19  1  1  0  0  0
 18 24  1  0  0  0  0
 18 30  1  0  0  0  0
 20 21  1  0  0  0  0
 20 26  1  1  0  0  0
 22 23  1  1  0  0  0
 22 28  1  0  0  0  0
 24 25  1  0  0  0  0
 26 27  1  0  0  0  0
 28 29  1  6  0  0  0
M  END
>  <CHROM.1>
-167.74571850,177.07152228,-92.96623142,-99.29708854,106.78220724,71.75790492
-3.48146292,-11.79830523,-15.74557889,1.98097301,0.04683100,-0.90545086

>  <Name>
ligand

>  <RI>
0

>  <Rbt.Current_Directory>
/home/itssahil/PROJECTS/Mol_Feturizer/New_Systems/rnas/4F8U

>  <Rbt.Executable>
rbdock ($Id: //depot/dev/client3/rdock/2013.1/src/exe/rbdock.cxx#4 $)

>  <Rbt.Library>
libRbt.so (2013.1, Build901 2013/11/27)

>  <Rbt.Parameter_File>
/export/apps/rDock/src/rDock_2013.1_src/data/scripts/dock_solv.prm

>  <Rbt.Receptor>
prm/pocket_docking_4.prm

>  <SCORE>
-10.1823

>  <SCORE.INTER>
-6.87697

>  <SCORE.INTER.CONST>
1

>  <SCORE.INTER.POLAR>
0

>  <SCORE.INTER.ROT>
6

>  <SCORE.INTER.SOLV>
16.8754

>  <SCORE.INTER.VDW>
-17.8098

>  <SCORE.INTER.norm>
-0.221838

>  <SCORE.INTRA>
-3.30692

>  <SCORE.INTRA.DIHEDRAL>
-9.46916

>  <SCORE.INTRA.DIHEDRAL.0>
18.77

>  <SCORE.INTRA.POLAR>
0

>  <SCORE.INTRA.POLAR.0>
0

>  <SCORE.INTRA.REPUL>
0

>  <SCORE.INTRA.REPUL.0>
0

>  <SCORE.INTRA.SOLV>
2.01028

>  <SCORE.INTRA.SOLV.lig_0>
-77.2465

>  <SCORE.INTRA.VDW>
0.422514

>  <SCORE.INTRA.VDW.0>
-4.16072

>  <SCORE.INTRA.norm>
-0.106675

>  <SCORE.RESTR>
0.00162992

>  <SCORE.RESTR.CAVITY>
0.00162992

>  <SCORE.RESTR.norm>
5.25782e-05

>  <SCORE.SYSTEM>
0

>  <SCORE.SYSTEM.CONST>
0

>  <SCORE.SYSTEM.DIHEDRAL>
0

>  <SCORE.SYSTEM.SOLV>
0

>  <SCORE.SYSTEM.norm>
0

>  <SCORE.heavy>
31

>  <SCORE.norm>
-0.32846

>  <RMSD>
2.599

$$$$
ligand
 OpenBabel11021811493D
libRbt.so/2013.1/901 2013/11/27
 31 33  0  0  0  0  0  0  0  0999 V2000
   -7.2116   -9.9035  -18.8903 C   0  0  2  0  0  0  0  0  0  0  0  0
   -5.7986  -10.1225  -18.7810 O   0  0  0  0  0  0  0  0  0  0  0  0
   -3.1661  -10.2682  -15.4087 C   0  0  2  0  0  0  0  0  0  0  0  0
   -2.3771   -9.8443  -14.2926 N   0  0  0  0  0  0  0  0  0  0  0  0
   -5.2508  -12.0384  -13.8906 C   0  0  2  0  0  0  0  0  0  0  0  0
   -7.7281  -10.8934  -19.9927 C   0  0  2  0  0  0  0  0  0  0  0  0
   -7.3964  -12.2637  -19.6185 N   0  0  0  0  0  0  0  0  0  0  0  0
   -2.6486   -9.5360  -16.7064 C   0  0  0  0  0  0  0  0  0  0  0  0
   -6.3496  -12.2705  -12.8079 C   0  0  2  0  0  0  0  0  0  0  0  0
   -7.5527  -11.6521  -13.2310 O   0  0  0  0  0  0  0  0  0  0  0  0
   -7.0895  -10.5263  -21.3773 C   0  0  0  0  0  0  0  0  0  0  0  0
   -3.5206  -10.0136  -17.9469 C   0  0  2  0  0  0  0  0  0  0  0  0
   -3.0443   -9.3306  -19.1723 N   0  0  0  0  0  0  0  0  0  0  0  0
   -5.8186  -11.6187  -11.4554 C   0  0  1  0  0  0  0  0  0  0  0  0
   -6.8360  -11.7682  -10.3599 N   0  0  0  0  0  0  0  0  0  0  0  0
   -7.1938   -8.9974  -21.6475 C   0  0  0  0  0  0  0  0  0  0  0  0
   -5.0539   -9.6699  -17.6831 C   0  0  2  0  0  0  0  0  0  0  0  0
   -4.4392  -12.3612  -11.0095 C   0  0  1  0  0  0  0  0  0  0  0  0
   -4.6285  -13.7448  -10.7842 O   0  0  0  0  0  0  0  0  0  0  0  0
   -7.3948   -8.1304  -20.6437 C   0  0  2  0  0  0  0  0  0  0  0  0
   -7.5312   -8.5310  -19.2691 O   0  0  0  0  0  0  0  0  0  0  0  0
   -5.5324  -10.3974  -16.3574 C   0  0  2  0  0  0  0  0  0  0  0  0
   -6.9044  -10.0763  -16.0956 O   0  0  0  0  0  0  0  0  0  0  0  0
   -3.3768  -12.2051  -12.1494 C   0  0  0  0  0  0  0  0  0  0  0  0
   -3.9593  -12.6892  -13.4665 O   0  0  0  0  0  0  0  0  0  0  0  0
   -7.5040   -6.6079  -20.8923 C   0  0  0  0  0  0  0  0  0  0  0  0
   -6.2839   -5.9527  -20.4422 N   0  0  0  0  0  0  0  0  0  0  0  0
   -4.6597   -9.9165  -15.1422 C   0  0  1  0  0  0  0  0  0  0  0  0
   -5.1095  -10.5861  -13.9888 O   0  0  0  0  0  0  0  0  0  0  0  0
   -3.7903  -11.8426   -9.7155 C   0  0  0  0  0  0  0  0  0  0  0  0
   -7.5978  -10.5561  -10.0041 C   0  0  0  0  0  0  0  0  0  0  0  0
  1  2  1  6  0  0  0
  1  6  1  0  0  0  0
  1 21  1  0  0  0  0
  3  4  1  1  0  0  0
  3  8  1  0  0  0  0
  3 28  1  0  0  0  0
  5  9  1  0  0  0  0
  5 25  1  0  0  0  0
  5 29  1  1  0  0  0
  6  7  1  1  0  0  0
  6 11  1  0  0  0  0
  8 12  1  0  0  0  0
  9 10  1  6  0  0  0
  9 14  1  0  0  0  0
 11 16  1  0  0  0  0
 12 13  1  6  0  0  0
 12 17  1  0  0  0  0
 14 15  1  1  0  0  0
 14 18  1  0  0  0  0
 15 31  1  0  0  0  0
 16 20  1  0  0  0  0
 17  2  1  6  0  0  0
 17 22  1  0  0  0  0
 18 19  1  1  0  0  0
 18 24  1  0  0  0  0
 18 30  1  0  0  0  0
 20 21  1  0  0  0  0
 20 26  1  6  0  0  0
 22 23  1  1  0  0  0
 22 28  1  0  0  0  0
 24 25  1  0  0  0  0
 26 27  1  0  0  0  0
 28 29  1  1  0  0  0
M  END
>  <CHROM.1>
-163.65774729,-153.77839047,-104.67483832,-176.63419872,-105.98119924,-66.63012993
-5.58865703,-10.47526310,-15.86695947,1.73782310,-0.09527980,-1.21710732

>  <Name>
ligand

>  <RI>
0

>  <Rbt.Current_Directory>
/home/itssahil/PROJECTS/Mol_Feturizer/New_Systems/rnas/4F8U

>  <Rbt.Executable>
rbdock ($Id: //depot/dev/client3/rdock/2013.1/src/exe/rbdock.cxx#4 $)

>  <Rbt.Library>
libRbt.so (2013.1, Build901 2013/11/27)

>  <Rbt.Parameter_File>
/export/apps/rDock/src/rDock_2013.1_src/data/scripts/dock_solv.prm

>  <Rbt.Receptor>
prm/pocket_docking_3.prm

>  <SCORE>
-13.9557

>  <SCORE.INTER>
-8.53717

>  <SCORE.INTER.CONST>
1

>  <SCORE.INTER.POLAR>
0

>  <SCORE.INTER.ROT>
6

>  <SCORE.INTER.SOLV>
21.1178

>  <SCORE.INTER.VDW>
-20.3307

>  <SCORE.INTER.norm>
-0.275393

>  <SCORE.INTRA>
-5.41853

>  <SCORE.INTRA.DIHEDRAL>
-11.4212

>  <SCORE.INTRA.DIHEDRAL.0>
18.77

>  <SCORE.INTRA.POLAR>
0

>  <SCORE.INTRA.POLAR.0>
0

>  <SCORE.INTRA.REPUL>
0

>  <SCORE.INTRA.REPUL.0>
0

>  <SCORE.INTRA.SOLV>
-1.11265

>  <SCORE.INTRA.SOLV.lig_0>
-77.2465

>  <SCORE.INTRA.VDW>
0.848379

>  <SCORE.INTRA.VDW.0>
-4.16072

>  <SCORE.INTRA.norm>
-0.174791

>  <SCORE.RESTR>
0

>  <SCORE.RESTR.CAVITY>
0

>  <SCORE.RESTR.norm>
0

>  <SCORE.SYSTEM>
0

>  <SCORE.SYSTEM.CONST>
0

>  <SCORE.SYSTEM.DIHEDRAL>
0

>  <SCORE.SYSTEM.SOLV>
0

>  <SCORE.SYSTEM.norm>
0

>  <SCORE.heavy>
31

>  <SCORE.norm>
-0.450184

>  <RMSD>
2.636

$$$$
ligand
 OpenBabel11021811493D
libRbt.so/2013.1/901 2013/11/27
 31 33  0  0  0  0  0  0  0  0999 V2000
   -5.2950  -11.1537  -18.4866 C   0  0  2  0  0  0  0  0  0  0  0  0
   -5.2249   -9.8791  -17.8332 O   0  0  0  0  0  0  0  0  0  0  0  0
   -1.6447  -10.3065  -15.5259 C   0  0  2  0  0  0  0  0  0  0  0  0
   -0.5230   -9.9771  -14.7006 N   0  0  0  0  0  0  0  0  0  0  0  0
   -2.6320  -10.2254  -12.2618 C   0  0  2  0  0  0  0  0  0  0  0  0
   -6.3915  -11.0192  -19.6008 C   0  0  2  0  0  0  0  0  0  0  0  0
   -6.0375   -9.9363  -20.5118 N   0  0  0  0  0  0  0  0  0  0  0  0
   -1.5550   -9.4757  -16.8637 C   0  0  0  0  0  0  0  0  0  0  0  0
   -1.9003  -11.4182  -11.5726 C   0  0  2  0  0  0  0  0  0  0  0  0
   -0.7785  -11.7868  -12.3566 O   0  0  0  0  0  0  0  0  0  0  0  0
   -7.7894  -10.7544  -18.9409 C   0  0  0  0  0  0  0  0  0  0  0  0
   -2.7972   -9.8484  -17.7830 C   0  0  2  0  0  0  0  0  0  0  0  0
   -2.7245   -9.0722  -19.0429 N   0  0  0  0  0  0  0  0  0  0  0  0
   -2.9461  -12.6153  -11.4756 C   0  0  1  0  0  0  0  0  0  0  0  0
   -2.3108  -13.8246  -10.8500 N   0  0  0  0  0  0  0  0  0  0  0  0
   -8.0442  -11.7437  -17.7671 C   0  0  0  0  0  0  0  0  0  0  0  0
   -4.1501   -9.5193  -17.0083 C   0  0  2  0  0  0  0  0  0  0  0  0
   -4.2133  -12.1459  -10.5663 C   0  0  1  0  0  0  0  0  0  0  0  0
   -3.8245  -11.7962   -9.2520 O   0  0  0  0  0  0  0  0  0  0  0  0
   -7.0283  -12.3891  -17.1745 C   0  0  2  0  0  0  0  0  0  0  0  0
   -5.6539  -12.2282  -17.5668 O   0  0  0  0  0  0  0  0  0  0  0  0
   -4.1937  -10.3479  -15.6566 C   0  0  2  0  0  0  0  0  0  0  0  0
   -5.3954  -10.0419  -14.9382 O   0  0  0  0  0  0  0  0  0  0  0  0
   -4.8780  -10.8864  -11.2175 C   0  0  0  0  0  0  0  0  0  0  0  0
   -3.8295   -9.8106  -11.4462 O   0  0  0  0  0  0  0  0  0  0  0  0
   -7.2614  -13.3779  -16.0085 C   0  0  0  0  0  0  0  0  0  0  0  0
   -8.5018  -13.0402  -15.3247 N   0  0  0  0  0  0  0  0  0  0  0  0
   -2.9589   -9.9698  -14.7611 C   0  0  1  0  0  0  0  0  0  0  0  0
   -3.0296  -10.7270  -13.5768 O   0  0  0  0  0  0  0  0  0  0  0  0
   -5.3232  -13.1932  -10.3770 C   0  0  0  0  0  0  0  0  0  0  0  0
   -1.5217  -14.6884  -11.7487 C   0  0  0  0  0  0  0  0  0  0  0  0
  1  2  1  1  0  0  0
  1  6  1  0  0  0  0
  1 21  1  0  0  0  0
  3  4  1  1  0  0  0
  3  8  1  0  0  0  0
  3 28  1  0  0  0  0
  5  9  1  0  0  0  0
  5 25  1  0  0  0  0
  5 29  1  6  0  0  0
  6  7  1  6  0  0  0
  6 11  1  0  0  0  0
  8 12  1  0  0  0  0
  9 10  1  6  0  0  0
  9 14  1  0  0  0  0
 11 16  1  0  0  0  0
 12 13  1  6  0  0  0
 12 17  1  0  0  0  0
 14 15  1  1  0  0  0
 14 18  1  0  0  0  0
 15 31  1  0  0  0  0
 16 20  1  0  0  0  0
 17  2  1  6  0  0  0
 17 22  1  0  0  0  0
 18 19  1  1  0  0  0
 18 24  1  0  0  0  0
 18 30  1  0  0  0  0
 20 21  1  0  0  0  0
 20 26  1  6  0  0  0
 22 23  1  1  0  0  0
 22 28  1  0  0  0  0
 24 25  1  0  0  0  0
 26 27  1  0  0  0  0
 28 29  1  1  0  0  0
M  END
>  <CHROM.1>
-164.36006891,-139.97771651,-82.81910526,48.71674548,-25.17614530,97.12632167
-4.20377018,-11.20873227,-14.86139077,-1.99156959,0.39825927,1.92024350

>  <Name>
ligand

>  <RI>
0

>  <Rbt.Current_Directory>
/home/itssahil/PROJECTS/Mol_Feturizer/New_Systems/rnas/4F8U

>  <Rbt.Executable>
rbdock ($Id: //depot/dev/client3/rdock/2013.1/src/exe/rbdock.cxx#4 $)

>  <Rbt.Library>
libRbt.so (2013.1, Build901 2013/11/27)

>  <Rbt.Parameter_File>
/export/apps/rDock/src/rDock_2013.1_src/data/scripts/dock_solv.prm

>  <Rbt.Receptor>
prm/pocket_docking_3.prm

>  <SCORE>
-7.82595

>  <SCORE.INTER>
-7.72342

>  <SCORE.INTER.CONST>
1

>  <SCORE.INTER.POLAR>
0

>  <SCORE.INTER.ROT>
6

>  <SCORE.INTER.SOLV>
20.4568

>  <SCORE.INTER.VDW>
-19.5679

>  <SCORE.INTER.norm>
-0.249142

>  <SCORE.INTRA>
-0.211152

>  <SCORE.INTRA.DIHEDRAL>
-3.92169

>  <SCORE.INTRA.DIHEDRAL.0>
18.77

>  <SCORE.INTRA.POLAR>
0

>  <SCORE.INTRA.POLAR.0>
0

>  <SCORE.INTRA.REPUL>
0

>  <SCORE.INTRA.REPUL.0>
0

>  <SCORE.INTRA.SOLV>
0.847677

>  <SCORE.INTRA.SOLV.lig_0>
-77.2465

>  <SCORE.INTRA.VDW>
1.32586

>  <SCORE.INTRA.VDW.0>
-4.16072

>  <SCORE.INTRA.norm>
-0.00681135

>  <SCORE.RESTR>
0.10862

>  <SCORE.RESTR.CAVITY>
0.10862

>  <SCORE.RESTR.norm>
0.00350386

>  <SCORE.SYSTEM>
0

>  <SCORE.SYSTEM.CONST>
0

>  <SCORE.SYSTEM.DIHEDRAL>
0

>  <SCORE.SYSTEM.SOLV>
0

>  <SCORE.SYSTEM.norm>
0

>  <SCORE.heavy>
31

>  <SCORE.norm>
-0.25245

>  <RMSD>
2.652

$$$$
ligand
 OpenBabel11021811493D
libRbt.so/2013.1/901 2013/11/27
 31 33  0  0  0  0  0  0  0  0999 V2000
   -4.7508   -9.7436  -18.9093 C   0  0  2  0  0  0  0  0  0  0  0  0
   -4.0957   -8.9823  -17.8858 O   0  0  0  0  0  0  0  0  0  0  0  0
   -2.8601  -12.0822  -15.2048 C   0  0  2  0  0  0  0  0  0  0  0  0
   -2.2288  -12.7420  -14.1029 N   0  0  0  0  0  0  0  0  0  0  0  0
   -5.3582  -11.0764  -12.6251 C   0  0  2  0  0  0  0  0  0  0  0  0
   -5.3747   -8.7021  -19.9034 C   0  0  2  0  0  0  0  0  0  0  0  0
   -4.3268   -7.8340  -20.4288 N   0  0  0  0  0  0  0  0  0  0  0  0
   -1.7500  -11.4056  -16.0980 C   0  0  0  0  0  0  0  0  0  0  0  0
   -4.3014  -11.4537  -11.5416 C   0  0  2  0  0  0  0  0  0  0  0  0
   -3.0536  -10.8817  -11.8947 O   0  0  0  0  0  0  0  0  0  0  0  0
   -6.4759   -7.8608  -19.1691 C   0  0  0  0  0  0  0  0  0  0  0  0
   -2.4519  -10.6798  -17.3260 C   0  0  2  0  0  0  0  0  0  0  0  0
   -1.4182  -10.0386  -18.1718 N   0  0  0  0  0  0  0  0  0  0  0  0
   -4.2111  -13.0434  -11.5097 C   0  0  1  0  0  0  0  0  0  0  0  0
   -3.1852  -13.4960  -10.5098 N   0  0  0  0  0  0  0  0  0  0  0  0
   -7.4363   -8.7856  -18.3666 C   0  0  0  0  0  0  0  0  0  0  0  0
   -3.4772   -9.5876  -16.7831 C   0  0  2  0  0  0  0  0  0  0  0  0
   -5.6644  -13.6533  -11.0989 C   0  0  1  0  0  0  0  0  0  0  0  0
   -6.0846  -13.2128   -9.8220 O   0  0  0  0  0  0  0  0  0  0  0  0
   -7.0729  -10.0318  -18.0281 C   0  0  2  0  0  0  0  0  0  0  0  0
   -5.7995  -10.6048  -18.3729 O   0  0  0  0  0  0  0  0  0  0  0  0
   -4.5603  -10.2969  -15.8668 C   0  0  2  0  0  0  0  0  0  0  0  0
   -5.4749   -9.3209  -15.3521 O   0  0  0  0  0  0  0  0  0  0  0  0
   -6.7350  -13.1840  -12.1409 C   0  0  0  0  0  0  0  0  0  0  0  0
   -6.6975  -11.6707  -12.2721 O   0  0  0  0  0  0  0  0  0  0  0  0
   -8.0141  -10.9668  -17.2333 C   0  0  0  0  0  0  0  0  0  0  0  0
   -8.1699  -12.2244  -17.9505 N   0  0  0  0  0  0  0  0  0  0  0  0
   -3.8507  -11.0109  -14.6601 C   0  0  1  0  0  0  0  0  0  0  0  0
   -4.8409  -11.6312  -13.8755 O   0  0  0  0  0  0  0  0  0  0  0  0
   -5.7484  -15.1870  -11.0271 C   0  0  0  0  0  0  0  0  0  0  0  0
   -1.9423  -14.0688  -11.0606 C   0  0  0  0  0  0  0  0  0  0  0  0
  1  2  1  1  0  0  0
  1  6  1  0  0  0  0
  1 21  1  0  0  0  0
  3  4  1  1  0  0  0
  3  8  1  0  0  0  0
  3 28  1  0  0  0  0
  5  9  1  0  0  0  0
  5 25  1  0  0  0  0
  5 29  1  6  0  0  0
  6  7  1  1  0  0  0
  6 11  1  0  0  0  0
  8 12  1  0  0  0  0
  9 10  1  6  0  0  0
  9 14  1  0  0  0  0
 11 16  1  0  0  0  0
 12 13  1  6  0  0  0
 12 17  1  0  0  0  0
 14 15  1  1  0  0  0
 14 18  1  0  0  0  0
 15 31  1  0  0  0  0
 16 20  1  0  0  0  0
 17  2  1  6  0  0  0
 17 22  1  0  0  0  0
 18 19  1  1  0  0  0
 18 24  1  0  0  0  0
 18 30  1  0  0  0  0
 20 21  1  0  0  0  0
 20 26  1  6  0  0  0
 22 23  1  1  0  0  0
 22 28  1  0  0  0  0
 24 25  1  0  0  0  0
 26 27  1  0  0  0  0
 28 29  1  1  0  0  0
M  END
>  <CHROM.1>
176.83744571,-80.69633987,-108.87709416,53.35564348,126.18911189,139.73304432
-4.76878105,-11.15186601,-15.09198352,-1.65862691,0.02797873,2.05315518

>  <Name>
ligand

>  <RI>
0

>  <Rbt.Current_Directory>
/home/itssahil/PROJECTS/Mol_Feturizer/New_Systems/rnas/4F8U

>  <Rbt.Executable>
rbdock ($Id: //depot/dev/client3/rdock/2013.1/src/exe/rbdock.cxx#4 $)

>  <Rbt.Library>
libRbt.so (2013.1, Build901 2013/11/27)

>  <Rbt.Parameter_File>
/export/apps/rDock/src/rDock_2013.1_src/data/scripts/dock_solv.prm

>  <Rbt.Receptor>
prm/pocket_docking_3.prm

>  <SCORE>
-5.95716

>  <SCORE.INTER>
-2.53448

>  <SCORE.INTER.CONST>
1

>  <SCORE.INTER.POLAR>
0

>  <SCORE.INTER.ROT>
6

>  <SCORE.INTER.SOLV>
18.9805

>  <SCORE.INTER.VDW>
-15.6165

>  <SCORE.INTER.norm>
-0.0817574

>  <SCORE.INTRA>
-3.42268

>  <SCORE.INTRA.DIHEDRAL>
-8.31535

>  <SCORE.INTRA.DIHEDRAL.0>
18.77

>  <SCORE.INTRA.POLAR>
0

>  <SCORE.INTRA.POLAR.0>
0

>  <SCORE.INTRA.REPUL>
0

>  <SCORE.INTRA.REPUL.0>
0

>  <SCORE.INTRA.SOLV>
1.66822

>  <SCORE.INTRA.SOLV.lig_0>
-77.2465

>  <SCORE.INTRA.VDW>
-0.099118

>  <SCORE.INTRA.VDW.0>
-4.16072

>  <SCORE.INTRA.norm>
-0.110409

>  <SCORE.RESTR>
0

>  <SCORE.RESTR.CAVITY>
0

>  <SCORE.RESTR.norm>
0

>  <SCORE.SYSTEM>
0

>  <SCORE.SYSTEM.CONST>
0

>  <SCORE.SYSTEM.DIHEDRAL>
0

>  <SCORE.SYSTEM.SOLV>
0

>  <SCORE.SYSTEM.norm>
0

>  <SCORE.heavy>
31

>  <SCORE.norm>
-0.192166

>  <RMSD>
2.689

$$$$
ligand
 OpenBabel11021811493D
libRbt.so/2013.1/901 2013/11/27
 31 33  0  0  0  0  0  0  0  0999 V2000
   -7.3637  -10.1225  -18.8326 C   0  0  2  0  0  0  0  0  0  0  0  0
   -5.9584  -10.3214  -18.6271 O   0  0  0  0  0  0  0  0  0  0  0  0
   -3.5175  -10.2698  -15.1110 C   0  0  2  0  0  0  0  0  0  0  0  0
   -2.8008   -9.7829  -13.9720 N   0  0  0  0  0  0  0  0  0  0  0  0
   -5.6957  -12.0168  -13.6546 C   0  0  2  0  0  0  0  0  0  0  0  0
   -7.7865  -11.1085  -19.9776 C   0  0  2  0  0  0  0  0  0  0  0  0
   -7.4601  -12.4775  -19.5940 N   0  0  0  0  0  0  0  0  0  0  0  0
   -2.9419   -9.5814  -16.4082 C   0  0  0  0  0  0  0  0  0  0  0  0
   -6.7424  -12.2060  -12.5136 C   0  0  2  0  0  0  0  0  0  0  0  0
   -7.9531  -11.5713  -12.8878 O   0  0  0  0  0  0  0  0  0  0  0  0
   -7.0590  -10.7174  -21.3108 C   0  0  0  0  0  0  0  0  0  0  0  0
   -3.7335  -10.1289  -17.6735 C   0  0  2  0  0  0  0  0  0  0  0  0
   -3.2021   -9.4875  -18.8988 N   0  0  0  0  0  0  0  0  0  0  0  0
   -6.1309  -11.5398  -11.2027 C   0  0  1  0  0  0  0  0  0  0  0  0
   -7.0941  -11.6478  -10.0547 N   0  0  0  0  0  0  0  0  0  0  0  0
   -7.1684   -9.1875  -21.5733 C   0  0  0  0  0  0  0  0  0  0  0  0
   -5.2855   -9.8075  -17.5100 C   0  0  2  0  0  0  0  0  0  0  0  0
   -4.7453  -12.3017  -10.8122 C   0  0  1  0  0  0  0  0  0  0  0  0
   -4.9498  -13.6767  -10.5502 O   0  0  0  0  0  0  0  0  0  0  0  0
   -7.4524   -8.3342  -20.5778 C   0  0  2  0  0  0  0  0  0  0  0  0
   -7.6778   -8.7512  -19.2198 O   0  0  0  0  0  0  0  0  0  0  0  0
   -5.8238  -10.4892  -16.1829 C   0  0  2  0  0  0  0  0  0  0  0  0
   -7.2143  -10.1870  -16.0115 O   0  0  0  0  0  0  0  0  0  0  0  0
   -3.7393  -12.1889  -12.0069 C   0  0  0  0  0  0  0  0  0  0  0  0
   -4.3972  -12.6858  -13.2832 O   0  0  0  0  0  0  0  0  0  0  0  0
   -7.5680   -6.8110  -20.8191 C   0  0  0  0  0  0  0  0  0  0  0  0
   -6.3733   -6.1468  -20.3173 N   0  0  0  0  0  0  0  0  0  0  0  0
   -5.0302   -9.9394  -14.9430 C   0  0  1  0  0  0  0  0  0  0  0  0
   -5.5313  -10.5698  -13.7887 O   0  0  0  0  0  0  0  0  0  0  0  0
   -4.0217  -11.7722   -9.5630 C   0  0  0  0  0  0  0  0  0  0  0  0
   -7.9802  -10.4895   -9.8323 C   0  0  0  0  0  0  0  0  0  0  0  0
  1  2  1  6  0  0  0
  1  6  1  0  0  0  0
  1 21  1  0  0  0  0
  3  4  1  1  0  0  0
  3  8  1  0  0  0  0
  3 28  1  0  0  0  0
  5  9  1  0  0  0  0
  5 25  1  0  0  0  0
  5 29  1  1  0  0  0
  6  7  1  1  0  0  0
  6 11  1  0  0  0  0
  8 12  1  0  0  0  0
  9 10  1  6  0  0  0
  9 14  1  0  0  0  0
 11 16  1  0  0  0  0
 12 13  1  6  0  0  0
 12 17  1  0  0  0  0
 14 15  1  1  0  0  0
 14 18  1  0  0  0  0
 15 31  1  0  0  0  0
 16 20  1  0  0  0  0
 17  2  1  6  0  0  0
 17 22  1  0  0  0  0
 18 19  1  1  0  0  0
 18 24  1  0  0  0  0
 18 30  1  0  0  0  0
 20 21  1  0  0  0  0
 20 26  1  6  0  0  0
 22 23  1  1  0  0  0
 22 28  1  0  0  0  0
 24 25  1  0  0  0  0
 26 27  1  0  0  0  0
 28 29  1  1  0  0  0
M  END
>  <CHROM.1>
-167.12981081,-158.84891184,-94.47247336,-175.80071622,-104.17559910,-68.94967179
-5.83720897,-10.53912589,-15.68948399,1.70780868,-0.11193078,-1.25241699

>  <Name>
ligand

>  <RI>
0

>  <Rbt.Current_Directory>
/home/itssahil/PROJECTS/Mol_Feturizer/New_Systems/rnas/4F8U

>  <Rbt.Executable>
rbdock ($Id: //depot/dev/client3/rdock/2013.1/src/exe/rbdock.cxx#4 $)

>  <Rbt.Library>
libRbt.so (2013.1, Build901 2013/11/27)

>  <Rbt.Parameter_File>
/export/apps/rDock/src/rDock_2013.1_src/data/scripts/dock_solv.prm

>  <Rbt.Receptor>
prm/pocket_docking_5.prm

>  <SCORE>
-15.2313

>  <SCORE.INTER>
-9.19489

>  <SCORE.INTER.CONST>
1

>  <SCORE.INTER.POLAR>
0

>  <SCORE.INTER.ROT>
6

>  <SCORE.INTER.SOLV>
20.5011

>  <SCORE.INTER.VDW>
-20.5636

>  <SCORE.INTER.norm>
-0.296609

>  <SCORE.INTRA>
-6.03645

>  <SCORE.INTRA.DIHEDRAL>
-12.7845

>  <SCORE.INTRA.DIHEDRAL.0>
18.77

>  <SCORE.INTRA.POLAR>
0

>  <SCORE.INTRA.POLAR.0>
0

>  <SCORE.INTRA.REPUL>
0

>  <SCORE.INTRA.REPUL.0>
0

>  <SCORE.INTRA.SOLV>
-1.22938

>  <SCORE.INTRA.SOLV.lig_0>
-77.2465

>  <SCORE.INTRA.VDW>
0.9705

>  <SCORE.INTRA.VDW.0>
-4.16072

>  <SCORE.INTRA.norm>
-0.194724

>  <SCORE.RESTR>
0

>  <SCORE.RESTR.CAVITY>
0

>  <SCORE.RESTR.norm>
0

>  <SCORE.SYSTEM>
0

>  <SCORE.SYSTEM.CONST>
0

>  <SCORE.SYSTEM.DIHEDRAL>
0

>  <SCORE.SYSTEM.SOLV>
0

>  <SCORE.SYSTEM.norm>
0

>  <SCORE.heavy>
31

>  <SCORE.norm>
-0.491334

>  <RMSD>
2.777

$$$$
ligand
 OpenBabel11021811493D
libRbt.so/2013.1/901 2013/11/27
 31 33  0  0  0  0  0  0  0  0999 V2000
   -5.1273  -10.6473  -18.6275 C   0  0  2  0  0  0  0  0  0  0  0  0
   -4.7198  -11.5548  -17.5946 O   0  0  0  0  0  0  0  0  0  0  0  0
   -1.2608  -12.0307  -15.1182 C   0  0  2  0  0  0  0  0  0  0  0  0
   -0.2158  -11.7331  -14.1869 N   0  0  0  0  0  0  0  0  0  0  0  0
   -1.9879  -12.6125  -12.0752 C   0  0  2  0  0  0  0  0  0  0  0  0
   -6.0177   -9.5582  -17.9326 C   0  0  2  0  0  0  0  0  0  0  0  0
   -5.2581   -8.9036  -16.8732 N   0  0  0  0  0  0  0  0  0  0  0  0
   -1.1511  -11.0406  -16.3412 C   0  0  0  0  0  0  0  0  0  0  0  0
   -2.6972  -13.5621  -11.0610 C   0  0  2  0  0  0  0  0  0  0  0  0
   -2.6296  -14.8913  -11.5482 O   0  0  0  0  0  0  0  0  0  0  0  0
   -7.3157  -10.2228  -17.3552 C   0  0  0  0  0  0  0  0  0  0  0  0
   -2.3075  -11.3774  -17.3788 C   0  0  2  0  0  0  0  0  0  0  0  0
   -2.2155  -10.4518  -18.5321 N   0  0  0  0  0  0  0  0  0  0  0  0
   -4.2086  -13.0746  -10.9422 C   0  0  1  0  0  0  0  0  0  0  0  0
   -4.9789  -13.9601  -10.0042 N   0  0  0  0  0  0  0  0  0  0  0  0
   -7.9764  -11.1564  -18.4104 C   0  0  0  0  0  0  0  0  0  0  0  0
   -3.7237  -11.2300  -16.6634 C   0  0  2  0  0  0  0  0  0  0  0  0
   -4.2350  -11.5467  -10.3785 C   0  0  1  0  0  0  0  0  0  0  0  0
   -3.6388  -11.4409   -9.1001 O   0  0  0  0  0  0  0  0  0  0  0  0
   -7.2748  -11.6265  -19.4528 C   0  0  2  0  0  0  0  0  0  0  0  0
   -5.8897  -11.3120  -19.6792 O   0  0  0  0  0  0  0  0  0  0  0  0
   -3.7884  -12.2166  -15.4233 C   0  0  2  0  0  0  0  0  0  0  0  0
   -5.0490  -12.0759  -14.7562 O   0  0  0  0  0  0  0  0  0  0  0  0
   -3.4339  -10.6217  -11.3557 C   0  0  0  0  0  0  0  0  0  0  0  0
   -2.0428  -11.1903  -11.5794 O   0  0  0  0  0  0  0  0  0  0  0  0
   -7.9141  -12.5531  -20.5131 C   0  0  0  0  0  0  0  0  0  0  0  0
   -7.2613  -13.8543  -20.4793 N   0  0  0  0  0  0  0  0  0  0  0  0
   -2.6383  -11.8722  -14.4092 C   0  0  1  0  0  0  0  0  0  0  0  0
   -2.7252  -12.7697  -13.3284 O   0  0  0  0  0  0  0  0  0  0  0  0
   -5.6297  -10.9218  -10.2091 C   0  0  0  0  0  0  0  0  0  0  0  0
   -6.1771  -14.6172  -10.5598 C   0  0  0  0  0  0  0  0  0  0  0  0
  1  2  1  1  0  0  0
  1  6  1  0  0  0  0
  1 21  1  0  0  0  0
  3  4  1  1  0  0  0
  3  8  1  0  0  0  0
  3 28  1  0  0  0  0
  5  9  1  0  0  0  0
  5 25  1  0  0  0  0
  5 29  1  6  0  0  0
  6  7  1  1  0  0  0
  6 11  1  0  0  0  0
  8 12  1  0  0  0  0
  9 10  1  6  0  0  0
  9 14  1  0  0  0  0
 11 16  1  0  0  0  0
 12 13  1  6  0  0  0
 12 17  1  0  0  0  0
 14 15  1  1  0  0  0
 14 18  1  0  0  0  0
 15 31  1  0  0  0  0
 16 20  1  0  0  0  0
 17  2  1  6  0  0  0
 17 22  1  0  0  0  0
 18 19  1  1  0  0  0
 18 24  1  0  0  0  0
 18 30  1  0  0  0  0
 20 21  1  0  0  0  0
 20 26  1  6  0  0  0
 22 23  1  1  0  0  0
 22 28  1  0  0  0  0
 24 25  1  0  0  0  0
 26 27  1  0  0  0  0
 28 29  1  1  0  0  0
M  END
>  <CHROM.1>
-75.58401354,163.84199134,-122.44684626,-77.14333662,-116.18531491,72.53101829
-4.24879823,-11.84399644,-14.85656039,-1.88501112,0.16999169,1.77738631

>  <Name>
ligand

>  <RI>
0

>  <Rbt.Current_Directory>
/home/itssahil/PROJECTS/Mol_Feturizer/New_Systems/rnas/4F8U

>  <Rbt.Executable>
rbdock ($Id: //depot/dev/client3/rdock/2013.1/src/exe/rbdock.cxx#4 $)

>  <Rbt.Library>
libRbt.so (2013.1, Build901 2013/11/27)

>  <Rbt.Parameter_File>
/export/apps/rDock/src/rDock_2013.1_src/data/scripts/dock_solv.prm

>  <Rbt.Receptor>
prm/pocket_docking_5.prm

>  <SCORE>
-9.41288

>  <SCORE.INTER>
-5.67127

>  <SCORE.INTER.CONST>
1

>  <SCORE.INTER.POLAR>
0

>  <SCORE.INTER.ROT>
6

>  <SCORE.INTER.SOLV>
16.9094

>  <SCORE.INTER.VDW>
-17.0173

>  <SCORE.INTER.norm>
-0.182944

>  <SCORE.INTRA>
-3.74161

>  <SCORE.INTRA.DIHEDRAL>
-11.4229

>  <SCORE.INTRA.DIHEDRAL.0>
18.77

>  <SCORE.INTRA.POLAR>
0

>  <SCORE.INTRA.POLAR.0>
0

>  <SCORE.INTRA.REPUL>
0

>  <SCORE.INTRA.REPUL.0>
0

>  <SCORE.INTRA.SOLV>
2.14518

>  <SCORE.INTRA.SOLV.lig_0>
-77.2465

>  <SCORE.INTRA.VDW>
0.897258

>  <SCORE.INTRA.VDW.0>
-4.16072

>  <SCORE.INTRA.norm>
-0.120697

>  <SCORE.RESTR>
0

>  <SCORE.RESTR.CAVITY>
0

>  <SCORE.RESTR.norm>
0

>  <SCORE.SYSTEM>
0

>  <SCORE.SYSTEM.CONST>
0

>  <SCORE.SYSTEM.DIHEDRAL>
0

>  <SCORE.SYSTEM.SOLV>
0

>  <SCORE.SYSTEM.norm>
0

>  <SCORE.heavy>
31

>  <SCORE.norm>
-0.303641

>  <RMSD>
2.948

$$$$
ligand
 OpenBabel11021811493D
libRbt.so/2013.1/901 2013/11/27
 31 33  0  0  0  0  0  0  0  0999 V2000
   -7.5599  -11.0593  -18.9817 C   0  0  2  0  0  0  0  0  0  0  0  0
   -6.1809  -11.3037  -18.6733 O   0  0  0  0  0  0  0  0  0  0  0  0
   -3.5267  -11.3962  -15.3162 C   0  0  2  0  0  0  0  0  0  0  0  0
   -2.9055  -11.0437  -14.0761 N   0  0  0  0  0  0  0  0  0  0  0  0
   -6.3895  -13.4365  -13.7710 C   0  0  2  0  0  0  0  0  0  0  0  0
   -7.8335  -11.7534  -20.3621 C   0  0  2  0  0  0  0  0  0  0  0  0
   -7.5189  -13.1748  -20.2695 N   0  0  0  0  0  0  0  0  0  0  0  0
   -3.3970  -10.1821  -16.3147 C   0  0  0  0  0  0  0  0  0  0  0  0
   -7.0794  -12.3783  -12.8559 C   0  0  2  0  0  0  0  0  0  0  0  0
   -7.2830  -11.1883  -13.5984 O   0  0  0  0  0  0  0  0  0  0  0  0
   -6.9753  -11.0669  -21.4810 C   0  0  0  0  0  0  0  0  0  0  0  0
   -4.0804  -10.5778  -17.6945 C   0  0  2  0  0  0  0  0  0  0  0  0
   -3.9662   -9.4434  -18.6406 N   0  0  0  0  0  0  0  0  0  0  0  0
   -6.1058  -12.1209  -11.6222 C   0  0  1  0  0  0  0  0  0  0  0  0
   -6.6809  -11.0830  -10.7007 N   0  0  0  0  0  0  0  0  0  0  0  0
   -7.0910   -9.5174  -21.3955 C   0  0  0  0  0  0  0  0  0  0  0  0
   -5.6125  -10.9376  -17.4454 C   0  0  2  0  0  0  0  0  0  0  0  0
   -5.9039  -13.5129  -10.8008 C   0  0  1  0  0  0  0  0  0  0  0  0
   -7.1264  -14.0152  -10.2967 O   0  0  0  0  0  0  0  0  0  0  0  0
   -7.5006   -8.9162  -20.2684 C   0  0  2  0  0  0  0  0  0  0  0  0
   -7.8619   -9.6348  -19.0760 O   0  0  0  0  0  0  0  0  0  0  0  0
   -5.7066  -12.1407  -16.4161 C   0  0  2  0  0  0  0  0  0  0  0  0
   -7.0814  -12.4581  -16.1647 O   0  0  0  0  0  0  0  0  0  0  0  0
   -5.3029  -14.5957  -11.7592 C   0  0  0  0  0  0  0  0  0  0  0  0
   -6.1633  -14.7151  -13.0059 O   0  0  0  0  0  0  0  0  0  0  0  0
   -7.6246   -7.3782  -20.1647 C   0  0  0  0  0  0  0  0  0  0  0  0
   -6.5998   -6.7509  -20.9873 N   0  0  0  0  0  0  0  0  0  0  0  0
   -5.0251  -11.7346  -15.0596 C   0  0  1  0  0  0  0  0  0  0  0  0
   -5.1238  -12.8263  -14.1767 O   0  0  0  0  0  0  0  0  0  0  0  0
   -4.9806  -13.4358   -9.5736 C   0  0  0  0  0  0  0  0  0  0  0  0
   -5.7814   -9.9791  -10.3151 C   0  0  0  0  0  0  0  0  0  0  0  0
  1  2  1  6  0  0  0
  1  6  1  0  0  0  0
  1 21  1  0  0  0  0
  3  4  1  1  0  0  0
  3  8  1  0  0  0  0
  3 28  1  0  0  0  0
  5  9  1  0  0  0  0
  5 25  1  0  0  0  0
  5 29  1  1  0  0  0
  6  7  1  1  0  0  0
  6 11  1  0  0  0  0
  8 12  1  0  0  0  0
  9 10  1  6  0  0  0
  9 14  1  0  0  0  0
 11 16  1  0  0  0  0
 12 13  1  6  0  0  0
 12 17  1  0  0  0  0
 14 15  1  1  0  0  0
 14 18  1  0  0  0  0
 15 31  1  0  0  0  0
 16 20  1  0  0  0  0
 17  2  1  6  0  0  0
 17 22  1  0  0  0  0
 18 19  1  1  0  0  0
 18 24  1  0  0  0  0
 18 30  1  0  0  0  0
 20 21  1  0  0  0  0
 20 26  1  6  0  0  0
 22 23  1  1  0  0  0
 22 28  1  0  0  0  0
 24 25  1  0  0  0  0
 26 27  1  0  0  0  0
 28 29  1  1  0  0  0
M  END
>  <CHROM.1>
-173.76208154,-70.00480084,-130.05674493,-148.63892910,-32.95659218,-177.29510169
-6.08159156,-11.42955924,-15.80362440,1.76314541,-0.99363218,-1.06559311

>  <Name>
ligand

>  <RI>
0

>  <Rbt.Current_Directory>
/home/itssahil/PROJECTS/Mol_Feturizer/New_Systems/rnas/4F8U

>  <Rbt.Executable>
rbdock ($Id: //depot/dev/client3/rdock/2013.1/src/exe/rbdock.cxx#4 $)

>  <Rbt.Library>
libRbt.so (2013.1, Build901 2013/11/27)

>  <Rbt.Parameter_File>
/export/apps/rDock/src/rDock_2013.1_src/data/scripts/dock_solv.prm

>  <Rbt.Receptor>
prm/pocket_docking_5.prm

>  <SCORE>
-11.827

>  <SCORE.INTER>
-8.22645

>  <SCORE.INTER.CONST>
1

>  <SCORE.INTER.POLAR>
0

>  <SCORE.INTER.ROT>
6

>  <SCORE.INTER.SOLV>
12.51

>  <SCORE.INTER.VDW>
-17.2543

>  <SCORE.INTER.norm>
-0.265369

>  <SCORE.INTRA>
-3.60054

>  <SCORE.INTRA.DIHEDRAL>
-10.2928

>  <SCORE.INTRA.DIHEDRAL.0>
18.77

>  <SCORE.INTRA.POLAR>
0

>  <SCORE.INTRA.POLAR.0>
0

>  <SCORE.INTRA.REPUL>
0

>  <SCORE.INTRA.REPUL.0>
0

>  <SCORE.INTRA.SOLV>
-0.991967

>  <SCORE.INTRA.SOLV.lig_0>
-77.2465

>  <SCORE.INTRA.VDW>
2.04185

>  <SCORE.INTRA.VDW.0>
-4.16072

>  <SCORE.INTRA.norm>
-0.116147

>  <SCORE.RESTR>
0

>  <SCORE.RESTR.CAVITY>
0

>  <SCORE.RESTR.norm>
0

>  <SCORE.SYSTEM>
0

>  <SCORE.SYSTEM.CONST>
0

>  <SCORE.SYSTEM.DIHEDRAL>
0

>  <SCORE.SYSTEM.SOLV>
0

>  <SCORE.SYSTEM.norm>
0

>  <SCORE.heavy>
31

>  <SCORE.norm>
-0.381516

>  <RMSD>
3.045

$$$$
ligand
 OpenBabel11021811493D
libRbt.so/2013.1/901 2013/11/27
 31 33  0  0  0  0  0  0  0  0999 V2000
   -4.3621  -10.4816  -17.8423 C   0  0  2  0  0  0  0  0  0  0  0  0
   -4.1198   -9.4989  -16.8264 O   0  0  0  0  0  0  0  0  0  0  0  0
   -0.6897  -11.1565  -14.8744 C   0  0  2  0  0  0  0  0  0  0  0  0
    0.4123  -11.3012  -13.9728 N   0  0  0  0  0  0  0  0  0  0  0  0
   -1.7018  -12.4282  -11.9413 C   0  0  2  0  0  0  0  0  0  0  0  0
   -5.0381   -9.7233  -19.0381 C   0  0  2  0  0  0  0  0  0  0  0  0
   -4.1676   -8.6445  -19.4922 N   0  0  0  0  0  0  0  0  0  0  0  0
   -0.4802   -9.8480  -15.7299 C   0  0  0  0  0  0  0  0  0  0  0  0
   -2.4595  -13.6790  -11.3984 C   0  0  2  0  0  0  0  0  0  0  0  0
   -2.1558  -14.7946  -12.2182 O   0  0  0  0  0  0  0  0  0  0  0  0
   -6.4317   -9.1603  -18.5900 C   0  0  0  0  0  0  0  0  0  0  0  0
   -1.7008   -9.6927  -16.7365 C   0  0  2  0  0  0  0  0  0  0  0  0
   -1.5157   -8.4650  -17.5450 N   0  0  0  0  0  0  0  0  0  0  0  0
   -4.0151  -13.3416  -11.4482 C   0  0  1  0  0  0  0  0  0  0  0  0
   -4.8269  -14.5122  -10.9707 N   0  0  0  0  0  0  0  0  0  0  0  0
   -7.2552  -10.2496  -17.8438 C   0  0  0  0  0  0  0  0  0  0  0  0
   -3.0625   -9.6121  -15.9130 C   0  0  2  0  0  0  0  0  0  0  0  0
   -4.3146  -12.0573  -10.4923 C   0  0  1  0  0  0  0  0  0  0  0  0
   -3.9626  -12.3037   -9.1445 O   0  0  0  0  0  0  0  0  0  0  0  0
   -6.6552  -11.3228  -17.3073 C   0  0  2  0  0  0  0  0  0  0  0  0
   -5.2372  -11.5532  -17.3783 O   0  0  0  0  0  0  0  0  0  0  0  0
   -3.2265  -10.9283  -15.0433 C   0  0  2  0  0  0  0  0  0  0  0  0
   -4.4365  -10.8572  -14.2786 O   0  0  0  0  0  0  0  0  0  0  0  0
   -3.4706  -10.8354  -10.9892 C   0  0  0  0  0  0  0  0  0  0  0  0
   -2.0053  -11.2259  -11.0846 O   0  0  0  0  0  0  0  0  0  0  0  0
   -7.4564  -12.4172  -16.5644 C   0  0  0  0  0  0  0  0  0  0  0  0
   -7.5831  -13.5908  -17.4170 N   0  0  0  0  0  0  0  0  0  0  0  0
   -2.0118  -11.0681  -14.0561 C   0  0  1  0  0  0  0  0  0  0  0  0
   -2.1901  -12.2468  -13.3079 O   0  0  0  0  0  0  0  0  0  0  0  0
   -5.7806  -11.5971  -10.4326 C   0  0  0  0  0  0  0  0  0  0  0  0
   -5.7803  -15.0863  -11.9390 C   0  0  0  0  0  0  0  0  0  0  0  0
  1  2  1  1  0  0  0
  1  6  1  0  0  0  0
  1 21  1  0  0  0  0
  3  4  1  1  0  0  0
  3  8  1  0  0  0  0
  3 28  1  0  0  0  0
  5  9  1  0  0  0  0
  5 25  1  0  0  0  0
  5 29  1  6  0  0  0
  6  7  1  1  0  0  0
  6 11  1  0  0  0  0
  8 12  1  0  0  0  0
  9 10  1  6  0  0  0
  9 14  1  0  0  0  0
 11 16  1  0  0  0  0
 12 13  1  1  0  0  0
 12 17  1  0  0  0  0
 14 15  1  1  0  0  0
 14 18  1  0  0  0  0
 15 31  1  0  0  0  0
 16 20  1  0  0  0  0
 17  2  1  6  0  0  0
 17 22  1  0  0  0  0
 18 19  1  1  0  0  0
 18 24  1  0  0  0  0
 18 30  1  0  0  0  0
 20 21  1  0  0  0  0
 20 26  1  6  0  0  0
 22 23  1  1  0  0  0
 22 28  1  0  0  0  0
 24 25  1  0  0  0  0
 26 27  1  0  0  0  0
 28 29  1  6  0  0  0
M  END
>  <CHROM.1>
-151.08944231,164.52406787,-119.49183157,58.24568028,104.14144039,90.80905988
-3.80760369,-11.43151690,-14.53034783,-1.78827706,0.35690581,2.04027525

>  <Name>
ligand

>  <RI>
0

>  <Rbt.Current_Directory>
/home/itssahil/PROJECTS/Mol_Feturizer/New_Systems/rnas/4F8U

>  <Rbt.Executable>
rbdock ($Id: //depot/dev/client3/rdock/2013.1/src/exe/rbdock.cxx#4 $)

>  <Rbt.Library>
libRbt.so (2013.1, Build901 2013/11/27)

>  <Rbt.Parameter_File>
/export/apps/rDock/src/rDock_2013.1_src/data/scripts/dock_solv.prm

>  <Rbt.Receptor>
prm/pocket_docking_2.prm

>  <SCORE>
-5.5259

>  <SCORE.INTER>
-2.96163

>  <SCORE.INTER.CONST>
1

>  <SCORE.INTER.POLAR>
0

>  <SCORE.INTER.ROT>
6

>  <SCORE.INTER.SOLV>
17.189

>  <SCORE.INTER.VDW>
-15.3041

>  <SCORE.INTER.norm>
-0.0955363

>  <SCORE.INTRA>
-3.37131

>  <SCORE.INTRA.DIHEDRAL>
-7.29329

>  <SCORE.INTRA.DIHEDRAL.0>
18.77

>  <SCORE.INTRA.POLAR>
0

>  <SCORE.INTRA.POLAR.0>
0

>  <SCORE.INTRA.REPUL>
0

>  <SCORE.INTRA.REPUL.0>
0

>  <SCORE.INTRA.SOLV>
0.450411

>  <SCORE.INTRA.SOLV.lig_0>
-77.2465

>  <SCORE.INTRA.VDW>
0.0501249

>  <SCORE.INTRA.VDW.0>
-4.16072

>  <SCORE.INTRA.norm>
-0.108752

>  <SCORE.RESTR>
0.80704

>  <SCORE.RESTR.CAVITY>
0.80704

>  <SCORE.RESTR.norm>
0.0260335

>  <SCORE.SYSTEM>
0

>  <SCORE.SYSTEM.CONST>
0

>  <SCORE.SYSTEM.DIHEDRAL>
0

>  <SCORE.SYSTEM.SOLV>
0

>  <SCORE.SYSTEM.norm>
0

>  <SCORE.heavy>
31

>  <SCORE.norm>
-0.178255

>  <RMSD>
3.056

$$$$
ligand
 OpenBabel11021811493D
libRbt.so/2013.1/901 2013/11/27
 31 33  0  0  0  0  0  0  0  0999 V2000
   -3.8556  -10.0731  -17.7252 C   0  0  2  0  0  0  0  0  0  0  0  0
   -3.3700   -8.9911  -16.9190 O   0  0  0  0  0  0  0  0  0  0  0  0
   -0.5765  -10.9926  -14.3667 C   0  0  2  0  0  0  0  0  0  0  0  0
    0.3390  -11.2339  -13.2936 N   0  0  0  0  0  0  0  0  0  0  0  0
   -2.0426  -12.0087  -11.6359 C   0  0  2  0  0  0  0  0  0  0  0  0
   -4.5570   -9.4185  -18.9668 C   0  0  2  0  0  0  0  0  0  0  0  0
   -3.6084   -8.5673  -19.6763 N   0  0  0  0  0  0  0  0  0  0  0  0
   -0.0389   -9.7907  -15.2352 C   0  0  0  0  0  0  0  0  0  0  0  0
   -2.5635  -13.4461  -11.3263 C   0  0  2  0  0  0  0  0  0  0  0  0
   -1.9708  -14.3578  -12.2353 O   0  0  0  0  0  0  0  0  0  0  0  0
   -5.8028   -8.5896  -18.4970 C   0  0  0  0  0  0  0  0  0  0  0  0
   -1.0526   -9.5288  -16.4315 C   0  0  2  0  0  0  0  0  0  0  0  0
   -0.5584   -8.3998  -17.2539 N   0  0  0  0  0  0  0  0  0  0  0  0
   -4.1464  -13.4172  -11.4987 C   0  0  1  0  0  0  0  0  0  0  0  0
   -4.7316  -14.7784  -11.2499 N   0  0  0  0  0  0  0  0  0  0  0  0
   -6.6730   -9.4124  -17.5035 C   0  0  0  0  0  0  0  0  0  0  0  0
   -2.4950   -9.1939  -15.8429 C   0  0  2  0  0  0  0  0  0  0  0  0
   -4.7809  -12.3594  -10.4350 C   0  0  1  0  0  0  0  0  0  0  0  0
   -4.4924  -12.7134   -9.0962 O   0  0  0  0  0  0  0  0  0  0  0  0
   -6.1637  -10.4661  -16.8478 C   0  0  2  0  0  0  0  0  0  0  0  0
   -4.8065  -10.9150  -17.0069 O   0  0  0  0  0  0  0  0  0  0  0  0
   -2.9916  -10.4091  -14.9527 C   0  0  2  0  0  0  0  0  0  0  0  0
   -4.2784  -10.1099  -14.3972 O   0  0  0  0  0  0  0  0  0  0  0  0
   -4.1734  -10.9394  -10.6937 C   0  0  0  0  0  0  0  0  0  0  0  0
   -2.6561  -11.0178  -10.6803 O   0  0  0  0  0  0  0  0  0  0  0  0
   -7.0132  -11.2978  -15.8586 C   0  0  0  0  0  0  0  0  0  0  0  0
   -7.4723  -12.5140  -16.5148 N   0  0  0  0  0  0  0  0  0  0  0  0
   -1.9782  -10.6562  -13.7772 C   0  0  1  0  0  0  0  0  0  0  0  0
   -2.4490  -11.7419  -13.0153 O   0  0  0  0  0  0  0  0  0  0  0  0
   -6.3106  -12.2086  -10.4755 C   0  0  0  0  0  0  0  0  0  0  0  0
   -5.9771  -15.0978  -11.9731 C   0  0  0  0  0  0  0  0  0  0  0  0
  1  2  1  1  0  0  0
  1  6  1  0  0  0  0
  1 21  1  0  0  0  0
  3  4  1  1  0  0  0
  3  8  1  0  0  0  0
  3 28  1  0  0  0  0
  5  9  1  0  0  0  0
  5 25  1  0  0  0  0
  5 29  1  6  0  0  0
  6  7  1  1  0  0  0
  6 11  1  0  0  0  0
  8 12  1  0  0  0  0
  9 10  1  6  0  0  0
  9 14  1  0  0  0  0
 11 16  1  0  0  0  0
 12 13  1  1  0  0  0
 12 17  1  0  0  0  0
 14 15  1  1  0  0  0
 14 18  1  0  0  0  0
 15 31  1  0  0  0  0
 16 20  1  0  0  0  0
 17  2  1  6  0  0  0
 17 22  1  0  0  0  0
 18 19  1  1  0  0  0
 18 24  1  0  0  0  0
 18 30  1  0  0  0  0
 20 21  1  0  0  0  0
 20 26  1  6  0  0  0
 22 23  1  1  0  0  0
 22 28  1  0  0  0  0
 24 25  1  0  0  0  0
 26 27  1  0  0  0  0
 28 29  1  6  0  0  0
M  END
>  <CHROM.1>
-169.05324219,-168.13110394,-150.76678496,73.65178308,100.07474504,81.00720167
-3.67042814,-11.13888842,-14.32567119,1.58683750,-0.25603253,-1.07702931

>  <Name>
ligand

>  <RI>
0

>  <Rbt.Current_Directory>
/home/itssahil/PROJECTS/Mol_Feturizer/New_Systems/rnas/4F8U

>  <Rbt.Executable>
rbdock ($Id: //depot/dev/client3/rdock/2013.1/src/exe/rbdock.cxx#4 $)

>  <Rbt.Library>
libRbt.so (2013.1, Build901 2013/11/27)

>  <Rbt.Parameter_File>
/export/apps/rDock/src/rDock_2013.1_src/data/scripts/dock_solv.prm

>  <Rbt.Receptor>
prm/pocket_docking_2.prm

>  <SCORE>
-7.44474

>  <SCORE.INTER>
-3.49355

>  <SCORE.INTER.CONST>
1

>  <SCORE.INTER.POLAR>
0

>  <SCORE.INTER.ROT>
6

>  <SCORE.INTER.SOLV>
20.3498

>  <SCORE.INTER.VDW>
-16.7123

>  <SCORE.INTER.norm>
-0.112695

>  <SCORE.INTRA>
-4.91778

>  <SCORE.INTRA.DIHEDRAL>
-11.9362

>  <SCORE.INTRA.DIHEDRAL.0>
18.77

>  <SCORE.INTRA.POLAR>
0

>  <SCORE.INTRA.POLAR.0>
0

>  <SCORE.INTRA.REPUL>
0

>  <SCORE.INTRA.REPUL.0>
0

>  <SCORE.INTRA.SOLV>
-0.589736

>  <SCORE.INTRA.SOLV.lig_0>
-77.2465

>  <SCORE.INTRA.VDW>
1.34518

>  <SCORE.INTRA.VDW.0>
-4.16072

>  <SCORE.INTRA.norm>
-0.158638

>  <SCORE.RESTR>
0.966592

>  <SCORE.RESTR.CAVITY>
0.966592

>  <SCORE.RESTR.norm>
0.0311804

>  <SCORE.SYSTEM>
0

>  <SCORE.SYSTEM.CONST>
0

>  <SCORE.SYSTEM.DIHEDRAL>
0

>  <SCORE.SYSTEM.SOLV>
0

>  <SCORE.SYSTEM.norm>
0

>  <SCORE.heavy>
31

>  <SCORE.norm>
-0.240153

>  <RMSD>
3.080

$$$$
ligand
 OpenBabel11021811493D
libRbt.so/2013.1/901 2013/11/27
 31 33  0  0  0  0  0  0  0  0999 V2000
   -7.2635  -12.7665  -17.8088 C   0  0  2  0  0  0  0  0  0  0  0  0
   -5.9901  -13.3710  -18.0722 O   0  0  0  0  0  0  0  0  0  0  0  0
   -2.4324  -13.7566  -15.7232 C   0  0  2  0  0  0  0  0  0  0  0  0
   -1.2277  -13.4135  -15.0311 N   0  0  0  0  0  0  0  0  0  0  0  0
   -2.7176  -13.1208  -12.7441 C   0  0  2  0  0  0  0  0  0  0  0  0
   -8.3118  -13.5498  -18.6745 C   0  0  2  0  0  0  0  0  0  0  0  0
   -8.2767  -14.9663  -18.3279 N   0  0  0  0  0  0  0  0  0  0  0  0
   -2.2626  -13.3998  -17.2502 C   0  0  0  0  0  0  0  0  0  0  0  0
   -3.2334  -13.8662  -11.4747 C   0  0  2  0  0  0  0  0  0  0  0  0
   -3.4317  -15.2336  -11.7908 O   0  0  0  0  0  0  0  0  0  0  0  0
   -8.0025  -13.3436  -20.1982 C   0  0  0  0  0  0  0  0  0  0  0  0
   -3.5985  -13.7887  -18.0192 C   0  0  2  0  0  0  0  0  0  0  0  0
   -3.4512  -13.4563  -19.4555 N   0  0  0  0  0  0  0  0  0  0  0  0
   -4.6038  -13.1746  -11.0505 C   0  0  1  0  0  0  0  0  0  0  0  0
   -5.1913  -13.8562   -9.8474 N   0  0  0  0  0  0  0  0  0  0  0  0
   -7.7562  -11.8402  -20.5149 C   0  0  0  0  0  0  0  0  0  0  0  0
   -4.8259  -12.9908  -17.3903 C   0  0  2  0  0  0  0  0  0  0  0  0
   -4.3256  -11.6094  -10.6963 C   0  0  1  0  0  0  0  0  0  0  0  0
   -3.4106  -11.4603   -9.6278 O   0  0  0  0  0  0  0  0  0  0  0  0
   -7.4301  -10.9738  -19.5439 C   0  0  2  0  0  0  0  0  0  0  0  0
   -7.2883  -11.3512  -18.1632 O   0  0  0  0  0  0  0  0  0  0  0  0
   -4.9493  -13.3500  -15.8504 C   0  0  2  0  0  0  0  0  0  0  0  0
   -6.0355  -12.6194  -15.2670 O   0  0  0  0  0  0  0  0  0  0  0  0
   -3.7146  -10.8967  -11.9497 C   0  0  0  0  0  0  0  0  0  0  0  0
   -2.4952  -11.6626  -12.4346 O   0  0  0  0  0  0  0  0  0  0  0  0
   -7.1841   -9.4757  -19.8382 C   0  0  0  0  0  0  0  0  0  0  0  0
   -5.8974   -9.0762  -19.2859 N   0  0  0  0  0  0  0  0  0  0  0  0
   -3.6210  -12.9619  -15.1057 C   0  0  1  0  0  0  0  0  0  0  0  0
   -3.7668  -13.2996  -13.7471 O   0  0  0  0  0  0  0  0  0  0  0  0
   -5.5566  -10.7926  -10.2697 C   0  0  0  0  0  0  0  0  0  0  0  0
   -6.3818  -14.6941  -10.0858 C   0  0  0  0  0  0  0  0  0  0  0  0
  1  2  1  6  0  0  0
  1  6  1  0  0  0  0
  1 21  1  0  0  0  0
  3  4  1  1  0  0  0
  3  8  1  0  0  0  0
  3 28  1  0  0  0  0
  5  9  1  0  0  0  0
  5 25  1  0  0  0  0
  5 29  1  6  0  0  0
  6  7  1  1  0  0  0
  6 11  1  0  0  0  0
  8 12  1  0  0  0  0
  9 10  1  6  0  0  0
  9 14  1  0  0  0  0
 11 16  1  0  0  0  0
 12 13  1  6  0  0  0
 12 17  1  0  0  0  0
 14 15  1  1  0  0  0
 14 18  1  0  0  0  0
 15 31  1  0  0  0  0
 16 20  1  0  0  0  0
 17  2  1  6  0  0  0
 17 22  1  0  0  0  0
 18 19  1  1  0  0  0
 18 24  1  0  0  0  0
 18 30  1  0  0  0  0
 20 21  1  0  0  0  0
 20 26  1  1  0  0  0
 22 23  1  1  0  0  0
 22 28  1  0  0  0  0
 24 25  1  0  0  0  0
 26 27  1  0  0  0  0
 28 29  1  1  0  0  0
M  END
>  <CHROM.1>
-175.08556378,-169.80672532,-107.21383815,-175.70804735,-127.75006645,58.93667748
-4.98888190,-12.70840782,-15.27968293,1.92152680,0.28758675,-1.59159818

>  <Name>
ligand

>  <RI>
0

>  <Rbt.Current_Directory>
/home/itssahil/PROJECTS/Mol_Feturizer/New_Systems/rnas/4F8U

>  <Rbt.Executable>
rbdock ($Id: //depot/dev/client3/rdock/2013.1/src/exe/rbdock.cxx#4 $)

>  <Rbt.Library>
libRbt.so (2013.1, Build901 2013/11/27)

>  <Rbt.Parameter_File>
/export/apps/rDock/src/rDock_2013.1_src/data/scripts/dock_solv.prm

>  <Rbt.Receptor>
prm/pocket_docking_5.prm

>  <SCORE>
-14.3851

>  <SCORE.INTER>
-7.31703

>  <SCORE.INTER.CONST>
1

>  <SCORE.INTER.POLAR>
0

>  <SCORE.INTER.ROT>
6

>  <SCORE.INTER.SOLV>
10.9131

>  <SCORE.INTER.VDW>
-16.1157

>  <SCORE.INTER.norm>
-0.236033

>  <SCORE.INTRA>
-7.06808

>  <SCORE.INTRA.DIHEDRAL>
-15.2209

>  <SCORE.INTRA.DIHEDRAL.0>
18.77

>  <SCORE.INTRA.POLAR>
0

>  <SCORE.INTRA.POLAR.0>
0

>  <SCORE.INTRA.REPUL>
0

>  <SCORE.INTRA.REPUL.0>
0

>  <SCORE.INTRA.SOLV>
-1.66094

>  <SCORE.INTRA.SOLV.lig_0>
-77.2465

>  <SCORE.INTRA.VDW>
1.37286

>  <SCORE.INTRA.VDW.0>
-4.16072

>  <SCORE.INTRA.norm>
-0.228003

>  <SCORE.RESTR>
0

>  <SCORE.RESTR.CAVITY>
0

>  <SCORE.RESTR.norm>
0

>  <SCORE.SYSTEM>
0

>  <SCORE.SYSTEM.CONST>
0

>  <SCORE.SYSTEM.DIHEDRAL>
0

>  <SCORE.SYSTEM.SOLV>
0

>  <SCORE.SYSTEM.norm>
0

>  <SCORE.heavy>
31

>  <SCORE.norm>
-0.464036

>  <RMSD>
3.085

$$$$
ligand
 OpenBabel11021811493D
libRbt.so/2013.1/901 2013/11/27
 31 33  0  0  0  0  0  0  0  0999 V2000
   -3.8767  -10.1259  -17.7270 C   0  0  2  0  0  0  0  0  0  0  0  0
   -3.4139   -9.0481  -16.9021 O   0  0  0  0  0  0  0  0  0  0  0  0
   -0.5867  -11.0395  -14.3792 C   0  0  2  0  0  0  0  0  0  0  0  0
    0.3351  -11.2801  -13.3113 N   0  0  0  0  0  0  0  0  0  0  0  0
   -2.0182  -12.1139  -11.6615 C   0  0  2  0  0  0  0  0  0  0  0  0
   -4.5594   -9.4648  -18.9756 C   0  0  2  0  0  0  0  0  0  0  0  0
   -3.6037   -8.6006  -19.6594 N   0  0  0  0  0  0  0  0  0  0  0  0
   -0.0676   -9.8213  -15.2362 C   0  0  0  0  0  0  0  0  0  0  0  0
   -2.5849  -13.5319  -11.3433 C   0  0  2  0  0  0  0  0  0  0  0  0
   -2.0466  -14.4622  -12.2672 O   0  0  0  0  0  0  0  0  0  0  0  0
   -5.8195   -8.6488  -18.5219 C   0  0  0  0  0  0  0  0  0  0  0  0
   -1.0882   -9.5600  -16.4268 C   0  0  2  0  0  0  0  0  0  0  0  0
   -0.6114   -8.4158  -17.2383 N   0  0  0  0  0  0  0  0  0  0  0  0
   -4.1691  -13.4441  -11.4801 C   0  0  1  0  0  0  0  0  0  0  0  0
   -4.7985  -14.7836  -11.2211 N   0  0  0  0  0  0  0  0  0  0  0  0
   -6.7024   -9.4866  -17.5523 C   0  0  0  0  0  0  0  0  0  0  0  0
   -2.5332   -9.2508  -15.8306 C   0  0  2  0  0  0  0  0  0  0  0  0
   -4.7402  -12.3667  -10.4003 C   0  0  1  0  0  0  0  0  0  0  0  0
   -4.4352  -12.7351   -9.0690 O   0  0  0  0  0  0  0  0  0  0  0  0
   -6.1981  -10.5428  -16.8967 C   0  0  2  0  0  0  0  0  0  0  0  0
   -4.8350  -10.9809  -17.0343 O   0  0  0  0  0  0  0  0  0  0  0  0
   -3.0110  -10.4820  -14.9523 C   0  0  2  0  0  0  0  0  0  0  0  0
   -4.3000  -10.2060  -14.3900 O   0  0  0  0  0  0  0  0  0  0  0  0
   -4.0866  -10.9694  -10.6696 C   0  0  0  0  0  0  0  0  0  0  0  0
   -2.5732  -11.1038  -10.6904 O   0  0  0  0  0  0  0  0  0  0  0  0
   -7.0600  -11.3893  -15.9313 C   0  0  0  0  0  0  0  0  0  0  0  0
   -7.4677  -12.6198  -16.5947 N   0  0  0  0  0  0  0  0  0  0  0  0
   -1.9911  -10.7282  -13.7823 C   0  0  1  0  0  0  0  0  0  0  0  0
   -2.4451  -11.8283  -13.0308 O   0  0  0  0  0  0  0  0  0  0  0  0
   -6.2638  -12.1595  -10.4062 C   0  0  0  0  0  0  0  0  0  0  0  0
   -6.0131  -15.0973  -11.9973 C   0  0  0  0  0  0  0  0  0  0  0  0
  1  2  1  1  0  0  0
  1  6  1  0  0  0  0
  1 21  1  0  0  0  0
  3  4  1  1  0  0  0
  3  8  1  0  0  0  0
  3 28  1  0  0  0  0
  5  9  1  0  0  0  0
  5 25  1  0  0  0  0
  5 29  1  6  0  0  0
  6  7  1  1  0  0  0
  6 11  1  0  0  0  0
  8 12  1  0  0  0  0
  9 10  1  6  0  0  0
  9 14  1  0  0  0  0
 11 16  1  0  0  0  0
 12 13  1  1  0  0  0
 12 17  1  0  0  0  0
 14 15  1  1  0  0  0
 14 18  1  0  0  0  0
 15 31  1  0  0  0  0
 16 20  1  0  0  0  0
 17  2  1  6  0  0  0
 17 22  1  0  0  0  0
 18 19  1  1  0  0  0
 18 24  1  0  0  0  0
 18 30  1  0  0  0  0
 20 21  1  0  0  0  0
 20 26  1  6  0  0  0
 22 23  1  1  0  0  0
 22 28  1  0  0  0  0
 24 25  1  0  0  0  0
 26 27  1  0  0  0  0
 28 29  1  6  0  0  0
M  END
>  <CHROM.1>
-167.53680333,-170.73175104,-146.10330022,73.00390239,101.62784186,80.19835637
-3.68044366,-11.19213036,-14.33199819,1.59777905,-0.26601935,-1.08009439

>  <Name>
ligand

>  <RI>
0

>  <Rbt.Current_Directory>
/home/itssahil/PROJECTS/Mol_Feturizer/New_Systems/rnas/4F8U

>  <Rbt.Executable>
rbdock ($Id: //depot/dev/client3/rdock/2013.1/src/exe/rbdock.cxx#4 $)

>  <Rbt.Library>
libRbt.so (2013.1, Build901 2013/11/27)

>  <Rbt.Parameter_File>
/export/apps/rDock/src/rDock_2013.1_src/data/scripts/dock_solv.prm

>  <Rbt.Receptor>
prm/pocket_docking_2.prm

>  <SCORE>
-7.55947

>  <SCORE.INTER>
-3.24183

>  <SCORE.INTER.CONST>
1

>  <SCORE.INTER.POLAR>
0

>  <SCORE.INTER.ROT>
6

>  <SCORE.INTER.SOLV>
20.1101

>  <SCORE.INTER.VDW>
-16.4646

>  <SCORE.INTER.norm>
-0.104575

>  <SCORE.INTRA>
-5.31838

>  <SCORE.INTRA.DIHEDRAL>
-12.1621

>  <SCORE.INTRA.DIHEDRAL.0>
18.77

>  <SCORE.INTRA.POLAR>
0

>  <SCORE.INTRA.POLAR.0>
0

>  <SCORE.INTRA.REPUL>
0

>  <SCORE.INTRA.REPUL.0>
0

>  <SCORE.INTRA.SOLV>
-0.533985

>  <SCORE.INTRA.SOLV.lig_0>
-77.2465

>  <SCORE.INTRA.VDW>
1.02965

>  <SCORE.INTRA.VDW.0>
-4.16072

>  <SCORE.INTRA.norm>
-0.171561

>  <SCORE.RESTR>
1.00073

>  <SCORE.RESTR.CAVITY>
1.00073

>  <SCORE.RESTR.norm>
0.0322818

>  <SCORE.SYSTEM>
0

>  <SCORE.SYSTEM.CONST>
0

>  <SCORE.SYSTEM.DIHEDRAL>
0

>  <SCORE.SYSTEM.SOLV>
0

>  <SCORE.SYSTEM.norm>
0

>  <SCORE.heavy>
31

>  <SCORE.norm>
-0.243854

>  <RMSD>
3.091

$$$$
ligand
 OpenBabel11021811493D
libRbt.so/2013.1/901 2013/11/27
 31 33  0  0  0  0  0  0  0  0999 V2000
   -5.6041   -9.9892  -18.4169 C   0  0  2  0  0  0  0  0  0  0  0  0
   -4.9377  -11.1131  -17.8259 O   0  0  0  0  0  0  0  0  0  0  0  0
   -0.8617  -11.9029  -16.7837 C   0  0  2  0  0  0  0  0  0  0  0  0
    0.4120  -11.7974  -16.1399 N   0  0  0  0  0  0  0  0  0  0  0  0
   -0.5299  -13.6340  -14.1747 C   0  0  2  0  0  0  0  0  0  0  0  0
   -6.9564   -9.8187  -17.6396 C   0  0  2  0  0  0  0  0  0  0  0  0
   -6.6872   -9.6321  -16.2181 N   0  0  0  0  0  0  0  0  0  0  0  0
   -1.1759  -10.5431  -17.5186 C   0  0  0  0  0  0  0  0  0  0  0  0
   -0.7876  -15.0151  -13.4971 C   0  0  2  0  0  0  0  0  0  0  0  0
   -0.8496  -16.0163  -14.4984 O   0  0  0  0  0  0  0  0  0  0  0  0
   -7.8646  -11.0760  -17.8719 C   0  0  0  0  0  0  0  0  0  0  0  0
   -2.5874  -10.6643  -18.2399 C   0  0  2  0  0  0  0  0  0  0  0  0
   -2.8942   -9.3912  -18.9329 N   0  0  0  0  0  0  0  0  0  0  0  0
   -2.1716  -14.9025  -12.7171 C   0  0  1  0  0  0  0  0  0  0  0  0
   -2.5162  -16.2078  -12.0578 N   0  0  0  0  0  0  0  0  0  0  0  0
   -7.9204  -11.4476  -19.3820 C   0  0  0  0  0  0  0  0  0  0  0  0
   -3.7113  -10.9897  -17.1584 C   0  0  2  0  0  0  0  0  0  0  0  0
   -2.0512  -13.7435  -11.5791 C   0  0  1  0  0  0  0  0  0  0  0  0
   -1.0378  -14.0289  -10.6343 O   0  0  0  0  0  0  0  0  0  0  0  0
   -6.9801  -11.0148  -20.2353 C   0  0  2  0  0  0  0  0  0  0  0  0
   -5.8719  -10.1887  -19.8373 O   0  0  0  0  0  0  0  0  0  0  0  0
   -3.3492  -12.3456  -16.4195 C   0  0  2  0  0  0  0  0  0  0  0  0
   -4.3406  -12.6370  -15.4264 O   0  0  0  0  0  0  0  0  0  0  0  0
   -1.6936  -12.3816  -12.2644 C   0  0  0  0  0  0  0  0  0  0  0  0
   -0.4565  -12.5497  -13.1305 O   0  0  0  0  0  0  0  0  0  0  0  0
   -7.0196  -11.3710  -21.7397 C   0  0  0  0  0  0  0  0  0  0  0  0
   -7.2298  -10.1604  -22.5211 N   0  0  0  0  0  0  0  0  0  0  0  0
   -1.9514  -12.2101  -15.7142 C   0  0  1  0  0  0  0  0  0  0  0  0
   -1.6636  -13.4311  -15.0761 O   0  0  0  0  0  0  0  0  0  0  0  0
   -3.3134  -13.5043  -10.7340 C   0  0  0  0  0  0  0  0  0  0  0  0
   -3.4169  -17.1028  -12.8087 C   0  0  0  0  0  0  0  0  0  0  0  0
  1  2  1  1  0  0  0
  1  6  1  0  0  0  0
  1 21  1  0  0  0  0
  3  4  1  1  0  0  0
  3  8  1  0  0  0  0
  3 28  1  0  0  0  0
  5  9  1  0  0  0  0
  5 25  1  0  0  0  0
  5 29  1  6  0  0  0
  6  7  1  1  0  0  0
  6 11  1  0  0  0  0
  8 12  1  0  0  0  0
  9 10  1  6  0  0  0
  9 14  1  0  0  0  0
 11 16  1  0  0  0  0
 12 13  1  1  0  0  0
 12 17  1  0  0  0  0
 14 15  1  1  0  0  0
 14 18  1  0  0  0  0
 15 31  1  0  0  0  0
 16 20  1  0  0  0  0
 17  2  1  6  0  0  0
 17 22  1  0  0  0  0
 18 19  1  1  0  0  0
 18 24  1  0  0  0  0
 18 30  1  0  0  0  0
 20 21  1  0  0  0  0
 20 26  1  6  0  0  0
 22 23  1  1  0  0  0
 22 28  1  0  0  0  0
 24 25  1  0  0  0  0
 26 27  1  0  0  0  0
 28 29  1  6  0  0  0
M  END
>  <CHROM.1>
-116.20397328,168.60328089,-95.60343808,-69.72147802,114.51436195,68.87519588
-3.47342088,-12.31559968,-16.00223833,2.11321624,-0.13045930,-0.98695592

>  <Name>
ligand

>  <RI>
0

>  <Rbt.Current_Directory>
/home/itssahil/PROJECTS/Mol_Feturizer/New_Systems/rnas/4F8U

>  <Rbt.Executable>
rbdock ($Id: //depot/dev/client3/rdock/2013.1/src/exe/rbdock.cxx#4 $)

>  <Rbt.Library>
libRbt.so (2013.1, Build901 2013/11/27)

>  <Rbt.Parameter_File>
/export/apps/rDock/src/rDock_2013.1_src/data/scripts/dock_solv.prm

>  <Rbt.Receptor>
prm/pocket_docking_5.prm

>  <SCORE>
-8.83842

>  <SCORE.INTER>
-6.26493

>  <SCORE.INTER.CONST>
1

>  <SCORE.INTER.POLAR>
0

>  <SCORE.INTER.ROT>
6

>  <SCORE.INTER.SOLV>
18.7202

>  <SCORE.INTER.VDW>
-18.0167

>  <SCORE.INTER.norm>
-0.202095

>  <SCORE.INTRA>
-2.57349

>  <SCORE.INTRA.DIHEDRAL>
-7.68306

>  <SCORE.INTRA.DIHEDRAL.0>
18.77

>  <SCORE.INTRA.POLAR>
0

>  <SCORE.INTRA.POLAR.0>
0

>  <SCORE.INTRA.REPUL>
0

>  <SCORE.INTRA.REPUL.0>
0

>  <SCORE.INTRA.SOLV>
0.517926

>  <SCORE.INTRA.SOLV.lig_0>
-77.2465

>  <SCORE.INTRA.VDW>
1.00908

>  <SCORE.INTRA.VDW.0>
-4.16072

>  <SCORE.INTRA.norm>
-0.0830157

>  <SCORE.RESTR>
0

>  <SCORE.RESTR.CAVITY>
0

>  <SCORE.RESTR.norm>
0

>  <SCORE.SYSTEM>
0

>  <SCORE.SYSTEM.CONST>
0

>  <SCORE.SYSTEM.DIHEDRAL>
0

>  <SCORE.SYSTEM.SOLV>
0

>  <SCORE.SYSTEM.norm>
0

>  <SCORE.heavy>
31

>  <SCORE.norm>
-0.28511

>  <RMSD>
3.092

$$$$
ligand
 OpenBabel11021811493D
libRbt.so/2013.1/901 2013/11/27
 31 33  0  0  0  0  0  0  0  0999 V2000
   -5.2212  -10.0790  -18.9958 C   0  0  2  0  0  0  0  0  0  0  0  0
   -5.1783   -9.1819  -17.8778 O   0  0  0  0  0  0  0  0  0  0  0  0
   -2.1800  -10.6921  -15.2220 C   0  0  2  0  0  0  0  0  0  0  0  0
   -1.0813  -10.7262  -14.3057 N   0  0  0  0  0  0  0  0  0  0  0  0
   -4.6186  -11.6420  -13.3384 C   0  0  2  0  0  0  0  0  0  0  0  0
   -6.4387   -9.6285  -19.8771 C   0  0  2  0  0  0  0  0  0  0  0  0
   -6.2687   -8.2359  -20.2768 N   0  0  0  0  0  0  0  0  0  0  0  0
   -1.6951  -10.0437  -16.5756 C   0  0  0  0  0  0  0  0  0  0  0  0
   -4.8865  -11.8746  -11.8194 C   0  0  2  0  0  0  0  0  0  0  0  0
   -5.5355  -10.7335  -11.2850 O   0  0  0  0  0  0  0  0  0  0  0  0
   -7.7733   -9.8165  -19.0750 C   0  0  0  0  0  0  0  0  0  0  0  0
   -2.9143  -10.0136  -17.5954 C   0  0  2  0  0  0  0  0  0  0  0  0
   -2.4708   -9.4045  -18.8711 N   0  0  0  0  0  0  0  0  0  0  0  0
   -3.4720  -12.1036  -11.1245 C   0  0  1  0  0  0  0  0  0  0  0  0
   -3.6347  -12.3038   -9.6444 N   0  0  0  0  0  0  0  0  0  0  0  0
   -7.8236  -11.2200  -18.4047 C   0  0  0  0  0  0  0  0  0  0  0  0
   -4.1122   -9.1710  -16.9677 C   0  0  2  0  0  0  0  0  0  0  0  0
   -2.7671  -13.4231  -11.7688 C   0  0  1  0  0  0  0  0  0  0  0  0
   -3.5441  -14.5892  -11.5754 O   0  0  0  0  0  0  0  0  0  0  0  0
   -6.7035  -11.9302  -18.2036 C   0  0  2  0  0  0  0  0  0  0  0  0
   -5.3957  -11.4681  -18.5843 O   0  0  0  0  0  0  0  0  0  0  0  0
   -4.5545   -9.8328  -15.5958 C   0  0  2  0  0  0  0  0  0  0  0  0
   -5.6159   -9.0696  -15.0086 O   0  0  0  0  0  0  0  0  0  0  0  0
   -2.5951  -13.2157  -13.3114 C   0  0  0  0  0  0  0  0  0  0  0  0
   -3.9305  -12.8436  -13.9334 O   0  0  0  0  0  0  0  0  0  0  0  0
   -6.7333  -13.3276  -17.5416 C   0  0  0  0  0  0  0  0  0  0  0  0
   -8.0612  -13.5816  -17.0007 N   0  0  0  0  0  0  0  0  0  0  0  0
   -3.3385   -9.8570  -14.6006 C   0  0  1  0  0  0  0  0  0  0  0  0
   -3.7675  -10.4543  -13.4006 O   0  0  0  0  0  0  0  0  0  0  0  0
   -1.3820  -13.7819  -11.2057 C   0  0  0  0  0  0  0  0  0  0  0  0
   -4.6538  -13.2843   -9.2246 C   0  0  0  0  0  0  0  0  0  0  0  0
  1  2  1  1  0  0  0
  1  6  1  0  0  0  0
  1 21  1  0  0  0  0
  3  4  1  1  0  0  0
  3  8  1  0  0  0  0
  3 28  1  0  0  0  0
  5  9  1  0  0  0  0
  5 25  1  0  0  0  0
  5 29  1  1  0  0  0
  6  7  1  1  0  0  0
  6 11  1  0  0  0  0
  8 12  1  0  0  0  0
  9 10  1  1  0  0  0
  9 14  1  0  0  0  0
 11 16  1  0  0  0  0
 12 13  1  6  0  0  0
 12 17  1  0  0  0  0
 14 15  1  1  0  0  0
 14 18  1  0  0  0  0
 15 31  1  0  0  0  0
 16 20  1  0  0  0  0
 17  2  1  6  0  0  0
 17 22  1  0  0  0  0
 18 19  1  1  0  0  0
 18 24  1  0  0  0  0
 18 30  1  0  0  0  0
 20 21  1  0  0  0  0
 20 26  1  6  0  0  0
 22 23  1  1  0  0  0
 22 28  1  0  0  0  0
 24 25  1  0  0  0  0
 26 27  1  0  0  0  0
 28 29  1  1  0  0  0
M  END
>  <CHROM.1>
-171.40444571,-176.90312142,48.96967960,13.30869951,-9.92646691,-77.03670082
-4.47330072,-11.22557120,-15.18958429,-1.90094905,0.42217393,2.04767101

>  <Name>
ligand

>  <RI>
0

>  <Rbt.Current_Directory>
/home/itssahil/PROJECTS/Mol_Feturizer/New_Systems/rnas/4F8U

>  <Rbt.Executable>
rbdock ($Id: //depot/dev/client3/rdock/2013.1/src/exe/rbdock.cxx#4 $)

>  <Rbt.Library>
libRbt.so (2013.1, Build901 2013/11/27)

>  <Rbt.Parameter_File>
/export/apps/rDock/src/rDock_2013.1_src/data/scripts/dock_solv.prm

>  <Rbt.Receptor>
prm/pocket_docking_2.prm

>  <SCORE>
0.953244

>  <SCORE.INTER>
-2.16075

>  <SCORE.INTER.CONST>
1

>  <SCORE.INTER.POLAR>
0

>  <SCORE.INTER.ROT>
6

>  <SCORE.INTER.SOLV>
17.399

>  <SCORE.INTER.VDW>
-14.8402

>  <SCORE.INTER.norm>
-0.0697017

>  <SCORE.INTRA>
1.64355

>  <SCORE.INTRA.DIHEDRAL>
-8.75662

>  <SCORE.INTRA.DIHEDRAL.0>
18.77

>  <SCORE.INTRA.POLAR>
0

>  <SCORE.INTRA.POLAR.0>
0

>  <SCORE.INTRA.REPUL>
0

>  <SCORE.INTRA.REPUL.0>
0

>  <SCORE.INTRA.SOLV>
1.19487

>  <SCORE.INTRA.SOLV.lig_0>
-77.2465

>  <SCORE.INTRA.VDW>
5.42442

>  <SCORE.INTRA.VDW.0>
-4.16072

>  <SCORE.INTRA.norm>
0.0530177

>  <SCORE.RESTR>
1.47045

>  <SCORE.RESTR.CAVITY>
1.47045

>  <SCORE.RESTR.norm>
0.0474338

>  <SCORE.SYSTEM>
0

>  <SCORE.SYSTEM.CONST>
0

>  <SCORE.SYSTEM.DIHEDRAL>
0

>  <SCORE.SYSTEM.SOLV>
0

>  <SCORE.SYSTEM.norm>
0

>  <SCORE.heavy>
31

>  <SCORE.norm>
0.0307498

>  <RMSD>
3.115

$$$$
ligand
 OpenBabel11021811493D
libRbt.so/2013.1/901 2013/11/27
 31 33  0  0  0  0  0  0  0  0999 V2000
   -7.1762  -12.6385  -17.9202 C   0  0  2  0  0  0  0  0  0  0  0  0
   -5.9672  -13.3720  -18.1583 O   0  0  0  0  0  0  0  0  0  0  0  0
   -2.3088  -13.8730  -15.9930 C   0  0  2  0  0  0  0  0  0  0  0  0
   -1.0549  -13.5714  -15.3726 N   0  0  0  0  0  0  0  0  0  0  0  0
   -2.4406  -13.0749  -12.9970 C   0  0  2  0  0  0  0  0  0  0  0  0
   -8.3175  -13.4133  -18.6681 C   0  0  2  0  0  0  0  0  0  0  0  0
   -8.3839  -14.7857  -18.1782 N   0  0  0  0  0  0  0  0  0  0  0  0
   -2.2058  -13.5515  -17.5338 C   0  0  0  0  0  0  0  0  0  0  0  0
   -2.9001  -13.7761  -11.6816 C   0  0  2  0  0  0  0  0  0  0  0  0
   -3.0738  -15.1602  -11.9325 O   0  0  0  0  0  0  0  0  0  0  0  0
   -8.0518  -13.3881  -20.2136 C   0  0  0  0  0  0  0  0  0  0  0  0
   -3.5966  -13.8945  -18.2232 C   0  0  2  0  0  0  0  0  0  0  0  0
   -3.5123  -13.5947  -19.6717 N   0  0  0  0  0  0  0  0  0  0  0  0
   -4.2741  -13.0989  -11.2459 C   0  0  1  0  0  0  0  0  0  0  0  0
   -4.8089  -13.7409   -9.9972 N   0  0  0  0  0  0  0  0  0  0  0  0
   -7.6970  -11.9504  -20.6914 C   0  0  0  0  0  0  0  0  0  0  0  0
   -4.7528  -13.0317  -17.5466 C   0  0  2  0  0  0  0  0  0  0  0  0
   -4.0244  -11.5136  -10.9679 C   0  0  1  0  0  0  0  0  0  0  0  0
   -3.0823  -11.2966   -9.9353 O   0  0  0  0  0  0  0  0  0  0  0  0
   -7.2642  -11.0216  -19.8254 C   0  0  2  0  0  0  0  0  0  0  0  0
   -7.0998  -11.2690  -18.4181 O   0  0  0  0  0  0  0  0  0  0  0  0
   -4.8089  -13.3574  -15.9954 C   0  0  2  0  0  0  0  0  0  0  0  0
   -5.8295  -12.5690  -15.3704 O   0  0  0  0  0  0  0  0  0  0  0  0
   -3.4685  -10.8422  -12.2688 C   0  0  0  0  0  0  0  0  0  0  0  0
   -2.2454  -11.5998  -12.7574 O   0  0  0  0  0  0  0  0  0  0  0  0
   -6.9092   -9.5868  -20.2803 C   0  0  0  0  0  0  0  0  0  0  0  0
   -7.1621   -9.4524  -21.7081 N   0  0  0  0  0  0  0  0  0  0  0  0
   -3.4270  -13.0154  -15.3298 C   0  0  1  0  0  0  0  0  0  0  0  0
   -3.5142  -13.3220  -13.9589 O   0  0  0  0  0  0  0  0  0  0  0  0
   -5.2622  -10.7081  -10.5394 C   0  0  0  0  0  0  0  0  0  0  0  0
   -6.0885  -14.4631  -10.1287 C   0  0  0  0  0  0  0  0  0  0  0  0
  1  2  1  6  0  0  0
  1  6  1  0  0  0  0
  1 21  1  0  0  0  0
  3  4  1  1  0  0  0
  3  8  1  0  0  0  0
  3 28  1  0  0  0  0
  5  9  1  0  0  0  0
  5 25  1  0  0  0  0
  5 29  1  6  0  0  0
  6  7  1  1  0  0  0
  6 11  1  0  0  0  0
  8 12  1  0  0  0  0
  9 10  1  6  0  0  0
  9 14  1  0  0  0  0
 11 16  1  0  0  0  0
 12 13  1  6  0  0  0
 12 17  1  0  0  0  0
 14 15  1  1  0  0  0
 14 18  1  0  0  0  0
 15 31  1  0  0  0  0
 16 20  1  0  0  0  0
 17  2  1  6  0  0  0
 17 22  1  0  0  0  0
 18 19  1  1  0  0  0
 18 24  1  0  0  0  0
 18 30  1  0  0  0  0
 20 21  1  0  0  0  0
 20 26  1  1  0  0  0
 22 23  1  1  0  0  0
 22 28  1  0  0  0  0
 24 25  1  0  0  0  0
 26 27  1  0  0  0  0
 28 29  1  1  0  0  0
M  END
>  <CHROM.1>
-174.55734919,-171.15652063,-115.36526477,-170.63681799,1.73097279,63.89021918
-4.85971688,-12.70057052,-15.54591617,1.96166462,0.32887432,-1.61529749

>  <Name>
ligand

>  <RI>
0

>  <Rbt.Current_Directory>
/home/itssahil/PROJECTS/Mol_Feturizer/New_Systems/rnas/4F8U

>  <Rbt.Executable>
rbdock ($Id: //depot/dev/client3/rdock/2013.1/src/exe/rbdock.cxx#4 $)

>  <Rbt.Library>
libRbt.so (2013.1, Build901 2013/11/27)

>  <Rbt.Parameter_File>
/export/apps/rDock/src/rDock_2013.1_src/data/scripts/dock_solv.prm

>  <Rbt.Receptor>
prm/pocket_docking_6.prm

>  <SCORE>
-13.2351

>  <SCORE.INTER>
-6.87589

>  <SCORE.INTER.CONST>
1

>  <SCORE.INTER.POLAR>
0

>  <SCORE.INTER.ROT>
6

>  <SCORE.INTER.SOLV>
12.6693

>  <SCORE.INTER.VDW>
-16.407

>  <SCORE.INTER.norm>
-0.221803

>  <SCORE.INTRA>
-6.35917

>  <SCORE.INTRA.DIHEDRAL>
-14.8765

>  <SCORE.INTRA.DIHEDRAL.0>
18.77

>  <SCORE.INTRA.POLAR>
0

>  <SCORE.INTRA.POLAR.0>
0

>  <SCORE.INTRA.REPUL>
0

>  <SCORE.INTRA.REPUL.0>
0

>  <SCORE.INTRA.SOLV>
-1.6961

>  <SCORE.INTRA.SOLV.lig_0>
-77.2465

>  <SCORE.INTRA.VDW>
1.92714

>  <SCORE.INTRA.VDW.0>
-4.16072

>  <SCORE.INTRA.norm>
-0.205135

>  <SCORE.RESTR>
0

>  <SCORE.RESTR.CAVITY>
0

>  <SCORE.RESTR.norm>
0

>  <SCORE.SYSTEM>
0

>  <SCORE.SYSTEM.CONST>
0

>  <SCORE.SYSTEM.DIHEDRAL>
0

>  <SCORE.SYSTEM.SOLV>
0

>  <SCORE.SYSTEM.norm>
0

>  <SCORE.heavy>
31

>  <SCORE.norm>
-0.426938

>  <RMSD>
3.125

$$$$
ligand
 OpenBabel11021811493D
libRbt.so/2013.1/901 2013/11/27
 31 33  0  0  0  0  0  0  0  0999 V2000
   -4.1558  -10.2146  -18.1404 C   0  0  2  0  0  0  0  0  0  0  0  0
   -3.8955   -9.3187  -17.0512 O   0  0  0  0  0  0  0  0  0  0  0  0
   -0.7672  -11.3986  -14.9990 C   0  0  2  0  0  0  0  0  0  0  0  0
    0.2433  -11.7040  -14.0328 N   0  0  0  0  0  0  0  0  0  0  0  0
   -1.8373  -12.9710  -12.4232 C   0  0  2  0  0  0  0  0  0  0  0  0
   -5.2082   -9.4995  -19.0585 C   0  0  2  0  0  0  0  0  0  0  0  0
   -4.6829   -8.2121  -19.4996 N   0  0  0  0  0  0  0  0  0  0  0  0
   -0.3935  -10.0449  -15.7172 C   0  0  0  0  0  0  0  0  0  0  0  0
   -2.7575  -14.1233  -11.9146 C   0  0  2  0  0  0  0  0  0  0  0  0
   -2.8186  -15.1362  -12.9040 O   0  0  0  0  0  0  0  0  0  0  0  0
   -6.5544   -9.3109  -18.2761 C   0  0  0  0  0  0  0  0  0  0  0  0
   -1.5126   -9.7108  -16.7957 C   0  0  2  0  0  0  0  0  0  0  0  0
   -1.1729   -8.4393  -17.4762 N   0  0  0  0  0  0  0  0  0  0  0  0
   -4.1966  -13.4926  -11.6548 C   0  0  1  0  0  0  0  0  0  0  0  0
   -5.1614  -14.5468  -11.1911 N   0  0  0  0  0  0  0  0  0  0  0  0
   -6.9695  -10.6297  -17.5621 C   0  0  0  0  0  0  0  0  0  0  0  0
   -2.9280   -9.5903  -16.0739 C   0  0  2  0  0  0  0  0  0  0  0  0
   -4.0760  -12.3378  -10.5125 C   0  0  1  0  0  0  0  0  0  0  0  0
   -3.5948  -12.8514   -9.2855 O   0  0  0  0  0  0  0  0  0  0  0  0
   -6.0709  -11.5953  -17.3171 C   0  0  2  0  0  0  0  0  0  0  0  0
   -4.6847  -11.4970  -17.6878 O   0  0  0  0  0  0  0  0  0  0  0  0
   -3.2582  -10.9564  -15.3389 C   0  0  2  0  0  0  0  0  0  0  0  0
   -4.5187  -10.8527  -14.6648 O   0  0  0  0  0  0  0  0  0  0  0  0
   -3.0719  -11.2370  -10.9946 C   0  0  0  0  0  0  0  0  0  0  0  0
   -1.7522  -11.8797  -11.3872 O   0  0  0  0  0  0  0  0  0  0  0  0
   -6.4645  -12.9138  -16.6112 C   0  0  0  0  0  0  0  0  0  0  0  0
   -7.9128  -12.9792  -16.4750 N   0  0  0  0  0  0  0  0  0  0  0  0
   -2.1423  -11.2731  -14.2787 C   0  0  1  0  0  0  0  0  0  0  0  0
   -2.4667  -12.4915  -13.6531 O   0  0  0  0  0  0  0  0  0  0  0  0
   -5.3867  -11.6220  -10.1462 C   0  0  0  0  0  0  0  0  0  0  0  0
   -6.4222  -14.6592  -11.9487 C   0  0  0  0  0  0  0  0  0  0  0  0
  1  2  1  1  0  0  0
  1  6  1  0  0  0  0
  1 21  1  0  0  0  0
  3  4  1  1  0  0  0
  3  8  1  0  0  0  0
  3 28  1  0  0  0  0
  5  9  1  0  0  0  0
  5 25  1  0  0  0  0
  5 29  1  6  0  0  0
  6  7  1  1  0  0  0
  6 11  1  0  0  0  0
  8 12  1  0  0  0  0
  9 10  1  6  0  0  0
  9 14  1  0  0  0  0
 11 16  1  0  0  0  0
 12 13  1  1  0  0  0
 12 17  1  0  0  0  0
 14 15  1  1  0  0  0
 14 18  1  0  0  0  0
 15 31  1  0  0  0  0
 16 20  1  0  0  0  0
 17  2  1  6  0  0  0
 17 22  1  0  0  0  0
 18 19  1  1  0  0  0
 18 24  1  0  0  0  0
 18 30  1  0  0  0  0
 20 21  1  0  0  0  0
 20 26  1  6  0  0  0
 22 23  1  1  0  0  0
 22 28  1  0  0  0  0
 24 25  1  0  0  0  0
 26 27  1  0  0  0  0
 28 29  1  6  0  0  0
M  END
>  <CHROM.1>
-175.53035935,165.15273810,-126.75871878,60.42908820,8.40229409,74.62279329
-3.77279602,-11.55526453,-14.63932128,-1.71209320,0.32099306,2.07508564

>  <Name>
ligand

>  <RI>
0

>  <Rbt.Current_Directory>
/home/itssahil/PROJECTS/Mol_Feturizer/New_Systems/rnas/4F8U

>  <Rbt.Executable>
rbdock ($Id: //depot/dev/client3/rdock/2013.1/src/exe/rbdock.cxx#4 $)

>  <Rbt.Library>
libRbt.so (2013.1, Build901 2013/11/27)

>  <Rbt.Parameter_File>
/export/apps/rDock/src/rDock_2013.1_src/data/scripts/dock_solv.prm

>  <Rbt.Receptor>
prm/pocket_docking_3.prm

>  <SCORE>
-8.01965

>  <SCORE.INTER>
-2.2795

>  <SCORE.INTER.CONST>
1

>  <SCORE.INTER.POLAR>
0

>  <SCORE.INTER.ROT>
6

>  <SCORE.INTER.SOLV>
15.5126

>  <SCORE.INTER.VDW>
-14.2905

>  <SCORE.INTER.norm>
-0.0735322

>  <SCORE.INTRA>
-5.74016

>  <SCORE.INTRA.DIHEDRAL>
-13.6948

>  <SCORE.INTRA.DIHEDRAL.0>
18.77

>  <SCORE.INTRA.POLAR>
0

>  <SCORE.INTRA.POLAR.0>
0

>  <SCORE.INTRA.REPUL>
0

>  <SCORE.INTRA.REPUL.0>
0

>  <SCORE.INTRA.SOLV>
-0.245589

>  <SCORE.INTRA.SOLV.lig_0>
-77.2465

>  <SCORE.INTRA.VDW>
1.23006

>  <SCORE.INTRA.VDW.0>
-4.16072

>  <SCORE.INTRA.norm>
-0.185166

>  <SCORE.RESTR>
0

>  <SCORE.RESTR.CAVITY>
0

>  <SCORE.RESTR.norm>
0

>  <SCORE.SYSTEM>
0

>  <SCORE.SYSTEM.CONST>
0

>  <SCORE.SYSTEM.DIHEDRAL>
0

>  <SCORE.SYSTEM.SOLV>
0

>  <SCORE.SYSTEM.norm>
0

>  <SCORE.heavy>
31

>  <SCORE.norm>
-0.258699

>  <RMSD>
3.252

$$$$
ligand
 OpenBabel11021811493D
libRbt.so/2013.1/901 2013/11/27
 31 33  0  0  0  0  0  0  0  0999 V2000
   -6.8856  -12.6440  -18.1292 C   0  0  2  0  0  0  0  0  0  0  0  0
   -5.7606  -13.4896  -18.4048 O   0  0  0  0  0  0  0  0  0  0  0  0
   -1.9927  -14.1554  -16.4857 C   0  0  2  0  0  0  0  0  0  0  0  0
   -0.6736  -13.9208  -15.9826 N   0  0  0  0  0  0  0  0  0  0  0  0
   -1.8889  -12.9848  -13.5265 C   0  0  2  0  0  0  0  0  0  0  0  0
   -8.1422  -13.3741  -18.7206 C   0  0  2  0  0  0  0  0  0  0  0  0
   -8.2704  -14.6977  -18.1209 N   0  0  0  0  0  0  0  0  0  0  0  0
   -1.9873  -13.9440  -18.0488 C   0  0  0  0  0  0  0  0  0  0  0  0
   -2.2653  -13.5659  -12.1287 C   0  0  2  0  0  0  0  0  0  0  0  0
   -2.3838  -14.9746  -12.2310 O   0  0  0  0  0  0  0  0  0  0  0  0
   -8.0090  -13.4819  -20.2796 C   0  0  0  0  0  0  0  0  0  0  0  0
   -3.4513  -14.2126  -18.6074 C   0  0  2  0  0  0  0  0  0  0  0  0
   -3.4589  -14.0153  -20.0758 N   0  0  0  0  0  0  0  0  0  0  0  0
   -3.6518  -12.9064  -11.7059 C   0  0  1  0  0  0  0  0  0  0  0  0
   -4.1086  -13.4387  -10.3773 N   0  0  0  0  0  0  0  0  0  0  0  0
   -7.5882  -12.1162  -20.8953 C   0  0  0  0  0  0  0  0  0  0  0  0
   -4.4784  -13.2137  -17.9101 C   0  0  2  0  0  0  0  0  0  0  0  0
   -3.4657  -11.2918  -11.6002 C   0  0  1  0  0  0  0  0  0  0  0  0
   -2.4964  -10.9300  -10.6356 O   0  0  0  0  0  0  0  0  0  0  0  0
   -7.0136  -11.1663  -20.1421 C   0  0  2  0  0  0  0  0  0  0  0  0
   -6.7484  -11.3247  -18.7374 O   0  0  0  0  0  0  0  0  0  0  0  0
   -4.4366  -13.4327  -16.3398 C   0  0  2  0  0  0  0  0  0  0  0  0
   -5.3389  -12.5224  -15.6986 O   0  0  0  0  0  0  0  0  0  0  0  0
   -2.9912  -10.7346  -12.9846 C   0  0  0  0  0  0  0  0  0  0  0  0
   -1.7535  -11.4859  -13.4456 O   0  0  0  0  0  0  0  0  0  0  0  0
   -6.5910   -9.8019  -20.7349 C   0  0  0  0  0  0  0  0  0  0  0  0
   -7.1093   -8.7272  -19.9002 N   0  0  0  0  0  0  0  0  0  0  0  0
   -2.9835  -13.1658  -15.8042 C   0  0  1  0  0  0  0  0  0  0  0  0
   -2.9854  -13.3746  -14.4123 O   0  0  0  0  0  0  0  0  0  0  0  0
   -4.7225  -10.4997  -11.2033 C   0  0  0  0  0  0  0  0  0  0  0  0
   -5.5478  -13.7374  -10.2514 C   0  0  0  0  0  0  0  0  0  0  0  0
  1  2  1  6  0  0  0
  1  6  1  0  0  0  0
  1 21  1  0  0  0  0
  3  4  1  1  0  0  0
  3  8  1  0  0  0  0
  3 28  1  0  0  0  0
  5  9  1  0  0  0  0
  5 25  1  0  0  0  0
  5 29  1  6  0  0  0
  6  7  1  1  0  0  0
  6 11  1  0  0  0  0
  8 12  1  0  0  0  0
  9 10  1  6  0  0  0
  9 14  1  0  0  0  0
 11 16  1  0  0  0  0
 12 13  1  6  0  0  0
 12 17  1  0  0  0  0
 14 15  1  1  0  0  0
 14 18  1  0  0  0  0
 15 31  1  0  0  0  0
 16 20  1  0  0  0  0
 17  2  1  6  0  0  0
 17 22  1  0  0  0  0
 18 19  1  1  0  0  0
 18 24  1  0  0  0  0
 18 30  1  0  0  0  0
 20 21  1  0  0  0  0
 20 26  1  1  0  0  0
 22 23  1  1  0  0  0
 22 28  1  0  0  0  0
 24 25  1  0  0  0  0
 26 27  1  0  0  0  0
 28 29  1  1  0  0  0
M  END
>  <CHROM.1>
-173.95459403,-173.40870551,-138.87341477,-170.71623715,130.08765901,72.70114764
-4.48452621,-12.67651077,-15.87016183,2.07996377,0.52350512,-1.79367467

>  <Name>
ligand

>  <RI>
0

>  <Rbt.Current_Directory>
/home/itssahil/PROJECTS/Mol_Feturizer/New_Systems/rnas/4F8U

>  <Rbt.Executable>
rbdock ($Id: //depot/dev/client3/rdock/2013.1/src/exe/rbdock.cxx#4 $)

>  <Rbt.Library>
libRbt.so (2013.1, Build901 2013/11/27)

>  <Rbt.Parameter_File>
/export/apps/rDock/src/rDock_2013.1_src/data/scripts/dock_solv.prm

>  <Rbt.Receptor>
prm/pocket_docking_8.prm

>  <SCORE>
-13.8175

>  <SCORE.INTER>
-6.53297

>  <SCORE.INTER.CONST>
1

>  <SCORE.INTER.POLAR>
0

>  <SCORE.INTER.ROT>
6

>  <SCORE.INTER.SOLV>
12.0463

>  <SCORE.INTER.VDW>
-15.9708

>  <SCORE.INTER.norm>
-0.210741

>  <SCORE.INTRA>
-7.28448

>  <SCORE.INTRA.DIHEDRAL>
-14.4504

>  <SCORE.INTRA.DIHEDRAL.0>
18.77

>  <SCORE.INTRA.POLAR>
0

>  <SCORE.INTRA.POLAR.0>
0

>  <SCORE.INTRA.REPUL>
0

>  <SCORE.INTRA.REPUL.0>
0

>  <SCORE.INTRA.SOLV>
-1.96679

>  <SCORE.INTRA.SOLV.lig_0>
-77.2465

>  <SCORE.INTRA.VDW>
0.924129

>  <SCORE.INTRA.VDW.0>
-4.16072

>  <SCORE.INTRA.norm>
-0.234983

>  <SCORE.RESTR>
0

>  <SCORE.RESTR.CAVITY>
0

>  <SCORE.RESTR.norm>
0

>  <SCORE.SYSTEM>
0

>  <SCORE.SYSTEM.CONST>
0

>  <SCORE.SYSTEM.DIHEDRAL>
0

>  <SCORE.SYSTEM.SOLV>
0

>  <SCORE.SYSTEM.norm>
0

>  <SCORE.heavy>
31

>  <SCORE.norm>
-0.445724

>  <RMSD>
3.263

$$$$
ligand
 OpenBabel11021811493D
libRbt.so/2013.1/901 2013/11/27
 31 33  0  0  0  0  0  0  0  0999 V2000
   -5.3711  -11.5407  -18.2650 C   0  0  2  0  0  0  0  0  0  0  0  0
   -5.0698  -10.4312  -17.4077 O   0  0  0  0  0  0  0  0  0  0  0  0
   -1.5004  -11.8083  -15.4877 C   0  0  2  0  0  0  0  0  0  0  0  0
   -0.3203  -11.8176  -14.6782 N   0  0  0  0  0  0  0  0  0  0  0  0
   -2.0770  -12.5697  -12.3789 C   0  0  2  0  0  0  0  0  0  0  0  0
   -6.6175  -11.1144  -19.1174 C   0  0  2  0  0  0  0  0  0  0  0  0
   -6.3140   -9.8948  -19.8579 N   0  0  0  0  0  0  0  0  0  0  0  0
   -1.3493  -10.6968  -16.5966 C   0  0  0  0  0  0  0  0  0  0  0  0
   -2.8150  -13.5918  -11.4603 C   0  0  2  0  0  0  0  0  0  0  0  0
   -2.8541  -14.8513  -12.1091 O   0  0  0  0  0  0  0  0  0  0  0  0
   -7.8550  -10.8997  -18.1780 C   0  0  0  0  0  0  0  0  0  0  0  0
   -2.6573  -10.6928  -17.5001 C   0  0  2  0  0  0  0  0  0  0  0  0
   -2.5275   -9.6506  -18.5451 N   0  0  0  0  0  0  0  0  0  0  0  0
   -4.2851  -13.0284  -11.2202 C   0  0  1  0  0  0  0  0  0  0  0  0
   -5.0821  -13.9737  -10.3668 N   0  0  0  0  0  0  0  0  0  0  0  0
   -8.0087  -12.0873  -17.1843 C   0  0  0  0  0  0  0  0  0  0  0  0
   -3.9325  -10.4058  -16.5888 C   0  0  2  0  0  0  0  0  0  0  0  0
   -4.1888  -11.5843  -10.4730 C   0  0  1  0  0  0  0  0  0  0  0  0
   -3.5447  -11.6771   -9.2170 O   0  0  0  0  0  0  0  0  0  0  0  0
   -6.9773  -12.9023  -16.9168 C   0  0  2  0  0  0  0  0  0  0  0  0
   -5.6771  -12.7535  -17.5137 O   0  0  0  0  0  0  0  0  0  0  0  0
   -4.0371  -11.5237  -15.4686 C   0  0  2  0  0  0  0  0  0  0  0  0
   -5.1671  -11.2630  -14.6265 O   0  0  0  0  0  0  0  0  0  0  0  0
   -3.3597  -10.5969  -11.3618 C   0  0  0  0  0  0  0  0  0  0  0  0
   -2.0186  -11.2200  -11.7108 O   0  0  0  0  0  0  0  0  0  0  0  0
   -7.1110  -14.0893  -15.9344 C   0  0  0  0  0  0  0  0  0  0  0  0
   -7.4203  -15.3030  -16.6770 N   0  0  0  0  0  0  0  0  0  0  0  0
   -2.7365  -11.5161  -14.5865 C   0  0  1  0  0  0  0  0  0  0  0  0
   -2.8644  -12.5220  -13.6104 O   0  0  0  0  0  0  0  0  0  0  0  0
   -5.5315  -10.8985  -10.1707 C   0  0  0  0  0  0  0  0  0  0  0  0
   -6.3712  -14.4283  -10.9216 C   0  0  0  0  0  0  0  0  0  0  0  0
  1  2  1  1  0  0  0
  1  6  1  0  0  0  0
  1 21  1  0  0  0  0
  3  4  1  1  0  0  0
  3  8  1  0  0  0  0
  3 28  1  0  0  0  0
  5  9  1  0  0  0  0
  5 25  1  0  0  0  0
  5 29  1  6  0  0  0
  6  7  1  1  0  0  0
  6 11  1  0  0  0  0
  8 12  1  0  0  0  0
  9 10  1  6  0  0  0
  9 14  1  0  0  0  0
 11 16  1  0  0  0  0
 12 13  1  6  0  0  0
 12 17  1  0  0  0  0
 14 15  1  1  0  0  0
 14 18  1  0  0  0  0
 15 31  1  0  0  0  0
 16 20  1  0  0  0  0
 17  2  1  6  0  0  0
 17 22  1  0  0  0  0
 18 19  1  1  0  0  0
 18 24  1  0  0  0  0
 18 30  1  0  0  0  0
 20 21  1  0  0  0  0
 20 26  1  6  0  0  0
 22 23  1  1  0  0  0
 22 28  1  0  0  0  0
 24 25  1  0  0  0  0
 26 27  1  0  0  0  0
 28 29  1  1  0  0  0
M  END
>  <CHROM.1>
-173.85141601,164.97151939,-125.28187874,53.34943899,94.68753333,79.98606012
-4.38000653,-11.98980422,-14.66681566,-1.88605798,0.39932524,1.86620801

>  <Name>
ligand

>  <RI>
0

>  <Rbt.Current_Directory>
/home/itssahil/PROJECTS/Mol_Feturizer/New_Systems/rnas/4F8U

>  <Rbt.Executable>
rbdock ($Id: //depot/dev/client3/rdock/2013.1/src/exe/rbdock.cxx#4 $)

>  <Rbt.Library>
libRbt.so (2013.1, Build901 2013/11/27)

>  <Rbt.Parameter_File>
/export/apps/rDock/src/rDock_2013.1_src/data/scripts/dock_solv.prm

>  <Rbt.Receptor>
prm/pocket_docking_4.prm

>  <SCORE>
-8.32204

>  <SCORE.INTER>
-2.20246

>  <SCORE.INTER.CONST>
1

>  <SCORE.INTER.POLAR>
0

>  <SCORE.INTER.ROT>
6

>  <SCORE.INTER.SOLV>
11.5381

>  <SCORE.INTER.VDW>
-12.9143

>  <SCORE.INTER.norm>
-0.0710472

>  <SCORE.INTRA>
-6.11958

>  <SCORE.INTRA.DIHEDRAL>
-11.9242

>  <SCORE.INTRA.DIHEDRAL.0>
18.77

>  <SCORE.INTRA.POLAR>
0

>  <SCORE.INTRA.POLAR.0>
0

>  <SCORE.INTRA.REPUL>
0

>  <SCORE.INTRA.REPUL.0>
0

>  <SCORE.INTRA.SOLV>
-0.658799

>  <SCORE.INTRA.SOLV.lig_0>
-77.2465

>  <SCORE.INTRA.VDW>
0.171904

>  <SCORE.INTRA.VDW.0>
-4.16072

>  <SCORE.INTRA.norm>
-0.197406

>  <SCORE.RESTR>
0

>  <SCORE.RESTR.CAVITY>
0

>  <SCORE.RESTR.norm>
0

>  <SCORE.SYSTEM>
0

>  <SCORE.SYSTEM.CONST>
0

>  <SCORE.SYSTEM.DIHEDRAL>
0

>  <SCORE.SYSTEM.SOLV>
0

>  <SCORE.SYSTEM.norm>
0

>  <SCORE.heavy>
31

>  <SCORE.norm>
-0.268453

>  <RMSD>
3.398

$$$$
ligand
 OpenBabel11021811493D
libRbt.so/2013.1/901 2013/11/27
 31 33  0  0  0  0  0  0  0  0999 V2000
   -7.6397  -11.9169  -19.2564 C   0  0  2  0  0  0  0  0  0  0  0  0
   -6.2727  -12.1195  -18.8733 O   0  0  0  0  0  0  0  0  0  0  0  0
   -3.3685  -11.1121  -15.8943 C   0  0  2  0  0  0  0  0  0  0  0  0
   -2.7938  -10.6019  -14.6870 N   0  0  0  0  0  0  0  0  0  0  0  0
   -2.5186  -13.8687  -15.2712 C   0  0  2  0  0  0  0  0  0  0  0  0
   -7.8994  -12.8609  -20.4825 C   0  0  2  0  0  0  0  0  0  0  0  0
   -7.6164  -14.2423  -20.1090 N   0  0  0  0  0  0  0  0  0  0  0  0
   -4.0555   -9.9251  -16.6734 C   0  0  0  0  0  0  0  0  0  0  0  0
   -2.5580  -15.3272  -14.7193 C   0  0  2  0  0  0  0  0  0  0  0  0
   -3.6715  -16.0026  -15.2787 O   0  0  0  0  0  0  0  0  0  0  0  0
   -7.0043  -12.4187  -21.6921 C   0  0  0  0  0  0  0  0  0  0  0  0
   -4.6866  -10.4917  -18.0180 C   0  0  2  0  0  0  0  0  0  0  0  0
   -5.3368   -9.3850  -18.7581 N   0  0  0  0  0  0  0  0  0  0  0  0
   -2.6904  -15.2246  -13.1355 C   0  0  1  0  0  0  0  0  0  0  0  0
   -2.7692  -16.5931  -12.5205 N   0  0  0  0  0  0  0  0  0  0  0  0
   -7.0894  -10.8805  -21.9110 C   0  0  0  0  0  0  0  0  0  0  0  0
   -5.7517  -11.6245  -17.6698 C   0  0  2  0  0  0  0  0  0  0  0  0
   -1.3907  -14.4442  -12.5398 C   0  0  1  0  0  0  0  0  0  0  0  0
   -0.1832  -15.1190  -12.8357 O   0  0  0  0  0  0  0  0  0  0  0  0
   -7.5095  -10.0654  -20.9317 C   0  0  2  0  0  0  0  0  0  0  0  0
   -7.9100  -10.5330  -19.6319 O   0  0  0  0  0  0  0  0  0  0  0  0
   -5.0346  -12.7863  -16.8626 C   0  0  2  0  0  0  0  0  0  0  0  0
   -5.9879  -13.8008  -16.5220 O   0  0  0  0  0  0  0  0  0  0  0  0
   -1.3076  -13.0168  -13.1784 C   0  0  0  0  0  0  0  0  0  0  0  0
   -1.3404  -13.1274  -14.6935 O   0  0  0  0  0  0  0  0  0  0  0  0
   -7.6035   -8.5346  -21.1308 C   0  0  0  0  0  0  0  0  0  0  0  0
   -7.1729   -8.1919  -22.4789 N   0  0  0  0  0  0  0  0  0  0  0  0
   -4.4146  -12.2098  -15.5387 C   0  0  1  0  0  0  0  0  0  0  0  0
   -3.7845  -13.2663  -14.8548 O   0  0  0  0  0  0  0  0  0  0  0  0
   -1.3665  -14.2566  -11.0138 C   0  0  0  0  0  0  0  0  0  0  0  0
   -4.1233  -17.1122  -12.2498 C   0  0  0  0  0  0  0  0  0  0  0  0
  1  2  1  6  0  0  0
  1  6  1  0  0  0  0
  1 21  1  0  0  0  0
  3  4  1  1  0  0  0
  3  8  1  0  0  0  0
  3 28  1  0  0  0  0
  5  9  1  0  0  0  0
  5 25  1  0  0  0  0
  5 29  1  1  0  0  0
  6  7  1  1  0  0  0
  6 11  1  0  0  0  0
  8 12  1  0  0  0  0
  9 10  1  6  0  0  0
  9 14  1  0  0  0  0
 11 16  1  0  0  0  0
 12 13  1  1  0  0  0
 12 17  1  0  0  0  0
 14 15  1  1  0  0  0
 14 18  1  0  0  0  0
 15 31  1  0  0  0  0
 16 20  1  0  0  0  0
 17  2  1  6  0  0  0
 17 22  1  0  0  0  0
 18 19  1  6  0  0  0
 18 24  1  0  0  0  0
 18 30  1  0  0  0  0
 20 21  1  0  0  0  0
 20 26  1  6  0  0  0
 22 23  1  1  0  0  0
 22 28  1  0  0  0  0
 24 25  1  0  0  0  0
 26 27  1  0  0  0  0
 28 29  1  6  0  0  0
M  END
>  <CHROM.1>
-168.31927092,-153.41752841,-95.43913282,-112.84253413,-0.28271355,-45.64419860
-4.59243646,-12.64920508,-16.72210072,2.39089851,-0.80812296,-0.40195588

>  <Name>
ligand

>  <RI>
0

>  <Rbt.Current_Directory>
/home/itssahil/PROJECTS/Mol_Feturizer/New_Systems/rnas/4F8U

>  <Rbt.Executable>
rbdock ($Id: //depot/dev/client3/rdock/2013.1/src/exe/rbdock.cxx#4 $)

>  <Rbt.Library>
libRbt.so (2013.1, Build901 2013/11/27)

>  <Rbt.Parameter_File>
/export/apps/rDock/src/rDock_2013.1_src/data/scripts/dock_solv.prm

>  <Rbt.Receptor>
prm/pocket_docking_5.prm

>  <SCORE>
-11.0181

>  <SCORE.INTER>
-11.1477

>  <SCORE.INTER.CONST>
1

>  <SCORE.INTER.POLAR>
0

>  <SCORE.INTER.ROT>
6

>  <SCORE.INTER.SOLV>
12.752

>  <SCORE.INTER.VDW>
-19.2824

>  <SCORE.INTER.norm>
-0.359602

>  <SCORE.INTRA>
0.129543

>  <SCORE.INTRA.DIHEDRAL>
-4.78842

>  <SCORE.INTRA.DIHEDRAL.0>
18.77

>  <SCORE.INTRA.POLAR>
0

>  <SCORE.INTRA.POLAR.0>
0

>  <SCORE.INTRA.REPUL>
0

>  <SCORE.INTRA.REPUL.0>
0

>  <SCORE.INTRA.SOLV>
2.95911

>  <SCORE.INTRA.SOLV.lig_0>
-77.2465

>  <SCORE.INTRA.VDW>
1.0442

>  <SCORE.INTRA.VDW.0>
-4.16072

>  <SCORE.INTRA.norm>
0.00417881

>  <SCORE.RESTR>
0

>  <SCORE.RESTR.CAVITY>
0

>  <SCORE.RESTR.norm>
0

>  <SCORE.SYSTEM>
0

>  <SCORE.SYSTEM.CONST>
0

>  <SCORE.SYSTEM.DIHEDRAL>
0

>  <SCORE.SYSTEM.SOLV>
0

>  <SCORE.SYSTEM.norm>
0

>  <SCORE.heavy>
31

>  <SCORE.norm>
-0.355423

>  <RMSD>
3.458

$$$$
ligand
 OpenBabel11021811493D
libRbt.so/2013.1/901 2013/11/27
 31 33  0  0  0  0  0  0  0  0999 V2000
   -5.5665  -11.5739  -18.2584 C   0  0  2  0  0  0  0  0  0  0  0  0
   -5.2644  -10.4790  -17.3828 O   0  0  0  0  0  0  0  0  0  0  0  0
   -1.6765  -11.8725  -15.5097 C   0  0  2  0  0  0  0  0  0  0  0  0
   -0.4863  -11.8875  -14.7153 N   0  0  0  0  0  0  0  0  0  0  0  0
   -2.1990  -12.6493  -12.4072 C   0  0  2  0  0  0  0  0  0  0  0  0
   -6.9058  -11.2010  -18.9860 C   0  0  2  0  0  0  0  0  0  0  0  0
   -6.7448   -9.9374  -19.6967 N   0  0  0  0  0  0  0  0  0  0  0  0
   -1.5350  -10.7604  -16.6193 C   0  0  0  0  0  0  0  0  0  0  0  0
   -2.9382  -13.6490  -11.4651 C   0  0  2  0  0  0  0  0  0  0  0  0
   -3.0297  -14.9084  -12.1089 O   0  0  0  0  0  0  0  0  0  0  0  0
   -8.0697  -11.1045  -17.9392 C   0  0  0  0  0  0  0  0  0  0  0  0
   -2.8544  -10.7501  -17.5061 C   0  0  2  0  0  0  0  0  0  0  0  0
   -2.7336   -9.7073  -18.5516 N   0  0  0  0  0  0  0  0  0  0  0  0
   -4.3850  -13.0453  -11.1852 C   0  0  1  0  0  0  0  0  0  0  0  0
   -5.1829  -13.9668  -10.3068 N   0  0  0  0  0  0  0  0  0  0  0  0
   -8.0621  -12.3354  -16.9872 C   0  0  0  0  0  0  0  0  0  0  0  0
   -4.1167  -10.4590  -16.5783 C   0  0  2  0  0  0  0  0  0  0  0  0
   -4.2286  -11.6028  -10.4452 C   0  0  1  0  0  0  0  0  0  0  0  0
   -3.5519  -11.7104   -9.2077 O   0  0  0  0  0  0  0  0  0  0  0  0
   -6.9619  -13.0888  -16.8407 C   0  0  2  0  0  0  0  0  0  0  0  0
   -5.7295  -12.8313  -17.5363 O   0  0  0  0  0  0  0  0  0  0  0  0
   -4.2116  -11.5779  -15.4581 C   0  0  2  0  0  0  0  0  0  0  0  0
   -5.3297  -11.3136  -14.6015 O   0  0  0  0  0  0  0  0  0  0  0  0
   -3.3985  -10.6403  -11.3600 C   0  0  0  0  0  0  0  0  0  0  0  0
   -2.0852  -11.3003  -11.7449 O   0  0  0  0  0  0  0  0  0  0  0  0
   -6.9354  -14.3174  -15.9017 C   0  0  0  0  0  0  0  0  0  0  0  0
   -7.4183  -15.4887  -16.6194 N   0  0  0  0  0  0  0  0  0  0  0  0
   -2.8999  -11.5764  -14.5926 C   0  0  1  0  0  0  0  0  0  0  0  0
   -3.0194  -12.5829  -13.6161 O   0  0  0  0  0  0  0  0  0  0  0  0
   -5.5431  -10.8801  -10.1072 C   0  0  0  0  0  0  0  0  0  0  0  0
   -6.5726  -14.2305  -10.7259 C   0  0  0  0  0  0  0  0  0  0  0  0
  1  2  1  1  0  0  0
  1  6  1  0  0  0  0
  1 21  1  0  0  0  0
  3  4  1  1  0  0  0
  3  8  1  0  0  0  0
  3 28  1  0  0  0  0
  5  9  1  0  0  0  0
  5 25  1  0  0  0  0
  5 29  1  6  0  0  0
  6  7  1  1  0  0  0
  6 11  1  0  0  0  0
  8 12  1  0  0  0  0
  9 10  1  6  0  0  0
  9 14  1  0  0  0  0
 11 16  1  0  0  0  0
 12 13  1  6  0  0  0
 12 17  1  0  0  0  0
 14 15  1  1  0  0  0
 14 18  1  0  0  0  0
 15 31  1  0  0  0  0
 16 20  1  0  0  0  0
 17  2  1  6  0  0  0
 17 22  1  0  0  0  0
 18 19  1  1  0  0  0
 18 24  1  0  0  0  0
 18 30  1  0  0  0  0
 20 21  1  0  0  0  0
 20 26  1  6  0  0  0
 22 23  1  1  0  0  0
 22 28  1  0  0  0  0
 24 25  1  0  0  0  0
 26 27  1  0  0  0  0
 28 29  1  1  0  0  0
M  END
>  <CHROM.1>
-179.15511627,164.39584610,-133.91556874,52.00887552,86.42338523,78.76716758
-4.50808331,-12.05650695,-14.62932856,-1.89525704,0.40808488,1.86171547

>  <Name>
ligand

>  <RI>
0

>  <Rbt.Current_Directory>
/home/itssahil/PROJECTS/Mol_Feturizer/New_Systems/rnas/4F8U

>  <Rbt.Executable>
rbdock ($Id: //depot/dev/client3/rdock/2013.1/src/exe/rbdock.cxx#4 $)

>  <Rbt.Library>
libRbt.so (2013.1, Build901 2013/11/27)

>  <Rbt.Parameter_File>
/export/apps/rDock/src/rDock_2013.1_src/data/scripts/dock_solv.prm

>  <Rbt.Receptor>
prm/pocket_docking_4.prm

>  <SCORE>
-8.14233

>  <SCORE.INTER>
-2.09326

>  <SCORE.INTER.CONST>
1

>  <SCORE.INTER.POLAR>
0

>  <SCORE.INTER.ROT>
6

>  <SCORE.INTER.SOLV>
10.6278

>  <SCORE.INTER.VDW>
-12.5381

>  <SCORE.INTER.norm>
-0.0675246

>  <SCORE.INTRA>
-6.04907

>  <SCORE.INTRA.DIHEDRAL>
-11.8458

>  <SCORE.INTRA.DIHEDRAL.0>
18.77

>  <SCORE.INTRA.POLAR>
0

>  <SCORE.INTRA.POLAR.0>
0

>  <SCORE.INTRA.REPUL>
0

>  <SCORE.INTRA.REPUL.0>
0

>  <SCORE.INTRA.SOLV>
-0.866479

>  <SCORE.INTRA.SOLV.lig_0>
-77.2465

>  <SCORE.INTRA.VDW>
0.307056

>  <SCORE.INTRA.VDW.0>
-4.16072

>  <SCORE.INTRA.norm>
-0.195131

>  <SCORE.RESTR>
0

>  <SCORE.RESTR.CAVITY>
0

>  <SCORE.RESTR.norm>
0

>  <SCORE.SYSTEM>
0

>  <SCORE.SYSTEM.CONST>
0

>  <SCORE.SYSTEM.DIHEDRAL>
0

>  <SCORE.SYSTEM.SOLV>
0

>  <SCORE.SYSTEM.norm>
0

>  <SCORE.heavy>
31

>  <SCORE.norm>
-0.262656

>  <RMSD>
3.477

$$$$
ligand
 OpenBabel11021811493D
libRbt.so/2013.1/901 2013/11/27
 31 33  0  0  0  0  0  0  0  0999 V2000
   -7.6703  -12.3460  -18.8672 C   0  0  2  0  0  0  0  0  0  0  0  0
   -6.3003  -12.7232  -18.6743 O   0  0  0  0  0  0  0  0  0  0  0  0
   -4.2123  -13.4994  -15.0190 C   0  0  2  0  0  0  0  0  0  0  0  0
   -3.4918  -13.2780  -13.8025 N   0  0  0  0  0  0  0  0  0  0  0  0
   -7.5135  -12.7324  -13.2555 C   0  0  2  0  0  0  0  0  0  0  0  0
   -8.1355  -13.0364  -20.1972 C   0  0  2  0  0  0  0  0  0  0  0  0
   -7.9569  -14.4802  -20.0912 N   0  0  0  0  0  0  0  0  0  0  0  0
   -3.3827  -12.9001  -16.2192 C   0  0  0  0  0  0  0  0  0  0  0  0
   -6.9478  -11.6888  -12.2435 C   0  0  2  0  0  0  0  0  0  0  0  0
   -6.1470  -10.7529  -12.9446 O   0  0  0  0  0  0  0  0  0  0  0  0
   -7.3180  -12.4636  -21.4069 C   0  0  0  0  0  0  0  0  0  0  0  0
   -4.1804  -13.1536  -17.5709 C   0  0  2  0  0  0  0  0  0  0  0  0
   -3.4109  -12.5930  -18.7061 N   0  0  0  0  0  0  0  0  0  0  0  0
   -6.0819  -12.4937  -11.1765 C   0  0  1  0  0  0  0  0  0  0  0  0
   -5.4680  -11.5558  -10.1761 N   0  0  0  0  0  0  0  0  0  0  0  0
   -7.2706  -10.9090  -21.3570 C   0  0  0  0  0  0  0  0  0  0  0  0
   -5.6136  -12.4634  -17.4802 C   0  0  2  0  0  0  0  0  0  0  0  0
   -7.0431  -13.5529  -10.3973 C   0  0  1  0  0  0  0  0  0  0  0  0
   -8.0973  -12.9080   -9.7091 O   0  0  0  0  0  0  0  0  0  0  0  0
   -7.5146  -10.2465  -20.2163 C   0  0  2  0  0  0  0  0  0  0  0  0
   -7.8362  -10.9004  -18.9761 O   0  0  0  0  0  0  0  0  0  0  0  0
   -6.4079  -13.0674  -16.2474 C   0  0  2  0  0  0  0  0  0  0  0  0
   -7.6905  -12.4368  -16.1402 O   0  0  0  0  0  0  0  0  0  0  0  0
   -7.6827  -14.5326  -11.4382 C   0  0  0  0  0  0  0  0  0  0  0  0
   -8.3727  -13.7398  -12.5356 O   0  0  0  0  0  0  0  0  0  0  0  0
   -7.4749   -8.7021  -20.1471 C   0  0  0  0  0  0  0  0  0  0  0  0
   -6.2701   -8.2771  -19.4484 N   0  0  0  0  0  0  0  0  0  0  0  0
   -5.6057  -12.8107  -14.9206 C   0  0  1  0  0  0  0  0  0  0  0  0
   -6.3376  -13.3639  -13.8533 O   0  0  0  0  0  0  0  0  0  0  0  0
   -6.3544  -14.4183   -9.3290 C   0  0  0  0  0  0  0  0  0  0  0  0
   -4.0924  -11.8680   -9.7443 C   0  0  0  0  0  0  0  0  0  0  0  0
  1  2  1  6  0  0  0
  1  6  1  0  0  0  0
  1 21  1  0  0  0  0
  3  4  1  1  0  0  0
  3  8  1  0  0  0  0
  3 28  1  0  0  0  0
  5  9  1  0  0  0  0
  5 25  1  0  0  0  0
  5 29  1  1  0  0  0
  6  7  1  1  0  0  0
  6 11  1  0  0  0  0
  8 12  1  0  0  0  0
  9 10  1  6  0  0  0
  9 14  1  0  0  0  0
 11 16  1  0  0  0  0
 12 13  1  6  0  0  0
 12 17  1  0  0  0  0
 14 15  1  1  0  0  0
 14 18  1  0  0  0  0
 15 31  1  0  0  0  0
 16 20  1  0  0  0  0
 17  2  1  6  0  0  0
 17 22  1  0  0  0  0
 18 19  1  1  0  0  0
 18 24  1  0  0  0  0
 18 30  1  0  0  0  0
 20 21  1  0  0  0  0
 20 26  1  6  0  0  0
 22 23  1  1  0  0  0
 22 28  1  0  0  0  0
 24 25  1  0  0  0  0
 26 27  1  0  0  0  0
 28 29  1  1  0  0  0
M  END
>  <CHROM.1>
-169.80323019,-82.38379355,-141.20507666,174.09828085,-106.35787331,163.09273471
-6.40340480,-12.37946258,-15.51225686,1.63456183,0.00264657,-1.40954714

>  <Name>
ligand

>  <RI>
0

>  <Rbt.Current_Directory>
/home/itssahil/PROJECTS/Mol_Feturizer/New_Systems/rnas/4F8U

>  <Rbt.Executable>
rbdock ($Id: //depot/dev/client3/rdock/2013.1/src/exe/rbdock.cxx#4 $)

>  <Rbt.Library>
libRbt.so (2013.1, Build901 2013/11/27)

>  <Rbt.Parameter_File>
/export/apps/rDock/src/rDock_2013.1_src/data/scripts/dock_solv.prm

>  <Rbt.Receptor>
prm/pocket_docking_4.prm

>  <SCORE>
-12.8376

>  <SCORE.INTER>
-7.624

>  <SCORE.INTER.CONST>
1

>  <SCORE.INTER.POLAR>
0

>  <SCORE.INTER.ROT>
6

>  <SCORE.INTER.SOLV>
12.8501

>  <SCORE.INTER.VDW>
-16.966

>  <SCORE.INTER.norm>
-0.245935

>  <SCORE.INTRA>
-5.21363

>  <SCORE.INTRA.DIHEDRAL>
-11.7922

>  <SCORE.INTRA.DIHEDRAL.0>
18.77

>  <SCORE.INTRA.POLAR>
0

>  <SCORE.INTRA.POLAR.0>
0

>  <SCORE.INTRA.REPUL>
0

>  <SCORE.INTRA.REPUL.0>
0

>  <SCORE.INTRA.SOLV>
-1.65975

>  <SCORE.INTRA.SOLV.lig_0>
-77.2465

>  <SCORE.INTRA.VDW>
1.51234

>  <SCORE.INTRA.VDW.0>
-4.16072

>  <SCORE.INTRA.norm>
-0.168182

>  <SCORE.RESTR>
0

>  <SCORE.RESTR.CAVITY>
0

>  <SCORE.RESTR.norm>
0

>  <SCORE.SYSTEM>
0

>  <SCORE.SYSTEM.CONST>
0

>  <SCORE.SYSTEM.DIHEDRAL>
0

>  <SCORE.SYSTEM.SOLV>
0

>  <SCORE.SYSTEM.norm>
0

>  <SCORE.heavy>
31

>  <SCORE.norm>
-0.414117

>  <RMSD>
3.526

$$$$
ligand
 OpenBabel11021811493D
libRbt.so/2013.1/901 2013/11/27
 31 33  0  0  0  0  0  0  0  0999 V2000
   -8.1258  -11.3072  -17.6671 C   0  0  2  0  0  0  0  0  0  0  0  0
   -6.9648  -11.1624  -16.8378 O   0  0  0  0  0  0  0  0  0  0  0  0
   -6.4878  -10.4961  -12.6364 C   0  0  2  0  0  0  0  0  0  0  0  0
   -6.5162  -10.7165  -11.2227 N   0  0  0  0  0  0  0  0  0  0  0  0
   -3.9222  -11.5950  -11.3866 C   0  0  2  0  0  0  0  0  0  0  0  0
   -8.1652  -12.8110  -18.1131 C   0  0  2  0  0  0  0  0  0  0  0  0
   -8.2004  -13.6729  -16.9367 N   0  0  0  0  0  0  0  0  0  0  0  0
   -7.9590  -10.5912  -13.1970 C   0  0  0  0  0  0  0  0  0  0  0  0
   -2.3694  -11.4577  -11.3302 C   0  0  2  0  0  0  0  0  0  0  0  0
   -1.9987  -10.1918  -11.8487 O   0  0  0  0  0  0  0  0  0  0  0  0
   -6.9132  -13.1346  -19.0007 C   0  0  0  0  0  0  0  0  0  0  0  0
   -7.9271  -10.3384  -14.7662 C   0  0  2  0  0  0  0  0  0  0  0  0
   -9.3046  -10.4270  -15.3046 N   0  0  0  0  0  0  0  0  0  0  0  0
   -1.7633  -12.6355  -12.2144 C   0  0  1  0  0  0  0  0  0  0  0  0
   -0.2631  -12.5588  -12.2428 N   0  0  0  0  0  0  0  0  0  0  0  0
   -6.7109  -12.0438  -20.0918 C   0  0  0  0  0  0  0  0  0  0  0  0
   -6.9912  -11.4246  -15.4611 C   0  0  2  0  0  0  0  0  0  0  0  0
   -2.2140  -14.0665  -11.5803 C   0  0  1  0  0  0  0  0  0  0  0  0
   -1.7497  -14.2306  -10.2542 O   0  0  0  0  0  0  0  0  0  0  0  0
   -7.2661  -10.8291  -19.9658 C   0  0  2  0  0  0  0  0  0  0  0  0
   -8.0776  -10.4439  -18.8424 O   0  0  0  0  0  0  0  0  0  0  0  0
   -5.5296  -11.3208  -14.8541 C   0  0  2  0  0  0  0  0  0  0  0  0
   -4.6833  -12.3098  -15.4539 O   0  0  0  0  0  0  0  0  0  0  0  0
   -3.7775  -14.1492  -11.5512 C   0  0  0  0  0  0  0  0  0  0  0  0
   -4.3447  -12.9335  -10.8377 O   0  0  0  0  0  0  0  0  0  0  0  0
   -7.0789   -9.7327  -21.0404 C   0  0  0  0  0  0  0  0  0  0  0  0
   -6.4386   -8.5696  -20.4424 N   0  0  0  0  0  0  0  0  0  0  0  0
   -5.5788  -11.5706  -13.3033 C   0  0  1  0  0  0  0  0  0  0  0  0
   -4.2680  -11.4653  -12.8017 O   0  0  0  0  0  0  0  0  0  0  0  0
   -1.7111  -15.3144  -12.3247 C   0  0  0  0  0  0  0  0  0  0  0  0
    0.3317  -11.7775  -13.3437 C   0  0  0  0  0  0  0  0  0  0  0  0
  1  2  1  1  0  0  0
  1  6  1  0  0  0  0
  1 21  1  0  0  0  0
  3  4  1  1  0  0  0
  3  8  1  0  0  0  0
  3 28  1  0  0  0  0
  5  9  1  0  0  0  0
  5 25  1  0  0  0  0
  5 29  1  6  0  0  0
  6  7  1  1  0  0  0
  6 11  1  0  0  0  0
  8 12  1  0  0  0  0
  9 10  1  6  0  0  0
  9 14  1  0  0  0  0
 11 16  1  0  0  0  0
 12 13  1  6  0  0  0
 12 17  1  0  0  0  0
 14 15  1  1  0  0  0
 14 18  1  0  0  0  0
 15 31  1  0  0  0  0
 16 20  1  0  0  0  0
 17  2  1  6  0  0  0
 17 22  1  0  0  0  0
 18 19  1  1  0  0  0
 18 24  1  0  0  0  0
 18 30  1  0  0  0  0
 20 21  1  0  0  0  0
 20 26  1  6  0  0  0
 22 23  1  6  0  0  0
 22 28  1  0  0  0  0
 24 25  1  0  0  0  0
 26 27  1  0  0  0  0
 28 29  1  1  0  0  0
M  END
>  <CHROM.1>
-86.40846379,177.99382336,-91.33857890,-66.45095461,-120.26809198,58.76662819
-5.21407005,-11.79087378,-14.71548660,2.22451566,0.29293146,-1.54594608

>  <Name>
ligand

>  <RI>
0

>  <Rbt.Current_Directory>
/home/itssahil/PROJECTS/Mol_Feturizer/New_Systems/rnas/4F8U

>  <Rbt.Executable>
rbdock ($Id: //depot/dev/client3/rdock/2013.1/src/exe/rbdock.cxx#4 $)

>  <Rbt.Library>
libRbt.so (2013.1, Build901 2013/11/27)

>  <Rbt.Parameter_File>
/export/apps/rDock/src/rDock_2013.1_src/data/scripts/dock_solv.prm

>  <Rbt.Receptor>
prm/pocket_docking_5.prm

>  <SCORE>
-11.2231

>  <SCORE.INTER>
-7.42845

>  <SCORE.INTER.CONST>
1

>  <SCORE.INTER.POLAR>
0

>  <SCORE.INTER.ROT>
6

>  <SCORE.INTER.SOLV>
12.7556

>  <SCORE.INTER.VDW>
-16.8042

>  <SCORE.INTER.norm>
-0.239628

>  <SCORE.INTRA>
-3.79463

>  <SCORE.INTRA.DIHEDRAL>
-13.2853

>  <SCORE.INTRA.DIHEDRAL.0>
18.77

>  <SCORE.INTRA.POLAR>
0

>  <SCORE.INTRA.POLAR.0>
0

>  <SCORE.INTRA.REPUL>
0

>  <SCORE.INTRA.REPUL.0>
0

>  <SCORE.INTRA.SOLV>
2.11005

>  <SCORE.INTRA.SOLV.lig_0>
-77.2465

>  <SCORE.INTRA.VDW>
1.79301

>  <SCORE.INTRA.VDW.0>
-4.16072

>  <SCORE.INTRA.norm>
-0.122407

>  <SCORE.RESTR>
0

>  <SCORE.RESTR.CAVITY>
0

>  <SCORE.RESTR.norm>
0

>  <SCORE.SYSTEM>
0

>  <SCORE.SYSTEM.CONST>
0

>  <SCORE.SYSTEM.DIHEDRAL>
0

>  <SCORE.SYSTEM.SOLV>
0

>  <SCORE.SYSTEM.norm>
0

>  <SCORE.heavy>
31

>  <SCORE.norm>
-0.362035

>  <RMSD>
3.540

$$$$
ligand
 OpenBabel11021811493D
libRbt.so/2013.1/901 2013/11/27
 31 33  0  0  0  0  0  0  0  0999 V2000
   -4.9570  -10.7926  -18.3037 C   0  0  2  0  0  0  0  0  0  0  0  0
   -4.1995  -10.0976  -17.3039 O   0  0  0  0  0  0  0  0  0  0  0  0
   -1.9463  -13.3056  -15.5846 C   0  0  2  0  0  0  0  0  0  0  0  0
   -0.9856  -14.0051  -14.7872 N   0  0  0  0  0  0  0  0  0  0  0  0
   -2.9460  -14.2020  -12.7522 C   0  0  2  0  0  0  0  0  0  0  0  0
   -5.7637   -9.6980  -19.0868 C   0  0  2  0  0  0  0  0  0  0  0  0
   -4.8428   -8.7197  -19.6547 N   0  0  0  0  0  0  0  0  0  0  0  0
   -1.1853  -12.3141  -16.5468 C   0  0  0  0  0  0  0  0  0  0  0  0
   -4.1136  -14.8129  -11.9175 C   0  0  2  0  0  0  0  0  0  0  0  0
   -4.9082  -15.6276  -12.7623 O   0  0  0  0  0  0  0  0  0  0  0  0
   -6.7876   -9.0024  -18.1237 C   0  0  0  0  0  0  0  0  0  0  0  0
   -2.2530  -11.5435  -17.4376 C   0  0  2  0  0  0  0  0  0  0  0  0
   -1.5494  -10.6072  -18.3450 N   0  0  0  0  0  0  0  0  0  0  0  0
   -4.9612  -13.5955  -11.3380 C   0  0  1  0  0  0  0  0  0  0  0  0
   -6.1334  -14.0966  -10.5430 N   0  0  0  0  0  0  0  0  0  0  0  0
   -7.5800  -10.0590  -17.3008 C   0  0  0  0  0  0  0  0  0  0  0  0
   -3.2584  -10.7466  -16.4926 C   0  0  2  0  0  0  0  0  0  0  0  0
   -4.0086  -12.6912  -10.3748 C   0  0  1  0  0  0  0  0  0  0  0  0
   -3.5017  -13.4318   -9.2814 O   0  0  0  0  0  0  0  0  0  0  0  0
   -7.1144  -11.3081  -17.1497 C   0  0  2  0  0  0  0  0  0  0  0  0
   -5.8775  -11.7652  -17.7240 O   0  0  0  0  0  0  0  0  0  0  0  0
   -3.9834  -11.7686  -15.5203 C   0  0  2  0  0  0  0  0  0  0  0  0
   -4.8732  -11.0607  -14.6478 O   0  0  0  0  0  0  0  0  0  0  0  0
   -2.7869  -12.1665  -11.2020 C   0  0  0  0  0  0  0  0  0  0  0  0
   -2.0821  -13.3318  -11.8759 O   0  0  0  0  0  0  0  0  0  0  0  0
   -7.8884  -12.3729  -16.3380 C   0  0  0  0  0  0  0  0  0  0  0  0
   -7.8358  -13.6498  -17.0359 N   0  0  0  0  0  0  0  0  0  0  0  0
   -2.9149  -12.5231  -14.6492 C   0  0  1  0  0  0  0  0  0  0  0  0
   -3.5943  -13.4220  -13.8057 O   0  0  0  0  0  0  0  0  0  0  0  0
   -4.6791  -11.4643   -9.7349 C   0  0  0  0  0  0  0  0  0  0  0  0
   -7.4349  -13.4617  -10.8246 C   0  0  0  0  0  0  0  0  0  0  0  0
  1  2  1  1  0  0  0
  1  6  1  0  0  0  0
  1 21  1  0  0  0  0
  3  4  1  1  0  0  0
  3  8  1  0  0  0  0
  3 28  1  0  0  0  0
  5  9  1  0  0  0  0
  5 25  1  0  0  0  0
  5 29  1  6  0  0  0
  6  7  1  1  0  0  0
  6 11  1  0  0  0  0
  8 12  1  0  0  0  0
  9 10  1  6  0  0  0
  9 14  1  0  0  0  0
 11 16  1  0  0  0  0
 12 13  1  6  0  0  0
 12 17  1  0  0  0  0
 14 15  1  1  0  0  0
 14 18  1  0  0  0  0
 15 31  1  0  0  0  0
 16 20  1  0  0  0  0
 17  2  1  6  0  0  0
 17 22  1  0  0  0  0
 18 19  1  1  0  0  0
 18 24  1  0  0  0  0
 18 30  1  0  0  0  0
 20 21  1  0  0  0  0
 20 26  1  6  0  0  0
 22 23  1  1  0  0  0
 22 28  1  0  0  0  0
 24 25  1  0  0  0  0
 26 27  1  0  0  0  0
 28 29  1  1  0  0  0
M  END
>  <CHROM.1>
-173.81112371,168.89804184,-133.06234238,52.51083720,138.38511897,67.35183283
-4.42867968,-12.19592904,-14.74279963,-1.70484862,-0.09051694,1.97699007

>  <Name>
ligand

>  <RI>
0

>  <Rbt.Current_Directory>
/home/itssahil/PROJECTS/Mol_Feturizer/New_Systems/rnas/4F8U

>  <Rbt.Executable>
rbdock ($Id: //depot/dev/client3/rdock/2013.1/src/exe/rbdock.cxx#4 $)

>  <Rbt.Library>
libRbt.so (2013.1, Build901 2013/11/27)

>  <Rbt.Parameter_File>
/export/apps/rDock/src/rDock_2013.1_src/data/scripts/dock_solv.prm

>  <Rbt.Receptor>
prm/pocket_docking_6.prm

>  <SCORE>
-7.4352

>  <SCORE.INTER>
-0.926122

>  <SCORE.INTER.CONST>
1

>  <SCORE.INTER.POLAR>
0

>  <SCORE.INTER.ROT>
6

>  <SCORE.INTER.SOLV>
10.8069

>  <SCORE.INTER.VDW>
-11.8197

>  <SCORE.INTER.norm>
-0.0298749

>  <SCORE.INTRA>
-6.50908

>  <SCORE.INTRA.DIHEDRAL>
-14.2952

>  <SCORE.INTRA.DIHEDRAL.0>
18.77

>  <SCORE.INTRA.POLAR>
0

>  <SCORE.INTRA.POLAR.0>
0

>  <SCORE.INTRA.REPUL>
0

>  <SCORE.INTRA.REPUL.0>
0

>  <SCORE.INTRA.SOLV>
0.00407346

>  <SCORE.INTRA.SOLV.lig_0>
-77.2465

>  <SCORE.INTRA.VDW>
0.636502

>  <SCORE.INTRA.VDW.0>
-4.16072

>  <SCORE.INTRA.norm>
-0.20997

>  <SCORE.RESTR>
0

>  <SCORE.RESTR.CAVITY>
0

>  <SCORE.RESTR.norm>
0

>  <SCORE.SYSTEM>
0

>  <SCORE.SYSTEM.CONST>
0

>  <SCORE.SYSTEM.DIHEDRAL>
0

>  <SCORE.SYSTEM.SOLV>
0

>  <SCORE.SYSTEM.norm>
0

>  <SCORE.heavy>
31

>  <SCORE.norm>
-0.239845

>  <RMSD>
3.615

$$$$
ligand
 OpenBabel11021811493D
libRbt.so/2013.1/901 2013/11/27
 31 33  0  0  0  0  0  0  0  0999 V2000
   -5.7824  -10.3864  -18.6668 C   0  0  2  0  0  0  0  0  0  0  0  0
   -6.6959  -10.3393  -17.5623 O   0  0  0  0  0  0  0  0  0  0  0  0
   -6.8245  -12.3334  -13.7767 C   0  0  2  0  0  0  0  0  0  0  0  0
   -6.9543  -13.3734  -12.8023 N   0  0  0  0  0  0  0  0  0  0  0  0
   -3.7042  -11.5857  -13.5000 C   0  0  2  0  0  0  0  0  0  0  0  0
   -5.9351   -9.0211  -19.4248 C   0  0  2  0  0  0  0  0  0  0  0  0
   -5.6602   -7.9174  -18.5115 N   0  0  0  0  0  0  0  0  0  0  0  0
   -8.1717  -12.2258  -14.5901 C   0  0  0  0  0  0  0  0  0  0  0  0
   -2.4144  -12.1657  -12.8418 C   0  0  2  0  0  0  0  0  0  0  0  0
   -1.6794  -12.8821  -13.8193 O   0  0  0  0  0  0  0  0  0  0  0  0
   -7.3817   -8.9025  -20.0190 C   0  0  0  0  0  0  0  0  0  0  0  0
   -8.0291  -11.0649  -15.6668 C   0  0  2  0  0  0  0  0  0  0  0  0
   -9.2890  -10.9555  -16.4388 N   0  0  0  0  0  0  0  0  0  0  0  0
   -2.8831  -13.1279  -11.6625 C   0  0  1  0  0  0  0  0  0  0  0  0
   -1.6970  -13.7598  -10.9909 N   0  0  0  0  0  0  0  0  0  0  0  0
   -7.7850  -10.2099  -20.7602 C   0  0  0  0  0  0  0  0  0  0  0  0
   -6.8105  -11.3893  -16.6408 C   0  0  2  0  0  0  0  0  0  0  0  0
   -3.7202  -12.2615  -10.5663 C   0  0  1  0  0  0  0  0  0  0  0  0
   -2.9420  -11.2238  -10.0019 O   0  0  0  0  0  0  0  0  0  0  0  0
   -7.1507  -11.3665  -20.5159 C   0  0  2  0  0  0  0  0  0  0  0  0
   -6.0695  -11.4914  -19.5756 O   0  0  0  0  0  0  0  0  0  0  0  0
   -5.4797  -11.5195  -15.7879 C   0  0  2  0  0  0  0  0  0  0  0  0
   -4.3794  -11.8356  -16.6503 O   0  0  0  0  0  0  0  0  0  0  0  0
   -4.9580  -11.6033  -11.2640 C   0  0  0  0  0  0  0  0  0  0  0  0
   -4.5046  -10.8153  -12.4815 O   0  0  0  0  0  0  0  0  0  0  0  0
   -7.5350  -12.6756  -21.2441 C   0  0  0  0  0  0  0  0  0  0  0  0
   -7.9272  -13.6798  -20.2651 N   0  0  0  0  0  0  0  0  0  0  0  0
   -5.6377  -12.6687  -14.7277 C   0  0  1  0  0  0  0  0  0  0  0  0
   -4.4422  -12.7497  -13.9894 O   0  0  0  0  0  0  0  0  0  0  0  0
   -4.2513  -13.0496   -9.3575 C   0  0  0  0  0  0  0  0  0  0  0  0
   -1.3776  -15.1431  -11.3919 C   0  0  0  0  0  0  0  0  0  0  0  0
  1  2  1  1  0  0  0
  1  6  1  0  0  0  0
  1 21  1  0  0  0  0
  3  4  1  1  0  0  0
  3  8  1  0  0  0  0
  3 28  1  0  0  0  0
  5  9  1  0  0  0  0
  5 25  1  0  0  0  0
  5 29  1  1  0  0  0
  6  7  1  1  0  0  0
  6 11  1  0  0  0  0
  8 12  1  0  0  0  0
  9 10  1  6  0  0  0
  9 14  1  0  0  0  0
 11 16  1  0  0  0  0
 12 13  1  6  0  0  0
 12 17  1  0  0  0  0
 14 15  1  1  0  0  0
 14 18  1  0  0  0  0
 15 31  1  0  0  0  0
 16 20  1  0  0  0  0
 17  2  1  6  0  0  0
 17 22  1  0  0  0  0
 18 19  1  1  0  0  0
 18 24  1  0  0  0  0
 18 30  1  0  0  0  0
 20 21  1  0  0  0  0
 20 26  1  6  0  0  0
 22 23  1  6  0  0  0
 22 28  1  0  0  0  0
 24 25  1  0  0  0  0
 26 27  1  0  0  0  0
 28 29  1  1  0  0  0
M  END
>  <CHROM.1>
-178.62524169,-175.95775096,-99.95195175,-173.42105512,-121.07966522,-76.62124894
-5.38234324,-11.74344057,-15.31233755,-2.01229935,-0.13717986,1.74826103

>  <Name>
ligand

>  <RI>
0

>  <Rbt.Current_Directory>
/home/itssahil/PROJECTS/Mol_Feturizer/New_Systems/rnas/4F8U

>  <Rbt.Executable>
rbdock ($Id: //depot/dev/client3/rdock/2013.1/src/exe/rbdock.cxx#4 $)

>  <Rbt.Library>
libRbt.so (2013.1, Build901 2013/11/27)

>  <Rbt.Parameter_File>
/export/apps/rDock/src/rDock_2013.1_src/data/scripts/dock_solv.prm

>  <Rbt.Receptor>
prm/pocket_docking_4.prm

>  <SCORE>
-14.8086

>  <SCORE.INTER>
-8.25782

>  <SCORE.INTER.CONST>
1

>  <SCORE.INTER.POLAR>
0

>  <SCORE.INTER.ROT>
6

>  <SCORE.INTER.SOLV>
20.1659

>  <SCORE.INTER.VDW>
-19.8272

>  <SCORE.INTER.norm>
-0.266381

>  <SCORE.INTRA>
-6.55075

>  <SCORE.INTRA.DIHEDRAL>
-14.605

>  <SCORE.INTRA.DIHEDRAL.0>
18.77

>  <SCORE.INTRA.POLAR>
0

>  <SCORE.INTRA.POLAR.0>
0

>  <SCORE.INTRA.REPUL>
0

>  <SCORE.INTRA.REPUL.0>
0

>  <SCORE.INTRA.SOLV>
-0.615769

>  <SCORE.INTRA.SOLV.lig_0>
-77.2465

>  <SCORE.INTRA.VDW>
1.05966

>  <SCORE.INTRA.VDW.0>
-4.16072

>  <SCORE.INTRA.norm>
-0.211314

>  <SCORE.RESTR>
0

>  <SCORE.RESTR.CAVITY>
0

>  <SCORE.RESTR.norm>
0

>  <SCORE.SYSTEM>
0

>  <SCORE.SYSTEM.CONST>
0

>  <SCORE.SYSTEM.DIHEDRAL>
0

>  <SCORE.SYSTEM.SOLV>
0

>  <SCORE.SYSTEM.norm>
0

>  <SCORE.heavy>
31

>  <SCORE.norm>
-0.477696

>  <RMSD>
3.721

$$$$
ligand
 OpenBabel11021811493D
libRbt.so/2013.1/901 2013/11/27
 31 33  0  0  0  0  0  0  0  0999 V2000
   -6.8958  -12.0759  -19.1363 C   0  0  2  0  0  0  0  0  0  0  0  0
   -5.6818  -12.5727  -19.7160 O   0  0  0  0  0  0  0  0  0  0  0  0
   -3.8358  -14.4112  -16.3195 C   0  0  2  0  0  0  0  0  0  0  0  0
   -2.8921  -15.1325  -15.5213 N   0  0  0  0  0  0  0  0  0  0  0  0
   -3.5632  -11.6178  -14.9623 C   0  0  2  0  0  0  0  0  0  0  0  0
   -8.0308  -12.3519  -20.1839 C   0  0  2  0  0  0  0  0  0  0  0  0
   -8.0898  -13.7787  -20.4816 N   0  0  0  0  0  0  0  0  0  0  0  0
   -4.3664  -15.3592  -17.4630 C   0  0  0  0  0  0  0  0  0  0  0  0
   -2.6494  -10.5860  -14.2319 C   0  0  2  0  0  0  0  0  0  0  0  0
   -2.0914   -9.7036  -15.1905 O   0  0  0  0  0  0  0  0  0  0  0  0
   -7.7623  -11.5236  -21.4884 C   0  0  0  0  0  0  0  0  0  0  0  0
   -5.4205  -14.5594  -18.3442 C   0  0  2  0  0  0  0  0  0  0  0  0
   -5.9250  -15.4401  -19.4236 N   0  0  0  0  0  0  0  0  0  0  0  0
   -1.5103  -11.4141  -13.4882 C   0  0  1  0  0  0  0  0  0  0  0  0
   -0.5593  -10.4903  -12.7813 N   0  0  0  0  0  0  0  0  0  0  0  0
   -7.4152  -10.0461  -21.1448 C   0  0  0  0  0  0  0  0  0  0  0  0
   -4.7238  -13.2678  -18.9650 C   0  0  2  0  0  0  0  0  0  0  0  0
   -2.1982  -12.4102  -12.3986 C   0  0  1  0  0  0  0  0  0  0  0  0
   -2.9342  -11.7015  -11.4203 O   0  0  0  0  0  0  0  0  0  0  0  0
   -6.9898   -9.7032  -19.9195 C   0  0  2  0  0  0  0  0  0  0  0  0
   -6.8267  -10.6474  -18.8468 O   0  0  0  0  0  0  0  0  0  0  0  0
   -4.1770  -12.3530  -17.7905 C   0  0  2  0  0  0  0  0  0  0  0  0
   -3.5260  -11.1990  -18.3368 O   0  0  0  0  0  0  0  0  0  0  0  0
   -3.1887  -13.3750  -13.1336 C   0  0  0  0  0  0  0  0  0  0  0  0
   -4.1727  -12.5684  -13.9642 O   0  0  0  0  0  0  0  0  0  0  0  0
   -6.6426   -8.2402  -19.5580 C   0  0  0  0  0  0  0  0  0  0  0  0
   -5.1959   -8.0807  -19.5117 N   0  0  0  0  0  0  0  0  0  0  0  0
   -3.1390  -13.1585  -16.9283 C   0  0  1  0  0  0  0  0  0  0  0  0
   -2.6818  -12.3176  -15.8963 O   0  0  0  0  0  0  0  0  0  0  0  0
   -1.2281  -13.2898  -11.5926 C   0  0  0  0  0  0  0  0  0  0  0  0
    0.7170  -10.2142  -13.4677 C   0  0  0  0  0  0  0  0  0  0  0  0
  1  2  1  6  0  0  0
  1  6  1  0  0  0  0
  1 21  1  0  0  0  0
  3  4  1  6  0  0  0
  3  8  1  0  0  0  0
  3 28  1  0  0  0  0
  5  9  1  0  0  0  0
  5 25  1  0  0  0  0
  5 29  1  6  0  0  0
  6  7  1  6  0  0  0
  6 11  1  0  0  0  0
  8 12  1  0  0  0  0
  9 10  1  6  0  0  0
  9 14  1  0  0  0  0
 11 16  1  0  0  0  0
 12 13  1  6  0  0  0
 12 17  1  0  0  0  0
 14 15  1  1  0  0  0
 14 18  1  0  0  0  0
 15 31  1  0  0  0  0
 16 20  1  0  0  0  0
 17  2  1  1  0  0  0
 17 22  1  0  0  0  0
 18 19  1  1  0  0  0
 18 24  1  0  0  0  0
 18 30  1  0  0  0  0
 20 21  1  0  0  0  0
 20 26  1  1  0  0  0
 22 23  1  6  0  0  0
 22 28  1  0  0  0  0
 24 25  1  0  0  0  0
 26 27  1  0  0  0  0
 28 29  1  1  0  0  0
M  END
>  <CHROM.1>
-139.23371587,-167.73067141,-100.14436220,59.04329691,-104.16940825,-65.47739397
-4.28227177,-12.02490588,-16.79461712,2.99008957,-0.93129138,-0.15020409

>  <Name>
ligand

>  <RI>
0

>  <Rbt.Current_Directory>
/home/itssahil/PROJECTS/Mol_Feturizer/New_Systems/rnas/4F8U

>  <Rbt.Executable>
rbdock ($Id: //depot/dev/client3/rdock/2013.1/src/exe/rbdock.cxx#4 $)

>  <Rbt.Library>
libRbt.so (2013.1, Build901 2013/11/27)

>  <Rbt.Parameter_File>
/export/apps/rDock/src/rDock_2013.1_src/data/scripts/dock_solv.prm

>  <Rbt.Receptor>
prm/pocket_docking_5.prm

>  <SCORE>
-8.40071

>  <SCORE.INTER>
-5.95596

>  <SCORE.INTER.CONST>
1

>  <SCORE.INTER.POLAR>
0

>  <SCORE.INTER.ROT>
6

>  <SCORE.INTER.SOLV>
15.477

>  <SCORE.INTER.VDW>
-16.7296

>  <SCORE.INTER.norm>
-0.192128

>  <SCORE.INTRA>
-2.44475

>  <SCORE.INTRA.DIHEDRAL>
-9.47888

>  <SCORE.INTRA.DIHEDRAL.0>
18.77

>  <SCORE.INTRA.POLAR>
0

>  <SCORE.INTRA.POLAR.0>
0

>  <SCORE.INTRA.REPUL>
0

>  <SCORE.INTRA.REPUL.0>
0

>  <SCORE.INTRA.SOLV>
3.14462

>  <SCORE.INTRA.SOLV.lig_0>
-77.2465

>  <SCORE.INTRA.VDW>
0.722378

>  <SCORE.INTRA.VDW.0>
-4.16072

>  <SCORE.INTRA.norm>
-0.0788631

>  <SCORE.RESTR>
0

>  <SCORE.RESTR.CAVITY>
0

>  <SCORE.RESTR.norm>
0

>  <SCORE.SYSTEM>
0

>  <SCORE.SYSTEM.CONST>
0

>  <SCORE.SYSTEM.DIHEDRAL>
0

>  <SCORE.SYSTEM.SOLV>
0

>  <SCORE.SYSTEM.norm>
0

>  <SCORE.heavy>
31

>  <SCORE.norm>
-0.270991

>  <RMSD>
3.758

$$$$
ligand
 OpenBabel11021811493D
libRbt.so/2013.1/901 2013/11/27
 31 33  0  0  0  0  0  0  0  0999 V2000
   -7.5068  -12.1605  -19.0913 C   0  0  2  0  0  0  0  0  0  0  0  0
   -6.1118  -12.4415  -18.9141 O   0  0  0  0  0  0  0  0  0  0  0  0
   -6.0774  -14.2507  -15.0347 C   0  0  2  0  0  0  0  0  0  0  0  0
   -5.5926  -14.7987  -13.8048 N   0  0  0  0  0  0  0  0  0  0  0  0
   -5.8365  -10.6373  -13.7696 C   0  0  2  0  0  0  0  0  0  0  0  0
   -7.9548  -12.9410  -20.3767 C   0  0  2  0  0  0  0  0  0  0  0  0
   -7.6824  -14.3642  -20.2085 N   0  0  0  0  0  0  0  0  0  0  0  0
   -5.4847  -15.0863  -16.2340 C   0  0  0  0  0  0  0  0  0  0  0  0
   -4.9402  -10.7054  -12.4948 C   0  0  2  0  0  0  0  0  0  0  0  0
   -3.7920  -11.4864  -12.7788 O   0  0  0  0  0  0  0  0  0  0  0  0
   -7.2009  -12.3762  -21.6306 C   0  0  0  0  0  0  0  0  0  0  0  0
   -6.0303  -14.4815  -17.5993 C   0  0  2  0  0  0  0  0  0  0  0  0
   -5.4784  -15.2581  -18.7340 N   0  0  0  0  0  0  0  0  0  0  0  0
   -5.8141  -11.3744  -11.3437 C   0  0  1  0  0  0  0  0  0  0  0  0
   -5.0122  -11.5102  -10.0805 N   0  0  0  0  0  0  0  0  0  0  0  0
   -7.2516  -10.8211  -21.6535 C   0  0  0  0  0  0  0  0  0  0  0  0
   -5.5980  -12.9522  -17.7140 C   0  0  2  0  0  0  0  0  0  0  0  0
   -7.1179  -10.4427  -11.0523 C   0  0  1  0  0  0  0  0  0  0  0  0
   -6.7582   -9.1417  -10.6292 O   0  0  0  0  0  0  0  0  0  0  0  0
   -7.5134  -10.1218  -20.5390 C   0  0  2  0  0  0  0  0  0  0  0  0
   -7.7667  -10.7349  -19.2628 O   0  0  0  0  0  0  0  0  0  0  0  0
   -6.1853  -12.1487  -16.4791 C   0  0  2  0  0  0  0  0  0  0  0  0
   -5.7828  -10.7754  -16.5577 O   0  0  0  0  0  0  0  0  0  0  0  0
   -7.9561  -10.3011  -12.3675 C   0  0  0  0  0  0  0  0  0  0  0  0
   -7.0654   -9.8089  -13.4958 O   0  0  0  0  0  0  0  0  0  0  0  0
   -7.5707   -8.5764  -20.5421 C   0  0  0  0  0  0  0  0  0  0  0  0
   -6.3533   -8.0431  -19.9471 N   0  0  0  0  0  0  0  0  0  0  0  0
   -5.6387  -12.7599  -15.1385 C   0  0  1  0  0  0  0  0  0  0  0  0
   -6.1846  -12.0259  -14.0688 O   0  0  0  0  0  0  0  0  0  0  0  0
   -8.0740  -10.9547   -9.9623 C   0  0  0  0  0  0  0  0  0  0  0  0
   -4.3253  -12.7998   -9.8765 C   0  0  0  0  0  0  0  0  0  0  0  0
  1  2  1  6  0  0  0
  1  6  1  0  0  0  0
  1 21  1  0  0  0  0
  3  4  1  1  0  0  0
  3  8  1  0  0  0  0
  3 28  1  0  0  0  0
  5  9  1  0  0  0  0
  5 25  1  0  0  0  0
  5 29  1  1  0  0  0
  6  7  1  1  0  0  0
  6 11  1  0  0  0  0
  8 12  1  0  0  0  0
  9 10  1  6  0  0  0
  9 14  1  0  0  0  0
 11 16  1  0  0  0  0
 12 13  1  6  0  0  0
 12 17  1  0  0  0  0
 14 15  1  1  0  0  0
 14 18  1  0  0  0  0
 15 31  1  0  0  0  0
 16 20  1  0  0  0  0
 17  2  1  6  0  0  0
 17 22  1  0  0  0  0
 18 19  1  1  0  0  0
 18 24  1  0  0  0  0
 18 30  1  0  0  0  0
 20 21  1  0  0  0  0
 20 26  1  6  0  0  0
 22 23  1  6  0  0  0
 22 28  1  0  0  0  0
 24 25  1  0  0  0  0
 26 27  1  0  0  0  0
 28 29  1  1  0  0  0
M  END
>  <CHROM.1>
-125.78294638,-106.61619879,-93.76493378,73.11631802,-103.80726748,171.99433234
-6.36900305,-11.78299937,-15.80993023,1.98982674,1.26522639,-2.03473215

>  <Name>
ligand

>  <RI>
0

>  <Rbt.Current_Directory>
/home/itssahil/PROJECTS/Mol_Feturizer/New_Systems/rnas/4F8U

>  <Rbt.Executable>
rbdock ($Id: //depot/dev/client3/rdock/2013.1/src/exe/rbdock.cxx#4 $)

>  <Rbt.Library>
libRbt.so (2013.1, Build901 2013/11/27)

>  <Rbt.Parameter_File>
/export/apps/rDock/src/rDock_2013.1_src/data/scripts/dock_solv.prm

>  <Rbt.Receptor>
prm/pocket_docking_8.prm

>  <SCORE>
-8.54757

>  <SCORE.INTER>
-9.80094

>  <SCORE.INTER.CONST>
1

>  <SCORE.INTER.POLAR>
0

>  <SCORE.INTER.ROT>
6

>  <SCORE.INTER.SOLV>
10.844

>  <SCORE.INTER.VDW>
-17.7486

>  <SCORE.INTER.norm>
-0.316159

>  <SCORE.INTRA>
1.25337

>  <SCORE.INTRA.DIHEDRAL>
-1.53174

>  <SCORE.INTRA.DIHEDRAL.0>
18.77

>  <SCORE.INTRA.POLAR>
0

>  <SCORE.INTRA.POLAR.0>
0

>  <SCORE.INTRA.REPUL>
0

>  <SCORE.INTRA.REPUL.0>
0

>  <SCORE.INTRA.SOLV>
1.65923

>  <SCORE.INTRA.SOLV.lig_0>
-77.2465

>  <SCORE.INTRA.VDW>
1.18962

>  <SCORE.INTRA.VDW.0>
-4.16072

>  <SCORE.INTRA.norm>
0.0404312

>  <SCORE.RESTR>
0

>  <SCORE.RESTR.CAVITY>
0

>  <SCORE.RESTR.norm>
0

>  <SCORE.SYSTEM>
0

>  <SCORE.SYSTEM.CONST>
0

>  <SCORE.SYSTEM.DIHEDRAL>
0

>  <SCORE.SYSTEM.SOLV>
0

>  <SCORE.SYSTEM.norm>
0

>  <SCORE.heavy>
31

>  <SCORE.norm>
-0.275728

>  <RMSD>
3.762

$$$$
ligand
 OpenBabel11021811493D
libRbt.so/2013.1/901 2013/11/27
 31 33  0  0  0  0  0  0  0  0999 V2000
   -7.7451  -12.0501  -19.0276 C   0  0  2  0  0  0  0  0  0  0  0  0
   -6.4031  -12.1592  -18.5340 O   0  0  0  0  0  0  0  0  0  0  0  0
   -4.6590  -11.7863  -14.6427 C   0  0  2  0  0  0  0  0  0  0  0  0
   -4.2095  -11.2049  -13.4147 N   0  0  0  0  0  0  0  0  0  0  0  0
   -6.9171  -13.7027  -13.5420 C   0  0  2  0  0  0  0  0  0  0  0  0
   -7.8666  -13.0771  -20.2076 C   0  0  2  0  0  0  0  0  0  0  0  0
   -7.5485  -14.4176  -19.7284 N   0  0  0  0  0  0  0  0  0  0  0  0
   -3.9221  -11.0761  -15.8429 C   0  0  0  0  0  0  0  0  0  0  0  0
   -7.8284  -13.9412  -12.2986 C   0  0  2  0  0  0  0  0  0  0  0  0
   -9.1032  -13.3726  -12.5446 O   0  0  0  0  0  0  0  0  0  0  0  0
   -6.9040  -12.6620  -21.3742 C   0  0  0  0  0  0  0  0  0  0  0  0
   -4.4163  -11.7281  -17.2059 C   0  0  2  0  0  0  0  0  0  0  0  0
   -3.7315  -11.0673  -18.3415 N   0  0  0  0  0  0  0  0  0  0  0  0
   -7.1202  -13.2377  -11.0578 C   0  0  1  0  0  0  0  0  0  0  0  0
   -7.9521  -13.3907   -9.8161 N   0  0  0  0  0  0  0  0  0  0  0  0
   -7.0441  -11.1458  -21.6950 C   0  0  0  0  0  0  0  0  0  0  0  0
   -5.9950  -11.5557  -17.3365 C   0  0  2  0  0  0  0  0  0  0  0  0
   -5.6634  -13.9240  -10.8139 C   0  0  1  0  0  0  0  0  0  0  0  0
   -5.7670  -15.3066  -10.5331 O   0  0  0  0  0  0  0  0  0  0  0  0
   -7.5748  -10.2968  -20.8021 C   0  0  2  0  0  0  0  0  0  0  0  0
   -8.0505  -10.7065  -19.5081 O   0  0  0  0  0  0  0  0  0  0  0  0
   -6.7014  -12.2549  -16.1005 C   0  0  2  0  0  0  0  0  0  0  0  0
   -8.1215  -12.0857  -16.1935 O   0  0  0  0  0  0  0  0  0  0  0  0
   -4.7940  -13.7642  -12.1065 C   0  0  0  0  0  0  0  0  0  0  0  0
   -5.5537  -14.3009  -13.3080 O   0  0  0  0  0  0  0  0  0  0  0  0
   -7.7250   -8.7873  -21.1033 C   0  0  0  0  0  0  0  0  0  0  0  0
   -6.7726   -8.0338  -20.2999 N   0  0  0  0  0  0  0  0  0  0  0  0
   -6.2007  -11.6011  -14.7620 C   0  0  1  0  0  0  0  0  0  0  0  0
   -6.8440  -12.2497  -13.6913 O   0  0  0  0  0  0  0  0  0  0  0  0
   -4.8429  -13.3514   -9.6462 C   0  0  0  0  0  0  0  0  0  0  0  0
   -9.0040  -12.3784   -9.6039 C   0  0  0  0  0  0  0  0  0  0  0  0
  1  2  1  6  0  0  0
  1  6  1  0  0  0  0
  1 21  1  0  0  0  0
  3  4  1  1  0  0  0
  3  8  1  0  0  0  0
  3 28  1  0  0  0  0
  5  9  1  0  0  0  0
  5 25  1  0  0  0  0
  5 29  1  1  0  0  0
  6  7  1  1  0  0  0
  6 11  1  0  0  0  0
  8 12  1  0  0  0  0
  9 10  1  6  0  0  0
  9 14  1  0  0  0  0
 11 16  1  0  0  0  0
 12 13  1  6  0  0  0
 12 17  1  0  0  0  0
 14 15  1  1  0  0  0
 14 18  1  0  0  0  0
 15 31  1  0  0  0  0
 16 20  1  0  0  0  0
 17  2  1  6  0  0  0
 17 22  1  0  0  0  0
 18 19  1  1  0  0  0
 18 24  1  0  0  0  0
 18 30  1  0  0  0  0
 20 21  1  0  0  0  0
 20 26  1  6  0  0  0
 22 23  1  6  0  0  0
 22 28  1  0  0  0  0
 24 25  1  0  0  0  0
 26 27  1  0  0  0  0
 28 29  1  1  0  0  0
M  END
>  <CHROM.1>
-169.01630644,-174.85279454,-85.99809023,-172.79499621,-108.93367437,-70.07519000
-6.56948310,-12.29191787,-15.60744079,1.61727633,-0.28656260,-1.28998183

>  <Name>
ligand

>  <RI>
0

>  <Rbt.Current_Directory>
/home/itssahil/PROJECTS/Mol_Feturizer/New_Systems/rnas/4F8U

>  <Rbt.Executable>
rbdock ($Id: //depot/dev/client3/rdock/2013.1/src/exe/rbdock.cxx#4 $)

>  <Rbt.Library>
libRbt.so (2013.1, Build901 2013/11/27)

>  <Rbt.Parameter_File>
/export/apps/rDock/src/rDock_2013.1_src/data/scripts/dock_solv.prm

>  <Rbt.Receptor>
prm/pocket_docking_5.prm

>  <SCORE>
-13.1852

>  <SCORE.INTER>
-6.81372

>  <SCORE.INTER.CONST>
1

>  <SCORE.INTER.POLAR>
0

>  <SCORE.INTER.ROT>
6

>  <SCORE.INTER.SOLV>
10.7243

>  <SCORE.INTER.VDW>
-15.7173

>  <SCORE.INTER.norm>
-0.219797

>  <SCORE.INTRA>
-6.37149

>  <SCORE.INTRA.DIHEDRAL>
-15.003

>  <SCORE.INTRA.DIHEDRAL.0>
18.77

>  <SCORE.INTRA.POLAR>
0

>  <SCORE.INTRA.POLAR.0>
0

>  <SCORE.INTRA.REPUL>
0

>  <SCORE.INTRA.REPUL.0>
0

>  <SCORE.INTRA.SOLV>
-0.462925

>  <SCORE.INTRA.SOLV.lig_0>
-77.2465

>  <SCORE.INTRA.VDW>
1.36147

>  <SCORE.INTRA.VDW.0>
-4.16072

>  <SCORE.INTRA.norm>
-0.205532

>  <SCORE.RESTR>
0

>  <SCORE.RESTR.CAVITY>
0

>  <SCORE.RESTR.norm>
0

>  <SCORE.SYSTEM>
0

>  <SCORE.SYSTEM.CONST>
0

>  <SCORE.SYSTEM.DIHEDRAL>
0

>  <SCORE.SYSTEM.SOLV>
0

>  <SCORE.SYSTEM.norm>
0

>  <SCORE.heavy>
31

>  <SCORE.norm>
-0.425329

>  <RMSD>
3.777

$$$$
ligand
 OpenBabel11021811493D
libRbt.so/2013.1/901 2013/11/27
 31 33  0  0  0  0  0  0  0  0999 V2000
   -7.7104  -11.4891  -19.7364 C   0  0  2  0  0  0  0  0  0  0  0  0
   -6.3420  -11.6895  -19.3572 O   0  0  0  0  0  0  0  0  0  0  0  0
   -3.3651  -10.2762  -16.6251 C   0  0  2  0  0  0  0  0  0  0  0  0
   -2.7672   -9.6835  -15.4678 N   0  0  0  0  0  0  0  0  0  0  0  0
   -2.3116  -13.1670  -16.2353 C   0  0  2  0  0  0  0  0  0  0  0  0
   -8.0302  -12.5728  -20.8252 C   0  0  2  0  0  0  0  0  0  0  0  0
   -7.7839  -13.9041  -20.2822 N   0  0  0  0  0  0  0  0  0  0  0  0
   -4.2679   -9.1988  -17.3409 C   0  0  0  0  0  0  0  0  0  0  0  0
   -1.9031  -14.3129  -15.2590 C   0  0  2  0  0  0  0  0  0  0  0  0
   -3.0227  -15.1539  -15.0398 O   0  0  0  0  0  0  0  0  0  0  0  0
   -7.1502  -12.3216  -22.0990 C   0  0  0  0  0  0  0  0  0  0  0  0
   -4.9253   -9.8560  -18.6306 C   0  0  2  0  0  0  0  0  0  0  0  0
   -5.7776   -8.8530  -19.3108 N   0  0  0  0  0  0  0  0  0  0  0  0
   -1.4321  -13.6255  -13.9018 C   0  0  1  0  0  0  0  0  0  0  0  0
   -1.0496  -14.6646  -12.8863 N   0  0  0  0  0  0  0  0  0  0  0  0
   -7.1900  -10.8220  -22.5128 C   0  0  0  0  0  0  0  0  0  0  0  0
   -5.7953  -11.1192  -18.1992 C   0  0  2  0  0  0  0  0  0  0  0  0
   -0.1459  -12.6728  -14.2032 C   0  0  1  0  0  0  0  0  0  0  0  0
    0.9465  -13.4036  -14.7261 O   0  0  0  0  0  0  0  0  0  0  0  0
   -7.5595   -9.8736  -21.6389 C   0  0  2  0  0  0  0  0  0  0  0  0
   -7.9440  -10.1561  -20.2820 O   0  0  0  0  0  0  0  0  0  0  0  0
   -4.8638  -12.1673  -17.4579 C   0  0  2  0  0  0  0  0  0  0  0  0
   -5.6401  -13.2983  -17.0429 O   0  0  0  0  0  0  0  0  0  0  0  0
   -0.5430  -11.5879  -15.2603 C   0  0  0  0  0  0  0  0  0  0  0  0
   -1.1365  -12.2578  -16.4882 O   0  0  0  0  0  0  0  0  0  0  0  0
   -7.6080   -8.3787  -22.0319 C   0  0  0  0  0  0  0  0  0  0  0  0
   -7.2669   -8.2345  -23.4401 N   0  0  0  0  0  0  0  0  0  0  0  0
   -4.2205  -11.5020  -16.1878 C   0  0  1  0  0  0  0  0  0  0  0  0
   -3.3994  -12.4584  -15.5618 O   0  0  0  0  0  0  0  0  0  0  0  0
    0.4317  -11.9274  -12.9886 C   0  0  0  0  0  0  0  0  0  0  0  0
   -1.6138  -14.4969  -11.5336 C   0  0  0  0  0  0  0  0  0  0  0  0
  1  2  1  6  0  0  0
  1  6  1  0  0  0  0
  1 21  1  0  0  0  0
  3  4  1  1  0  0  0
  3  8  1  0  0  0  0
  3 28  1  0  0  0  0
  5  9  1  0  0  0  0
  5 25  1  0  0  0  0
  5 29  1  1  0  0  0
  6  7  1  1  0  0  0
  6 11  1  0  0  0  0
  8 12  1  0  0  0  0
  9 10  1  1  0  0  0
  9 14  1  0  0  0  0
 11 16  1  0  0  0  0
 12 13  1  1  0  0  0
 12 17  1  0  0  0  0
 14 15  1  1  0  0  0
 14 18  1  0  0  0  0
 15 31  1  0  0  0  0
 16 20  1  0  0  0  0
 17  2  1  6  0  0  0
 17 22  1  0  0  0  0
 18 19  1  6  0  0  0
 18 24  1  0  0  0  0
 18 30  1  0  0  0  0
 20 21  1  0  0  0  0
 20 26  1  6  0  0  0
 22 23  1  1  0  0  0
 22 28  1  0  0  0  0
 24 25  1  0  0  0  0
 26 27  1  0  0  0  0
 28 29  1  6  0  0  0
M  END
>  <CHROM.1>
-164.89704071,-168.28455564,-131.97759648,-102.37400120,2.68580973,-63.68434609
-4.21340718,-11.80687279,-17.46945391,2.56369384,-0.71536257,-0.40633836

>  <Name>
ligand

>  <RI>
0

>  <Rbt.Current_Directory>
/home/itssahil/PROJECTS/Mol_Feturizer/New_Systems/rnas/4F8U

>  <Rbt.Executable>
rbdock ($Id: //depot/dev/client3/rdock/2013.1/src/exe/rbdock.cxx#4 $)

>  <Rbt.Library>
libRbt.so (2013.1, Build901 2013/11/27)

>  <Rbt.Parameter_File>
/export/apps/rDock/src/rDock_2013.1_src/data/scripts/dock_solv.prm

>  <Rbt.Receptor>
prm/pocket_docking_5.prm

>  <SCORE>
-12.1825

>  <SCORE.INTER>
-10.8764

>  <SCORE.INTER.CONST>
1

>  <SCORE.INTER.POLAR>
0

>  <SCORE.INTER.ROT>
6

>  <SCORE.INTER.SOLV>
14.2899

>  <SCORE.INTER.VDW>
-19.6142

>  <SCORE.INTER.norm>
-0.350851

>  <SCORE.INTRA>
-1.30607

>  <SCORE.INTRA.DIHEDRAL>
-8.42827

>  <SCORE.INTRA.DIHEDRAL.0>
18.77

>  <SCORE.INTRA.POLAR>
0

>  <SCORE.INTRA.POLAR.0>
0

>  <SCORE.INTRA.REPUL>
0

>  <SCORE.INTRA.REPUL.0>
0

>  <SCORE.INTRA.SOLV>
3.12869

>  <SCORE.INTRA.SOLV.lig_0>
-77.2465

>  <SCORE.INTRA.VDW>
1.34372

>  <SCORE.INTRA.VDW.0>
-4.16072

>  <SCORE.INTRA.norm>
-0.0421313

>  <SCORE.RESTR>
0

>  <SCORE.RESTR.CAVITY>
0

>  <SCORE.RESTR.norm>
0

>  <SCORE.SYSTEM>
0

>  <SCORE.SYSTEM.CONST>
0

>  <SCORE.SYSTEM.DIHEDRAL>
0

>  <SCORE.SYSTEM.SOLV>
0

>  <SCORE.SYSTEM.norm>
0

>  <SCORE.heavy>
31

>  <SCORE.norm>
-0.392983

>  <RMSD>
3.782

$$$$
ligand
 OpenBabel11021811493D
libRbt.so/2013.1/901 2013/11/27
 31 33  0  0  0  0  0  0  0  0999 V2000
   -8.2152  -11.7051  -17.7105 C   0  0  2  0  0  0  0  0  0  0  0  0
   -7.0733  -11.5403  -16.8588 O   0  0  0  0  0  0  0  0  0  0  0  0
   -6.7118  -11.1850  -12.6083 C   0  0  2  0  0  0  0  0  0  0  0  0
   -6.7307  -11.5257  -11.2186 N   0  0  0  0  0  0  0  0  0  0  0  0
   -4.0297  -12.2121  -11.4321 C   0  0  2  0  0  0  0  0  0  0  0  0
   -8.1859  -13.1938  -18.2054 C   0  0  2  0  0  0  0  0  0  0  0  0
   -8.2023  -14.0946  -17.0582 N   0  0  0  0  0  0  0  0  0  0  0  0
   -8.1590  -11.3866  -13.2026 C   0  0  0  0  0  0  0  0  0  0  0  0
   -2.5730  -11.6791  -11.2675 C   0  0  2  0  0  0  0  0  0  0  0  0
   -2.5621  -10.2827  -11.5101 O   0  0  0  0  0  0  0  0  0  0  0  0
   -6.9090  -13.4365  -19.0832 C   0  0  0  0  0  0  0  0  0  0  0  0
   -8.1385  -11.0002  -14.7445 C   0  0  2  0  0  0  0  0  0  0  0  0
   -9.4933  -11.1874  -15.3143 N   0  0  0  0  0  0  0  0  0  0  0  0
   -1.6702  -12.4492  -12.3297 C   0  0  1  0  0  0  0  0  0  0  0  0
   -0.2478  -11.9702  -12.2627 N   0  0  0  0  0  0  0  0  0  0  0  0
   -6.7363  -12.3030  -20.1352 C   0  0  0  0  0  0  0  0  0  0  0  0
   -7.0853  -11.9193  -15.5094 C   0  0  2  0  0  0  0  0  0  0  0  0
   -1.7129  -14.0458  -12.0101 C   0  0  1  0  0  0  0  0  0  0  0  0
   -1.2193  -14.3431  -10.7183 O   0  0  0  0  0  0  0  0  0  0  0  0
   -7.3432  -11.1168  -19.9787 C   0  0  2  0  0  0  0  0  0  0  0  0
   -8.1860  -10.8023  -18.8564 O   0  0  0  0  0  0  0  0  0  0  0  0
   -5.6492  -11.7138  -14.8683 C   0  0  2  0  0  0  0  0  0  0  0  0
   -4.6966  -12.5540  -15.5321 O   0  0  0  0  0  0  0  0  0  0  0  0
   -3.1947  -14.5474  -12.0810 C   0  0  0  0  0  0  0  0  0  0  0  0
   -4.0705  -13.6969  -11.1765 O   0  0  0  0  0  0  0  0  0  0  0  0
   -7.1860   -9.9790  -21.0143 C   0  0  0  0  0  0  0  0  0  0  0  0
   -6.5654   -8.8250  -20.3789 N   0  0  0  0  0  0  0  0  0  0  0  0
   -5.6870  -12.0976  -13.3448 C   0  0  1  0  0  0  0  0  0  0  0  0
   -4.3999  -11.8976  -12.8116 O   0  0  0  0  0  0  0  0  0  0  0  0
   -0.8902  -14.9377  -12.9546 C   0  0  0  0  0  0  0  0  0  0  0  0
    0.1532  -10.9670  -13.2672 C   0  0  0  0  0  0  0  0  0  0  0  0
  1  2  1  1  0  0  0
  1  6  1  0  0  0  0
  1 21  1  0  0  0  0
  3  4  1  1  0  0  0
  3  8  1  0  0  0  0
  3 28  1  0  0  0  0
  5  9  1  0  0  0  0
  5 25  1  0  0  0  0
  5 29  1  6  0  0  0
  6  7  1  1  0  0  0
  6 11  1  0  0  0  0
  8 12  1  0  0  0  0
  9 10  1  6  0  0  0
  9 14  1  0  0  0  0
 11 16  1  0  0  0  0
 12 13  1  6  0  0  0
 12 17  1  0  0  0  0
 14 15  1  1  0  0  0
 14 18  1  0  0  0  0
 15 31  1  0  0  0  0
 16 20  1  0  0  0  0
 17  2  1  6  0  0  0
 17 22  1  0  0  0  0
 18 19  1  1  0  0  0
 18 24  1  0  0  0  0
 18 30  1  0  0  0  0
 20 21  1  0  0  0  0
 20 26  1  6  0  0  0
 22 23  1  6  0  0  0
 22 28  1  0  0  0  0
 24 25  1  0  0  0  0
 26 27  1  0  0  0  0
 28 29  1  1  0  0  0
M  END
>  <CHROM.1>
-82.71324175,-173.88241291,-98.42180619,-64.84978845,-118.53967606,63.93429814
-5.22563391,-12.08729307,-14.79978587,2.24004906,0.12545797,-1.47028010

>  <Name>
ligand

>  <RI>
0

>  <Rbt.Current_Directory>
/home/itssahil/PROJECTS/Mol_Feturizer/New_Systems/rnas/4F8U

>  <Rbt.Executable>
rbdock ($Id: //depot/dev/client3/rdock/2013.1/src/exe/rbdock.cxx#4 $)

>  <Rbt.Library>
libRbt.so (2013.1, Build901 2013/11/27)

>  <Rbt.Parameter_File>
/export/apps/rDock/src/rDock_2013.1_src/data/scripts/dock_solv.prm

>  <Rbt.Receptor>
prm/pocket_docking_5.prm

>  <SCORE>
-11.0383

>  <SCORE.INTER>
-6.88603

>  <SCORE.INTER.CONST>
1

>  <SCORE.INTER.POLAR>
0

>  <SCORE.INTER.ROT>
6

>  <SCORE.INTER.SOLV>
10.874

>  <SCORE.INTER.VDW>
-15.8154

>  <SCORE.INTER.norm>
-0.22213

>  <SCORE.INTRA>
-4.15232

>  <SCORE.INTRA.DIHEDRAL>
-13.5923

>  <SCORE.INTRA.DIHEDRAL.0>
18.77

>  <SCORE.INTRA.POLAR>
0

>  <SCORE.INTRA.POLAR.0>
0

>  <SCORE.INTRA.REPUL>
0

>  <SCORE.INTRA.REPUL.0>
0

>  <SCORE.INTRA.SOLV>
2.02882

>  <SCORE.INTRA.SOLV.lig_0>
-77.2465

>  <SCORE.INTRA.VDW>
1.62944

>  <SCORE.INTRA.VDW.0>
-4.16072

>  <SCORE.INTRA.norm>
-0.133946

>  <SCORE.RESTR>
0

>  <SCORE.RESTR.CAVITY>
0

>  <SCORE.RESTR.norm>
0

>  <SCORE.SYSTEM>
0

>  <SCORE.SYSTEM.CONST>
0

>  <SCORE.SYSTEM.DIHEDRAL>
0

>  <SCORE.SYSTEM.SOLV>
0

>  <SCORE.SYSTEM.norm>
0

>  <SCORE.heavy>
31

>  <SCORE.norm>
-0.356076

>  <RMSD>
3.887

$$$$
ligand
 OpenBabel11021811493D
libRbt.so/2013.1/901 2013/11/27
 31 33  0  0  0  0  0  0  0  0999 V2000
   -7.8097  -11.7784  -18.9927 C   0  0  2  0  0  0  0  0  0  0  0  0
   -6.4758  -11.9043  -18.4814 O   0  0  0  0  0  0  0  0  0  0  0  0
   -4.6722  -11.4095  -14.6309 C   0  0  2  0  0  0  0  0  0  0  0  0
   -4.2169  -10.7927  -13.4225 N   0  0  0  0  0  0  0  0  0  0  0  0
   -8.2380  -11.7732  -13.2777 C   0  0  2  0  0  0  0  0  0  0  0  0
   -7.9638  -12.8791  -20.1003 C   0  0  2  0  0  0  0  0  0  0  0  0
   -7.7005  -14.1945  -19.5274 N   0  0  0  0  0  0  0  0  0  0  0  0
   -3.9774  -10.7021  -15.8577 C   0  0  0  0  0  0  0  0  0  0  0  0
   -8.3039  -12.0302  -11.7406 C   0  0  2  0  0  0  0  0  0  0  0  0
   -7.4971  -11.0721  -11.0772 O   0  0  0  0  0  0  0  0  0  0  0  0
   -6.9791  -12.5824  -21.2844 C   0  0  0  0  0  0  0  0  0  0  0  0
   -4.4780  -11.3933  -17.1990 C   0  0  2  0  0  0  0  0  0  0  0  0
   -3.8327  -10.7355  -18.3592 N   0  0  0  0  0  0  0  0  0  0  0  0
   -7.7599  -13.5056  -11.4892 C   0  0  1  0  0  0  0  0  0  0  0  0
   -7.7573  -13.8267  -10.0215 N   0  0  0  0  0  0  0  0  0  0  0  0
   -7.0587  -11.0877  -21.7099 C   0  0  0  0  0  0  0  0  0  0  0  0
   -6.0630  -11.2671  -17.3031 C   0  0  2  0  0  0  0  0  0  0  0  0
   -8.7174  -14.5685  -12.2679 C   0  0  1  0  0  0  0  0  0  0  0  0
  -10.0555  -14.5116  -11.8128 O   0  0  0  0  0  0  0  0  0  0  0  0
   -7.5615  -10.1595  -20.8820 C   0  0  2  0  0  0  0  0  0  0  0  0
   -8.0602  -10.4605  -19.5669 O   0  0  0  0  0  0  0  0  0  0  0  0
   -6.7269  -11.9619  -16.0413 C   0  0  2  0  0  0  0  0  0  0  0  0
   -8.1527  -11.8338  -16.1108 O   0  0  0  0  0  0  0  0  0  0  0  0
   -8.7202  -14.2366  -13.7983 C   0  0  0  0  0  0  0  0  0  0  0  0
   -9.0909  -12.7781  -14.0085 O   0  0  0  0  0  0  0  0  0  0  0  0
   -7.6515   -8.6698  -21.2875 C   0  0  0  0  0  0  0  0  0  0  0  0
   -6.7839   -7.8780  -20.4269 N   0  0  0  0  0  0  0  0  0  0  0  0
   -6.2205  -11.2692  -14.7248 C   0  0  1  0  0  0  0  0  0  0  0  0
   -6.8257  -11.9148  -13.6304 O   0  0  0  0  0  0  0  0  0  0  0  0
   -8.3230  -16.0482  -12.1291 C   0  0  0  0  0  0  0  0  0  0  0  0
   -6.5121  -14.4032   -9.4797 C   0  0  0  0  0  0  0  0  0  0  0  0
  1  2  1  6  0  0  0
  1  6  1  0  0  0  0
  1 21  1  0  0  0  0
  3  4  1  1  0  0  0
  3  8  1  0  0  0  0
  3 28  1  0  0  0  0
  5  9  1  0  0  0  0
  5 25  1  0  0  0  0
  5 29  1  6  0  0  0
  6  7  1  1  0  0  0
  6 11  1  0  0  0  0
  8 12  1  0  0  0  0
  9 10  1  1  0  0  0
  9 14  1  0  0  0  0
 11 16  1  0  0  0  0
 12 13  1  6  0  0  0
 12 17  1  0  0  0  0
 14 15  1  1  0  0  0
 14 18  1  0  0  0  0
 15 31  1  0  0  0  0
 16 20  1  0  0  0  0
 17  2  1  6  0  0  0
 17 22  1  0  0  0  0
 18 19  1  1  0  0  0
 18 24  1  0  0  0  0
 18 30  1  0  0  0  0
 20 21  1  0  0  0  0
 20 26  1  6  0  0  0
 22 23  1  6  0  0  0
 22 28  1  0  0  0  0
 24 25  1  0  0  0  0
 26 27  1  0  0  0  0
 28 29  1  1  0  0  0
M  END
>  <CHROM.1>
-167.08780449,-153.02751633,-131.15113786,-169.11840796,-115.23953044,168.48645997
-7.13144263,-12.06342201,-15.78750467,1.43122508,-0.70568919,-1.34976784

>  <Name>
ligand

>  <RI>
0

>  <Rbt.Current_Directory>
/home/itssahil/PROJECTS/Mol_Feturizer/New_Systems/rnas/4F8U

>  <Rbt.Executable>
rbdock ($Id: //depot/dev/client3/rdock/2013.1/src/exe/rbdock.cxx#4 $)

>  <Rbt.Library>
libRbt.so (2013.1, Build901 2013/11/27)

>  <Rbt.Parameter_File>
/export/apps/rDock/src/rDock_2013.1_src/data/scripts/dock_solv.prm

>  <Rbt.Receptor>
prm/pocket_docking_6.prm

>  <SCORE>
-10.3109

>  <SCORE.INTER>
-4.831

>  <SCORE.INTER.CONST>
1

>  <SCORE.INTER.POLAR>
0

>  <SCORE.INTER.ROT>
6

>  <SCORE.INTER.SOLV>
10.3289

>  <SCORE.INTER.VDW>
-14.2636

>  <SCORE.INTER.norm>
-0.155839

>  <SCORE.INTRA>
-5.47987

>  <SCORE.INTRA.DIHEDRAL>
-10.9303

>  <SCORE.INTRA.DIHEDRAL.0>
18.77

>  <SCORE.INTRA.POLAR>
0

>  <SCORE.INTRA.POLAR.0>
0

>  <SCORE.INTRA.REPUL>
0

>  <SCORE.INTRA.REPUL.0>
0

>  <SCORE.INTRA.SOLV>
-2.60712

>  <SCORE.INTRA.SOLV.lig_0>
-77.2465

>  <SCORE.INTRA.VDW>
1.28882

>  <SCORE.INTRA.VDW.0>
-4.16072

>  <SCORE.INTRA.norm>
-0.17677

>  <SCORE.RESTR>
0

>  <SCORE.RESTR.CAVITY>
0

>  <SCORE.RESTR.norm>
0

>  <SCORE.SYSTEM>
0

>  <SCORE.SYSTEM.CONST>
0

>  <SCORE.SYSTEM.DIHEDRAL>
0

>  <SCORE.SYSTEM.SOLV>
0

>  <SCORE.SYSTEM.norm>
0

>  <SCORE.heavy>
31

>  <SCORE.norm>
-0.332609

>  <RMSD>
3.912

$$$$
ligand
 OpenBabel11021811493D
libRbt.so/2013.1/901 2013/11/27
 31 33  0  0  0  0  0  0  0  0999 V2000
   -6.2710  -12.9181  -18.9613 C   0  0  2  0  0  0  0  0  0  0  0  0
   -6.8229  -11.8691  -18.1540 O   0  0  0  0  0  0  0  0  0  0  0  0
   -3.2678   -9.8952  -16.8165 C   0  0  2  0  0  0  0  0  0  0  0  0
   -2.4103   -8.9645  -16.1483 N   0  0  0  0  0  0  0  0  0  0  0  0
   -2.2545  -10.7538  -14.0243 C   0  0  2  0  0  0  0  0  0  0  0  0
   -7.4468  -13.4567  -19.8497 C   0  0  2  0  0  0  0  0  0  0  0  0
   -8.0035  -12.3668  -20.6434 N   0  0  0  0  0  0  0  0  0  0  0  0
   -4.2186   -9.1017  -17.7935 C   0  0  0  0  0  0  0  0  0  0  0  0
   -1.5778  -11.9293  -13.2539 C   0  0  2  0  0  0  0  0  0  0  0  0
   -0.9676  -12.8031  -14.1881 O   0  0  0  0  0  0  0  0  0  0  0  0
   -8.5498  -14.0991  -18.9384 C   0  0  0  0  0  0  0  0  0  0  0  0
   -5.1652  -10.1373  -18.5410 C   0  0  2  0  0  0  0  0  0  0  0  0
   -6.0647   -9.4026  -19.4610 N   0  0  0  0  0  0  0  0  0  0  0  0
   -2.7246  -12.6763  -12.4395 C   0  0  1  0  0  0  0  0  0  0  0  0
   -2.1629  -13.8507  -11.6893 N   0  0  0  0  0  0  0  0  0  0  0  0
   -7.9136  -15.0583  -17.8912 C   0  0  0  0  0  0  0  0  0  0  0  0
   -6.0169  -10.9504  -17.4675 C   0  0  2  0  0  0  0  0  0  0  0  0
   -3.3934  -11.6351  -11.3805 C   0  0  1  0  0  0  0  0  0  0  0  0
   -2.4481  -11.1401  -10.4519 O   0  0  0  0  0  0  0  0  0  0  0  0
   -6.6139  -14.9680  -17.5712 C   0  0  2  0  0  0  0  0  0  0  0  0
   -5.7211  -14.0043  -18.1570 O   0  0  0  0  0  0  0  0  0  0  0  0
   -5.0309  -11.7112  -16.4854 C   0  0  2  0  0  0  0  0  0  0  0  0
   -5.7850  -12.4274  -15.4992 O   0  0  0  0  0  0  0  0  0  0  0  0
   -3.9810  -10.4110  -12.1606 C   0  0  0  0  0  0  0  0  0  0  0  0
   -2.9100   -9.8063  -13.0528 O   0  0  0  0  0  0  0  0  0  0  0  0
   -5.9628  -15.9136  -16.5352 C   0  0  0  0  0  0  0  0  0  0  0  0
   -6.9866  -16.7586  -15.9367 N   0  0  0  0  0  0  0  0  0  0  0  0
   -4.1014  -10.6746  -15.7567 C   0  0  1  0  0  0  0  0  0  0  0  0
   -3.2400  -11.3860  -14.9006 O   0  0  0  0  0  0  0  0  0  0  0  0
   -4.5289  -12.2029  -10.5129 C   0  0  0  0  0  0  0  0  0  0  0  0
   -2.2116  -15.1531  -12.3804 C   0  0  0  0  0  0  0  0  0  0  0  0
  1  2  1  1  0  0  0
  1  6  1  0  0  0  0
  1 21  1  0  0  0  0
  3  4  1  1  0  0  0
  3  8  1  0  0  0  0
  3 28  1  0  0  0  0
  5  9  1  0  0  0  0
  5 25  1  0  0  0  0
  5 29  1  6  0  0  0
  6  7  1  1  0  0  0
  6 11  1  0  0  0  0
  8 12  1  0  0  0  0
  9 10  1  6  0  0  0
  9 14  1  0  0  0  0
 11 16  1  0  0  0  0
 12 13  1  6  0  0  0
 12 17  1  0  0  0  0
 14 15  1  1  0  0  0
 14 18  1  0  0  0  0
 15 31  1  0  0  0  0
 16 20  1  0  0  0  0
 17  2  1  6  0  0  0
 17 22  1  0  0  0  0
 18 19  1  1  0  0  0
 18 24  1  0  0  0  0
 18 30  1  0  0  0  0
 20 21  1  0  0  0  0
 20 26  1  6  0  0  0
 22 23  1  1  0  0  0
 22 28  1  0  0  0  0
 24 25  1  0  0  0  0
 26 27  1  0  0  0  0
 28 29  1  1  0  0  0
M  END
>  <CHROM.1>
-164.76626763,178.49989076,-92.85656632,61.92411026,-5.08497745,62.63473697
-4.64969400,-12.21727752,-15.66673076,-2.76628580,0.93363924,2.49916780

>  <Name>
ligand

>  <RI>
0

>  <Rbt.Current_Directory>
/home/itssahil/PROJECTS/Mol_Feturizer/New_Systems/rnas/4F8U

>  <Rbt.Executable>
rbdock ($Id: //depot/dev/client3/rdock/2013.1/src/exe/rbdock.cxx#4 $)

>  <Rbt.Library>
libRbt.so (2013.1, Build901 2013/11/27)

>  <Rbt.Parameter_File>
/export/apps/rDock/src/rDock_2013.1_src/data/scripts/dock_solv.prm

>  <Rbt.Receptor>
prm/pocket_docking_8.prm

>  <SCORE>
-8.15697

>  <SCORE.INTER>
-2.67715

>  <SCORE.INTER.CONST>
1

>  <SCORE.INTER.POLAR>
0

>  <SCORE.INTER.ROT>
6

>  <SCORE.INTER.SOLV>
14.7373

>  <SCORE.INTER.VDW>
-14.2972

>  <SCORE.INTER.norm>
-0.0863596

>  <SCORE.INTRA>
-5.47983

>  <SCORE.INTRA.DIHEDRAL>
-15.2122

>  <SCORE.INTRA.DIHEDRAL.0>
18.77

>  <SCORE.INTRA.POLAR>
0

>  <SCORE.INTRA.POLAR.0>
0

>  <SCORE.INTRA.REPUL>
0

>  <SCORE.INTRA.REPUL.0>
0

>  <SCORE.INTRA.SOLV>
0.479098

>  <SCORE.INTRA.SOLV.lig_0>
-77.2465

>  <SCORE.INTRA.VDW>
1.8867

>  <SCORE.INTRA.VDW.0>
-4.16072

>  <SCORE.INTRA.norm>
-0.176769

>  <SCORE.RESTR>
0

>  <SCORE.RESTR.CAVITY>
0

>  <SCORE.RESTR.norm>
0

>  <SCORE.SYSTEM>
0

>  <SCORE.SYSTEM.CONST>
0

>  <SCORE.SYSTEM.DIHEDRAL>
0

>  <SCORE.SYSTEM.SOLV>
0

>  <SCORE.SYSTEM.norm>
0

>  <SCORE.heavy>
31

>  <SCORE.norm>
-0.263128

>  <RMSD>
3.951

$$$$
ligand
 OpenBabel11021811493D
libRbt.so/2013.1/901 2013/11/27
 31 33  0  0  0  0  0  0  0  0999 V2000
   -5.6361  -10.6962  -17.9571 C   0  0  2  0  0  0  0  0  0  0  0  0
   -6.4647  -10.1382  -16.9283 O   0  0  0  0  0  0  0  0  0  0  0  0
   -6.3752  -10.5521  -12.6687 C   0  0  2  0  0  0  0  0  0  0  0  0
   -6.5196  -11.1230  -11.3643 N   0  0  0  0  0  0  0  0  0  0  0  0
   -3.8909  -11.9364  -11.5146 C   0  0  2  0  0  0  0  0  0  0  0  0
   -5.6410   -9.6623  -19.1374 C   0  0  2  0  0  0  0  0  0  0  0  0
   -5.1584   -8.3703  -18.6624 N   0  0  0  0  0  0  0  0  0  0  0  0
   -7.7886  -10.5138  -13.3678 C   0  0  0  0  0  0  0  0  0  0  0  0
   -2.3681  -11.7243  -11.2515 C   0  0  2  0  0  0  0  0  0  0  0  0
   -2.0697  -10.3426  -11.3547 O   0  0  0  0  0  0  0  0  0  0  0  0
   -7.0901   -9.5321  -19.7232 C   0  0  0  0  0  0  0  0  0  0  0  0
   -7.6283   -9.8722  -14.8135 C   0  0  2  0  0  0  0  0  0  0  0  0
   -8.9504   -9.8324  -15.4810 N   0  0  0  0  0  0  0  0  0  0  0  0
   -1.5818  -12.5614  -12.3548 C   0  0  1  0  0  0  0  0  0  0  0  0
   -0.0981  -12.3864  -12.1952 N   0  0  0  0  0  0  0  0  0  0  0  0
   -7.7179  -10.9351  -19.9653 C   0  0  0  0  0  0  0  0  0  0  0  0
   -6.6026  -10.7402  -15.6699 C   0  0  2  0  0  0  0  0  0  0  0  0
   -1.9547  -14.1389  -12.1957 C   0  0  1  0  0  0  0  0  0  0  0  0
   -1.5962  -14.6446  -10.9242 O   0  0  0  0  0  0  0  0  0  0  0  0
   -7.2389  -12.0231  -19.3435 C   0  0  2  0  0  0  0  0  0  0  0  0
   -6.1308  -11.9859  -18.4274 O   0  0  0  0  0  0  0  0  0  0  0  0
   -5.2031  -10.7819  -14.9247 C   0  0  2  0  0  0  0  0  0  0  0  0
   -4.2780  -11.5805  -15.6733 O   0  0  0  0  0  0  0  0  0  0  0  0
   -3.5007  -14.3237  -12.3633 C   0  0  0  0  0  0  0  0  0  0  0  0
   -4.2368  -13.3994  -11.4080 O   0  0  0  0  0  0  0  0  0  0  0  0
   -7.8475  -13.4262  -19.5731 C   0  0  0  0  0  0  0  0  0  0  0  0
   -6.8033  -14.3447  -20.0049 N   0  0  0  0  0  0  0  0  0  0  0  0
   -5.3792  -11.4160  -13.4976 C   0  0  1  0  0  0  0  0  0  0  0  0
   -4.1208  -11.4308  -12.8675 O   0  0  0  0  0  0  0  0  0  0  0  0
   -1.2768  -15.0892  -13.1965 C   0  0  0  0  0  0  0  0  0  0  0  0
    0.5637  -11.4926  -13.1645 C   0  0  0  0  0  0  0  0  0  0  0  0
  1  2  1  1  0  0  0
  1  6  1  0  0  0  0
  1 21  1  0  0  0  0
  3  4  1  1  0  0  0
  3  8  1  0  0  0  0
  3 28  1  0  0  0  0
  5  9  1  0  0  0  0
  5 25  1  0  0  0  0
  5 29  1  6  0  0  0
  6  7  1  1  0  0  0
  6 11  1  0  0  0  0
  8 12  1  0  0  0  0
  9 10  1  6  0  0  0
  9 14  1  0  0  0  0
 11 16  1  0  0  0  0
 12 13  1  6  0  0  0
 12 17  1  0  0  0  0
 14 15  1  1  0  0  0
 14 18  1  0  0  0  0
 15 31  1  0  0  0  0
 16 20  1  0  0  0  0
 17  2  1  6  0  0  0
 17 22  1  0  0  0  0
 18 19  1  1  0  0  0
 18 24  1  0  0  0  0
 18 30  1  0  0  0  0
 20 21  1  0  0  0  0
 20 26  1  6  0  0  0
 22 23  1  6  0  0  0
 22 28  1  0  0  0  0
 24 25  1  0  0  0  0
 26 27  1  0  0  0  0
 28 29  1  1  0  0  0
M  END
>  <CHROM.1>
-174.50151248,-179.06201331,-103.91668979,-178.20536770,124.52681373,60.05234549
-4.81755367,-11.66441010,-14.87823945,-2.31991834,-0.57411211,1.36395560

>  <Name>
ligand

>  <RI>
0

>  <Rbt.Current_Directory>
/home/itssahil/PROJECTS/Mol_Feturizer/New_Systems/rnas/4F8U

>  <Rbt.Executable>
rbdock ($Id: //depot/dev/client3/rdock/2013.1/src/exe/rbdock.cxx#4 $)

>  <Rbt.Library>
libRbt.so (2013.1, Build901 2013/11/27)

>  <Rbt.Parameter_File>
/export/apps/rDock/src/rDock_2013.1_src/data/scripts/dock_solv.prm

>  <Rbt.Receptor>
prm/pocket_docking_4.prm

>  <SCORE>
-12.6085

>  <SCORE.INTER>
-5.25523

>  <SCORE.INTER.CONST>
1

>  <SCORE.INTER.POLAR>
0

>  <SCORE.INTER.ROT>
6

>  <SCORE.INTER.SOLV>
16.1646

>  <SCORE.INTER.VDW>
-16.4917

>  <SCORE.INTER.norm>
-0.169523

>  <SCORE.INTRA>
-7.35327

>  <SCORE.INTRA.DIHEDRAL>
-15.8908

>  <SCORE.INTRA.DIHEDRAL.0>
18.77

>  <SCORE.INTRA.POLAR>
0

>  <SCORE.INTRA.POLAR.0>
0

>  <SCORE.INTRA.REPUL>
0

>  <SCORE.INTRA.REPUL.0>
0

>  <SCORE.INTRA.SOLV>
-1.70659

>  <SCORE.INTRA.SOLV.lig_0>
-77.2465

>  <SCORE.INTRA.VDW>
1.44541

>  <SCORE.INTRA.VDW.0>
-4.16072

>  <SCORE.INTRA.norm>
-0.237202

>  <SCORE.RESTR>
0

>  <SCORE.RESTR.CAVITY>
0

>  <SCORE.RESTR.norm>
0

>  <SCORE.SYSTEM>
0

>  <SCORE.SYSTEM.CONST>
0

>  <SCORE.SYSTEM.DIHEDRAL>
0

>  <SCORE.SYSTEM.SOLV>
0

>  <SCORE.SYSTEM.norm>
0

>  <SCORE.heavy>
31

>  <SCORE.norm>
-0.406726

>  <RMSD>
4.023

$$$$
ligand
 OpenBabel11021811493D
libRbt.so/2013.1/901 2013/11/27
 31 33  0  0  0  0  0  0  0  0999 V2000
   -8.3674  -11.6906  -17.5630 C   0  0  2  0  0  0  0  0  0  0  0  0
   -7.1760  -11.7088  -16.7651 O   0  0  0  0  0  0  0  0  0  0  0  0
   -6.5836  -10.6191  -12.6681 C   0  0  2  0  0  0  0  0  0  0  0  0
   -6.6180  -10.6721  -11.2384 N   0  0  0  0  0  0  0  0  0  0  0  0
   -4.1166  -12.0671  -11.3240 C   0  0  2  0  0  0  0  0  0  0  0  0
   -8.9224  -13.1582  -17.5616 C   0  0  2  0  0  0  0  0  0  0  0  0
   -9.1678  -13.5906  -16.1903 N   0  0  0  0  0  0  0  0  0  0  0  0
   -8.0634  -10.6249  -13.2142 C   0  0  0  0  0  0  0  0  0  0  0  0
   -2.6247  -11.6277  -11.2045 C   0  0  2  0  0  0  0  0  0  0  0  0
   -2.5186  -10.2561  -11.5455 O   0  0  0  0  0  0  0  0  0  0  0  0
   -7.8997  -14.1133  -18.2700 C   0  0  0  0  0  0  0  0  0  0  0  0
   -8.0241  -10.5580  -14.8021 C   0  0  2  0  0  0  0  0  0  0  0  0
   -9.4096  -10.5646  -15.3269 N   0  0  0  0  0  0  0  0  0  0  0  0
   -1.7883  -12.5324  -12.2136 C   0  0  1  0  0  0  0  0  0  0  0  0
   -0.3353  -12.1512  -12.1875 N   0  0  0  0  0  0  0  0  0  0  0  0
   -7.4168  -13.5056  -19.6186 C   0  0  0  0  0  0  0  0  0  0  0  0
   -7.2130  -11.8076  -15.3673 C   0  0  2  0  0  0  0  0  0  0  0  0
   -1.9394  -14.0954  -11.7813 C   0  0  1  0  0  0  0  0  0  0  0  0
   -1.4553  -14.3350  -10.4740 O   0  0  0  0  0  0  0  0  0  0  0  0
   -7.5361  -12.1927  -19.8670 C   0  0  2  0  0  0  0  0  0  0  0  0
   -8.1093  -11.2608  -18.9333 O   0  0  0  0  0  0  0  0  0  0  0  0
   -5.7415  -11.7868  -14.7760 C   0  0  2  0  0  0  0  0  0  0  0  0
   -5.0085  -12.9202  -15.2580 O   0  0  0  0  0  0  0  0  0  0  0  0
   -3.4532  -14.4953  -11.8095 C   0  0  0  0  0  0  0  0  0  0  0  0
   -4.2587  -13.5236  -10.9635 O   0  0  0  0  0  0  0  0  0  0  0  0
   -7.0646  -11.5704  -21.2020 C   0  0  0  0  0  0  0  0  0  0  0  0
   -8.0947  -10.6769  -21.7129 N   0  0  0  0  0  0  0  0  0  0  0  0
   -5.7979  -11.8511  -13.2068 C   0  0  1  0  0  0  0  0  0  0  0  0
   -4.4774  -11.8253  -12.7205 O   0  0  0  0  0  0  0  0  0  0  0  0
   -1.1902  -15.1074  -12.6640 C   0  0  0  0  0  0  0  0  0  0  0  0
    0.1243  -11.2491  -13.2604 C   0  0  0  0  0  0  0  0  0  0  0  0
  1  2  1  1  0  0  0
  1  6  1  0  0  0  0
  1 21  1  0  0  0  0
  3  4  1  1  0  0  0
  3  8  1  0  0  0  0
  3 28  1  0  0  0  0
  5  9  1  0  0  0  0
  5 25  1  0  0  0  0
  5 29  1  6  0  0  0
  6  7  1  1  0  0  0
  6 11  1  0  0  0  0
  8 12  1  0  0  0  0
  9 10  1  6  0  0  0
  9 14  1  0  0  0  0
 11 16  1  0  0  0  0
 12 13  1  6  0  0  0
 12 17  1  0  0  0  0
 14 15  1  1  0  0  0
 14 18  1  0  0  0  0
 15 31  1  0  0  0  0
 16 20  1  0  0  0  0
 17  2  1  6  0  0  0
 17 22  1  0  0  0  0
 18 19  1  1  0  0  0
 18 24  1  0  0  0  0
 18 30  1  0  0  0  0
 20 21  1  0  0  0  0
 20 26  1  6  0  0  0
 22 23  1  6  0  0  0
 22 28  1  0  0  0  0
 24 25  1  0  0  0  0
 26 27  1  0  0  0  0
 28 29  1  1  0  0  0
M  END
>  <CHROM.1>
-73.79789466,-167.79726452,-98.26383818,-59.97972264,133.58695150,70.18502297
-5.44604563,-12.20578927,-14.67947191,2.30975193,0.34132043,-1.76055859

>  <Name>
ligand

>  <RI>
0

>  <Rbt.Current_Directory>
/home/itssahil/PROJECTS/Mol_Feturizer/New_Systems/rnas/4F8U

>  <Rbt.Executable>
rbdock ($Id: //depot/dev/client3/rdock/2013.1/src/exe/rbdock.cxx#4 $)

>  <Rbt.Library>
libRbt.so (2013.1, Build901 2013/11/27)

>  <Rbt.Parameter_File>
/export/apps/rDock/src/rDock_2013.1_src/data/scripts/dock_solv.prm

>  <Rbt.Receptor>
prm/pocket_docking_5.prm

>  <SCORE>
-10.0042

>  <SCORE.INTER>
-6.55278

>  <SCORE.INTER.CONST>
1

>  <SCORE.INTER.POLAR>
0

>  <SCORE.INTER.ROT>
6

>  <SCORE.INTER.SOLV>
16.8168

>  <SCORE.INTER.VDW>
-17.5741

>  <SCORE.INTER.norm>
-0.21138

>  <SCORE.INTRA>
-3.45147

>  <SCORE.INTRA.DIHEDRAL>
-13.8931

>  <SCORE.INTRA.DIHEDRAL.0>
18.77

>  <SCORE.INTRA.POLAR>
0

>  <SCORE.INTRA.POLAR.0>
0

>  <SCORE.INTRA.REPUL>
0

>  <SCORE.INTRA.REPUL.0>
0

>  <SCORE.INTRA.SOLV>
3.00897

>  <SCORE.INTRA.SOLV.lig_0>
-77.2465

>  <SCORE.INTRA.VDW>
1.99059

>  <SCORE.INTRA.VDW.0>
-4.16072

>  <SCORE.INTRA.norm>
-0.111338

>  <SCORE.RESTR>
0

>  <SCORE.RESTR.CAVITY>
0

>  <SCORE.RESTR.norm>
0

>  <SCORE.SYSTEM>
0

>  <SCORE.SYSTEM.CONST>
0

>  <SCORE.SYSTEM.DIHEDRAL>
0

>  <SCORE.SYSTEM.SOLV>
0

>  <SCORE.SYSTEM.norm>
0

>  <SCORE.heavy>
31

>  <SCORE.norm>
-0.322718

>  <RMSD>
4.037

$$$$
ligand
 OpenBabel11021811493D
libRbt.so/2013.1/901 2013/11/27
 31 33  0  0  0  0  0  0  0  0999 V2000
   -5.5985  -10.7571  -18.1892 C   0  0  2  0  0  0  0  0  0  0  0  0
   -6.4344  -10.3464  -17.0988 O   0  0  0  0  0  0  0  0  0  0  0  0
   -6.2730  -11.0795  -12.8845 C   0  0  2  0  0  0  0  0  0  0  0  0
   -6.3417  -11.7639  -11.6296 N   0  0  0  0  0  0  0  0  0  0  0  0
   -3.6393  -12.2370  -11.8285 C   0  0  2  0  0  0  0  0  0  0  0  0
   -5.6771   -9.6138  -19.2610 C   0  0  2  0  0  0  0  0  0  0  0  0
   -5.2506   -8.3516  -18.6668 N   0  0  0  0  0  0  0  0  0  0  0  0
   -7.6849  -11.1538  -13.5838 C   0  0  0  0  0  0  0  0  0  0  0  0
   -2.1607  -11.8398  -11.5297 C   0  0  2  0  0  0  0  0  0  0  0  0
   -2.0539  -10.4265  -11.5264 O   0  0  0  0  0  0  0  0  0  0  0  0
   -7.1415   -9.5013  -19.8110 C   0  0  0  0  0  0  0  0  0  0  0  0
   -7.6095  -10.3864  -14.9741 C   0  0  2  0  0  0  0  0  0  0  0  0
   -8.9307  -10.4510  -15.6414 N   0  0  0  0  0  0  0  0  0  0  0  0
   -1.2635  -12.4765  -12.6812 C   0  0  1  0  0  0  0  0  0  0  0  0
    0.1817  -12.1135  -12.4890 N   0  0  0  0  0  0  0  0  0  0  0  0
   -7.7030  -10.9042  -20.1825 C   0  0  0  0  0  0  0  0  0  0  0  0
   -6.4932  -11.0572  -15.8921 C   0  0  2  0  0  0  0  0  0  0  0  0
   -1.4175  -14.0976  -12.6444 C   0  0  1  0  0  0  0  0  0  0  0  0
   -0.9974  -14.6440  -11.4091 O   0  0  0  0  0  0  0  0  0  0  0  0
   -7.1588  -12.0219  -19.6783 C   0  0  2  0  0  0  0  0  0  0  0  0
   -6.0369  -12.0180  -18.7783 O   0  0  0  0  0  0  0  0  0  0  0  0
   -5.0945  -10.9915  -15.1472 C   0  0  2  0  0  0  0  0  0  0  0  0
   -4.0857  -11.6140  -15.9528 O   0  0  0  0  0  0  0  0  0  0  0  0
   -2.9230  -14.4782  -12.8462 C   0  0  0  0  0  0  0  0  0  0  0  0
   -3.7819  -13.7374  -11.8352 O   0  0  0  0  0  0  0  0  0  0  0  0
   -7.7008  -13.4251  -20.0375 C   0  0  0  0  0  0  0  0  0  0  0  0
   -8.1124  -14.1135  -18.8221 N   0  0  0  0  0  0  0  0  0  0  0  0
   -5.1865  -11.7519  -13.7750 C   0  0  1  0  0  0  0  0  0  0  0  0
   -3.9317  -11.6672  -13.1432 O   0  0  0  0  0  0  0  0  0  0  0  0
   -0.6125  -14.8687  -13.7035 C   0  0  0  0  0  0  0  0  0  0  0  0
    0.6749  -10.9582  -13.2624 C   0  0  0  0  0  0  0  0  0  0  0  0
  1  2  1  1  0  0  0
  1  6  1  0  0  0  0
  1 21  1  0  0  0  0
  3  4  1  1  0  0  0
  3  8  1  0  0  0  0
  3 28  1  0  0  0  0
  5  9  1  0  0  0  0
  5 25  1  0  0  0  0
  5 29  1  6  0  0  0
  6  7  1  1  0  0  0
  6 11  1  0  0  0  0
  8 12  1  0  0  0  0
  9 10  1  6  0  0  0
  9 14  1  0  0  0  0
 11 16  1  0  0  0  0
 12 13  1  6  0  0  0
 12 17  1  0  0  0  0
 14 15  1  1  0  0  0
 14 18  1  0  0  0  0
 15 31  1  0  0  0  0
 16 20  1  0  0  0  0
 17  2  1  6  0  0  0
 17 22  1  0  0  0  0
 18 19  1  1  0  0  0
 18 24  1  0  0  0  0
 18 30  1  0  0  0  0
 20 21  1  0  0  0  0
 20 26  1  6  0  0  0
 22 23  1  6  0  0  0
 22 28  1  0  0  0  0
 24 25  1  0  0  0  0
 26 27  1  0  0  0  0
 28 29  1  1  0  0  0
M  END
>  <CHROM.1>
-172.87731363,-177.63774119,-96.69338340,-175.16047315,-121.35625876,59.52644102
-4.68135851,-11.78530873,-15.10332451,-2.27900936,-0.27303071,1.60716307

>  <Name>
ligand

>  <RI>
0

>  <Rbt.Current_Directory>
/home/itssahil/PROJECTS/Mol_Feturizer/New_Systems/rnas/4F8U

>  <Rbt.Executable>
rbdock ($Id: //depot/dev/client3/rdock/2013.1/src/exe/rbdock.cxx#4 $)

>  <Rbt.Library>
libRbt.so (2013.1, Build901 2013/11/27)

>  <Rbt.Parameter_File>
/export/apps/rDock/src/rDock_2013.1_src/data/scripts/dock_solv.prm

>  <Rbt.Receptor>
prm/pocket_docking_5.prm

>  <SCORE>
-12.8604

>  <SCORE.INTER>
-5.50162

>  <SCORE.INTER.CONST>
1

>  <SCORE.INTER.POLAR>
0

>  <SCORE.INTER.ROT>
6

>  <SCORE.INTER.SOLV>
14.7707

>  <SCORE.INTER.VDW>
-16.1913

>  <SCORE.INTER.norm>
-0.177472

>  <SCORE.INTRA>
-7.35878

>  <SCORE.INTRA.DIHEDRAL>
-15.8856

>  <SCORE.INTRA.DIHEDRAL.0>
18.77

>  <SCORE.INTRA.POLAR>
0

>  <SCORE.INTRA.POLAR.0>
0

>  <SCORE.INTRA.REPUL>
0

>  <SCORE.INTRA.REPUL.0>
0

>  <SCORE.INTRA.SOLV>
-1.55958

>  <SCORE.INTRA.SOLV.lig_0>
-77.2465

>  <SCORE.INTRA.VDW>
1.36381

>  <SCORE.INTRA.VDW.0>
-4.16072

>  <SCORE.INTRA.norm>
-0.23738

>  <SCORE.RESTR>
0

>  <SCORE.RESTR.CAVITY>
0

>  <SCORE.RESTR.norm>
0

>  <SCORE.SYSTEM>
0

>  <SCORE.SYSTEM.CONST>
0

>  <SCORE.SYSTEM.DIHEDRAL>
0

>  <SCORE.SYSTEM.SOLV>
0

>  <SCORE.SYSTEM.norm>
0

>  <SCORE.heavy>
31

>  <SCORE.norm>
-0.414852

>  <RMSD>
4.154

$$$$
ligand
 OpenBabel11021811493D
libRbt.so/2013.1/901 2013/11/27
 31 33  0  0  0  0  0  0  0  0999 V2000
   -5.5178  -10.4257  -18.9196 C   0  0  2  0  0  0  0  0  0  0  0  0
   -6.2494  -10.0585  -17.7422 O   0  0  0  0  0  0  0  0  0  0  0  0
   -5.1117  -10.3825  -13.6282 C   0  0  2  0  0  0  0  0  0  0  0  0
   -4.8691  -10.9447  -12.3348 N   0  0  0  0  0  0  0  0  0  0  0  0
   -2.2709  -11.3687  -13.0933 C   0  0  2  0  0  0  0  0  0  0  0  0
   -5.9978   -9.4579  -20.0576 C   0  0  2  0  0  0  0  0  0  0  0  0
   -5.7664   -8.0743  -19.6575 N   0  0  0  0  0  0  0  0  0  0  0  0
   -6.6414  -10.5460  -13.9766 C   0  0  0  0  0  0  0  0  0  0  0  0
   -0.7322  -11.3753  -13.3492 C   0  0  2  0  0  0  0  0  0  0  0  0
   -0.3209  -10.0718  -13.7242 O   0  0  0  0  0  0  0  0  0  0  0  0
   -7.5179   -9.7023  -20.3564 C   0  0  0  0  0  0  0  0  0  0  0  0
   -6.9111   -9.9140  -15.4102 C   0  0  2  0  0  0  0  0  0  0  0  0
   -8.3457  -10.0634  -15.7491 N   0  0  0  0  0  0  0  0  0  0  0  0
   -0.4571  -12.4189  -14.5203 C   0  0  1  0  0  0  0  0  0  0  0  0
    1.0065  -12.4648  -14.8564 N   0  0  0  0  0  0  0  0  0  0  0  0
   -7.8164  -11.2225  -20.5025 C   0  0  0  0  0  0  0  0  0  0  0  0
   -6.0071  -10.6515  -16.4954 C   0  0  2  0  0  0  0  0  0  0  0  0
   -0.9434  -13.8984  -14.0433 C   0  0  1  0  0  0  0  0  0  0  0  0
   -0.2513  -14.3401  -12.8914 O   0  0  0  0  0  0  0  0  0  0  0  0
   -6.9772  -12.1425  -20.0035 C   0  0  2  0  0  0  0  0  0  0  0  0
   -5.7602  -11.8099  -19.3127 O   0  0  0  0  0  0  0  0  0  0  0  0
   -4.4796  -10.4924  -16.0990 C   0  0  2  0  0  0  0  0  0  0  0  0
   -3.6566  -11.1727  -17.0549 O   0  0  0  0  0  0  0  0  0  0  0  0
   -2.4692  -13.8530  -13.6940 C   0  0  0  0  0  0  0  0  0  0  0  0
   -2.7352  -12.7445  -12.6895 O   0  0  0  0  0  0  0  0  0  0  0  0
   -7.2549  -13.6576  -20.1409 C   0  0  0  0  0  0  0  0  0  0  0  0
   -7.5324  -14.2225  -18.8277 N   0  0  0  0  0  0  0  0  0  0  0  0
   -4.2304  -11.1194  -14.6798 C   0  0  1  0  0  0  0  0  0  0  0  0
   -2.8692  -10.9545  -14.3619 O   0  0  0  0  0  0  0  0  0  0  0  0
   -0.7499  -15.0274  -15.0690 C   0  0  0  0  0  0  0  0  0  0  0  0
    1.9274  -12.7345  -13.7358 C   0  0  0  0  0  0  0  0  0  0  0  0
  1  2  1  1  0  0  0
  1  6  1  0  0  0  0
  1 21  1  0  0  0  0
  3  4  1  1  0  0  0
  3  8  1  0  0  0  0
  3 28  1  0  0  0  0
  5  9  1  0  0  0  0
  5 25  1  0  0  0  0
  5 29  1  6  0  0  0
  6  7  1  1  0  0  0
  6 11  1  0  0  0  0
  8 12  1  0  0  0  0
  9 10  1  6  0  0  0
  9 14  1  0  0  0  0
 11 16  1  0  0  0  0
 12 13  1  6  0  0  0
 12 17  1  0  0  0  0
 14 15  1  1  0  0  0
 14 18  1  0  0  0  0
 15 31  1  0  0  0  0
 16 20  1  0  0  0  0
 17  2  1  6  0  0  0
 17 22  1  0  0  0  0
 18 19  1  1  0  0  0
 18 24  1  0  0  0  0
 18 30  1  0  0  0  0
 20 21  1  0  0  0  0
 20 26  1  6  0  0  0
 22 23  1  6  0  0  0
 22 28  1  0  0  0  0
 24 25  1  0  0  0  0
 26 27  1  0  0  0  0
 28 29  1  1  0  0  0
M  END
>  <CHROM.1>
-175.25824737,164.09951063,54.44748225,175.26675140,-112.47578346,58.34493964
-4.06660334,-11.54454084,-16.01327272,-2.61101951,-0.54926636,1.15820554

>  <Name>
ligand

>  <RI>
0

>  <Rbt.Current_Directory>
/home/itssahil/PROJECTS/Mol_Feturizer/New_Systems/rnas/4F8U

>  <Rbt.Executable>
rbdock ($Id: //depot/dev/client3/rdock/2013.1/src/exe/rbdock.cxx#4 $)

>  <Rbt.Library>
libRbt.so (2013.1, Build901 2013/11/27)

>  <Rbt.Parameter_File>
/export/apps/rDock/src/rDock_2013.1_src/data/scripts/dock_solv.prm

>  <Rbt.Receptor>
prm/pocket_docking_4.prm

>  <SCORE>
-7.74158

>  <SCORE.INTER>
-3.21395

>  <SCORE.INTER.CONST>
1

>  <SCORE.INTER.POLAR>
0

>  <SCORE.INTER.ROT>
6

>  <SCORE.INTER.SOLV>
11.6016

>  <SCORE.INTER.VDW>
-13.6098

>  <SCORE.INTER.norm>
-0.103676

>  <SCORE.INTRA>
-4.52763

>  <SCORE.INTRA.DIHEDRAL>
-15.5765

>  <SCORE.INTRA.DIHEDRAL.0>
18.77

>  <SCORE.INTRA.POLAR>
0

>  <SCORE.INTRA.POLAR.0>
0

>  <SCORE.INTRA.REPUL>
0

>  <SCORE.INTRA.REPUL.0>
0

>  <SCORE.INTRA.SOLV>
-0.953728

>  <SCORE.INTRA.SOLV.lig_0>
-77.2465

>  <SCORE.INTRA.VDW>
3.73749

>  <SCORE.INTRA.VDW.0>
-4.16072

>  <SCORE.INTRA.norm>
-0.146053

>  <SCORE.RESTR>
0

>  <SCORE.RESTR.CAVITY>
0

>  <SCORE.RESTR.norm>
0

>  <SCORE.SYSTEM>
0

>  <SCORE.SYSTEM.CONST>
0

>  <SCORE.SYSTEM.DIHEDRAL>
0

>  <SCORE.SYSTEM.SOLV>
0

>  <SCORE.SYSTEM.norm>
0

>  <SCORE.heavy>
31

>  <SCORE.norm>
-0.249728

>  <RMSD>
4.174

$$$$
ligand
 OpenBabel11021811493D
libRbt.so/2013.1/901 2013/11/27
 31 33  0  0  0  0  0  0  0  0999 V2000
   -5.3894  -11.3310  -17.3727 C   0  0  2  0  0  0  0  0  0  0  0  0
   -5.8616  -10.5117  -16.2947 O   0  0  0  0  0  0  0  0  0  0  0  0
   -5.2468  -10.7468  -12.0650 C   0  0  2  0  0  0  0  0  0  0  0  0
   -5.3464  -11.1932  -10.7089 N   0  0  0  0  0  0  0  0  0  0  0  0
   -3.1392  -13.0457  -11.2828 C   0  0  2  0  0  0  0  0  0  0  0  0
   -5.4012  -10.4253  -18.6539 C   0  0  2  0  0  0  0  0  0  0  0  0
   -4.5684   -9.2483  -18.4326 N   0  0  0  0  0  0  0  0  0  0  0  0
   -6.6813  -10.3293  -12.5710 C   0  0  0  0  0  0  0  0  0  0  0  0
   -1.6668  -13.5427  -11.4184 C   0  0  2  0  0  0  0  0  0  0  0  0
   -0.8057  -12.4196  -11.4953 O   0  0  0  0  0  0  0  0  0  0  0  0
   -6.8738  -10.0069  -18.9948 C   0  0  0  0  0  0  0  0  0  0  0  0
   -6.5681   -9.8261  -14.0748 C   0  0  2  0  0  0  0  0  0  0  0  0
   -7.9108   -9.4325  -14.5619 N   0  0  0  0  0  0  0  0  0  0  0  0
   -1.5878  -14.4138  -12.7492 C   0  0  1  0  0  0  0  0  0  0  0  0
   -0.1875  -14.9083  -12.9767 N   0  0  0  0  0  0  0  0  0  0  0  0
   -7.8240  -11.2384  -18.9499 C   0  0  0  0  0  0  0  0  0  0  0  0
   -5.9708  -10.9917  -14.9823 C   0  0  2  0  0  0  0  0  0  0  0  0
   -2.5905  -15.6901  -12.6132 C   0  0  1  0  0  0  0  0  0  0  0  0
   -2.2463  -16.5233  -11.5231 O   0  0  0  0  0  0  0  0  0  0  0  0
   -7.4790  -12.3536  -18.2889 C   0  0  2  0  0  0  0  0  0  0  0  0
   -6.2321  -12.5027  -17.5876 O   0  0  0  0  0  0  0  0  0  0  0  0
   -4.5435  -11.4064  -14.4286 C   0  0  2  0  0  0  0  0  0  0  0  0
   -4.0056  -12.4717  -15.2222 O   0  0  0  0  0  0  0  0  0  0  0  0
   -4.0511  -15.1768  -12.3777 C   0  0  0  0  0  0  0  0  0  0  0  0
   -4.0775  -14.2219  -11.1960 O   0  0  0  0  0  0  0  0  0  0  0  0
   -8.4083  -13.5886  -18.2350 C   0  0  0  0  0  0  0  0  0  0  0  0
   -8.7243  -13.8996  -16.8479 N   0  0  0  0  0  0  0  0  0  0  0  0
   -4.6723  -11.8987  -12.9417 C   0  0  1  0  0  0  0  0  0  0  0  0
   -3.3886  -12.2516  -12.4853 O   0  0  0  0  0  0  0  0  0  0  0  0
   -2.6358  -16.6355  -13.8251 C   0  0  0  0  0  0  0  0  0  0  0  0
    0.7210  -13.9944  -13.6947 C   0  0  0  0  0  0  0  0  0  0  0  0
  1  2  1  1  0  0  0
  1  6  1  0  0  0  0
  1 21  1  0  0  0  0
  3  4  1  1  0  0  0
  3  8  1  0  0  0  0
  3 28  1  0  0  0  0
  5  9  1  0  0  0  0
  5 25  1  0  0  0  0
  5 29  1  6  0  0  0
  6  7  1  1  0  0  0
  6 11  1  0  0  0  0
  8 12  1  0  0  0  0
  9 10  1  6  0  0  0
  9 14  1  0  0  0  0
 11 16  1  0  0  0  0
 12 13  1  6  0  0  0
 12 17  1  0  0  0  0
 14 15  1  1  0  0  0
 14 18  1  0  0  0  0
 15 31  1  0  0  0  0
 16 20  1  0  0  0  0
 17  2  1  6  0  0  0
 17 22  1  0  0  0  0
 18 19  1  1  0  0  0
 18 24  1  0  0  0  0
 18 30  1  0  0  0  0
 20 21  1  0  0  0  0
 20 26  1  6  0  0  0
 22 23  1  6  0  0  0
 22 28  1  0  0  0  0
 24 25  1  0  0  0  0
 26 27  1  0  0  0  0
 28 29  1  1  0  0  0
M  END
>  <CHROM.1>
-179.30990746,163.13187052,-86.02512252,-178.23323313,-121.20095654,76.07501066
-4.58914882,-12.49027062,-14.46162198,-2.69302847,-0.82202963,1.11337742

>  <Name>
ligand

>  <RI>
0

>  <Rbt.Current_Directory>
/home/itssahil/PROJECTS/Mol_Feturizer/New_Systems/rnas/4F8U

>  <Rbt.Executable>
rbdock ($Id: //depot/dev/client3/rdock/2013.1/src/exe/rbdock.cxx#4 $)

>  <Rbt.Library>
libRbt.so (2013.1, Build901 2013/11/27)

>  <Rbt.Parameter_File>
/export/apps/rDock/src/rDock_2013.1_src/data/scripts/dock_solv.prm

>  <Rbt.Receptor>
prm/pocket_docking_4.prm

>  <SCORE>
-10.0149

>  <SCORE.INTER>
-3.1357

>  <SCORE.INTER.CONST>
1

>  <SCORE.INTER.POLAR>
0

>  <SCORE.INTER.ROT>
6

>  <SCORE.INTER.SOLV>
13.1021

>  <SCORE.INTER.VDW>
-14.0578

>  <SCORE.INTER.norm>
-0.101152

>  <SCORE.INTRA>
-6.87918

>  <SCORE.INTRA.DIHEDRAL>
-14.0737

>  <SCORE.INTRA.DIHEDRAL.0>
18.77

>  <SCORE.INTRA.POLAR>
0

>  <SCORE.INTRA.POLAR.0>
0

>  <SCORE.INTRA.REPUL>
0

>  <SCORE.INTRA.REPUL.0>
0

>  <SCORE.INTRA.SOLV>
-1.62725

>  <SCORE.INTRA.SOLV.lig_0>
-77.2465

>  <SCORE.INTRA.VDW>
0.971305

>  <SCORE.INTRA.VDW.0>
-4.16072

>  <SCORE.INTRA.norm>
-0.221909

>  <SCORE.RESTR>
0

>  <SCORE.RESTR.CAVITY>
0

>  <SCORE.RESTR.norm>
0

>  <SCORE.SYSTEM>
0

>  <SCORE.SYSTEM.CONST>
0

>  <SCORE.SYSTEM.DIHEDRAL>
0

>  <SCORE.SYSTEM.SOLV>
0

>  <SCORE.SYSTEM.norm>
0

>  <SCORE.heavy>
31

>  <SCORE.norm>
-0.323061

>  <RMSD>
4.195

$$$$
ligand
 OpenBabel11021811493D
libRbt.so/2013.1/901 2013/11/27
 31 33  0  0  0  0  0  0  0  0999 V2000
   -5.8435  -11.4649  -18.0571 C   0  0  2  0  0  0  0  0  0  0  0  0
   -6.7119  -10.9425  -17.0424 O   0  0  0  0  0  0  0  0  0  0  0  0
   -6.6185  -11.1663  -12.7687 C   0  0  2  0  0  0  0  0  0  0  0  0
   -6.7053  -11.6964  -11.4422 N   0  0  0  0  0  0  0  0  0  0  0  0
   -4.0041  -12.1518  -11.5321 C   0  0  2  0  0  0  0  0  0  0  0  0
   -5.8577  -10.4227  -19.2300 C   0  0  2  0  0  0  0  0  0  0  0  0
   -5.4285   -9.1191  -18.7357 N   0  0  0  0  0  0  0  0  0  0  0  0
   -8.0180  -11.3328  -13.4769 C   0  0  0  0  0  0  0  0  0  0  0  0
   -2.5427  -11.6845  -11.2504 C   0  0  2  0  0  0  0  0  0  0  0  0
   -2.4642  -10.2807  -11.4294 O   0  0  0  0  0  0  0  0  0  0  0  0
   -7.2975  -10.3360  -19.8458 C   0  0  0  0  0  0  0  0  0  0  0  0
   -7.9226  -10.7364  -14.9475 C   0  0  2  0  0  0  0  0  0  0  0  0
   -9.2320  -10.8889  -15.6237 N   0  0  0  0  0  0  0  0  0  0  0  0
   -1.6009  -12.4447  -12.2854 C   0  0  1  0  0  0  0  0  0  0  0  0
   -0.1692  -12.0260  -12.1056 N   0  0  0  0  0  0  0  0  0  0  0  0
   -7.8731  -11.7571  -20.1112 C   0  0  0  0  0  0  0  0  0  0  0  0
   -6.7878  -11.5046  -15.7605 C   0  0  2  0  0  0  0  0  0  0  0  0
   -1.7236  -14.0503  -12.0405 C   0  0  1  0  0  0  0  0  0  0  0  0
   -1.3278  -14.4210  -10.7340 O   0  0  0  0  0  0  0  0  0  0  0  0
   -7.3715  -12.8334  -19.4869 C   0  0  2  0  0  0  0  0  0  0  0  0
   -6.2849  -12.7666  -18.5468 O   0  0  0  0  0  0  0  0  0  0  0  0
   -5.4023  -11.3412  -15.0062 C   0  0  2  0  0  0  0  0  0  0  0  0
   -4.3771  -12.0487  -15.7151 O   0  0  0  0  0  0  0  0  0  0  0  0
   -3.2150  -14.4892  -12.2290 C   0  0  0  0  0  0  0  0  0  0  0  0
   -4.1166  -13.6431  -11.3459 O   0  0  0  0  0  0  0  0  0  0  0  0
   -7.9280  -14.2541  -19.7392 C   0  0  0  0  0  0  0  0  0  0  0  0
   -6.8239  -15.1759  -19.9662 N   0  0  0  0  0  0  0  0  0  0  0  0
   -5.5140  -11.9330  -13.5546 C   0  0  1  0  0  0  0  0  0  0  0  0
   -4.2705  -11.7652  -12.9172 O   0  0  0  0  0  0  0  0  0  0  0  0
   -0.8738  -14.9339  -12.9687 C   0  0  0  0  0  0  0  0  0  0  0  0
    0.4535  -11.3187  -13.2406 C   0  0  0  0  0  0  0  0  0  0  0  0
  1  2  1  1  0  0  0
  1  6  1  0  0  0  0
  1 21  1  0  0  0  0
  3  4  1  1  0  0  0
  3  8  1  0  0  0  0
  3 28  1  0  0  0  0
  5  9  1  0  0  0  0
  5 25  1  0  0  0  0
  5 29  1  6  0  0  0
  6  7  1  1  0  0  0
  6 11  1  0  0  0  0
  8 12  1  0  0  0  0
  9 10  1  6  0  0  0
  9 14  1  0  0  0  0
 11 16  1  0  0  0  0
 12 13  1  6  0  0  0
 12 17  1  0  0  0  0
 14 15  1  1  0  0  0
 14 18  1  0  0  0  0
 15 31  1  0  0  0  0
 16 20  1  0  0  0  0
 17  2  1  6  0  0  0
 17 22  1  0  0  0  0
 18 19  1  1  0  0  0
 18 24  1  0  0  0  0
 18 30  1  0  0  0  0
 20 21  1  0  0  0  0
 20 26  1  6  0  0  0
 22 23  1  6  0  0  0
 22 28  1  0  0  0  0
 24 25  1  0  0  0  0
 26 27  1  0  0  0  0
 28 29  1  1  0  0  0
M  END
>  <CHROM.1>
-170.03003726,-176.12492440,-115.74274572,-175.94464036,132.65026880,58.46681303
-4.92123660,-12.10810626,-14.91478311,-2.26253355,-0.39498750,1.39044069

>  <Name>
ligand

>  <RI>
0

>  <Rbt.Current_Directory>
/home/itssahil/PROJECTS/Mol_Feturizer/New_Systems/rnas/4F8U

>  <Rbt.Executable>
rbdock ($Id: //depot/dev/client3/rdock/2013.1/src/exe/rbdock.cxx#4 $)

>  <Rbt.Library>
libRbt.so (2013.1, Build901 2013/11/27)

>  <Rbt.Parameter_File>
/export/apps/rDock/src/rDock_2013.1_src/data/scripts/dock_solv.prm

>  <Rbt.Receptor>
prm/pocket_docking_5.prm

>  <SCORE>
-12.7244

>  <SCORE.INTER>
-5.81577

>  <SCORE.INTER.CONST>
1

>  <SCORE.INTER.POLAR>
0

>  <SCORE.INTER.ROT>
6

>  <SCORE.INTER.SOLV>
12.1309

>  <SCORE.INTER.VDW>
-15.5208

>  <SCORE.INTER.norm>
-0.187605

>  <SCORE.INTRA>
-6.90865

>  <SCORE.INTRA.DIHEDRAL>
-15.0524

>  <SCORE.INTRA.DIHEDRAL.0>
18.77

>  <SCORE.INTRA.POLAR>
0

>  <SCORE.INTRA.POLAR.0>
0

>  <SCORE.INTRA.REPUL>
0

>  <SCORE.INTRA.REPUL.0>
0

>  <SCORE.INTRA.SOLV>
-1.64073

>  <SCORE.INTRA.SOLV.lig_0>
-77.2465

>  <SCORE.INTRA.VDW>
1.43791

>  <SCORE.INTRA.VDW.0>
-4.16072

>  <SCORE.INTRA.norm>
-0.22286

>  <SCORE.RESTR>
0

>  <SCORE.RESTR.CAVITY>
0

>  <SCORE.RESTR.norm>
0

>  <SCORE.SYSTEM>
0

>  <SCORE.SYSTEM.CONST>
0

>  <SCORE.SYSTEM.DIHEDRAL>
0

>  <SCORE.SYSTEM.SOLV>
0

>  <SCORE.SYSTEM.norm>
0

>  <SCORE.heavy>
31

>  <SCORE.norm>
-0.410465

>  <RMSD>
4.295

$$$$
ligand
 OpenBabel11021811493D
libRbt.so/2013.1/901 2013/11/27
 31 33  0  0  0  0  0  0  0  0999 V2000
   -6.5041  -12.8690  -18.3405 C   0  0  2  0  0  0  0  0  0  0  0  0
   -5.5570  -13.7809  -18.9131 O   0  0  0  0  0  0  0  0  0  0  0  0
   -1.3735  -14.4896  -18.3477 C   0  0  2  0  0  0  0  0  0  0  0  0
    0.0424  -14.2814  -18.3410 N   0  0  0  0  0  0  0  0  0  0  0  0
   -0.2049  -13.2661  -15.7143 C   0  0  2  0  0  0  0  0  0  0  0  0
   -7.9231  -13.4885  -18.5948 C   0  0  2  0  0  0  0  0  0  0  0  0
   -7.9923  -14.8199  -18.0029 N   0  0  0  0  0  0  0  0  0  0  0  0
   -1.8991  -14.3722  -19.8303 C   0  0  0  0  0  0  0  0  0  0  0  0
   -0.0742  -13.8580  -14.2770 C   0  0  2  0  0  0  0  0  0  0  0  0
   -0.3365  -15.2500  -14.3252 O   0  0  0  0  0  0  0  0  0  0  0  0
   -8.2068  -13.5510  -20.1360 C   0  0  0  0  0  0  0  0  0  0  0  0
   -3.4707  -14.6116  -19.8375 C   0  0  2  0  0  0  0  0  0  0  0  0
   -3.9764  -14.5019  -21.2258 N   0  0  0  0  0  0  0  0  0  0  0  0
   -1.1417  -13.1081  -13.3635 C   0  0  1  0  0  0  0  0  0  0  0  0
   -1.1072  -13.6432  -11.9600 N   0  0  0  0  0  0  0  0  0  0  0  0
   -7.8568  -12.1973  -20.8190 C   0  0  0  0  0  0  0  0  0  0  0  0
   -4.1778  -13.5305  -18.9046 C   0  0  2  0  0  0  0  0  0  0  0  0
   -0.7990  -11.5160  -13.3378 C   0  0  1  0  0  0  0  0  0  0  0  0
    0.4877  -11.2572  -12.8103 O   0  0  0  0  0  0  0  0  0  0  0  0
   -7.0357  -11.3168  -20.2273 C   0  0  2  0  0  0  0  0  0  0  0  0
   -6.4286  -11.5421  -18.9430 O   0  0  0  0  0  0  0  0  0  0  0  0
   -3.6056  -13.6570  -17.4308 C   0  0  2  0  0  0  0  0  0  0  0  0
   -4.2164  -12.6729  -16.5867 O   0  0  0  0  0  0  0  0  0  0  0  0
   -0.8360  -10.9559  -14.7997 C   0  0  0  0  0  0  0  0  0  0  0  0
    0.0722  -11.7848  -15.6923 O   0  0  0  0  0  0  0  0  0  0  0  0
   -6.6780   -9.9654  -20.8887 C   0  0  0  0  0  0  0  0  0  0  0  0
   -6.8271   -8.8927  -19.9153 N   0  0  0  0  0  0  0  0  0  0  0  0
   -2.0520  -13.4202  -17.4414 C   0  0  1  0  0  0  0  0  0  0  0  0
   -1.5817  -13.5455  -16.1208 O   0  0  0  0  0  0  0  0  0  0  0  0
   -1.7456  -10.6430  -12.4973 C   0  0  0  0  0  0  0  0  0  0  0  0
   -2.4109  -13.8058  -11.2891 C   0  0  0  0  0  0  0  0  0  0  0  0
  1  2  1  6  0  0  0
  1  6  1  0  0  0  0
  1 21  1  0  0  0  0
  3  4  1  6  0  0  0
  3  8  1  0  0  0  0
  3 28  1  0  0  0  0
  5  9  1  0  0  0  0
  5 25  1  0  0  0  0
  5 29  1  1  0  0  0
  6  7  1  6  0  0  0
  6 11  1  0  0  0  0
  8 12  1  0  0  0  0
  9 10  1  6  0  0  0
  9 14  1  0  0  0  0
 11 16  1  0  0  0  0
 12 13  1  6  0  0  0
 12 17  1  0  0  0  0
 14 15  1  1  0  0  0
 14 18  1  0  0  0  0
 15 31  1  0  0  0  0
 16 20  1  0  0  0  0
 17  2  1  1  0  0  0
 17 22  1  0  0  0  0
 18 19  1  1  0  0  0
 18 24  1  0  0  0  0
 18 30  1  0  0  0  0
 20 21  1  0  0  0  0
 20 26  1  1  0  0  0
 22 23  1  1  0  0  0
 22 28  1  0  0  0  0
 24 25  1  0  0  0  0
 26 27  1  0  0  0  0
 28 29  1  1  0  0  0
M  END
>  <CHROM.1>
178.24157780,-166.93417455,-140.25642406,-170.23873495,132.35042403,66.85843001
-3.37777581,-12.91018403,-17.01657645,2.48188046,0.47902406,-2.05440609

>  <Name>
ligand

>  <RI>
0

>  <Rbt.Current_Directory>
/home/itssahil/PROJECTS/Mol_Feturizer/New_Systems/rnas/4F8U

>  <Rbt.Executable>
rbdock ($Id: //depot/dev/client3/rdock/2013.1/src/exe/rbdock.cxx#4 $)

>  <Rbt.Library>
libRbt.so (2013.1, Build901 2013/11/27)

>  <Rbt.Parameter_File>
/export/apps/rDock/src/rDock_2013.1_src/data/scripts/dock_solv.prm

>  <Rbt.Receptor>
prm/pocket_docking_8.prm

>  <SCORE>
-13.066

>  <SCORE.INTER>
-6.10288

>  <SCORE.INTER.CONST>
1

>  <SCORE.INTER.POLAR>
0

>  <SCORE.INTER.ROT>
6

>  <SCORE.INTER.SOLV>
12.6057

>  <SCORE.INTER.VDW>
-15.8705

>  <SCORE.INTER.norm>
-0.196867

>  <SCORE.INTRA>
-6.96308

>  <SCORE.INTRA.DIHEDRAL>
-14.485

>  <SCORE.INTRA.DIHEDRAL.0>
18.77

>  <SCORE.INTRA.POLAR>
0

>  <SCORE.INTRA.POLAR.0>
0

>  <SCORE.INTRA.REPUL>
0

>  <SCORE.INTRA.REPUL.0>
0

>  <SCORE.INTRA.SOLV>
-1.7453

>  <SCORE.INTRA.SOLV.lig_0>
-77.2465

>  <SCORE.INTRA.VDW>
1.15206

>  <SCORE.INTRA.VDW.0>
-4.16072

>  <SCORE.INTRA.norm>
-0.224615

>  <SCORE.RESTR>
0

>  <SCORE.RESTR.CAVITY>
0

>  <SCORE.RESTR.norm>
0

>  <SCORE.SYSTEM>
0

>  <SCORE.SYSTEM.CONST>
0

>  <SCORE.SYSTEM.DIHEDRAL>
0

>  <SCORE.SYSTEM.SOLV>
0

>  <SCORE.SYSTEM.norm>
0

>  <SCORE.heavy>
31

>  <SCORE.norm>
-0.421483

>  <RMSD>
4.305

$$$$
ligand
 OpenBabel11021811493D
libRbt.so/2013.1/901 2013/11/27
 31 33  0  0  0  0  0  0  0  0999 V2000
   -7.2313  -11.8009  -19.0663 C   0  0  2  0  0  0  0  0  0  0  0  0
   -5.8041  -11.9124  -19.1518 O   0  0  0  0  0  0  0  0  0  0  0  0
   -5.0566  -15.1339  -16.4339 C   0  0  2  0  0  0  0  0  0  0  0  0
   -4.3646  -16.1541  -15.7070 N   0  0  0  0  0  0  0  0  0  0  0  0
   -3.8610  -14.2553  -13.6852 C   0  0  2  0  0  0  0  0  0  0  0  0
   -7.6490  -10.6846  -20.0867 C   0  0  2  0  0  0  0  0  0  0  0  0
   -7.1896  -11.0428  -21.4240 N   0  0  0  0  0  0  0  0  0  0  0  0
   -4.9425  -15.4406  -17.9769 C   0  0  0  0  0  0  0  0  0  0  0  0
   -4.3203  -13.6166  -12.3382 C   0  0  2  0  0  0  0  0  0  0  0  0
   -5.7298  -13.7226  -12.2338 O   0  0  0  0  0  0  0  0  0  0  0  0
   -7.0449   -9.3068  -19.6431 C   0  0  0  0  0  0  0  0  0  0  0  0
   -5.7183  -14.3110  -18.7829 C   0  0  2  0  0  0  0  0  0  0  0  0
   -5.6164  -14.5879  -20.2348 N   0  0  0  0  0  0  0  0  0  0  0  0
   -3.8636  -12.0911  -12.3641 C   0  0  1  0  0  0  0  0  0  0  0  0
   -4.2977  -11.3866  -11.1101 N   0  0  0  0  0  0  0  0  0  0  0  0
   -7.2932   -9.0552  -18.1277 C   0  0  0  0  0  0  0  0  0  0  0  0
   -5.0862  -12.8877  -18.4460 C   0  0  2  0  0  0  0  0  0  0  0  0
   -2.2407  -12.0207  -12.4831 C   0  0  1  0  0  0  0  0  0  0  0  0
   -1.5994  -12.6514  -11.3914 O   0  0  0  0  0  0  0  0  0  0  0  0
   -7.5778  -10.0690  -17.2965 C   0  0  2  0  0  0  0  0  0  0  0  0
   -7.6788  -11.4381  -17.7257 O   0  0  0  0  0  0  0  0  0  0  0  0
   -5.1911  -12.6250  -16.8853 C   0  0  2  0  0  0  0  0  0  0  0  0
   -4.6035  -11.3575  -16.5658 O   0  0  0  0  0  0  0  0  0  0  0  0
   -1.7863  -12.7532  -13.7904 C   0  0  0  0  0  0  0  0  0  0  0  0
   -2.3631  -14.1586  -13.8208 O   0  0  0  0  0  0  0  0  0  0  0  0
   -7.8304   -9.8390  -15.7882 C   0  0  0  0  0  0  0  0  0  0  0  0
   -9.0942  -10.4538  -15.4072 N   0  0  0  0  0  0  0  0  0  0  0  0
   -4.4219  -13.7506  -16.1037 C   0  0  1  0  0  0  0  0  0  0  0  0
   -4.5420  -13.4866  -14.7264 O   0  0  0  0  0  0  0  0  0  0  0  0
   -1.6353  -10.6078  -12.5252 C   0  0  0  0  0  0  0  0  0  0  0  0
   -5.5737  -10.6497  -11.1815 C   0  0  0  0  0  0  0  0  0  0  0  0
  1  2  1  1  0  0  0
  1  6  1  0  0  0  0
  1 21  1  0  0  0  0
  3  4  1  1  0  0  0
  3  8  1  0  0  0  0
  3 28  1  0  0  0  0
  5  9  1  0  0  0  0
  5 25  1  0  0  0  0
  5 29  1  6  0  0  0
  6  7  1  6  0  0  0
  6 11  1  0  0  0  0
  8 12  1  0  0  0  0
  9 10  1  6  0  0  0
  9 14  1  0  0  0  0
 11 16  1  0  0  0  0
 12 13  1  6  0  0  0
 12 17  1  0  0  0  0
 14 15  1  1  0  0  0
 14 18  1  0  0  0  0
 15 31  1  0  0  0  0
 16 20  1  0  0  0  0
 17  2  1  6  0  0  0
 17 22  1  0  0  0  0
 18 19  1  1  0  0  0
 18 24  1  0  0  0  0
 18 30  1  0  0  0  0
 20 21  1  0  0  0  0
 20 26  1  6  0  0  0
 22 23  1  6  0  0  0
 22 28  1  0  0  0  0
 24 25  1  0  0  0  0
 26 27  1  0  0  0  0
 28 29  1  1  0  0  0
M  END
>  <CHROM.1>
-175.21842073,-178.85273197,-95.11163214,53.37848161,127.64679964,66.14557703
-5.18151718,-12.35424354,-15.84336735,2.45290061,0.90779579,-2.15423553

>  <Name>
ligand

>  <RI>
0

>  <Rbt.Current_Directory>
/home/itssahil/PROJECTS/Mol_Feturizer/New_Systems/rnas/4F8U

>  <Rbt.Executable>
rbdock ($Id: //depot/dev/client3/rdock/2013.1/src/exe/rbdock.cxx#4 $)

>  <Rbt.Library>
libRbt.so (2013.1, Build901 2013/11/27)

>  <Rbt.Parameter_File>
/export/apps/rDock/src/rDock_2013.1_src/data/scripts/dock_solv.prm

>  <Rbt.Receptor>
prm/pocket_docking_7.prm

>  <SCORE>
-9.48868

>  <SCORE.INTER>
-2.17883

>  <SCORE.INTER.CONST>
1

>  <SCORE.INTER.POLAR>
0

>  <SCORE.INTER.ROT>
6

>  <SCORE.INTER.SOLV>
11.2959

>  <SCORE.INTER.VDW>
-12.8179

>  <SCORE.INTER.norm>
-0.0702849

>  <SCORE.INTRA>
-7.30984

>  <SCORE.INTRA.DIHEDRAL>
-15.7337

>  <SCORE.INTRA.DIHEDRAL.0>
18.77

>  <SCORE.INTRA.POLAR>
0

>  <SCORE.INTRA.POLAR.0>
0

>  <SCORE.INTRA.REPUL>
0

>  <SCORE.INTRA.REPUL.0>
0

>  <SCORE.INTRA.SOLV>
-0.353238

>  <SCORE.INTRA.SOLV.lig_0>
-77.2465

>  <SCORE.INTRA.VDW>
0.733614

>  <SCORE.INTRA.VDW.0>
-4.16072

>  <SCORE.INTRA.norm>
-0.235801

>  <SCORE.RESTR>
0

>  <SCORE.RESTR.CAVITY>
0

>  <SCORE.RESTR.norm>
0

>  <SCORE.SYSTEM>
0

>  <SCORE.SYSTEM.CONST>
0

>  <SCORE.SYSTEM.DIHEDRAL>
0

>  <SCORE.SYSTEM.SOLV>
0

>  <SCORE.SYSTEM.norm>
0

>  <SCORE.heavy>
31

>  <SCORE.norm>
-0.306086

>  <RMSD>
4.353

$$$$
ligand
 OpenBabel11021811493D
libRbt.so/2013.1/901 2013/11/27
 31 33  0  0  0  0  0  0  0  0999 V2000
   -6.3870  -13.0113  -18.3350 C   0  0  2  0  0  0  0  0  0  0  0  0
   -5.4100  -13.9324  -18.8386 O   0  0  0  0  0  0  0  0  0  0  0  0
   -1.1953  -14.4768  -18.3254 C   0  0  2  0  0  0  0  0  0  0  0  0
    0.2121  -14.2184  -18.3483 N   0  0  0  0  0  0  0  0  0  0  0  0
   -0.0541  -13.0657  -15.7325 C   0  0  2  0  0  0  0  0  0  0  0  0
   -7.7582  -13.7740  -18.3423 C   0  0  2  0  0  0  0  0  0  0  0  0
   -7.6532  -14.9836  -17.5339 N   0  0  0  0  0  0  0  0  0  0  0  0
   -1.7485  -14.4187  -19.8015 C   0  0  0  0  0  0  0  0  0  0  0  0
    0.1535  -13.6419  -14.2979 C   0  0  2  0  0  0  0  0  0  0  0  0
    0.0296  -15.0531  -14.3447 O   0  0  0  0  0  0  0  0  0  0  0  0
   -8.1626  -14.1252  -19.8164 C   0  0  0  0  0  0  0  0  0  0  0  0
   -3.3104  -14.7137  -19.7756 C   0  0  2  0  0  0  0  0  0  0  0  0
   -3.8418  -14.6600  -21.1576 N   0  0  0  0  0  0  0  0  0  0  0  0
   -0.9708  -13.0015  -13.3694 C   0  0  1  0  0  0  0  0  0  0  0  0
   -0.8651  -13.5307  -11.9673 N   0  0  0  0  0  0  0  0  0  0  0  0
   -7.9988  -12.8878  -20.7456 C   0  0  0  0  0  0  0  0  0  0  0  0
   -4.0408  -13.6331  -18.8602 C   0  0  2  0  0  0  0  0  0  0  0  0
   -0.7871  -11.3833  -13.3460 C   0  0  1  0  0  0  0  0  0  0  0  0
    0.4745  -10.9985  -12.8350 O   0  0  0  0  0  0  0  0  0  0  0  0
   -7.2170  -11.8567  -20.3917 C   0  0  2  0  0  0  0  0  0  0  0  0
   -6.4864  -11.8075  -19.1537 O   0  0  0  0  0  0  0  0  0  0  0  0
   -3.4409  -13.6989  -17.3935 C   0  0  2  0  0  0  0  0  0  0  0  0
   -4.0730  -12.7143  -16.5658 O   0  0  0  0  0  0  0  0  0  0  0  0
   -0.8986  -10.8294  -14.8064 C   0  0  0  0  0  0  0  0  0  0  0  0
    0.0754  -11.5643  -15.7120 O   0  0  0  0  0  0  0  0  0  0  0  0
   -7.0435  -10.6171  -21.3000 C   0  0  0  0  0  0  0  0  0  0  0  0
   -7.3798   -9.4143  -20.5513 N   0  0  0  0  0  0  0  0  0  0  0  0
   -1.8972  -13.4077  -17.4367 C   0  0  1  0  0  0  0  0  0  0  0  0
   -1.4017  -13.4800  -16.1214 O   0  0  0  0  0  0  0  0  0  0  0  0
   -1.8043  -10.6084  -12.4920 C   0  0  0  0  0  0  0  0  0  0  0  0
   -1.5385  -14.8158  -11.7000 C   0  0  0  0  0  0  0  0  0  0  0  0
  1  2  1  6  0  0  0
  1  6  1  0  0  0  0
  1 21  1  0  0  0  0
  3  4  1  6  0  0  0
  3  8  1  0  0  0  0
  3 28  1  0  0  0  0
  5  9  1  0  0  0  0
  5 25  1  0  0  0  0
  5 29  1  1  0  0  0
  6  7  1  1  0  0  0
  6 11  1  0  0  0  0
  8 12  1  0  0  0  0
  9 10  1  6  0  0  0
  9 14  1  0  0  0  0
 11 16  1  0  0  0  0
 12 13  1  6  0  0  0
 12 17  1  0  0  0  0
 14 15  1  1  0  0  0
 14 18  1  0  0  0  0
 15 31  1  0  0  0  0
 16 20  1  0  0  0  0
 17  2  1  1  0  0  0
 17 22  1  0  0  0  0
 18 19  1  1  0  0  0
 18 24  1  0  0  0  0
 18 30  1  0  0  0  0
 20 21  1  0  0  0  0
 20 26  1  1  0  0  0
 22 23  1  1  0  0  0
 22 28  1  0  0  0  0
 24 25  1  0  0  0  0
 26 27  1  0  0  0  0
 28 29  1  1  0  0  0
M  END
>  <CHROM.1>
-174.07135156,-166.61795152,-84.59402311,-167.07999124,125.03750777,70.65091958
-3.27973630,-13.02979418,-17.03430664,2.47713175,0.42722943,-2.05250947

>  <Name>
ligand

>  <RI>
0

>  <Rbt.Current_Directory>
/home/itssahil/PROJECTS/Mol_Feturizer/New_Systems/rnas/4F8U

>  <Rbt.Executable>
rbdock ($Id: //depot/dev/client3/rdock/2013.1/src/exe/rbdock.cxx#4 $)

>  <Rbt.Library>
libRbt.so (2013.1, Build901 2013/11/27)

>  <Rbt.Parameter_File>
/export/apps/rDock/src/rDock_2013.1_src/data/scripts/dock_solv.prm

>  <Rbt.Receptor>
prm/pocket_docking_7.prm

>  <SCORE>
-13.4607

>  <SCORE.INTER>
-6.52493

>  <SCORE.INTER.CONST>
1

>  <SCORE.INTER.POLAR>
0

>  <SCORE.INTER.ROT>
6

>  <SCORE.INTER.SOLV>
14.2436

>  <SCORE.INTER.VDW>
-16.6978

>  <SCORE.INTER.norm>
-0.210482

>  <SCORE.INTRA>
-6.93579

>  <SCORE.INTRA.DIHEDRAL>
-14.2624

>  <SCORE.INTRA.DIHEDRAL.0>
18.77

>  <SCORE.INTRA.POLAR>
0

>  <SCORE.INTRA.POLAR.0>
0

>  <SCORE.INTRA.REPUL>
0

>  <SCORE.INTRA.REPUL.0>
0

>  <SCORE.INTRA.SOLV>
-1.63334

>  <SCORE.INTRA.SOLV.lig_0>
-77.2465

>  <SCORE.INTRA.VDW>
1.01207

>  <SCORE.INTRA.VDW.0>
-4.16072

>  <SCORE.INTRA.norm>
-0.223735

>  <SCORE.RESTR>
0

>  <SCORE.RESTR.CAVITY>
0

>  <SCORE.RESTR.norm>
0

>  <SCORE.SYSTEM>
0

>  <SCORE.SYSTEM.CONST>
0

>  <SCORE.SYSTEM.DIHEDRAL>
0

>  <SCORE.SYSTEM.SOLV>
0

>  <SCORE.SYSTEM.norm>
0

>  <SCORE.heavy>
31

>  <SCORE.norm>
-0.434217

>  <RMSD>
4.416

$$$$
ligand
 OpenBabel11021811493D
libRbt.so/2013.1/901 2013/11/27
 31 33  0  0  0  0  0  0  0  0999 V2000
   -7.3476  -13.6135  -16.2841 C   0  0  2  0  0  0  0  0  0  0  0  0
   -6.8085  -12.6982  -17.2475 O   0  0  0  0  0  0  0  0  0  0  0  0
   -3.0096  -10.7428  -17.5085 C   0  0  2  0  0  0  0  0  0  0  0  0
   -1.9351   -9.8381  -17.2345 N   0  0  0  0  0  0  0  0  0  0  0  0
   -0.9311  -11.7606  -15.3382 C   0  0  2  0  0  0  0  0  0  0  0  0
   -8.4262  -14.4660  -17.0401 C   0  0  2  0  0  0  0  0  0  0  0  0
   -7.8117  -15.1409  -18.1780 N   0  0  0  0  0  0  0  0  0  0  0  0
   -4.2872   -9.9101  -17.9111 C   0  0  0  0  0  0  0  0  0  0  0  0
    0.0386  -12.9635  -15.1241 C   0  0  2  0  0  0  0  0  0  0  0  0
    0.2819  -13.5883  -16.3728 O   0  0  0  0  0  0  0  0  0  0  0  0
   -9.6000  -13.5392  -17.5125 C   0  0  0  0  0  0  0  0  0  0  0  0
   -5.4778  -10.9164  -18.2228 C   0  0  2  0  0  0  0  0  0  0  0  0
   -6.6849  -10.1448  -18.6008 N   0  0  0  0  0  0  0  0  0  0  0  0
   -0.6760  -13.9666  -14.1144 C   0  0  1  0  0  0  0  0  0  0  0  0
    0.1799  -15.1782  -13.8764 N   0  0  0  0  0  0  0  0  0  0  0  0
  -10.0689  -12.6072  -16.3580 C   0  0  0  0  0  0  0  0  0  0  0  0
   -5.7723  -11.8074  -16.9351 C   0  0  2  0  0  0  0  0  0  0  0  0
   -0.9328  -13.2060  -12.6972 C   0  0  1  0  0  0  0  0  0  0  0  0
    0.2737  -12.7700  -12.1012 O   0  0  0  0  0  0  0  0  0  0  0  0
   -9.2770  -12.3615  -15.3034 C   0  0  2  0  0  0  0  0  0  0  0  0
   -7.9632  -12.9275  -15.1529 O   0  0  0  0  0  0  0  0  0  0  0  0
   -4.4604  -12.6073  -16.5415 C   0  0  2  0  0  0  0  0  0  0  0  0
   -4.7053  -13.3946  -15.3692 O   0  0  0  0  0  0  0  0  0  0  0  0
   -1.8261  -11.9435  -12.9429 C   0  0  0  0  0  0  0  0  0  0  0  0
   -1.2050  -11.0752  -14.0242 O   0  0  0  0  0  0  0  0  0  0  0  0
   -9.7259  -11.4405  -14.1450 C   0  0  0  0  0  0  0  0  0  0  0  0
   -9.5550  -12.1353  -12.8767 N   0  0  0  0  0  0  0  0  0  0  0  0
   -3.2935  -11.5991  -16.2389 C   0  0  1  0  0  0  0  0  0  0  0  0
   -2.1488  -12.3444  -15.8997 O   0  0  0  0  0  0  0  0  0  0  0  0
   -1.6244  -14.0414  -11.6072 C   0  0  0  0  0  0  0  0  0  0  0  0
    1.5990  -14.9259  -13.5623 C   0  0  0  0  0  0  0  0  0  0  0  0
  1  2  1  6  0  0  0
  1  6  1  0  0  0  0
  1 21  1  0  0  0  0
  3  4  1  1  0  0  0
  3  8  1  0  0  0  0
  3 28  1  0  0  0  0
  5  9  1  0  0  0  0
  5 25  1  0  0  0  0
  5 29  1  1  0  0  0
  6  7  1  6  0  0  0
  6 11  1  0  0  0  0
  8 12  1  0  0  0  0
  9 10  1  6  0  0  0
  9 14  1  0  0  0  0
 11 16  1  0  0  0  0
 12 13  1  1  0  0  0
 12 17  1  0  0  0  0
 14 15  1  1  0  0  0
 14 18  1  0  0  0  0
 15 31  1  0  0  0  0
 16 20  1  0  0  0  0
 17  2  1  6  0  0  0
 17 22  1  0  0  0  0
 18 19  1  1  0  0  0
 18 24  1  0  0  0  0
 18 30  1  0  0  0  0
 20 21  1  0  0  0  0
 20 26  1  1  0  0  0
 22 23  1  1  0  0  0
 22 28  1  0  0  0  0
 24 25  1  0  0  0  0
 26 27  1  0  0  0  0
 28 29  1  6  0  0  0
M  END
>  <CHROM.1>
-177.43112742,179.65040331,48.01030984,-177.78263144,127.75995999,71.49024627
-4.25338820,-12.58242176,-15.52842454,2.86481347,-0.08027931,-1.06485200

>  <Name>
ligand

>  <RI>
0

>  <Rbt.Current_Directory>
/home/itssahil/PROJECTS/Mol_Feturizer/New_Systems/rnas/4F8U

>  <Rbt.Executable>
rbdock ($Id: //depot/dev/client3/rdock/2013.1/src/exe/rbdock.cxx#4 $)

>  <Rbt.Library>
libRbt.so (2013.1, Build901 2013/11/27)

>  <Rbt.Parameter_File>
/export/apps/rDock/src/rDock_2013.1_src/data/scripts/dock_solv.prm

>  <Rbt.Receptor>
prm/pocket_docking_5.prm

>  <SCORE>
-6.01339

>  <SCORE.INTER>
0.160585

>  <SCORE.INTER.CONST>
1

>  <SCORE.INTER.POLAR>
0

>  <SCORE.INTER.ROT>
6

>  <SCORE.INTER.SOLV>
7.15908

>  <SCORE.INTER.VDW>
-9.8793

>  <SCORE.INTER.norm>
0.00518016

>  <SCORE.INTRA>
-6.17397

>  <SCORE.INTRA.DIHEDRAL>
-16.2041

>  <SCORE.INTRA.DIHEDRAL.0>
18.77

>  <SCORE.INTRA.POLAR>
0

>  <SCORE.INTRA.POLAR.0>
0

>  <SCORE.INTRA.REPUL>
0

>  <SCORE.INTRA.REPUL.0>
0

>  <SCORE.INTRA.SOLV>
-1.84627

>  <SCORE.INTRA.SOLV.lig_0>
-77.2465

>  <SCORE.INTRA.VDW>
2.85124

>  <SCORE.INTRA.VDW.0>
-4.16072

>  <SCORE.INTRA.norm>
-0.19916

>  <SCORE.RESTR>
0

>  <SCORE.RESTR.CAVITY>
0

>  <SCORE.RESTR.norm>
0

>  <SCORE.SYSTEM>
0

>  <SCORE.SYSTEM.CONST>
0

>  <SCORE.SYSTEM.DIHEDRAL>
0

>  <SCORE.SYSTEM.SOLV>
0

>  <SCORE.SYSTEM.norm>
0

>  <SCORE.heavy>
31

>  <SCORE.norm>
-0.19398

>  <RMSD>
4.535

$$$$
ligand
 OpenBabel11021811493D
libRbt.so/2013.1/901 2013/11/27
 31 33  0  0  0  0  0  0  0  0999 V2000
   -5.9369  -11.8213  -18.2052 C   0  0  2  0  0  0  0  0  0  0  0  0
   -6.9421  -11.5304  -17.2247 O   0  0  0  0  0  0  0  0  0  0  0  0
   -6.9398  -11.9180  -12.9617 C   0  0  2  0  0  0  0  0  0  0  0  0
   -6.9786  -12.5112  -11.6599 N   0  0  0  0  0  0  0  0  0  0  0  0
   -4.2581  -12.4817  -11.6544 C   0  0  2  0  0  0  0  0  0  0  0  0
   -6.1882  -10.8369  -19.4009 C   0  0  2  0  0  0  0  0  0  0  0  0
   -6.1308   -9.4592  -18.9250 N   0  0  0  0  0  0  0  0  0  0  0  0
   -8.2723  -12.2772  -13.7256 C   0  0  0  0  0  0  0  0  0  0  0  0
   -2.8763  -11.8388  -11.3219 C   0  0  2  0  0  0  0  0  0  0  0  0
   -2.9658  -10.4352  -11.4977 O   0  0  0  0  0  0  0  0  0  0  0  0
   -7.5811  -11.1404  -20.0548 C   0  0  0  0  0  0  0  0  0  0  0  0
   -8.2314  -11.6111  -15.1685 C   0  0  2  0  0  0  0  0  0  0  0  0
   -9.4783  -11.9433  -15.8966 N   0  0  0  0  0  0  0  0  0  0  0  0
   -1.8126  -12.4720  -12.3238 C   0  0  1  0  0  0  0  0  0  0  0  0
   -0.4507  -11.8804  -12.0943 N   0  0  0  0  0  0  0  0  0  0  0  0
   -7.7558  -12.6667  -20.3030 C   0  0  0  0  0  0  0  0  0  0  0  0
   -6.9637  -12.1515  -15.9682 C   0  0  2  0  0  0  0  0  0  0  0  0
   -1.7442  -14.0816  -12.0838 C   0  0  1  0  0  0  0  0  0  0  0  0
   -1.3509  -14.4065  -10.7645 O   0  0  0  0  0  0  0  0  0  0  0  0
   -7.0088  -13.5641  -19.6425 C   0  0  2  0  0  0  0  0  0  0  0  0
   -6.0066  -13.2004  -18.6770 O   0  0  0  0  0  0  0  0  0  0  0  0
   -5.6458  -11.7996  -15.1589 C   0  0  2  0  0  0  0  0  0  0  0  0
   -4.4991  -12.3022  -15.8563 O   0  0  0  0  0  0  0  0  0  0  0  0
   -3.1625  -14.7004  -12.3242 C   0  0  0  0  0  0  0  0  0  0  0  0
   -4.1917  -13.9764  -11.4727 O   0  0  0  0  0  0  0  0  0  0  0  0
   -7.1656  -15.0846  -19.8772 C   0  0  0  0  0  0  0  0  0  0  0  0
   -7.5046  -15.7384  -18.6210 N   0  0  0  0  0  0  0  0  0  0  0  0
   -5.7029  -12.4630  -13.7354 C   0  0  1  0  0  0  0  0  0  0  0  0
   -4.5224  -12.1246  -13.0478 O   0  0  0  0  0  0  0  0  0  0  0  0
   -0.7602  -14.8491  -12.9822 C   0  0  0  0  0  0  0  0  0  0  0  0
    0.0785  -11.0192  -13.1687 C   0  0  0  0  0  0  0  0  0  0  0  0
  1  2  1  1  0  0  0
  1  6  1  0  0  0  0
  1 21  1  0  0  0  0
  3  4  1  1  0  0  0
  3  8  1  0  0  0  0
  3 28  1  0  0  0  0
  5  9  1  0  0  0  0
  5 25  1  0  0  0  0
  5 29  1  6  0  0  0
  6  7  1  1  0  0  0
  6 11  1  0  0  0  0
  8 12  1  0  0  0  0
  9 10  1  6  0  0  0
  9 14  1  0  0  0  0
 11 16  1  0  0  0  0
 12 13  1  6  0  0  0
 12 17  1  0  0  0  0
 14 15  1  1  0  0  0
 14 18  1  0  0  0  0
 15 31  1  0  0  0  0
 16 20  1  0  0  0  0
 17  2  1  6  0  0  0
 17 22  1  0  0  0  0
 18 19  1  1  0  0  0
 18 24  1  0  0  0  0
 18 30  1  0  0  0  0
 20 21  1  0  0  0  0
 20 26  1  6  0  0  0
 22 23  1  6  0  0  0
 22 28  1  0  0  0  0
 24 25  1  0  0  0  0
 26 27  1  0  0  0  0
 28 29  1  1  0  0  0
M  END
>  <CHROM.1>
-174.99105458,-177.32530005,-111.63134336,-178.66032737,-121.57712388,56.22431892
-5.08439366,-12.53255164,-14.99968737,-2.21061490,-0.16618851,1.50632082

>  <Name>
ligand

>  <RI>
0

>  <Rbt.Current_Directory>
/home/itssahil/PROJECTS/Mol_Feturizer/New_Systems/rnas/4F8U

>  <Rbt.Executable>
rbdock ($Id: //depot/dev/client3/rdock/2013.1/src/exe/rbdock.cxx#4 $)

>  <Rbt.Library>
libRbt.so (2013.1, Build901 2013/11/27)

>  <Rbt.Parameter_File>
/export/apps/rDock/src/rDock_2013.1_src/data/scripts/dock_solv.prm

>  <Rbt.Receptor>
prm/pocket_docking_6.prm

>  <SCORE>
-12.5496

>  <SCORE.INTER>
-5.54214

>  <SCORE.INTER.CONST>
1

>  <SCORE.INTER.POLAR>
0

>  <SCORE.INTER.ROT>
6

>  <SCORE.INTER.SOLV>
8.97253

>  <SCORE.INTER.VDW>
-14.2856

>  <SCORE.INTER.norm>
-0.178779

>  <SCORE.INTRA>
-7.00745

>  <SCORE.INTRA.DIHEDRAL>
-15.7011

>  <SCORE.INTRA.DIHEDRAL.0>
18.77

>  <SCORE.INTRA.POLAR>
0

>  <SCORE.INTRA.POLAR.0>
0

>  <SCORE.INTRA.REPUL>
0

>  <SCORE.INTRA.REPUL.0>
0

>  <SCORE.INTRA.SOLV>
-1.49082

>  <SCORE.INTRA.SOLV.lig_0>
-77.2465

>  <SCORE.INTRA.VDW>
1.58852

>  <SCORE.INTRA.VDW.0>
-4.16072

>  <SCORE.INTRA.norm>
-0.226047

>  <SCORE.RESTR>
0

>  <SCORE.RESTR.CAVITY>
0

>  <SCORE.RESTR.norm>
0

>  <SCORE.SYSTEM>
0

>  <SCORE.SYSTEM.CONST>
0

>  <SCORE.SYSTEM.DIHEDRAL>
0

>  <SCORE.SYSTEM.SOLV>
0

>  <SCORE.SYSTEM.norm>
0

>  <SCORE.heavy>
31

>  <SCORE.norm>
-0.404826

>  <RMSD>
4.603

$$$$
ligand
 OpenBabel11021811493D
libRbt.so/2013.1/901 2013/11/27
 31 33  0  0  0  0  0  0  0  0999 V2000
   -5.8403  -11.6574  -17.9120 C   0  0  2  0  0  0  0  0  0  0  0  0
   -6.6531  -11.0726  -16.8855 O   0  0  0  0  0  0  0  0  0  0  0  0
   -6.8332  -11.8291  -12.6761 C   0  0  2  0  0  0  0  0  0  0  0  0
   -7.1271  -12.4703  -11.4310 N   0  0  0  0  0  0  0  0  0  0  0  0
   -4.6322  -13.8678  -11.6711 C   0  0  2  0  0  0  0  0  0  0  0  0
   -5.7248  -10.5831  -19.0497 C   0  0  2  0  0  0  0  0  0  0  0  0
   -5.1548   -9.3536  -18.5100 N   0  0  0  0  0  0  0  0  0  0  0  0
   -8.1883  -11.5112  -13.4183 C   0  0  0  0  0  0  0  0  0  0  0  0
   -3.1026  -13.9956  -11.3933 C   0  0  2  0  0  0  0  0  0  0  0  0
   -2.5612  -12.7022  -11.1864 O   0  0  0  0  0  0  0  0  0  0  0  0
   -7.1395  -10.3129  -19.6706 C   0  0  0  0  0  0  0  0  0  0  0  0
   -7.8609  -10.7917  -14.7976 C   0  0  2  0  0  0  0  0  0  0  0  0
   -9.1271  -10.4896  -15.5050 N   0  0  0  0  0  0  0  0  0  0  0  0
   -2.4514  -14.6885  -12.6708 C   0  0  1  0  0  0  0  0  0  0  0  0
   -0.9645  -14.8214  -12.5015 N   0  0  0  0  0  0  0  0  0  0  0  0
   -7.8704  -11.6499  -19.9862 C   0  0  0  0  0  0  0  0  0  0  0  0
   -6.9432  -11.7420  -15.6886 C   0  0  2  0  0  0  0  0  0  0  0  0
   -3.1022  -16.1687  -12.8663 C   0  0  1  0  0  0  0  0  0  0  0  0
   -2.8696  -17.0040  -11.7487 O   0  0  0  0  0  0  0  0  0  0  0  0
   -7.5004  -12.7960  -19.3951 C   0  0  2  0  0  0  0  0  0  0  0  0
   -6.4222  -12.8839  -18.4472 O   0  0  0  0  0  0  0  0  0  0  0  0
   -5.6046  -12.0645  -14.9013 C   0  0  2  0  0  0  0  0  0  0  0  0
   -4.7806  -12.9389  -15.6825 O   0  0  0  0  0  0  0  0  0  0  0  0
   -4.6520  -16.0322  -13.0446 C   0  0  0  0  0  0  0  0  0  0  0  0
   -5.2347  -15.2314  -11.8923 O   0  0  0  0  0  0  0  0  0  0  0  0
   -8.2125  -14.1351  -19.6976 C   0  0  0  0  0  0  0  0  0  0  0  0
   -7.2194  -15.1582  -19.9932 N   0  0  0  0  0  0  0  0  0  0  0  0
   -5.9455  -12.7727  -13.5404 C   0  0  1  0  0  0  0  0  0  0  0  0
   -4.7364  -13.0372  -12.8704 O   0  0  0  0  0  0  0  0  0  0  0  0
   -2.5802  -16.9739  -14.0678 C   0  0  0  0  0  0  0  0  0  0  0  0
   -0.1305  -14.2817  -13.5921 C   0  0  0  0  0  0  0  0  0  0  0  0
  1  2  1  1  0  0  0
  1  6  1  0  0  0  0
  1 21  1  0  0  0  0
  3  4  1  1  0  0  0
  3  8  1  0  0  0  0
  3 28  1  0  0  0  0
  5  9  1  0  0  0  0
  5 25  1  0  0  0  0
  5 29  1  6  0  0  0
  6  7  1  1  0  0  0
  6 11  1  0  0  0  0
  8 12  1  0  0  0  0
  9 10  1  6  0  0  0
  9 14  1  0  0  0  0
 11 16  1  0  0  0  0
 12 13  1  6  0  0  0
 12 17  1  0  0  0  0
 14 15  1  1  0  0  0
 14 18  1  0  0  0  0
 15 31  1  0  0  0  0
 16 20  1  0  0  0  0
 17  2  1  6  0  0  0
 17 22  1  0  0  0  0
 18 19  1  1  0  0  0
 18 24  1  0  0  0  0
 18 30  1  0  0  0  0
 20 21  1  0  0  0  0
 20 26  1  6  0  0  0
 22 23  1  6  0  0  0
 22 28  1  0  0  0  0
 24 25  1  0  0  0  0
 26 27  1  0  0  0  0
 28 29  1  1  0  0  0
M  END
>  <CHROM.1>
-178.35490535,173.94642357,-127.33049741,179.89851413,130.74228540,70.55171615
-5.35681556,-13.09407997,-15.03324646,-2.34710024,-0.76400109,1.44053688

>  <Name>
ligand

>  <RI>
0

>  <Rbt.Current_Directory>
/home/itssahil/PROJECTS/Mol_Feturizer/New_Systems/rnas/4F8U

>  <Rbt.Executable>
rbdock ($Id: //depot/dev/client3/rdock/2013.1/src/exe/rbdock.cxx#4 $)

>  <Rbt.Library>
libRbt.so (2013.1, Build901 2013/11/27)

>  <Rbt.Parameter_File>
/export/apps/rDock/src/rDock_2013.1_src/data/scripts/dock_solv.prm

>  <Rbt.Receptor>
prm/pocket_docking_8.prm

>  <SCORE>
-9.83885

>  <SCORE.INTER>
-2.37591

>  <SCORE.INTER.CONST>
1

>  <SCORE.INTER.POLAR>
0

>  <SCORE.INTER.ROT>
6

>  <SCORE.INTER.SOLV>
9.86216

>  <SCORE.INTER.VDW>
-12.4713

>  <SCORE.INTER.norm>
-0.0766424

>  <SCORE.INTRA>
-7.46294

>  <SCORE.INTRA.DIHEDRAL>
-15.0539

>  <SCORE.INTRA.DIHEDRAL.0>
18.77

>  <SCORE.INTRA.POLAR>
0

>  <SCORE.INTRA.POLAR.0>
0

>  <SCORE.INTRA.REPUL>
0

>  <SCORE.INTRA.REPUL.0>
0

>  <SCORE.INTRA.SOLV>
-1.96548

>  <SCORE.INTRA.SOLV.lig_0>
-77.2465

>  <SCORE.INTRA.VDW>
1.04675

>  <SCORE.INTRA.VDW.0>
-4.16072

>  <SCORE.INTRA.norm>
-0.24074

>  <SCORE.RESTR>
0

>  <SCORE.RESTR.CAVITY>
0

>  <SCORE.RESTR.norm>
0

>  <SCORE.SYSTEM>
0

>  <SCORE.SYSTEM.CONST>
0

>  <SCORE.SYSTEM.DIHEDRAL>
0

>  <SCORE.SYSTEM.SOLV>
0

>  <SCORE.SYSTEM.norm>
0

>  <SCORE.heavy>
31

>  <SCORE.norm>
-0.317382

>  <RMSD>
4.611

$$$$
ligand
 OpenBabel11021811493D
libRbt.so/2013.1/901 2013/11/27
 31 33  0  0  0  0  0  0  0  0999 V2000
   -6.5612  -11.7579  -18.1272 C   0  0  2  0  0  0  0  0  0  0  0  0
   -5.2721  -12.3099  -18.4270 O   0  0  0  0  0  0  0  0  0  0  0  0
   -5.2624  -15.7900  -15.9345 C   0  0  2  0  0  0  0  0  0  0  0  0
   -4.8266  -17.0003  -15.3073 N   0  0  0  0  0  0  0  0  0  0  0  0
   -3.7659  -15.4418  -13.2233 C   0  0  2  0  0  0  0  0  0  0  0  0
   -6.7945  -10.5965  -19.1561 C   0  0  2  0  0  0  0  0  0  0  0  0
   -6.7058  -11.1177  -20.5156 N   0  0  0  0  0  0  0  0  0  0  0  0
   -5.3053  -16.0116  -17.4957 C   0  0  0  0  0  0  0  0  0  0  0  0
   -4.0095  -14.8120  -11.8172 C   0  0  2  0  0  0  0  0  0  0  0  0
   -5.3959  -14.5654  -11.6557 O   0  0  0  0  0  0  0  0  0  0  0  0
   -5.7353   -9.4628  -18.9263 C   0  0  0  0  0  0  0  0  0  0  0  0
   -5.7971  -14.6690  -18.1907 C   0  0  2  0  0  0  0  0  0  0  0  0
   -5.8399  -14.8648  -19.6587 N   0  0  0  0  0  0  0  0  0  0  0  0
   -3.1789  -13.4543  -11.7625 C   0  0  1  0  0  0  0  0  0  0  0  0
   -3.3839  -12.7602  -10.4459 N   0  0  0  0  0  0  0  0  0  0  0  0
   -5.6273   -9.1034  -17.4162 C   0  0  0  0  0  0  0  0  0  0  0  0
   -4.8006  -13.4822  -17.8201 C   0  0  2  0  0  0  0  0  0  0  0  0
   -1.5958  -13.7880  -11.9507 C   0  0  1  0  0  0  0  0  0  0  0  0
   -1.1076  -14.6416  -10.9339 O   0  0  0  0  0  0  0  0  0  0  0  0
   -6.0545   -9.9544  -16.4711 C   0  0  2  0  0  0  0  0  0  0  0  0
   -6.6369  -11.2359  -16.7667 O   0  0  0  0  0  0  0  0  0  0  0  0
   -4.7594  -13.3066  -16.2443 C   0  0  2  0  0  0  0  0  0  0  0  0
   -3.8473  -12.2574  -15.8964 O   0  0  0  0  0  0  0  0  0  0  0  0
   -1.3797  -14.5101  -13.3233 C   0  0  0  0  0  0  0  0  0  0  0  0
   -2.2973  -15.7173  -13.4207 O   0  0  0  0  0  0  0  0  0  0  0  0
   -5.9581   -9.6144  -14.9655 C   0  0  0  0  0  0  0  0  0  0  0  0
   -7.2697   -9.7577  -14.3495 N   0  0  0  0  0  0  0  0  0  0  0  0
   -4.2740  -14.6420  -15.5729 C   0  0  1  0  0  0  0  0  0  0  0  0
   -4.2558  -14.4489  -14.1789 O   0  0  0  0  0  0  0  0  0  0  0  0
   -0.6506  -12.5754  -11.9264 C   0  0  0  0  0  0  0  0  0  0  0  0
   -4.4407  -11.7317  -10.4056 C   0  0  0  0  0  0  0  0  0  0  0  0
  1  2  1  6  0  0  0
  1  6  1  0  0  0  0
  1 21  1  0  0  0  0
  3  4  1  1  0  0  0
  3  8  1  0  0  0  0
  3 28  1  0  0  0  0
  5  9  1  0  0  0  0
  5 25  1  0  0  0  0
  5 29  1  6  0  0  0
  6  7  1  6  0  0  0
  6 11  1  0  0  0  0
  8 12  1  0  0  0  0
  9 10  1  6  0  0  0
  9 14  1  0  0  0  0
 11 16  1  0  0  0  0
 12 13  1  6  0  0  0
 12 17  1  0  0  0  0
 14 15  1  1  0  0  0
 14 18  1  0  0  0  0
 15 31  1  0  0  0  0
 16 20  1  0  0  0  0
 17  2  1  6  0  0  0
 17 22  1  0  0  0  0
 18 19  1  1  0  0  0
 18 24  1  0  0  0  0
 18 30  1  0  0  0  0
 20 21  1  0  0  0  0
 20 26  1  6  0  0  0
 22 23  1  6  0  0  0
 22 28  1  0  0  0  0
 24 25  1  0  0  0  0
 26 27  1  0  0  0  0
 28 29  1  1  0  0  0
M  END
>  <CHROM.1>
-171.58666741,-177.28930211,-94.45562350,60.68973454,126.03249549,65.33855424
-4.58422290,-13.07632688,-15.19151308,2.95483358,1.11091231,-2.54150873

>  <Name>
ligand

>  <RI>
0

>  <Rbt.Current_Directory>
/home/itssahil/PROJECTS/Mol_Feturizer/New_Systems/rnas/4F8U

>  <Rbt.Executable>
rbdock ($Id: //depot/dev/client3/rdock/2013.1/src/exe/rbdock.cxx#4 $)

>  <Rbt.Library>
libRbt.so (2013.1, Build901 2013/11/27)

>  <Rbt.Parameter_File>
/export/apps/rDock/src/rDock_2013.1_src/data/scripts/dock_solv.prm

>  <Rbt.Receptor>
prm/pocket_docking_7.prm

>  <SCORE>
-10.0673

>  <SCORE.INTER>
-2.89947

>  <SCORE.INTER.CONST>
1

>  <SCORE.INTER.POLAR>
0

>  <SCORE.INTER.ROT>
6

>  <SCORE.INTER.SOLV>
9.61058

>  <SCORE.INTER.VDW>
-12.7365

>  <SCORE.INTER.norm>
-0.0935313

>  <SCORE.INTRA>
-7.16785

>  <SCORE.INTRA.DIHEDRAL>
-15.7776

>  <SCORE.INTRA.DIHEDRAL.0>
18.77

>  <SCORE.INTRA.POLAR>
0

>  <SCORE.INTRA.POLAR.0>
0

>  <SCORE.INTRA.REPUL>
0

>  <SCORE.INTRA.REPUL.0>
0

>  <SCORE.INTRA.SOLV>
-0.177656

>  <SCORE.INTRA.SOLV.lig_0>
-77.2465

>  <SCORE.INTRA.VDW>
0.80978

>  <SCORE.INTRA.VDW.0>
-4.16072

>  <SCORE.INTRA.norm>
-0.231221

>  <SCORE.RESTR>
0

>  <SCORE.RESTR.CAVITY>
0

>  <SCORE.RESTR.norm>
0

>  <SCORE.SYSTEM>
0

>  <SCORE.SYSTEM.CONST>
0

>  <SCORE.SYSTEM.DIHEDRAL>
0

>  <SCORE.SYSTEM.SOLV>
0

>  <SCORE.SYSTEM.norm>
0

>  <SCORE.heavy>
31

>  <SCORE.norm>
-0.324752

>  <RMSD>
4.644

$$$$
ligand
 OpenBabel11021811493D
libRbt.so/2013.1/901 2013/11/27
 31 33  0  0  0  0  0  0  0  0999 V2000
   -5.9822  -12.0435  -18.1454 C   0  0  2  0  0  0  0  0  0  0  0  0
   -6.9579  -11.7225  -17.1446 O   0  0  0  0  0  0  0  0  0  0  0  0
   -6.9929  -12.1171  -12.8824 C   0  0  2  0  0  0  0  0  0  0  0  0
   -7.0288  -12.7134  -11.5819 N   0  0  0  0  0  0  0  0  0  0  0  0
   -4.3003  -12.6213  -11.5520 C   0  0  2  0  0  0  0  0  0  0  0  0
   -6.2572  -11.0822  -19.3547 C   0  0  2  0  0  0  0  0  0  0  0  0
   -6.1748   -9.6954  -18.9100 N   0  0  0  0  0  0  0  0  0  0  0  0
   -8.3051  -12.5149  -13.6621 C   0  0  0  0  0  0  0  0  0  0  0  0
   -2.9541  -11.9191  -11.1944 C   0  0  2  0  0  0  0  0  0  0  0  0
   -3.1099  -10.5184  -11.3447 O   0  0  0  0  0  0  0  0  0  0  0  0
   -7.6699  -11.3864  -19.9643 C   0  0  0  0  0  0  0  0  0  0  0  0
   -8.2678  -11.8454  -15.1036 C   0  0  2  0  0  0  0  0  0  0  0  0
   -9.4956  -12.2137  -15.8465 N   0  0  0  0  0  0  0  0  0  0  0  0
   -1.8525  -12.4811  -12.1978 C   0  0  1  0  0  0  0  0  0  0  0  0
   -0.5228  -11.8291  -11.9443 N   0  0  0  0  0  0  0  0  0  0  0  0
   -7.8646  -12.9159  -20.1750 C   0  0  0  0  0  0  0  0  0  0  0  0
   -6.9752  -12.3461  -15.8893 C   0  0  2  0  0  0  0  0  0  0  0  0
   -1.7085  -14.0898  -11.9874 C   0  0  1  0  0  0  0  0  0  0  0  0
   -1.3112  -14.4206  -10.6707 O   0  0  0  0  0  0  0  0  0  0  0  0
   -7.1079  -13.8061  -19.5157 C   0  0  2  0  0  0  0  0  0  0  0  0
   -6.0768  -13.4315  -18.5855 O   0  0  0  0  0  0  0  0  0  0  0  0
   -5.6779  -11.9561  -15.0644 C   0  0  2  0  0  0  0  0  0  0  0  0
   -4.5087  -12.4228  -15.7492 O   0  0  0  0  0  0  0  0  0  0  0  0
   -3.0931  -14.7715  -12.2527 C   0  0  0  0  0  0  0  0  0  0  0  0
   -4.1634  -14.1143  -11.3976 O   0  0  0  0  0  0  0  0  0  0  0  0
   -7.2844  -15.3297  -19.7136 C   0  0  0  0  0  0  0  0  0  0  0  0
   -7.5992  -15.9531  -18.4359 N   0  0  0  0  0  0  0  0  0  0  0  0
   -5.7314  -12.6233  -13.6425 C   0  0  1  0  0  0  0  0  0  0  0  0
   -4.5696  -12.2508  -12.9409 O   0  0  0  0  0  0  0  0  0  0  0  0
   -0.6808  -14.7916  -12.8906 C   0  0  0  0  0  0  0  0  0  0  0  0
    0.2279  -11.3885  -13.1353 C   0  0  0  0  0  0  0  0  0  0  0  0
  1  2  1  1  0  0  0
  1  6  1  0  0  0  0
  1 21  1  0  0  0  0
  3  4  1  1  0  0  0
  3  8  1  0  0  0  0
  3 28  1  0  0  0  0
  5  9  1  0  0  0  0
  5 25  1  0  0  0  0
  5 29  1  6  0  0  0
  6  7  1  1  0  0  0
  6 11  1  0  0  0  0
  8 12  1  0  0  0  0
  9 10  1  6  0  0  0
  9 14  1  0  0  0  0
 11 16  1  0  0  0  0
 12 13  1  6  0  0  0
 12 17  1  0  0  0  0
 14 15  1  1  0  0  0
 14 18  1  0  0  0  0
 15 31  1  0  0  0  0
 16 20  1  0  0  0  0
 17  2  1  6  0  0  0
 17 22  1  0  0  0  0
 18 19  1  1  0  0  0
 18 24  1  0  0  0  0
 18 30  1  0  0  0  0
 20 21  1  0  0  0  0
 20 26  1  6  0  0  0
 22 23  1  6  0  0  0
 22 28  1  0  0  0  0
 24 25  1  0  0  0  0
 26 27  1  0  0  0  0
 28 29  1  1  0  0  0
M  END
>  <CHROM.1>
-176.96033487,-176.79247635,-135.56601601,-174.63806374,-121.39765290,57.30668153
-5.11735873,-12.69420393,-14.90524519,-2.21569950,-0.11815856,1.51560608

>  <Name>
ligand

>  <RI>
0

>  <Rbt.Current_Directory>
/home/itssahil/PROJECTS/Mol_Feturizer/New_Systems/rnas/4F8U

>  <Rbt.Executable>
rbdock ($Id: //depot/dev/client3/rdock/2013.1/src/exe/rbdock.cxx#4 $)

>  <Rbt.Library>
libRbt.so (2013.1, Build901 2013/11/27)

>  <Rbt.Parameter_File>
/export/apps/rDock/src/rDock_2013.1_src/data/scripts/dock_solv.prm

>  <Rbt.Receptor>
prm/pocket_docking_6.prm

>  <SCORE>
-12.8697

>  <SCORE.INTER>
-5.71471

>  <SCORE.INTER.CONST>
1

>  <SCORE.INTER.POLAR>
0

>  <SCORE.INTER.ROT>
6

>  <SCORE.INTER.SOLV>
8.64456

>  <SCORE.INTER.VDW>
-14.2913

>  <SCORE.INTER.norm>
-0.184346

>  <SCORE.INTRA>
-7.15495

>  <SCORE.INTRA.DIHEDRAL>
-15.7982

>  <SCORE.INTRA.DIHEDRAL.0>
18.77

>  <SCORE.INTRA.POLAR>
0

>  <SCORE.INTRA.POLAR.0>
0

>  <SCORE.INTRA.REPUL>
0

>  <SCORE.INTRA.REPUL.0>
0

>  <SCORE.INTRA.SOLV>
-1.52953

>  <SCORE.INTRA.SOLV.lig_0>
-77.2465

>  <SCORE.INTRA.VDW>
1.5089

>  <SCORE.INTRA.VDW.0>
-4.16072

>  <SCORE.INTRA.norm>
-0.230805

>  <SCORE.RESTR>
0

>  <SCORE.RESTR.CAVITY>
0

>  <SCORE.RESTR.norm>
0

>  <SCORE.SYSTEM>
0

>  <SCORE.SYSTEM.CONST>
0

>  <SCORE.SYSTEM.DIHEDRAL>
0

>  <SCORE.SYSTEM.SOLV>
0

>  <SCORE.SYSTEM.norm>
0

>  <SCORE.heavy>
31

>  <SCORE.norm>
-0.41515

>  <RMSD>
4.708

$$$$
ligand
 OpenBabel11021811493D
libRbt.so/2013.1/901 2013/11/27
 31 33  0  0  0  0  0  0  0  0999 V2000
   -6.5592  -11.8759  -18.0653 C   0  0  2  0  0  0  0  0  0  0  0  0
   -5.2303  -12.3172  -18.3748 O   0  0  0  0  0  0  0  0  0  0  0  0
   -5.0385  -15.9795  -16.1670 C   0  0  2  0  0  0  0  0  0  0  0  0
   -4.5328  -17.2017  -15.6205 N   0  0  0  0  0  0  0  0  0  0  0  0
   -3.6508  -15.7372  -13.3790 C   0  0  2  0  0  0  0  0  0  0  0  0
   -6.8335  -10.6280  -18.9761 C   0  0  2  0  0  0  0  0  0  0  0  0
   -6.6732  -10.9970  -20.3783 N   0  0  0  0  0  0  0  0  0  0  0  0
   -5.0114  -16.0751  -17.7412 C   0  0  0  0  0  0  0  0  0  0  0  0
   -3.9831  -15.2414  -11.9379 C   0  0  2  0  0  0  0  0  0  0  0  0
   -5.3890  -15.1229  -11.8031 O   0  0  0  0  0  0  0  0  0  0  0  0
   -5.8534   -9.4651  -18.5929 C   0  0  0  0  0  0  0  0  0  0  0  0
   -5.5808  -14.7200  -18.3469 C   0  0  2  0  0  0  0  0  0  0  0  0
   -5.5586  -14.7975  -19.8263 N   0  0  0  0  0  0  0  0  0  0  0  0
   -3.2716  -13.8286  -11.7535 C   0  0  1  0  0  0  0  0  0  0  0  0
   -3.5685  -13.2589  -10.3954 N   0  0  0  0  0  0  0  0  0  0  0  0
   -5.8118   -9.2613  -17.0508 C   0  0  0  0  0  0  0  0  0  0  0  0
   -4.6913  -13.4973  -17.8441 C   0  0  2  0  0  0  0  0  0  0  0  0
   -1.6617  -14.0156  -11.9151 C   0  0  1  0  0  0  0  0  0  0  0  0
   -1.1297  -14.9031  -10.9507 O   0  0  0  0  0  0  0  0  0  0  0  0
   -6.2131  -10.2306  -16.2146 C   0  0  2  0  0  0  0  0  0  0  0  0
   -6.7066  -11.5055  -16.6616 O   0  0  0  0  0  0  0  0  0  0  0  0
   -4.7171  -13.4488  -16.2590 C   0  0  2  0  0  0  0  0  0  0  0  0
   -3.9004  -12.3672  -15.7930 O   0  0  0  0  0  0  0  0  0  0  0  0
   -1.3499  -14.6079  -13.3308 C   0  0  0  0  0  0  0  0  0  0  0  0
   -2.1596  -15.8749  -13.5491 O   0  0  0  0  0  0  0  0  0  0  0  0
   -6.1818  -10.0462  -14.6794 C   0  0  0  0  0  0  0  0  0  0  0  0
   -7.5191  -10.2443  -14.1383 N   0  0  0  0  0  0  0  0  0  0  0  0
   -4.1539  -14.7953  -15.6765 C   0  0  1  0  0  0  0  0  0  0  0  0
   -4.1977  -14.7162  -14.2719 O   0  0  0  0  0  0  0  0  0  0  0  0
   -0.8230  -12.7351  -11.7684 C   0  0  0  0  0  0  0  0  0  0  0  0
   -3.9751  -11.8414  -10.3547 C   0  0  0  0  0  0  0  0  0  0  0  0
  1  2  1  1  0  0  0
  1  6  1  0  0  0  0
  1 21  1  0  0  0  0
  3  4  1  1  0  0  0
  3  8  1  0  0  0  0
  3 28  1  0  0  0  0
  5  9  1  0  0  0  0
  5 25  1  0  0  0  0
  5 29  1  6  0  0  0
  6  7  1  6  0  0  0
  6 11  1  0  0  0  0
  8 12  1  0  0  0  0
  9 10  1  6  0  0  0
  9 14  1  0  0  0  0
 11 16  1  0  0  0  0
 12 13  1  6  0  0  0
 12 17  1  0  0  0  0
 14 15  1  1  0  0  0
 14 18  1  0  0  0  0
 15 31  1  0  0  0  0
 16 20  1  0  0  0  0
 17  2  1  6  0  0  0
 17 22  1  0  0  0  0
 18 19  1  1  0  0  0
 18 24  1  0  0  0  0
 18 30  1  0  0  0  0
 20 21  1  0  0  0  0
 20 26  1  6  0  0  0
 22 23  1  1  0  0  0
 22 28  1  0  0  0  0
 24 25  1  0  0  0  0
 26 27  1  0  0  0  0
 28 29  1  1  0  0  0
M  END
>  <CHROM.1>
-173.53929816,-177.82458105,-133.37949340,61.81197744,122.34472464,66.14332041
-4.55642021,-13.26938566,-15.17599254,2.83533496,1.08959074,-2.37906588

>  <Name>
ligand

>  <RI>
0

>  <Rbt.Current_Directory>
/home/itssahil/PROJECTS/Mol_Feturizer/New_Systems/rnas/4F8U

>  <Rbt.Executable>
rbdock ($Id: //depot/dev/client3/rdock/2013.1/src/exe/rbdock.cxx#4 $)

>  <Rbt.Library>
libRbt.so (2013.1, Build901 2013/11/27)

>  <Rbt.Parameter_File>
/export/apps/rDock/src/rDock_2013.1_src/data/scripts/dock_solv.prm

>  <Rbt.Receptor>
prm/pocket_docking_6.prm

>  <SCORE>
-9.90908

>  <SCORE.INTER>
-2.72602

>  <SCORE.INTER.CONST>
1

>  <SCORE.INTER.POLAR>
0

>  <SCORE.INTER.ROT>
6

>  <SCORE.INTER.SOLV>
8.77924

>  <SCORE.INTER.VDW>
-12.3438

>  <SCORE.INTER.norm>
-0.0879362

>  <SCORE.INTRA>
-7.18306

>  <SCORE.INTRA.DIHEDRAL>
-15.5914

>  <SCORE.INTRA.DIHEDRAL.0>
18.77

>  <SCORE.INTRA.POLAR>
0

>  <SCORE.INTRA.POLAR.0>
0

>  <SCORE.INTRA.REPUL>
0

>  <SCORE.INTRA.REPUL.0>
0

>  <SCORE.INTRA.SOLV>
-0.393807

>  <SCORE.INTRA.SOLV.lig_0>
-77.2465

>  <SCORE.INTRA.VDW>
0.809523

>  <SCORE.INTRA.VDW.0>
-4.16072

>  <SCORE.INTRA.norm>
-0.231712

>  <SCORE.RESTR>
0

>  <SCORE.RESTR.CAVITY>
0

>  <SCORE.RESTR.norm>
0

>  <SCORE.SYSTEM>
0

>  <SCORE.SYSTEM.CONST>
0

>  <SCORE.SYSTEM.DIHEDRAL>
0

>  <SCORE.SYSTEM.SOLV>
0

>  <SCORE.SYSTEM.norm>
0

>  <SCORE.heavy>
31

>  <SCORE.norm>
-0.319648

>  <RMSD>
4.752

$$$$
ligand
 OpenBabel11021811493D
libRbt.so/2013.1/901 2013/11/27
 31 33  0  0  0  0  0  0  0  0999 V2000
   -8.1618  -12.6428  -19.0877 C   0  0  2  0  0  0  0  0  0  0  0  0
   -6.9736  -12.8458  -18.3110 O   0  0  0  0  0  0  0  0  0  0  0  0
   -5.3660  -10.6540  -15.0041 C   0  0  2  0  0  0  0  0  0  0  0  0
   -4.7164   -9.6204  -14.2573 N   0  0  0  0  0  0  0  0  0  0  0  0
   -8.5475  -10.3479  -14.1212 C   0  0  2  0  0  0  0  0  0  0  0  0
   -8.0340  -13.5760  -20.3426 C   0  0  2  0  0  0  0  0  0  0  0  0
   -7.8702  -14.9602  -19.9124 N   0  0  0  0  0  0  0  0  0  0  0  0
   -4.3460  -11.2431  -16.0531 C   0  0  0  0  0  0  0  0  0  0  0  0
   -9.2309   -9.3812  -13.1055 C   0  0  2  0  0  0  0  0  0  0  0  0
   -9.7854   -8.2852  -13.8127 O   0  0  0  0  0  0  0  0  0  0  0  0
   -6.8173  -13.1206  -21.2214 C   0  0  0  0  0  0  0  0  0  0  0  0
   -5.0663  -12.3965  -16.8767 C   0  0  2  0  0  0  0  0  0  0  0  0
   -4.1175  -12.9568  -17.8671 N   0  0  0  0  0  0  0  0  0  0  0  0
   -8.1031   -8.8940  -12.0921 C   0  0  1  0  0  0  0  0  0  0  0  0
   -8.6709   -7.9267  -11.0924 N   0  0  0  0  0  0  0  0  0  0  0  0
   -6.8400  -11.5805  -21.4432 C   0  0  0  0  0  0  0  0  0  0  0  0
   -6.3482  -11.8030  -17.6137 C   0  0  2  0  0  0  0  0  0  0  0  0
   -7.4985  -10.1848  -11.3040 C   0  0  1  0  0  0  0  0  0  0  0  0
   -8.4902  -10.8669  -10.5609 O   0  0  0  0  0  0  0  0  0  0  0  0
   -7.5405  -10.7755  -20.6301 C   0  0  2  0  0  0  0  0  0  0  0  0
   -8.3129  -11.2561  -19.5160 O   0  0  0  0  0  0  0  0  0  0  0  0
   -7.3372  -11.1938  -16.5336 C   0  0  2  0  0  0  0  0  0  0  0  0
   -8.4840  -10.6344  -17.1863 O   0  0  0  0  0  0  0  0  0  0  0  0
   -6.9047  -11.1936  -12.3442 C   0  0  0  0  0  0  0  0  0  0  0  0
   -7.9508  -11.5260  -13.3948 O   0  0  0  0  0  0  0  0  0  0  0  0
   -7.5776   -9.2432  -20.8358 C   0  0  0  0  0  0  0  0  0  0  0  0
   -7.0957   -8.9197  -22.1712 N   0  0  0  0  0  0  0  0  0  0  0  0
   -6.6098  -10.0578  -15.7274 C   0  0  1  0  0  0  0  0  0  0  0  0
   -7.5150   -9.5472  -14.7782 O   0  0  0  0  0  0  0  0  0  0  0  0
   -6.3877   -9.8840  -10.2842 C   0  0  0  0  0  0  0  0  0  0  0  0
   -8.7228   -6.5119  -11.5069 C   0  0  0  0  0  0  0  0  0  0  0  0
  1  2  1  1  0  0  0
  1  6  1  0  0  0  0
  1 21  1  0  0  0  0
  3  4  1  6  0  0  0
  3  8  1  0  0  0  0
  3 28  1  0  0  0  0
  5  9  1  0  0  0  0
  5 25  1  0  0  0  0
  5 29  1  1  0  0  0
  6  7  1  1  0  0  0
  6 11  1  0  0  0  0
  8 12  1  0  0  0  0
  9 10  1  6  0  0  0
  9 14  1  0  0  0  0
 11 16  1  0  0  0  0
 12 13  1  6  0  0  0
 12 17  1  0  0  0  0
 14 15  1  1  0  0  0
 14 18  1  0  0  0  0
 15 31  1  0  0  0  0
 16 20  1  0  0  0  0
 17  2  1  1  0  0  0
 17 22  1  0  0  0  0
 18 19  1  1  0  0  0
 18 24  1  0  0  0  0
 18 30  1  0  0  0  0
 20 21  1  0  0  0  0
 20 26  1  6  0  0  0
 22 23  1  6  0  0  0
 22 28  1  0  0  0  0
 24 25  1  0  0  0  0
 26 27  1  0  0  0  0
 28 29  1  1  0  0  0
M  END
>  <CHROM.1>
143.67301686,176.64231500,-85.42436807,-179.78556400,15.75071312,-86.78121568
-7.30111672,-10.75651910,-16.06182341,-1.41961355,-0.92218926,1.38295670

>  <Name>
ligand

>  <RI>
0

>  <Rbt.Current_Directory>
/home/itssahil/PROJECTS/Mol_Feturizer/New_Systems/rnas/4F8U

>  <Rbt.Executable>
rbdock ($Id: //depot/dev/client3/rdock/2013.1/src/exe/rbdock.cxx#4 $)

>  <Rbt.Library>
libRbt.so (2013.1, Build901 2013/11/27)

>  <Rbt.Parameter_File>
/export/apps/rDock/src/rDock_2013.1_src/data/scripts/dock_solv.prm

>  <Rbt.Receptor>
prm/pocket_docking_7.prm

>  <SCORE>
-8.25625

>  <SCORE.INTER>
-7.31099

>  <SCORE.INTER.CONST>
1

>  <SCORE.INTER.POLAR>
0

>  <SCORE.INTER.ROT>
6

>  <SCORE.INTER.SOLV>
16.9239

>  <SCORE.INTER.VDW>
-18.1153

>  <SCORE.INTER.norm>
-0.235838

>  <SCORE.INTRA>
-0.945266

>  <SCORE.INTRA.DIHEDRAL>
-8.49943

>  <SCORE.INTRA.DIHEDRAL.0>
18.77

>  <SCORE.INTRA.POLAR>
0

>  <SCORE.INTRA.POLAR.0>
0

>  <SCORE.INTRA.REPUL>
0

>  <SCORE.INTRA.REPUL.0>
0

>  <SCORE.INTRA.SOLV>
-0.399763

>  <SCORE.INTRA.SOLV.lig_0>
-77.2465

>  <SCORE.INTRA.VDW>
3.50433

>  <SCORE.INTRA.VDW.0>
-4.16072

>  <SCORE.INTRA.norm>
-0.0304924

>  <SCORE.RESTR>
0

>  <SCORE.RESTR.CAVITY>
0

>  <SCORE.RESTR.norm>
0

>  <SCORE.SYSTEM>
0

>  <SCORE.SYSTEM.CONST>
0

>  <SCORE.SYSTEM.DIHEDRAL>
0

>  <SCORE.SYSTEM.SOLV>
0

>  <SCORE.SYSTEM.norm>
0

>  <SCORE.heavy>
31

>  <SCORE.norm>
-0.266331

>  <RMSD>
4.788

$$$$
ligand
 OpenBabel11021811493D
libRbt.so/2013.1/901 2013/11/27
 31 33  0  0  0  0  0  0  0  0999 V2000
   -7.6865  -12.4383  -17.9859 C   0  0  2  0  0  0  0  0  0  0  0  0
   -6.3215  -12.8779  -17.9945 O   0  0  0  0  0  0  0  0  0  0  0  0
   -6.3481  -15.8577  -14.9215 C   0  0  2  0  0  0  0  0  0  0  0  0
   -5.9383  -16.9603  -14.1064 N   0  0  0  0  0  0  0  0  0  0  0  0
   -4.7326  -15.1296  -12.3758 C   0  0  2  0  0  0  0  0  0  0  0  0
   -7.8645  -11.5252  -19.2494 C   0  0  2  0  0  0  0  0  0  0  0  0
   -7.5207  -12.2760  -20.4519 N   0  0  0  0  0  0  0  0  0  0  0  0
   -6.4810  -16.3490  -16.4145 C   0  0  0  0  0  0  0  0  0  0  0  0
   -4.8337  -14.2327  -11.1036 C   0  0  2  0  0  0  0  0  0  0  0  0
   -6.1807  -13.8270  -10.9305 O   0  0  0  0  0  0  0  0  0  0  0  0
   -6.9616  -10.2499  -19.1145 C   0  0  0  0  0  0  0  0  0  0  0  0
   -6.9440  -15.1253  -17.3176 C   0  0  2  0  0  0  0  0  0  0  0  0
   -7.0708  -15.5748  -18.7237 N   0  0  0  0  0  0  0  0  0  0  0  0
   -3.8857  -12.9754  -11.3411 C   0  0  1  0  0  0  0  0  0  0  0  0
   -3.9482  -12.0358  -10.1704 N   0  0  0  0  0  0  0  0  0  0  0  0
   -7.1201   -9.6054  -17.7070 C   0  0  0  0  0  0  0  0  0  0  0  0
   -5.8753  -13.9487  -17.2077 C   0  0  2  0  0  0  0  0  0  0  0  0
   -2.3524  -13.4904  -11.5326 C   0  0  1  0  0  0  0  0  0  0  0  0
   -1.8793  -14.1872  -10.3961 O   0  0  0  0  0  0  0  0  0  0  0  0
   -7.6075  -10.3105  -16.6750 C   0  0  2  0  0  0  0  0  0  0  0  0
   -8.0177  -11.6851  -16.7808 O   0  0  0  0  0  0  0  0  0  0  0  0
   -5.7455  -13.4998  -15.6920 C   0  0  2  0  0  0  0  0  0  0  0  0
   -4.7685  -12.4577  -15.5762 O   0  0  0  0  0  0  0  0  0  0  0  0
   -2.2847  -14.4687  -12.7535 C   0  0  0  0  0  0  0  0  0  0  0  0
   -3.3087  -15.5782  -12.5822 O   0  0  0  0  0  0  0  0  0  0  0  0
   -7.7750   -9.6871  -15.2697 C   0  0  0  0  0  0  0  0  0  0  0  0
   -6.7637  -10.2292  -14.3732 N   0  0  0  0  0  0  0  0  0  0  0  0
   -5.2898  -14.7203  -14.8131 C   0  0  1  0  0  0  0  0  0  0  0  0
   -5.1914  -14.2852  -13.4782 O   0  0  0  0  0  0  0  0  0  0  0  0
   -1.3050  -12.3916  -11.7779 C   0  0  0  0  0  0  0  0  0  0  0  0
   -5.0607  -11.0670  -10.1672 C   0  0  0  0  0  0  0  0  0  0  0  0
  1  2  1  1  0  0  0
  1  6  1  0  0  0  0
  1 21  1  0  0  0  0
  3  4  1  1  0  0  0
  3  8  1  0  0  0  0
  3 28  1  0  0  0  0
  5  9  1  0  0  0  0
  5 25  1  0  0  0  0
  5 29  1  6  0  0  0
  6  7  1  6  0  0  0
  6 11  1  0  0  0  0
  8 12  1  0  0  0  0
  9 10  1  6  0  0  0
  9 14  1  0  0  0  0
 11 16  1  0  0  0  0
 12 13  1  6  0  0  0
 12 17  1  0  0  0  0
 14 15  1  1  0  0  0
 14 18  1  0  0  0  0
 15 31  1  0  0  0  0
 16 20  1  0  0  0  0
 17  2  1  6  0  0  0
 17 22  1  0  0  0  0
 18 19  1  1  0  0  0
 18 24  1  0  0  0  0
 18 30  1  0  0  0  0
 20 21  1  0  0  0  0
 20 26  1  6  0  0  0
 22 23  1  6  0  0  0
 22 28  1  0  0  0  0
 24 25  1  0  0  0  0
 26 27  1  0  0  0  0
 28 29  1  1  0  0  0
M  END
>  <CHROM.1>
-164.63796766,-178.43433587,-84.02269347,43.98059213,-107.50302151,63.71865236
-5.55852393,-13.18767510,-14.76314896,3.02808368,1.07431761,-2.78072404

>  <Name>
ligand

>  <RI>
0

>  <Rbt.Current_Directory>
/home/itssahil/PROJECTS/Mol_Feturizer/New_Systems/rnas/4F8U

>  <Rbt.Executable>
rbdock ($Id: //depot/dev/client3/rdock/2013.1/src/exe/rbdock.cxx#4 $)

>  <Rbt.Library>
libRbt.so (2013.1, Build901 2013/11/27)

>  <Rbt.Parameter_File>
/export/apps/rDock/src/rDock_2013.1_src/data/scripts/dock_solv.prm

>  <Rbt.Receptor>
prm/pocket_docking_5.prm

>  <SCORE>
-8.44463

>  <SCORE.INTER>
-3.42552

>  <SCORE.INTER.CONST>
1

>  <SCORE.INTER.POLAR>
0

>  <SCORE.INTER.ROT>
6

>  <SCORE.INTER.SOLV>
9.02756

>  <SCORE.INTER.VDW>
-12.8929

>  <SCORE.INTER.norm>
-0.110501

>  <SCORE.INTRA>
-5.01911

>  <SCORE.INTRA.DIHEDRAL>
-14.096

>  <SCORE.INTRA.DIHEDRAL.0>
18.77

>  <SCORE.INTRA.POLAR>
0

>  <SCORE.INTRA.POLAR.0>
0

>  <SCORE.INTRA.REPUL>
0.00528136

>  <SCORE.INTRA.REPUL.0>
0

>  <SCORE.INTRA.SOLV>
1.81621

>  <SCORE.INTRA.SOLV.lig_0>
-77.2465

>  <SCORE.INTRA.VDW>
1.09438

>  <SCORE.INTRA.VDW.0>
-4.16072

>  <SCORE.INTRA.norm>
-0.161907

>  <SCORE.RESTR>
0

>  <SCORE.RESTR.CAVITY>
0

>  <SCORE.RESTR.norm>
0

>  <SCORE.SYSTEM>
0

>  <SCORE.SYSTEM.CONST>
0

>  <SCORE.SYSTEM.DIHEDRAL>
0

>  <SCORE.SYSTEM.SOLV>
0

>  <SCORE.SYSTEM.norm>
0

>  <SCORE.heavy>
31

>  <SCORE.norm>
-0.272407

>  <RMSD>
4.821

$$$$
ligand
 OpenBabel11021811493D
libRbt.so/2013.1/901 2013/11/27
 31 33  0  0  0  0  0  0  0  0999 V2000
   -6.0106  -12.2374  -18.1861 C   0  0  2  0  0  0  0  0  0  0  0  0
   -7.0501  -11.9860  -17.2308 O   0  0  0  0  0  0  0  0  0  0  0  0
   -7.2517  -12.4128  -12.9763 C   0  0  2  0  0  0  0  0  0  0  0  0
   -7.3098  -13.0195  -11.6815 N   0  0  0  0  0  0  0  0  0  0  0  0
   -4.5724  -12.8005  -11.5421 C   0  0  2  0  0  0  0  0  0  0  0  0
   -6.2739  -11.2672  -19.3909 C   0  0  2  0  0  0  0  0  0  0  0  0
   -6.2851   -9.8872  -18.9185 N   0  0  0  0  0  0  0  0  0  0  0  0
   -8.5016  -12.8825  -13.8161 C   0  0  0  0  0  0  0  0  0  0  0  0
   -3.2805  -12.0331  -11.1234 C   0  0  2  0  0  0  0  0  0  0  0  0
   -3.5146  -10.6397  -11.2349 O   0  0  0  0  0  0  0  0  0  0  0  0
   -7.6370  -11.6300  -20.0767 C   0  0  0  0  0  0  0  0  0  0  0  0
   -8.4401  -12.2016  -15.2513 C   0  0  2  0  0  0  0  0  0  0  0  0
   -9.6093  -12.6371  -16.0504 N   0  0  0  0  0  0  0  0  0  0  0  0
   -2.1202  -12.4970  -12.1106 C   0  0  1  0  0  0  0  0  0  0  0  0
   -0.8390  -11.7773  -11.7979 N   0  0  0  0  0  0  0  0  0  0  0  0
   -7.7422  -13.1628  -20.3237 C   0  0  0  0  0  0  0  0  0  0  0  0
   -7.0861  -12.6186  -15.9804 C   0  0  2  0  0  0  0  0  0  0  0  0
   -1.8872  -14.1006  -11.9458 C   0  0  1  0  0  0  0  0  0  0  0  0
   -1.5077  -14.4504  -10.6288 O   0  0  0  0  0  0  0  0  0  0  0  0
   -6.9746  -14.0267  -19.6424 C   0  0  2  0  0  0  0  0  0  0  0  0
   -6.0117  -13.6193  -18.6546 O   0  0  0  0  0  0  0  0  0  0  0  0
   -5.8526  -12.1579  -15.0961 C   0  0  2  0  0  0  0  0  0  0  0  0
   -4.6280  -12.5491  -15.7297 O   0  0  0  0  0  0  0  0  0  0  0  0
   -3.2211  -14.8528  -12.2729 C   0  0  0  0  0  0  0  0  0  0  0  0
   -4.3517  -14.2872  -11.4300 O   0  0  0  0  0  0  0  0  0  0  0  0
   -7.0625  -15.5530  -19.8756 C   0  0  0  0  0  0  0  0  0  0  0  0
   -7.4410  -16.2138  -18.6344 N   0  0  0  0  0  0  0  0  0  0  0  0
   -5.9294  -12.8373  -13.6811 C   0  0  1  0  0  0  0  0  0  0  0  0
   -4.8245  -12.4012  -12.9263 O   0  0  0  0  0  0  0  0  0  0  0  0
   -0.7952  -14.7116  -12.8394 C   0  0  0  0  0  0  0  0  0  0  0  0
   -0.0159  -11.3736  -12.9536 C   0  0  0  0  0  0  0  0  0  0  0  0
  1  2  1  1  0  0  0
  1  6  1  0  0  0  0
  1 21  1  0  0  0  0
  3  4  1  1  0  0  0
  3  8  1  0  0  0  0
  3 28  1  0  0  0  0
  5  9  1  0  0  0  0
  5 25  1  0  0  0  0
  5 29  1  6  0  0  0
  6  7  1  1  0  0  0
  6 11  1  0  0  0  0
  8 12  1  0  0  0  0
  9 10  1  6  0  0  0
  9 14  1  0  0  0  0
 11 16  1  0  0  0  0
 12 13  1  6  0  0  0
 12 17  1  0  0  0  0
 14 15  1  1  0  0  0
 14 18  1  0  0  0  0
 15 31  1  0  0  0  0
 16 20  1  0  0  0  0
 17  2  1  6  0  0  0
 17 22  1  0  0  0  0
 18 19  1  1  0  0  0
 18 24  1  0  0  0  0
 18 30  1  0  0  0  0
 20 21  1  0  0  0  0
 20 26  1  6  0  0  0
 22 23  1  6  0  0  0
 22 28  1  0  0  0  0
 24 25  1  0  0  0  0
 26 27  1  0  0  0  0
 28 29  1  1  0  0  0
M  END
>  <CHROM.1>
-175.90667474,-178.01002694,-141.46549568,-174.87086857,-119.98186230,59.41535307
-5.24804582,-12.87012115,-14.94001715,-2.17364169,-0.07150585,1.52415508

>  <Name>
ligand

>  <RI>
0

>  <Rbt.Current_Directory>
/home/itssahil/PROJECTS/Mol_Feturizer/New_Systems/rnas/4F8U

>  <Rbt.Executable>
rbdock ($Id: //depot/dev/client3/rdock/2013.1/src/exe/rbdock.cxx#4 $)

>  <Rbt.Library>
libRbt.so (2013.1, Build901 2013/11/27)

>  <Rbt.Parameter_File>
/export/apps/rDock/src/rDock_2013.1_src/data/scripts/dock_solv.prm

>  <Rbt.Receptor>
prm/pocket_docking_5.prm

>  <SCORE>
-12.9283

>  <SCORE.INTER>
-5.65406

>  <SCORE.INTER.CONST>
1

>  <SCORE.INTER.POLAR>
0

>  <SCORE.INTER.ROT>
6

>  <SCORE.INTER.SOLV>
8.08382

>  <SCORE.INTER.VDW>
-14.064

>  <SCORE.INTER.norm>
-0.182389

>  <SCORE.INTRA>
-7.27425

>  <SCORE.INTRA.DIHEDRAL>
-15.9933

>  <SCORE.INTRA.DIHEDRAL.0>
18.77

>  <SCORE.INTRA.POLAR>
0

>  <SCORE.INTRA.POLAR.0>
0

>  <SCORE.INTRA.REPUL>
0

>  <SCORE.INTRA.REPUL.0>
0

>  <SCORE.INTRA.SOLV>
-1.61234

>  <SCORE.INTRA.SOLV.lig_0>
-77.2465

>  <SCORE.INTRA.VDW>
1.52855

>  <SCORE.INTRA.VDW.0>
-4.16072

>  <SCORE.INTRA.norm>
-0.234653

>  <SCORE.RESTR>
0

>  <SCORE.RESTR.CAVITY>
0

>  <SCORE.RESTR.norm>
0

>  <SCORE.SYSTEM>
0

>  <SCORE.SYSTEM.CONST>
0

>  <SCORE.SYSTEM.DIHEDRAL>
0

>  <SCORE.SYSTEM.SOLV>
0

>  <SCORE.SYSTEM.norm>
0

>  <SCORE.heavy>
31

>  <SCORE.norm>
-0.417042

>  <RMSD>
4.837

$$$$
ligand
 OpenBabel11021811493D
libRbt.so/2013.1/901 2013/11/27
 31 33  0  0  0  0  0  0  0  0999 V2000
   -7.5794  -10.9452  -19.3677 C   0  0  2  0  0  0  0  0  0  0  0  0
   -6.2040  -10.7209  -19.0293 O   0  0  0  0  0  0  0  0  0  0  0  0
   -4.1539   -9.8884  -15.3649 C   0  0  2  0  0  0  0  0  0  0  0  0
   -3.6472  -10.0447  -14.0357 N   0  0  0  0  0  0  0  0  0  0  0  0
   -1.3127  -11.3331  -15.1924 C   0  0  2  0  0  0  0  0  0  0  0  0
   -7.7199  -12.4822  -19.6500 C   0  0  2  0  0  0  0  0  0  0  0  0
   -7.2963  -13.2390  -18.4771 N   0  0  0  0  0  0  0  0  0  0  0  0
   -5.7293   -9.9512  -15.3208 C   0  0  0  0  0  0  0  0  0  0  0  0
    0.1358  -11.0176  -15.6779 C   0  0  2  0  0  0  0  0  0  0  0  0
    0.2341   -9.6340  -15.9691 O   0  0  0  0  0  0  0  0  0  0  0  0
   -6.8604  -12.8728  -20.9024 C   0  0  0  0  0  0  0  0  0  0  0  0
   -6.2913   -9.7695  -16.7968 C   0  0  2  0  0  0  0  0  0  0  0  0
   -7.7714   -9.8285  -16.7680 N   0  0  0  0  0  0  0  0  0  0  0  0
    0.3934  -11.8944  -16.9822 C   0  0  1  0  0  0  0  0  0  0  0  0
    1.7627  -11.6261  -17.5392 N   0  0  0  0  0  0  0  0  0  0  0  0
   -7.1062  -11.8793  -22.0746 C   0  0  0  0  0  0  0  0  0  0  0  0
   -5.7103  -10.9208  -17.7327 C   0  0  2  0  0  0  0  0  0  0  0  0
    0.2717  -13.4726  -16.5982 C   0  0  1  0  0  0  0  0  0  0  0  0
    1.2173  -13.8563  -15.6187 O   0  0  0  0  0  0  0  0  0  0  0  0
   -7.6243  -10.6621  -21.8515 C   0  0  2  0  0  0  0  0  0  0  0  0
   -7.9906  -10.1866  -20.5444 O   0  0  0  0  0  0  0  0  0  0  0  0
   -4.1260  -10.8467  -17.7307 C   0  0  2  0  0  0  0  0  0  0  0  0
   -3.5900  -11.8933  -18.5502 O   0  0  0  0  0  0  0  0  0  0  0  0
   -1.1556  -13.7547  -16.0189 C   0  0  0  0  0  0  0  0  0  0  0  0
   -1.4444  -12.8000  -14.8727 O   0  0  0  0  0  0  0  0  0  0  0  0
   -7.8784   -9.6618  -23.0033 C   0  0  0  0  0  0  0  0  0  0  0  0
   -7.0235   -8.4954  -22.8322 N   0  0  0  0  0  0  0  0  0  0  0  0
   -3.5870  -11.0256  -16.2654 C   0  0  1  0  0  0  0  0  0  0  0  0
   -2.1822  -10.9489  -16.3039 O   0  0  0  0  0  0  0  0  0  0  0  0
    0.4904  -14.4600  -17.7565 C   0  0  0  0  0  0  0  0  0  0  0  0
    1.8197  -10.8403  -18.7864 C   0  0  0  0  0  0  0  0  0  0  0  0
  1  2  1  6  0  0  0
  1  6  1  0  0  0  0
  1 21  1  0  0  0  0
  3  4  1  1  0  0  0
  3  8  1  0  0  0  0
  3 28  1  0  0  0  0
  5  9  1  0  0  0  0
  5 25  1  0  0  0  0
  5 29  1  6  0  0  0
  6  7  1  1  0  0  0
  6 11  1  0  0  0  0
  8 12  1  0  0  0  0
  9 10  1  6  0  0  0
  9 14  1  0  0  0  0
 11 16  1  0  0  0  0
 12 13  1  1  0  0  0
 12 17  1  0  0  0  0
 14 15  1  1  0  0  0
 14 18  1  0  0  0  0
 15 31  1  0  0  0  0
 16 20  1  0  0  0  0
 17  2  1  6  0  0  0
 17 22  1  0  0  0  0
 18 19  1  1  0  0  0
 18 24  1  0  0  0  0
 18 30  1  0  0  0  0
 20 21  1  0  0  0  0
 20 26  1  6  0  0  0
 22 23  1  6  0  0  0
 22 28  1  0  0  0  0
 24 25  1  0  0  0  0
 26 27  1  0  0  0  0
 28 29  1  6  0  0  0
M  END
>  <CHROM.1>
-83.49161114,-177.61919231,-107.26660037,-70.77260890,-115.39335552,73.57808044
-3.74791842,-11.32960551,-17.85642774,2.68051917,0.28293529,-1.76449654

>  <Name>
ligand

>  <RI>
0

>  <Rbt.Current_Directory>
/home/itssahil/PROJECTS/Mol_Feturizer/New_Systems/rnas/4F8U

>  <Rbt.Executable>
rbdock ($Id: //depot/dev/client3/rdock/2013.1/src/exe/rbdock.cxx#4 $)

>  <Rbt.Library>
libRbt.so (2013.1, Build901 2013/11/27)

>  <Rbt.Parameter_File>
/export/apps/rDock/src/rDock_2013.1_src/data/scripts/dock_solv.prm

>  <Rbt.Receptor>
prm/pocket_docking_8.prm

>  <SCORE>
-11.1583

>  <SCORE.INTER>
-6.82554

>  <SCORE.INTER.CONST>
1

>  <SCORE.INTER.POLAR>
0

>  <SCORE.INTER.ROT>
6

>  <SCORE.INTER.SOLV>
13.7419

>  <SCORE.INTER.VDW>
-16.731

>  <SCORE.INTER.norm>
-0.220179

>  <SCORE.INTRA>
-4.33275

>  <SCORE.INTRA.DIHEDRAL>
-12.1324

>  <SCORE.INTRA.DIHEDRAL.0>
18.77

>  <SCORE.INTRA.POLAR>
0

>  <SCORE.INTRA.POLAR.0>
0

>  <SCORE.INTRA.REPUL>
0

>  <SCORE.INTRA.REPUL.0>
0

>  <SCORE.INTRA.SOLV>
1.54021

>  <SCORE.INTRA.SOLV.lig_0>
-77.2465

>  <SCORE.INTRA.VDW>
0.963366

>  <SCORE.INTRA.VDW.0>
-4.16072

>  <SCORE.INTRA.norm>
-0.139766

>  <SCORE.RESTR>
0

>  <SCORE.RESTR.CAVITY>
0

>  <SCORE.RESTR.norm>
0

>  <SCORE.SYSTEM>
0

>  <SCORE.SYSTEM.CONST>
0

>  <SCORE.SYSTEM.DIHEDRAL>
0

>  <SCORE.SYSTEM.SOLV>
0

>  <SCORE.SYSTEM.norm>
0

>  <SCORE.heavy>
31

>  <SCORE.norm>
-0.359945

>  <RMSD>
4.847

$$$$
ligand
 OpenBabel11021811493D
libRbt.so/2013.1/901 2013/11/27
 31 33  0  0  0  0  0  0  0  0999 V2000
   -6.0676  -12.5109  -18.0729 C   0  0  2  0  0  0  0  0  0  0  0  0
   -7.0511  -12.1436  -17.0959 O   0  0  0  0  0  0  0  0  0  0  0  0
   -7.2303  -12.4282  -12.8286 C   0  0  2  0  0  0  0  0  0  0  0  0
   -7.3011  -12.9912  -11.5148 N   0  0  0  0  0  0  0  0  0  0  0  0
   -4.5081  -12.9555  -11.4357 C   0  0  2  0  0  0  0  0  0  0  0  0
   -6.2654  -11.5365  -19.2867 C   0  0  2  0  0  0  0  0  0  0  0  0
   -6.1267  -10.1556  -18.8373 N   0  0  0  0  0  0  0  0  0  0  0  0
   -8.5061  -12.8722  -13.6430 C   0  0  0  0  0  0  0  0  0  0  0  0
   -3.2056  -12.1970  -11.0341 C   0  0  2  0  0  0  0  0  0  0  0  0
   -3.4463  -10.8016  -11.0955 O   0  0  0  0  0  0  0  0  0  0  0  0
   -7.6757  -11.7711  -19.9317 C   0  0  0  0  0  0  0  0  0  0  0  0
   -8.4302  -12.2397  -15.0995 C   0  0  2  0  0  0  0  0  0  0  0  0
   -9.6236  -12.6516  -15.8750 N   0  0  0  0  0  0  0  0  0  0  0  0
   -2.0756  -12.6268  -12.0708 C   0  0  1  0  0  0  0  0  0  0  0  0
   -0.7869  -11.9128  -11.7762 N   0  0  0  0  0  0  0  0  0  0  0  0
   -7.9392  -13.2890  -20.1502 C   0  0  0  0  0  0  0  0  0  0  0  0
   -7.1012  -12.7347  -15.8259 C   0  0  2  0  0  0  0  0  0  0  0  0
   -1.8338  -14.2338  -11.9625 C   0  0  1  0  0  0  0  0  0  0  0  0
   -1.4126  -14.6225  -10.6693 O   0  0  0  0  0  0  0  0  0  0  0  0
   -7.2433  -14.2155  -19.4742 C   0  0  2  0  0  0  0  0  0  0  0  0
   -6.2186  -13.8923  -18.5180 O   0  0  0  0  0  0  0  0  0  0  0  0
   -5.8418  -12.2977  -14.9666 C   0  0  2  0  0  0  0  0  0  0  0  0
   -4.6402  -12.7586  -15.5973 O   0  0  0  0  0  0  0  0  0  0  0  0
   -3.1756  -14.9801  -12.2708 C   0  0  0  0  0  0  0  0  0  0  0  0
   -4.2806  -14.4442  -11.3761 O   0  0  0  0  0  0  0  0  0  0  0  0
   -7.4887  -15.7286  -19.6795 C   0  0  0  0  0  0  0  0  0  0  0  0
   -6.2531  -16.3679  -20.1097 N   0  0  0  0  0  0  0  0  0  0  0  0
   -5.9331  -12.9287  -13.5302 C   0  0  1  0  0  0  0  0  0  0  0  0
   -4.8043  -12.5150  -12.7984 O   0  0  0  0  0  0  0  0  0  0  0  0
   -0.7689  -14.8137  -12.9080 C   0  0  0  0  0  0  0  0  0  0  0  0
   -0.0454  -11.3929  -12.9408 C   0  0  0  0  0  0  0  0  0  0  0  0
  1  2  1  1  0  0  0
  1  6  1  0  0  0  0
  1 21  1  0  0  0  0
  3  4  1  1  0  0  0
  3  8  1  0  0  0  0
  3 28  1  0  0  0  0
  5  9  1  0  0  0  0
  5 25  1  0  0  0  0
  5 29  1  6  0  0  0
  6  7  1  1  0  0  0
  6 11  1  0  0  0  0
  8 12  1  0  0  0  0
  9 10  1  6  0  0  0
  9 14  1  0  0  0  0
 11 16  1  0  0  0  0
 12 13  1  6  0  0  0
 12 17  1  0  0  0  0
 14 15  1  1  0  0  0
 14 18  1  0  0  0  0
 15 31  1  0  0  0  0
 16 20  1  0  0  0  0
 17  2  1  6  0  0  0
 17 22  1  0  0  0  0
 18 19  1  1  0  0  0
 18 24  1  0  0  0  0
 18 30  1  0  0  0  0
 20 21  1  0  0  0  0
 20 26  1  6  0  0  0
 22 23  1  6  0  0  0
 22 28  1  0  0  0  0
 24 25  1  0  0  0  0
 26 27  1  0  0  0  0
 28 29  1  1  0  0  0
M  END
>  <CHROM.1>
-174.73010768,-177.83538344,-137.56436661,-172.01002304,121.49210993,63.85863153
-5.22400390,-13.00591976,-14.88788388,-2.18017354,-0.20705782,1.41091822

>  <Name>
ligand

>  <RI>
0

>  <Rbt.Current_Directory>
/home/itssahil/PROJECTS/Mol_Feturizer/New_Systems/rnas/4F8U

>  <Rbt.Executable>
rbdock ($Id: //depot/dev/client3/rdock/2013.1/src/exe/rbdock.cxx#4 $)

>  <Rbt.Library>
libRbt.so (2013.1, Build901 2013/11/27)

>  <Rbt.Parameter_File>
/export/apps/rDock/src/rDock_2013.1_src/data/scripts/dock_solv.prm

>  <Rbt.Receptor>
prm/pocket_docking_7.prm

>  <SCORE>
-12.9933

>  <SCORE.INTER>
-5.45693

>  <SCORE.INTER.CONST>
1

>  <SCORE.INTER.POLAR>
0

>  <SCORE.INTER.ROT>
6

>  <SCORE.INTER.SOLV>
8.5088

>  <SCORE.INTER.VDW>
-14.0742

>  <SCORE.INTER.norm>
-0.17603

>  <SCORE.INTRA>
-7.53641

>  <SCORE.INTRA.DIHEDRAL>
-15.5759

>  <SCORE.INTRA.DIHEDRAL.0>
18.77

>  <SCORE.INTRA.POLAR>
0

>  <SCORE.INTRA.POLAR.0>
0

>  <SCORE.INTRA.REPUL>
0

>  <SCORE.INTRA.REPUL.0>
0

>  <SCORE.INTRA.SOLV>
-1.86801

>  <SCORE.INTRA.SOLV.lig_0>
-77.2465

>  <SCORE.INTRA.VDW>
1.18552

>  <SCORE.INTRA.VDW.0>
-4.16072

>  <SCORE.INTRA.norm>
-0.24311

>  <SCORE.RESTR>
0

>  <SCORE.RESTR.CAVITY>
0

>  <SCORE.RESTR.norm>
0

>  <SCORE.SYSTEM>
0

>  <SCORE.SYSTEM.CONST>
0

>  <SCORE.SYSTEM.DIHEDRAL>
0

>  <SCORE.SYSTEM.SOLV>
0

>  <SCORE.SYSTEM.norm>
0

>  <SCORE.heavy>
31

>  <SCORE.norm>
-0.41914

>  <RMSD>
4.910

$$$$
ligand
 OpenBabel11021811493D
libRbt.so/2013.1/901 2013/11/27
 31 33  0  0  0  0  0  0  0  0999 V2000
   -7.1356  -12.9242  -20.8033 C   0  0  2  0  0  0  0  0  0  0  0  0
   -5.7019  -12.9226  -20.7729 O   0  0  0  0  0  0  0  0  0  0  0  0
   -4.9398  -15.6093  -17.5288 C   0  0  2  0  0  0  0  0  0  0  0  0
   -4.2333  -16.4247  -16.5885 N   0  0  0  0  0  0  0  0  0  0  0  0
   -4.1111  -14.1539  -14.8523 C   0  0  2  0  0  0  0  0  0  0  0  0
   -7.5567  -11.8209  -21.8364 C   0  0  2  0  0  0  0  0  0  0  0  0
   -6.9641  -12.1123  -23.1370 N   0  0  0  0  0  0  0  0  0  0  0  0
   -4.6182  -16.1175  -18.9870 C   0  0  0  0  0  0  0  0  0  0  0  0
   -4.9069  -13.5385  -13.6601 C   0  0  2  0  0  0  0  0  0  0  0  0
   -6.2467  -13.9975  -13.7133 O   0  0  0  0  0  0  0  0  0  0  0  0
   -7.1014  -10.4108  -21.3225 C   0  0  0  0  0  0  0  0  0  0  0  0
   -5.4098  -15.2161  -20.0302 C   0  0  2  0  0  0  0  0  0  0  0  0
   -5.1140  -15.6834  -21.4047 N   0  0  0  0  0  0  0  0  0  0  0  0
   -4.8398  -11.9554  -13.8204 C   0  0  1  0  0  0  0  0  0  0  0  0
   -5.6138  -11.2785  -12.7250 N   0  0  0  0  0  0  0  0  0  0  0  0
   -7.4903  -10.2134  -19.8288 C   0  0  0  0  0  0  0  0  0  0  0  0
   -4.9720  -13.6938  -19.8577 C   0  0  2  0  0  0  0  0  0  0  0  0
   -3.2846  -11.4764  -13.7515 C   0  0  1  0  0  0  0  0  0  0  0  0
   -2.6767  -11.8182  -12.5208 O   0  0  0  0  0  0  0  0  0  0  0  0
   -7.7599  -11.2647  -19.0402 C   0  0  2  0  0  0  0  0  0  0  0  0
   -7.7172  -12.6275  -19.4983 O   0  0  0  0  0  0  0  0  0  0  0  0
   -5.2819  -13.2252  -18.3745 C   0  0  2  0  0  0  0  0  0  0  0  0
   -4.8699  -11.8638  -18.1993 O   0  0  0  0  0  0  0  0  0  0  0  0
   -2.4763  -12.1796  -14.8936 C   0  0  0  0  0  0  0  0  0  0  0  0
   -2.6797  -13.6835  -14.8181 O   0  0  0  0  0  0  0  0  0  0  0  0
   -8.1507  -11.0890  -17.5543 C   0  0  0  0  0  0  0  0  0  0  0  0
   -7.7514   -9.7646  -17.0995 N   0  0  0  0  0  0  0  0  0  0  0  0
   -4.4944  -14.1270  -17.3564 C   0  0  1  0  0  0  0  0  0  0  0  0
   -4.7984  -13.6851  -16.0551 O   0  0  0  0  0  0  0  0  0  0  0  0
   -3.0450   -9.9644  -13.8959 C   0  0  0  0  0  0  0  0  0  0  0  0
   -6.9993  -10.8878  -13.0474 C   0  0  0  0  0  0  0  0  0  0  0  0
  1  2  1  1  0  0  0
  1  6  1  0  0  0  0
  1 21  1  0  0  0  0
  3  4  1  1  0  0  0
  3  8  1  0  0  0  0
  3 28  1  0  0  0  0
  5  9  1  0  0  0  0
  5 25  1  0  0  0  0
  5 29  1  6  0  0  0
  6  7  1  6  0  0  0
  6 11  1  0  0  0  0
  8 12  1  0  0  0  0
  9 10  1  6  0  0  0
  9 14  1  0  0  0  0
 11 16  1  0  0  0  0
 12 13  1  6  0  0  0
 12 17  1  0  0  0  0
 14 15  1  1  0  0  0
 14 18  1  0  0  0  0
 15 31  1  0  0  0  0
 16 20  1  0  0  0  0
 17  2  1  6  0  0  0
 17 22  1  0  0  0  0
 18 19  1  1  0  0  0
 18 24  1  0  0  0  0
 18 30  1  0  0  0  0
 20 21  1  0  0  0  0
 20 26  1  6  0  0  0
 22 23  1  6  0  0  0
 22 28  1  0  0  0  0
 24 25  1  0  0  0  0
 26 27  1  0  0  0  0
 28 29  1  1  0  0  0
M  END
>  <CHROM.1>
173.48905012,-172.73593744,-96.10564299,56.40764634,-18.42743846,69.82637262
-5.43864017,-12.74977404,-17.27939605,2.17144502,0.95290807,-2.13342350

>  <Name>
ligand

>  <RI>
0

>  <Rbt.Current_Directory>
/home/itssahil/PROJECTS/Mol_Feturizer/New_Systems/rnas/4F8U

>  <Rbt.Executable>
rbdock ($Id: //depot/dev/client3/rdock/2013.1/src/exe/rbdock.cxx#4 $)

>  <Rbt.Library>
libRbt.so (2013.1, Build901 2013/11/27)

>  <Rbt.Parameter_File>
/export/apps/rDock/src/rDock_2013.1_src/data/scripts/dock_solv.prm

>  <Rbt.Receptor>
prm/pocket_docking_8.prm

>  <SCORE>
-8.75517

>  <SCORE.INTER>
-2.68315

>  <SCORE.INTER.CONST>
1

>  <SCORE.INTER.POLAR>
0

>  <SCORE.INTER.ROT>
6

>  <SCORE.INTER.SOLV>
20.4298

>  <SCORE.INTER.VDW>
-16.1987

>  <SCORE.INTER.norm>
-0.0865533

>  <SCORE.INTRA>
-6.07202

>  <SCORE.INTRA.DIHEDRAL>
-14.8883

>  <SCORE.INTRA.DIHEDRAL.0>
18.77

>  <SCORE.INTRA.POLAR>
0

>  <SCORE.INTRA.POLAR.0>
0

>  <SCORE.INTRA.REPUL>
0

>  <SCORE.INTRA.REPUL.0>
0

>  <SCORE.INTRA.SOLV>
0.0987672

>  <SCORE.INTRA.SOLV.lig_0>
-77.2465

>  <SCORE.INTRA.VDW>
1.32275

>  <SCORE.INTRA.VDW.0>
-4.16072

>  <SCORE.INTRA.norm>
-0.195872

>  <SCORE.RESTR>
0

>  <SCORE.RESTR.CAVITY>
0

>  <SCORE.RESTR.norm>
0

>  <SCORE.SYSTEM>
0

>  <SCORE.SYSTEM.CONST>
0

>  <SCORE.SYSTEM.DIHEDRAL>
0

>  <SCORE.SYSTEM.SOLV>
0

>  <SCORE.SYSTEM.norm>
0

>  <SCORE.heavy>
31

>  <SCORE.norm>
-0.282425

>  <RMSD>
4.991

$$$$
ligand
 OpenBabel11021811493D
libRbt.so/2013.1/901 2013/11/27
 31 33  0  0  0  0  0  0  0  0999 V2000
   -7.5823  -12.5647  -18.0843 C   0  0  2  0  0  0  0  0  0  0  0  0
   -6.3758  -13.3340  -18.1807 O   0  0  0  0  0  0  0  0  0  0  0  0
   -6.6903  -15.8433  -14.7270 C   0  0  2  0  0  0  0  0  0  0  0  0
   -6.4290  -16.8990  -13.7969 N   0  0  0  0  0  0  0  0  0  0  0  0
   -4.8130  -15.1667  -12.4048 C   0  0  2  0  0  0  0  0  0  0  0  0
   -7.5783  -11.5819  -19.3074 C   0  0  2  0  0  0  0  0  0  0  0  0
   -7.4908  -12.3418  -20.5495 N   0  0  0  0  0  0  0  0  0  0  0  0
   -7.0638  -16.4748  -16.1234 C   0  0  0  0  0  0  0  0  0  0  0  0
   -4.3950  -14.1212  -11.3253 C   0  0  2  0  0  0  0  0  0  0  0  0
   -5.4694  -13.2213  -11.1137 O   0  0  0  0  0  0  0  0  0  0  0  0
   -6.3756  -10.5831  -19.1822 C   0  0  0  0  0  0  0  0  0  0  0  0
   -7.3616  -15.3012  -17.1536 C   0  0  2  0  0  0  0  0  0  0  0  0
   -7.7122  -15.8828  -18.4704 N   0  0  0  0  0  0  0  0  0  0  0  0
   -3.1139  -13.3582  -11.8844 C   0  0  1  0  0  0  0  0  0  0  0  0
   -2.6609  -12.3028  -10.9157 N   0  0  0  0  0  0  0  0  0  0  0  0
   -6.3019   -9.9817  -17.7489 C   0  0  0  0  0  0  0  0  0  0  0  0
   -6.0755  -14.3699  -17.2855 C   0  0  2  0  0  0  0  0  0  0  0  0
   -1.9088  -14.4305  -12.1095 C   0  0  1  0  0  0  0  0  0  0  0  0
   -1.5423  -15.0792  -10.9071 O   0  0  0  0  0  0  0  0  0  0  0  0
   -6.9061  -10.5854  -16.7143 C   0  0  2  0  0  0  0  0  0  0  0  0
   -7.6569  -11.8058  -16.8403 O   0  0  0  0  0  0  0  0  0  0  0  0
   -5.7113  -13.7762  -15.8605 C   0  0  2  0  0  0  0  0  0  0  0  0
   -4.5407  -12.9555  -15.9613 O   0  0  0  0  0  0  0  0  0  0  0  0
   -2.3783  -15.5307  -13.1202 C   0  0  0  0  0  0  0  0  0  0  0  0
   -3.6878  -16.1395  -12.6476 O   0  0  0  0  0  0  0  0  0  0  0  0
   -6.8466  -10.0020  -15.2833 C   0  0  0  0  0  0  0  0  0  0  0  0
   -8.1870   -9.6280  -14.8543 N   0  0  0  0  0  0  0  0  0  0  0  0
   -5.4223  -14.9481  -14.8542 C   0  0  1  0  0  0  0  0  0  0  0  0
   -5.1091  -14.3832  -13.6037 O   0  0  0  0  0  0  0  0  0  0  0  0
   -0.5929  -13.8510  -12.6545 C   0  0  0  0  0  0  0  0  0  0  0  0
   -2.3862  -10.9687  -11.4823 C   0  0  0  0  0  0  0  0  0  0  0  0
  1  2  1  1  0  0  0
  1  6  1  0  0  0  0
  1 21  1  0  0  0  0
  3  4  1  1  0  0  0
  3  8  1  0  0  0  0
  3 28  1  0  0  0  0
  5  9  1  0  0  0  0
  5 25  1  0  0  0  0
  5 29  1  6  0  0  0
  6  7  1  6  0  0  0
  6 11  1  0  0  0  0
  8 12  1  0  0  0  0
  9 10  1  6  0  0  0
  9 14  1  0  0  0  0
 11 16  1  0  0  0  0
 12 13  1  6  0  0  0
 12 17  1  0  0  0  0
 14 15  1  1  0  0  0
 14 18  1  0  0  0  0
 15 31  1  0  0  0  0
 16 20  1  0  0  0  0
 17  2  1  6  0  0  0
 17 22  1  0  0  0  0
 18 19  1  1  0  0  0
 18 24  1  0  0  0  0
 18 30  1  0  0  0  0
 20 21  1  0  0  0  0
 20 26  1  6  0  0  0
 22 23  1  6  0  0  0
 22 28  1  0  0  0  0
 24 25  1  0  0  0  0
 26 27  1  0  0  0  0
 28 29  1  1  0  0  0
M  END
>  <CHROM.1>
-176.57248818,174.60331801,-132.02605725,48.00300821,115.91480837,59.20876371
-5.33483838,-13.45956106,-14.96784261,2.84172428,-0.96140547,-0.06053500

>  <Name>
ligand

>  <RI>
0

>  <Rbt.Current_Directory>
/home/itssahil/PROJECTS/Mol_Feturizer/New_Systems/rnas/4F8U

>  <Rbt.Executable>
rbdock ($Id: //depot/dev/client3/rdock/2013.1/src/exe/rbdock.cxx#4 $)

>  <Rbt.Library>
libRbt.so (2013.1, Build901 2013/11/27)

>  <Rbt.Parameter_File>
/export/apps/rDock/src/rDock_2013.1_src/data/scripts/dock_solv.prm

>  <Rbt.Receptor>
prm/pocket_docking_6.prm

>  <SCORE>
-8.72522

>  <SCORE.INTER>
-2.17427

>  <SCORE.INTER.CONST>
1

>  <SCORE.INTER.POLAR>
0

>  <SCORE.INTER.ROT>
6

>  <SCORE.INTER.SOLV>
9.82971

>  <SCORE.INTER.VDW>
-12.3261

>  <SCORE.INTER.norm>
-0.0701376

>  <SCORE.INTRA>
-6.55096

>  <SCORE.INTRA.DIHEDRAL>
-15.0873

>  <SCORE.INTRA.DIHEDRAL.0>
18.77

>  <SCORE.INTRA.POLAR>
0

>  <SCORE.INTRA.POLAR.0>
0

>  <SCORE.INTRA.REPUL>
0

>  <SCORE.INTRA.REPUL.0>
0

>  <SCORE.INTRA.SOLV>
-0.180602

>  <SCORE.INTRA.SOLV.lig_0>
-77.2465

>  <SCORE.INTRA.VDW>
1.08302

>  <SCORE.INTRA.VDW.0>
-4.16072

>  <SCORE.INTRA.norm>
-0.211321

>  <SCORE.RESTR>
0

>  <SCORE.RESTR.CAVITY>
0

>  <SCORE.RESTR.norm>
0

>  <SCORE.SYSTEM>
0

>  <SCORE.SYSTEM.CONST>
0

>  <SCORE.SYSTEM.DIHEDRAL>
0

>  <SCORE.SYSTEM.SOLV>
0

>  <SCORE.SYSTEM.norm>
0

>  <SCORE.heavy>
31

>  <SCORE.norm>
-0.281459

>  <RMSD>
4.998

$$$$
ligand
 OpenBabel11021811493D
libRbt.so/2013.1/901 2013/11/27
 31 33  0  0  0  0  0  0  0  0999 V2000
   -6.0675  -12.4956  -17.9874 C   0  0  2  0  0  0  0  0  0  0  0  0
   -7.1115  -12.2428  -17.0373 O   0  0  0  0  0  0  0  0  0  0  0  0
   -7.2683  -12.5697  -12.7721 C   0  0  2  0  0  0  0  0  0  0  0  0
   -7.3125  -13.1459  -11.4628 N   0  0  0  0  0  0  0  0  0  0  0  0
   -4.5219  -12.9966  -11.3902 C   0  0  2  0  0  0  0  0  0  0  0  0
   -6.4164  -11.6503  -19.2624 C   0  0  2  0  0  0  0  0  0  0  0  0
   -6.5245  -10.2404  -18.9041 N   0  0  0  0  0  0  0  0  0  0  0  0
   -8.5265  -13.0596  -13.5875 C   0  0  0  0  0  0  0  0  0  0  0  0
   -3.2374  -12.2053  -10.9938 C   0  0  2  0  0  0  0  0  0  0  0  0
   -3.5165  -10.8167  -11.0442 O   0  0  0  0  0  0  0  0  0  0  0  0
   -7.7567  -12.1672  -19.8918 C   0  0  0  0  0  0  0  0  0  0  0  0
   -8.4806  -12.4125  -15.0389 C   0  0  2  0  0  0  0  0  0  0  0  0
   -9.6577  -12.8673  -15.8153 N   0  0  0  0  0  0  0  0  0  0  0  0
   -2.1043  -12.5974  -12.0419 C   0  0  1  0  0  0  0  0  0  0  0  0
   -0.8333  -11.8504  -11.7527 N   0  0  0  0  0  0  0  0  0  0  0  0
   -7.7507  -13.7187  -20.0109 C   0  0  0  0  0  0  0  0  0  0  0  0
   -7.1339  -12.8458  -15.7721 C   0  0  2  0  0  0  0  0  0  0  0  0
   -1.8180  -14.1980  -11.9460 C   0  0  1  0  0  0  0  0  0  0  0  0
   -1.3761  -14.5831  -10.6587 O   0  0  0  0  0  0  0  0  0  0  0  0
   -6.9131  -14.4650  -19.2753 C   0  0  2  0  0  0  0  0  0  0  0  0
   -5.9715  -13.9080  -18.3414 O   0  0  0  0  0  0  0  0  0  0  0  0
   -5.8916  -12.3639  -14.9118 C   0  0  2  0  0  0  0  0  0  0  0  0
   -4.6734  -12.7692  -15.5488 O   0  0  0  0  0  0  0  0  0  0  0  0
   -3.1413  -14.9786  -12.2488 C   0  0  0  0  0  0  0  0  0  0  0  0
   -4.2534  -14.4788  -11.3420 O   0  0  0  0  0  0  0  0  0  0  0  0
   -6.8901  -16.0077  -19.3814 C   0  0  0  0  0  0  0  0  0  0  0  0
   -7.7961  -16.4362  -20.4378 N   0  0  0  0  0  0  0  0  0  0  0  0
   -5.9532  -13.0099  -13.4806 C   0  0  1  0  0  0  0  0  0  0  0  0
   -4.8407  -12.5557  -12.7477 O   0  0  0  0  0  0  0  0  0  0  0  0
   -0.7451  -14.7426  -12.9036 C   0  0  0  0  0  0  0  0  0  0  0  0
   -0.1163  -11.3020  -12.9195 C   0  0  0  0  0  0  0  0  0  0  0  0
  1  2  1  1  0  0  0
  1  6  1  0  0  0  0
  1 21  1  0  0  0  0
  3  4  1  1  0  0  0
  3  8  1  0  0  0  0
  3 28  1  0  0  0  0
  5  9  1  0  0  0  0
  5 25  1  0  0  0  0
  5 29  1  6  0  0  0
  6  7  1  1  0  0  0
  6 11  1  0  0  0  0
  8 12  1  0  0  0  0
  9 10  1  6  0  0  0
  9 14  1  0  0  0  0
 11 16  1  0  0  0  0
 12 13  1  6  0  0  0
 12 17  1  0  0  0  0
 14 15  1  1  0  0  0
 14 18  1  0  0  0  0
 15 31  1  0  0  0  0
 16 20  1  0  0  0  0
 17  2  1  6  0  0  0
 17 22  1  0  0  0  0
 18 19  1  1  0  0  0
 18 24  1  0  0  0  0
 18 30  1  0  0  0  0
 20 21  1  0  0  0  0
 20 26  1  6  0  0  0
 22 23  1  6  0  0  0
 22 28  1  0  0  0  0
 24 25  1  0  0  0  0
 26 27  1  0  0  0  0
 28 29  1  1  0  0  0
M  END
>  <CHROM.1>
179.48552364,-178.77952509,-137.50724998,-176.13206242,4.77942130,63.97433992
-5.26570261,-13.08996568,-14.84054413,-2.18147235,-0.15105636,1.41291641

>  <Name>
ligand

>  <RI>
0

>  <Rbt.Current_Directory>
/home/itssahil/PROJECTS/Mol_Feturizer/New_Systems/rnas/4F8U

>  <Rbt.Executable>
rbdock ($Id: //depot/dev/client3/rdock/2013.1/src/exe/rbdock.cxx#4 $)

>  <Rbt.Library>
libRbt.so (2013.1, Build901 2013/11/27)

>  <Rbt.Parameter_File>
/export/apps/rDock/src/rDock_2013.1_src/data/scripts/dock_solv.prm

>  <Rbt.Receptor>
prm/pocket_docking_8.prm

>  <SCORE>
-10.5809

>  <SCORE.INTER>
-3.92059

>  <SCORE.INTER.CONST>
1

>  <SCORE.INTER.POLAR>
0

>  <SCORE.INTER.ROT>
6

>  <SCORE.INTER.SOLV>
10.9854

>  <SCORE.INTER.VDW>
-13.8755

>  <SCORE.INTER.norm>
-0.126471

>  <SCORE.INTRA>
-6.66031

>  <SCORE.INTRA.DIHEDRAL>
-15.9308

>  <SCORE.INTRA.DIHEDRAL.0>
18.77

>  <SCORE.INTRA.POLAR>
0

>  <SCORE.INTRA.POLAR.0>
0

>  <SCORE.INTRA.REPUL>
0

>  <SCORE.INTRA.REPUL.0>
0

>  <SCORE.INTRA.SOLV>
-1.79627

>  <SCORE.INTRA.SOLV.lig_0>
-77.2465

>  <SCORE.INTRA.VDW>
2.2032

>  <SCORE.INTRA.VDW.0>
-4.16072

>  <SCORE.INTRA.norm>
-0.214849

>  <SCORE.RESTR>
0

>  <SCORE.RESTR.CAVITY>
0

>  <SCORE.RESTR.norm>
0

>  <SCORE.SYSTEM>
0

>  <SCORE.SYSTEM.CONST>
0

>  <SCORE.SYSTEM.DIHEDRAL>
0

>  <SCORE.SYSTEM.SOLV>
0

>  <SCORE.SYSTEM.norm>
0

>  <SCORE.heavy>
31

>  <SCORE.norm>
-0.341319

>  <RMSD>
5.011

$$$$
ligand
 OpenBabel11021811493D
libRbt.so/2013.1/901 2013/11/27
 31 33  0  0  0  0  0  0  0  0999 V2000
   -7.9133  -12.6798  -17.8956 C   0  0  2  0  0  0  0  0  0  0  0  0
   -6.5866  -13.1520  -17.6246 O   0  0  0  0  0  0  0  0  0  0  0  0
   -7.2479  -15.5430  -14.1362 C   0  0  2  0  0  0  0  0  0  0  0  0
   -7.0091  -16.4536  -13.0584 N   0  0  0  0  0  0  0  0  0  0  0  0
   -6.2735  -14.2574  -11.4734 C   0  0  2  0  0  0  0  0  0  0  0  0
   -7.8308  -11.8795  -19.2427 C   0  0  2  0  0  0  0  0  0  0  0  0
   -7.3123  -12.7433  -20.2977 N   0  0  0  0  0  0  0  0  0  0  0  0
   -7.0112  -16.2959  -15.5018 C   0  0  0  0  0  0  0  0  0  0  0  0
   -6.5666  -13.1171  -10.4501 C   0  0  2  0  0  0  0  0  0  0  0  0
   -7.9108  -12.6943  -10.6024 O   0  0  0  0  0  0  0  0  0  0  0  0
   -6.9150  -10.6199  -19.0568 C   0  0  0  0  0  0  0  0  0  0  0  0
   -7.2845  -15.2855  -16.6984 C   0  0  2  0  0  0  0  0  0  0  0  0
   -7.0635  -15.9817  -17.9874 N   0  0  0  0  0  0  0  0  0  0  0  0
   -5.5555  -11.9294  -10.7711 C   0  0  1  0  0  0  0  0  0  0  0  0
   -5.7917  -10.7681   -9.8476 N   0  0  0  0  0  0  0  0  0  0  0  0
   -7.2912   -9.8482  -17.7590 C   0  0  0  0  0  0  0  0  0  0  0  0
   -6.3068  -14.0338  -16.5715 C   0  0  2  0  0  0  0  0  0  0  0  0
   -4.0278  -12.4616  -10.5815 C   0  0  1  0  0  0  0  0  0  0  0  0
   -3.7786  -12.9043   -9.2614 O   0  0  0  0  0  0  0  0  0  0  0  0
   -7.9794  -10.4457  -16.7747 C   0  0  2  0  0  0  0  0  0  0  0  0
   -8.4197  -11.8137  -16.8361 O   0  0  0  0  0  0  0  0  0  0  0  0
   -6.5507  -13.3188  -15.1769 C   0  0  2  0  0  0  0  0  0  0  0  0
   -5.6595  -12.2048  -15.0401 O   0  0  0  0  0  0  0  0  0  0  0  0
   -3.7789  -13.6712  -11.5445 C   0  0  0  0  0  0  0  0  0  0  0  0
   -4.8490  -14.7285  -11.3309 O   0  0  0  0  0  0  0  0  0  0  0  0
   -8.3650   -9.6949  -15.4788 C   0  0  0  0  0  0  0  0  0  0  0  0
   -7.3060   -9.8522  -14.4919 N   0  0  0  0  0  0  0  0  0  0  0  0
   -6.2788  -14.3308  -14.0058 C   0  0  1  0  0  0  0  0  0  0  0  0
   -6.5102  -13.6631  -12.7885 O   0  0  0  0  0  0  0  0  0  0  0  0
   -2.9222  -11.4298  -10.8600 C   0  0  0  0  0  0  0  0  0  0  0  0
   -6.8135   -9.7920  -10.2713 C   0  0  0  0  0  0  0  0  0  0  0  0
  1  2  1  1  0  0  0
  1  6  1  0  0  0  0
  1 21  1  0  0  0  0
  3  4  1  1  0  0  0
  3  8  1  0  0  0  0
  3 28  1  0  0  0  0
  5  9  1  0  0  0  0
  5 25  1  0  0  0  0
  5 29  1  6  0  0  0
  6  7  1  6  0  0  0
  6 11  1  0  0  0  0
  8 12  1  0  0  0  0
  9 10  1  6  0  0  0
  9 14  1  0  0  0  0
 11 16  1  0  0  0  0
 12 13  1  6  0  0  0
 12 17  1  0  0  0  0
 14 15  1  1  0  0  0
 14 18  1  0  0  0  0
 15 31  1  0  0  0  0
 16 20  1  0  0  0  0
 17  2  1  6  0  0  0
 17 22  1  0  0  0  0
 18 19  1  1  0  0  0
 18 24  1  0  0  0  0
 18 30  1  0  0  0  0
 20 21  1  0  0  0  0
 20 26  1  6  0  0  0
 22 23  1  1  0  0  0
 22 28  1  0  0  0  0
 24 25  1  0  0  0  0
 26 27  1  0  0  0  0
 28 29  1  1  0  0  0
M  END
>  <CHROM.1>
-172.83368570,175.86788491,-86.93017310,52.36959726,-89.73848686,65.00364428
-6.47333405,-12.81001425,-14.26006982,2.86351334,1.27222940,-2.82895080

>  <Name>
ligand

>  <RI>
0

>  <Rbt.Current_Directory>
/home/itssahil/PROJECTS/Mol_Feturizer/New_Systems/rnas/4F8U

>  <Rbt.Executable>
rbdock ($Id: //depot/dev/client3/rdock/2013.1/src/exe/rbdock.cxx#4 $)

>  <Rbt.Library>
libRbt.so (2013.1, Build901 2013/11/27)

>  <Rbt.Parameter_File>
/export/apps/rDock/src/rDock_2013.1_src/data/scripts/dock_solv.prm

>  <Rbt.Receptor>
prm/pocket_docking_7.prm

>  <SCORE>
-9.80077

>  <SCORE.INTER>
-4.02138

>  <SCORE.INTER.CONST>
1

>  <SCORE.INTER.POLAR>
0

>  <SCORE.INTER.ROT>
6

>  <SCORE.INTER.SOLV>
8.64503

>  <SCORE.INTER.VDW>
-13.1626

>  <SCORE.INTER.norm>
-0.129722

>  <SCORE.INTRA>
-5.77939

>  <SCORE.INTRA.DIHEDRAL>
-14.8694

>  <SCORE.INTRA.DIHEDRAL.0>
18.77

>  <SCORE.INTRA.POLAR>
0

>  <SCORE.INTRA.POLAR.0>
0

>  <SCORE.INTRA.REPUL>
0.00246584

>  <SCORE.INTRA.REPUL.0>
0

>  <SCORE.INTRA.SOLV>
1.97507

>  <SCORE.INTRA.SOLV.lig_0>
-77.2465

>  <SCORE.INTRA.VDW>
0.65544

>  <SCORE.INTRA.VDW.0>
-4.16072

>  <SCORE.INTRA.norm>
-0.186432

>  <SCORE.RESTR>
0

>  <SCORE.RESTR.CAVITY>
0

>  <SCORE.RESTR.norm>
0

>  <SCORE.SYSTEM>
0

>  <SCORE.SYSTEM.CONST>
0

>  <SCORE.SYSTEM.DIHEDRAL>
0

>  <SCORE.SYSTEM.SOLV>
0

>  <SCORE.SYSTEM.norm>
0

>  <SCORE.heavy>
31

>  <SCORE.norm>
-0.316154

>  <RMSD>
5.046

$$$$
ligand
 OpenBabel11021811493D
libRbt.so/2013.1/901 2013/11/27
 31 33  0  0  0  0  0  0  0  0999 V2000
   -7.2840   -8.1556  -20.2669 C   0  0  2  0  0  0  0  0  0  0  0  0
   -6.3472   -9.1896  -19.9359 O   0  0  0  0  0  0  0  0  0  0  0  0
   -8.6432  -11.6015  -17.2461 C   0  0  2  0  0  0  0  0  0  0  0  0
   -8.9788  -12.6127  -16.2907 N   0  0  0  0  0  0  0  0  0  0  0  0
   -7.4135   -8.9743  -14.7334 C   0  0  2  0  0  0  0  0  0  0  0  0
   -7.7384   -8.4275  -21.7439 C   0  0  2  0  0  0  0  0  0  0  0  0
   -8.3141   -9.7641  -21.8439 N   0  0  0  0  0  0  0  0  0  0  0  0
   -8.0776  -12.2948  -18.5451 C   0  0  0  0  0  0  0  0  0  0  0  0
   -6.7998   -9.6862  -13.4884 C   0  0  2  0  0  0  0  0  0  0  0  0
   -5.9028  -10.6920  -13.9271 O   0  0  0  0  0  0  0  0  0  0  0  0
   -6.5141   -8.2769  -22.7125 C   0  0  0  0  0  0  0  0  0  0  0  0
   -7.7126  -11.1709  -19.6086 C   0  0  2  0  0  0  0  0  0  0  0  0
   -7.1783  -11.8108  -20.8334 N   0  0  0  0  0  0  0  0  0  0  0  0
   -8.0092  -10.3193  -12.6682 C   0  0  1  0  0  0  0  0  0  0  0  0
   -7.5025  -11.0577  -11.4619 N   0  0  0  0  0  0  0  0  0  0  0  0
   -5.7253   -6.9703  -22.4092 C   0  0  0  0  0  0  0  0  0  0  0  0
   -6.6311  -10.1803  -18.9857 C   0  0  2  0  0  0  0  0  0  0  0  0
   -9.0095   -9.1280  -12.1853 C   0  0  1  0  0  0  0  0  0  0  0  0
   -8.3569   -8.1911  -11.3503 O   0  0  0  0  0  0  0  0  0  0  0  0
   -5.8462   -6.3489  -21.2264 C   0  0  2  0  0  0  0  0  0  0  0  0
   -6.6961   -6.8237  -20.1677 O   0  0  0  0  0  0  0  0  0  0  0  0
   -7.2206   -9.5242  -17.6675 C   0  0  2  0  0  0  0  0  0  0  0  0
   -6.2473   -8.6489  -17.0839 O   0  0  0  0  0  0  0  0  0  0  0  0
   -9.5402   -8.3580  -13.4414 C   0  0  0  0  0  0  0  0  0  0  0  0
   -8.3709   -7.8962  -14.2947 O   0  0  0  0  0  0  0  0  0  0  0  0
   -5.0729   -5.0482  -20.9071 C   0  0  0  0  0  0  0  0  0  0  0  0
   -6.0179   -3.9659  -20.6708 N   0  0  0  0  0  0  0  0  0  0  0  0
   -7.5781  -10.6477  -16.6284 C   0  0  1  0  0  0  0  0  0  0  0  0
   -8.1015  -10.0285  -15.4779 O   0  0  0  0  0  0  0  0  0  0  0  0
  -10.2399   -9.5755  -11.3788 C   0  0  0  0  0  0  0  0  0  0  0  0
   -6.5610  -10.3254  -10.5938 C   0  0  0  0  0  0  0  0  0  0  0  0
  1  2  1  6  0  0  0
  1  6  1  0  0  0  0
  1 21  1  0  0  0  0
  3  4  1  1  0  0  0
  3  8  1  0  0  0  0
  3 28  1  0  0  0  0
  5  9  1  0  0  0  0
  5 25  1  0  0  0  0
  5 29  1  6  0  0  0
  6  7  1  1  0  0  0
  6 11  1  0  0  0  0
  8 12  1  0  0  0  0
  9 10  1  6  0  0  0
  9 14  1  0  0  0  0
 11 16  1  0  0  0  0
 12 13  1  6  0  0  0
 12 17  1  0  0  0  0
 14 15  1  1  0  0  0
 14 18  1  0  0  0  0
 15 31  1  0  0  0  0
 16 20  1  0  0  0  0
 17  2  1  6  0  0  0
 17 22  1  0  0  0  0
 18 19  1  1  0  0  0
 18 24  1  0  0  0  0
 18 30  1  0  0  0  0
 20 21  1  0  0  0  0
 20 26  1  6  0  0  0
 22 23  1  1  0  0  0
 22 28  1  0  0  0  0
 24 25  1  0  0  0  0
 26 27  1  0  0  0  0
 28 29  1  1  0  0  0
M  END
>  <CHROM.1>
-112.20678113,-101.44352469,50.30965048,71.73440431,117.48916883,-173.62340344
-7.39774962,-9.19744938,-17.03593838,-0.89987530,1.29399509,1.14613822

>  <Name>
ligand

>  <RI>
0

>  <Rbt.Current_Directory>
/home/itssahil/PROJECTS/Mol_Feturizer/New_Systems/rnas/4F8U

>  <Rbt.Executable>
rbdock ($Id: //depot/dev/client3/rdock/2013.1/src/exe/rbdock.cxx#4 $)

>  <Rbt.Library>
libRbt.so (2013.1, Build901 2013/11/27)

>  <Rbt.Parameter_File>
/export/apps/rDock/src/rDock_2013.1_src/data/scripts/dock_solv.prm

>  <Rbt.Receptor>
prm/blind_docking_40.prm

>  <SCORE>
24.9794

>  <SCORE.INTER>
1.71238

>  <SCORE.INTER.CONST>
1

>  <SCORE.INTER.POLAR>
0

>  <SCORE.INTER.ROT>
6

>  <SCORE.INTER.SOLV>
21.3603

>  <SCORE.INTER.VDW>
-13.5785

>  <SCORE.INTER.norm>
0.0552381

>  <SCORE.INTRA>
4.33834

>  <SCORE.INTRA.DIHEDRAL>
-3.61194

>  <SCORE.INTRA.DIHEDRAL.0>
18.77

>  <SCORE.INTRA.POLAR>
0

>  <SCORE.INTRA.POLAR.0>
0

>  <SCORE.INTRA.REPUL>
0

>  <SCORE.INTRA.REPUL.0>
0

>  <SCORE.INTRA.SOLV>
2.5472

>  <SCORE.INTRA.SOLV.lig_0>
-77.2465

>  <SCORE.INTRA.VDW>
4.8707

>  <SCORE.INTRA.VDW.0>
-4.16072

>  <SCORE.INTRA.norm>
0.139946

>  <SCORE.RESTR>
18.9287

>  <SCORE.RESTR.CAVITY>
18.9287

>  <SCORE.RESTR.norm>
0.610602

>  <SCORE.SYSTEM>
0

>  <SCORE.SYSTEM.CONST>
0

>  <SCORE.SYSTEM.DIHEDRAL>
0

>  <SCORE.SYSTEM.SOLV>
0

>  <SCORE.SYSTEM.norm>
0

>  <SCORE.heavy>
31

>  <SCORE.norm>
0.805786

>  <RMSD>
5.081

$$$$
ligand
 OpenBabel11021811493D
libRbt.so/2013.1/901 2013/11/27
 31 33  0  0  0  0  0  0  0  0999 V2000
   -7.7093  -13.1371  -20.3234 C   0  0  2  0  0  0  0  0  0  0  0  0
   -6.3582  -13.5832  -20.1442 O   0  0  0  0  0  0  0  0  0  0  0  0
   -6.8533  -16.4977  -17.0484 C   0  0  2  0  0  0  0  0  0  0  0  0
   -6.5481  -17.5242  -16.0992 N   0  0  0  0  0  0  0  0  0  0  0  0
   -5.6541  -13.6625  -14.7558 C   0  0  2  0  0  0  0  0  0  0  0  0
   -7.6440  -11.9130  -21.3029 C   0  0  2  0  0  0  0  0  0  0  0  0
   -7.0119  -12.3166  -22.5540 N   0  0  0  0  0  0  0  0  0  0  0  0
   -6.5095  -17.0226  -18.4955 C   0  0  0  0  0  0  0  0  0  0  0  0
   -4.3448  -14.2863  -14.1816 C   0  0  2  0  0  0  0  0  0  0  0  0
   -3.5774  -14.8137  -15.2501 O   0  0  0  0  0  0  0  0  0  0  0  0
   -6.8488  -10.7388  -20.6330 C   0  0  0  0  0  0  0  0  0  0  0  0
   -6.8564  -15.8843  -19.5497 C   0  0  2  0  0  0  0  0  0  0  0  0
   -6.5357  -16.3658  -20.9136 N   0  0  0  0  0  0  0  0  0  0  0  0
   -4.7793  -15.4367  -13.1696 C   0  0  1  0  0  0  0  0  0  0  0  0
   -3.5715  -16.1178  -12.5912 N   0  0  0  0  0  0  0  0  0  0  0  0
   -7.3408  -10.4964  -19.1768 C   0  0  0  0  0  0  0  0  0  0  0  0
   -6.0145  -14.5738  -19.2139 C   0  0  2  0  0  0  0  0  0  0  0  0
   -5.6551  -14.7835  -11.9617 C   0  0  1  0  0  0  0  0  0  0  0  0
   -4.9219  -13.8157  -11.2360 O   0  0  0  0  0  0  0  0  0  0  0  0
   -8.0125  -11.4453  -18.5074 C   0  0  2  0  0  0  0  0  0  0  0  0
   -8.3297  -12.7320  -19.0664 O   0  0  0  0  0  0  0  0  0  0  0  0
   -6.3623  -14.0911  -17.7437 C   0  0  2  0  0  0  0  0  0  0  0  0
   -5.5927  -12.9261  -17.4204 O   0  0  0  0  0  0  0  0  0  0  0  0
   -6.9155  -14.0744  -12.5624 C   0  0  0  0  0  0  0  0  0  0  0  0
   -6.4892  -13.0907  -13.6391 O   0  0  0  0  0  0  0  0  0  0  0  0
   -8.5119  -11.2225  -17.0609 C   0  0  0  0  0  0  0  0  0  0  0  0
   -7.9447   -9.9888  -16.5349 N   0  0  0  0  0  0  0  0  0  0  0  0
   -6.0161  -15.2275  -16.7150 C   0  0  1  0  0  0  0  0  0  0  0  0
   -6.3425  -14.7649  -15.4264 O   0  0  0  0  0  0  0  0  0  0  0  0
   -6.1592  -15.7690  -10.8944 C   0  0  0  0  0  0  0  0  0  0  0  0
   -3.5643  -17.5921  -12.6418 C   0  0  0  0  0  0  0  0  0  0  0  0
  1  2  1  1  0  0  0
  1  6  1  0  0  0  0
  1 21  1  0  0  0  0
  3  4  1  1  0  0  0
  3  8  1  0  0  0  0
  3 28  1  0  0  0  0
  5  9  1  0  0  0  0
  5 25  1  0  0  0  0
  5 29  1  1  0  0  0
  6  7  1  6  0  0  0
  6 11  1  0  0  0  0
  8 12  1  0  0  0  0
  9 10  1  6  0  0  0
  9 14  1  0  0  0  0
 11 16  1  0  0  0  0
 12 13  1  6  0  0  0
 12 17  1  0  0  0  0
 14 15  1  1  0  0  0
 14 18  1  0  0  0  0
 15 31  1  0  0  0  0
 16 20  1  0  0  0  0
 17  2  1  6  0  0  0
 17 22  1  0  0  0  0
 18 19  1  1  0  0  0
 18 24  1  0  0  0  0
 18 30  1  0  0  0  0
 20 21  1  0  0  0  0
 20 26  1  6  0  0  0
 22 23  1  1  0  0  0
 22 28  1  0  0  0  0
 24 25  1  0  0  0  0
 26 27  1  0  0  0  0
 28 29  1  1  0  0  0
M  END
>  <CHROM.1>
172.86677223,-80.24687991,-130.29251626,57.23974776,-9.63059450,174.28939227
-6.27251411,-14.05414062,-16.62885285,-2.43910520,-1.21246472,1.08160604

>  <Name>
ligand

>  <RI>
0

>  <Rbt.Current_Directory>
/home/itssahil/PROJECTS/Mol_Feturizer/New_Systems/rnas/4F8U

>  <Rbt.Executable>
rbdock ($Id: //depot/dev/client3/rdock/2013.1/src/exe/rbdock.cxx#4 $)

>  <Rbt.Library>
libRbt.so (2013.1, Build901 2013/11/27)

>  <Rbt.Parameter_File>
/export/apps/rDock/src/rDock_2013.1_src/data/scripts/dock_solv.prm

>  <Rbt.Receptor>
prm/pocket_docking_7.prm

>  <SCORE>
-7.8942

>  <SCORE.INTER>
-2.53268

>  <SCORE.INTER.CONST>
1

>  <SCORE.INTER.POLAR>
0

>  <SCORE.INTER.ROT>
6

>  <SCORE.INTER.SOLV>
16.1059

>  <SCORE.INTER.VDW>
-14.6571

>  <SCORE.INTER.norm>
-0.0816995

>  <SCORE.INTRA>
-5.36152

>  <SCORE.INTRA.DIHEDRAL>
-13.5648

>  <SCORE.INTRA.DIHEDRAL.0>
18.77

>  <SCORE.INTRA.POLAR>
0

>  <SCORE.INTRA.POLAR.0>
0

>  <SCORE.INTRA.REPUL>
0

>  <SCORE.INTRA.REPUL.0>
0

>  <SCORE.INTRA.SOLV>
-0.697005

>  <SCORE.INTRA.SOLV.lig_0>
-77.2465

>  <SCORE.INTRA.VDW>
1.7694

>  <SCORE.INTRA.VDW.0>
-4.16072

>  <SCORE.INTRA.norm>
-0.172952

>  <SCORE.RESTR>
0

>  <SCORE.RESTR.CAVITY>
0

>  <SCORE.RESTR.norm>
0

>  <SCORE.SYSTEM>
0

>  <SCORE.SYSTEM.CONST>
0

>  <SCORE.SYSTEM.DIHEDRAL>
0

>  <SCORE.SYSTEM.SOLV>
0

>  <SCORE.SYSTEM.norm>
0

>  <SCORE.heavy>
31

>  <SCORE.norm>
-0.254652

>  <RMSD>
5.173

$$$$
ligand
 OpenBabel11021811493D
libRbt.so/2013.1/901 2013/11/27
 31 33  0  0  0  0  0  0  0  0999 V2000
   -5.9214  -11.9843  -16.6563 C   0  0  2  0  0  0  0  0  0  0  0  0
   -6.1188  -11.3439  -15.3884 O   0  0  0  0  0  0  0  0  0  0  0  0
   -3.8384  -11.3570  -11.7658 C   0  0  2  0  0  0  0  0  0  0  0  0
   -3.2496  -11.8102  -10.5427 N   0  0  0  0  0  0  0  0  0  0  0  0
   -0.9989  -12.7267  -12.0788 C   0  0  2  0  0  0  0  0  0  0  0  0
   -6.5761  -11.0472  -17.7311 C   0  0  2  0  0  0  0  0  0  0  0  0
   -5.9674   -9.7232  -17.6665 N   0  0  0  0  0  0  0  0  0  0  0  0
   -5.4082  -11.4449  -11.6394 C   0  0  0  0  0  0  0  0  0  0  0  0
    0.4169  -12.4929  -12.6905 C   0  0  2  0  0  0  0  0  0  0  0  0
    0.6232  -11.1008  -12.8585 O   0  0  0  0  0  0  0  0  0  0  0  0
   -8.1230  -10.9592  -17.4874 C   0  0  0  0  0  0  0  0  0  0  0  0
   -6.0613  -10.9338  -12.9957 C   0  0  2  0  0  0  0  0  0  0  0  0
   -7.5369  -11.0134  -12.8892 N   0  0  0  0  0  0  0  0  0  0  0  0
    0.4511  -13.2476  -14.0925 C   0  0  1  0  0  0  0  0  0  0  0  0
    1.7765  -13.0460  -14.7707 N   0  0  0  0  0  0  0  0  0  0  0  0
   -8.7310  -12.3751  -17.2706 C   0  0  0  0  0  0  0  0  0  0  0  0
   -5.5452  -11.8321  -14.2063 C   0  0  2  0  0  0  0  0  0  0  0  0
    0.2115  -14.8400  -13.8486 C   0  0  1  0  0  0  0  0  0  0  0  0
    1.2087  -15.4075  -13.0213 O   0  0  0  0  0  0  0  0  0  0  0  0
   -7.9580  -13.4119  -16.9138 C   0  0  2  0  0  0  0  0  0  0  0  0
   -6.5380  -13.3057  -16.7108 O   0  0  0  0  0  0  0  0  0  0  0  0
   -3.9636  -11.7438  -14.2859 C   0  0  2  0  0  0  0  0  0  0  0  0
   -3.4847  -12.5675  -15.3565 O   0  0  0  0  0  0  0  0  0  0  0  0
   -1.1703  -15.0525  -13.1432 C   0  0  0  0  0  0  0  0  0  0  0  0
   -1.2438  -14.2013  -11.8867 O   0  0  0  0  0  0  0  0  0  0  0  0
   -8.5430  -14.8268  -16.6963 C   0  0  0  0  0  0  0  0  0  0  0  0
   -8.5090  -15.1547  -15.2780 N   0  0  0  0  0  0  0  0  0  0  0  0
   -3.3341  -12.2500  -12.9379 C   0  0  1  0  0  0  0  0  0  0  0  0
   -1.9342  -12.1517  -13.0451 O   0  0  0  0  0  0  0  0  0  0  0  0
    0.2111  -15.7161  -15.1123 C   0  0  0  0  0  0  0  0  0  0  0  0
    2.9760  -13.3478  -13.9667 C   0  0  0  0  0  0  0  0  0  0  0  0
  1  2  1  1  0  0  0
  1  6  1  0  0  0  0
  1 21  1  0  0  0  0
  3  4  1  1  0  0  0
  3  8  1  0  0  0  0
  3 28  1  0  0  0  0
  5  9  1  0  0  0  0
  5 25  1  0  0  0  0
  5 29  1  6  0  0  0
  6  7  1  1  0  0  0
  6 11  1  0  0  0  0
  8 12  1  0  0  0  0
  9 10  1  6  0  0  0
  9 14  1  0  0  0  0
 11 16  1  0  0  0  0
 12 13  1  1  0  0  0
 12 17  1  0  0  0  0
 14 15  1  1  0  0  0
 14 18  1  0  0  0  0
 15 31  1  0  0  0  0
 16 20  1  0  0  0  0
 17  2  1  6  0  0  0
 17 22  1  0  0  0  0
 18 19  1  1  0  0  0
 18 24  1  0  0  0  0
 18 30  1  0  0  0  0
 20 21  1  0  0  0  0
 20 26  1  6  0  0  0
 22 23  1  6  0  0  0
 22 28  1  0  0  0  0
 24 25  1  0  0  0  0
 26 27  1  0  0  0  0
 28 29  1  6  0  0  0
M  END
>  <CHROM.1>
-173.48279105,174.28053549,51.50582082,-176.09407449,-109.73322559,70.99059063
-3.59104136,-12.67821307,-14.34949456,-2.91200492,-0.31417035,1.06251931

>  <Name>
ligand

>  <RI>
0

>  <Rbt.Current_Directory>
/home/itssahil/PROJECTS/Mol_Feturizer/New_Systems/rnas/4F8U

>  <Rbt.Executable>
rbdock ($Id: //depot/dev/client3/rdock/2013.1/src/exe/rbdock.cxx#4 $)

>  <Rbt.Library>
libRbt.so (2013.1, Build901 2013/11/27)

>  <Rbt.Parameter_File>
/export/apps/rDock/src/rDock_2013.1_src/data/scripts/dock_solv.prm

>  <Rbt.Receptor>
prm/pocket_docking_7.prm

>  <SCORE>
-7.5154

>  <SCORE.INTER>
-1.44638

>  <SCORE.INTER.CONST>
1

>  <SCORE.INTER.POLAR>
0

>  <SCORE.INTER.ROT>
6

>  <SCORE.INTER.SOLV>
9.98972

>  <SCORE.INTER.VDW>
-11.8942

>  <SCORE.INTER.norm>
-0.0466573

>  <SCORE.INTRA>
-6.06903

>  <SCORE.INTRA.DIHEDRAL>
-15.87

>  <SCORE.INTRA.DIHEDRAL.0>
18.77

>  <SCORE.INTRA.POLAR>
0

>  <SCORE.INTRA.POLAR.0>
0

>  <SCORE.INTRA.REPUL>
0

>  <SCORE.INTRA.REPUL.0>
0

>  <SCORE.INTRA.SOLV>
-1.73198

>  <SCORE.INTRA.SOLV.lig_0>
-77.2465

>  <SCORE.INTRA.VDW>
2.73198

>  <SCORE.INTRA.VDW.0>
-4.16072

>  <SCORE.INTRA.norm>
-0.195775

>  <SCORE.RESTR>
0

>  <SCORE.RESTR.CAVITY>
0

>  <SCORE.RESTR.norm>
0

>  <SCORE.SYSTEM>
0

>  <SCORE.SYSTEM.CONST>
0

>  <SCORE.SYSTEM.DIHEDRAL>
0

>  <SCORE.SYSTEM.SOLV>
0

>  <SCORE.SYSTEM.norm>
0

>  <SCORE.heavy>
31

>  <SCORE.norm>
-0.242432

>  <RMSD>
5.183

$$$$
ligand
 OpenBabel11021811493D
libRbt.so/2013.1/901 2013/11/27
 31 33  0  0  0  0  0  0  0  0999 V2000
   -3.6056  -13.6898  -16.9969 C   0  0  2  0  0  0  0  0  0  0  0  0
   -2.7453  -14.5088  -16.1934 O   0  0  0  0  0  0  0  0  0  0  0  0
   -1.7541  -14.6218  -12.0306 C   0  0  2  0  0  0  0  0  0  0  0  0
   -1.2395  -14.2297  -10.7542 N   0  0  0  0  0  0  0  0  0  0  0  0
   -3.8002  -12.9391  -10.2410 C   0  0  2  0  0  0  0  0  0  0  0  0
   -3.9104  -14.5128  -18.2976 C   0  0  2  0  0  0  0  0  0  0  0  0
   -4.5181  -15.7901  -17.9411 N   0  0  0  0  0  0  0  0  0  0  0  0
   -0.5646  -14.6771  -13.0650 C   0  0  0  0  0  0  0  0  0  0  0  0
   -5.2090  -13.1375   -9.6013 C   0  0  2  0  0  0  0  0  0  0  0  0
   -5.4844  -14.5249   -9.5122 O   0  0  0  0  0  0  0  0  0  0  0  0
   -2.5860  -14.7354  -19.1077 C   0  0  0  0  0  0  0  0  0  0  0  0
   -1.1362  -15.1205  -14.4806 C   0  0  2  0  0  0  0  0  0  0  0  0
   -0.0272  -15.1744  -15.4615 N   0  0  0  0  0  0  0  0  0  0  0  0
   -6.2601  -12.4074  -10.5492 C   0  0  1  0  0  0  0  0  0  0  0  0
   -7.6567  -12.5778  -10.0222 N   0  0  0  0  0  0  0  0  0  0  0  0
   -1.7891  -13.4057  -19.2427 C   0  0  0  0  0  0  0  0  0  0  0  0
   -2.2449  -14.0796  -14.9563 C   0  0  2  0  0  0  0  0  0  0  0  0
   -5.9044  -10.8194  -10.6188 C   0  0  1  0  0  0  0  0  0  0  0  0
   -5.9618  -10.2051   -9.3460 O   0  0  0  0  0  0  0  0  0  0  0  0
   -2.0128  -12.3784  -18.4094 C   0  0  2  0  0  0  0  0  0  0  0  0
   -2.9858  -12.4171  -17.3509 O   0  0  0  0  0  0  0  0  0  0  0  0
   -3.4094  -14.0278  -13.8809 C   0  0  2  0  0  0  0  0  0  0  0  0
   -4.4019  -13.0764  -14.2855 O   0  0  0  0  0  0  0  0  0  0  0  0
   -4.4495  -10.6395  -11.1695 C   0  0  0  0  0  0  0  0  0  0  0  0
   -3.4802  -11.4701  -10.3452 O   0  0  0  0  0  0  0  0  0  0  0  0
   -1.2331  -11.0482  -18.5292 C   0  0  0  0  0  0  0  0  0  0  0  0
   -0.4021  -10.8633  -17.3478 N   0  0  0  0  0  0  0  0  0  0  0  0
   -2.8279  -13.5906  -12.4879 C   0  0  1  0  0  0  0  0  0  0  0  0
   -3.8871  -13.5615  -11.5616 O   0  0  0  0  0  0  0  0  0  0  0  0
   -6.8290   -9.9666  -11.5033 C   0  0  0  0  0  0  0  0  0  0  0  0
   -8.4180  -13.7280  -10.5452 C   0  0  0  0  0  0  0  0  0  0  0  0
  1  2  1  1  0  0  0
  1  6  1  0  0  0  0
  1 21  1  0  0  0  0
  3  4  1  1  0  0  0
  3  8  1  0  0  0  0
  3 28  1  0  0  0  0
  5  9  1  0  0  0  0
  5 25  1  0  0  0  0
  5 29  1  6  0  0  0
  6  7  1  1  0  0  0
  6 11  1  0  0  0  0
  8 12  1  0  0  0  0
  9 10  1  6  0  0  0
  9 14  1  0  0  0  0
 11 16  1  0  0  0  0
 12 13  1  6  0  0  0
 12 17  1  0  0  0  0
 14 15  1  1  0  0  0
 14 18  1  0  0  0  0
 15 31  1  0  0  0  0
 16 20  1  0  0  0  0
 17  2  1  6  0  0  0
 17 22  1  0  0  0  0
 18 19  1  1  0  0  0
 18 24  1  0  0  0  0
 18 30  1  0  0  0  0
 20 21  1  0  0  0  0
 20 26  1  6  0  0  0
 22 23  1  6  0  0  0
 22 28  1  0  0  0  0
 24 25  1  0  0  0  0
 26 27  1  0  0  0  0
 28 29  1  1  0  0  0
M  END
>  <CHROM.1>
178.78245699,179.08154138,-92.57381781,-170.02723697,-114.32532922,74.09649883
-3.60516094,-13.13960306,-13.70232916,1.05021046,0.53652760,-1.46134514

>  <Name>
ligand

>  <RI>
0

>  <Rbt.Current_Directory>
/home/itssahil/PROJECTS/Mol_Feturizer/New_Systems/rnas/4F8U

>  <Rbt.Executable>
rbdock ($Id: //depot/dev/client3/rdock/2013.1/src/exe/rbdock.cxx#4 $)

>  <Rbt.Library>
libRbt.so (2013.1, Build901 2013/11/27)

>  <Rbt.Parameter_File>
/export/apps/rDock/src/rDock_2013.1_src/data/scripts/dock_solv.prm

>  <Rbt.Receptor>
prm/pocket_docking_7.prm

>  <SCORE>
-11.2362

>  <SCORE.INTER>
-3.5836

>  <SCORE.INTER.CONST>
1

>  <SCORE.INTER.POLAR>
0

>  <SCORE.INTER.ROT>
6

>  <SCORE.INTER.SOLV>
12.4701

>  <SCORE.INTER.VDW>
-14.1458

>  <SCORE.INTER.norm>
-0.1156

>  <SCORE.INTRA>
-7.65258

>  <SCORE.INTRA.DIHEDRAL>
-14.9355

>  <SCORE.INTRA.DIHEDRAL.0>
18.77

>  <SCORE.INTRA.POLAR>
0

>  <SCORE.INTRA.POLAR.0>
0

>  <SCORE.INTRA.REPUL>
0

>  <SCORE.INTRA.REPUL.0>
0

>  <SCORE.INTRA.SOLV>
-1.73611

>  <SCORE.INTRA.SOLV.lig_0>
-77.2465

>  <SCORE.INTRA.VDW>
0.683233

>  <SCORE.INTRA.VDW.0>
-4.16072

>  <SCORE.INTRA.norm>
-0.246858

>  <SCORE.RESTR>
0

>  <SCORE.RESTR.CAVITY>
0

>  <SCORE.RESTR.norm>
0

>  <SCORE.SYSTEM>
0

>  <SCORE.SYSTEM.CONST>
0

>  <SCORE.SYSTEM.DIHEDRAL>
0

>  <SCORE.SYSTEM.SOLV>
0

>  <SCORE.SYSTEM.norm>
0

>  <SCORE.heavy>
31

>  <SCORE.norm>
-0.362458

>  <RMSD>
5.215

$$$$
ligand
 OpenBabel11021811493D
libRbt.so/2013.1/901 2013/11/27
 31 33  0  0  0  0  0  0  0  0999 V2000
   -3.4800   -9.5452  -16.6400 C   0  0  2  0  0  0  0  0  0  0  0  0
   -4.2365  -10.7064  -17.0083 O   0  0  0  0  0  0  0  0  0  0  0  0
   -7.7626  -10.1842  -14.6380 C   0  0  2  0  0  0  0  0  0  0  0  0
   -9.0698  -10.3997  -14.0968 N   0  0  0  0  0  0  0  0  0  0  0  0
   -7.8595  -12.0924  -12.1068 C   0  0  2  0  0  0  0  0  0  0  0  0
   -2.2737   -9.4683  -17.6404 C   0  0  2  0  0  0  0  0  0  0  0  0
   -2.7727   -9.4063  -19.0097 N   0  0  0  0  0  0  0  0  0  0  0  0
   -7.8871   -9.9460  -16.1923 C   0  0  0  0  0  0  0  0  0  0  0  0
   -7.2282  -12.2814  -10.6929 C   0  0  2  0  0  0  0  0  0  0  0  0
   -6.7122  -11.0387  -10.2478 O   0  0  0  0  0  0  0  0  0  0  0  0
   -1.3419  -10.7148  -17.4455 C   0  0  0  0  0  0  0  0  0  0  0  0
   -6.4353   -9.6989  -16.7910 C   0  0  2  0  0  0  0  0  0  0  0  0
   -6.5396   -9.4753  -18.2520 N   0  0  0  0  0  0  0  0  0  0  0  0
   -6.0669  -13.3612  -10.8397 C   0  0  1  0  0  0  0  0  0  0  0  0
   -5.3783  -13.5813   -9.5226 N   0  0  0  0  0  0  0  0  0  0  0  0
   -1.0391  -10.9496  -15.9373 C   0  0  0  0  0  0  0  0  0  0  0  0
   -5.5133  -10.9630  -16.4898 C   0  0  2  0  0  0  0  0  0  0  0  0
   -6.7071  -14.7690  -11.3507 C   0  0  1  0  0  0  0  0  0  0  0  0
   -7.6660  -15.2776  -10.4437 O   0  0  0  0  0  0  0  0  0  0  0  0
   -1.8254  -10.4257  -14.9849 C   0  0  2  0  0  0  0  0  0  0  0  0
   -2.9825   -9.6202  -15.2703 O   0  0  0  0  0  0  0  0  0  0  0  0
   -5.4340  -11.1908  -14.9221 C   0  0  2  0  0  0  0  0  0  0  0  0
   -4.6267  -12.3406  -14.6389 O   0  0  0  0  0  0  0  0  0  0  0  0
   -7.4240  -14.5421  -12.7243 C   0  0  0  0  0  0  0  0  0  0  0  0
   -8.4194  -13.4005  -12.6037 O   0  0  0  0  0  0  0  0  0  0  0  0
   -1.5396  -10.6454  -13.4810 C   0  0  0  0  0  0  0  0  0  0  0  0
   -2.3230  -11.7733  -12.9966 N   0  0  0  0  0  0  0  0  0  0  0  0
   -6.8762  -11.4310  -14.3460 C   0  0  1  0  0  0  0  0  0  0  0  0
   -6.7653  -11.6232  -12.9561 O   0  0  0  0  0  0  0  0  0  0  0  0
   -5.7100  -15.9227  -11.5486 C   0  0  0  0  0  0  0  0  0  0  0  0
   -4.1471  -12.8028   -9.2894 C   0  0  0  0  0  0  0  0  0  0  0  0
  1  2  1  6  0  0  0
  1  6  1  0  0  0  0
  1 21  1  0  0  0  0
  3  4  1  6  0  0  0
  3  8  1  0  0  0  0
  3 28  1  0  0  0  0
  5  9  1  0  0  0  0
  5 25  1  0  0  0  0
  5 29  1  6  0  0  0
  6  7  1  6  0  0  0
  6 11  1  0  0  0  0
  8 12  1  0  0  0  0
  9 10  1  6  0  0  0
  9 14  1  0  0  0  0
 11 16  1  0  0  0  0
 12 13  1  6  0  0  0
 12 17  1  0  0  0  0
 14 15  1  1  0  0  0
 14 18  1  0  0  0  0
 15 31  1  0  0  0  0
 16 20  1  0  0  0  0
 17  2  1  1  0  0  0
 17 22  1  0  0  0  0
 18 19  1  1  0  0  0
 18 24  1  0  0  0  0
 18 30  1  0  0  0  0
 20 21  1  0  0  0  0
 20 26  1  1  0  0  0
 22 23  1  6  0  0  0
 22 28  1  0  0  0  0
 24 25  1  0  0  0  0
 26 27  1  0  0  0  0
 28 29  1  1  0  0  0
M  END
>  <CHROM.1>
-168.38866292,174.57562444,-95.45080803,55.49735306,-95.22999525,71.35312098
-5.29736184,-11.62625513,-13.99520552,-1.10167691,0.01584560,2.10435494

>  <Name>
ligand

>  <RI>
0

>  <Rbt.Current_Directory>
/home/itssahil/PROJECTS/Mol_Feturizer/New_Systems/rnas/4F8U

>  <Rbt.Executable>
rbdock ($Id: //depot/dev/client3/rdock/2013.1/src/exe/rbdock.cxx#4 $)

>  <Rbt.Library>
libRbt.so (2013.1, Build901 2013/11/27)

>  <Rbt.Parameter_File>
/export/apps/rDock/src/rDock_2013.1_src/data/scripts/dock_solv.prm

>  <Rbt.Receptor>
prm/pocket_docking_4.prm

>  <SCORE>
-6.23004

>  <SCORE.INTER>
-0.378235

>  <SCORE.INTER.CONST>
1

>  <SCORE.INTER.POLAR>
0

>  <SCORE.INTER.ROT>
6

>  <SCORE.INTER.SOLV>
12.9108

>  <SCORE.INTER.VDW>
-12.1558

>  <SCORE.INTER.norm>
-0.0122011

>  <SCORE.INTRA>
-5.85377

>  <SCORE.INTRA.DIHEDRAL>
-14.1116

>  <SCORE.INTRA.DIHEDRAL.0>
18.77

>  <SCORE.INTRA.POLAR>
0

>  <SCORE.INTRA.POLAR.0>
0

>  <SCORE.INTRA.REPUL>
0.000186842

>  <SCORE.INTRA.REPUL.0>
0

>  <SCORE.INTRA.SOLV>
1.89634

>  <SCORE.INTRA.SOLV.lig_0>
-77.2465

>  <SCORE.INTRA.VDW>
0.252952

>  <SCORE.INTRA.VDW.0>
-4.16072

>  <SCORE.INTRA.norm>
-0.188831

>  <SCORE.RESTR>
0.00196691

>  <SCORE.RESTR.CAVITY>
0.00196691

>  <SCORE.RESTR.norm>
6.34487e-05

>  <SCORE.SYSTEM>
0

>  <SCORE.SYSTEM.CONST>
0

>  <SCORE.SYSTEM.DIHEDRAL>
0

>  <SCORE.SYSTEM.SOLV>
0

>  <SCORE.SYSTEM.norm>
0

>  <SCORE.heavy>
31

>  <SCORE.norm>
-0.200969

>  <RMSD>
5.229

$$$$
ligand
 OpenBabel11021811493D
libRbt.so/2013.1/901 2013/11/27
 31 33  0  0  0  0  0  0  0  0999 V2000
   -5.4734  -11.9214  -18.1854 C   0  0  2  0  0  0  0  0  0  0  0  0
   -6.3567  -12.4796  -17.2032 O   0  0  0  0  0  0  0  0  0  0  0  0
   -5.6328  -14.7268  -13.6325 C   0  0  2  0  0  0  0  0  0  0  0  0
   -5.2812  -15.8117  -12.7680 N   0  0  0  0  0  0  0  0  0  0  0  0
   -2.5980  -14.8516  -12.8031 C   0  0  2  0  0  0  0  0  0  0  0  0
   -6.2656  -10.7606  -18.8831 C   0  0  2  0  0  0  0  0  0  0  0  0
   -6.6897   -9.7847  -17.8854 N   0  0  0  0  0  0  0  0  0  0  0  0
   -6.8450  -15.1697  -14.5394 C   0  0  0  0  0  0  0  0  0  0  0  0
   -1.5311  -13.9565  -12.1004 C   0  0  2  0  0  0  0  0  0  0  0  0
   -2.1918  -12.9326  -11.3767 O   0  0  0  0  0  0  0  0  0  0  0  0
   -7.5036  -11.3469  -19.6470 C   0  0  0  0  0  0  0  0  0  0  0  0
   -7.2398  -13.9610  -15.4937 C   0  0  2  0  0  0  0  0  0  0  0  0
   -8.3773  -14.3663  -16.3522 N   0  0  0  0  0  0  0  0  0  0  0  0
   -0.6092  -13.3421  -13.2445 C   0  0  1  0  0  0  0  0  0  0  0  0
    0.4327  -12.4342  -12.6550 N   0  0  0  0  0  0  0  0  0  0  0  0
   -7.0938  -12.5814  -20.5011 C   0  0  0  0  0  0  0  0  0  0  0  0
   -5.9856  -13.5601  -16.3910 C   0  0  2  0  0  0  0  0  0  0  0  0
    0.1281  -14.5537  -14.0453 C   0  0  1  0  0  0  0  0  0  0  0  0
    0.9465  -15.3332  -13.1947 O   0  0  0  0  0  0  0  0  0  0  0  0
   -5.9648  -13.2577  -20.2408 C   0  0  2  0  0  0  0  0  0  0  0  0
   -5.0593  -12.9053  -19.1803 O   0  0  0  0  0  0  0  0  0  0  0  0
   -4.7781  -13.1491  -15.4483 C   0  0  2  0  0  0  0  0  0  0  0  0
   -3.6352  -12.8094  -16.2435 O   0  0  0  0  0  0  0  0  0  0  0  0
   -0.9562  -15.5005  -14.6619 C   0  0  0  0  0  0  0  0  0  0  0  0
   -1.9216  -15.9524  -13.5791 O   0  0  0  0  0  0  0  0  0  0  0  0
   -5.5391  -14.4851  -21.0798 C   0  0  0  0  0  0  0  0  0  0  0  0
   -5.4743  -15.6610  -20.2234 N   0  0  0  0  0  0  0  0  0  0  0  0
   -4.4020  -14.3528  -14.5105 C   0  0  1  0  0  0  0  0  0  0  0  0
   -3.3336  -13.9490  -13.6881 O   0  0  0  0  0  0  0  0  0  0  0  0
    1.0577  -14.1264  -15.1933 C   0  0  0  0  0  0  0  0  0  0  0  0
    0.5992  -11.1202  -13.3047 C   0  0  0  0  0  0  0  0  0  0  0  0
  1  2  1  1  0  0  0
  1  6  1  0  0  0  0
  1 21  1  0  0  0  0
  3  4  1  1  0  0  0
  3  8  1  0  0  0  0
  3 28  1  0  0  0  0
  5  9  1  0  0  0  0
  5 25  1  0  0  0  0
  5 29  1  6  0  0  0
  6  7  1  1  0  0  0
  6 11  1  0  0  0  0
  8 12  1  0  0  0  0
  9 10  1  6  0  0  0
  9 14  1  0  0  0  0
 11 16  1  0  0  0  0
 12 13  1  6  0  0  0
 12 17  1  0  0  0  0
 14 15  1  1  0  0  0
 14 18  1  0  0  0  0
 15 31  1  0  0  0  0
 16 20  1  0  0  0  0
 17  2  1  6  0  0  0
 17 22  1  0  0  0  0
 18 19  1  1  0  0  0
 18 24  1  0  0  0  0
 18 30  1  0  0  0  0
 20 21  1  0  0  0  0
 20 26  1  6  0  0  0
 22 23  1  6  0  0  0
 22 28  1  0  0  0  0
 24 25  1  0  0  0  0
 26 27  1  0  0  0  0
 28 29  1  1  0  0  0
M  END
>  <CHROM.1>
179.19627973,-179.60243845,-132.71291117,-176.57205897,-118.52828873,68.87296751
-3.93886092,-13.58574946,-15.73031840,-2.36133174,0.18166674,1.95821218

>  <Name>
ligand

>  <RI>
0

>  <Rbt.Current_Directory>
/home/itssahil/PROJECTS/Mol_Feturizer/New_Systems/rnas/4F8U

>  <Rbt.Executable>
rbdock ($Id: //depot/dev/client3/rdock/2013.1/src/exe/rbdock.cxx#4 $)

>  <Rbt.Library>
libRbt.so (2013.1, Build901 2013/11/27)

>  <Rbt.Parameter_File>
/export/apps/rDock/src/rDock_2013.1_src/data/scripts/dock_solv.prm

>  <Rbt.Receptor>
prm/pocket_docking_7.prm

>  <SCORE>
-11.3481

>  <SCORE.INTER>
-3.62174

>  <SCORE.INTER.CONST>
1

>  <SCORE.INTER.POLAR>
0

>  <SCORE.INTER.ROT>
6

>  <SCORE.INTER.SOLV>
9.16416

>  <SCORE.INTER.VDW>
-13.0692

>  <SCORE.INTER.norm>
-0.11683

>  <SCORE.INTRA>
-7.72634

>  <SCORE.INTRA.DIHEDRAL>
-15.5674

>  <SCORE.INTRA.DIHEDRAL.0>
18.77

>  <SCORE.INTRA.POLAR>
0

>  <SCORE.INTRA.POLAR.0>
0

>  <SCORE.INTRA.REPUL>
0

>  <SCORE.INTRA.REPUL.0>
0

>  <SCORE.INTRA.SOLV>
-1.87825

>  <SCORE.INTRA.SOLV.lig_0>
-77.2465

>  <SCORE.INTRA.VDW>
0.996461

>  <SCORE.INTRA.VDW.0>
-4.16072

>  <SCORE.INTRA.norm>
-0.249237

>  <SCORE.RESTR>
0

>  <SCORE.RESTR.CAVITY>
0

>  <SCORE.RESTR.norm>
0

>  <SCORE.SYSTEM>
0

>  <SCORE.SYSTEM.CONST>
0

>  <SCORE.SYSTEM.DIHEDRAL>
0

>  <SCORE.SYSTEM.SOLV>
0

>  <SCORE.SYSTEM.norm>
0

>  <SCORE.heavy>
31

>  <SCORE.norm>
-0.366067

>  <RMSD>
5.312

$$$$
ligand
 OpenBabel11021811493D
libRbt.so/2013.1/901 2013/11/27
 31 33  0  0  0  0  0  0  0  0999 V2000
   -5.8362  -12.3185  -18.3607 C   0  0  2  0  0  0  0  0  0  0  0  0
   -6.9539  -12.9299  -17.7024 O   0  0  0  0  0  0  0  0  0  0  0  0
   -7.3367  -15.1006  -14.0329 C   0  0  2  0  0  0  0  0  0  0  0  0
   -7.2181  -16.1484  -13.0653 N   0  0  0  0  0  0  0  0  0  0  0  0
   -4.8986  -14.9205  -12.1363 C   0  0  2  0  0  0  0  0  0  0  0  0
   -6.4242  -11.1729  -19.2573 C   0  0  2  0  0  0  0  0  0  0  0  0
   -7.1739  -10.2350  -18.4290 N   0  0  0  0  0  0  0  0  0  0  0  0
   -8.1105  -15.6537  -15.2912 C   0  0  0  0  0  0  0  0  0  0  0  0
   -4.1530  -13.9472  -11.1719 C   0  0  2  0  0  0  0  0  0  0  0  0
   -5.0182  -12.8754  -10.8378 O   0  0  0  0  0  0  0  0  0  0  0  0
   -7.3431  -11.7879  -20.3697 C   0  0  0  0  0  0  0  0  0  0  0  0
   -8.2486  -14.4868  -16.3619 C   0  0  2  0  0  0  0  0  0  0  0  0
   -8.9730  -14.9955  -17.5500 N   0  0  0  0  0  0  0  0  0  0  0  0
   -2.8640  -13.4198  -11.9442 C   0  0  1  0  0  0  0  0  0  0  0  0
   -2.0996  -12.4441  -11.0950 N   0  0  0  0  0  0  0  0  0  0  0  0
   -6.6402  -12.9877  -21.0680 C   0  0  0  0  0  0  0  0  0  0  0  0
   -6.7991  -13.9714  -16.7771 C   0  0  2  0  0  0  0  0  0  0  0  0
   -1.9021  -14.6838  -12.3046 C   0  0  1  0  0  0  0  0  0  0  0  0
   -1.4685  -15.3696  -11.1459 O   0  0  0  0  0  0  0  0  0  0  0  0
   -5.6180  -13.6273  -20.4800 C   0  0  2  0  0  0  0  0  0  0  0  0
   -5.0966  -13.2648  -19.1895 O   0  0  0  0  0  0  0  0  0  0  0  0
   -6.0395  -13.4506  -15.4858 C   0  0  2  0  0  0  0  0  0  0  0  0
   -4.7243  -13.0066  -15.8423 O   0  0  0  0  0  0  0  0  0  0  0  0
   -2.6965  -15.7012  -13.1911 C   0  0  0  0  0  0  0  0  0  0  0  0
   -4.0007  -16.0731  -12.5060 O   0  0  0  0  0  0  0  0  0  0  0  0
   -4.9050  -14.8199  -21.1590 C   0  0  0  0  0  0  0  0  0  0  0  0
   -5.2155  -16.0467  -20.4387 N   0  0  0  0  0  0  0  0  0  0  0  0
   -5.9135  -14.6144  -14.4373 C   0  0  1  0  0  0  0  0  0  0  0  0
   -5.2408  -14.1135  -13.3070 O   0  0  0  0  0  0  0  0  0  0  0  0
   -0.6075  -14.3429  -13.0610 C   0  0  0  0  0  0  0  0  0  0  0  0
   -2.2509  -11.0177  -11.4393 C   0  0  0  0  0  0  0  0  0  0  0  0
  1  2  1  6  0  0  0
  1  6  1  0  0  0  0
  1 21  1  0  0  0  0
  3  4  1  1  0  0  0
  3  8  1  0  0  0  0
  3 28  1  0  0  0  0
  5  9  1  0  0  0  0
  5 25  1  0  0  0  0
  5 29  1  6  0  0  0
  6  7  1  1  0  0  0
  6 11  1  0  0  0  0
  8 12  1  0  0  0  0
  9 10  1  6  0  0  0
  9 14  1  0  0  0  0
 11 16  1  0  0  0  0
 12 13  1  6  0  0  0
 12 17  1  0  0  0  0
 14 15  1  1  0  0  0
 14 18  1  0  0  0  0
 15 31  1  0  0  0  0
 16 20  1  0  0  0  0
 17  2  1  6  0  0  0
 17 22  1  0  0  0  0
 18 19  1  1  0  0  0
 18 24  1  0  0  0  0
 18 30  1  0  0  0  0
 20 21  1  0  0  0  0
 20 26  1  6  0  0  0
 22 23  1  6  0  0  0
 22 28  1  0  0  0  0
 24 25  1  0  0  0  0
 26 27  1  0  0  0  0
 28 29  1  1  0  0  0
M  END
>  <CHROM.1>
-177.70499781,179.14556078,-103.36930279,-174.72154448,-110.46063357,62.87337082
-5.18233558,-13.85255422,-15.42973484,-2.04052299,0.43025805,1.88908268

>  <Name>
ligand

>  <RI>
0

>  <Rbt.Current_Directory>
/home/itssahil/PROJECTS/Mol_Feturizer/New_Systems/rnas/4F8U

>  <Rbt.Executable>
rbdock ($Id: //depot/dev/client3/rdock/2013.1/src/exe/rbdock.cxx#4 $)

>  <Rbt.Library>
libRbt.so (2013.1, Build901 2013/11/27)

>  <Rbt.Parameter_File>
/export/apps/rDock/src/rDock_2013.1_src/data/scripts/dock_solv.prm

>  <Rbt.Receptor>
prm/pocket_docking_8.prm

>  <SCORE>
-13.5261

>  <SCORE.INTER>
-5.92883

>  <SCORE.INTER.CONST>
1

>  <SCORE.INTER.POLAR>
0

>  <SCORE.INTER.ROT>
6

>  <SCORE.INTER.SOLV>
10.255

>  <SCORE.INTER.VDW>
-14.9709

>  <SCORE.INTER.norm>
-0.191252

>  <SCORE.INTRA>
-7.59727

>  <SCORE.INTRA.DIHEDRAL>
-15.7754

>  <SCORE.INTRA.DIHEDRAL.0>
18.77

>  <SCORE.INTRA.POLAR>
0

>  <SCORE.INTRA.POLAR.0>
0

>  <SCORE.INTRA.REPUL>
0

>  <SCORE.INTRA.REPUL.0>
0

>  <SCORE.INTRA.SOLV>
-1.67569

>  <SCORE.INTRA.SOLV.lig_0>
-77.2465

>  <SCORE.INTRA.VDW>
1.12827

>  <SCORE.INTRA.VDW.0>
-4.16072

>  <SCORE.INTRA.norm>
-0.245073

>  <SCORE.RESTR>
0

>  <SCORE.RESTR.CAVITY>
0

>  <SCORE.RESTR.norm>
0

>  <SCORE.SYSTEM>
0

>  <SCORE.SYSTEM.CONST>
0

>  <SCORE.SYSTEM.DIHEDRAL>
0

>  <SCORE.SYSTEM.SOLV>
0

>  <SCORE.SYSTEM.norm>
0

>  <SCORE.heavy>
31

>  <SCORE.norm>
-0.436326

>  <RMSD>
5.347

$$$$
ligand
 OpenBabel11021811493D
libRbt.so/2013.1/901 2013/11/27
 31 33  0  0  0  0  0  0  0  0999 V2000
   -7.8881   -9.0261  -12.9943 C   0  0  2  0  0  0  0  0  0  0  0  0
   -8.0821  -10.3019  -12.3688 O   0  0  0  0  0  0  0  0  0  0  0  0
   -4.0823  -11.2561  -11.1792 C   0  0  2  0  0  0  0  0  0  0  0  0
   -2.9760  -11.9584  -10.6040 N   0  0  0  0  0  0  0  0  0  0  0  0
   -3.2572  -11.4195  -14.1946 C   0  0  2  0  0  0  0  0  0  0  0  0
   -9.2614   -8.6415  -13.6484 C   0  0  2  0  0  0  0  0  0  0  0  0
  -10.3034   -8.6174  -12.6279 N   0  0  0  0  0  0  0  0  0  0  0  0
   -5.1212  -10.9210  -10.0406 C   0  0  0  0  0  0  0  0  0  0  0  0
   -2.6233  -12.2269  -15.3691 C   0  0  2  0  0  0  0  0  0  0  0  0
   -3.6317  -13.0035  -15.9927 O   0  0  0  0  0  0  0  0  0  0  0  0
   -9.6166   -9.6679  -14.7799 C   0  0  0  0  0  0  0  0  0  0  0  0
   -6.3459  -10.1339  -10.6794 C   0  0  2  0  0  0  0  0  0  0  0  0
   -7.3299   -9.8150   -9.6186 N   0  0  0  0  0  0  0  0  0  0  0  0
   -1.4938  -13.1574  -14.7411 C   0  0  1  0  0  0  0  0  0  0  0  0
   -0.8493  -14.0002  -15.8049 N   0  0  0  0  0  0  0  0  0  0  0  0
   -8.3944   -9.9096  -15.7122 C   0  0  0  0  0  0  0  0  0  0  0  0
   -7.0227  -11.0300  -11.8098 C   0  0  2  0  0  0  0  0  0  0  0  0
   -0.3598  -12.2223  -14.0392 C   0  0  1  0  0  0  0  0  0  0  0  0
    0.2570  -11.3487  -14.9651 O   0  0  0  0  0  0  0  0  0  0  0  0
   -7.1491   -9.6158  -15.3090 C   0  0  2  0  0  0  0  0  0  0  0  0
   -6.8469   -9.0632  -14.0159 O   0  0  0  0  0  0  0  0  0  0  0  0
   -5.9444  -11.3721  -12.9215 C   0  0  2  0  0  0  0  0  0  0  0  0
   -6.5348  -12.1987  -13.9325 O   0  0  0  0  0  0  0  0  0  0  0  0
   -1.0292  -11.3441  -12.9288 C   0  0  0  0  0  0  0  0  0  0  0  0
   -2.2055  -10.5812  -13.5145 O   0  0  0  0  0  0  0  0  0  0  0  0
   -5.9221   -9.8463  -16.2218 C   0  0  0  0  0  0  0  0  0  0  0  0
   -6.3565   -9.9297  -17.6091 N   0  0  0  0  0  0  0  0  0  0  0  0
   -4.7404  -12.1472  -12.2739 C   0  0  1  0  0  0  0  0  0  0  0  0
   -3.8051  -12.4275  -13.2875 O   0  0  0  0  0  0  0  0  0  0  0  0
    0.8075  -12.9726  -13.3767 C   0  0  0  0  0  0  0  0  0  0  0  0
   -0.9577  -15.4618  -15.6372 C   0  0  0  0  0  0  0  0  0  0  0  0
  1  2  1  6  0  0  0
  1  6  1  0  0  0  0
  1 21  1  0  0  0  0
  3  4  1  1  0  0  0
  3  8  1  0  0  0  0
  3 28  1  0  0  0  0
  5  9  1  0  0  0  0
  5 25  1  0  0  0  0
  5 29  1  1  0  0  0
  6  7  1  1  0  0  0
  6 11  1  0  0  0  0
  8 12  1  0  0  0  0
  9 10  1  1  0  0  0
  9 14  1  0  0  0  0
 11 16  1  0  0  0  0
 12 13  1  1  0  0  0
 12 17  1  0  0  0  0
 14 15  1  6  0  0  0
 14 18  1  0  0  0  0
 15 31  1  0  0  0  0
 16 20  1  0  0  0  0
 17  2  1  6  0  0  0
 17 22  1  0  0  0  0
 18 19  1  6  0  0  0
 18 24  1  0  0  0  0
 18 30  1  0  0  0  0
 20 21  1  0  0  0  0
 20 26  1  6  0  0  0
 22 23  1  6  0  0  0
 22 28  1  0  0  0  0
 24 25  1  0  0  0  0
 26 27  1  0  0  0  0
 28 29  1  6  0  0  0
M  END
>  <CHROM.1>
172.68632187,-163.83514860,-119.67178365,58.91697272,20.26291899,-66.90041817
-4.77849429,-11.16819562,-13.64470809,-2.97024323,0.41088054,-1.63685707

>  <Name>
ligand

>  <RI>
0

>  <Rbt.Current_Directory>
/home/itssahil/PROJECTS/Mol_Feturizer/New_Systems/rnas/4F8U

>  <Rbt.Executable>
rbdock ($Id: //depot/dev/client3/rdock/2013.1/src/exe/rbdock.cxx#4 $)

>  <Rbt.Library>
libRbt.so (2013.1, Build901 2013/11/27)

>  <Rbt.Parameter_File>
/export/apps/rDock/src/rDock_2013.1_src/data/scripts/dock_solv.prm

>  <Rbt.Receptor>
prm/pocket_docking_6.prm

>  <SCORE>
-5.44249

>  <SCORE.INTER>
0.248434

>  <SCORE.INTER.CONST>
1

>  <SCORE.INTER.POLAR>
0

>  <SCORE.INTER.ROT>
6

>  <SCORE.INTER.SOLV>
11.3624

>  <SCORE.INTER.VDW>
-11.2218

>  <SCORE.INTER.norm>
0.00801402

>  <SCORE.INTRA>
-5.69093

>  <SCORE.INTRA.DIHEDRAL>
-13.6827

>  <SCORE.INTRA.DIHEDRAL.0>
18.77

>  <SCORE.INTRA.POLAR>
0

>  <SCORE.INTRA.POLAR.0>
0

>  <SCORE.INTRA.REPUL>
0

>  <SCORE.INTRA.REPUL.0>
0

>  <SCORE.INTRA.SOLV>
0.171217

>  <SCORE.INTRA.SOLV.lig_0>
-77.2465

>  <SCORE.INTRA.VDW>
1.06484

>  <SCORE.INTRA.VDW.0>
-4.16072

>  <SCORE.INTRA.norm>
-0.183578

>  <SCORE.RESTR>
0

>  <SCORE.RESTR.CAVITY>
0

>  <SCORE.RESTR.norm>
0

>  <SCORE.SYSTEM>
0

>  <SCORE.SYSTEM.CONST>
0

>  <SCORE.SYSTEM.DIHEDRAL>
0

>  <SCORE.SYSTEM.SOLV>
0

>  <SCORE.SYSTEM.norm>
0

>  <SCORE.heavy>
31

>  <SCORE.norm>
-0.175564

>  <RMSD>
5.367

$$$$
ligand
 OpenBabel11021811493D
libRbt.so/2013.1/901 2013/11/27
 31 33  0  0  0  0  0  0  0  0999 V2000
   -0.8085  -10.8831  -15.7397 C   0  0  2  0  0  0  0  0  0  0  0  0
   -0.6704  -10.1714  -14.5023 O   0  0  0  0  0  0  0  0  0  0  0  0
   -2.1373  -13.0628  -11.7074 C   0  0  2  0  0  0  0  0  0  0  0  0
   -2.4608  -13.6979  -10.4664 N   0  0  0  0  0  0  0  0  0  0  0  0
   -5.0025  -12.2925  -10.5327 C   0  0  2  0  0  0  0  0  0  0  0  0
   -0.4075   -9.8770  -16.8750 C   0  0  2  0  0  0  0  0  0  0  0  0
    0.9508   -9.3954  -16.6491 N   0  0  0  0  0  0  0  0  0  0  0  0
   -0.5772  -12.8402  -11.7748 C   0  0  0  0  0  0  0  0  0  0  0  0
   -6.4038  -12.7698  -11.0243 C   0  0  2  0  0  0  0  0  0  0  0  0
   -6.2354  -13.8722  -11.8991 O   0  0  0  0  0  0  0  0  0  0  0  0
   -1.4218   -8.6812  -16.9075 C   0  0  0  0  0  0  0  0  0  0  0  0
   -0.2182  -12.1418  -13.1571 C   0  0  2  0  0  0  0  0  0  0  0  0
    1.2457  -11.9260  -13.2311 N   0  0  0  0  0  0  0  0  0  0  0  0
   -7.0782  -11.5406  -11.7796 C   0  0  1  0  0  0  0  0  0  0  0  0
   -8.4270  -11.9250  -12.3185 N   0  0  0  0  0  0  0  0  0  0  0  0
   -2.8889   -9.1979  -16.8604 C   0  0  0  0  0  0  0  0  0  0  0  0
   -0.9881  -10.7511  -13.2663 C   0  0  2  0  0  0  0  0  0  0  0  0
   -7.2520  -10.3021  -10.7361 C   0  0  1  0  0  0  0  0  0  0  0  0
   -8.0731  -10.6443   -9.6363 O   0  0  0  0  0  0  0  0  0  0  0  0
   -3.1733  -10.4306  -16.4140 C   0  0  2  0  0  0  0  0  0  0  0  0
   -2.1716  -11.3561  -15.9569 O   0  0  0  0  0  0  0  0  0  0  0  0
   -2.5499  -11.0086  -13.1655 C   0  0  2  0  0  0  0  0  0  0  0  0
   -3.2531   -9.7619  -13.2380 O   0  0  0  0  0  0  0  0  0  0  0  0
   -5.8470   -9.8987  -10.1744 C   0  0  0  0  0  0  0  0  0  0  0  0
   -5.1527  -11.1207   -9.5969 O   0  0  0  0  0  0  0  0  0  0  0  0
   -4.6243  -10.9631  -16.3620 C   0  0  0  0  0  0  0  0  0  0  0  0
   -4.7169  -12.1988  -17.1269 N   0  0  0  0  0  0  0  0  0  0  0  0
   -2.8875  -11.7009  -11.7957 C   0  0  1  0  0  0  0  0  0  0  0  0
   -4.2774  -11.9171  -11.7460 O   0  0  0  0  0  0  0  0  0  0  0  0
   -7.8887   -9.0271  -11.3137 C   0  0  0  0  0  0  0  0  0  0  0  0
   -8.4515  -12.4847  -13.6832 C   0  0  0  0  0  0  0  0  0  0  0  0
  1  2  1  1  0  0  0
  1  6  1  0  0  0  0
  1 21  1  0  0  0  0
  3  4  1  1  0  0  0
  3  8  1  0  0  0  0
  3 28  1  0  0  0  0
  5  9  1  0  0  0  0
  5 25  1  0  0  0  0
  5 29  1  6  0  0  0
  6  7  1  1  0  0  0
  6 11  1  0  0  0  0
  8 12  1  0  0  0  0
  9 10  1  6  0  0  0
  9 14  1  0  0  0  0
 11 16  1  0  0  0  0
 12 13  1  1  0  0  0
 12 17  1  0  0  0  0
 14 15  1  1  0  0  0
 14 18  1  0  0  0  0
 15 31  1  0  0  0  0
 16 20  1  0  0  0  0
 17  2  1  6  0  0  0
 17 22  1  0  0  0  0
 18 19  1  1  0  0  0
 18 24  1  0  0  0  0
 18 30  1  0  0  0  0
 20 21  1  0  0  0  0
 20 26  1  6  0  0  0
 22 23  1  1  0  0  0
 22 28  1  0  0  0  0
 24 25  1  0  0  0  0
 26 27  1  0  0  0  0
 28 29  1  6  0  0  0
M  END
>  <CHROM.1>
177.92784603,-165.91404081,-89.74786259,52.05834479,123.51904866,73.46186991
-3.71574092,-11.21697871,-13.19509897,0.64533741,0.10409644,-1.21711879

>  <Name>
ligand

>  <RI>
0

>  <Rbt.Current_Directory>
/home/itssahil/PROJECTS/Mol_Feturizer/New_Systems/rnas/4F8U

>  <Rbt.Executable>
rbdock ($Id: //depot/dev/client3/rdock/2013.1/src/exe/rbdock.cxx#4 $)

>  <Rbt.Library>
libRbt.so (2013.1, Build901 2013/11/27)

>  <Rbt.Parameter_File>
/export/apps/rDock/src/rDock_2013.1_src/data/scripts/dock_solv.prm

>  <Rbt.Receptor>
prm/pocket_docking_5.prm

>  <SCORE>
-11.3661

>  <SCORE.INTER>
-4.41083

>  <SCORE.INTER.CONST>
1

>  <SCORE.INTER.POLAR>
0

>  <SCORE.INTER.ROT>
6

>  <SCORE.INTER.SOLV>
12.3876

>  <SCORE.INTER.VDW>
-14.6698

>  <SCORE.INTER.norm>
-0.142285

>  <SCORE.INTRA>
-6.95526

>  <SCORE.INTRA.DIHEDRAL>
-14.3567

>  <SCORE.INTRA.DIHEDRAL.0>
18.77

>  <SCORE.INTRA.POLAR>
0

>  <SCORE.INTRA.POLAR.0>
0

>  <SCORE.INTRA.REPUL>
0

>  <SCORE.INTRA.REPUL.0>
0

>  <SCORE.INTRA.SOLV>
-0.743842

>  <SCORE.INTRA.SOLV.lig_0>
-77.2465

>  <SCORE.INTRA.VDW>
0.595015

>  <SCORE.INTRA.VDW.0>
-4.16072

>  <SCORE.INTRA.norm>
-0.224363

>  <SCORE.RESTR>
0

>  <SCORE.RESTR.CAVITY>
0

>  <SCORE.RESTR.norm>
0

>  <SCORE.SYSTEM>
0

>  <SCORE.SYSTEM.CONST>
0

>  <SCORE.SYSTEM.DIHEDRAL>
0

>  <SCORE.SYSTEM.SOLV>
0

>  <SCORE.SYSTEM.norm>
0

>  <SCORE.heavy>
31

>  <SCORE.norm>
-0.366648

>  <RMSD>
5.467

$$$$
ligand
 OpenBabel11021811493D
libRbt.so/2013.1/901 2013/11/27
 31 33  0  0  0  0  0  0  0  0999 V2000
   -0.8864  -10.9789  -15.7336 C   0  0  2  0  0  0  0  0  0  0  0  0
   -0.7442  -10.2418  -14.5117 O   0  0  0  0  0  0  0  0  0  0  0  0
   -2.1910  -13.0796  -11.6522 C   0  0  2  0  0  0  0  0  0  0  0  0
   -2.5099  -13.6889  -10.3972 N   0  0  0  0  0  0  0  0  0  0  0  0
   -5.0607  -12.3031  -10.4938 C   0  0  2  0  0  0  0  0  0  0  0  0
   -0.5210   -9.9868  -16.8930 C   0  0  2  0  0  0  0  0  0  0  0  0
    0.8310   -9.4757  -16.6960 N   0  0  0  0  0  0  0  0  0  0  0  0
   -0.6325  -12.8483  -11.7253 C   0  0  0  0  0  0  0  0  0  0  0  0
   -6.4684  -12.7749  -10.9724 C   0  0  2  0  0  0  0  0  0  0  0  0
   -6.3135  -13.8897  -11.8339 O   0  0  0  0  0  0  0  0  0  0  0  0
   -1.5583   -8.8112  -16.9327 C   0  0  0  0  0  0  0  0  0  0  0  0
   -0.2786  -12.1786  -13.1230 C   0  0  2  0  0  0  0  0  0  0  0  0
    1.1839  -11.9549  -13.2025 N   0  0  0  0  0  0  0  0  0  0  0  0
   -7.1365  -11.5498  -11.7399 C   0  0  1  0  0  0  0  0  0  0  0  0
   -8.4910  -11.9298  -12.2672 N   0  0  0  0  0  0  0  0  0  0  0  0
   -3.0144   -9.3544  -16.8544 C   0  0  0  0  0  0  0  0  0  0  0  0
   -1.0577  -10.7958  -13.2629 C   0  0  2  0  0  0  0  0  0  0  0  0
   -7.2948  -10.2968  -10.7114 C   0  0  1  0  0  0  0  0  0  0  0  0
   -8.1131  -10.6182   -9.6033 O   0  0  0  0  0  0  0  0  0  0  0  0
   -3.2689  -10.5836  -16.3813 C   0  0  2  0  0  0  0  0  0  0  0  0
   -2.2433  -11.4815  -15.9221 O   0  0  0  0  0  0  0  0  0  0  0  0
   -2.6177  -11.0612  -13.1557 C   0  0  2  0  0  0  0  0  0  0  0  0
   -3.3292   -9.8212  -13.2556 O   0  0  0  0  0  0  0  0  0  0  0  0
   -5.8837   -9.8980  -10.1619 C   0  0  0  0  0  0  0  0  0  0  0  0
   -5.1966  -11.1183   -9.5723 O   0  0  0  0  0  0  0  0  0  0  0  0
   -4.7086  -11.1423  -16.2982 C   0  0  0  0  0  0  0  0  0  0  0  0
   -4.7922  -12.3858  -17.0513 N   0  0  0  0  0  0  0  0  0  0  0  0
   -2.9503  -11.7249  -11.7705 C   0  0  1  0  0  0  0  0  0  0  0  0
   -4.3387  -11.9492  -11.7154 O   0  0  0  0  0  0  0  0  0  0  0  0
   -7.9238   -9.0240  -11.3020 C   0  0  0  0  0  0  0  0  0  0  0  0
   -8.5462  -12.3686  -13.6746 C   0  0  0  0  0  0  0  0  0  0  0  0
  1  2  1  1  0  0  0
  1  6  1  0  0  0  0
  1 21  1  0  0  0  0
  3  4  1  1  0  0  0
  3  8  1  0  0  0  0
  3 28  1  0  0  0  0
  5  9  1  0  0  0  0
  5 25  1  0  0  0  0
  5 29  1  6  0  0  0
  6  7  1  1  0  0  0
  6 11  1  0  0  0  0
  8 12  1  0  0  0  0
  9 10  1  6  0  0  0
  9 14  1  0  0  0  0
 11 16  1  0  0  0  0
 12 13  1  1  0  0  0
 12 17  1  0  0  0  0
 14 15  1  1  0  0  0
 14 18  1  0  0  0  0
 15 31  1  0  0  0  0
 16 20  1  0  0  0  0
 17  2  1  6  0  0  0
 17 22  1  0  0  0  0
 18 19  1  1  0  0  0
 18 24  1  0  0  0  0
 18 30  1  0  0  0  0
 20 21  1  0  0  0  0
 20 26  1  6  0  0  0
 22 23  1  1  0  0  0
 22 28  1  0  0  0  0
 24 25  1  0  0  0  0
 26 27  1  0  0  0  0
 28 29  1  6  0  0  0
M  END
>  <CHROM.1>
176.66622992,-166.93506826,-96.16824117,52.48139118,122.88550410,73.41351885
-3.78682453,-11.26397645,-13.17040778,0.64682941,0.10604238,-1.24082062

>  <Name>
ligand

>  <RI>
0

>  <Rbt.Current_Directory>
/home/itssahil/PROJECTS/Mol_Feturizer/New_Systems/rnas/4F8U

>  <Rbt.Executable>
rbdock ($Id: //depot/dev/client3/rdock/2013.1/src/exe/rbdock.cxx#4 $)

>  <Rbt.Library>
libRbt.so (2013.1, Build901 2013/11/27)

>  <Rbt.Parameter_File>
/export/apps/rDock/src/rDock_2013.1_src/data/scripts/dock_solv.prm

>  <Rbt.Receptor>
prm/pocket_docking_5.prm

>  <SCORE>
-11.3261

>  <SCORE.INTER>
-4.22968

>  <SCORE.INTER.CONST>
1

>  <SCORE.INTER.POLAR>
0

>  <SCORE.INTER.ROT>
6

>  <SCORE.INTER.SOLV>
12.1906

>  <SCORE.INTER.VDW>
-14.4833

>  <SCORE.INTER.norm>
-0.136441

>  <SCORE.INTRA>
-7.09643

>  <SCORE.INTRA.DIHEDRAL>
-14.2929

>  <SCORE.INTRA.DIHEDRAL.0>
18.77

>  <SCORE.INTRA.POLAR>
0

>  <SCORE.INTRA.POLAR.0>
0

>  <SCORE.INTRA.REPUL>
0

>  <SCORE.INTRA.REPUL.0>
0

>  <SCORE.INTRA.SOLV>
-0.825089

>  <SCORE.INTRA.SOLV.lig_0>
-77.2465

>  <SCORE.INTRA.VDW>
0.462543

>  <SCORE.INTRA.VDW.0>
-4.16072

>  <SCORE.INTRA.norm>
-0.228917

>  <SCORE.RESTR>
0

>  <SCORE.RESTR.CAVITY>
0

>  <SCORE.RESTR.norm>
0

>  <SCORE.SYSTEM>
0

>  <SCORE.SYSTEM.CONST>
0

>  <SCORE.SYSTEM.DIHEDRAL>
0

>  <SCORE.SYSTEM.SOLV>
0

>  <SCORE.SYSTEM.norm>
0

>  <SCORE.heavy>
31

>  <SCORE.norm>
-0.365359

>  <RMSD>
5.475

$$$$
ligand
 OpenBabel11021811493D
libRbt.so/2013.1/901 2013/11/27
 31 33  0  0  0  0  0  0  0  0999 V2000
   -0.7989  -10.8964  -15.7551 C   0  0  2  0  0  0  0  0  0  0  0  0
   -0.8624  -10.1197  -14.5512 O   0  0  0  0  0  0  0  0  0  0  0  0
   -2.3286  -13.0005  -11.7450 C   0  0  2  0  0  0  0  0  0  0  0  0
   -2.6752  -13.6197  -10.5022 N   0  0  0  0  0  0  0  0  0  0  0  0
   -5.2325  -12.4576  -10.7321 C   0  0  2  0  0  0  0  0  0  0  0  0
   -0.2239   -9.9465  -16.8637 C   0  0  2  0  0  0  0  0  0  0  0  0
    1.0795   -9.4389  -16.4498 N   0  0  0  0  0  0  0  0  0  0  0  0
   -0.7759  -12.7231  -11.7609 C   0  0  0  0  0  0  0  0  0  0  0  0
   -6.6728  -12.7518  -11.2538 C   0  0  2  0  0  0  0  0  0  0  0  0
   -6.5987  -13.7016  -12.3032 O   0  0  0  0  0  0  0  0  0  0  0  0
   -1.2230   -8.7652  -17.1213 C   0  0  0  0  0  0  0  0  0  0  0  0
   -0.3908  -12.0426  -13.1451 C   0  0  2  0  0  0  0  0  0  0  0  0
    1.0663  -11.7755  -13.1709 N   0  0  0  0  0  0  0  0  0  0  0  0
   -7.2724  -11.3717  -11.7753 C   0  0  1  0  0  0  0  0  0  0  0  0
   -8.6546  -11.5702  -12.3299 N   0  0  0  0  0  0  0  0  0  0  0  0
   -2.6774   -9.2948  -17.2815 C   0  0  0  0  0  0  0  0  0  0  0  0
   -1.2050  -10.6834  -13.3144 C   0  0  2  0  0  0  0  0  0  0  0  0
   -7.3391  -10.3157  -10.5371 C   0  0  1  0  0  0  0  0  0  0  0  0
   -8.1620  -10.7810   -9.4848 O   0  0  0  0  0  0  0  0  0  0  0  0
   -3.0265  -10.5056  -16.8213 C   0  0  2  0  0  0  0  0  0  0  0  0
   -2.1086  -11.3950  -16.1617 O   0  0  0  0  0  0  0  0  0  0  0  0
   -2.7593  -10.9950  -13.2644 C   0  0  2  0  0  0  0  0  0  0  0  0
   -3.5031   -9.7765  -13.3912 O   0  0  0  0  0  0  0  0  0  0  0  0
   -5.8991  -10.1061   -9.9586 C   0  0  0  0  0  0  0  0  0  0  0  0
   -5.2824  -11.4508   -9.6117 O   0  0  0  0  0  0  0  0  0  0  0  0
   -4.4658  -11.0506  -16.9734 C   0  0  0  0  0  0  0  0  0  0  0  0
   -4.4732  -12.1436  -17.9355 N   0  0  0  0  0  0  0  0  0  0  0  0
   -3.1227  -11.6689  -11.8921 C   0  0  1  0  0  0  0  0  0  0  0  0
   -4.5050  -11.9343  -11.8878 O   0  0  0  0  0  0  0  0  0  0  0  0
   -7.8946   -8.9227  -10.8770 C   0  0  0  0  0  0  0  0  0  0  0  0
   -8.7422  -11.9168  -13.7611 C   0  0  0  0  0  0  0  0  0  0  0  0
  1  2  1  1  0  0  0
  1  6  1  0  0  0  0
  1 21  1  0  0  0  0
  3  4  1  1  0  0  0
  3  8  1  0  0  0  0
  3 28  1  0  0  0  0
  5  9  1  0  0  0  0
  5 25  1  0  0  0  0
  5 29  1  6  0  0  0
  6  7  1  1  0  0  0
  6 11  1  0  0  0  0
  8 12  1  0  0  0  0
  9 10  1  6  0  0  0
  9 14  1  0  0  0  0
 11 16  1  0  0  0  0
 12 13  1  1  0  0  0
 12 17  1  0  0  0  0
 14 15  1  1  0  0  0
 14 18  1  0  0  0  0
 15 31  1  0  0  0  0
 16 20  1  0  0  0  0
 17  2  1  6  0  0  0
 17 22  1  0  0  0  0
 18 19  1  1  0  0  0
 18 24  1  0  0  0  0
 18 30  1  0  0  0  0
 20 21  1  0  0  0  0
 20 26  1  6  0  0  0
 22 23  1  1  0  0  0
 22 28  1  0  0  0  0
 24 25  1  0  0  0  0
 26 27  1  0  0  0  0
 28 29  1  6  0  0  0
M  END
>  <CHROM.1>
-173.47944942,-173.13398568,-88.62568338,45.62656568,110.16439385,66.08490175
-3.81059050,-11.19409401,-13.29172249,-0.68105277,-0.07182918,1.84864223

>  <Name>
ligand

>  <RI>
0

>  <Rbt.Current_Directory>
/home/itssahil/PROJECTS/Mol_Feturizer/New_Systems/rnas/4F8U

>  <Rbt.Executable>
rbdock ($Id: //depot/dev/client3/rdock/2013.1/src/exe/rbdock.cxx#4 $)

>  <Rbt.Library>
libRbt.so (2013.1, Build901 2013/11/27)

>  <Rbt.Parameter_File>
/export/apps/rDock/src/rDock_2013.1_src/data/scripts/dock_solv.prm

>  <Rbt.Receptor>
prm/pocket_docking_7.prm

>  <SCORE>
-10.4206

>  <SCORE.INTER>
-3.82365

>  <SCORE.INTER.CONST>
1

>  <SCORE.INTER.POLAR>
0

>  <SCORE.INTER.ROT>
6

>  <SCORE.INTER.SOLV>
12.5159

>  <SCORE.INTER.VDW>
-14.3211

>  <SCORE.INTER.norm>
-0.123344

>  <SCORE.INTRA>
-6.59695

>  <SCORE.INTRA.DIHEDRAL>
-14.812

>  <SCORE.INTRA.DIHEDRAL.0>
18.77

>  <SCORE.INTRA.POLAR>
0

>  <SCORE.INTRA.POLAR.0>
0

>  <SCORE.INTRA.REPUL>
0

>  <SCORE.INTRA.REPUL.0>
0

>  <SCORE.INTRA.SOLV>
-0.459259

>  <SCORE.INTRA.SOLV.lig_0>
-77.2465

>  <SCORE.INTRA.VDW>
1.03868

>  <SCORE.INTRA.VDW.0>
-4.16072

>  <SCORE.INTRA.norm>
-0.212805

>  <SCORE.RESTR>
0

>  <SCORE.RESTR.CAVITY>
0

>  <SCORE.RESTR.norm>
0

>  <SCORE.SYSTEM>
0

>  <SCORE.SYSTEM.CONST>
0

>  <SCORE.SYSTEM.DIHEDRAL>
0

>  <SCORE.SYSTEM.SOLV>
0

>  <SCORE.SYSTEM.norm>
0

>  <SCORE.heavy>
31

>  <SCORE.norm>
-0.336149

>  <RMSD>
5.480

$$$$
ligand
 OpenBabel11021811493D
libRbt.so/2013.1/901 2013/11/27
 31 33  0  0  0  0  0  0  0  0999 V2000
   -5.5111  -13.5174  -18.6136 C   0  0  2  0  0  0  0  0  0  0  0  0
   -5.7435  -14.8497  -18.1367 O   0  0  0  0  0  0  0  0  0  0  0  0
   -7.1792  -14.0967  -14.1750 C   0  0  2  0  0  0  0  0  0  0  0  0
   -7.6222  -14.3246  -12.8334 N   0  0  0  0  0  0  0  0  0  0  0  0
   -4.6905  -14.2664  -12.0359 C   0  0  2  0  0  0  0  0  0  0  0  0
   -5.6991  -13.5664  -20.1706 C   0  0  2  0  0  0  0  0  0  0  0  0
   -7.0358  -14.0554  -20.4900 N   0  0  0  0  0  0  0  0  0  0  0  0
   -8.1404  -14.8597  -15.1659 C   0  0  0  0  0  0  0  0  0  0  0  0
   -3.8419  -13.1060  -11.4303 C   0  0  2  0  0  0  0  0  0  0  0  0
   -4.5504  -11.8879  -11.5822 O   0  0  0  0  0  0  0  0  0  0  0  0
   -4.6034  -14.4893  -20.8089 C   0  0  0  0  0  0  0  0  0  0  0  0
   -7.6520  -14.5993  -16.6562 C   0  0  2  0  0  0  0  0  0  0  0  0
   -8.5471  -15.3131  -17.5967 N   0  0  0  0  0  0  0  0  0  0  0  0
   -2.4645  -13.0678  -12.2286 C   0  0  1  0  0  0  0  0  0  0  0  0
   -1.5932  -11.9504  -11.7291 N   0  0  0  0  0  0  0  0  0  0  0  0
   -3.1942  -14.1486  -20.2437 C   0  0  0  0  0  0  0  0  0  0  0  0
   -6.1529  -15.1132  -16.8223 C   0  0  2  0  0  0  0  0  0  0  0  0
   -1.6879  -14.4847  -12.0231 C   0  0  1  0  0  0  0  0  0  0  0  0
   -1.3985  -14.7403  -10.6623 O   0  0  0  0  0  0  0  0  0  0  0  0
   -3.0560  -13.4850  -19.0860 C   0  0  2  0  0  0  0  0  0  0  0  0
   -4.1700  -13.0405  -18.2922 O   0  0  0  0  0  0  0  0  0  0  0  0
   -5.2205  -14.3476  -15.7926 C   0  0  2  0  0  0  0  0  0  0  0  0
   -3.8725  -14.8188  -15.9152 O   0  0  0  0  0  0  0  0  0  0  0  0
   -2.5937  -15.6507  -12.5447 C   0  0  0  0  0  0  0  0  0  0  0  0
   -3.9604  -15.5762  -11.8849 O   0  0  0  0  0  0  0  0  0  0  0  0
   -1.6644  -13.1349  -18.5093 C   0  0  0  0  0  0  0  0  0  0  0  0
   -1.4201  -13.9277  -17.3126 N   0  0  0  0  0  0  0  0  0  0  0  0
   -5.7177  -14.6132  -14.3257 C   0  0  1  0  0  0  0  0  0  0  0  0
   -4.8711  -13.9153  -13.4441 O   0  0  0  0  0  0  0  0  0  0  0  0
   -0.3328  -14.6130  -12.7386 C   0  0  0  0  0  0  0  0  0  0  0  0
   -1.7160  -10.6597  -12.4329 C   0  0  0  0  0  0  0  0  0  0  0  0
  1  2  1  6  0  0  0
  1  6  1  0  0  0  0
  1 21  1  0  0  0  0
  3  4  1  1  0  0  0
  3  8  1  0  0  0  0
  3 28  1  0  0  0  0
  5  9  1  0  0  0  0
  5 25  1  0  0  0  0
  5 29  1  6  0  0  0
  6  7  1  1  0  0  0
  6 11  1  0  0  0  0
  8 12  1  0  0  0  0
  9 10  1  6  0  0  0
  9 14  1  0  0  0  0
 11 16  1  0  0  0  0
 12 13  1  6  0  0  0
 12 17  1  0  0  0  0
 14 15  1  1  0  0  0
 14 18  1  0  0  0  0
 15 31  1  0  0  0  0
 16 20  1  0  0  0  0
 17  2  1  6  0  0  0
 17 22  1  0  0  0  0
 18 19  1  1  0  0  0
 18 24  1  0  0  0  0
 18 30  1  0  0  0  0
 20 21  1  0  0  0  0
 20 26  1  6  0  0  0
 22 23  1  1  0  0  0
 22 28  1  0  0  0  0
 24 25  1  0  0  0  0
 26 27  1  0  0  0  0
 28 29  1  1  0  0  0
M  END
>  <CHROM.1>
-155.67555564,-171.99122401,-92.16196162,69.67820349,-110.54794665,83.59093754
-4.35050042,-14.00279119,-15.30739791,-1.94252199,0.20867308,1.57526758

>  <Name>
ligand

>  <RI>
0

>  <Rbt.Current_Directory>
/home/itssahil/PROJECTS/Mol_Feturizer/New_Systems/rnas/4F8U

>  <Rbt.Executable>
rbdock ($Id: //depot/dev/client3/rdock/2013.1/src/exe/rbdock.cxx#4 $)

>  <Rbt.Library>
libRbt.so (2013.1, Build901 2013/11/27)

>  <Rbt.Parameter_File>
/export/apps/rDock/src/rDock_2013.1_src/data/scripts/dock_solv.prm

>  <Rbt.Receptor>
prm/pocket_docking_6.prm

>  <SCORE>
-6.97204

>  <SCORE.INTER>
-2.82656

>  <SCORE.INTER.CONST>
1

>  <SCORE.INTER.POLAR>
0

>  <SCORE.INTER.ROT>
6

>  <SCORE.INTER.SOLV>
8.60822

>  <SCORE.INTER.VDW>
-12.3538

>  <SCORE.INTER.norm>
-0.0911794

>  <SCORE.INTRA>
-4.14548

>  <SCORE.INTRA.DIHEDRAL>
-10.58

>  <SCORE.INTRA.DIHEDRAL.0>
18.77

>  <SCORE.INTRA.POLAR>
0

>  <SCORE.INTRA.POLAR.0>
0

>  <SCORE.INTRA.REPUL>
0

>  <SCORE.INTRA.REPUL.0>
0

>  <SCORE.INTRA.SOLV>
1.65561

>  <SCORE.INTRA.SOLV.lig_0>
-77.2465

>  <SCORE.INTRA.VDW>
0.316709

>  <SCORE.INTRA.VDW.0>
-4.16072

>  <SCORE.INTRA.norm>
-0.133725

>  <SCORE.RESTR>
0

>  <SCORE.RESTR.CAVITY>
0

>  <SCORE.RESTR.norm>
0

>  <SCORE.SYSTEM>
0

>  <SCORE.SYSTEM.CONST>
0

>  <SCORE.SYSTEM.DIHEDRAL>
0

>  <SCORE.SYSTEM.SOLV>
0

>  <SCORE.SYSTEM.norm>
0

>  <SCORE.heavy>
31

>  <SCORE.norm>
-0.224905

>  <RMSD>
5.497

$$$$
ligand
 OpenBabel11021811493D
libRbt.so/2013.1/901 2013/11/27
 31 33  0  0  0  0  0  0  0  0999 V2000
   -1.9982  -10.3529  -16.0304 C   0  0  2  0  0  0  0  0  0  0  0  0
   -1.6503  -11.6019  -15.4176 O   0  0  0  0  0  0  0  0  0  0  0  0
   -2.4971  -13.5428  -11.6975 C   0  0  2  0  0  0  0  0  0  0  0  0
   -2.5674  -13.7921  -10.2901 N   0  0  0  0  0  0  0  0  0  0  0  0
   -5.1077  -12.4196  -10.2762 C   0  0  2  0  0  0  0  0  0  0  0  0
   -2.1316  -10.6371  -17.5677 C   0  0  2  0  0  0  0  0  0  0  0  0
   -3.1326  -11.6743  -17.7918 N   0  0  0  0  0  0  0  0  0  0  0  0
   -0.9830  -13.3937  -12.1139 C   0  0  0  0  0  0  0  0  0  0  0  0
   -6.6030  -12.8554  -10.3628 C   0  0  2  0  0  0  0  0  0  0  0  0
   -6.6768  -14.1344  -10.9689 O   0  0  0  0  0  0  0  0  0  0  0  0
   -0.7418  -11.0724  -18.1498 C   0  0  0  0  0  0  0  0  0  0  0  0
   -0.9057  -13.1247  -13.6788 C   0  0  2  0  0  0  0  0  0  0  0  0
    0.5128  -12.9812  -14.0816 N   0  0  0  0  0  0  0  0  0  0  0  0
   -7.3584  -11.7634  -11.2421 C   0  0  1  0  0  0  0  0  0  0  0  0
   -8.8075  -12.1246  -11.4057 N   0  0  0  0  0  0  0  0  0  0  0  0
    0.3851  -10.1129  -17.6693 C   0  0  0  0  0  0  0  0  0  0  0  0
   -1.7172  -11.7996  -14.0315 C   0  0  2  0  0  0  0  0  0  0  0  0
   -7.2477  -10.3145  -10.5063 C   0  0  1  0  0  0  0  0  0  0  0  0
   -7.8363  -10.3247   -9.2201 O   0  0  0  0  0  0  0  0  0  0  0  0
    0.2176   -9.3373  -16.5876 C   0  0  2  0  0  0  0  0  0  0  0  0
   -0.9881   -9.3246  -15.8034 O   0  0  0  0  0  0  0  0  0  0  0  0
   -3.2259  -11.9727  -13.5736 C   0  0  2  0  0  0  0  0  0  0  0  0
   -3.9614  -10.7772  -13.8635 O   0  0  0  0  0  0  0  0  0  0  0  0
   -5.7379   -9.9354  -10.3363 C   0  0  0  0  0  0  0  0  0  0  0  0
   -5.0000  -11.0614   -9.6318 O   0  0  0  0  0  0  0  0  0  0  0  0
    1.3244   -8.3755  -16.0960 C   0  0  0  0  0  0  0  0  0  0  0  0
    2.3447   -8.2408  -17.1262 N   0  0  0  0  0  0  0  0  0  0  0  0
   -3.2846  -12.2400  -12.0261 C   0  0  1  0  0  0  0  0  0  0  0  0
   -4.6350  -12.3929  -11.6599 O   0  0  0  0  0  0  0  0  0  0  0  0
   -7.9267   -9.1427  -11.2344 C   0  0  0  0  0  0  0  0  0  0  0  0
   -9.1810  -12.7741  -12.6765 C   0  0  0  0  0  0  0  0  0  0  0  0
  1  2  1  1  0  0  0
  1  6  1  0  0  0  0
  1 21  1  0  0  0  0
  3  4  1  1  0  0  0
  3  8  1  0  0  0  0
  3 28  1  0  0  0  0
  5  9  1  0  0  0  0
  5 25  1  0  0  0  0
  5 29  1  6  0  0  0
  6  7  1  1  0  0  0
  6 11  1  0  0  0  0
  8 12  1  0  0  0  0
  9 10  1  6  0  0  0
  9 14  1  0  0  0  0
 11 16  1  0  0  0  0
 12 13  1  1  0  0  0
 12 17  1  0  0  0  0
 14 15  1  1  0  0  0
 14 18  1  0  0  0  0
 15 31  1  0  0  0  0
 16 20  1  0  0  0  0
 17  2  1  6  0  0  0
 17 22  1  0  0  0  0
 18 19  1  1  0  0  0
 18 24  1  0  0  0  0
 18 30  1  0  0  0  0
 20 21  1  0  0  0  0
 20 26  1  6  0  0  0
 22 23  1  1  0  0  0
 22 28  1  0  0  0  0
 24 25  1  0  0  0  0
 26 27  1  0  0  0  0
 28 29  1  6  0  0  0
M  END
>  <CHROM.1>
-166.49157613,-170.28191250,-99.42159262,-164.98284995,13.13857681,72.01908807
-3.49911323,-11.39765619,-13.30143872,0.65601601,0.32233634,-0.92805890

>  <Name>
ligand

>  <RI>
0

>  <Rbt.Current_Directory>
/home/itssahil/PROJECTS/Mol_Feturizer/New_Systems/rnas/4F8U

>  <Rbt.Executable>
rbdock ($Id: //depot/dev/client3/rdock/2013.1/src/exe/rbdock.cxx#4 $)

>  <Rbt.Library>
libRbt.so (2013.1, Build901 2013/11/27)

>  <Rbt.Parameter_File>
/export/apps/rDock/src/rDock_2013.1_src/data/scripts/dock_solv.prm

>  <Rbt.Receptor>
prm/pocket_docking_7.prm

>  <SCORE>
-9.02391

>  <SCORE.INTER>
-3.34239

>  <SCORE.INTER.CONST>
1

>  <SCORE.INTER.POLAR>
0

>  <SCORE.INTER.ROT>
6

>  <SCORE.INTER.SOLV>
10.3786

>  <SCORE.INTER.VDW>
-13.2878

>  <SCORE.INTER.norm>
-0.107819

>  <SCORE.INTRA>
-5.68152

>  <SCORE.INTRA.DIHEDRAL>
-12.9187

>  <SCORE.INTRA.DIHEDRAL.0>
18.77

>  <SCORE.INTRA.POLAR>
0

>  <SCORE.INTRA.POLAR.0>
0

>  <SCORE.INTRA.REPUL>
0

>  <SCORE.INTRA.REPUL.0>
0

>  <SCORE.INTRA.SOLV>
-1.44883

>  <SCORE.INTRA.SOLV.lig_0>
-77.2465

>  <SCORE.INTRA.VDW>
1.50226

>  <SCORE.INTRA.VDW.0>
-4.16072

>  <SCORE.INTRA.norm>
-0.183275

>  <SCORE.RESTR>
0

>  <SCORE.RESTR.CAVITY>
0

>  <SCORE.RESTR.norm>
0

>  <SCORE.SYSTEM>
0

>  <SCORE.SYSTEM.CONST>
0

>  <SCORE.SYSTEM.DIHEDRAL>
0

>  <SCORE.SYSTEM.SOLV>
0

>  <SCORE.SYSTEM.norm>
0

>  <SCORE.heavy>
31

>  <SCORE.norm>
-0.291094

>  <RMSD>
5.612

$$$$
ligand
 OpenBabel11021811493D
libRbt.so/2013.1/901 2013/11/27
 31 33  0  0  0  0  0  0  0  0999 V2000
   -1.8587  -10.2655  -15.9751 C   0  0  2  0  0  0  0  0  0  0  0  0
   -1.5405  -11.5277  -15.3733 O   0  0  0  0  0  0  0  0  0  0  0  0
   -2.4129  -13.5051  -11.6784 C   0  0  2  0  0  0  0  0  0  0  0  0
   -2.4951  -13.7671  -10.2739 N   0  0  0  0  0  0  0  0  0  0  0  0
   -5.0394  -12.4211  -10.2712 C   0  0  2  0  0  0  0  0  0  0  0  0
   -1.9997  -10.5333  -17.5147 C   0  0  2  0  0  0  0  0  0  0  0  0
   -3.0255  -11.5441  -17.7468 N   0  0  0  0  0  0  0  0  0  0  0  0
   -0.8958  -13.3459  -12.0795 C   0  0  0  0  0  0  0  0  0  0  0  0
   -6.5255  -12.8832  -10.3769 C   0  0  2  0  0  0  0  0  0  0  0  0
   -6.5705  -14.1540  -11.0028 O   0  0  0  0  0  0  0  0  0  0  0  0
   -0.6211  -10.9969  -18.1015 C   0  0  0  0  0  0  0  0  0  0  0  0
   -0.8053  -13.0627  -13.6412 C   0  0  2  0  0  0  0  0  0  0  0  0
    0.6162  -12.9096  -14.0296 N   0  0  0  0  0  0  0  0  0  0  0  0
   -7.2940  -11.7922  -11.2460 C   0  0  1  0  0  0  0  0  0  0  0  0
   -8.7348  -12.1776  -11.4271 N   0  0  0  0  0  0  0  0  0  0  0  0
    0.5288  -10.0689  -17.6137 C   0  0  0  0  0  0  0  0  0  0  0  0
   -1.6193  -11.7380  -13.9897 C   0  0  2  0  0  0  0  0  0  0  0  0
   -7.2163  -10.3528  -10.4875 C   0  0  1  0  0  0  0  0  0  0  0  0
   -7.8150  -10.3935   -9.2066 O   0  0  0  0  0  0  0  0  0  0  0  0
    0.3806   -9.2987  -16.5253 C   0  0  2  0  0  0  0  0  0  0  0  0
   -0.8240   -9.2638  -15.7402 O   0  0  0  0  0  0  0  0  0  0  0  0
   -3.1313  -11.9215  -13.5472 C   0  0  2  0  0  0  0  0  0  0  0  0
   -3.8692  -10.7267  -13.8333 O   0  0  0  0  0  0  0  0  0  0  0  0
   -5.7153   -9.9484  -10.2992 C   0  0  0  0  0  0  0  0  0  0  0  0
   -4.9622  -11.0712   -9.6055 O   0  0  0  0  0  0  0  0  0  0  0  0
    1.5105   -8.3681  -16.0264 C   0  0  0  0  0  0  0  0  0  0  0  0
    2.5085   -8.2092  -17.0748 N   0  0  0  0  0  0  0  0  0  0  0  0
   -3.2030  -12.2027  -12.0028 C   0  0  1  0  0  0  0  0  0  0  0  0
   -4.5560  -12.3646  -11.6503 O   0  0  0  0  0  0  0  0  0  0  0  0
   -7.9111   -9.1828  -11.2036 C   0  0  0  0  0  0  0  0  0  0  0  0
   -9.0598  -12.9413  -12.6467 C   0  0  0  0  0  0  0  0  0  0  0  0
  1  2  1  1  0  0  0
  1  6  1  0  0  0  0
  1 21  1  0  0  0  0
  3  4  1  1  0  0  0
  3  8  1  0  0  0  0
  3 28  1  0  0  0  0
  5  9  1  0  0  0  0
  5 25  1  0  0  0  0
  5 29  1  6  0  0  0
  6  7  1  1  0  0  0
  6 11  1  0  0  0  0
  8 12  1  0  0  0  0
  9 10  1  6  0  0  0
  9 14  1  0  0  0  0
 11 16  1  0  0  0  0
 12 13  1  1  0  0  0
 12 17  1  0  0  0  0
 14 15  1  1  0  0  0
 14 18  1  0  0  0  0
 15 31  1  0  0  0  0
 16 20  1  0  0  0  0
 17  2  1  6  0  0  0
 17 22  1  0  0  0  0
 18 19  1  1  0  0  0
 18 24  1  0  0  0  0
 18 30  1  0  0  0  0
 20 21  1  0  0  0  0
 20 26  1  6  0  0  0
 22 23  1  1  0  0  0
 22 28  1  0  0  0  0
 24 25  1  0  0  0  0
 26 27  1  0  0  0  0
 28 29  1  6  0  0  0
M  END
>  <CHROM.1>
-166.09137454,-169.21330040,-93.16263676,-163.51270493,15.24332141,71.27860381
-3.40379685,-11.37731721,-13.27170453,0.65483866,0.30279964,-0.92930655

>  <Name>
ligand

>  <RI>
0

>  <Rbt.Current_Directory>
/home/itssahil/PROJECTS/Mol_Feturizer/New_Systems/rnas/4F8U

>  <Rbt.Executable>
rbdock ($Id: //depot/dev/client3/rdock/2013.1/src/exe/rbdock.cxx#4 $)

>  <Rbt.Library>
libRbt.so (2013.1, Build901 2013/11/27)

>  <Rbt.Parameter_File>
/export/apps/rDock/src/rDock_2013.1_src/data/scripts/dock_solv.prm

>  <Rbt.Receptor>
prm/pocket_docking_7.prm

>  <SCORE>
-8.99774

>  <SCORE.INTER>
-3.50344

>  <SCORE.INTER.CONST>
1

>  <SCORE.INTER.POLAR>
0

>  <SCORE.INTER.ROT>
6

>  <SCORE.INTER.SOLV>
10.5976

>  <SCORE.INTER.VDW>
-13.4682

>  <SCORE.INTER.norm>
-0.113014

>  <SCORE.INTRA>
-5.4943

>  <SCORE.INTRA.DIHEDRAL>
-12.7565

>  <SCORE.INTRA.DIHEDRAL.0>
18.77

>  <SCORE.INTRA.POLAR>
0

>  <SCORE.INTRA.POLAR.0>
0

>  <SCORE.INTRA.REPUL>
0

>  <SCORE.INTRA.REPUL.0>
0

>  <SCORE.INTRA.SOLV>
-1.32393

>  <SCORE.INTRA.SOLV.lig_0>
-77.2465

>  <SCORE.INTRA.VDW>
1.54591

>  <SCORE.INTRA.VDW.0>
-4.16072

>  <SCORE.INTRA.norm>
-0.177236

>  <SCORE.RESTR>
0

>  <SCORE.RESTR.CAVITY>
0

>  <SCORE.RESTR.norm>
0

>  <SCORE.SYSTEM>
0

>  <SCORE.SYSTEM.CONST>
0

>  <SCORE.SYSTEM.DIHEDRAL>
0

>  <SCORE.SYSTEM.SOLV>
0

>  <SCORE.SYSTEM.norm>
0

>  <SCORE.heavy>
31

>  <SCORE.norm>
-0.29025

>  <RMSD>
5.653

$$$$
ligand
 OpenBabel11021811493D
libRbt.so/2013.1/901 2013/11/27
 31 33  0  0  0  0  0  0  0  0999 V2000
   -7.7518   -8.3587  -12.6549 C   0  0  2  0  0  0  0  0  0  0  0  0
   -8.3864   -9.3164  -11.7965 O   0  0  0  0  0  0  0  0  0  0  0  0
   -5.0136  -11.0493   -9.8103 C   0  0  2  0  0  0  0  0  0  0  0  0
   -4.2404  -11.8037   -8.8717 N   0  0  0  0  0  0  0  0  0  0  0  0
   -4.8477  -12.8521  -12.6803 C   0  0  2  0  0  0  0  0  0  0  0  0
   -8.7652   -7.1720  -12.8179 C   0  0  2  0  0  0  0  0  0  0  0  0
   -9.0962   -6.6235  -11.5074 N   0  0  0  0  0  0  0  0  0  0  0  0
   -5.8350   -9.9522   -9.0294 C   0  0  0  0  0  0  0  0  0  0  0  0
   -4.0835  -14.1698  -13.0162 C   0  0  2  0  0  0  0  0  0  0  0  0
   -4.9466  -15.2726  -12.7976 O   0  0  0  0  0  0  0  0  0  0  0  0
  -10.0572   -7.6739  -13.5518 C   0  0  0  0  0  0  0  0  0  0  0  0
   -6.6873   -9.1097  -10.0739 C   0  0  2  0  0  0  0  0  0  0  0  0
   -7.4650   -8.0763   -9.3511 N   0  0  0  0  0  0  0  0  0  0  0  0
   -2.8185  -14.2359  -12.0510 C   0  0  1  0  0  0  0  0  0  0  0  0
   -2.0385  -15.4985  -12.2852 N   0  0  0  0  0  0  0  0  0  0  0  0
   -9.6892   -8.5116  -14.8105 C   0  0  0  0  0  0  0  0  0  0  0  0
   -7.6666  -10.0828  -10.8694 C   0  0  2  0  0  0  0  0  0  0  0  0
   -1.8582  -12.9524  -12.3395 C   0  0  1  0  0  0  0  0  0  0  0  0
   -1.3901  -12.9275  -13.6741 O   0  0  0  0  0  0  0  0  0  0  0  0
   -8.4716   -9.0585  -14.9449 C   0  0  2  0  0  0  0  0  0  0  0  0
   -7.4293   -8.9170  -13.9639 O   0  0  0  0  0  0  0  0  0  0  0  0
   -6.8108  -11.1888  -11.6177 C   0  0  2  0  0  0  0  0  0  0  0  0
   -7.6823  -12.0857  -12.3178 O   0  0  0  0  0  0  0  0  0  0  0  0
   -2.6688  -11.6352  -12.0944 C   0  0  0  0  0  0  0  0  0  0  0  0
   -3.9523  -11.6612  -12.9072 O   0  0  0  0  0  0  0  0  0  0  0  0
   -8.0861   -9.8917  -16.1894 C   0  0  0  0  0  0  0  0  0  0  0  0
   -7.7146   -8.9980  -17.2773 N   0  0  0  0  0  0  0  0  0  0  0  0
   -5.9732  -12.0105  -10.5723 C   0  0  1  0  0  0  0  0  0  0  0  0
   -5.2254  -12.9755  -11.2728 O   0  0  0  0  0  0  0  0  0  0  0  0
   -0.5859  -12.8642  -11.4804 C   0  0  0  0  0  0  0  0  0  0  0  0
   -2.7160  -16.7611  -11.9346 C   0  0  0  0  0  0  0  0  0  0  0  0
  1  2  1  1  0  0  0
  1  6  1  0  0  0  0
  1 21  1  0  0  0  0
  3  4  1  1  0  0  0
  3  8  1  0  0  0  0
  3 28  1  0  0  0  0
  5  9  1  0  0  0  0
  5 25  1  0  0  0  0
  5 29  1  1  0  0  0
  6  7  1  1  0  0  0
  6 11  1  0  0  0  0
  8 12  1  0  0  0  0
  9 10  1  1  0  0  0
  9 14  1  0  0  0  0
 11 16  1  0  0  0  0
 12 13  1  1  0  0  0
 12 17  1  0  0  0  0
 14 15  1  6  0  0  0
 14 18  1  0  0  0  0
 15 31  1  0  0  0  0
 16 20  1  0  0  0  0
 17  2  1  6  0  0  0
 17 22  1  0  0  0  0
 18 19  1  6  0  0  0
 18 24  1  0  0  0  0
 18 30  1  0  0  0  0
 20 21  1  0  0  0  0
 20 26  1  6  0  0  0
 22 23  1  1  0  0  0
 22 28  1  0  0  0  0
 24 25  1  0  0  0  0
 26 27  1  0  0  0  0
 28 29  1  6  0  0  0
M  END
>  <CHROM.1>
-144.87101831,-178.04658030,-65.94299949,47.05024931,81.40116293,-95.16196478
-5.78499596,-11.12659183,-12.29503224,-3.10074392,0.77826326,-1.82711598

>  <Name>
ligand

>  <RI>
0

>  <Rbt.Current_Directory>
/home/itssahil/PROJECTS/Mol_Feturizer/New_Systems/rnas/4F8U

>  <Rbt.Executable>
rbdock ($Id: //depot/dev/client3/rdock/2013.1/src/exe/rbdock.cxx#4 $)

>  <Rbt.Library>
libRbt.so (2013.1, Build901 2013/11/27)

>  <Rbt.Parameter_File>
/export/apps/rDock/src/rDock_2013.1_src/data/scripts/dock_solv.prm

>  <Rbt.Receptor>
prm/blind_docking_40.prm

>  <SCORE>
29.7202

>  <SCORE.INTER>
17.2847

>  <SCORE.INTER.CONST>
1

>  <SCORE.INTER.POLAR>
0

>  <SCORE.INTER.ROT>
6

>  <SCORE.INTER.SOLV>
25.9998

>  <SCORE.INTER.VDW>
-4.7435

>  <SCORE.INTER.norm>
0.55757

>  <SCORE.INTRA>
0.823432

>  <SCORE.INTRA.DIHEDRAL>
-5.74846

>  <SCORE.INTRA.DIHEDRAL.0>
18.77

>  <SCORE.INTRA.POLAR>
0

>  <SCORE.INTRA.POLAR.0>
0

>  <SCORE.INTRA.REPUL>
0

>  <SCORE.INTRA.REPUL.0>
0

>  <SCORE.INTRA.SOLV>
1.43191

>  <SCORE.INTRA.SOLV.lig_0>
-77.2465

>  <SCORE.INTRA.VDW>
2.98171

>  <SCORE.INTRA.VDW.0>
-4.16072

>  <SCORE.INTRA.norm>
0.0265623

>  <SCORE.RESTR>
11.6121

>  <SCORE.RESTR.CAVITY>
11.6121

>  <SCORE.RESTR.norm>
0.374583

>  <SCORE.SYSTEM>
0

>  <SCORE.SYSTEM.CONST>
0

>  <SCORE.SYSTEM.DIHEDRAL>
0

>  <SCORE.SYSTEM.SOLV>
0

>  <SCORE.SYSTEM.norm>
0

>  <SCORE.heavy>
31

>  <SCORE.norm>
0.958715

>  <RMSD>
5.672

$$$$
ligand
 OpenBabel11021811493D
libRbt.so/2013.1/901 2013/11/27
 31 33  0  0  0  0  0  0  0  0999 V2000
   -8.3531  -12.4938  -15.1301 C   0  0  2  0  0  0  0  0  0  0  0  0
   -8.5410  -11.4060  -14.2147 O   0  0  0  0  0  0  0  0  0  0  0  0
   -6.3140   -9.9648  -10.8550 C   0  0  2  0  0  0  0  0  0  0  0  0
   -5.7212   -9.9038   -9.5539 N   0  0  0  0  0  0  0  0  0  0  0  0
   -3.4035  -11.2622  -10.6642 C   0  0  2  0  0  0  0  0  0  0  0  0
   -9.0478  -12.0677  -16.4709 C   0  0  2  0  0  0  0  0  0  0  0  0
   -8.4671  -10.8188  -16.9513 N   0  0  0  0  0  0  0  0  0  0  0  0
   -7.8793  -10.0788  -10.6974 C   0  0  0  0  0  0  0  0  0  0  0  0
   -2.0048  -11.3536  -11.3488 C   0  0  2  0  0  0  0  0  0  0  0  0
   -1.7610  -10.1538  -12.0628 O   0  0  0  0  0  0  0  0  0  0  0  0
  -10.5914  -11.9100  -16.2424 C   0  0  0  0  0  0  0  0  0  0  0  0
   -8.5372  -10.1386  -12.1434 C   0  0  2  0  0  0  0  0  0  0  0  0
  -10.0086  -10.2475  -12.0078 N   0  0  0  0  0  0  0  0  0  0  0  0
   -2.0468  -12.6045  -12.3334 C   0  0  1  0  0  0  0  0  0  0  0  0
   -0.7419  -12.7479  -13.0642 N   0  0  0  0  0  0  0  0  0  0  0  0
  -11.1643  -13.1317  -15.4674 C   0  0  0  0  0  0  0  0  0  0  0  0
   -7.9610  -11.3933  -12.9386 C   0  0  2  0  0  0  0  0  0  0  0  0
   -2.3274  -13.9562  -11.4691 C   0  0  1  0  0  0  0  0  0  0  0  0
   -1.3184  -14.1907  -10.5058 O   0  0  0  0  0  0  0  0  0  0  0  0
  -10.3624  -13.9324  -14.7493 C   0  0  2  0  0  0  0  0  0  0  0  0
   -8.9416  -13.7364  -14.6413 O   0  0  0  0  0  0  0  0  0  0  0  0
   -6.3846  -11.2611  -13.0530 C   0  0  2  0  0  0  0  0  0  0  0  0
   -5.8512  -12.3968  -13.7456 O   0  0  0  0  0  0  0  0  0  0  0  0
   -3.6880  -13.8096  -10.7078 C   0  0  0  0  0  0  0  0  0  0  0  0
   -3.6875  -12.5263   -9.8942 O   0  0  0  0  0  0  0  0  0  0  0  0
  -10.9123  -15.1527  -13.9746 C   0  0  0  0  0  0  0  0  0  0  0  0
  -10.6472  -14.9859  -12.5525 N   0  0  0  0  0  0  0  0  0  0  0  0
   -5.7504  -11.2010  -11.6164 C   0  0  1  0  0  0  0  0  0  0  0  0
   -4.3555  -11.0788  -11.7591 O   0  0  0  0  0  0  0  0  0  0  0  0
   -2.4027  -15.2619  -12.2778 C   0  0  0  0  0  0  0  0  0  0  0  0
   -0.6244  -12.0215  -14.3428 C   0  0  0  0  0  0  0  0  0  0  0  0
  1  2  1  1  0  0  0
  1  6  1  0  0  0  0
  1 21  1  0  0  0  0
  3  4  1  1  0  0  0
  3  8  1  0  0  0  0
  3 28  1  0  0  0  0
  5  9  1  0  0  0  0
  5 25  1  0  0  0  0
  5 29  1  6  0  0  0
  6  7  1  1  0  0  0
  6 11  1  0  0  0  0
  8 12  1  0  0  0  0
  9 10  1  6  0  0  0
  9 14  1  0  0  0  0
 11 16  1  0  0  0  0
 12 13  1  1  0  0  0
 12 17  1  0  0  0  0
 14 15  1  1  0  0  0
 14 18  1  0  0  0  0
 15 31  1  0  0  0  0
 16 20  1  0  0  0  0
 17  2  1  6  0  0  0
 17 22  1  0  0  0  0
 18 19  1  1  0  0  0
 18 24  1  0  0  0  0
 18 30  1  0  0  0  0
 20 21  1  0  0  0  0
 20 26  1  6  0  0  0
 22 23  1  1  0  0  0
 22 28  1  0  0  0  0
 24 25  1  0  0  0  0
 26 27  1  0  0  0  0
 28 29  1  6  0  0  0
M  END
>  <CHROM.1>
-175.04521492,167.48055048,-89.34919498,-172.63716198,-118.90148974,73.59747432
-6.07413290,-12.18164992,-12.81518415,-2.86310804,-0.24932700,0.80188332

>  <Name>
ligand

>  <RI>
0

>  <Rbt.Current_Directory>
/home/itssahil/PROJECTS/Mol_Feturizer/New_Systems/rnas/4F8U

>  <Rbt.Executable>
rbdock ($Id: //depot/dev/client3/rdock/2013.1/src/exe/rbdock.cxx#4 $)

>  <Rbt.Library>
libRbt.so (2013.1, Build901 2013/11/27)

>  <Rbt.Parameter_File>
/export/apps/rDock/src/rDock_2013.1_src/data/scripts/dock_solv.prm

>  <Rbt.Receptor>
prm/pocket_docking_8.prm

>  <SCORE>
-9.20861

>  <SCORE.INTER>
-1.90484

>  <SCORE.INTER.CONST>
1

>  <SCORE.INTER.POLAR>
0

>  <SCORE.INTER.ROT>
6

>  <SCORE.INTER.SOLV>
13.1373

>  <SCORE.INTER.VDW>
-13.249

>  <SCORE.INTER.norm>
-0.0614463

>  <SCORE.INTRA>
-7.30377

>  <SCORE.INTRA.DIHEDRAL>
-14.4996

>  <SCORE.INTRA.DIHEDRAL.0>
18.77

>  <SCORE.INTRA.POLAR>
0

>  <SCORE.INTRA.POLAR.0>
0

>  <SCORE.INTRA.REPUL>
0

>  <SCORE.INTRA.REPUL.0>
0

>  <SCORE.INTRA.SOLV>
-1.65813

>  <SCORE.INTRA.SOLV.lig_0>
-77.2465

>  <SCORE.INTRA.VDW>
0.775084

>  <SCORE.INTRA.VDW.0>
-4.16072

>  <SCORE.INTRA.norm>
-0.235606

>  <SCORE.RESTR>
0

>  <SCORE.RESTR.CAVITY>
0

>  <SCORE.RESTR.norm>
0

>  <SCORE.SYSTEM>
0

>  <SCORE.SYSTEM.CONST>
0

>  <SCORE.SYSTEM.DIHEDRAL>
0

>  <SCORE.SYSTEM.SOLV>
0

>  <SCORE.SYSTEM.norm>
0

>  <SCORE.heavy>
31

>  <SCORE.norm>
-0.297052

>  <RMSD>
5.705

$$$$
ligand
 OpenBabel11021811493D
libRbt.so/2013.1/901 2013/11/27
 31 33  0  0  0  0  0  0  0  0999 V2000
   -0.3510  -11.7372  -17.4548 C   0  0  2  0  0  0  0  0  0  0  0  0
    0.4731  -12.2073  -16.3795 O   0  0  0  0  0  0  0  0  0  0  0  0
   -1.4154  -15.9358  -15.4548 C   0  0  2  0  0  0  0  0  0  0  0  0
   -1.6644  -17.2109  -14.8546 N   0  0  0  0  0  0  0  0  0  0  0  0
   -2.9203  -15.4609  -12.4181 C   0  0  2  0  0  0  0  0  0  0  0  0
    0.3107  -10.4118  -17.9717 C   0  0  2  0  0  0  0  0  0  0  0  0
    1.6839  -10.6763  -18.3867 N   0  0  0  0  0  0  0  0  0  0  0  0
   -0.0286  -15.9873  -16.2046 C   0  0  0  0  0  0  0  0  0  0  0  0
   -4.3913  -15.0762  -12.0696 C   0  0  2  0  0  0  0  0  0  0  0  0
   -5.2467  -15.5418  -13.0994 O   0  0  0  0  0  0  0  0  0  0  0  0
    0.2721   -9.3237  -16.8428 C   0  0  0  0  0  0  0  0  0  0  0  0
    0.2432  -14.5728  -16.8775 C   0  0  2  0  0  0  0  0  0  0  0  0
    1.5451  -14.6087  -17.5839 N   0  0  0  0  0  0  0  0  0  0  0  0
   -4.4456  -13.4885  -11.9578 C   0  0  1  0  0  0  0  0  0  0  0  0
   -5.8427  -13.0260  -11.6552 N   0  0  0  0  0  0  0  0  0  0  0  0
   -1.1425   -9.2430  -16.1994 C   0  0  0  0  0  0  0  0  0  0  0  0
    0.2547  -13.4427  -15.7543 C   0  0  2  0  0  0  0  0  0  0  0  0
   -3.4505  -13.0022  -10.7636 C   0  0  1  0  0  0  0  0  0  0  0  0
   -3.8204  -13.5426   -9.5098 O   0  0  0  0  0  0  0  0  0  0  0  0
   -2.0128  -10.2574  -16.3145 C   0  0  2  0  0  0  0  0  0  0  0  0
   -1.7207  -11.4721  -17.0273 O   0  0  0  0  0  0  0  0  0  0  0  0
   -1.1417  -13.4385  -15.0023 C   0  0  2  0  0  0  0  0  0  0  0  0
   -1.1355  -12.4419  -13.9724 O   0  0  0  0  0  0  0  0  0  0  0  0
   -1.9933  -13.4820  -11.0779 C   0  0  0  0  0  0  0  0  0  0  0  0
   -1.9882  -14.9793  -11.3362 O   0  0  0  0  0  0  0  0  0  0  0  0
   -3.4239  -10.1950  -15.6847 C   0  0  0  0  0  0  0  0  0  0  0  0
   -4.4295  -10.3170  -16.7308 N   0  0  0  0  0  0  0  0  0  0  0  0
   -1.3961  -14.8432  -14.3452 C   0  0  1  0  0  0  0  0  0  0  0  0
   -2.6431  -14.8018  -13.6939 O   0  0  0  0  0  0  0  0  0  0  0  0
   -3.3833  -11.4843  -10.5274 C   0  0  0  0  0  0  0  0  0  0  0  0
   -6.5168  -13.6798  -10.5176 C   0  0  0  0  0  0  0  0  0  0  0  0
  1  2  1  1  0  0  0
  1  6  1  0  0  0  0
  1 21  1  0  0  0  0
  3  4  1  1  0  0  0
  3  8  1  0  0  0  0
  3 28  1  0  0  0  0
  5  9  1  0  0  0  0
  5 25  1  0  0  0  0
  5 29  1  6  0  0  0
  6  7  1  1  0  0  0
  6 11  1  0  0  0  0
  8 12  1  0  0  0  0
  9 10  1  6  0  0  0
  9 14  1  0  0  0  0
 11 16  1  0  0  0  0
 12 13  1  1  0  0  0
 12 17  1  0  0  0  0
 14 15  1  1  0  0  0
 14 18  1  0  0  0  0
 15 31  1  0  0  0  0
 16 20  1  0  0  0  0
 17  2  1  6  0  0  0
 17 22  1  0  0  0  0
 18 19  1  1  0  0  0
 18 24  1  0  0  0  0
 18 30  1  0  0  0  0
 20 21  1  0  0  0  0
 20 26  1  6  0  0  0
 22 23  1  1  0  0  0
 22 28  1  0  0  0  0
 24 25  1  0  0  0  0
 26 27  1  0  0  0  0
 28 29  1  6  0  0  0
M  END
>  <CHROM.1>
-173.94628015,177.23653221,50.91143742,54.48311893,119.70230766,98.36627273
-2.01833569,-13.09555734,-14.39651866,0.60812310,0.83075894,-0.36126507

>  <Name>
ligand

>  <RI>
0

>  <Rbt.Current_Directory>
/home/itssahil/PROJECTS/Mol_Feturizer/New_Systems/rnas/4F8U

>  <Rbt.Executable>
rbdock ($Id: //depot/dev/client3/rdock/2013.1/src/exe/rbdock.cxx#4 $)

>  <Rbt.Library>
libRbt.so (2013.1, Build901 2013/11/27)

>  <Rbt.Parameter_File>
/export/apps/rDock/src/rDock_2013.1_src/data/scripts/dock_solv.prm

>  <Rbt.Receptor>
prm/pocket_docking_7.prm

>  <SCORE>
-7.73764

>  <SCORE.INTER>
-3.44275

>  <SCORE.INTER.CONST>
1

>  <SCORE.INTER.POLAR>
0

>  <SCORE.INTER.ROT>
6

>  <SCORE.INTER.SOLV>
8.55955

>  <SCORE.INTER.VDW>
-12.7484

>  <SCORE.INTER.norm>
-0.111057

>  <SCORE.INTRA>
-4.29489

>  <SCORE.INTRA.DIHEDRAL>
-11.528

>  <SCORE.INTRA.DIHEDRAL.0>
18.77

>  <SCORE.INTRA.POLAR>
0

>  <SCORE.INTRA.POLAR.0>
0

>  <SCORE.INTRA.REPUL>
0

>  <SCORE.INTRA.REPUL.0>
0

>  <SCORE.INTRA.SOLV>
-0.754148

>  <SCORE.INTRA.SOLV.lig_0>
-77.2465

>  <SCORE.INTRA.VDW>
1.84618

>  <SCORE.INTRA.VDW.0>
-4.16072

>  <SCORE.INTRA.norm>
-0.138545

>  <SCORE.RESTR>
0

>  <SCORE.RESTR.CAVITY>
0

>  <SCORE.RESTR.norm>
0

>  <SCORE.SYSTEM>
0

>  <SCORE.SYSTEM.CONST>
0

>  <SCORE.SYSTEM.DIHEDRAL>
0

>  <SCORE.SYSTEM.SOLV>
0

>  <SCORE.SYSTEM.norm>
0

>  <SCORE.heavy>
31

>  <SCORE.norm>
-0.249601

>  <RMSD>
5.755

$$$$
ligand
 OpenBabel11021811493D
libRbt.so/2013.1/901 2013/11/27
 31 33  0  0  0  0  0  0  0  0999 V2000
   -9.5234   -8.9411  -12.3784 C   0  0  2  0  0  0  0  0  0  0  0  0
   -8.1731   -9.4036  -12.5171 O   0  0  0  0  0  0  0  0  0  0  0  0
   -5.2945  -10.2361   -9.4602 C   0  0  2  0  0  0  0  0  0  0  0  0
   -4.6043  -10.9100   -8.4031 N   0  0  0  0  0  0  0  0  0  0  0  0
   -2.9726  -12.1354  -10.3654 C   0  0  2  0  0  0  0  0  0  0  0  0
  -10.0948   -8.8037  -13.8333 C   0  0  2  0  0  0  0  0  0  0  0  0
  -10.0053  -10.0871  -14.5208 N   0  0  0  0  0  0  0  0  0  0  0  0
   -6.7812   -9.9659   -9.0075 C   0  0  0  0  0  0  0  0  0  0  0  0
   -1.8064  -12.4403  -11.3555 C   0  0  2  0  0  0  0  0  0  0  0  0
   -1.2473  -11.2166  -11.8013 O   0  0  0  0  0  0  0  0  0  0  0  0
   -9.3001   -7.6995  -14.6138 C   0  0  0  0  0  0  0  0  0  0  0  0
   -7.5447   -9.2103  -10.1795 C   0  0  2  0  0  0  0  0  0  0  0  0
   -8.9438   -8.9524   -9.7659 N   0  0  0  0  0  0  0  0  0  0  0  0
   -2.4274  -13.2598  -12.5716 C   0  0  1  0  0  0  0  0  0  0  0  0
   -1.3727  -13.5689  -13.5960 N   0  0  0  0  0  0  0  0  0  0  0  0
   -9.1498   -6.4121  -13.7526 C   0  0  0  0  0  0  0  0  0  0  0  0
   -7.5138  -10.1046  -11.4978 C   0  0  2  0  0  0  0  0  0  0  0  0
   -3.0546  -14.6548  -12.0115 C   0  0  1  0  0  0  0  0  0  0  0  0
   -2.0765  -15.4663  -11.3904 O   0  0  0  0  0  0  0  0  0  0  0  0
   -9.2961   -6.4514  -12.4197 C   0  0  2  0  0  0  0  0  0  0  0  0
   -9.6003   -7.6551  -11.6934 O   0  0  0  0  0  0  0  0  0  0  0  0
   -6.0067  -10.3809  -11.9073 C   0  0  2  0  0  0  0  0  0  0  0  0
   -5.9652  -11.2054  -13.0788 O   0  0  0  0  0  0  0  0  0  0  0  0
   -4.1554  -14.3347  -10.9447 C   0  0  0  0  0  0  0  0  0  0  0  0
   -3.5843  -13.4217   -9.8728 O   0  0  0  0  0  0  0  0  0  0  0  0
   -9.1533   -5.1826  -11.5471 C   0  0  0  0  0  0  0  0  0  0  0  0
  -10.0425   -5.2797  -10.3981 N   0  0  0  0  0  0  0  0  0  0  0  0
   -5.2660  -11.1256  -10.7383 C   0  0  1  0  0  0  0  0  0  0  0  0
   -3.9343  -11.3477  -11.1359 O   0  0  0  0  0  0  0  0  0  0  0  0
   -3.7022  -15.5666  -13.0668 C   0  0  0  0  0  0  0  0  0  0  0  0
   -0.1253  -14.1721  -13.0898 C   0  0  0  0  0  0  0  0  0  0  0  0
  1  2  1  6  0  0  0
  1  6  1  0  0  0  0
  1 21  1  0  0  0  0
  3  4  1  1  0  0  0
  3  8  1  0  0  0  0
  3 28  1  0  0  0  0
  5  9  1  0  0  0  0
  5 25  1  0  0  0  0
  5 29  1  6  0  0  0
  6  7  1  6  0  0  0
  6 11  1  0  0  0  0
  8 12  1  0  0  0  0
  9 10  1  6  0  0  0
  9 14  1  0  0  0  0
 11 16  1  0  0  0  0
 12 13  1  1  0  0  0
 12 17  1  0  0  0  0
 14 15  1  6  0  0  0
 14 18  1  0  0  0  0
 15 31  1  0  0  0  0
 16 20  1  0  0  0  0
 17  2  1  6  0  0  0
 17 22  1  0  0  0  0
 18 19  1  1  0  0  0
 18 24  1  0  0  0  0
 18 30  1  0  0  0  0
 20 21  1  0  0  0  0
 20 26  1  6  0  0  0
 22 23  1  6  0  0  0
 22 28  1  0  0  0  0
 24 25  1  0  0  0  0
 26 27  1  0  0  0  0
 28 29  1  6  0  0  0
M  END
>  <CHROM.1>
-155.61340884,164.39166310,50.09302387,-56.30787690,147.61392440,67.21837229
-5.85179449,-10.66595594,-11.71461085,2.91603333,-0.69801278,1.16254367

>  <Name>
ligand

>  <RI>
0

>  <Rbt.Current_Directory>
/home/itssahil/PROJECTS/Mol_Feturizer/New_Systems/rnas/4F8U

>  <Rbt.Executable>
rbdock ($Id: //depot/dev/client3/rdock/2013.1/src/exe/rbdock.cxx#4 $)

>  <Rbt.Library>
libRbt.so (2013.1, Build901 2013/11/27)

>  <Rbt.Parameter_File>
/export/apps/rDock/src/rDock_2013.1_src/data/scripts/dock_solv.prm

>  <Rbt.Receptor>
prm/blind_docking_40.prm

>  <SCORE>
27.7494

>  <SCORE.INTER>
18.5228

>  <SCORE.INTER.CONST>
1

>  <SCORE.INTER.POLAR>
0

>  <SCORE.INTER.ROT>
6

>  <SCORE.INTER.SOLV>
21.2893

>  <SCORE.INTER.VDW>
-2.3479

>  <SCORE.INTER.norm>
0.59751

>  <SCORE.INTRA>
-0.331675

>  <SCORE.INTRA.DIHEDRAL>
-12.1534

>  <SCORE.INTRA.DIHEDRAL.0>
18.77

>  <SCORE.INTRA.POLAR>
0

>  <SCORE.INTRA.POLAR.0>
0

>  <SCORE.INTRA.REPUL>
0

>  <SCORE.INTRA.REPUL.0>
0

>  <SCORE.INTRA.SOLV>
2.36889

>  <SCORE.INTRA.SOLV.lig_0>
-77.2465

>  <SCORE.INTRA.VDW>
4.56059

>  <SCORE.INTRA.VDW.0>
-4.16072

>  <SCORE.INTRA.norm>
-0.0106992

>  <SCORE.RESTR>
9.55829

>  <SCORE.RESTR.CAVITY>
9.55829

>  <SCORE.RESTR.norm>
0.308332

>  <SCORE.SYSTEM>
0

>  <SCORE.SYSTEM.CONST>
0

>  <SCORE.SYSTEM.DIHEDRAL>
0

>  <SCORE.SYSTEM.SOLV>
0

>  <SCORE.SYSTEM.norm>
0

>  <SCORE.heavy>
31

>  <SCORE.norm>
0.895143

>  <RMSD>
5.964

$$$$
ligand
 OpenBabel11021811493D
libRbt.so/2013.1/901 2013/11/27
 31 33  0  0  0  0  0  0  0  0999 V2000
   -5.8864   -7.7428  -20.9734 C   0  0  2  0  0  0  0  0  0  0  0  0
   -6.8174   -8.7538  -21.3830 O   0  0  0  0  0  0  0  0  0  0  0  0
   -7.9886  -12.6002  -19.9143 C   0  0  2  0  0  0  0  0  0  0  0  0
   -7.9137  -13.9703  -19.5077 N   0  0  0  0  0  0  0  0  0  0  0  0
   -7.2582  -13.0465  -16.8609 C   0  0  2  0  0  0  0  0  0  0  0  0
   -6.6841   -6.3919  -20.9483 C   0  0  2  0  0  0  0  0  0  0  0  0
   -7.8235   -6.5095  -20.0452 N   0  0  0  0  0  0  0  0  0  0  0  0
   -7.5719  -12.4953  -21.4320 C   0  0  0  0  0  0  0  0  0  0  0  0
   -7.8839  -12.6914  -15.4768 C   0  0  2  0  0  0  0  0  0  0  0  0
   -9.2509  -12.3637  -15.6585 O   0  0  0  0  0  0  0  0  0  0  0  0
   -7.1603   -6.0294  -22.3981 C   0  0  0  0  0  0  0  0  0  0  0  0
   -7.6631  -10.9741  -21.8848 C   0  0  2  0  0  0  0  0  0  0  0  0
   -7.2721  -10.8629  -23.3095 N   0  0  0  0  0  0  0  0  0  0  0  0
   -7.0714  -11.4486  -14.9011 C   0  0  1  0  0  0  0  0  0  0  0  0
   -7.6326  -11.0163  -13.5762 N   0  0  0  0  0  0  0  0  0  0  0  0
   -5.9954   -6.1825  -23.4183 C   0  0  0  0  0  0  0  0  0  0  0  0
   -6.6981  -10.0899  -20.9761 C   0  0  2  0  0  0  0  0  0  0  0  0
   -5.5108  -11.8730  -14.7085 C   0  0  1  0  0  0  0  0  0  0  0  0
   -5.3603  -12.9511  -13.8052 O   0  0  0  0  0  0  0  0  0  0  0  0
   -4.9190   -6.9299  -23.1310 C   0  0  2  0  0  0  0  0  0  0  0  0
   -4.7535   -7.6313  -21.8862 O   0  0  0  0  0  0  0  0  0  0  0  0
   -7.1264  -10.2416  -19.4565 C   0  0  2  0  0  0  0  0  0  0  0  0
   -6.2500   -9.4696  -18.6258 O   0  0  0  0  0  0  0  0  0  0  0  0
   -4.9234  -12.3224  -16.0888 C   0  0  0  0  0  0  0  0  0  0  0  0
   -5.8030  -13.4023  -16.6960 O   0  0  0  0  0  0  0  0  0  0  0  0
   -3.7500   -7.0921  -24.1304 C   0  0  0  0  0  0  0  0  0  0  0  0
   -2.8412   -5.9614  -24.0038 N   0  0  0  0  0  0  0  0  0  0  0  0
   -7.0330  -11.7500  -19.0257 C   0  0  1  0  0  0  0  0  0  0  0  0
   -7.4246  -11.8445  -17.6772 O   0  0  0  0  0  0  0  0  0  0  0  0
   -4.5834  -10.7755  -14.1607 C   0  0  0  0  0  0  0  0  0  0  0  0
   -8.6634   -9.9616  -13.6145 C   0  0  0  0  0  0  0  0  0  0  0  0
  1  2  1  6  0  0  0
  1  6  1  0  0  0  0
  1 21  1  0  0  0  0
  3  4  1  1  0  0  0
  3  8  1  0  0  0  0
  3 28  1  0  0  0  0
  5  9  1  0  0  0  0
  5 25  1  0  0  0  0
  5 29  1  6  0  0  0
  6  7  1  1  0  0  0
  6 11  1  0  0  0  0
  8 12  1  0  0  0  0
  9 10  1  6  0  0  0
  9 14  1  0  0  0  0
 11 16  1  0  0  0  0
 12 13  1  6  0  0  0
 12 17  1  0  0  0  0
 14 15  1  1  0  0  0
 14 18  1  0  0  0  0
 15 31  1  0  0  0  0
 16 20  1  0  0  0  0
 17  2  1  6  0  0  0
 17 22  1  0  0  0  0
 18 19  1  1  0  0  0
 18 24  1  0  0  0  0
 18 30  1  0  0  0  0
 20 21  1  0  0  0  0
 20 26  1  1  0  0  0
 22 23  1  1  0  0  0
 22 28  1  0  0  0  0
 24 25  1  0  0  0  0
 26 27  1  0  0  0  0
 28 29  1  1  0  0  0
M  END
>  <CHROM.1>
-150.90058038,-177.77818785,-92.42817260,-166.36864884,83.62098239,71.32516763
-6.55951239,-10.18543954,-18.97433806,-1.17849788,1.17264103,1.77601297

>  <Name>
ligand

>  <RI>
0

>  <Rbt.Current_Directory>
/home/itssahil/PROJECTS/Mol_Feturizer/New_Systems/rnas/4F8U

>  <Rbt.Executable>
rbdock ($Id: //depot/dev/client3/rdock/2013.1/src/exe/rbdock.cxx#4 $)

>  <Rbt.Library>
libRbt.so (2013.1, Build901 2013/11/27)

>  <Rbt.Parameter_File>
/export/apps/rDock/src/rDock_2013.1_src/data/scripts/dock_solv.prm

>  <Rbt.Receptor>
prm/pocket_docking_8.prm

>  <SCORE>
-11.1988

>  <SCORE.INTER>
-6.28623

>  <SCORE.INTER.CONST>
1

>  <SCORE.INTER.POLAR>
0

>  <SCORE.INTER.ROT>
6

>  <SCORE.INTER.SOLV>
19.7038

>  <SCORE.INTER.VDW>
-18.3588

>  <SCORE.INTER.norm>
-0.202782

>  <SCORE.INTRA>
-4.91254

>  <SCORE.INTRA.DIHEDRAL>
-10.1857

>  <SCORE.INTRA.DIHEDRAL.0>
18.77

>  <SCORE.INTRA.POLAR>
0

>  <SCORE.INTRA.POLAR.0>
0

>  <SCORE.INTRA.REPUL>
0

>  <SCORE.INTRA.REPUL.0>
0

>  <SCORE.INTRA.SOLV>
-1.29968

>  <SCORE.INTRA.SOLV.lig_0>
-77.2465

>  <SCORE.INTRA.VDW>
0.830123

>  <SCORE.INTRA.VDW.0>
-4.16072

>  <SCORE.INTRA.norm>
-0.158469

>  <SCORE.RESTR>
0

>  <SCORE.RESTR.CAVITY>
0

>  <SCORE.RESTR.norm>
0

>  <SCORE.SYSTEM>
0

>  <SCORE.SYSTEM.CONST>
0

>  <SCORE.SYSTEM.DIHEDRAL>
0

>  <SCORE.SYSTEM.SOLV>
0

>  <SCORE.SYSTEM.norm>
0

>  <SCORE.heavy>
31

>  <SCORE.norm>
-0.361251

>  <RMSD>
5.996

$$$$
ligand
 OpenBabel11021811493D
libRbt.so/2013.1/901 2013/11/27
 31 33  0  0  0  0  0  0  0  0999 V2000
   -9.2387   -8.7676  -12.0114 C   0  0  2  0  0  0  0  0  0  0  0  0
   -7.8486   -9.0838  -12.1667 O   0  0  0  0  0  0  0  0  0  0  0  0
   -4.9763  -10.8437   -9.5254 C   0  0  2  0  0  0  0  0  0  0  0  0
   -4.3079  -11.8092   -8.7075 N   0  0  0  0  0  0  0  0  0  0  0  0
   -2.6174  -12.1286  -10.6973 C   0  0  2  0  0  0  0  0  0  0  0  0
   -9.8940   -8.9508  -13.4253 C   0  0  2  0  0  0  0  0  0  0  0  0
   -9.6742  -10.3136  -13.8970 N   0  0  0  0  0  0  0  0  0  0  0  0
   -6.4406  -10.6368   -8.9766 C   0  0  0  0  0  0  0  0  0  0  0  0
   -1.3819  -12.1338  -11.6496 C   0  0  2  0  0  0  0  0  0  0  0  0
   -1.0801  -10.7999  -12.0216 O   0  0  0  0  0  0  0  0  0  0  0  0
   -9.2872   -7.9111  -14.4306 C   0  0  0  0  0  0  0  0  0  0  0  0
   -7.1794   -9.5582   -9.8811 C   0  0  2  0  0  0  0  0  0  0  0  0
   -8.5575   -9.3566   -9.3757 N   0  0  0  0  0  0  0  0  0  0  0  0
   -1.7764  -13.0054  -12.9228 C   0  0  1  0  0  0  0  0  0  0  0  0
   -0.6478  -13.0364  -13.9141 N   0  0  0  0  0  0  0  0  0  0  0  0
   -9.2615   -6.4862  -13.8056 C   0  0  0  0  0  0  0  0  0  0  0  0
   -7.2131  -10.0638  -11.3917 C   0  0  2  0  0  0  0  0  0  0  0  0
   -2.1121  -14.5263  -12.4464 C   0  0  1  0  0  0  0  0  0  0  0  0
   -1.0051  -15.1438  -11.8187 O   0  0  0  0  0  0  0  0  0  0  0  0
   -9.3357   -6.3129  -12.4773 C   0  0  2  0  0  0  0  0  0  0  0  0
   -9.4464   -7.4012  -11.5434 O   0  0  0  0  0  0  0  0  0  0  0  0
   -5.7280  -10.2892  -11.9010 C   0  0  2  0  0  0  0  0  0  0  0  0
   -5.7454  -10.7679  -13.2518 O   0  0  0  0  0  0  0  0  0  0  0  0
   -3.2894  -14.4964  -11.4142 C   0  0  0  0  0  0  0  0  0  0  0  0
   -2.9588  -13.5370  -10.2833 O   0  0  0  0  0  0  0  0  0  0  0  0
   -9.3143   -4.9051  -11.8375 C   0  0  0  0  0  0  0  0  0  0  0  0
   -8.0292   -4.6848  -11.1891 N   0  0  0  0  0  0  0  0  0  0  0  0
   -5.0114  -11.3554  -10.9958 C   0  0  1  0  0  0  0  0  0  0  0  0
   -3.6986  -11.5238  -11.4745 O   0  0  0  0  0  0  0  0  0  0  0  0
   -2.5182  -15.5014  -13.5639 C   0  0  0  0  0  0  0  0  0  0  0  0
   -0.4737  -11.8305  -14.7458 C   0  0  0  0  0  0  0  0  0  0  0  0
  1  2  1  6  0  0  0
  1  6  1  0  0  0  0
  1 21  1  0  0  0  0
  3  4  1  1  0  0  0
  3  8  1  0  0  0  0
  3 28  1  0  0  0  0
  5  9  1  0  0  0  0
  5 25  1  0  0  0  0
  5 29  1  6  0  0  0
  6  7  1  6  0  0  0
  6 11  1  0  0  0  0
  8 12  1  0  0  0  0
  9 10  1  6  0  0  0
  9 14  1  0  0  0  0
 11 16  1  0  0  0  0
 12 13  1  1  0  0  0
 12 17  1  0  0  0  0
 14 15  1  6  0  0  0
 14 18  1  0  0  0  0
 15 31  1  0  0  0  0
 16 20  1  0  0  0  0
 17  2  1  6  0  0  0
 17 22  1  0  0  0  0
 18 19  1  1  0  0  0
 18 24  1  0  0  0  0
 18 30  1  0  0  0  0
 20 21  1  0  0  0  0
 20 26  1  6  0  0  0
 22 23  1  6  0  0  0
 22 28  1  0  0  0  0
 24 25  1  0  0  0  0
 26 27  1  0  0  0  0
 28 29  1  6  0  0  0
M  END
>  <CHROM.1>
-124.15830572,178.40402585,-77.43388907,-66.63401137,-107.10288657,42.86618526
-5.44334879,-10.57571883,-11.87681027,3.01553624,0.68687939,-1.37246162

>  <Name>
ligand

>  <RI>
0

>  <Rbt.Current_Directory>
/home/itssahil/PROJECTS/Mol_Feturizer/New_Systems/rnas/4F8U

>  <Rbt.Executable>
rbdock ($Id: //depot/dev/client3/rdock/2013.1/src/exe/rbdock.cxx#4 $)

>  <Rbt.Library>
libRbt.so (2013.1, Build901 2013/11/27)

>  <Rbt.Parameter_File>
/export/apps/rDock/src/rDock_2013.1_src/data/scripts/dock_solv.prm

>  <Rbt.Receptor>
prm/blind_docking_40.prm

>  <SCORE>
37.7978

>  <SCORE.INTER>
27.1289

>  <SCORE.INTER.CONST>
1

>  <SCORE.INTER.POLAR>
0

>  <SCORE.INTER.ROT>
6

>  <SCORE.INTER.SOLV>
26.8562

>  <SCORE.INTER.VDW>
1.53383

>  <SCORE.INTER.norm>
0.875125

>  <SCORE.INTRA>
-0.279286

>  <SCORE.INTRA.DIHEDRAL>
-7.9467

>  <SCORE.INTRA.DIHEDRAL.0>
18.77

>  <SCORE.INTRA.POLAR>
0

>  <SCORE.INTRA.POLAR.0>
0

>  <SCORE.INTRA.REPUL>
0

>  <SCORE.INTRA.REPUL.0>
0

>  <SCORE.INTRA.SOLV>
1.3074

>  <SCORE.INTRA.SOLV.lig_0>
-77.2465

>  <SCORE.INTRA.VDW>
3.04036

>  <SCORE.INTRA.VDW.0>
-4.16072

>  <SCORE.INTRA.norm>
-0.00900921

>  <SCORE.RESTR>
10.9482

>  <SCORE.RESTR.CAVITY>
10.9482

>  <SCORE.RESTR.norm>
0.353168

>  <SCORE.SYSTEM>
0

>  <SCORE.SYSTEM.CONST>
0

>  <SCORE.SYSTEM.DIHEDRAL>
0

>  <SCORE.SYSTEM.SOLV>
0

>  <SCORE.SYSTEM.norm>
0

>  <SCORE.heavy>
31

>  <SCORE.norm>
1.21928

>  <RMSD>
6.006

$$$$
ligand
 OpenBabel11021811493D
libRbt.so/2013.1/901 2013/11/27
 31 33  0  0  0  0  0  0  0  0999 V2000
   -5.9213   -7.7337  -20.6753 C   0  0  2  0  0  0  0  0  0  0  0  0
   -6.8639   -8.7269  -21.1014 O   0  0  0  0  0  0  0  0  0  0  0  0
   -7.8007  -12.7816  -20.0987 C   0  0  2  0  0  0  0  0  0  0  0  0
   -7.6464  -14.1855  -19.8678 N   0  0  0  0  0  0  0  0  0  0  0  0
   -6.3972  -11.9000  -16.6439 C   0  0  2  0  0  0  0  0  0  0  0  0
   -6.7005   -6.3723  -20.6381 C   0  0  2  0  0  0  0  0  0  0  0  0
   -7.8460   -6.4849  -19.7420 N   0  0  0  0  0  0  0  0  0  0  0  0
   -7.4327  -12.4683  -21.6002 C   0  0  0  0  0  0  0  0  0  0  0  0
   -6.8006  -12.8955  -15.5128 C   0  0  2  0  0  0  0  0  0  0  0  0
   -6.5237  -14.2179  -15.9410 O   0  0  0  0  0  0  0  0  0  0  0  0
   -7.1643   -5.9862  -22.0857 C   0  0  0  0  0  0  0  0  0  0  0  0
   -7.6121  -10.9098  -21.8576 C   0  0  2  0  0  0  0  0  0  0  0  0
   -7.2673  -10.6032  -23.2655 N   0  0  0  0  0  0  0  0  0  0  0  0
   -8.3584  -12.6964  -15.2481 C   0  0  1  0  0  0  0  0  0  0  0  0
   -8.8416  -13.6458  -14.1887 N   0  0  0  0  0  0  0  0  0  0  0  0
   -5.9964   -6.1433  -23.1019 C   0  0  0  0  0  0  0  0  0  0  0  0
   -6.6669  -10.0948  -20.8670 C   0  0  2  0  0  0  0  0  0  0  0  0
   -8.6262  -11.1664  -14.7580 C   0  0  1  0  0  0  0  0  0  0  0  0
   -7.9362  -10.8627  -13.5611 O   0  0  0  0  0  0  0  0  0  0  0  0
   -4.9319   -6.9087  -22.8182 C   0  0  2  0  0  0  0  0  0  0  0  0
   -4.7823   -7.6270  -21.5811 O   0  0  0  0  0  0  0  0  0  0  0  0
   -7.0442  -10.4553  -19.3692 C   0  0  2  0  0  0  0  0  0  0  0  0
   -6.1842   -9.7465  -18.4680 O   0  0  0  0  0  0  0  0  0  0  0  0
   -8.1247  -10.1751  -15.8616 C   0  0  0  0  0  0  0  0  0  0  0  0
   -6.6790  -10.4836  -16.2130 O   0  0  0  0  0  0  0  0  0  0  0  0
   -3.7602   -7.0752  -23.8138 C   0  0  0  0  0  0  0  0  0  0  0  0
   -3.9743   -6.2110  -24.9661 N   0  0  0  0  0  0  0  0  0  0  0  0
   -6.8639  -11.9983  -19.1321 C   0  0  1  0  0  0  0  0  0  0  0  0
   -7.2122  -12.2791  -17.7976 O   0  0  0  0  0  0  0  0  0  0  0  0
  -10.0919  -10.8071  -14.4628 C   0  0  0  0  0  0  0  0  0  0  0  0
   -9.3430  -14.9511  -14.6588 C   0  0  0  0  0  0  0  0  0  0  0  0
  1  2  1  6  0  0  0
  1  6  1  0  0  0  0
  1 21  1  0  0  0  0
  3  4  1  6  0  0  0
  3  8  1  0  0  0  0
  3 28  1  0  0  0  0
  5  9  1  0  0  0  0
  5 25  1  0  0  0  0
  5 29  1  6  0  0  0
  6  7  1  1  0  0  0
  6 11  1  0  0  0  0
  8 12  1  0  0  0  0
  9 10  1  6  0  0  0
  9 14  1  0  0  0  0
 11 16  1  0  0  0  0
 12 13  1  6  0  0  0
 12 17  1  0  0  0  0
 14 15  1  1  0  0  0
 14 18  1  0  0  0  0
 15 31  1  0  0  0  0
 16 20  1  0  0  0  0
 17  2  1  1  0  0  0
 17 22  1  0  0  0  0
 18 19  1  1  0  0  0
 18 24  1  0  0  0  0
 18 30  1  0  0  0  0
 20 21  1  0  0  0  0
 20 26  1  1  0  0  0
 22 23  1  1  0  0  0
 22 28  1  0  0  0  0
 24 25  1  0  0  0  0
 26 27  1  0  0  0  0
 28 29  1  1  0  0  0
M  END
>  <CHROM.1>
-159.94887683,-156.17501498,-90.84620652,-161.61168451,4.75671903,168.87052977
-7.00930770,-10.29021852,-18.98103548,0.20560256,1.29531400,0.41792059

>  <Name>
ligand

>  <RI>
0

>  <Rbt.Current_Directory>
/home/itssahil/PROJECTS/Mol_Feturizer/New_Systems/rnas/4F8U

>  <Rbt.Executable>
rbdock ($Id: //depot/dev/client3/rdock/2013.1/src/exe/rbdock.cxx#4 $)

>  <Rbt.Library>
libRbt.so (2013.1, Build901 2013/11/27)

>  <Rbt.Parameter_File>
/export/apps/rDock/src/rDock_2013.1_src/data/scripts/dock_solv.prm

>  <Rbt.Receptor>
prm/pocket_docking_7.prm

>  <SCORE>
-10.5753

>  <SCORE.INTER>
-7.12474

>  <SCORE.INTER.CONST>
1

>  <SCORE.INTER.POLAR>
0

>  <SCORE.INTER.ROT>
6

>  <SCORE.INTER.SOLV>
18.33

>  <SCORE.INTER.VDW>
-18.4598

>  <SCORE.INTER.norm>
-0.22983

>  <SCORE.INTRA>
-3.45053

>  <SCORE.INTRA.DIHEDRAL>
-10.0289

>  <SCORE.INTRA.DIHEDRAL.0>
18.77

>  <SCORE.INTRA.POLAR>
0

>  <SCORE.INTRA.POLAR.0>
0

>  <SCORE.INTRA.REPUL>
0

>  <SCORE.INTRA.REPUL.0>
0

>  <SCORE.INTRA.SOLV>
-1.93435

>  <SCORE.INTRA.SOLV.lig_0>
-77.2465

>  <SCORE.INTRA.VDW>
2.5311

>  <SCORE.INTRA.VDW.0>
-4.16072

>  <SCORE.INTRA.norm>
-0.111307

>  <SCORE.RESTR>
0

>  <SCORE.RESTR.CAVITY>
0

>  <SCORE.RESTR.norm>
0

>  <SCORE.SYSTEM>
0

>  <SCORE.SYSTEM.CONST>
0

>  <SCORE.SYSTEM.DIHEDRAL>
0

>  <SCORE.SYSTEM.SOLV>
0

>  <SCORE.SYSTEM.norm>
0

>  <SCORE.heavy>
31

>  <SCORE.norm>
-0.341138

>  <RMSD>
6.008

$$$$
ligand
 OpenBabel11021811493D
libRbt.so/2013.1/901 2013/11/27
 31 33  0  0  0  0  0  0  0  0999 V2000
    1.1351  -10.5227  -16.8765 C   0  0  2  0  0  0  0  0  0  0  0  0
    1.5562  -10.3378  -15.5182 O   0  0  0  0  0  0  0  0  0  0  0  0
    1.1356  -14.3075  -13.9727 C   0  0  2  0  0  0  0  0  0  0  0  0
    1.1500  -15.4094  -13.0598 N   0  0  0  0  0  0  0  0  0  0  0  0
   -1.6059  -14.6252  -12.2789 C   0  0  2  0  0  0  0  0  0  0  0  0
    1.6794   -9.2893  -17.6794 C   0  0  2  0  0  0  0  0  0  0  0  0
    3.1298   -9.2142  -17.5431 N   0  0  0  0  0  0  0  0  0  0  0  0
    2.5951  -13.7202  -14.0862 C   0  0  0  0  0  0  0  0  0  0  0  0
   -3.0317  -15.0950  -12.7025 C   0  0  2  0  0  0  0  0  0  0  0  0
   -2.9413  -15.7936  -13.9324 O   0  0  0  0  0  0  0  0  0  0  0  0
    1.0040   -7.9745  -17.1553 C   0  0  0  0  0  0  0  0  0  0  0  0
    2.5794  -12.5013  -15.1066 C   0  0  2  0  0  0  0  0  0  0  0  0
    3.9459  -11.9401  -15.2202 N   0  0  0  0  0  0  0  0  0  0  0  0
   -3.9291  -13.7880  -12.8539 C   0  0  1  0  0  0  0  0  0  0  0  0
   -5.3195  -14.1479  -13.2948 N   0  0  0  0  0  0  0  0  0  0  0  0
   -0.5365   -8.1550  -17.0300 C   0  0  0  0  0  0  0  0  0  0  0  0
    1.5654  -11.3867  -14.5884 C   0  0  2  0  0  0  0  0  0  0  0  0
   -4.0043  -13.0219  -11.4185 C   0  0  1  0  0  0  0  0  0  0  0  0
   -4.5783  -13.8331  -10.4119 O   0  0  0  0  0  0  0  0  0  0  0  0
   -1.0857   -9.3771  -16.9616 C   0  0  2  0  0  0  0  0  0  0  0  0
   -0.3170  -10.5921  -17.0012 O   0  0  0  0  0  0  0  0  0  0  0  0
    0.1163  -12.0180  -14.4581 C   0  0  2  0  0  0  0  0  0  0  0  0
   -0.8009  -11.0312  -13.9691 O   0  0  0  0  0  0  0  0  0  0  0  0
   -2.5561  -12.6443  -10.9578 C   0  0  0  0  0  0  0  0  0  0  0  0
   -1.6727  -13.8805  -10.9703 O   0  0  0  0  0  0  0  0  0  0  0  0
   -2.6144   -9.5771  -16.8395 C   0  0  0  0  0  0  0  0  0  0  0  0
   -2.9297  -10.1302  -15.5299 N   0  0  0  0  0  0  0  0  0  0  0  0
    0.1495  -13.2219  -13.4486 C   0  0  1  0  0  0  0  0  0  0  0  0
   -1.1494  -13.7575  -13.3640 O   0  0  0  0  0  0  0  0  0  0  0  0
   -4.8355  -11.7284  -11.3952 C   0  0  0  0  0  0  0  0  0  0  0  0
   -5.5916  -14.0569  -14.7419 C   0  0  0  0  0  0  0  0  0  0  0  0
  1  2  1  1  0  0  0
  1  6  1  0  0  0  0
  1 21  1  0  0  0  0
  3  4  1  1  0  0  0
  3  8  1  0  0  0  0
  3 28  1  0  0  0  0
  5  9  1  0  0  0  0
  5 25  1  0  0  0  0
  5 29  1  6  0  0  0
  6  7  1  1  0  0  0
  6 11  1  0  0  0  0
  8 12  1  0  0  0  0
  9 10  1  6  0  0  0
  9 14  1  0  0  0  0
 11 16  1  0  0  0  0
 12 13  1  1  0  0  0
 12 17  1  0  0  0  0
 14 15  1  1  0  0  0
 14 18  1  0  0  0  0
 15 31  1  0  0  0  0
 16 20  1  0  0  0  0
 17  2  1  6  0  0  0
 17 22  1  0  0  0  0
 18 19  1  1  0  0  0
 18 24  1  0  0  0  0
 18 30  1  0  0  0  0
 20 21  1  0  0  0  0
 20 26  1  6  0  0  0
 22 23  1  1  0  0  0
 22 28  1  0  0  0  0
 24 25  1  0  0  0  0
 26 27  1  0  0  0  0
 28 29  1  6  0  0  0
M  END
>  <CHROM.1>
-162.78122232,-173.43527233,-96.25053788,61.94681237,-112.34112532,78.49226109
-0.93731013,-12.17625503,-14.31104766,0.85675533,0.17052379,-0.68147447

>  <Name>
ligand

>  <RI>
0

>  <Rbt.Current_Directory>
/home/itssahil/PROJECTS/Mol_Feturizer/New_Systems/rnas/4F8U

>  <Rbt.Executable>
rbdock ($Id: //depot/dev/client3/rdock/2013.1/src/exe/rbdock.cxx#4 $)

>  <Rbt.Library>
libRbt.so (2013.1, Build901 2013/11/27)

>  <Rbt.Parameter_File>
/export/apps/rDock/src/rDock_2013.1_src/data/scripts/dock_solv.prm

>  <Rbt.Receptor>
prm/pocket_docking_7.prm

>  <SCORE>
-10.6931

>  <SCORE.INTER>
-5.23794

>  <SCORE.INTER.CONST>
1

>  <SCORE.INTER.POLAR>
0

>  <SCORE.INTER.ROT>
6

>  <SCORE.INTER.SOLV>
10.1145

>  <SCORE.INTER.VDW>
-14.4635

>  <SCORE.INTER.norm>
-0.168966

>  <SCORE.INTRA>
-5.45514

>  <SCORE.INTRA.DIHEDRAL>
-13.0621

>  <SCORE.INTRA.DIHEDRAL.0>
18.77

>  <SCORE.INTRA.POLAR>
0

>  <SCORE.INTRA.POLAR.0>
0

>  <SCORE.INTRA.REPUL>
0

>  <SCORE.INTRA.REPUL.0>
0

>  <SCORE.INTRA.SOLV>
1.75916

>  <SCORE.INTRA.SOLV.lig_0>
-77.2465

>  <SCORE.INTRA.VDW>
0.196332

>  <SCORE.INTRA.VDW.0>
-4.16072

>  <SCORE.INTRA.norm>
-0.175972

>  <SCORE.RESTR>
0

>  <SCORE.RESTR.CAVITY>
0

>  <SCORE.RESTR.norm>
0

>  <SCORE.SYSTEM>
0

>  <SCORE.SYSTEM.CONST>
0

>  <SCORE.SYSTEM.DIHEDRAL>
0

>  <SCORE.SYSTEM.SOLV>
0

>  <SCORE.SYSTEM.norm>
0

>  <SCORE.heavy>
31

>  <SCORE.norm>
-0.344938

>  <RMSD>
6.055

$$$$
ligand
 OpenBabel11021811493D
libRbt.so/2013.1/901 2013/11/27
 31 33  0  0  0  0  0  0  0  0999 V2000
   -8.8282   -8.8222  -11.6286 C   0  0  2  0  0  0  0  0  0  0  0  0
   -7.4127   -9.0127  -11.7578 O   0  0  0  0  0  0  0  0  0  0  0  0
   -4.6026  -11.3330   -9.5121 C   0  0  2  0  0  0  0  0  0  0  0  0
   -3.9220  -12.4635   -8.9583 N   0  0  0  0  0  0  0  0  0  0  0  0
   -2.6619  -11.8177  -12.7514 C   0  0  2  0  0  0  0  0  0  0  0  0
   -9.4520   -9.1871  -13.0213 C   0  0  2  0  0  0  0  0  0  0  0  0
   -9.0966  -10.5566  -13.3764 N   0  0  0  0  0  0  0  0  0  0  0  0
   -6.1112  -11.3709   -9.0530 C   0  0  0  0  0  0  0  0  0  0  0  0
   -3.5046  -13.0928  -13.0633 C   0  0  2  0  0  0  0  0  0  0  0  0
   -4.8756  -12.7378  -13.1194 O   0  0  0  0  0  0  0  0  0  0  0  0
   -8.9423   -8.1812  -14.1114 C   0  0  0  0  0  0  0  0  0  0  0  0
   -6.8643  -10.1103   -9.6623 C   0  0  2  0  0  0  0  0  0  0  0  0
   -8.2839  -10.1362   -9.2388 N   0  0  0  0  0  0  0  0  0  0  0  0
   -3.2326  -14.1324  -11.8880 C   0  0  1  0  0  0  0  0  0  0  0  0
   -4.0359  -15.3854  -12.0922 N   0  0  0  0  0  0  0  0  0  0  0  0
   -9.0605   -6.7132  -13.6089 C   0  0  0  0  0  0  0  0  0  0  0  0
   -6.7610  -10.1459  -11.2519 C   0  0  2  0  0  0  0  0  0  0  0  0
   -1.6484  -14.5102  -11.8643 C   0  0  1  0  0  0  0  0  0  0  0  0
   -1.2241  -15.1002  -13.0779 O   0  0  0  0  0  0  0  0  0  0  0  0
   -9.1611   -6.4368  -12.3000 C   0  0  2  0  0  0  0  0  0  0  0  0
   -9.1719   -7.4482  -11.2775 O   0  0  0  0  0  0  0  0  0  0  0  0
   -5.2330  -10.1363  -11.6770 C   0  0  2  0  0  0  0  0  0  0  0  0
   -5.1260  -10.1928  -13.1051 O   0  0  0  0  0  0  0  0  0  0  0  0
   -0.8093  -13.2056  -11.6499 C   0  0  0  0  0  0  0  0  0  0  0  0
   -1.1971  -12.1668  -12.6888 O   0  0  0  0  0  0  0  0  0  0  0  0
   -9.2821   -4.9849  -11.7814 C   0  0  0  0  0  0  0  0  0  0  0  0
   -8.0235   -4.5797  -11.1713 N   0  0  0  0  0  0  0  0  0  0  0  0
   -4.5030  -11.3864  -11.0653 C   0  0  1  0  0  0  0  0  0  0  0  0
   -3.1525  -11.3400  -11.4592 O   0  0  0  0  0  0  0  0  0  0  0  0
   -1.2163  -15.5071  -10.7762 C   0  0  0  0  0  0  0  0  0  0  0  0
   -5.4812  -15.2894  -11.8126 C   0  0  0  0  0  0  0  0  0  0  0  0
  1  2  1  6  0  0  0
  1  6  1  0  0  0  0
  1 21  1  0  0  0  0
  3  4  1  1  0  0  0
  3  8  1  0  0  0  0
  3 28  1  0  0  0  0
  5  9  1  0  0  0  0
  5 25  1  0  0  0  0
  5 29  1  1  0  0  0
  6  7  1  6  0  0  0
  6 11  1  0  0  0  0
  8 12  1  0  0  0  0
  9 10  1  1  0  0  0
  9 14  1  0  0  0  0
 11 16  1  0  0  0  0
 12 13  1  6  0  0  0
 12 17  1  0  0  0  0
 14 15  1  6  0  0  0
 14 18  1  0  0  0  0
 15 31  1  0  0  0  0
 16 20  1  0  0  0  0
 17  2  1  6  0  0  0
 17 22  1  0  0  0  0
 18 19  1  6  0  0  0
 18 24  1  0  0  0  0
 18 30  1  0  0  0  0
 20 21  1  0  0  0  0
 20 26  1  6  0  0  0
 22 23  1  6  0  0  0
 22 28  1  0  0  0  0
 24 25  1  0  0  0  0
 26 27  1  0  0  0  0
 28 29  1  1  0  0  0
M  END
>  <CHROM.1>
-101.87337634,-37.40559224,-74.32875981,-66.26648711,-106.33580043,158.17935164
-5.54529311,-10.90605483,-11.75556532,3.04946658,0.80284163,-1.47002904

>  <Name>
ligand

>  <RI>
0

>  <Rbt.Current_Directory>
/home/itssahil/PROJECTS/Mol_Feturizer/New_Systems/rnas/4F8U

>  <Rbt.Executable>
rbdock ($Id: //depot/dev/client3/rdock/2013.1/src/exe/rbdock.cxx#4 $)

>  <Rbt.Library>
libRbt.so (2013.1, Build901 2013/11/27)

>  <Rbt.Parameter_File>
/export/apps/rDock/src/rDock_2013.1_src/data/scripts/dock_solv.prm

>  <Rbt.Receptor>
prm/blind_docking_40.prm

>  <SCORE>
36.8017

>  <SCORE.INTER>
25.8326

>  <SCORE.INTER.CONST>
1

>  <SCORE.INTER.POLAR>
0

>  <SCORE.INTER.ROT>
6

>  <SCORE.INTER.SOLV>
26.6991

>  <SCORE.INTER.VDW>
0.722049

>  <SCORE.INTER.norm>
0.833311

>  <SCORE.INTRA>
2.80275

>  <SCORE.INTRA.DIHEDRAL>
-6.45963

>  <SCORE.INTRA.DIHEDRAL.0>
18.77

>  <SCORE.INTRA.POLAR>
0

>  <SCORE.INTRA.POLAR.0>
0

>  <SCORE.INTRA.REPUL>
0

>  <SCORE.INTRA.REPUL.0>
0

>  <SCORE.INTRA.SOLV>
2.58536

>  <SCORE.INTRA.SOLV.lig_0>
-77.2465

>  <SCORE.INTRA.VDW>
4.73989

>  <SCORE.INTRA.VDW.0>
-4.16072

>  <SCORE.INTRA.norm>
0.0904113

>  <SCORE.RESTR>
8.16631

>  <SCORE.RESTR.CAVITY>
8.16631

>  <SCORE.RESTR.norm>
0.263429

>  <SCORE.SYSTEM>
0

>  <SCORE.SYSTEM.CONST>
0

>  <SCORE.SYSTEM.DIHEDRAL>
0

>  <SCORE.SYSTEM.SOLV>
0

>  <SCORE.SYSTEM.norm>
0

>  <SCORE.heavy>
31

>  <SCORE.norm>
1.18715

>  <RMSD>
6.090

$$$$
ligand
 OpenBabel11021811493D
libRbt.so/2013.1/901 2013/11/27
 31 33  0  0  0  0  0  0  0  0999 V2000
   -8.7898   -8.7718  -11.5580 C   0  0  2  0  0  0  0  0  0  0  0  0
   -7.3720   -8.9674  -11.6473 O   0  0  0  0  0  0  0  0  0  0  0  0
   -4.6795  -11.4812   -9.4667 C   0  0  2  0  0  0  0  0  0  0  0  0
   -4.0303  -12.6576   -8.9741 N   0  0  0  0  0  0  0  0  0  0  0  0
   -2.5901  -11.7386  -12.6359 C   0  0  2  0  0  0  0  0  0  0  0  0
   -9.3850   -9.2168  -12.9399 C   0  0  2  0  0  0  0  0  0  0  0  0
   -9.0223  -10.6039  -13.2086 N   0  0  0  0  0  0  0  0  0  0  0  0
   -6.2080  -11.5434   -9.0821 C   0  0  0  0  0  0  0  0  0  0  0  0
   -3.4110  -12.9936  -13.0653 C   0  0  2  0  0  0  0  0  0  0  0  0
   -4.7801  -12.6395  -13.1601 O   0  0  0  0  0  0  0  0  0  0  0  0
   -8.8535   -8.2744  -14.0753 C   0  0  0  0  0  0  0  0  0  0  0  0
   -6.9265  -10.2324   -9.6229 C   0  0  2  0  0  0  0  0  0  0  0  0
   -8.3643  -10.2804   -9.2687 N   0  0  0  0  0  0  0  0  0  0  0  0
   -3.1857  -14.1049  -11.9471 C   0  0  1  0  0  0  0  0  0  0  0  0
   -3.9722  -15.3447  -12.2659 N   0  0  0  0  0  0  0  0  0  0  0  0
   -8.9822   -6.7801  -13.6604 C   0  0  0  0  0  0  0  0  0  0  0  0
   -6.7494  -10.1424  -11.2039 C   0  0  2  0  0  0  0  0  0  0  0  0
   -1.6021  -14.4791  -11.8765 C   0  0  1  0  0  0  0  0  0  0  0  0
   -1.1209  -14.9897  -13.1047 O   0  0  0  0  0  0  0  0  0  0  0  0
   -9.1095   -6.4293  -12.3719 C   0  0  2  0  0  0  0  0  0  0  0  0
   -9.1409   -7.3804  -11.2934 O   0  0  0  0  0  0  0  0  0  0  0  0
   -5.2032  -10.1113  -11.5560 C   0  0  2  0  0  0  0  0  0  0  0  0
   -5.0302  -10.0550  -12.9776 O   0  0  0  0  0  0  0  0  0  0  0  0
   -0.7806  -13.1884  -11.5426 C   0  0  0  0  0  0  0  0  0  0  0  0
   -1.1276  -12.0869  -12.5300 O   0  0  0  0  0  0  0  0  0  0  0  0
   -9.2413   -4.9501  -11.9399 C   0  0  0  0  0  0  0  0  0  0  0  0
  -10.5490   -4.4435  -12.3318 N   0  0  0  0  0  0  0  0  0  0  0  0
   -4.5079  -11.4118  -11.0130 C   0  0  1  0  0  0  0  0  0  0  0  0
   -3.1404  -11.3451  -11.3393 O   0  0  0  0  0  0  0  0  0  0  0  0
   -1.2132  -15.5419  -10.8355 C   0  0  0  0  0  0  0  0  0  0  0  0
   -5.2685  -15.4928  -11.5776 C   0  0  0  0  0  0  0  0  0  0  0  0
  1  2  1  6  0  0  0
  1  6  1  0  0  0  0
  1 21  1  0  0  0  0
  3  4  1  6  0  0  0
  3  8  1  0  0  0  0
  3 28  1  0  0  0  0
  5  9  1  0  0  0  0
  5 25  1  0  0  0  0
  5 29  1  1  0  0  0
  6  7  1  6  0  0  0
  6 11  1  0  0  0  0
  8 12  1  0  0  0  0
  9 10  1  1  0  0  0
  9 14  1  0  0  0  0
 11 16  1  0  0  0  0
 12 13  1  6  0  0  0
 12 17  1  0  0  0  0
 14 15  1  6  0  0  0
 14 18  1  0  0  0  0
 15 31  1  0  0  0  0
 16 20  1  0  0  0  0
 17  2  1  1  0  0  0
 17 22  1  0  0  0  0
 18 19  1  6  0  0  0
 18 24  1  0  0  0  0
 18 30  1  0  0  0  0
 20 21  1  0  0  0  0
 20 26  1  6  0  0  0
 22 23  1  6  0  0  0
 22 28  1  0  0  0  0
 24 25  1  0  0  0  0
 26 27  1  0  0  0  0
 28 29  1  1  0  0  0
M  END
>  <CHROM.1>
-94.17665327,-37.84261052,-98.00855087,-65.71406242,71.19960502,157.37597642
-5.59028809,-10.91050297,-11.76278836,2.67576178,0.66024458,-0.94034106

>  <Name>
ligand

>  <RI>
0

>  <Rbt.Current_Directory>
/home/itssahil/PROJECTS/Mol_Feturizer/New_Systems/rnas/4F8U

>  <Rbt.Executable>
rbdock ($Id: //depot/dev/client3/rdock/2013.1/src/exe/rbdock.cxx#4 $)

>  <Rbt.Library>
libRbt.so (2013.1, Build901 2013/11/27)

>  <Rbt.Parameter_File>
/export/apps/rDock/src/rDock_2013.1_src/data/scripts/dock_solv.prm

>  <Rbt.Receptor>
prm/blind_docking_40.prm

>  <SCORE>
36.4639

>  <SCORE.INTER>
25.8588

>  <SCORE.INTER.CONST>
1

>  <SCORE.INTER.POLAR>
0

>  <SCORE.INTER.ROT>
6

>  <SCORE.INTER.SOLV>
20.0904

>  <SCORE.INTER.VDW>
2.94237

>  <SCORE.INTER.norm>
0.834154

>  <SCORE.INTRA>
2.79927

>  <SCORE.INTRA.DIHEDRAL>
-5.53505

>  <SCORE.INTRA.DIHEDRAL.0>
18.77

>  <SCORE.INTRA.POLAR>
0

>  <SCORE.INTRA.POLAR.0>
0

>  <SCORE.INTRA.REPUL>
0

>  <SCORE.INTRA.REPUL.0>
0

>  <SCORE.INTRA.SOLV>
3.14015

>  <SCORE.INTRA.SOLV.lig_0>
-77.2465

>  <SCORE.INTRA.VDW>
3.99672

>  <SCORE.INTRA.VDW.0>
-4.16072

>  <SCORE.INTRA.norm>
0.0902989

>  <SCORE.RESTR>
7.80583

>  <SCORE.RESTR.CAVITY>
7.80583

>  <SCORE.RESTR.norm>
0.251801

>  <SCORE.SYSTEM>
0

>  <SCORE.SYSTEM.CONST>
0

>  <SCORE.SYSTEM.DIHEDRAL>
0

>  <SCORE.SYSTEM.SOLV>
0

>  <SCORE.SYSTEM.norm>
0

>  <SCORE.heavy>
31

>  <SCORE.norm>
1.17625

>  <RMSD>
6.102

$$$$
ligand
 OpenBabel11021811493D
libRbt.so/2013.1/901 2013/11/27
 31 33  0  0  0  0  0  0  0  0999 V2000
   -8.8063   -8.7537  -11.5422 C   0  0  2  0  0  0  0  0  0  0  0  0
   -7.3987   -8.9847  -11.6903 O   0  0  0  0  0  0  0  0  0  0  0  0
   -4.7337  -11.4964   -9.4738 C   0  0  2  0  0  0  0  0  0  0  0  0
   -4.0906  -12.6723   -8.9721 N   0  0  0  0  0  0  0  0  0  0  0  0
   -2.6074  -11.7306  -12.6249 C   0  0  2  0  0  0  0  0  0  0  0  0
   -9.4673   -9.1661  -12.9041 C   0  0  2  0  0  0  0  0  0  0  0  0
   -9.1521  -10.5587  -13.2027 N   0  0  0  0  0  0  0  0  0  0  0  0
   -6.2670  -11.5586   -9.1086 C   0  0  0  0  0  0  0  0  0  0  0  0
   -3.4146  -12.9856  -13.0797 C   0  0  2  0  0  0  0  0  0  0  0  0
   -4.7858  -12.6413  -13.1800 O   0  0  0  0  0  0  0  0  0  0  0  0
   -8.9567   -8.2237  -14.0491 C   0  0  0  0  0  0  0  0  0  0  0  0
   -6.9787  -10.2481   -9.6595 C   0  0  2  0  0  0  0  0  0  0  0  0
   -8.4209  -10.2962   -9.3235 N   0  0  0  0  0  0  0  0  0  0  0  0
   -3.1888  -14.1119  -11.9767 C   0  0  1  0  0  0  0  0  0  0  0  0
   -3.9626  -15.3531  -12.3205 N   0  0  0  0  0  0  0  0  0  0  0  0
   -9.0295   -6.7319  -13.6125 C   0  0  0  0  0  0  0  0  0  0  0  0
   -6.7816  -10.1593  -11.2381 C   0  0  2  0  0  0  0  0  0  0  0  0
   -1.6028  -14.4743  -11.8993 C   0  0  1  0  0  0  0  0  0  0  0  0
   -1.1078  -14.9623  -13.1314 O   0  0  0  0  0  0  0  0  0  0  0  0
   -9.0963   -6.3938  -12.3160 C   0  0  2  0  0  0  0  0  0  0  0  0
   -9.1099   -7.3571  -11.2480 O   0  0  0  0  0  0  0  0  0  0  0  0
   -5.2311  -10.1282  -11.5707 C   0  0  2  0  0  0  0  0  0  0  0  0
   -5.0400  -10.0729  -12.9900 O   0  0  0  0  0  0  0  0  0  0  0  0
   -0.7946  -13.1822  -11.5394 C   0  0  0  0  0  0  0  0  0  0  0  0
   -1.1430  -12.0687  -12.5127 O   0  0  0  0  0  0  0  0  0  0  0  0
   -9.1719   -4.9172  -11.8625 C   0  0  0  0  0  0  0  0  0  0  0  0
  -10.2711   -4.2531  -12.5489 N   0  0  0  0  0  0  0  0  0  0  0  0
   -4.5425  -11.4282  -11.0179 C   0  0  1  0  0  0  0  0  0  0  0  0
   -3.1710  -11.3615  -11.3268 O   0  0  0  0  0  0  0  0  0  0  0  0
   -1.2132  -15.5496  -10.8715 C   0  0  0  0  0  0  0  0  0  0  0  0
   -5.2729  -15.5113  -11.6615 C   0  0  0  0  0  0  0  0  0  0  0  0
  1  2  1  6  0  0  0
  1  6  1  0  0  0  0
  1 21  1  0  0  0  0
  3  4  1  6  0  0  0
  3  8  1  0  0  0  0
  3 28  1  0  0  0  0
  5  9  1  0  0  0  0
  5 25  1  0  0  0  0
  5 29  1  1  0  0  0
  6  7  1  6  0  0  0
  6 11  1  0  0  0  0
  8 12  1  0  0  0  0
  9 10  1  1  0  0  0
  9 14  1  0  0  0  0
 11 16  1  0  0  0  0
 12 13  1  6  0  0  0
 12 17  1  0  0  0  0
 14 15  1  6  0  0  0
 14 18  1  0  0  0  0
 15 31  1  0  0  0  0
 16 20  1  0  0  0  0
 17  2  1  1  0  0  0
 17 22  1  0  0  0  0
 18 19  1  6  0  0  0
 18 24  1  0  0  0  0
 18 30  1  0  0  0  0
 20 21  1  0  0  0  0
 20 26  1  6  0  0  0
 22 23  1  6  0  0  0
 22 28  1  0  0  0  0
 24 25  1  0  0  0  0
 26 27  1  0  0  0  0
 28 29  1  1  0  0  0
M  END
>  <CHROM.1>
-96.72197368,-38.68235127,-97.04297331,-61.67076714,53.29380731,158.64216165
-5.60495759,-10.89951675,-11.77529259,2.62172963,0.62939562,-0.85393752

>  <Name>
ligand

>  <RI>
0

>  <Rbt.Current_Directory>
/home/itssahil/PROJECTS/Mol_Feturizer/New_Systems/rnas/4F8U

>  <Rbt.Executable>
rbdock ($Id: //depot/dev/client3/rdock/2013.1/src/exe/rbdock.cxx#4 $)

>  <Rbt.Library>
libRbt.so (2013.1, Build901 2013/11/27)

>  <Rbt.Parameter_File>
/export/apps/rDock/src/rDock_2013.1_src/data/scripts/dock_solv.prm

>  <Rbt.Receptor>
prm/blind_docking_40.prm

>  <SCORE>
35.9589

>  <SCORE.INTER>
24.9342

>  <SCORE.INTER.CONST>
1

>  <SCORE.INTER.POLAR>
0

>  <SCORE.INTER.ROT>
6

>  <SCORE.INTER.SOLV>
20.691

>  <SCORE.INTER.VDW>
2.12577

>  <SCORE.INTER.norm>
0.804328

>  <SCORE.INTRA>
3.12481

>  <SCORE.INTRA.DIHEDRAL>
-5.5104

>  <SCORE.INTRA.DIHEDRAL.0>
18.77

>  <SCORE.INTRA.POLAR>
0

>  <SCORE.INTRA.POLAR.0>
0

>  <SCORE.INTRA.REPUL>
0

>  <SCORE.INTRA.REPUL.0>
0

>  <SCORE.INTRA.SOLV>
3.03449

>  <SCORE.INTRA.SOLV.lig_0>
-77.2465

>  <SCORE.INTRA.VDW>
4.36277

>  <SCORE.INTRA.VDW.0>
-4.16072

>  <SCORE.INTRA.norm>
0.1008

>  <SCORE.RESTR>
7.89994

>  <SCORE.RESTR.CAVITY>
7.89994

>  <SCORE.RESTR.norm>
0.254837

>  <SCORE.SYSTEM>
0

>  <SCORE.SYSTEM.CONST>
0

>  <SCORE.SYSTEM.DIHEDRAL>
0

>  <SCORE.SYSTEM.SOLV>
0

>  <SCORE.SYSTEM.norm>
0

>  <SCORE.heavy>
31

>  <SCORE.norm>
1.15997

>  <RMSD>
6.105

$$$$
ligand
 OpenBabel11021811493D
libRbt.so/2013.1/901 2013/11/27
 31 33  0  0  0  0  0  0  0  0999 V2000
   -7.9918   -6.9262  -12.8905 C   0  0  2  0  0  0  0  0  0  0  0  0
   -7.9258   -7.5244  -11.5888 O   0  0  0  0  0  0  0  0  0  0  0  0
   -7.7111  -11.3994   -9.7828 C   0  0  2  0  0  0  0  0  0  0  0  0
   -7.9679  -12.7825   -9.5198 N   0  0  0  0  0  0  0  0  0  0  0  0
   -5.0341  -12.2213  -10.2554 C   0  0  2  0  0  0  0  0  0  0  0  0
   -9.4595   -6.3976  -13.0598 C   0  0  2  0  0  0  0  0  0  0  0  0
   -9.7705   -5.4566  -11.9895 N   0  0  0  0  0  0  0  0  0  0  0  0
   -9.0548  -10.5904   -9.6151 C   0  0  0  0  0  0  0  0  0  0  0  0
   -3.6682  -11.6237  -10.7139 C   0  0  2  0  0  0  0  0  0  0  0  0
   -3.8288  -10.2362  -10.9548 O   0  0  0  0  0  0  0  0  0  0  0  0
  -10.4627   -7.6031  -13.0476 C   0  0  0  0  0  0  0  0  0  0  0  0
   -8.7666   -9.0531   -9.8998 C   0  0  2  0  0  0  0  0  0  0  0  0
  -10.0230   -8.2829   -9.7467 N   0  0  0  0  0  0  0  0  0  0  0  0
   -3.2464  -12.3884  -12.0456 C   0  0  1  0  0  0  0  0  0  0  0  0
   -1.9492  -11.8493  -12.5783 N   0  0  0  0  0  0  0  0  0  0  0  0
   -9.9725   -8.7413  -13.9887 C   0  0  0  0  0  0  0  0  0  0  0  0
   -8.1911   -8.8842  -11.3759 C   0  0  2  0  0  0  0  0  0  0  0  0
   -3.0729  -13.9747  -11.7192 C   0  0  1  0  0  0  0  0  0  0  0  0
   -2.0760  -14.2112  -10.7439 O   0  0  0  0  0  0  0  0  0  0  0  0
   -8.6883   -8.8184  -14.3691 C   0  0  2  0  0  0  0  0  0  0  0  0
   -7.6832   -7.8775  -13.9530 O   0  0  0  0  0  0  0  0  0  0  0  0
   -6.8585   -9.7326  -11.5180 C   0  0  2  0  0  0  0  0  0  0  0  0
   -6.3437   -9.6084  -12.8497 O   0  0  0  0  0  0  0  0  0  0  0  0
   -4.4246  -14.5391  -11.1654 C   0  0  0  0  0  0  0  0  0  0  0  0
   -4.8909  -13.6978   -9.9892 O   0  0  0  0  0  0  0  0  0  0  0  0
   -8.1825   -9.9402  -15.3058 C   0  0  0  0  0  0  0  0  0  0  0  0
   -7.8267   -9.3713  -16.5982 N   0  0  0  0  0  0  0  0  0  0  0  0
   -7.1598  -11.2481  -11.2315 C   0  0  1  0  0  0  0  0  0  0  0  0
   -5.9559  -11.9653  -11.3616 O   0  0  0  0  0  0  0  0  0  0  0  0
   -2.6692  -14.8607  -12.9093 C   0  0  0  0  0  0  0  0  0  0  0  0
   -1.9930  -10.4944  -13.1601 C   0  0  0  0  0  0  0  0  0  0  0  0
  1  2  1  1  0  0  0
  1  6  1  0  0  0  0
  1 21  1  0  0  0  0
  3  4  1  6  0  0  0
  3  8  1  0  0  0  0
  3 28  1  0  0  0  0
  5  9  1  0  0  0  0
  5 25  1  0  0  0  0
  5 29  1  6  0  0  0
  6  7  1  1  0  0  0
  6 11  1  0  0  0  0
  8 12  1  0  0  0  0
  9 10  1  6  0  0  0
  9 14  1  0  0  0  0
 11 16  1  0  0  0  0
 12 13  1  6  0  0  0
 12 17  1  0  0  0  0
 14 15  1  1  0  0  0
 14 18  1  0  0  0  0
 15 31  1  0  0  0  0
 16 20  1  0  0  0  0
 17  2  1  1  0  0  0
 17 22  1  0  0  0  0
 18 19  1  1  0  0  0
 18 24  1  0  0  0  0
 18 30  1  0  0  0  0
 20 21  1  0  0  0  0
 20 26  1  6  0  0  0
 22 23  1  6  0  0  0
 22 28  1  0  0  0  0
 24 25  1  0  0  0  0
 26 27  1  0  0  0  0
 28 29  1  1  0  0  0
M  END
>  <CHROM.1>
91.12524006,-122.86883446,-70.80962954,-150.90251544,111.00141000,-28.32072458
-6.49681138,-10.41463955,-11.93922164,-2.62811887,-0.59363425,2.12860669

>  <Name>
ligand

>  <RI>
0

>  <Rbt.Current_Directory>
/home/itssahil/PROJECTS/Mol_Feturizer/New_Systems/rnas/4F8U

>  <Rbt.Executable>
rbdock ($Id: //depot/dev/client3/rdock/2013.1/src/exe/rbdock.cxx#4 $)

>  <Rbt.Library>
libRbt.so (2013.1, Build901 2013/11/27)

>  <Rbt.Parameter_File>
/export/apps/rDock/src/rDock_2013.1_src/data/scripts/dock_solv.prm

>  <Rbt.Receptor>
prm/blind_docking_40.prm

>  <SCORE>
18.2573

>  <SCORE.INTER>
3.45026

>  <SCORE.INTER.CONST>
1

>  <SCORE.INTER.POLAR>
0

>  <SCORE.INTER.ROT>
6

>  <SCORE.INTER.SOLV>
17.5576

>  <SCORE.INTER.VDW>
-11.1524

>  <SCORE.INTER.norm>
0.111299

>  <SCORE.INTRA>
4.54462

>  <SCORE.INTRA.DIHEDRAL>
1.42502

>  <SCORE.INTRA.DIHEDRAL.0>
18.77

>  <SCORE.INTRA.POLAR>
0

>  <SCORE.INTRA.POLAR.0>
0

>  <SCORE.INTRA.REPUL>
0

>  <SCORE.INTRA.REPUL.0>
0

>  <SCORE.INTRA.SOLV>
2.53076

>  <SCORE.INTRA.SOLV.lig_0>
-77.2465

>  <SCORE.INTRA.VDW>
2.56673

>  <SCORE.INTRA.VDW.0>
-4.16072

>  <SCORE.INTRA.norm>
0.146601

>  <SCORE.RESTR>
10.2625

>  <SCORE.RESTR.CAVITY>
10.2625

>  <SCORE.RESTR.norm>
0.331047

>  <SCORE.SYSTEM>
0

>  <SCORE.SYSTEM.CONST>
0

>  <SCORE.SYSTEM.DIHEDRAL>
0

>  <SCORE.SYSTEM.SOLV>
0

>  <SCORE.SYSTEM.norm>
0

>  <SCORE.heavy>
31

>  <SCORE.norm>
0.588946

>  <RMSD>
6.139

$$$$
ligand
 OpenBabel11021811493D
libRbt.so/2013.1/901 2013/11/27
 31 33  0  0  0  0  0  0  0  0999 V2000
   -5.2032   -6.0079  -21.6683 C   0  0  2  0  0  0  0  0  0  0  0  0
   -6.2992   -6.9051  -21.8927 O   0  0  0  0  0  0  0  0  0  0  0  0
   -7.6348  -10.5434  -20.0754 C   0  0  2  0  0  0  0  0  0  0  0  0
   -7.6559  -11.9062  -19.6389 N   0  0  0  0  0  0  0  0  0  0  0  0
   -5.5956   -9.2055  -17.1091 C   0  0  2  0  0  0  0  0  0  0  0  0
   -5.7014   -4.5848  -22.1027 C   0  0  2  0  0  0  0  0  0  0  0  0
   -6.8910   -4.2252  -21.3390 N   0  0  0  0  0  0  0  0  0  0  0  0
   -7.5200  -10.5135  -21.6482 C   0  0  0  0  0  0  0  0  0  0  0  0
   -4.2904  -10.0528  -17.2175 C   0  0  2  0  0  0  0  0  0  0  0  0
   -3.8300  -10.0224  -18.5576 O   0  0  0  0  0  0  0  0  0  0  0  0
   -6.0059   -4.5756  -23.6412 C   0  0  0  0  0  0  0  0  0  0  0  0
   -7.5047   -8.9994  -22.1325 C   0  0  2  0  0  0  0  0  0  0  0  0
   -7.3954   -8.9587  -23.6095 N   0  0  0  0  0  0  0  0  0  0  0  0
   -4.6584  -11.5376  -16.7747 C   0  0  1  0  0  0  0  0  0  0  0  0
   -3.4584  -12.4353  -16.8813 N   0  0  0  0  0  0  0  0  0  0  0  0
   -4.8411   -5.2281  -24.4404 C   0  0  0  0  0  0  0  0  0  0  0  0
   -6.2727   -8.2401  -21.4660 C   0  0  2  0  0  0  0  0  0  0  0  0
   -5.1794  -11.5218  -15.2316 C   0  0  1  0  0  0  0  0  0  0  0  0
   -4.1947  -11.0310  -14.3426 O   0  0  0  0  0  0  0  0  0  0  0  0
   -3.9631   -6.0450  -23.8391 C   0  0  2  0  0  0  0  0  0  0  0  0
   -4.0206   -6.3748  -22.4403 O   0  0  0  0  0  0  0  0  0  0  0  0
   -6.4044   -8.3148  -19.8871 C   0  0  2  0  0  0  0  0  0  0  0  0
   -5.2884   -7.6559  -19.2752 O   0  0  0  0  0  0  0  0  0  0  0  0
   -6.4313  -10.5879  -15.1185 C   0  0  0  0  0  0  0  0  0  0  0  0
   -6.1061   -9.2186  -15.6912 O   0  0  0  0  0  0  0  0  0  0  0  0
   -2.7974   -6.7008  -24.6155 C   0  0  0  0  0  0  0  0  0  0  0  0
   -3.1260   -8.0895  -24.9050 N   0  0  0  0  0  0  0  0  0  0  0  0
   -6.4203   -9.8168  -19.4253 C   0  0  1  0  0  0  0  0  0  0  0  0
   -6.5433   -9.8419  -18.0234 O   0  0  0  0  0  0  0  0  0  0  0  0
   -5.5822  -12.8868  -14.6492 C   0  0  0  0  0  0  0  0  0  0  0  0
   -3.3423  -13.2287  -18.1196 C   0  0  0  0  0  0  0  0  0  0  0  0
  1  2  1  6  0  0  0
  1  6  1  0  0  0  0
  1 21  1  0  0  0  0
  3  4  1  1  0  0  0
  3  8  1  0  0  0  0
  3 28  1  0  0  0  0
  5  9  1  0  0  0  0
  5 25  1  0  0  0  0
  5 29  1  6  0  0  0
  6  7  1  1  0  0  0
  6 11  1  0  0  0  0
  8 12  1  0  0  0  0
  9 10  1  6  0  0  0
  9 14  1  0  0  0  0
 11 16  1  0  0  0  0
 12 13  1  6  0  0  0
 12 17  1  0  0  0  0
 14 15  1  1  0  0  0
 14 18  1  0  0  0  0
 15 31  1  0  0  0  0
 16 20  1  0  0  0  0
 17  2  1  6  0  0  0
 17 22  1  0  0  0  0
 18 19  1  1  0  0  0
 18 24  1  0  0  0  0
 18 30  1  0  0  0  0
 20 21  1  0  0  0  0
 20 26  1  1  0  0  0
 22 23  1  1  0  0  0
 22 28  1  0  0  0  0
 24 25  1  0  0  0  0
 26 27  1  0  0  0  0
 28 29  1  1  0  0  0
M  END
>  <CHROM.1>
-172.11522927,-69.59232323,-96.39015334,-168.77619965,-102.10271177,-177.71723021
-5.46841126,-8.89122687,-19.82101455,1.59111328,1.33128140,-0.96135399

>  <Name>
ligand

>  <RI>
0

>  <Rbt.Current_Directory>
/home/itssahil/PROJECTS/Mol_Feturizer/New_Systems/rnas/4F8U

>  <Rbt.Executable>
rbdock ($Id: //depot/dev/client3/rdock/2013.1/src/exe/rbdock.cxx#4 $)

>  <Rbt.Library>
libRbt.so (2013.1, Build901 2013/11/27)

>  <Rbt.Parameter_File>
/export/apps/rDock/src/rDock_2013.1_src/data/scripts/dock_solv.prm

>  <Rbt.Receptor>
prm/pocket_docking_6.prm

>  <SCORE>
-12.6314

>  <SCORE.INTER>
-6.09831

>  <SCORE.INTER.CONST>
1

>  <SCORE.INTER.POLAR>
0

>  <SCORE.INTER.ROT>
6

>  <SCORE.INTER.SOLV>
16.8974

>  <SCORE.INTER.VDW>
-17.298

>  <SCORE.INTER.norm>
-0.19672

>  <SCORE.INTRA>
-6.53313

>  <SCORE.INTRA.DIHEDRAL>
-14.5217

>  <SCORE.INTRA.DIHEDRAL.0>
18.77

>  <SCORE.INTRA.POLAR>
0

>  <SCORE.INTRA.POLAR.0>
0

>  <SCORE.INTRA.REPUL>
0

>  <SCORE.INTRA.REPUL.0>
0

>  <SCORE.INTRA.SOLV>
-2.24333

>  <SCORE.INTRA.SOLV.lig_0>
-77.2465

>  <SCORE.INTRA.VDW>
1.8494

>  <SCORE.INTRA.VDW.0>
-4.16072

>  <SCORE.INTRA.norm>
-0.210746

>  <SCORE.RESTR>
0

>  <SCORE.RESTR.CAVITY>
0

>  <SCORE.RESTR.norm>
0

>  <SCORE.SYSTEM>
0

>  <SCORE.SYSTEM.CONST>
0

>  <SCORE.SYSTEM.DIHEDRAL>
0

>  <SCORE.SYSTEM.SOLV>
0

>  <SCORE.SYSTEM.norm>
0

>  <SCORE.heavy>
31

>  <SCORE.norm>
-0.407466

>  <RMSD>
6.190

$$$$
ligand
 OpenBabel11021811493D
libRbt.so/2013.1/901 2013/11/27
 31 33  0  0  0  0  0  0  0  0999 V2000
   -6.4778   -7.9124  -22.1893 C   0  0  2  0  0  0  0  0  0  0  0  0
   -7.3118   -8.6013  -21.2478 O   0  0  0  0  0  0  0  0  0  0  0  0
   -8.0914  -12.6495  -20.0956 C   0  0  2  0  0  0  0  0  0  0  0  0
   -7.8708  -14.0072  -19.7007 N   0  0  0  0  0  0  0  0  0  0  0  0
   -7.9393  -13.1318  -16.9831 C   0  0  2  0  0  0  0  0  0  0  0  0
   -5.2297   -7.4049  -21.3851 C   0  0  2  0  0  0  0  0  0  0  0  0
   -4.5563   -8.5356  -20.7558 N   0  0  0  0  0  0  0  0  0  0  0  0
   -7.4097  -12.4090  -21.4976 C   0  0  0  0  0  0  0  0  0  0  0  0
   -8.7968  -12.9020  -15.7005 C   0  0  2  0  0  0  0  0  0  0  0  0
  -10.1487  -12.7049  -16.0781 O   0  0  0  0  0  0  0  0  0  0  0  0
   -5.6817   -6.3587  -20.3077 C   0  0  0  0  0  0  0  0  0  0  0  0
   -7.6622  -10.9027  -21.9388 C   0  0  2  0  0  0  0  0  0  0  0  0
   -7.0245  -10.6644  -23.2547 N   0  0  0  0  0  0  0  0  0  0  0  0
   -8.2139  -11.6107  -14.9732 C   0  0  1  0  0  0  0  0  0  0  0  0
   -9.0074  -11.2952  -13.7371 N   0  0  0  0  0  0  0  0  0  0  0  0
   -6.6413   -5.3030  -20.9291 C   0  0  0  0  0  0  0  0  0  0  0  0
   -7.0539   -9.9184  -20.8434 C   0  0  2  0  0  0  0  0  0  0  0  0
   -6.6630  -11.8851  -14.5582 C   0  0  1  0  0  0  0  0  0  0  0  0
   -6.5351  -12.9814  -13.6734 O   0  0  0  0  0  0  0  0  0  0  0  0
   -7.2930   -5.5515  -22.0751 C   0  0  2  0  0  0  0  0  0  0  0  0
   -7.1600   -6.7812  -22.8091 O   0  0  0  0  0  0  0  0  0  0  0  0
   -7.7394  -10.2070  -19.4425 C   0  0  2  0  0  0  0  0  0  0  0  0
   -7.1830   -9.3440  -18.4428 O   0  0  0  0  0  0  0  0  0  0  0  0
   -5.8339  -12.2126  -15.8456 C   0  0  0  0  0  0  0  0  0  0  0  0
   -6.4952  -13.3474  -16.6096 O   0  0  0  0  0  0  0  0  0  0  0  0
   -8.2487   -4.5143  -22.7097 C   0  0  0  0  0  0  0  0  0  0  0  0
   -8.0605   -4.4989  -24.1536 N   0  0  0  0  0  0  0  0  0  0  0  0
   -7.4827  -11.6993  -19.0222 C   0  0  1  0  0  0  0  0  0  0  0  0
   -8.1088  -11.9178  -17.7808 O   0  0  0  0  0  0  0  0  0  0  0  0
   -5.9478  -10.7256  -13.8452 C   0  0  0  0  0  0  0  0  0  0  0  0
   -9.6708   -9.9780  -13.7034 C   0  0  0  0  0  0  0  0  0  0  0  0
  1  2  1  1  0  0  0
  1  6  1  0  0  0  0
  1 21  1  0  0  0  0
  3  4  1  1  0  0  0
  3  8  1  0  0  0  0
  3 28  1  0  0  0  0
  5  9  1  0  0  0  0
  5 25  1  0  0  0  0
  5 29  1  6  0  0  0
  6  7  1  1  0  0  0
  6 11  1  0  0  0  0
  8 12  1  0  0  0  0
  9 10  1  6  0  0  0
  9 14  1  0  0  0  0
 11 16  1  0  0  0  0
 12 13  1  6  0  0  0
 12 17  1  0  0  0  0
 14 15  1  1  0  0  0
 14 18  1  0  0  0  0
 15 31  1  0  0  0  0
 16 20  1  0  0  0  0
 17  2  1  6  0  0  0
 17 22  1  0  0  0  0
 18 19  1  1  0  0  0
 18 24  1  0  0  0  0
 18 30  1  0  0  0  0
 20 21  1  0  0  0  0
 20 26  1  6  0  0  0
 22 23  1  1  0  0  0
 22 28  1  0  0  0  0
 24 25  1  0  0  0  0
 26 27  1  0  0  0  0
 28 29  1  1  0  0  0
M  END
>  <CHROM.1>
-80.02350897,179.04998738,-119.52536512,-82.92099291,139.17796526,69.38966252
-7.34945542,-10.07233510,-18.86746374,0.39467676,-1.47456986,-2.08017454

>  <Name>
ligand

>  <RI>
0

>  <Rbt.Current_Directory>
/home/itssahil/PROJECTS/Mol_Feturizer/New_Systems/rnas/4F8U

>  <Rbt.Executable>
rbdock ($Id: //depot/dev/client3/rdock/2013.1/src/exe/rbdock.cxx#4 $)

>  <Rbt.Library>
libRbt.so (2013.1, Build901 2013/11/27)

>  <Rbt.Parameter_File>
/export/apps/rDock/src/rDock_2013.1_src/data/scripts/dock_solv.prm

>  <Rbt.Receptor>
prm/pocket_docking_5.prm

>  <SCORE>
-12.5652

>  <SCORE.INTER>
-8.73428

>  <SCORE.INTER.CONST>
1

>  <SCORE.INTER.POLAR>
0

>  <SCORE.INTER.ROT>
6

>  <SCORE.INTER.SOLV>
17.1996

>  <SCORE.INTER.VDW>
-19.156

>  <SCORE.INTER.norm>
-0.281751

>  <SCORE.INTRA>
-3.88538

>  <SCORE.INTRA.DIHEDRAL>
-10.9125

>  <SCORE.INTRA.DIHEDRAL.0>
18.77

>  <SCORE.INTRA.POLAR>
0

>  <SCORE.INTRA.POLAR.0>
0

>  <SCORE.INTRA.REPUL>
0

>  <SCORE.INTRA.REPUL.0>
0

>  <SCORE.INTRA.SOLV>
1.48089

>  <SCORE.INTRA.SOLV.lig_0>
-77.2465

>  <SCORE.INTRA.VDW>
0.830449

>  <SCORE.INTRA.VDW.0>
-4.16072

>  <SCORE.INTRA.norm>
-0.125335

>  <SCORE.RESTR>
0.054485

>  <SCORE.RESTR.CAVITY>
0.054485

>  <SCORE.RESTR.norm>
0.00175758

>  <SCORE.SYSTEM>
0

>  <SCORE.SYSTEM.CONST>
0

>  <SCORE.SYSTEM.DIHEDRAL>
0

>  <SCORE.SYSTEM.SOLV>
0

>  <SCORE.SYSTEM.norm>
0

>  <SCORE.heavy>
31

>  <SCORE.norm>
-0.405328

>  <RMSD>
6.217

$$$$
ligand
 OpenBabel11021811493D
libRbt.so/2013.1/901 2013/11/27
 31 33  0  0  0  0  0  0  0  0999 V2000
   -9.5700   -8.6270  -12.5171 C   0  0  2  0  0  0  0  0  0  0  0  0
   -8.1548   -8.8582  -12.4969 O   0  0  0  0  0  0  0  0  0  0  0  0
   -5.3506  -10.1693   -9.5404 C   0  0  2  0  0  0  0  0  0  0  0  0
   -4.7103  -10.9863   -8.5553 N   0  0  0  0  0  0  0  0  0  0  0  0
   -3.0529  -11.8588  -10.4857 C   0  0  2  0  0  0  0  0  0  0  0  0
   -9.8855   -7.9390  -13.8916 C   0  0  2  0  0  0  0  0  0  0  0  0
   -9.4375   -8.7945  -14.9848 N   0  0  0  0  0  0  0  0  0  0  0  0
   -6.8189   -9.8491   -9.0612 C   0  0  0  0  0  0  0  0  0  0  0  0
   -1.8741  -12.1916  -11.4516 C   0  0  2  0  0  0  0  0  0  0  0  0
   -1.3820  -10.9863  -12.0119 O   0  0  0  0  0  0  0  0  0  0  0  0
   -9.1819   -6.5389  -13.9585 C   0  0  0  0  0  0  0  0  0  0  0  0
   -7.5265   -8.9350  -10.1525 C   0  0  2  0  0  0  0  0  0  0  0  0
   -8.9081   -8.6288   -9.7136 N   0  0  0  0  0  0  0  0  0  0  0  0
   -2.4530  -13.1515  -12.5828 C   0  0  1  0  0  0  0  0  0  0  0  0
   -1.3853  -13.4976  -13.5816 N   0  0  0  0  0  0  0  0  0  0  0  0
   -9.4303   -5.7311  -12.6519 C   0  0  0  0  0  0  0  0  0  0  0  0
   -7.5471   -9.6964  -11.5520 C   0  0  2  0  0  0  0  0  0  0  0  0
   -3.0037  -14.5201  -11.8924 C   0  0  1  0  0  0  0  0  0  0  0  0
   -1.9824  -15.2179  -11.2060 O   0  0  0  0  0  0  0  0  0  0  0  0
   -9.8043   -6.3461  -11.5199 C   0  0  2  0  0  0  0  0  0  0  0  0
  -10.0059   -7.7669  -11.4220 O   0  0  0  0  0  0  0  0  0  0  0  0
   -6.0589  -10.0283  -11.9888 C   0  0  2  0  0  0  0  0  0  0  0  0
   -6.0650  -10.7355  -13.2354 O   0  0  0  0  0  0  0  0  0  0  0  0
   -4.1179  -14.1618  -10.8520 C   0  0  0  0  0  0  0  0  0  0  0  0
   -3.5941  -13.1248   -9.8726 O   0  0  0  0  0  0  0  0  0  0  0  0
  -10.0585   -5.5606  -10.2122 C   0  0  0  0  0  0  0  0  0  0  0  0
  -11.4919   -5.4001  -10.0118 N   0  0  0  0  0  0  0  0  0  0  0  0
   -5.3734  -10.9298  -10.8993 C   0  0  1  0  0  0  0  0  0  0  0  0
   -4.0568  -11.1977  -11.3188 O   0  0  0  0  0  0  0  0  0  0  0  0
   -3.6038  -15.5584  -12.8548 C   0  0  0  0  0  0  0  0  0  0  0  0
   -0.1556  -14.1071  -13.0408 C   0  0  0  0  0  0  0  0  0  0  0  0
  1  2  1  1  0  0  0
  1  6  1  0  0  0  0
  1 21  1  0  0  0  0
  3  4  1  1  0  0  0
  3  8  1  0  0  0  0
  3 28  1  0  0  0  0
  5  9  1  0  0  0  0
  5 25  1  0  0  0  0
  5 29  1  6  0  0  0
  6  7  1  6  0  0  0
  6 11  1  0  0  0  0
  8 12  1  0  0  0  0
  9 10  1  6  0  0  0
  9 14  1  0  0  0  0
 11 16  1  0  0  0  0
 12 13  1  1  0  0  0
 12 17  1  0  0  0  0
 14 15  1  6  0  0  0
 14 18  1  0  0  0  0
 15 31  1  0  0  0  0
 16 20  1  0  0  0  0
 17  2  1  6  0  0  0
 17 22  1  0  0  0  0
 18 19  1  1  0  0  0
 18 24  1  0  0  0  0
 18 30  1  0  0  0  0
 20 21  1  0  0  0  0
 20 26  1  6  0  0  0
 22 23  1  6  0  0  0
 22 28  1  0  0  0  0
 24 25  1  0  0  0  0
 26 27  1  0  0  0  0
 28 29  1  6  0  0  0
M  END
>  <CHROM.1>
-166.68552445,168.87262905,55.83460820,-74.22719692,101.82092607,52.43576205
-5.95963447,-10.39316874,-11.60620547,3.06315265,-0.71924400,1.45581915

>  <Name>
ligand

>  <RI>
0

>  <Rbt.Current_Directory>
/home/itssahil/PROJECTS/Mol_Feturizer/New_Systems/rnas/4F8U

>  <Rbt.Executable>
rbdock ($Id: //depot/dev/client3/rdock/2013.1/src/exe/rbdock.cxx#4 $)

>  <Rbt.Library>
libRbt.so (2013.1, Build901 2013/11/27)

>  <Rbt.Parameter_File>
/export/apps/rDock/src/rDock_2013.1_src/data/scripts/dock_solv.prm

>  <Rbt.Receptor>
prm/blind_docking_40.prm

>  <SCORE>
20.348

>  <SCORE.INTER>
8.68649

>  <SCORE.INTER.CONST>
1

>  <SCORE.INTER.POLAR>
0

>  <SCORE.INTER.ROT>
6

>  <SCORE.INTER.SOLV>
20.9797

>  <SCORE.INTER.VDW>
-8.80223

>  <SCORE.INTER.norm>
0.280209

>  <SCORE.INTRA>
2.04737

>  <SCORE.INTRA.DIHEDRAL>
-14.0011

>  <SCORE.INTRA.DIHEDRAL.0>
18.77

>  <SCORE.INTRA.POLAR>
0

>  <SCORE.INTRA.POLAR.0>
0

>  <SCORE.INTRA.REPUL>
0

>  <SCORE.INTRA.REPUL.0>
0

>  <SCORE.INTRA.SOLV>
3.22304

>  <SCORE.INTRA.SOLV.lig_0>
-77.2465

>  <SCORE.INTRA.VDW>
7.4364

>  <SCORE.INTRA.VDW.0>
-4.16072

>  <SCORE.INTRA.norm>
0.0660441

>  <SCORE.RESTR>
9.61419

>  <SCORE.RESTR.CAVITY>
9.61419

>  <SCORE.RESTR.norm>
0.310135

>  <SCORE.SYSTEM>
0

>  <SCORE.SYSTEM.CONST>
0

>  <SCORE.SYSTEM.DIHEDRAL>
0

>  <SCORE.SYSTEM.SOLV>
0

>  <SCORE.SYSTEM.norm>
0

>  <SCORE.heavy>
31

>  <SCORE.norm>
0.656389

>  <RMSD>
6.240

$$$$
ligand
 OpenBabel11021811493D
libRbt.so/2013.1/901 2013/11/27
 31 33  0  0  0  0  0  0  0  0999 V2000
   -9.5498   -8.8968  -12.6117 C   0  0  2  0  0  0  0  0  0  0  0  0
   -8.1390   -9.1481  -12.5561 O   0  0  0  0  0  0  0  0  0  0  0  0
   -5.2211  -10.4204   -9.6941 C   0  0  2  0  0  0  0  0  0  0  0  0
   -4.5963  -11.1612   -8.6411 N   0  0  0  0  0  0  0  0  0  0  0  0
   -3.2817  -12.4801  -10.5130 C   0  0  2  0  0  0  0  0  0  0  0  0
   -9.8167   -8.1777  -13.9805 C   0  0  2  0  0  0  0  0  0  0  0  0
   -9.3491   -9.0178  -15.0776 N   0  0  0  0  0  0  0  0  0  0  0  0
   -6.5484   -9.7708   -9.1425 C   0  0  0  0  0  0  0  0  0  0  0  0
   -1.9470  -12.0652  -11.2056 C   0  0  2  0  0  0  0  0  0  0  0  0
   -1.8901  -10.6515  -11.2888 O   0  0  0  0  0  0  0  0  0  0  0  0
   -9.0927   -6.7866  -13.9996 C   0  0  0  0  0  0  0  0  0  0  0  0
   -7.2375   -8.9416  -10.3108 C   0  0  2  0  0  0  0  0  0  0  0  0
   -8.4872   -8.3276   -9.8044 N   0  0  0  0  0  0  0  0  0  0  0  0
   -1.9490  -12.7221  -12.6564 C   0  0  1  0  0  0  0  0  0  0  0  0
   -0.7061  -12.3440  -13.4110 N   0  0  0  0  0  0  0  0  0  0  0  0
   -9.3674   -6.0011  -12.6847 C   0  0  0  0  0  0  0  0  0  0  0  0
   -7.5545   -9.9105  -11.5354 C   0  0  2  0  0  0  0  0  0  0  0  0
   -2.0137  -14.3429  -12.5094 C   0  0  1  0  0  0  0  0  0  0  0  0
   -0.9050  -14.8572  -11.7972 O   0  0  0  0  0  0  0  0  0  0  0  0
   -9.7818   -6.6329  -11.5761 C   0  0  2  0  0  0  0  0  0  0  0  0
  -10.0052   -8.0523  -11.5124 O   0  0  0  0  0  0  0  0  0  0  0  0
   -6.2041  -10.5679  -12.0453 C   0  0  2  0  0  0  0  0  0  0  0  0
   -6.4791  -11.4611  -13.1319 O   0  0  0  0  0  0  0  0  0  0  0  0
   -3.3095  -14.7392  -11.7245 C   0  0  0  0  0  0  0  0  0  0  0  0
   -3.3671  -13.9812  -10.4088 O   0  0  0  0  0  0  0  0  0  0  0  0
  -10.0627   -5.8696  -10.2608 C   0  0  0  0  0  0  0  0  0  0  0  0
   -8.9433   -4.9877   -9.9614 N   0  0  0  0  0  0  0  0  0  0  0  0
   -5.5349  -11.3812  -10.8790 C   0  0  1  0  0  0  0  0  0  0  0  0
   -4.3405  -11.9433  -11.3672 O   0  0  0  0  0  0  0  0  0  0  0  0
   -2.0276  -15.1326  -13.8287 C   0  0  0  0  0  0  0  0  0  0  0  0
   -0.6792  -10.9879  -13.9909 C   0  0  0  0  0  0  0  0  0  0  0  0
  1  2  1  1  0  0  0
  1  6  1  0  0  0  0
  1 21  1  0  0  0  0
  3  4  1  1  0  0  0
  3  8  1  0  0  0  0
  3 28  1  0  0  0  0
  5  9  1  0  0  0  0
  5 25  1  0  0  0  0
  5 29  1  6  0  0  0
  6  7  1  6  0  0  0
  6 11  1  0  0  0  0
  8 12  1  0  0  0  0
  9 10  1  6  0  0  0
  9 14  1  0  0  0  0
 11 16  1  0  0  0  0
 12 13  1  1  0  0  0
 12 17  1  0  0  0  0
 14 15  1  1  0  0  0
 14 18  1  0  0  0  0
 15 31  1  0  0  0  0
 16 20  1  0  0  0  0
 17  2  1  6  0  0  0
 17 22  1  0  0  0  0
 18 19  1  1  0  0  0
 18 24  1  0  0  0  0
 18 30  1  0  0  0  0
 20 21  1  0  0  0  0
 20 26  1  6  0  0  0
 22 23  1  6  0  0  0
 22 28  1  0  0  0  0
 24 25  1  0  0  0  0
 26 27  1  0  0  0  0
 28 29  1  6  0  0  0
M  END
>  <CHROM.1>
-172.90423887,-141.59843041,-77.76940860,-86.60848807,-48.71317758,44.85096883
-5.71697074,-10.41183488,-11.75627315,3.00341900,-0.67935351,1.38961780

>  <Name>
ligand

>  <RI>
0

>  <Rbt.Current_Directory>
/home/itssahil/PROJECTS/Mol_Feturizer/New_Systems/rnas/4F8U

>  <Rbt.Executable>
rbdock ($Id: //depot/dev/client3/rdock/2013.1/src/exe/rbdock.cxx#4 $)

>  <Rbt.Library>
libRbt.so (2013.1, Build901 2013/11/27)

>  <Rbt.Parameter_File>
/export/apps/rDock/src/rDock_2013.1_src/data/scripts/dock_solv.prm

>  <Rbt.Receptor>
prm/blind_docking_40.prm

>  <SCORE>
20.0231

>  <SCORE.INTER>
5.98698

>  <SCORE.INTER.CONST>
1

>  <SCORE.INTER.POLAR>
0

>  <SCORE.INTER.ROT>
6

>  <SCORE.INTER.SOLV>
27.3563

>  <SCORE.INTER.VDW>
-12.7274

>  <SCORE.INTER.norm>
0.193128

>  <SCORE.INTRA>
4.37131

>  <SCORE.INTRA.DIHEDRAL>
-5.6724

>  <SCORE.INTRA.DIHEDRAL.0>
18.77

>  <SCORE.INTRA.POLAR>
0

>  <SCORE.INTRA.POLAR.0>
0

>  <SCORE.INTRA.REPUL>
0

>  <SCORE.INTRA.REPUL.0>
0

>  <SCORE.INTRA.SOLV>
4.50345

>  <SCORE.INTRA.SOLV.lig_0>
-77.2465

>  <SCORE.INTRA.VDW>
4.95579

>  <SCORE.INTRA.VDW.0>
-4.16072

>  <SCORE.INTRA.norm>
0.14101

>  <SCORE.RESTR>
9.6648

>  <SCORE.RESTR.CAVITY>
9.6648

>  <SCORE.RESTR.norm>
0.311768

>  <SCORE.SYSTEM>
0

>  <SCORE.SYSTEM.CONST>
0

>  <SCORE.SYSTEM.DIHEDRAL>
0

>  <SCORE.SYSTEM.SOLV>
0

>  <SCORE.SYSTEM.norm>
0

>  <SCORE.heavy>
31

>  <SCORE.norm>
0.645906

>  <RMSD>
6.251

$$$$
ligand
 OpenBabel11021811493D
libRbt.so/2013.1/901 2013/11/27
 31 33  0  0  0  0  0  0  0  0999 V2000
   -8.1714   -6.7405  -12.9544 C   0  0  2  0  0  0  0  0  0  0  0  0
   -8.1627   -7.2573  -11.6167 O   0  0  0  0  0  0  0  0  0  0  0  0
   -8.1543  -11.0114   -9.5600 C   0  0  2  0  0  0  0  0  0  0  0  0
   -8.4708  -12.3648   -9.2190 N   0  0  0  0  0  0  0  0  0  0  0  0
   -5.4000  -11.8055   -9.9369 C   0  0  2  0  0  0  0  0  0  0  0  0
   -9.6365   -6.2505  -13.2290 C   0  0  2  0  0  0  0  0  0  0  0  0
  -10.0162   -5.2521  -12.2356 N   0  0  0  0  0  0  0  0  0  0  0  0
   -9.4724  -10.1475   -9.4949 C   0  0  0  0  0  0  0  0  0  0  0  0
   -4.0585  -11.2887  -10.5423 C   0  0  2  0  0  0  0  0  0  0  0  0
   -4.2412   -9.9609  -11.0032 O   0  0  0  0  0  0  0  0  0  0  0  0
  -10.6203   -7.4713  -13.1929 C   0  0  0  0  0  0  0  0  0  0  0  0
   -9.1181   -8.6429   -9.8662 C   0  0  2  0  0  0  0  0  0  0  0  0
  -10.3499   -7.8215   -9.8099 N   0  0  0  0  0  0  0  0  0  0  0  0
   -3.6820  -12.2628  -11.7446 C   0  0  1  0  0  0  0  0  0  0  0  0
   -2.4115  -11.8161  -12.4107 N   0  0  0  0  0  0  0  0  0  0  0  0
  -10.0653   -8.6552  -14.0365 C   0  0  0  0  0  0  0  0  0  0  0  0
   -8.4851   -8.5904  -11.3275 C   0  0  2  0  0  0  0  0  0  0  0  0
   -3.4812  -13.7724  -11.1670 C   0  0  1  0  0  0  0  0  0  0  0  0
   -2.4450  -13.8411  -10.2066 O   0  0  0  0  0  0  0  0  0  0  0  0
   -8.7623   -8.7315  -14.3467 C   0  0  2  0  0  0  0  0  0  0  0  0
   -7.7943   -7.7487  -13.9396 O   0  0  0  0  0  0  0  0  0  0  0  0
   -7.1804   -9.4916  -11.3650 C   0  0  2  0  0  0  0  0  0  0  0  0
   -6.6148   -9.4723  -12.6817 O   0  0  0  0  0  0  0  0  0  0  0  0
   -4.8050  -14.2406  -10.4738 C   0  0  0  0  0  0  0  0  0  0  0  0
   -5.2329  -13.2170   -9.4356 O   0  0  0  0  0  0  0  0  0  0  0  0
   -8.1921   -9.8985  -15.1862 C   0  0  0  0  0  0  0  0  0  0  0  0
   -7.8665   -9.4224  -16.5232 N   0  0  0  0  0  0  0  0  0  0  0  0
   -7.5471  -10.9739  -10.9937 C   0  0  1  0  0  0  0  0  0  0  0  0
   -6.3665  -11.7391  -11.0325 O   0  0  0  0  0  0  0  0  0  0  0  0
   -3.1161  -14.8426  -12.2090 C   0  0  0  0  0  0  0  0  0  0  0  0
   -2.4588  -10.5157  -13.1056 C   0  0  0  0  0  0  0  0  0  0  0  0
  1  2  1  1  0  0  0
  1  6  1  0  0  0  0
  1 21  1  0  0  0  0
  3  4  1  6  0  0  0
  3  8  1  0  0  0  0
  3 28  1  0  0  0  0
  5  9  1  0  0  0  0
  5 25  1  0  0  0  0
  5 29  1  6  0  0  0
  6  7  1  1  0  0  0
  6 11  1  0  0  0  0
  8 12  1  0  0  0  0
  9 10  1  6  0  0  0
  9 14  1  0  0  0  0
 11 16  1  0  0  0  0
 12 13  1  6  0  0  0
 12 17  1  0  0  0  0
 14 15  1  1  0  0  0
 14 18  1  0  0  0  0
 15 31  1  0  0  0  0
 16 20  1  0  0  0  0
 17  2  1  1  0  0  0
 17 22  1  0  0  0  0
 18 19  1  1  0  0  0
 18 24  1  0  0  0  0
 18 30  1  0  0  0  0
 20 21  1  0  0  0  0
 20 26  1  6  0  0  0
 22 23  1  6  0  0  0
 22 28  1  0  0  0  0
 24 25  1  0  0  0  0
 26 27  1  0  0  0  0
 28 29  1  1  0  0  0
M  END
>  <CHROM.1>
87.75285964,-120.42673242,-65.50512265,-150.38137850,107.05400418,-37.08183751
-6.80436040,-10.18765067,-11.77318956,-2.58729045,-0.60206830,2.09131810

>  <Name>
ligand

>  <RI>
0

>  <Rbt.Current_Directory>
/home/itssahil/PROJECTS/Mol_Feturizer/New_Systems/rnas/4F8U

>  <Rbt.Executable>
rbdock ($Id: //depot/dev/client3/rdock/2013.1/src/exe/rbdock.cxx#4 $)

>  <Rbt.Library>
libRbt.so (2013.1, Build901 2013/11/27)

>  <Rbt.Parameter_File>
/export/apps/rDock/src/rDock_2013.1_src/data/scripts/dock_solv.prm

>  <Rbt.Receptor>
prm/blind_docking_40.prm

>  <SCORE>
17.604

>  <SCORE.INTER>
3.14623

>  <SCORE.INTER.CONST>
1

>  <SCORE.INTER.POLAR>
0

>  <SCORE.INTER.ROT>
6

>  <SCORE.INTER.SOLV>
19.3607

>  <SCORE.INTER.VDW>
-11.9561

>  <SCORE.INTER.norm>
0.101491

>  <SCORE.INTRA>
4.17702

>  <SCORE.INTRA.DIHEDRAL>
-0.652436

>  <SCORE.INTRA.DIHEDRAL.0>
18.77

>  <SCORE.INTRA.POLAR>
0

>  <SCORE.INTRA.POLAR.0>
0

>  <SCORE.INTRA.REPUL>
0

>  <SCORE.INTRA.REPUL.0>
0

>  <SCORE.INTRA.SOLV>
2.62159

>  <SCORE.INTRA.SOLV.lig_0>
-77.2465

>  <SCORE.INTRA.VDW>
3.19244

>  <SCORE.INTRA.VDW.0>
-4.16072

>  <SCORE.INTRA.norm>
0.134743

>  <SCORE.RESTR>
10.2807

>  <SCORE.RESTR.CAVITY>
10.2807

>  <SCORE.RESTR.norm>
0.331637

>  <SCORE.SYSTEM>
0

>  <SCORE.SYSTEM.CONST>
0

>  <SCORE.SYSTEM.DIHEDRAL>
0

>  <SCORE.SYSTEM.SOLV>
0

>  <SCORE.SYSTEM.norm>
0

>  <SCORE.heavy>
31

>  <SCORE.norm>
0.567871

>  <RMSD>
6.266

$$$$
ligand
 OpenBabel11021811493D
libRbt.so/2013.1/901 2013/11/27
 31 33  0  0  0  0  0  0  0  0999 V2000
   -9.5545   -8.8610  -12.6125 C   0  0  2  0  0  0  0  0  0  0  0  0
   -8.1420   -9.0985  -12.5420 O   0  0  0  0  0  0  0  0  0  0  0  0
   -5.2499  -10.4078   -9.6706 C   0  0  2  0  0  0  0  0  0  0  0  0
   -4.6320  -11.1660   -8.6260 N   0  0  0  0  0  0  0  0  0  0  0  0
   -3.2597  -12.3845  -10.5072 C   0  0  2  0  0  0  0  0  0  0  0  0
   -9.8122   -8.1315  -13.9775 C   0  0  2  0  0  0  0  0  0  0  0  0
   -9.3227   -8.9561  -15.0767 N   0  0  0  0  0  0  0  0  0  0  0  0
   -6.5898   -9.7818   -9.1223 C   0  0  0  0  0  0  0  0  0  0  0  0
   -1.9382  -12.0018  -11.2423 C   0  0  2  0  0  0  0  0  0  0  0  0
   -1.8833  -10.5932  -11.3900 O   0  0  0  0  0  0  0  0  0  0  0  0
   -9.1025   -6.7329  -13.9744 C   0  0  0  0  0  0  0  0  0  0  0  0
   -7.2712   -8.9333  -10.2812 C   0  0  2  0  0  0  0  0  0  0  0  0
   -8.5327   -8.3413   -9.7779 N   0  0  0  0  0  0  0  0  0  0  0  0
   -1.9668  -12.7231  -12.6618 C   0  0  1  0  0  0  0  0  0  0  0  0
   -0.7382  -12.3800  -13.4556 N   0  0  0  0  0  0  0  0  0  0  0  0
   -9.4012   -5.9630  -12.6555 C   0  0  0  0  0  0  0  0  0  0  0  0
   -7.5638   -9.8779  -11.5306 C   0  0  2  0  0  0  0  0  0  0  0  0
   -2.0282  -14.3357  -12.4410 C   0  0  1  0  0  0  0  0  0  0  0  0
   -0.9063  -14.8180  -11.7271 O   0  0  0  0  0  0  0  0  0  0  0  0
   -9.8225   -6.6097  -11.5582 C   0  0  2  0  0  0  0  0  0  0  0  0
  -10.0320   -8.0319  -11.5108 O   0  0  0  0  0  0  0  0  0  0  0  0
   -6.2013  -10.5123  -12.0371 C   0  0  2  0  0  0  0  0  0  0  0  0
   -6.4543  -11.3839  -13.1463 O   0  0  0  0  0  0  0  0  0  0  0  0
   -3.3091  -14.6957  -11.6152 C   0  0  0  0  0  0  0  0  0  0  0  0
   -3.3426  -13.8794  -10.3341 O   0  0  0  0  0  0  0  0  0  0  0  0
  -10.1272   -5.8621  -10.2391 C   0  0  0  0  0  0  0  0  0  0  0  0
   -8.9980   -5.0116   -9.8899 N   0  0  0  0  0  0  0  0  0  0  0  0
   -5.5399  -11.3451  -10.8801 C   0  0  1  0  0  0  0  0  0  0  0  0
   -4.3344  -11.8861  -11.3649 O   0  0  0  0  0  0  0  0  0  0  0  0
   -2.0662  -15.1839  -13.7230 C   0  0  0  0  0  0  0  0  0  0  0  0
   -0.7136  -11.0430  -14.0786 C   0  0  0  0  0  0  0  0  0  0  0  0
  1  2  1  1  0  0  0
  1  6  1  0  0  0  0
  1 21  1  0  0  0  0
  3  4  1  1  0  0  0
  3  8  1  0  0  0  0
  3 28  1  0  0  0  0
  5  9  1  0  0  0  0
  5 25  1  0  0  0  0
  5 29  1  6  0  0  0
  6  7  1  6  0  0  0
  6 11  1  0  0  0  0
  8 12  1  0  0  0  0
  9 10  1  6  0  0  0
  9 14  1  0  0  0  0
 11 16  1  0  0  0  0
 12 13  1  1  0  0  0
 12 17  1  0  0  0  0
 14 15  1  6  0  0  0
 14 18  1  0  0  0  0
 15 31  1  0  0  0  0
 16 20  1  0  0  0  0
 17  2  1  6  0  0  0
 17 22  1  0  0  0  0
 18 19  1  1  0  0  0
 18 24  1  0  0  0  0
 18 30  1  0  0  0  0
 20 21  1  0  0  0  0
 20 26  1  6  0  0  0
 22 23  1  6  0  0  0
 22 28  1  0  0  0  0
 24 25  1  0  0  0  0
 26 27  1  0  0  0  0
 28 29  1  6  0  0  0
M  END
>  <CHROM.1>
-172.12538538,-143.93191670,-76.84079434,-86.77405505,-50.94768120,42.36053809
-5.73109213,-10.38468236,-11.74178219,3.03382800,-0.68283641,1.43830376

>  <Name>
ligand

>  <RI>
0

>  <Rbt.Current_Directory>
/home/itssahil/PROJECTS/Mol_Feturizer/New_Systems/rnas/4F8U

>  <Rbt.Executable>
rbdock ($Id: //depot/dev/client3/rdock/2013.1/src/exe/rbdock.cxx#4 $)

>  <Rbt.Library>
libRbt.so (2013.1, Build901 2013/11/27)

>  <Rbt.Parameter_File>
/export/apps/rDock/src/rDock_2013.1_src/data/scripts/dock_solv.prm

>  <Rbt.Receptor>
prm/blind_docking_40.prm

>  <SCORE>
20.337

>  <SCORE.INTER>
6.5008

>  <SCORE.INTER.CONST>
1

>  <SCORE.INTER.POLAR>
0

>  <SCORE.INTER.ROT>
6

>  <SCORE.INTER.SOLV>
27.4387

>  <SCORE.INTER.VDW>
-12.4124

>  <SCORE.INTER.norm>
0.209703

>  <SCORE.INTRA>
4.29273

>  <SCORE.INTRA.DIHEDRAL>
-5.60518

>  <SCORE.INTRA.DIHEDRAL.0>
18.77

>  <SCORE.INTRA.POLAR>
0

>  <SCORE.INTRA.POLAR.0>
0

>  <SCORE.INTRA.REPUL>
0

>  <SCORE.INTRA.REPUL.0>
0

>  <SCORE.INTRA.SOLV>
4.42293

>  <SCORE.INTRA.SOLV.lig_0>
-77.2465

>  <SCORE.INTRA.VDW>
4.88385

>  <SCORE.INTRA.VDW.0>
-4.16072

>  <SCORE.INTRA.norm>
0.138475

>  <SCORE.RESTR>
9.54345

>  <SCORE.RESTR.CAVITY>
9.54345

>  <SCORE.RESTR.norm>
0.307853

>  <SCORE.SYSTEM>
0

>  <SCORE.SYSTEM.CONST>
0

>  <SCORE.SYSTEM.DIHEDRAL>
0

>  <SCORE.SYSTEM.SOLV>
0

>  <SCORE.SYSTEM.norm>
0

>  <SCORE.heavy>
31

>  <SCORE.norm>
0.656031

>  <RMSD>
6.266

$$$$
ligand
 OpenBabel11021811493D
libRbt.so/2013.1/901 2013/11/27
 31 33  0  0  0  0  0  0  0  0999 V2000
   -8.0890   -8.9969  -22.0269 C   0  0  2  0  0  0  0  0  0  0  0  0
   -6.8654   -9.6690  -22.3549 O   0  0  0  0  0  0  0  0  0  0  0  0
   -6.8933  -12.9048  -19.5526 C   0  0  2  0  0  0  0  0  0  0  0  0
   -6.4616  -14.0430  -18.8002 N   0  0  0  0  0  0  0  0  0  0  0  0
   -5.0130  -11.8781  -16.9103 C   0  0  2  0  0  0  0  0  0  0  0  0
   -7.9599   -7.5410  -22.5977 C   0  0  2  0  0  0  0  0  0  0  0  0
   -7.7131   -7.5954  -24.0343 N   0  0  0  0  0  0  0  0  0  0  0  0
   -6.8712  -13.2695  -21.0870 C   0  0  0  0  0  0  0  0  0  0  0  0
   -4.1376  -10.6401  -16.5437 C   0  0  2  0  0  0  0  0  0  0  0  0
   -4.9708   -9.6294  -16.0024 O   0  0  0  0  0  0  0  0  0  0  0  0
   -6.7990   -6.7838  -21.8636 C   0  0  0  0  0  0  0  0  0  0  0  0
   -7.3585  -12.0069  -21.9212 C   0  0  2  0  0  0  0  0  0  0  0  0
   -7.3403  -12.3374  -23.3653 N   0  0  0  0  0  0  0  0  0  0  0  0
   -3.4410  -10.1453  -17.8877 C   0  0  1  0  0  0  0  0  0  0  0  0
   -2.5991   -8.9277  -17.6311 N   0  0  0  0  0  0  0  0  0  0  0  0
   -6.9053   -6.9680  -20.3221 C   0  0  0  0  0  0  0  0  0  0  0  0
   -6.3979  -10.7706  -21.6249 C   0  0  2  0  0  0  0  0  0  0  0  0
   -2.4953  -11.3369  -18.4698 C   0  0  1  0  0  0  0  0  0  0  0  0
   -1.4776  -11.7020  -17.5576 O   0  0  0  0  0  0  0  0  0  0  0  0
   -7.6153   -7.9763  -19.7940 C   0  0  2  0  0  0  0  0  0  0  0  0
   -8.3232   -8.9448  -20.5876 O   0  0  0  0  0  0  0  0  0  0  0  0
   -6.4216  -10.4503  -20.0717 C   0  0  2  0  0  0  0  0  0  0  0  0
   -5.5420   -9.3548  -19.7885 O   0  0  0  0  0  0  0  0  0  0  0  0
   -3.3713  -12.6066  -18.7395 C   0  0  0  0  0  0  0  0  0  0  0  0
   -4.1500  -12.9710  -17.4867 O   0  0  0  0  0  0  0  0  0  0  0  0
   -7.7350   -8.1745  -18.2649 C   0  0  0  0  0  0  0  0  0  0  0  0
   -8.7549   -7.2793  -17.7367 N   0  0  0  0  0  0  0  0  0  0  0  0
   -5.9399  -11.7081  -19.2620 C   0  0  1  0  0  0  0  0  0  0  0  0
   -5.9796  -11.3875  -17.8921 O   0  0  0  0  0  0  0  0  0  0  0  0
   -1.7494  -11.0189  -19.7763 C   0  0  0  0  0  0  0  0  0  0  0  0
   -1.8055   -8.9307  -16.3875 C   0  0  0  0  0  0  0  0  0  0  0  0
  1  2  1  1  0  0  0
  1  6  1  0  0  0  0
  1 21  1  0  0  0  0
  3  4  1  1  0  0  0
  3  8  1  0  0  0  0
  3 28  1  0  0  0  0
  5  9  1  0  0  0  0
  5 25  1  0  0  0  0
  5 29  1  6  0  0  0
  6  7  1  6  0  0  0
  6 11  1  0  0  0  0
  8 12  1  0  0  0  0
  9 10  1  6  0  0  0
  9 14  1  0  0  0  0
 11 16  1  0  0  0  0
 12 13  1  6  0  0  0
 12 17  1  0  0  0  0
 14 15  1  1  0  0  0
 14 18  1  0  0  0  0
 15 31  1  0  0  0  0
 16 20  1  0  0  0  0
 17  2  1  6  0  0  0
 17 22  1  0  0  0  0
 18 19  1  1  0  0  0
 18 24  1  0  0  0  0
 18 30  1  0  0  0  0
 20 21  1  0  0  0  0
 20 26  1  1  0  0  0
 22 23  1  6  0  0  0
 22 28  1  0  0  0  0
 24 25  1  0  0  0  0
 26 27  1  0  0  0  0
 28 29  1  1  0  0  0
M  END
>  <CHROM.1>
155.93520852,107.97762575,40.95811207,70.01170144,81.06265404,96.08292120
-5.68495169,-10.25352944,-19.52675482,2.99058358,-0.82609902,0.31173821

>  <Name>
ligand

>  <RI>
0

>  <Rbt.Current_Directory>
/home/itssahil/PROJECTS/Mol_Feturizer/New_Systems/rnas/4F8U

>  <Rbt.Executable>
rbdock ($Id: //depot/dev/client3/rdock/2013.1/src/exe/rbdock.cxx#4 $)

>  <Rbt.Library>
libRbt.so (2013.1, Build901 2013/11/27)

>  <Rbt.Parameter_File>
/export/apps/rDock/src/rDock_2013.1_src/data/scripts/dock_solv.prm

>  <Rbt.Receptor>
prm/blind_docking_60.prm

>  <SCORE>
48.6441

>  <SCORE.INTER>
18.0057

>  <SCORE.INTER.CONST>
1

>  <SCORE.INTER.POLAR>
0

>  <SCORE.INTER.ROT>
6

>  <SCORE.INTER.SOLV>
34.6209

>  <SCORE.INTER.VDW>
-7.13654

>  <SCORE.INTER.norm>
0.580828

>  <SCORE.INTRA>
10.2578

>  <SCORE.INTRA.DIHEDRAL>
-1.20217

>  <SCORE.INTRA.DIHEDRAL.0>
18.77

>  <SCORE.INTRA.POLAR>
0

>  <SCORE.INTRA.POLAR.0>
0

>  <SCORE.INTRA.REPUL>
0

>  <SCORE.INTRA.REPUL.0>
0

>  <SCORE.INTRA.SOLV>
1.11112

>  <SCORE.INTRA.SOLV.lig_0>
-77.2465

>  <SCORE.INTRA.VDW>
10.3033

>  <SCORE.INTRA.VDW.0>
-4.16072

>  <SCORE.INTRA.norm>
0.330896

>  <SCORE.RESTR>
20.3806

>  <SCORE.RESTR.CAVITY>
20.3806

>  <SCORE.RESTR.norm>
0.65744

>  <SCORE.SYSTEM>
0

>  <SCORE.SYSTEM.CONST>
0

>  <SCORE.SYSTEM.DIHEDRAL>
0

>  <SCORE.SYSTEM.SOLV>
0

>  <SCORE.SYSTEM.norm>
0

>  <SCORE.heavy>
31

>  <SCORE.norm>
1.56916

>  <RMSD>
6.274

$$$$
ligand
 OpenBabel11021811493D
libRbt.so/2013.1/901 2013/11/27
 31 33  0  0  0  0  0  0  0  0999 V2000
   -0.9263  -11.2033  -16.9966 C   0  0  2  0  0  0  0  0  0  0  0  0
   -0.7446  -11.5595  -15.6194 O   0  0  0  0  0  0  0  0  0  0  0  0
   -3.3575  -11.6395  -12.2297 C   0  0  2  0  0  0  0  0  0  0  0  0
   -4.2076  -11.1910  -11.1694 N   0  0  0  0  0  0  0  0  0  0  0  0
   -6.4684  -11.1736  -13.2378 C   0  0  2  0  0  0  0  0  0  0  0  0
    0.1176  -12.0444  -17.8118 C   0  0  2  0  0  0  0  0  0  0  0  0
   -0.0941  -13.4662  -17.5637 N   0  0  0  0  0  0  0  0  0  0  0  0
   -1.9210  -11.0199  -12.0283 C   0  0  0  0  0  0  0  0  0  0  0  0
   -7.5978  -12.1751  -13.6311 C   0  0  2  0  0  0  0  0  0  0  0  0
   -7.3222  -13.4355  -13.0444 O   0  0  0  0  0  0  0  0  0  0  0  0
    1.5726  -11.6213  -17.4073 C   0  0  0  0  0  0  0  0  0  0  0  0
   -0.9756  -11.5252  -13.2023 C   0  0  2  0  0  0  0  0  0  0  0  0
    0.3773  -10.9477  -13.0245 N   0  0  0  0  0  0  0  0  0  0  0  0
   -7.6018  -12.2749  -15.2206 C   0  0  1  0  0  0  0  0  0  0  0  0
   -8.6446  -13.2504  -15.6877 N   0  0  0  0  0  0  0  0  0  0  0  0
    1.7163  -10.0718  -17.3971 C   0  0  0  0  0  0  0  0  0  0  0  0
   -1.5860  -11.0810  -14.6055 C   0  0  2  0  0  0  0  0  0  0  0  0
   -7.9235  -10.8066  -15.8477 C   0  0  1  0  0  0  0  0  0  0  0  0
   -9.1853  -10.3172  -15.4363 O   0  0  0  0  0  0  0  0  0  0  0  0
    0.6377   -9.2784  -17.3140 C   0  0  2  0  0  0  0  0  0  0  0  0
   -0.7079   -9.7801  -17.2335 O   0  0  0  0  0  0  0  0  0  0  0  0
   -3.0395  -11.6964  -14.7618 C   0  0  2  0  0  0  0  0  0  0  0  0
   -3.6096  -11.2839  -16.0104 O   0  0  0  0  0  0  0  0  0  0  0  0
   -6.8367   -9.7885  -15.3633 C   0  0  0  0  0  0  0  0  0  0  0  0
   -6.7385   -9.8220  -13.8473 O   0  0  0  0  0  0  0  0  0  0  0  0
    0.7597   -7.7368  -17.3052 C   0  0  0  0  0  0  0  0  0  0  0  0
    2.0968   -7.3570  -16.8711 N   0  0  0  0  0  0  0  0  0  0  0  0
   -3.9601  -11.1895  -13.5934 C   0  0  1  0  0  0  0  0  0  0  0  0
   -5.2357  -11.7595  -13.7633 O   0  0  0  0  0  0  0  0  0  0  0  0
   -7.9593  -10.7299  -17.3830 C   0  0  0  0  0  0  0  0  0  0  0  0
   -8.2287  -14.6633  -15.7713 C   0  0  0  0  0  0  0  0  0  0  0  0
  1  2  1  1  0  0  0
  1  6  1  0  0  0  0
  1 21  1  0  0  0  0
  3  4  1  1  0  0  0
  3  8  1  0  0  0  0
  3 28  1  0  0  0  0
  5  9  1  0  0  0  0
  5 25  1  0  0  0  0
  5 29  1  6  0  0  0
  6  7  1  1  0  0  0
  6 11  1  0  0  0  0
  8 12  1  0  0  0  0
  9 10  1  1  0  0  0
  9 14  1  0  0  0  0
 11 16  1  0  0  0  0
 12 13  1  1  0  0  0
 12 17  1  0  0  0  0
 14 15  1  1  0  0  0
 14 18  1  0  0  0  0
 15 31  1  0  0  0  0
 16 20  1  0  0  0  0
 17  2  1  6  0  0  0
 17 22  1  0  0  0  0
 18 19  1  1  0  0  0
 18 24  1  0  0  0  0
 18 30  1  0  0  0  0
 20 21  1  0  0  0  0
 20 26  1  6  0  0  0
 22 23  1  6  0  0  0
 22 28  1  0  0  0  0
 24 25  1  0  0  0  0
 26 27  1  0  0  0  0
 28 29  1  6  0  0  0
M  END
>  <CHROM.1>
-174.66096474,-178.10784850,-87.21535084,-172.74460495,-22.28676217,85.42504366
-3.52147541,-11.15989417,-15.18118055,0.24889886,-0.16250767,-1.41642456

>  <Name>
ligand

>  <RI>
0

>  <Rbt.Current_Directory>
/home/itssahil/PROJECTS/Mol_Feturizer/New_Systems/rnas/4F8U

>  <Rbt.Executable>
rbdock ($Id: //depot/dev/client3/rdock/2013.1/src/exe/rbdock.cxx#4 $)

>  <Rbt.Library>
libRbt.so (2013.1, Build901 2013/11/27)

>  <Rbt.Parameter_File>
/export/apps/rDock/src/rDock_2013.1_src/data/scripts/dock_solv.prm

>  <Rbt.Receptor>
prm/pocket_docking_5.prm

>  <SCORE>
-3.81179

>  <SCORE.INTER>
2.26104

>  <SCORE.INTER.CONST>
1

>  <SCORE.INTER.POLAR>
0

>  <SCORE.INTER.ROT>
6

>  <SCORE.INTER.SOLV>
11.3595

>  <SCORE.INTER.VDW>
-9.87914

>  <SCORE.INTER.norm>
0.0729366

>  <SCORE.INTRA>
-6.07283

>  <SCORE.INTRA.DIHEDRAL>
-12.8297

>  <SCORE.INTRA.DIHEDRAL.0>
18.77

>  <SCORE.INTRA.POLAR>
0

>  <SCORE.INTRA.POLAR.0>
0

>  <SCORE.INTRA.REPUL>
0

>  <SCORE.INTRA.REPUL.0>
0

>  <SCORE.INTRA.SOLV>
-2.09745

>  <SCORE.INTRA.SOLV.lig_0>
-77.2465

>  <SCORE.INTRA.VDW>
1.39074

>  <SCORE.INTRA.VDW.0>
-4.16072

>  <SCORE.INTRA.norm>
-0.195898

>  <SCORE.RESTR>
0

>  <SCORE.RESTR.CAVITY>
0

>  <SCORE.RESTR.norm>
0

>  <SCORE.SYSTEM>
0

>  <SCORE.SYSTEM.CONST>
0

>  <SCORE.SYSTEM.DIHEDRAL>
0

>  <SCORE.SYSTEM.SOLV>
0

>  <SCORE.SYSTEM.norm>
0

>  <SCORE.heavy>
31

>  <SCORE.norm>
-0.122961

>  <RMSD>
6.294

$$$$
ligand
 OpenBabel11021811493D
libRbt.so/2013.1/901 2013/11/27
 31 33  0  0  0  0  0  0  0  0999 V2000
   -9.5562   -8.9889  -12.0170 C   0  0  2  0  0  0  0  0  0  0  0  0
   -8.2220   -9.5004  -12.1387 O   0  0  0  0  0  0  0  0  0  0  0  0
   -5.0263  -10.8726   -9.6431 C   0  0  2  0  0  0  0  0  0  0  0  0
   -4.3319  -11.5237   -8.5744 N   0  0  0  0  0  0  0  0  0  0  0  0
   -4.7698  -13.1402  -12.4531 C   0  0  2  0  0  0  0  0  0  0  0  0
   -9.9747   -8.5017  -13.4485 C   0  0  2  0  0  0  0  0  0  0  0  0
   -9.8785   -9.6089  -14.3933 N   0  0  0  0  0  0  0  0  0  0  0  0
   -6.0256   -9.8158   -9.0327 C   0  0  0  0  0  0  0  0  0  0  0  0
   -3.5005  -14.0365  -12.5901 C   0  0  2  0  0  0  0  0  0  0  0  0
   -3.6914  -15.2248  -11.8416 O   0  0  0  0  0  0  0  0  0  0  0  0
   -9.0562   -7.3109  -13.8938 C   0  0  0  0  0  0  0  0  0  0  0  0
   -6.7906   -9.0877  -10.2210 C   0  0  2  0  0  0  0  0  0  0  0  0
   -7.7340   -8.0930   -9.6592 N   0  0  0  0  0  0  0  0  0  0  0  0
   -2.2717  -13.1969  -12.0233 C   0  0  1  0  0  0  0  0  0  0  0  0
   -1.0051  -14.0025  -12.0868 N   0  0  0  0  0  0  0  0  0  0  0  0
   -8.9310   -6.2536  -12.7591 C   0  0  0  0  0  0  0  0  0  0  0  0
   -7.5779  -10.1681  -11.0879 C   0  0  2  0  0  0  0  0  0  0  0  0
   -2.0914  -11.8452  -12.9140 C   0  0  1  0  0  0  0  0  0  0  0  0
   -1.8336  -12.1350  -14.2744 O   0  0  0  0  0  0  0  0  0  0  0  0
   -9.2093   -6.5704  -11.4855 C   0  0  2  0  0  0  0  0  0  0  0  0
   -9.6396   -7.8794  -11.0729 O   0  0  0  0  0  0  0  0  0  0  0  0
   -6.5484  -11.2299  -11.6610 C   0  0  2  0  0  0  0  0  0  0  0  0
   -7.2477  -12.2219  -12.4231 O   0  0  0  0  0  0  0  0  0  0  0  0
   -3.4100  -11.0032  -12.8478 C   0  0  0  0  0  0  0  0  0  0  0  0
   -4.5946  -11.8688  -13.2432 O   0  0  0  0  0  0  0  0  0  0  0  0
   -9.0935   -5.5331  -10.3444 C   0  0  0  0  0  0  0  0  0  0  0  0
  -10.4188   -5.2397   -9.8172 N   0  0  0  0  0  0  0  0  0  0  0  0
   -5.7995  -11.9384  -10.4748 C   0  0  1  0  0  0  0  0  0  0  0  0
   -4.8938  -12.8665  -11.0219 O   0  0  0  0  0  0  0  0  0  0  0  0
   -0.9420  -10.9155  -12.4908 C   0  0  0  0  0  0  0  0  0  0  0  0
   -1.0090  -15.2869  -11.3611 C   0  0  0  0  0  0  0  0  0  0  0  0
  1  2  1  6  0  0  0
  1  6  1  0  0  0  0
  1 21  1  0  0  0  0
  3  4  1  1  0  0  0
  3  8  1  0  0  0  0
  3 28  1  0  0  0  0
  5  9  1  0  0  0  0
  5 25  1  0  0  0  0
  5 29  1  1  0  0  0
  6  7  1  6  0  0  0
  6 11  1  0  0  0  0
  8 12  1  0  0  0  0
  9 10  1  1  0  0  0
  9 14  1  0  0  0  0
 11 16  1  0  0  0  0
 12 13  1  1  0  0  0
 12 17  1  0  0  0  0
 14 15  1  6  0  0  0
 14 18  1  0  0  0  0
 15 31  1  0  0  0  0
 16 20  1  0  0  0  0
 17  2  1  6  0  0  0
 17 22  1  0  0  0  0
 18 19  1  6  0  0  0
 18 24  1  0  0  0  0
 18 30  1  0  0  0  0
 20 21  1  0  0  0  0
 20 26  1  6  0  0  0
 22 23  1  1  0  0  0
 22 28  1  0  0  0  0
 24 25  1  0  0  0  0
 26 27  1  0  0  0  0
 28 29  1  6  0  0  0
M  END
>  <CHROM.1>
-172.33232898,170.74825014,-58.14928757,-90.37362842,112.67832804,-122.49296179
-5.94498424,-10.54934716,-11.73697345,2.86149360,-0.67699268,1.22984597

>  <Name>
ligand

>  <RI>
0

>  <Rbt.Current_Directory>
/home/itssahil/PROJECTS/Mol_Feturizer/New_Systems/rnas/4F8U

>  <Rbt.Executable>
rbdock ($Id: //depot/dev/client3/rdock/2013.1/src/exe/rbdock.cxx#4 $)

>  <Rbt.Library>
libRbt.so (2013.1, Build901 2013/11/27)

>  <Rbt.Parameter_File>
/export/apps/rDock/src/rDock_2013.1_src/data/scripts/dock_solv.prm

>  <Rbt.Receptor>
prm/blind_docking_40.prm

>  <SCORE>
23.0066

>  <SCORE.INTER>
7.59315

>  <SCORE.INTER.CONST>
1

>  <SCORE.INTER.POLAR>
0

>  <SCORE.INTER.ROT>
6

>  <SCORE.INTER.SOLV>
23.6529

>  <SCORE.INTER.VDW>
-10.4222

>  <SCORE.INTER.norm>
0.24494

>  <SCORE.INTRA>
5.89043

>  <SCORE.INTRA.DIHEDRAL>
-5.47694

>  <SCORE.INTRA.DIHEDRAL.0>
18.77

>  <SCORE.INTRA.POLAR>
0

>  <SCORE.INTRA.POLAR.0>
0

>  <SCORE.INTRA.REPUL>
0

>  <SCORE.INTRA.REPUL.0>
0

>  <SCORE.INTRA.SOLV>
2.40376

>  <SCORE.INTRA.SOLV.lig_0>
-77.2465

>  <SCORE.INTRA.VDW>
7.42702

>  <SCORE.INTRA.VDW.0>
-4.16072

>  <SCORE.INTRA.norm>
0.190014

>  <SCORE.RESTR>
9.52304

>  <SCORE.RESTR.CAVITY>
9.52304

>  <SCORE.RESTR.norm>
0.307195

>  <SCORE.SYSTEM>
0

>  <SCORE.SYSTEM.CONST>
0

>  <SCORE.SYSTEM.DIHEDRAL>
0

>  <SCORE.SYSTEM.SOLV>
0

>  <SCORE.SYSTEM.norm>
0

>  <SCORE.heavy>
31

>  <SCORE.norm>
0.742149

>  <RMSD>
6.318

$$$$
ligand
 OpenBabel11021811493D
libRbt.so/2013.1/901 2013/11/27
 31 33  0  0  0  0  0  0  0  0999 V2000
   -9.5366   -8.8382  -12.5540 C   0  0  2  0  0  0  0  0  0  0  0  0
   -8.1281   -9.1032  -12.5066 O   0  0  0  0  0  0  0  0  0  0  0  0
   -5.2318  -10.4435   -9.6536 C   0  0  2  0  0  0  0  0  0  0  0  0
   -4.6127  -11.2127   -8.6178 N   0  0  0  0  0  0  0  0  0  0  0  0
   -3.2487  -12.4220  -10.5137 C   0  0  2  0  0  0  0  0  0  0  0  0
   -9.8045   -8.1170  -13.9215 C   0  0  2  0  0  0  0  0  0  0  0  0
   -9.3516   -8.9619  -15.0209 N   0  0  0  0  0  0  0  0  0  0  0  0
   -6.5703   -9.8221   -9.0967 C   0  0  0  0  0  0  0  0  0  0  0  0
   -1.9247  -12.0173  -11.2324 C   0  0  2  0  0  0  0  0  0  0  0  0
   -1.8733  -10.6053  -11.3447 O   0  0  0  0  0  0  0  0  0  0  0  0
   -9.0672   -6.7329  -13.9453 C   0  0  0  0  0  0  0  0  0  0  0  0
   -7.2531   -8.9614  -10.2458 C   0  0  2  0  0  0  0  0  0  0  0  0
   -8.5132   -8.3736   -9.7342 N   0  0  0  0  0  0  0  0  0  0  0  0
   -1.9440  -12.7031  -12.6696 C   0  0  1  0  0  0  0  0  0  0  0  0
   -0.7125  -12.3368  -13.4482 N   0  0  0  0  0  0  0  0  0  0  0  0
   -9.3266   -5.9444  -12.6290 C   0  0  0  0  0  0  0  0  0  0  0  0
   -7.5487   -9.8933  -11.5040 C   0  0  2  0  0  0  0  0  0  0  0  0
   -2.0016  -14.3209  -12.4893 C   0  0  1  0  0  0  0  0  0  0  0  0
   -0.8819  -14.8175  -11.7819 O   0  0  0  0  0  0  0  0  0  0  0  0
   -9.7406   -6.5718  -11.5179 C   0  0  2  0  0  0  0  0  0  0  0  0
   -9.9774   -7.9890  -11.4523 O   0  0  0  0  0  0  0  0  0  0  0  0
   -6.1876  -10.5236  -12.0193 C   0  0  2  0  0  0  0  0  0  0  0  0
   -6.4433  -11.3838  -13.1367 O   0  0  0  0  0  0  0  0  0  0  0  0
   -3.2856  -14.7050  -11.6792 C   0  0  0  0  0  0  0  0  0  0  0  0
   -3.3280  -13.9209  -10.3784 O   0  0  0  0  0  0  0  0  0  0  0  0
  -10.0064   -5.8055  -10.2012 C   0  0  0  0  0  0  0  0  0  0  0  0
  -11.3775   -5.3151  -10.1918 N   0  0  0  0  0  0  0  0  0  0  0  0
   -5.5247  -11.3684  -10.8719 C   0  0  1  0  0  0  0  0  0  0  0  0
   -4.3205  -11.9055  -11.3643 O   0  0  0  0  0  0  0  0  0  0  0  0
   -2.0307  -15.1370  -13.7922 C   0  0  0  0  0  0  0  0  0  0  0  0
   -0.6672  -10.9676  -13.9957 C   0  0  0  0  0  0  0  0  0  0  0  0
  1  2  1  1  0  0  0
  1  6  1  0  0  0  0
  1 21  1  0  0  0  0
  3  4  1  1  0  0  0
  3  8  1  0  0  0  0
  3 28  1  0  0  0  0
  5  9  1  0  0  0  0
  5 25  1  0  0  0  0
  5 29  1  6  0  0  0
  6  7  1  6  0  0  0
  6 11  1  0  0  0  0
  8 12  1  0  0  0  0
  9 10  1  6  0  0  0
  9 14  1  0  0  0  0
 11 16  1  0  0  0  0
 12 13  1  1  0  0  0
 12 17  1  0  0  0  0
 14 15  1  1  0  0  0
 14 18  1  0  0  0  0
 15 31  1  0  0  0  0
 16 20  1  0  0  0  0
 17  2  1  6  0  0  0
 17 22  1  0  0  0  0
 18 19  1  1  0  0  0
 18 24  1  0  0  0  0
 18 30  1  0  0  0  0
 20 21  1  0  0  0  0
 20 26  1  6  0  0  0
 22 23  1  6  0  0  0
 22 28  1  0  0  0  0
 24 25  1  0  0  0  0
 26 27  1  0  0  0  0
 28 29  1  6  0  0  0
M  END
>  <CHROM.1>
-171.59288000,-143.29712317,-74.66599795,-85.27511097,87.31877610,42.81256768
-5.78161837,-10.39367985,-11.73740985,3.09949423,-0.67108005,1.55039553

>  <Name>
ligand

>  <RI>
0

>  <Rbt.Current_Directory>
/home/itssahil/PROJECTS/Mol_Feturizer/New_Systems/rnas/4F8U

>  <Rbt.Executable>
rbdock ($Id: //depot/dev/client3/rdock/2013.1/src/exe/rbdock.cxx#4 $)

>  <Rbt.Library>
libRbt.so (2013.1, Build901 2013/11/27)

>  <Rbt.Parameter_File>
/export/apps/rDock/src/rDock_2013.1_src/data/scripts/dock_solv.prm

>  <Rbt.Receptor>
prm/blind_docking_40.prm

>  <SCORE>
19.0094

>  <SCORE.INTER>
4.92396

>  <SCORE.INTER.CONST>
1

>  <SCORE.INTER.POLAR>
0

>  <SCORE.INTER.ROT>
6

>  <SCORE.INTER.SOLV>
20.8594

>  <SCORE.INTER.VDW>
-11.2705

>  <SCORE.INTER.norm>
0.158838

>  <SCORE.INTRA>
3.35904

>  <SCORE.INTRA.DIHEDRAL>
-6.56321

>  <SCORE.INTRA.DIHEDRAL.0>
18.77

>  <SCORE.INTRA.POLAR>
0

>  <SCORE.INTRA.POLAR.0>
0

>  <SCORE.INTRA.REPUL>
0

>  <SCORE.INTRA.REPUL.0>
0

>  <SCORE.INTRA.SOLV>
3.11715

>  <SCORE.INTRA.SOLV.lig_0>
-77.2465

>  <SCORE.INTRA.VDW>
5.08207

>  <SCORE.INTRA.VDW.0>
-4.16072

>  <SCORE.INTRA.norm>
0.108356

>  <SCORE.RESTR>
10.7264

>  <SCORE.RESTR.CAVITY>
10.7264

>  <SCORE.RESTR.norm>
0.346014

>  <SCORE.SYSTEM>
0

>  <SCORE.SYSTEM.CONST>
0

>  <SCORE.SYSTEM.DIHEDRAL>
0

>  <SCORE.SYSTEM.SOLV>
0

>  <SCORE.SYSTEM.norm>
0

>  <SCORE.heavy>
31

>  <SCORE.norm>
0.613208

>  <RMSD>
6.322

$$$$
ligand
 OpenBabel11021811493D
libRbt.so/2013.1/901 2013/11/27
 31 33  0  0  0  0  0  0  0  0999 V2000
   -9.3955   -9.1182  -12.0948 C   0  0  2  0  0  0  0  0  0  0  0  0
   -8.0405   -9.5740  -12.2072 O   0  0  0  0  0  0  0  0  0  0  0  0
   -4.8548  -10.7718   -9.6109 C   0  0  2  0  0  0  0  0  0  0  0  0
   -4.1531  -11.4174   -8.5438 N   0  0  0  0  0  0  0  0  0  0  0  0
   -3.1629  -12.9071  -10.4270 C   0  0  2  0  0  0  0  0  0  0  0  0
   -9.8206   -8.6391  -13.5271 C   0  0  2  0  0  0  0  0  0  0  0  0
   -9.6707   -9.7352  -14.4778 N   0  0  0  0  0  0  0  0  0  0  0  0
   -5.9928   -9.8671   -8.9991 C   0  0  0  0  0  0  0  0  0  0  0  0
   -2.1130  -12.0398  -11.1877 C   0  0  2  0  0  0  0  0  0  0  0  0
   -2.4860  -10.6756  -11.0940 O   0  0  0  0  0  0  0  0  0  0  0  0
   -8.9475   -7.4089  -13.9565 C   0  0  0  0  0  0  0  0  0  0  0  0
   -6.7665   -9.1443  -10.1850 C   0  0  2  0  0  0  0  0  0  0  0  0
   -7.8398   -8.2922   -9.6220 N   0  0  0  0  0  0  0  0  0  0  0  0
   -2.1131  -12.5279  -12.7036 C   0  0  1  0  0  0  0  0  0  0  0  0
   -1.1473  -11.7179  -13.5213 N   0  0  0  0  0  0  0  0  0  0  0  0
   -8.8759   -6.3548  -12.8141 C   0  0  0  0  0  0  0  0  0  0  0  0
   -7.3859  -10.2402  -11.1619 C   0  0  2  0  0  0  0  0  0  0  0  0
   -1.6780  -14.0965  -12.7602 C   0  0  1  0  0  0  0  0  0  0  0  0
   -0.3832  -14.3088  -12.2317 O   0  0  0  0  0  0  0  0  0  0  0  0
   -9.1525   -6.6911  -11.5452 C   0  0  2  0  0  0  0  0  0  0  0  0
   -9.5327   -8.0192  -11.1447 O   0  0  0  0  0  0  0  0  0  0  0  0
   -6.2194  -11.1491  -11.7351 C   0  0  2  0  0  0  0  0  0  0  0  0
   -6.7665  -12.1551  -12.5969 O   0  0  0  0  0  0  0  0  0  0  0  0
   -2.6844  -14.9428  -11.9098 C   0  0  0  0  0  0  0  0  0  0  0  0
   -2.7883  -14.3646  -10.5085 O   0  0  0  0  0  0  0  0  0  0  0  0
   -9.0894   -5.6574  -10.3966 C   0  0  0  0  0  0  0  0  0  0  0  0
  -10.4390   -5.3482   -9.9457 N   0  0  0  0  0  0  0  0  0  0  0  0
   -5.4637  -11.8539  -10.5510 C   0  0  1  0  0  0  0  0  0  0  0  0
   -4.4358  -12.6448  -11.0976 O   0  0  0  0  0  0  0  0  0  0  0  0
   -1.6329  -14.7263  -14.1623 C   0  0  0  0  0  0  0  0  0  0  0  0
   -1.6050  -10.3790  -13.9384 C   0  0  0  0  0  0  0  0  0  0  0  0
  1  2  1  6  0  0  0
  1  6  1  0  0  0  0
  1 21  1  0  0  0  0
  3  4  1  1  0  0  0
  3  8  1  0  0  0  0
  3 28  1  0  0  0  0
  5  9  1  0  0  0  0
  5 25  1  0  0  0  0
  5 29  1  6  0  0  0
  6  7  1  6  0  0  0
  6 11  1  0  0  0  0
  8 12  1  0  0  0  0
  9 10  1  6  0  0  0
  9 14  1  0  0  0  0
 11 16  1  0  0  0  0
 12 13  1  1  0  0  0
 12 17  1  0  0  0  0
 14 15  1  6  0  0  0
 14 18  1  0  0  0  0
 15 31  1  0  0  0  0
 16 20  1  0  0  0  0
 17  2  1  6  0  0  0
 17 22  1  0  0  0  0
 18 19  1  1  0  0  0
 18 24  1  0  0  0  0
 18 30  1  0  0  0  0
 20 21  1  0  0  0  0
 20 26  1  6  0  0  0
 22 23  1  6  0  0  0
 22 28  1  0  0  0  0
 24 25  1  0  0  0  0
 26 27  1  0  0  0  0
 28 29  1  6  0  0  0
M  END
>  <CHROM.1>
-171.32344825,-106.09614366,-78.61006382,-85.30127671,108.54309878,29.08507445
-5.60005670,-10.57197281,-11.64511025,2.97347930,-0.66522751,1.37635312

>  <Name>
ligand

>  <RI>
0

>  <Rbt.Current_Directory>
/home/itssahil/PROJECTS/Mol_Feturizer/New_Systems/rnas/4F8U

>  <Rbt.Executable>
rbdock ($Id: //depot/dev/client3/rdock/2013.1/src/exe/rbdock.cxx#4 $)

>  <Rbt.Library>
libRbt.so (2013.1, Build901 2013/11/27)

>  <Rbt.Parameter_File>
/export/apps/rDock/src/rDock_2013.1_src/data/scripts/dock_solv.prm

>  <Rbt.Receptor>
prm/blind_docking_40.prm

>  <SCORE>
22.4698

>  <SCORE.INTER>
6.51109

>  <SCORE.INTER.CONST>
1

>  <SCORE.INTER.POLAR>
0

>  <SCORE.INTER.ROT>
6

>  <SCORE.INTER.SOLV>
22.4603

>  <SCORE.INTER.VDW>
-10.746

>  <SCORE.INTER.norm>
0.210035

>  <SCORE.INTRA>
5.75646

>  <SCORE.INTRA.DIHEDRAL>
-3.51095

>  <SCORE.INTRA.DIHEDRAL.0>
18.77

>  <SCORE.INTRA.POLAR>
0

>  <SCORE.INTRA.POLAR.0>
0

>  <SCORE.INTRA.REPUL>
0

>  <SCORE.INTRA.REPUL.0>
0

>  <SCORE.INTRA.SOLV>
4.34235

>  <SCORE.INTRA.SOLV.lig_0>
-77.2465

>  <SCORE.INTRA.VDW>
5.34076

>  <SCORE.INTRA.VDW.0>
-4.16072

>  <SCORE.INTRA.norm>
0.185692

>  <SCORE.RESTR>
10.2022

>  <SCORE.RESTR.CAVITY>
10.2022

>  <SCORE.RESTR.norm>
0.329104

>  <SCORE.SYSTEM>
0

>  <SCORE.SYSTEM.CONST>
0

>  <SCORE.SYSTEM.DIHEDRAL>
0

>  <SCORE.SYSTEM.SOLV>
0

>  <SCORE.SYSTEM.norm>
0

>  <SCORE.heavy>
31

>  <SCORE.norm>
0.724832

>  <RMSD>
6.349

$$$$
ligand
 OpenBabel11021811493D
libRbt.so/2013.1/901 2013/11/27
 31 33  0  0  0  0  0  0  0  0999 V2000
   -6.6218   -6.9014  -22.8423 C   0  0  2  0  0  0  0  0  0  0  0  0
   -7.4158   -7.6744  -21.9320 O   0  0  0  0  0  0  0  0  0  0  0  0
   -7.9517  -11.7980  -20.9161 C   0  0  2  0  0  0  0  0  0  0  0  0
   -7.6501  -13.1533  -20.5695 N   0  0  0  0  0  0  0  0  0  0  0  0
   -7.6589  -10.4756  -17.3227 C   0  0  2  0  0  0  0  0  0  0  0  0
   -5.3420   -6.4615  -22.0482 C   0  0  2  0  0  0  0  0  0  0  0  0
   -4.6425   -7.6404  -21.5494 N   0  0  0  0  0  0  0  0  0  0  0  0
   -7.2953  -11.4706  -22.3125 C   0  0  0  0  0  0  0  0  0  0  0  0
   -6.1730  -10.8563  -17.0390 C   0  0  2  0  0  0  0  0  0  0  0  0
   -5.3668  -10.4011  -18.1121 O   0  0  0  0  0  0  0  0  0  0  0  0
   -5.7500   -5.5165  -20.8648 C   0  0  0  0  0  0  0  0  0  0  0  0
   -7.6377   -9.9673  -22.7001 C   0  0  2  0  0  0  0  0  0  0  0  0
   -7.0244   -9.6477  -24.0104 N   0  0  0  0  0  0  0  0  0  0  0  0
   -6.1124  -12.4427  -16.9134 C   0  0  1  0  0  0  0  0  0  0  0  0
   -4.7024  -12.9017  -16.6713 N   0  0  0  0  0  0  0  0  0  0  0  0
   -6.7352   -4.4143  -21.3506 C   0  0  0  0  0  0  0  0  0  0  0  0
   -7.0793   -8.9873  -21.5746 C   0  0  2  0  0  0  0  0  0  0  0  0
   -7.0506  -12.9169  -15.6693 C   0  0  1  0  0  0  0  0  0  0  0  0
   -6.6233  -12.3635  -14.4397 O   0  0  0  0  0  0  0  0  0  0  0  0
   -7.4334   -4.5634  -22.4864 C   0  0  2  0  0  0  0  0  0  0  0  0
   -7.3298   -5.7229  -23.3311 O   0  0  0  0  0  0  0  0  0  0  0  0
   -7.7368   -9.3629  -20.1810 C   0  0  2  0  0  0  0  0  0  0  0  0
   -7.2239   -8.5037  -19.1550 O   0  0  0  0  0  0  0  0  0  0  0  0
   -8.5212  -12.4408  -15.9205 C   0  0  0  0  0  0  0  0  0  0  0  0
   -8.5394  -10.9463  -16.1937 O   0  0  0  0  0  0  0  0  0  0  0  0
   -8.4151   -3.4783  -22.9871 C   0  0  0  0  0  0  0  0  0  0  0  0
   -9.7102   -4.0840  -23.2632 N   0  0  0  0  0  0  0  0  0  0  0  0
   -7.3912  -10.8513  -19.8138 C   0  0  1  0  0  0  0  0  0  0  0  0
   -7.9946  -11.1479  -18.5773 O   0  0  0  0  0  0  0  0  0  0  0  0
   -7.1055  -14.4323  -15.4146 C   0  0  0  0  0  0  0  0  0  0  0  0
   -3.8802  -13.1513  -17.8704 C   0  0  0  0  0  0  0  0  0  0  0  0
  1  2  1  1  0  0  0
  1  6  1  0  0  0  0
  1 21  1  0  0  0  0
  3  4  1  1  0  0  0
  3  8  1  0  0  0  0
  3 28  1  0  0  0  0
  5  9  1  0  0  0  0
  5 25  1  0  0  0  0
  5 29  1  6  0  0  0
  6  7  1  1  0  0  0
  6 11  1  0  0  0  0
  8 12  1  0  0  0  0
  9 10  1  6  0  0  0
  9 14  1  0  0  0  0
 11 16  1  0  0  0  0
 12 13  1  6  0  0  0
 12 17  1  0  0  0  0
 14 15  1  1  0  0  0
 14 18  1  0  0  0  0
 15 31  1  0  0  0  0
 16 20  1  0  0  0  0
 17  2  1  6  0  0  0
 17 22  1  0  0  0  0
 18 19  1  1  0  0  0
 18 24  1  0  0  0  0
 18 30  1  0  0  0  0
 20 21  1  0  0  0  0
 20 26  1  6  0  0  0
 22 23  1  1  0  0  0
 22 28  1  0  0  0  0
 24 25  1  0  0  0  0
 26 27  1  0  0  0  0
 28 29  1  1  0  0  0
M  END
>  <CHROM.1>
-74.81802319,-64.57156286,-87.89006891,-83.62181513,-128.03390360,177.76502747
-6.97089785,-9.51505995,-19.76675412,-2.94318499,-1.49946071,1.04666863

>  <Name>
ligand

>  <RI>
0

>  <Rbt.Current_Directory>
/home/itssahil/PROJECTS/Mol_Feturizer/New_Systems/rnas/4F8U

>  <Rbt.Executable>
rbdock ($Id: //depot/dev/client3/rdock/2013.1/src/exe/rbdock.cxx#4 $)

>  <Rbt.Library>
libRbt.so (2013.1, Build901 2013/11/27)

>  <Rbt.Parameter_File>
/export/apps/rDock/src/rDock_2013.1_src/data/scripts/dock_solv.prm

>  <Rbt.Receptor>
prm/pocket_docking_7.prm

>  <SCORE>
-13.3162

>  <SCORE.INTER>
-9.92897

>  <SCORE.INTER.CONST>
1

>  <SCORE.INTER.POLAR>
0

>  <SCORE.INTER.ROT>
6

>  <SCORE.INTER.SOLV>
17.8115

>  <SCORE.INTER.VDW>
-20.1565

>  <SCORE.INTER.norm>
-0.320289

>  <SCORE.INTRA>
-3.38723

>  <SCORE.INTRA.DIHEDRAL>
-12.8902

>  <SCORE.INTRA.DIHEDRAL.0>
18.77

>  <SCORE.INTRA.POLAR>
0

>  <SCORE.INTRA.POLAR.0>
0

>  <SCORE.INTRA.REPUL>
0

>  <SCORE.INTRA.REPUL.0>
0

>  <SCORE.INTRA.SOLV>
1.67662

>  <SCORE.INTRA.SOLV.lig_0>
-77.2465

>  <SCORE.INTRA.VDW>
2.21955

>  <SCORE.INTRA.VDW.0>
-4.16072

>  <SCORE.INTRA.norm>
-0.109265

>  <SCORE.RESTR>
0

>  <SCORE.RESTR.CAVITY>
0

>  <SCORE.RESTR.norm>
0

>  <SCORE.SYSTEM>
0

>  <SCORE.SYSTEM.CONST>
0

>  <SCORE.SYSTEM.DIHEDRAL>
0

>  <SCORE.SYSTEM.SOLV>
0

>  <SCORE.SYSTEM.norm>
0

>  <SCORE.heavy>
31

>  <SCORE.norm>
-0.429555

>  <RMSD>
6.353

$$$$
ligand
 OpenBabel11021811493D
libRbt.so/2013.1/901 2013/11/27
 31 33  0  0  0  0  0  0  0  0999 V2000
   -9.0800   -8.7945  -12.0008 C   0  0  2  0  0  0  0  0  0  0  0  0
   -7.6805   -9.0521  -12.1783 O   0  0  0  0  0  0  0  0  0  0  0  0
   -4.8935  -11.0014   -9.5789 C   0  0  2  0  0  0  0  0  0  0  0  0
   -4.2074  -12.0361   -8.8670 N   0  0  0  0  0  0  0  0  0  0  0  0
   -2.8705  -11.6961  -12.7527 C   0  0  2  0  0  0  0  0  0  0  0  0
   -9.6195   -8.3087  -13.3919 C   0  0  2  0  0  0  0  0  0  0  0  0
   -9.3564   -9.3253  -14.4044 N   0  0  0  0  0  0  0  0  0  0  0  0
   -6.4141  -11.0163   -9.1601 C   0  0  0  0  0  0  0  0  0  0  0  0
   -3.6270  -13.0321  -13.0288 C   0  0  2  0  0  0  0  0  0  0  0  0
   -5.0190  -12.7715  -13.0842 O   0  0  0  0  0  0  0  0  0  0  0  0
   -8.9394   -6.9499  -13.7801 C   0  0  0  0  0  0  0  0  0  0  0  0
   -7.1735   -9.8614   -9.9456 C   0  0  2  0  0  0  0  0  0  0  0  0
   -8.6044   -9.8667   -9.5611 N   0  0  0  0  0  0  0  0  0  0  0  0
   -3.2796  -14.0225  -11.8310 C   0  0  1  0  0  0  0  0  0  0  0  0
   -3.9978  -15.3312  -12.0002 N   0  0  0  0  0  0  0  0  0  0  0  0
   -8.9703   -5.9536  -12.5851 C   0  0  0  0  0  0  0  0  0  0  0  0
   -7.0218  -10.0962  -11.5142 C   0  0  2  0  0  0  0  0  0  0  0  0
   -1.6735  -14.2923  -11.8089 C   0  0  1  0  0  0  0  0  0  0  0  0
   -1.2165  -14.8814  -13.0109 O   0  0  0  0  0  0  0  0  0  0  0  0
   -9.1510   -6.3873  -11.3285 C   0  0  2  0  0  0  0  0  0  0  0  0
   -9.3309   -7.7734  -10.9891 O   0  0  0  0  0  0  0  0  0  0  0  0
   -5.4822  -10.1047  -11.8953 C   0  0  2  0  0  0  0  0  0  0  0  0
   -5.3313  -10.3395  -13.3010 O   0  0  0  0  0  0  0  0  0  0  0  0
   -0.9231  -12.9294  -11.6309 C   0  0  0  0  0  0  0  0  0  0  0  0
   -1.3852  -11.9444  -12.6915 O   0  0  0  0  0  0  0  0  0  0  0  0
   -9.1874   -5.4128  -10.1282 C   0  0  0  0  0  0  0  0  0  0  0  0
  -10.5512   -5.3065   -9.6290 N   0  0  0  0  0  0  0  0  0  0  0  0
   -4.7462  -11.2493  -11.1094 C   0  0  1  0  0  0  0  0  0  0  0  0
   -3.3857  -11.2215  -11.4689 O   0  0  0  0  0  0  0  0  0  0  0  0
   -1.1698  -15.2315  -10.7004 C   0  0  0  0  0  0  0  0  0  0  0  0
   -5.3907  -15.3810  -11.5169 C   0  0  0  0  0  0  0  0  0  0  0  0
  1  2  1  6  0  0  0
  1  6  1  0  0  0  0
  1 21  1  0  0  0  0
  3  4  1  1  0  0  0
  3  8  1  0  0  0  0
  3 28  1  0  0  0  0
  5  9  1  0  0  0  0
  5 25  1  0  0  0  0
  5 29  1  1  0  0  0
  6  7  1  6  0  0  0
  6 11  1  0  0  0  0
  8 12  1  0  0  0  0
  9 10  1  1  0  0  0
  9 14  1  0  0  0  0
 11 16  1  0  0  0  0
 12 13  1  1  0  0  0
 12 17  1  0  0  0  0
 14 15  1  6  0  0  0
 14 18  1  0  0  0  0
 15 31  1  0  0  0  0
 16 20  1  0  0  0  0
 17  2  1  6  0  0  0
 17 22  1  0  0  0  0
 18 19  1  6  0  0  0
 18 24  1  0  0  0  0
 18 30  1  0  0  0  0
 20 21  1  0  0  0  0
 20 26  1  6  0  0  0
 22 23  1  6  0  0  0
 22 28  1  0  0  0  0
 24 25  1  0  0  0  0
 26 27  1  0  0  0  0
 28 29  1  6  0  0  0
M  END
>  <CHROM.1>
-144.65484783,-42.83486728,-83.48614003,-59.50792812,108.01414549,166.29442608
-5.76323156,-10.72174930,-11.66088442,3.10043134,-0.77791575,1.55966991

>  <Name>
ligand

>  <RI>
0

>  <Rbt.Current_Directory>
/home/itssahil/PROJECTS/Mol_Feturizer/New_Systems/rnas/4F8U

>  <Rbt.Executable>
rbdock ($Id: //depot/dev/client3/rdock/2013.1/src/exe/rbdock.cxx#4 $)

>  <Rbt.Library>
libRbt.so (2013.1, Build901 2013/11/27)

>  <Rbt.Parameter_File>
/export/apps/rDock/src/rDock_2013.1_src/data/scripts/dock_solv.prm

>  <Rbt.Receptor>
prm/blind_docking_40.prm

>  <SCORE>
33.4465

>  <SCORE.INTER>
24.6634

>  <SCORE.INTER.CONST>
1

>  <SCORE.INTER.POLAR>
0

>  <SCORE.INTER.ROT>
6

>  <SCORE.INTER.SOLV>
21.9124

>  <SCORE.INTER.VDW>
1.53814

>  <SCORE.INTER.norm>
0.795593

>  <SCORE.INTRA>
0.803494

>  <SCORE.INTRA.DIHEDRAL>
-9.6608

>  <SCORE.INTRA.DIHEDRAL.0>
18.77

>  <SCORE.INTRA.POLAR>
0

>  <SCORE.INTRA.POLAR.0>
0

>  <SCORE.INTRA.REPUL>
0

>  <SCORE.INTRA.REPUL.0>
0

>  <SCORE.INTRA.SOLV>
1.37303

>  <SCORE.INTRA.SOLV.lig_0>
-77.2465

>  <SCORE.INTRA.VDW>
4.94738

>  <SCORE.INTRA.VDW.0>
-4.16072

>  <SCORE.INTRA.norm>
0.0259192

>  <SCORE.RESTR>
7.97959

>  <SCORE.RESTR.CAVITY>
7.97959

>  <SCORE.RESTR.norm>
0.257406

>  <SCORE.SYSTEM>
0

>  <SCORE.SYSTEM.CONST>
0

>  <SCORE.SYSTEM.DIHEDRAL>
0

>  <SCORE.SYSTEM.SOLV>
0

>  <SCORE.SYSTEM.norm>
0

>  <SCORE.heavy>
31

>  <SCORE.norm>
1.07892

>  <RMSD>
6.357

$$$$
ligand
 OpenBabel11021811493D
libRbt.so/2013.1/901 2013/11/27
 31 33  0  0  0  0  0  0  0  0999 V2000
   -0.0691   -9.6093  -15.0400 C   0  0  2  0  0  0  0  0  0  0  0  0
    0.1245  -11.0262  -15.1467 O   0  0  0  0  0  0  0  0  0  0  0  0
   -1.0968  -14.2350  -12.5902 C   0  0  2  0  0  0  0  0  0  0  0  0
   -1.1407  -15.1311  -11.4754 N   0  0  0  0  0  0  0  0  0  0  0  0
   -3.0101  -11.6021  -10.5920 C   0  0  2  0  0  0  0  0  0  0  0  0
   -0.2276   -9.0734  -16.5061 C   0  0  2  0  0  0  0  0  0  0  0  0
   -1.3439   -9.7482  -17.1591 N   0  0  0  0  0  0  0  0  0  0  0  0
    0.3151  -14.3523  -13.2836 C   0  0  0  0  0  0  0  0  0  0  0  0
   -4.1918  -12.1775   -9.7520 C   0  0  2  0  0  0  0  0  0  0  0  0
   -3.7366  -13.3082   -9.0287 O   0  0  0  0  0  0  0  0  0  0  0  0
    1.1033   -9.3048  -17.3029 C   0  0  0  0  0  0  0  0  0  0  0  0
    0.3598  -13.3622  -14.5266 C   0  0  2  0  0  0  0  0  0  0  0  0
    1.6831  -13.4626  -15.1853 N   0  0  0  0  0  0  0  0  0  0  0  0
   -5.3414  -12.5816  -10.7774 C   0  0  1  0  0  0  0  0  0  0  0  0
   -6.5129  -13.1797  -10.0514 N   0  0  0  0  0  0  0  0  0  0  0  0
    2.3341   -8.8380  -16.4731 C   0  0  0  0  0  0  0  0  0  0  0  0
    0.1021  -11.8708  -14.0283 C   0  0  2  0  0  0  0  0  0  0  0  0
   -5.8318  -11.2529  -11.5816 C   0  0  1  0  0  0  0  0  0  0  0  0
   -6.3486  -10.2648  -10.7114 O   0  0  0  0  0  0  0  0  0  0  0  0
    2.2548   -8.6921  -15.1418 C   0  0  2  0  0  0  0  0  0  0  0  0
    1.0552   -8.9445  -14.3894 O   0  0  0  0  0  0  0  0  0  0  0  0
   -1.3107  -11.7956  -13.3114 C   0  0  2  0  0  0  0  0  0  0  0  0
   -1.5439  -10.4636  -12.8367 O   0  0  0  0  0  0  0  0  0  0  0  0
   -4.6124  -10.6288  -12.3404 C   0  0  0  0  0  0  0  0  0  0  0  0
   -3.4667  -10.3949  -11.3702 O   0  0  0  0  0  0  0  0  0  0  0  0
    3.4658   -8.2266  -14.3001 C   0  0  0  0  0  0  0  0  0  0  0  0
    4.0296   -9.3648  -13.5880 N   0  0  0  0  0  0  0  0  0  0  0  0
   -1.3392  -12.7810  -12.0875 C   0  0  1  0  0  0  0  0  0  0  0  0
   -2.6066  -12.6899  -11.4824 O   0  0  0  0  0  0  0  0  0  0  0  0
   -6.9432  -11.4742  -12.6210 C   0  0  0  0  0  0  0  0  0  0  0  0
   -6.4501  -14.6302   -9.7901 C   0  0  0  0  0  0  0  0  0  0  0  0
  1  2  1  6  0  0  0
  1  6  1  0  0  0  0
  1 21  1  0  0  0  0
  3  4  1  1  0  0  0
  3  8  1  0  0  0  0
  3 28  1  0  0  0  0
  5  9  1  0  0  0  0
  5 25  1  0  0  0  0
  5 29  1  6  0  0  0
  6  7  1  6  0  0  0
  6 11  1  0  0  0  0
  8 12  1  0  0  0  0
  9 10  1  6  0  0  0
  9 14  1  0  0  0  0
 11 16  1  0  0  0  0
 12 13  1  1  0  0  0
 12 17  1  0  0  0  0
 14 15  1  1  0  0  0
 14 18  1  0  0  0  0
 15 31  1  0  0  0  0
 16 20  1  0  0  0  0
 17  2  1  6  0  0  0
 17 22  1  0  0  0  0
 18 19  1  1  0  0  0
 18 24  1  0  0  0  0
 18 30  1  0  0  0  0
 20 21  1  0  0  0  0
 20 26  1  6  0  0  0
 22 23  1  1  0  0  0
 22 28  1  0  0  0  0
 24 25  1  0  0  0  0
 26 27  1  0  0  0  0
 28 29  1  6  0  0  0
M  END
>  <CHROM.1>
-170.16548288,-158.21160934,-86.45605079,-179.66908310,-104.56073765,162.52853618
-1.65914416,-11.42462538,-13.01498412,0.57934847,0.37316690,-0.53385430

>  <Name>
ligand

>  <RI>
0

>  <Rbt.Current_Directory>
/home/itssahil/PROJECTS/Mol_Feturizer/New_Systems/rnas/4F8U

>  <Rbt.Executable>
rbdock ($Id: //depot/dev/client3/rdock/2013.1/src/exe/rbdock.cxx#4 $)

>  <Rbt.Library>
libRbt.so (2013.1, Build901 2013/11/27)

>  <Rbt.Parameter_File>
/export/apps/rDock/src/rDock_2013.1_src/data/scripts/dock_solv.prm

>  <Rbt.Receptor>
prm/pocket_docking_8.prm

>  <SCORE>
-13.9843

>  <SCORE.INTER>
-8.51901

>  <SCORE.INTER.CONST>
1

>  <SCORE.INTER.POLAR>
0

>  <SCORE.INTER.ROT>
6

>  <SCORE.INTER.SOLV>
15.0462

>  <SCORE.INTER.VDW>
-18.2947

>  <SCORE.INTER.norm>
-0.274807

>  <SCORE.INTRA>
-5.4653

>  <SCORE.INTRA.DIHEDRAL>
-12.3309

>  <SCORE.INTRA.DIHEDRAL.0>
18.77

>  <SCORE.INTRA.POLAR>
0

>  <SCORE.INTRA.POLAR.0>
0

>  <SCORE.INTRA.REPUL>
0

>  <SCORE.INTRA.REPUL.0>
0

>  <SCORE.INTRA.SOLV>
-2.72745

>  <SCORE.INTRA.SOLV.lig_0>
-77.2465

>  <SCORE.INTRA.VDW>
2.06387

>  <SCORE.INTRA.VDW.0>
-4.16072

>  <SCORE.INTRA.norm>
-0.1763

>  <SCORE.RESTR>
0

>  <SCORE.RESTR.CAVITY>
0

>  <SCORE.RESTR.norm>
0

>  <SCORE.SYSTEM>
0

>  <SCORE.SYSTEM.CONST>
0

>  <SCORE.SYSTEM.DIHEDRAL>
0

>  <SCORE.SYSTEM.SOLV>
0

>  <SCORE.SYSTEM.norm>
0

>  <SCORE.heavy>
31

>  <SCORE.norm>
-0.451107

>  <RMSD>
6.357

$$$$
ligand
 OpenBabel11021811493D
libRbt.so/2013.1/901 2013/11/27
 31 33  0  0  0  0  0  0  0  0999 V2000
   -9.7043   -8.6865  -12.5787 C   0  0  2  0  0  0  0  0  0  0  0  0
   -8.2890   -8.8910  -12.4703 O   0  0  0  0  0  0  0  0  0  0  0  0
   -5.4602  -10.0515   -9.4745 C   0  0  2  0  0  0  0  0  0  0  0  0
   -4.8522  -10.7746   -8.3996 N   0  0  0  0  0  0  0  0  0  0  0  0
   -3.5408  -12.3436  -10.3025 C   0  0  2  0  0  0  0  0  0  0  0  0
   -9.9368   -7.9109  -13.9227 C   0  0  2  0  0  0  0  0  0  0  0  0
   -9.3905   -8.6795  -15.0356 N   0  0  0  0  0  0  0  0  0  0  0  0
   -6.8474   -9.4819   -8.9855 C   0  0  0  0  0  0  0  0  0  0  0  0
   -2.2832  -12.6080  -11.1868 C   0  0  2  0  0  0  0  0  0  0  0  0
   -1.6715  -11.3689  -11.5018 O   0  0  0  0  0  0  0  0  0  0  0  0
   -9.2646   -6.4961  -13.8425 C   0  0  0  0  0  0  0  0  0  0  0  0
   -7.5182   -8.6722  -10.1779 C   0  0  2  0  0  0  0  0  0  0  0  0
   -8.8238   -8.1334   -9.7305 N   0  0  0  0  0  0  0  0  0  0  0  0
   -2.7853  -13.3473  -12.5049 C   0  0  1  0  0  0  0  0  0  0  0  0
   -1.6352  -13.6123  -13.4347 N   0  0  0  0  0  0  0  0  0  0  0  0
   -9.6260   -5.7861  -12.5058 C   0  0  0  0  0  0  0  0  0  0  0  0
   -7.7184   -9.6373  -11.4299 C   0  0  2  0  0  0  0  0  0  0  0  0
   -3.4778  -14.7628  -12.0933 C   0  0  1  0  0  0  0  0  0  0  0  0
   -2.5745  -15.6227  -11.4258 O   0  0  0  0  0  0  0  0  0  0  0  0
  -10.0654   -6.4855  -11.4487 C   0  0  2  0  0  0  0  0  0  0  0  0
  -10.2388   -7.9132  -11.4626 O   0  0  0  0  0  0  0  0  0  0  0  0
   -6.3099  -10.2140  -11.8762 C   0  0  2  0  0  0  0  0  0  0  0  0
   -6.4794  -11.1034  -12.9871 O   0  0  0  0  0  0  0  0  0  0  0  0
   -4.6779  -14.4887  -11.1254 C   0  0  0  0  0  0  0  0  0  0  0  0
   -4.2102  -13.6471   -9.9500 O   0  0  0  0  0  0  0  0  0  0  0  0
  -10.4321   -5.7978  -10.1129 C   0  0  0  0  0  0  0  0  0  0  0  0
  -11.8683   -5.5619  -10.0653 N   0  0  0  0  0  0  0  0  0  0  0  0
   -5.6597  -11.0089  -10.6866 C   0  0  1  0  0  0  0  0  0  0  0  0
   -4.4129  -11.4992  -11.1182 O   0  0  0  0  0  0  0  0  0  0  0  0
   -4.0233  -15.6031  -13.2598 C   0  0  0  0  0  0  0  0  0  0  0  0
   -1.0458  -12.4345  -14.0993 C   0  0  0  0  0  0  0  0  0  0  0  0
  1  2  1  1  0  0  0
  1  6  1  0  0  0  0
  1 21  1  0  0  0  0
  3  4  1  1  0  0  0
  3  8  1  0  0  0  0
  3 28  1  0  0  0  0
  5  9  1  0  0  0  0
  5 25  1  0  0  0  0
  5 29  1  6  0  0  0
  6  7  1  6  0  0  0
  6 11  1  0  0  0  0
  8 12  1  0  0  0  0
  9 10  1  6  0  0  0
  9 14  1  0  0  0  0
 11 16  1  0  0  0  0
 12 13  1  1  0  0  0
 12 17  1  0  0  0  0
 14 15  1  6  0  0  0
 14 18  1  0  0  0  0
 15 31  1  0  0  0  0
 16 20  1  0  0  0  0
 17  2  1  6  0  0  0
 17 22  1  0  0  0  0
 18 19  1  1  0  0  0
 18 24  1  0  0  0  0
 18 30  1  0  0  0  0
 20 21  1  0  0  0  0
 20 26  1  6  0  0  0
 22 23  1  6  0  0  0
 22 28  1  0  0  0  0
 24 25  1  0  0  0  0
 26 27  1  0  0  0  0
 28 29  1  6  0  0  0
M  END
>  <CHROM.1>
-175.53544677,-179.10770836,-70.47539217,-85.03654187,96.33307160,63.76565416
-6.24819468,-10.44458199,-11.59774379,3.02180455,-0.74486546,1.42075651

>  <Name>
ligand

>  <RI>
0

>  <Rbt.Current_Directory>
/home/itssahil/PROJECTS/Mol_Feturizer/New_Systems/rnas/4F8U

>  <Rbt.Executable>
rbdock ($Id: //depot/dev/client3/rdock/2013.1/src/exe/rbdock.cxx#4 $)

>  <Rbt.Library>
libRbt.so (2013.1, Build901 2013/11/27)

>  <Rbt.Parameter_File>
/export/apps/rDock/src/rDock_2013.1_src/data/scripts/dock_solv.prm

>  <Rbt.Receptor>
prm/blind_docking_20.prm

>  <SCORE>
25.2119

>  <SCORE.INTER>
13.5983

>  <SCORE.INTER.CONST>
1

>  <SCORE.INTER.POLAR>
0

>  <SCORE.INTER.ROT>
6

>  <SCORE.INTER.SOLV>
20.8758

>  <SCORE.INTER.VDW>
-5.49308

>  <SCORE.INTER.norm>
0.438654

>  <SCORE.INTRA>
0.466113

>  <SCORE.INTRA.DIHEDRAL>
-13.5025

>  <SCORE.INTRA.DIHEDRAL.0>
18.77

>  <SCORE.INTRA.POLAR>
0

>  <SCORE.INTRA.POLAR.0>
0

>  <SCORE.INTRA.REPUL>
0

>  <SCORE.INTRA.REPUL.0>
0

>  <SCORE.INTRA.SOLV>
3.13819

>  <SCORE.INTRA.SOLV.lig_0>
-77.2465

>  <SCORE.INTRA.VDW>
5.64824

>  <SCORE.INTRA.VDW.0>
-4.16072

>  <SCORE.INTRA.norm>
0.0150359

>  <SCORE.RESTR>
11.1475

>  <SCORE.RESTR.CAVITY>
11.1475

>  <SCORE.RESTR.norm>
0.359596

>  <SCORE.SYSTEM>
0

>  <SCORE.SYSTEM.CONST>
0

>  <SCORE.SYSTEM.DIHEDRAL>
0

>  <SCORE.SYSTEM.SOLV>
0

>  <SCORE.SYSTEM.norm>
0

>  <SCORE.heavy>
31

>  <SCORE.norm>
0.813286

>  <RMSD>
6.360

$$$$
ligand
 OpenBabel11021811493D
libRbt.so/2013.1/901 2013/11/27
 31 33  0  0  0  0  0  0  0  0999 V2000
   -8.9241   -8.8640  -11.7945 C   0  0  2  0  0  0  0  0  0  0  0  0
   -7.5165   -9.0876  -11.9532 O   0  0  0  0  0  0  0  0  0  0  0  0
   -4.7926  -11.3750   -9.5716 C   0  0  2  0  0  0  0  0  0  0  0  0
   -4.1228  -12.4975   -8.9891 N   0  0  0  0  0  0  0  0  0  0  0  0
   -2.6711  -11.7682  -12.7139 C   0  0  2  0  0  0  0  0  0  0  0  0
   -9.4821   -8.5302  -13.2225 C   0  0  2  0  0  0  0  0  0  0  0  0
   -9.1842   -9.6274  -14.1365 N   0  0  0  0  0  0  0  0  0  0  0  0
   -6.3234  -11.4441   -9.1974 C   0  0  0  0  0  0  0  0  0  0  0  0
   -3.4624  -13.0556  -13.1008 C   0  0  2  0  0  0  0  0  0  0  0  0
   -4.8383  -12.7350  -13.2151 O   0  0  0  0  0  0  0  0  0  0  0  0
   -8.8511   -7.1906  -13.7394 C   0  0  0  0  0  0  0  0  0  0  0  0
   -7.0648  -10.1924   -9.8384 C   0  0  2  0  0  0  0  0  0  0  0  0
   -8.5050  -10.2475   -9.4947 N   0  0  0  0  0  0  0  0  0  0  0  0
   -3.2195  -14.1201  -11.9415 C   0  0  1  0  0  0  0  0  0  0  0  0
   -3.9773  -15.3875  -12.2184 N   0  0  0  0  0  0  0  0  0  0  0  0
   -8.9160   -6.0884  -12.6428 C   0  0  0  0  0  0  0  0  0  0  0  0
   -6.8729  -10.2130  -11.4201 C   0  0  2  0  0  0  0  0  0  0  0  0
   -1.6286  -14.4570  -11.8497 C   0  0  1  0  0  0  0  0  0  0  0  0
   -1.1296  -15.0016  -13.0561 O   0  0  0  0  0  0  0  0  0  0  0  0
   -9.0799   -6.4084  -11.3503 C   0  0  2  0  0  0  0  0  0  0  0  0
   -9.2100   -7.7620  -10.8818 O   0  0  0  0  0  0  0  0  0  0  0  0
   -5.3241  -10.1722  -11.7595 C   0  0  2  0  0  0  0  0  0  0  0  0
   -5.1372  -10.2148  -13.1798 O   0  0  0  0  0  0  0  0  0  0  0  0
   -0.8369  -13.1374  -11.5594 C   0  0  0  0  0  0  0  0  0  0  0  0
   -1.2021  -12.0805  -12.5882 O   0  0  0  0  0  0  0  0  0  0  0  0
   -9.1495   -5.3275  -10.2465 C   0  0  0  0  0  0  0  0  0  0  0  0
  -10.5002   -5.2709   -9.7054 N   0  0  0  0  0  0  0  0  0  0  0  0
   -4.6060  -11.4138  -11.1173 C   0  0  1  0  0  0  0  0  0  0  0  0
   -3.2369  -11.3396  -11.4352 O   0  0  0  0  0  0  0  0  0  0  0  0
   -1.2227  -15.4723  -10.7685 C   0  0  0  0  0  0  0  0  0  0  0  0
   -5.3063  -15.5063  -11.5894 C   0  0  0  0  0  0  0  0  0  0  0  0
  1  2  1  6  0  0  0
  1  6  1  0  0  0  0
  1 21  1  0  0  0  0
  3  4  1  1  0  0  0
  3  8  1  0  0  0  0
  3 28  1  0  0  0  0
  5  9  1  0  0  0  0
  5 25  1  0  0  0  0
  5 29  1  1  0  0  0
  6  7  1  6  0  0  0
  6 11  1  0  0  0  0
  8 12  1  0  0  0  0
  9 10  1  1  0  0  0
  9 14  1  0  0  0  0
 11 16  1  0  0  0  0
 12 13  1  6  0  0  0
 12 17  1  0  0  0  0
 14 15  1  6  0  0  0
 14 18  1  0  0  0  0
 15 31  1  0  0  0  0
 16 20  1  0  0  0  0
 17  2  1  6  0  0  0
 17 22  1  0  0  0  0
 18 19  1  6  0  0  0
 18 24  1  0  0  0  0
 18 30  1  0  0  0  0
 20 21  1  0  0  0  0
 20 26  1  6  0  0  0
 22 23  1  6  0  0  0
 22 28  1  0  0  0  0
 24 25  1  0  0  0  0
 26 27  1  0  0  0  0
 28 29  1  1  0  0  0
M  END
>  <CHROM.1>
-130.77838237,-38.39071036,-94.80666737,-60.42269457,110.91840798,159.70364900
-5.65331371,-10.86092501,-11.64128581,-3.04486979,-0.78078979,1.76664296

>  <Name>
ligand

>  <RI>
0

>  <Rbt.Current_Directory>
/home/itssahil/PROJECTS/Mol_Feturizer/New_Systems/rnas/4F8U

>  <Rbt.Executable>
rbdock ($Id: //depot/dev/client3/rdock/2013.1/src/exe/rbdock.cxx#4 $)

>  <Rbt.Library>
libRbt.so (2013.1, Build901 2013/11/27)

>  <Rbt.Parameter_File>
/export/apps/rDock/src/rDock_2013.1_src/data/scripts/dock_solv.prm

>  <Rbt.Receptor>
prm/blind_docking_40.prm

>  <SCORE>
34.0337

>  <SCORE.INTER>
23.5675

>  <SCORE.INTER.CONST>
1

>  <SCORE.INTER.POLAR>
0

>  <SCORE.INTER.ROT>
6

>  <SCORE.INTER.SOLV>
20.9804

>  <SCORE.INTER.VDW>
1.11822

>  <SCORE.INTER.norm>
0.760243

>  <SCORE.INTRA>
2.41651

>  <SCORE.INTRA.DIHEDRAL>
-5.67039

>  <SCORE.INTRA.DIHEDRAL.0>
18.77

>  <SCORE.INTRA.POLAR>
0

>  <SCORE.INTRA.POLAR.0>
0

>  <SCORE.INTRA.REPUL>
0

>  <SCORE.INTRA.REPUL.0>
0

>  <SCORE.INTRA.SOLV>
1.89749

>  <SCORE.INTRA.SOLV.lig_0>
-77.2465

>  <SCORE.INTRA.VDW>
4.30296

>  <SCORE.INTRA.VDW.0>
-4.16072

>  <SCORE.INTRA.norm>
0.077952

>  <SCORE.RESTR>
8.04962

>  <SCORE.RESTR.CAVITY>
8.04962

>  <SCORE.RESTR.norm>
0.259665

>  <SCORE.SYSTEM>
0

>  <SCORE.SYSTEM.CONST>
0

>  <SCORE.SYSTEM.DIHEDRAL>
0

>  <SCORE.SYSTEM.SOLV>
0

>  <SCORE.SYSTEM.norm>
0

>  <SCORE.heavy>
31

>  <SCORE.norm>
1.09786

>  <RMSD>
6.371

$$$$
ligand
 OpenBabel11021811493D
libRbt.so/2013.1/901 2013/11/27
 31 33  0  0  0  0  0  0  0  0999 V2000
  -10.1870   -7.9368  -11.5269 C   0  0  2  0  0  0  0  0  0  0  0  0
   -8.8606   -8.3267  -11.1459 O   0  0  0  0  0  0  0  0  0  0  0  0
   -6.6395  -11.7919   -9.9701 C   0  0  2  0  0  0  0  0  0  0  0  0
   -6.2116  -13.1545   -9.8788 N   0  0  0  0  0  0  0  0  0  0  0  0
   -4.0143  -11.1226  -10.9484 C   0  0  2  0  0  0  0  0  0  0  0  0
  -10.4353   -8.5479  -12.9505 C   0  0  2  0  0  0  0  0  0  0  0  0
  -10.2645   -9.9958  -12.9015 N   0  0  0  0  0  0  0  0  0  0  0  0
   -8.1437  -11.6976   -9.5046 C   0  0  0  0  0  0  0  0  0  0  0  0
   -2.7764  -10.9840  -11.8874 C   0  0  2  0  0  0  0  0  0  0  0  0
   -2.9978   -9.9123  -12.7881 O   0  0  0  0  0  0  0  0  0  0  0  0
   -9.4446   -7.9070  -13.9837 C   0  0  0  0  0  0  0  0  0  0  0  0
   -8.6154  -10.1824   -9.5989 C   0  0  2  0  0  0  0  0  0  0  0  0
  -10.0286  -10.0816   -9.1654 N   0  0  0  0  0  0  0  0  0  0  0  0
   -2.6251  -12.3634  -12.6688 C   0  0  1  0  0  0  0  0  0  0  0  0
   -1.4689  -12.3060  -13.6264 N   0  0  0  0  0  0  0  0  0  0  0  0
   -9.4171   -6.3580  -13.8374 C   0  0  0  0  0  0  0  0  0  0  0  0
   -8.4596   -9.6691  -11.0993 C   0  0  2  0  0  0  0  0  0  0  0  0
   -2.3715  -13.5613  -11.5947 C   0  0  1  0  0  0  0  0  0  0  0  0
   -1.1950  -13.3560  -10.8368 O   0  0  0  0  0  0  0  0  0  0  0  0
   -9.8399   -5.7627  -12.7120 C   0  0  2  0  0  0  0  0  0  0  0  0
  -10.3449   -6.4870  -11.5766 O   0  0  0  0  0  0  0  0  0  0  0  0
   -6.9432   -9.8052  -11.5438 C   0  0  2  0  0  0  0  0  0  0  0  0
   -6.7942   -9.3691  -12.9009 O   0  0  0  0  0  0  0  0  0  0  0  0
   -3.5765  -13.6239  -10.5965 C   0  0  0  0  0  0  0  0  0  0  0  0
   -3.8038  -12.2553   -9.9768 O   0  0  0  0  0  0  0  0  0  0  0  0
   -9.8230   -4.2249  -12.5486 C   0  0  0  0  0  0  0  0  0  0  0  0
  -11.1766   -3.7061  -12.6860 N   0  0  0  0  0  0  0  0  0  0  0  0
   -6.4922  -11.3071  -11.4427 C   0  0  1  0  0  0  0  0  0  0  0  0
   -5.1440  -11.3863  -11.8390 O   0  0  0  0  0  0  0  0  0  0  0  0
   -2.2079  -14.9691  -12.1914 C   0  0  0  0  0  0  0  0  0  0  0  0
   -1.6610  -11.4840  -14.8362 C   0  0  0  0  0  0  0  0  0  0  0  0
  1  2  1  6  0  0  0
  1  6  1  0  0  0  0
  1 21  1  0  0  0  0
  3  4  1  6  0  0  0
  3  8  1  0  0  0  0
  3 28  1  0  0  0  0
  5  9  1  0  0  0  0
  5 25  1  0  0  0  0
  5 29  1  6  0  0  0
  6  7  1  1  0  0  0
  6 11  1  0  0  0  0
  8 12  1  0  0  0  0
  9 10  1  6  0  0  0
  9 14  1  0  0  0  0
 11 16  1  0  0  0  0
 12 13  1  6  0  0  0
 12 17  1  0  0  0  0
 14 15  1  6  0  0  0
 14 18  1  0  0  0  0
 15 31  1  0  0  0  0
 16 20  1  0  0  0  0
 17  2  1  1  0  0  0
 17 22  1  0  0  0  0
 18 19  1  1  0  0  0
 18 24  1  0  0  0  0
 18 30  1  0  0  0  0
 20 21  1  0  0  0  0
 20 26  1  6  0  0  0
 22 23  1  6  0  0  0
 22 28  1  0  0  0  0
 24 25  1  0  0  0  0
 26 27  1  0  0  0  0
 28 29  1  1  0  0  0
M  END
>  <CHROM.1>
-56.50480129,-166.40426737,-72.71402383,-95.77280451,104.15879022,-35.40304920
-6.47112714,-10.12121228,-11.77668814,2.60391780,0.44100432,-0.68866796

>  <Name>
ligand

>  <RI>
0

>  <Rbt.Current_Directory>
/home/itssahil/PROJECTS/Mol_Feturizer/New_Systems/rnas/4F8U

>  <Rbt.Executable>
rbdock ($Id: //depot/dev/client3/rdock/2013.1/src/exe/rbdock.cxx#4 $)

>  <Rbt.Library>
libRbt.so (2013.1, Build901 2013/11/27)

>  <Rbt.Parameter_File>
/export/apps/rDock/src/rDock_2013.1_src/data/scripts/dock_solv.prm

>  <Rbt.Receptor>
prm/blind_docking_40.prm

>  <SCORE>
19.5502

>  <SCORE.INTER>
6.61012

>  <SCORE.INTER.CONST>
1

>  <SCORE.INTER.POLAR>
0

>  <SCORE.INTER.ROT>
6

>  <SCORE.INTER.SOLV>
13.6228

>  <SCORE.INTER.VDW>
-7.73418

>  <SCORE.INTER.norm>
0.21323

>  <SCORE.INTRA>
2.31117

>  <SCORE.INTRA.DIHEDRAL>
-8.44613

>  <SCORE.INTRA.DIHEDRAL.0>
18.77

>  <SCORE.INTRA.POLAR>
0

>  <SCORE.INTRA.POLAR.0>
0

>  <SCORE.INTRA.REPUL>
0

>  <SCORE.INTRA.REPUL.0>
0

>  <SCORE.INTRA.SOLV>
4.23685

>  <SCORE.INTRA.SOLV.lig_0>
-77.2465

>  <SCORE.INTRA.VDW>
4.41581

>  <SCORE.INTRA.VDW.0>
-4.16072

>  <SCORE.INTRA.norm>
0.0745538

>  <SCORE.RESTR>
10.6289

>  <SCORE.RESTR.CAVITY>
10.6289

>  <SCORE.RESTR.norm>
0.342869

>  <SCORE.SYSTEM>
0

>  <SCORE.SYSTEM.CONST>
0

>  <SCORE.SYSTEM.DIHEDRAL>
0

>  <SCORE.SYSTEM.SOLV>
0

>  <SCORE.SYSTEM.norm>
0

>  <SCORE.heavy>
31

>  <SCORE.norm>
0.630652

>  <RMSD>
6.383

$$$$
ligand
 OpenBabel11021811493D
libRbt.so/2013.1/901 2013/11/27
 31 33  0  0  0  0  0  0  0  0999 V2000
   -7.5013   -8.1009  -21.9395 C   0  0  2  0  0  0  0  0  0  0  0  0
   -6.4691   -9.0482  -22.2457 O   0  0  0  0  0  0  0  0  0  0  0  0
   -8.0241  -12.6189  -20.4694 C   0  0  2  0  0  0  0  0  0  0  0  0
   -8.1013  -13.9644  -19.9880 N   0  0  0  0  0  0  0  0  0  0  0  0
   -6.3425  -12.4470  -17.3012 C   0  0  2  0  0  0  0  0  0  0  0  0
   -6.8537   -6.6792  -22.0860 C   0  0  2  0  0  0  0  0  0  0  0  0
   -6.3208   -6.5174  -23.4341 N   0  0  0  0  0  0  0  0  0  0  0  0
   -7.7191  -12.6476  -22.0167 C   0  0  0  0  0  0  0  0  0  0  0  0
   -6.2213  -11.3698  -16.1795 C   0  0  2  0  0  0  0  0  0  0  0  0
   -7.5154  -11.0699  -15.6855 O   0  0  0  0  0  0  0  0  0  0  0  0
   -5.7211   -6.4988  -21.0162 C   0  0  0  0  0  0  0  0  0  0  0  0
   -7.6415  -11.1526  -22.5517 C   0  0  2  0  0  0  0  0  0  0  0  0
   -7.3536  -11.1669  -24.0050 N   0  0  0  0  0  0  0  0  0  0  0  0
   -5.5498  -10.0838  -16.8366 C   0  0  1  0  0  0  0  0  0  0  0  0
   -5.4245   -8.9774  -15.8278 N   0  0  0  0  0  0  0  0  0  0  0  0
   -6.2114   -6.9477  -19.6092 C   0  0  0  0  0  0  0  0  0  0  0  0
   -6.4977  -10.3662  -21.7693 C   0  0  2  0  0  0  0  0  0  0  0  0
   -4.0680  -10.4766  -17.3869 C   0  0  1  0  0  0  0  0  0  0  0  0
   -3.2195  -10.9329  -16.3511 O   0  0  0  0  0  0  0  0  0  0  0  0
   -7.2699   -7.7606  -19.4732 C   0  0  2  0  0  0  0  0  0  0  0  0
   -8.0237   -8.2694  -20.5875 O   0  0  0  0  0  0  0  0  0  0  0  0
   -6.8204  -10.3821  -20.2165 C   0  0  2  0  0  0  0  0  0  0  0  0
   -5.7854   -9.6984  -19.4986 O   0  0  0  0  0  0  0  0  0  0  0  0
   -4.1964  -11.6286  -18.4397 C   0  0  0  0  0  0  0  0  0  0  0  0
   -4.9780  -12.7871  -17.8432 O   0  0  0  0  0  0  0  0  0  0  0  0
   -7.7739   -8.2155  -18.0837 C   0  0  0  0  0  0  0  0  0  0  0  0
   -8.8291   -7.3196  -17.6316 N   0  0  0  0  0  0  0  0  0  0  0  0
   -6.8959  -11.8658  -19.7043 C   0  0  1  0  0  0  0  0  0  0  0  0
   -7.1882  -11.8387  -18.3277 O   0  0  0  0  0  0  0  0  0  0  0  0
   -3.2823   -9.3383  -18.0589 C   0  0  0  0  0  0  0  0  0  0  0  0
   -4.8312   -9.3414  -14.5272 C   0  0  0  0  0  0  0  0  0  0  0  0
  1  2  1  1  0  0  0
  1  6  1  0  0  0  0
  1 21  1  0  0  0  0
  3  4  1  1  0  0  0
  3  8  1  0  0  0  0
  3 28  1  0  0  0  0
  5  9  1  0  0  0  0
  5 25  1  0  0  0  0
  5 29  1  6  0  0  0
  6  7  1  6  0  0  0
  6 11  1  0  0  0  0
  8 12  1  0  0  0  0
  9 10  1  6  0  0  0
  9 14  1  0  0  0  0
 11 16  1  0  0  0  0
 12 13  1  6  0  0  0
 12 17  1  0  0  0  0
 14 15  1  1  0  0  0
 14 18  1  0  0  0  0
 15 31  1  0  0  0  0
 16 20  1  0  0  0  0
 17  2  1  6  0  0  0
 17 22  1  0  0  0  0
 18 19  1  1  0  0  0
 18 24  1  0  0  0  0
 18 30  1  0  0  0  0
 20 21  1  0  0  0  0
 20 26  1  1  0  0  0
 22 23  1  1  0  0  0
 22 28  1  0  0  0  0
 24 25  1  0  0  0  0
 26 27  1  0  0  0  0
 28 29  1  1  0  0  0
M  END
>  <CHROM.1>
156.10149518,133.77954229,49.01547106,71.69731004,93.89862871,118.56837674
-6.38780835,-9.98911067,-19.28522447,-2.56423700,1.21980501,2.87060033

>  <Name>
ligand

>  <RI>
0

>  <Rbt.Current_Directory>
/home/itssahil/PROJECTS/Mol_Feturizer/New_Systems/rnas/4F8U

>  <Rbt.Executable>
rbdock ($Id: //depot/dev/client3/rdock/2013.1/src/exe/rbdock.cxx#4 $)

>  <Rbt.Library>
libRbt.so (2013.1, Build901 2013/11/27)

>  <Rbt.Parameter_File>
/export/apps/rDock/src/rDock_2013.1_src/data/scripts/dock_solv.prm

>  <Rbt.Receptor>
prm/blind_docking_60.prm

>  <SCORE>
57.9092

>  <SCORE.INTER>
29.6689

>  <SCORE.INTER.CONST>
1

>  <SCORE.INTER.POLAR>
0

>  <SCORE.INTER.ROT>
6

>  <SCORE.INTER.SOLV>
32.6492

>  <SCORE.INTER.VDW>
1.2962

>  <SCORE.INTER.norm>
0.957062

>  <SCORE.INTRA>
11.7329

>  <SCORE.INTRA.DIHEDRAL>
0.388092

>  <SCORE.INTRA.DIHEDRAL.0>
18.77

>  <SCORE.INTRA.POLAR>
0

>  <SCORE.INTRA.POLAR.0>
0

>  <SCORE.INTRA.REPUL>
0

>  <SCORE.INTRA.REPUL.0>
0

>  <SCORE.INTRA.SOLV>
0.68433

>  <SCORE.INTRA.SOLV.lig_0>
-77.2465

>  <SCORE.INTRA.VDW>
11.1966

>  <SCORE.INTRA.VDW.0>
-4.16072

>  <SCORE.INTRA.norm>
0.378479

>  <SCORE.RESTR>
16.5074

>  <SCORE.RESTR.CAVITY>
16.5074

>  <SCORE.RESTR.norm>
0.532497

>  <SCORE.SYSTEM>
0

>  <SCORE.SYSTEM.CONST>
0

>  <SCORE.SYSTEM.DIHEDRAL>
0

>  <SCORE.SYSTEM.SOLV>
0

>  <SCORE.SYSTEM.norm>
0

>  <SCORE.heavy>
31

>  <SCORE.norm>
1.86804

>  <RMSD>
6.404

$$$$
ligand
 OpenBabel11021811493D
libRbt.so/2013.1/901 2013/11/27
 31 33  0  0  0  0  0  0  0  0999 V2000
   -5.1059   -6.2010  -21.4736 C   0  0  2  0  0  0  0  0  0  0  0  0
   -6.2510   -7.0124  -21.7681 O   0  0  0  0  0  0  0  0  0  0  0  0
   -7.6103  -10.8571  -20.4665 C   0  0  2  0  0  0  0  0  0  0  0  0
   -7.6622  -12.2724  -20.2610 N   0  0  0  0  0  0  0  0  0  0  0  0
   -7.3499  -10.0538  -17.5157 C   0  0  2  0  0  0  0  0  0  0  0  0
   -5.5423   -4.7144  -21.7216 C   0  0  2  0  0  0  0  0  0  0  0  0
   -6.6927   -4.3927  -20.8844 N   0  0  0  0  0  0  0  0  0  0  0  0
   -7.6223  -10.5661  -22.0167 C   0  0  0  0  0  0  0  0  0  0  0  0
   -6.7179  -10.1628  -16.0937 C   0  0  2  0  0  0  0  0  0  0  0  0
   -5.5443   -9.3695  -16.0479 O   0  0  0  0  0  0  0  0  0  0  0  0
   -5.8846   -4.5074  -23.2381 C   0  0  0  0  0  0  0  0  0  0  0  0
   -7.5727   -8.9934  -22.2435 C   0  0  2  0  0  0  0  0  0  0  0  0
   -7.5818   -8.7077  -23.6972 N   0  0  0  0  0  0  0  0  0  0  0  0
   -6.3773  -11.6993  -15.8497 C   0  0  1  0  0  0  0  0  0  0  0  0
   -5.7302  -11.8920  -14.5076 N   0  0  0  0  0  0  0  0  0  0  0  0
   -4.7746   -5.1142  -24.1443 C   0  0  0  0  0  0  0  0  0  0  0  0
   -6.2550   -8.4003  -21.5719 C   0  0  2  0  0  0  0  0  0  0  0  0
   -7.7537  -12.5682  -15.9099 C   0  0  1  0  0  0  0  0  0  0  0  0
   -8.6821  -12.1631  -14.9225 O   0  0  0  0  0  0  0  0  0  0  0  0
   -3.9241   -6.0374  -23.6710 C   0  0  2  0  0  0  0  0  0  0  0  0
   -3.9631   -6.5286  -22.3197 O   0  0  0  0  0  0  0  0  0  0  0  0
   -6.2616   -8.7359  -20.0218 C   0  0  2  0  0  0  0  0  0  0  0  0
   -5.0688   -8.2287  -19.4102 O   0  0  0  0  0  0  0  0  0  0  0  0
   -8.4290  -12.3699  -17.3088 C   0  0  0  0  0  0  0  0  0  0  0  0
   -8.6033  -10.8872  -17.5913 O   0  0  0  0  0  0  0  0  0  0  0  0
   -2.8129   -6.6502  -24.5550 C   0  0  0  0  0  0  0  0  0  0  0  0
   -3.1854   -8.0057  -24.9347 N   0  0  0  0  0  0  0  0  0  0  0  0
   -6.3132  -10.2929  -19.8149 C   0  0  1  0  0  0  0  0  0  0  0  0
   -6.3229  -10.5500  -18.4312 O   0  0  0  0  0  0  0  0  0  0  0  0
   -7.5966  -14.0829  -15.6967 C   0  0  0  0  0  0  0  0  0  0  0  0
   -4.2570  -11.8223  -14.4751 C   0  0  0  0  0  0  0  0  0  0  0  0
  1  2  1  6  0  0  0
  1  6  1  0  0  0  0
  1 21  1  0  0  0  0
  3  4  1  6  0  0  0
  3  8  1  0  0  0  0
  3 28  1  0  0  0  0
  5  9  1  0  0  0  0
  5 25  1  0  0  0  0
  5 29  1  6  0  0  0
  6  7  1  1  0  0  0
  6 11  1  0  0  0  0
  8 12  1  0  0  0  0
  9 10  1  6  0  0  0
  9 14  1  0  0  0  0
 11 16  1  0  0  0  0
 12 13  1  6  0  0  0
 12 17  1  0  0  0  0
 14 15  1  1  0  0  0
 14 18  1  0  0  0  0
 15 31  1  0  0  0  0
 16 20  1  0  0  0  0
 17  2  1  1  0  0  0
 17 22  1  0  0  0  0
 18 19  1  1  0  0  0
 18 24  1  0  0  0  0
 18 30  1  0  0  0  0
 20 21  1  0  0  0  0
 20 26  1  1  0  0  0
 22 23  1  6  0  0  0
 22 28  1  0  0  0  0
 24 25  1  0  0  0  0
 26 27  1  0  0  0  0
 28 29  1  1  0  0  0
M  END
>  <CHROM.1>
-175.73710174,-161.60827021,-91.01156158,-169.91293234,-105.23363929,-60.05513322
-6.23438439,-9.17135641,-19.71366367,-1.18685165,0.92711495,1.92835504

>  <Name>
ligand

>  <RI>
0

>  <Rbt.Current_Directory>
/home/itssahil/PROJECTS/Mol_Feturizer/New_Systems/rnas/4F8U

>  <Rbt.Executable>
rbdock ($Id: //depot/dev/client3/rdock/2013.1/src/exe/rbdock.cxx#4 $)

>  <Rbt.Library>
libRbt.so (2013.1, Build901 2013/11/27)

>  <Rbt.Parameter_File>
/export/apps/rDock/src/rDock_2013.1_src/data/scripts/dock_solv.prm

>  <Rbt.Receptor>
prm/pocket_docking_7.prm

>  <SCORE>
-13.4009

>  <SCORE.INTER>
-6.82796

>  <SCORE.INTER.CONST>
1

>  <SCORE.INTER.POLAR>
0

>  <SCORE.INTER.ROT>
6

>  <SCORE.INTER.SOLV>
16.9525

>  <SCORE.INTER.VDW>
-17.8028

>  <SCORE.INTER.norm>
-0.220257

>  <SCORE.INTRA>
-6.57297

>  <SCORE.INTRA.DIHEDRAL>
-14.0585

>  <SCORE.INTRA.DIHEDRAL.0>
18.77

>  <SCORE.INTRA.POLAR>
0

>  <SCORE.INTRA.POLAR.0>
0

>  <SCORE.INTRA.REPUL>
0

>  <SCORE.INTRA.REPUL.0>
0

>  <SCORE.INTRA.SOLV>
-0.793968

>  <SCORE.INTRA.SOLV.lig_0>
-77.2465

>  <SCORE.INTRA.VDW>
0.853275

>  <SCORE.INTRA.VDW.0>
-4.16072

>  <SCORE.INTRA.norm>
-0.212031

>  <SCORE.RESTR>
0

>  <SCORE.RESTR.CAVITY>
0

>  <SCORE.RESTR.norm>
0

>  <SCORE.SYSTEM>
0

>  <SCORE.SYSTEM.CONST>
0

>  <SCORE.SYSTEM.DIHEDRAL>
0

>  <SCORE.SYSTEM.SOLV>
0

>  <SCORE.SYSTEM.norm>
0

>  <SCORE.heavy>
31

>  <SCORE.norm>
-0.432288

>  <RMSD>
6.417

$$$$
ligand
 OpenBabel11021811493D
libRbt.so/2013.1/901 2013/11/27
 31 33  0  0  0  0  0  0  0  0999 V2000
   -6.6404   -6.8965  -22.7873 C   0  0  2  0  0  0  0  0  0  0  0  0
   -7.3841   -7.6444  -21.8157 O   0  0  0  0  0  0  0  0  0  0  0  0
   -8.0076  -11.7947  -20.9730 C   0  0  2  0  0  0  0  0  0  0  0  0
   -7.7353  -13.1667  -20.6708 N   0  0  0  0  0  0  0  0  0  0  0  0
   -7.7322  -10.6794  -17.3114 C   0  0  2  0  0  0  0  0  0  0  0  0
   -5.2915   -6.4921  -22.0953 C   0  0  2  0  0  0  0  0  0  0  0  0
   -4.5898   -7.6896  -21.6465 N   0  0  0  0  0  0  0  0  0  0  0  0
   -7.3092  -11.4249  -22.3381 C   0  0  0  0  0  0  0  0  0  0  0  0
   -6.3282  -11.2814  -16.9960 C   0  0  2  0  0  0  0  0  0  0  0  0
   -5.4200  -10.8922  -18.0121 O   0  0  0  0  0  0  0  0  0  0  0  0
   -5.5805   -5.5332  -20.8883 C   0  0  0  0  0  0  0  0  0  0  0  0
   -7.6189   -9.9028  -22.6767 C   0  0  2  0  0  0  0  0  0  0  0  0
   -6.9660   -9.5433  -23.9572 N   0  0  0  0  0  0  0  0  0  0  0  0
   -6.4960  -12.8646  -16.9573 C   0  0  1  0  0  0  0  0  0  0  0  0
   -5.1762  -13.5312  -16.6904 N   0  0  0  0  0  0  0  0  0  0  0  0
   -6.5681   -4.4040  -21.3020 C   0  0  0  0  0  0  0  0  0  0  0  0
   -7.0766   -8.9751  -21.5002 C   0  0  2  0  0  0  0  0  0  0  0  0
   -7.5448  -13.2624  -15.7763 C   0  0  1  0  0  0  0  0  0  0  0  0
   -7.0983  -12.8380  -14.5030 O   0  0  0  0  0  0  0  0  0  0  0  0
   -7.3551   -4.5353  -22.3805 C   0  0  2  0  0  0  0  0  0  0  0  0
   -7.3498   -5.6991  -23.2256 O   0  0  0  0  0  0  0  0  0  0  0  0
   -7.7767   -9.3929  -20.1397 C   0  0  2  0  0  0  0  0  0  0  0  0
   -7.2790   -8.5814  -19.0684 O   0  0  0  0  0  0  0  0  0  0  0  0
   -8.9218  -12.5700  -16.0534 C   0  0  0  0  0  0  0  0  0  0  0  0
   -8.7184  -11.0762  -16.2431 O   0  0  0  0  0  0  0  0  0  0  0  0
   -8.3409   -3.4235  -22.8092 C   0  0  0  0  0  0  0  0  0  0  0  0
   -7.9253   -2.8728  -24.0916 N   0  0  0  0  0  0  0  0  0  0  0  0
   -7.4630  -10.8994  -19.8209 C   0  0  1  0  0  0  0  0  0  0  0  0
   -8.1037  -11.2332  -18.6130 O   0  0  0  0  0  0  0  0  0  0  0  0
   -7.8227  -14.7655  -15.6089 C   0  0  0  0  0  0  0  0  0  0  0  0
   -4.4723  -14.0828  -17.8636 C   0  0  0  0  0  0  0  0  0  0  0  0
  1  2  1  1  0  0  0
  1  6  1  0  0  0  0
  1 21  1  0  0  0  0
  3  4  1  1  0  0  0
  3  8  1  0  0  0  0
  3 28  1  0  0  0  0
  5  9  1  0  0  0  0
  5 25  1  0  0  0  0
  5 29  1  6  0  0  0
  6  7  1  1  0  0  0
  6 11  1  0  0  0  0
  8 12  1  0  0  0  0
  9 10  1  6  0  0  0
  9 14  1  0  0  0  0
 11 16  1  0  0  0  0
 12 13  1  6  0  0  0
 12 17  1  0  0  0  0
 14 15  1  1  0  0  0
 14 18  1  0  0  0  0
 15 31  1  0  0  0  0
 16 20  1  0  0  0  0
 17  2  1  6  0  0  0
 17 22  1  0  0  0  0
 18 19  1  1  0  0  0
 18 24  1  0  0  0  0
 18 30  1  0  0  0  0
 20 21  1  0  0  0  0
 20 26  1  6  0  0  0
 22 23  1  1  0  0  0
 22 28  1  0  0  0  0
 24 25  1  0  0  0  0
 26 27  1  0  0  0  0
 28 29  1  1  0  0  0
M  END
>  <CHROM.1>
-76.21184670,-68.66932161,-99.99953720,-76.56933843,114.12650411,173.54033785
-7.03750983,-9.62437528,-19.79107350,-1.55074465,-1.49135117,2.48396619

>  <Name>
ligand

>  <RI>
0

>  <Rbt.Current_Directory>
/home/itssahil/PROJECTS/Mol_Feturizer/New_Systems/rnas/4F8U

>  <Rbt.Executable>
rbdock ($Id: //depot/dev/client3/rdock/2013.1/src/exe/rbdock.cxx#4 $)

>  <Rbt.Library>
libRbt.so (2013.1, Build901 2013/11/27)

>  <Rbt.Parameter_File>
/export/apps/rDock/src/rDock_2013.1_src/data/scripts/dock_solv.prm

>  <Rbt.Receptor>
prm/pocket_docking_7.prm

>  <SCORE>
-14.0274

>  <SCORE.INTER>
-10.146

>  <SCORE.INTER.CONST>
1

>  <SCORE.INTER.POLAR>
0

>  <SCORE.INTER.ROT>
6

>  <SCORE.INTER.SOLV>
16.0296

>  <SCORE.INTER.VDW>
-19.7072

>  <SCORE.INTER.norm>
-0.327289

>  <SCORE.INTRA>
-3.88143

>  <SCORE.INTRA.DIHEDRAL>
-13.0788

>  <SCORE.INTRA.DIHEDRAL.0>
18.77

>  <SCORE.INTRA.POLAR>
0

>  <SCORE.INTRA.POLAR.0>
0

>  <SCORE.INTRA.REPUL>
0

>  <SCORE.INTRA.REPUL.0>
0

>  <SCORE.INTRA.SOLV>
1.89098

>  <SCORE.INTRA.SOLV.lig_0>
-77.2465

>  <SCORE.INTRA.VDW>
1.7125

>  <SCORE.INTRA.VDW.0>
-4.16072

>  <SCORE.INTRA.norm>
-0.125207

>  <SCORE.RESTR>
0

>  <SCORE.RESTR.CAVITY>
0

>  <SCORE.RESTR.norm>
0

>  <SCORE.SYSTEM>
0

>  <SCORE.SYSTEM.CONST>
0

>  <SCORE.SYSTEM.DIHEDRAL>
0

>  <SCORE.SYSTEM.SOLV>
0

>  <SCORE.SYSTEM.norm>
0

>  <SCORE.heavy>
31

>  <SCORE.norm>
-0.452496

>  <RMSD>
6.422

$$$$
ligand
 OpenBabel11021811493D
libRbt.so/2013.1/901 2013/11/27
 31 33  0  0  0  0  0  0  0  0999 V2000
   -5.6973   -7.1032  -20.7351 C   0  0  2  0  0  0  0  0  0  0  0  0
   -6.4588   -8.2648  -21.0918 O   0  0  0  0  0  0  0  0  0  0  0  0
   -8.2943  -11.3035  -18.6998 C   0  0  2  0  0  0  0  0  0  0  0  0
   -8.4462  -12.4476  -17.8538 N   0  0  0  0  0  0  0  0  0  0  0  0
   -8.1324  -10.6700  -15.5750 C   0  0  2  0  0  0  0  0  0  0  0  0
   -6.7261   -5.9270  -20.5931 C   0  0  2  0  0  0  0  0  0  0  0  0
   -7.7324   -6.2709  -19.5947 N   0  0  0  0  0  0  0  0  0  0  0  0
   -7.6047  -11.7524  -20.0455 C   0  0  0  0  0  0  0  0  0  0  0  0
   -9.5311  -10.3666  -14.9546 C   0  0  2  0  0  0  0  0  0  0  0  0
  -10.5366  -10.7081  -15.8933 O   0  0  0  0  0  0  0  0  0  0  0  0
   -7.3973   -5.6382  -21.9809 C   0  0  0  0  0  0  0  0  0  0  0  0
   -7.4436  -10.4821  -20.9877 C   0  0  2  0  0  0  0  0  0  0  0  0
   -6.7949  -10.8916  -22.2552 N   0  0  0  0  0  0  0  0  0  0  0  0
   -9.5673   -8.8097  -14.6215 C   0  0  1  0  0  0  0  0  0  0  0  0
  -10.9001   -8.4215  -14.0468 N   0  0  0  0  0  0  0  0  0  0  0  0
   -6.3268   -5.5536  -23.1071 C   0  0  0  0  0  0  0  0  0  0  0  0
   -6.5636   -9.3790  -20.2477 C   0  0  2  0  0  0  0  0  0  0  0  0
   -8.3981   -8.4668  -13.5406 C   0  0  1  0  0  0  0  0  0  0  0  0
   -8.5680   -9.1779  -12.3297 O   0  0  0  0  0  0  0  0  0  0  0  0
   -5.1079   -6.0894  -22.9434 C   0  0  2  0  0  0  0  0  0  0  0  0
   -4.6970   -6.7663  -21.7427 O   0  0  0  0  0  0  0  0  0  0  0  0
   -7.2701   -8.9727  -18.8870 C   0  0  2  0  0  0  0  0  0  0  0  0
   -6.4755   -7.9981  -18.1995 O   0  0  0  0  0  0  0  0  0  0  0  0
   -7.0078   -8.8692  -14.1383 C   0  0  0  0  0  0  0  0  0  0  0  0
   -7.0430  -10.3180  -14.5949 O   0  0  0  0  0  0  0  0  0  0  0  0
   -4.0298   -6.0133  -24.0496 C   0  0  0  0  0  0  0  0  0  0  0  0
   -2.8107   -5.4352  -23.5019 N   0  0  0  0  0  0  0  0  0  0  0  0
   -7.4238  -10.2388  -17.9689 C   0  0  1  0  0  0  0  0  0  0  0  0
   -8.0575   -9.8403  -16.7770 O   0  0  0  0  0  0  0  0  0  0  0  0
   -8.2950   -6.9931  -13.1140 C   0  0  0  0  0  0  0  0  0  0  0  0
  -11.3439   -9.1725  -12.8572 C   0  0  0  0  0  0  0  0  0  0  0  0
  1  2  1  6  0  0  0
  1  6  1  0  0  0  0
  1 21  1  0  0  0  0
  3  4  1  1  0  0  0
  3  8  1  0  0  0  0
  3 28  1  0  0  0  0
  5  9  1  0  0  0  0
  5 25  1  0  0  0  0
  5 29  1  6  0  0  0
  6  7  1  1  0  0  0
  6 11  1  0  0  0  0
  8 12  1  0  0  0  0
  9 10  1  6  0  0  0
  9 14  1  0  0  0  0
 11 16  1  0  0  0  0
 12 13  1  6  0  0  0
 12 17  1  0  0  0  0
 14 15  1  1  0  0  0
 14 18  1  0  0  0  0
 15 31  1  0  0  0  0
 16 20  1  0  0  0  0
 17  2  1  6  0  0  0
 17 22  1  0  0  0  0
 18 19  1  1  0  0  0
 18 24  1  0  0  0  0
 18 30  1  0  0  0  0
 20 21  1  0  0  0  0
 20 26  1  1  0  0  0
 22 23  1  1  0  0  0
 22 28  1  0  0  0  0
 24 25  1  0  0  0  0
 26 27  1  0  0  0  0
 28 29  1  1  0  0  0
M  END
>  <CHROM.1>
-114.93255485,-144.17807216,55.18434391,-178.31607874,126.09283394,73.61232129
-7.44699523,-8.65608027,-18.24024826,-0.34337697,1.13195757,0.69082038

>  <Name>
ligand

>  <RI>
0

>  <Rbt.Current_Directory>
/home/itssahil/PROJECTS/Mol_Feturizer/New_Systems/rnas/4F8U

>  <Rbt.Executable>
rbdock ($Id: //depot/dev/client3/rdock/2013.1/src/exe/rbdock.cxx#4 $)

>  <Rbt.Library>
libRbt.so (2013.1, Build901 2013/11/27)

>  <Rbt.Parameter_File>
/export/apps/rDock/src/rDock_2013.1_src/data/scripts/dock_solv.prm

>  <Rbt.Receptor>
prm/blind_docking_80.prm

>  <SCORE>
14.4998

>  <SCORE.INTER>
0.0513538

>  <SCORE.INTER.CONST>
1

>  <SCORE.INTER.POLAR>
0

>  <SCORE.INTER.ROT>
6

>  <SCORE.INTER.SOLV>
26.029

>  <SCORE.INTER.VDW>
-16.2421

>  <SCORE.INTER.norm>
0.00165658

>  <SCORE.INTRA>
2.16875

>  <SCORE.INTRA.DIHEDRAL>
-4.37602

>  <SCORE.INTRA.DIHEDRAL.0>
18.77

>  <SCORE.INTRA.POLAR>
0

>  <SCORE.INTRA.POLAR.0>
0

>  <SCORE.INTRA.REPUL>
0

>  <SCORE.INTRA.REPUL.0>
0

>  <SCORE.INTRA.SOLV>
1.52999

>  <SCORE.INTRA.SOLV.lig_0>
-77.2465

>  <SCORE.INTRA.VDW>
3.59176

>  <SCORE.INTRA.VDW.0>
-4.16072

>  <SCORE.INTRA.norm>
0.0699595

>  <SCORE.RESTR>
12.2797

>  <SCORE.RESTR.CAVITY>
12.2797

>  <SCORE.RESTR.norm>
0.39612

>  <SCORE.SYSTEM>
0

>  <SCORE.SYSTEM.CONST>
0

>  <SCORE.SYSTEM.DIHEDRAL>
0

>  <SCORE.SYSTEM.SOLV>
0

>  <SCORE.SYSTEM.norm>
0

>  <SCORE.heavy>
31

>  <SCORE.norm>
0.467736

>  <RMSD>
6.439

$$$$
ligand
 OpenBabel11021811493D
libRbt.so/2013.1/901 2013/11/27
 31 33  0  0  0  0  0  0  0  0999 V2000
   -7.1260   -7.6383  -20.8154 C   0  0  2  0  0  0  0  0  0  0  0  0
   -6.2117   -8.6944  -20.4912 O   0  0  0  0  0  0  0  0  0  0  0  0
   -8.4670  -10.9883  -17.6672 C   0  0  2  0  0  0  0  0  0  0  0  0
   -8.7852  -11.9474  -16.6538 N   0  0  0  0  0  0  0  0  0  0  0  0
   -8.0880   -9.8901  -14.6619 C   0  0  2  0  0  0  0  0  0  0  0  0
   -7.5694   -7.8784  -22.3012 C   0  0  2  0  0  0  0  0  0  0  0  0
   -8.1680   -9.2025  -22.4286 N   0  0  0  0  0  0  0  0  0  0  0  0
   -7.8829  -11.7461  -18.9212 C   0  0  0  0  0  0  0  0  0  0  0  0
   -9.6182   -9.8988  -14.3590 C   0  0  2  0  0  0  0  0  0  0  0  0
  -10.2790  -10.6776  -15.3417 O   0  0  0  0  0  0  0  0  0  0  0  0
   -6.3321   -7.7349  -23.2544 C   0  0  0  0  0  0  0  0  0  0  0  0
   -7.5373  -10.6804  -20.0491 C   0  0  2  0  0  0  0  0  0  0  0  0
   -6.9857  -11.3811  -21.2323 N   0  0  0  0  0  0  0  0  0  0  0  0
  -10.1125   -8.3856  -14.4036 C   0  0  1  0  0  0  0  0  0  0  0  0
  -11.5917   -8.3036  -14.1537 N   0  0  0  0  0  0  0  0  0  0  0  0
   -5.5232   -6.4479  -22.9219 C   0  0  0  0  0  0  0  0  0  0  0  0
   -6.4785   -9.6322  -19.4841 C   0  0  2  0  0  0  0  0  0  0  0  0
   -9.3282   -7.5329  -13.2587 C   0  0  1  0  0  0  0  0  0  0  0  0
   -9.5734   -8.0357  -11.9595 O   0  0  0  0  0  0  0  0  0  0  0  0
   -5.6455   -5.8432  -21.7307 C   0  0  2  0  0  0  0  0  0  0  0  0
   -6.5153   -6.3191  -20.6886 O   0  0  0  0  0  0  0  0  0  0  0  0
   -7.0859   -8.9109  -18.2088 C   0  0  2  0  0  0  0  0  0  0  0  0
   -6.1329   -7.9824  -17.6763 O   0  0  0  0  0  0  0  0  0  0  0  0
   -7.7862   -7.6157  -13.5184 C   0  0  0  0  0  0  0  0  0  0  0  0
   -7.3595   -9.0699  -13.6286 O   0  0  0  0  0  0  0  0  0  0  0  0
   -4.8522   -4.5621  -21.3825 C   0  0  0  0  0  0  0  0  0  0  0  0
   -3.9852   -4.2085  -22.4977 N   0  0  0  0  0  0  0  0  0  0  0  0
   -7.4240   -9.9775  -17.1053 C   0  0  1  0  0  0  0  0  0  0  0  0
   -7.9639   -9.3016  -15.9950 O   0  0  0  0  0  0  0  0  0  0  0  0
   -9.6905   -6.0410  -13.1722 C   0  0  0  0  0  0  0  0  0  0  0  0
  -12.4670   -8.7725  -15.2447 C   0  0  0  0  0  0  0  0  0  0  0  0
  1  2  1  6  0  0  0
  1  6  1  0  0  0  0
  1 21  1  0  0  0  0
  3  4  1  1  0  0  0
  3  8  1  0  0  0  0
  3 28  1  0  0  0  0
  5  9  1  0  0  0  0
  5 25  1  0  0  0  0
  5 29  1  6  0  0  0
  6  7  1  1  0  0  0
  6 11  1  0  0  0  0
  8 12  1  0  0  0  0
  9 10  1  6  0  0  0
  9 14  1  0  0  0  0
 11 16  1  0  0  0  0
 12 13  1  6  0  0  0
 12 17  1  0  0  0  0
 14 15  1  1  0  0  0
 14 18  1  0  0  0  0
 15 31  1  0  0  0  0
 16 20  1  0  0  0  0
 17  2  1  6  0  0  0
 17 22  1  0  0  0  0
 18 19  1  1  0  0  0
 18 24  1  0  0  0  0
 18 30  1  0  0  0  0
 20 21  1  0  0  0  0
 20 26  1  6  0  0  0
 22 23  1  1  0  0  0
 22 28  1  0  0  0  0
 24 25  1  0  0  0  0
 26 27  1  0  0  0  0
 28 29  1  1  0  0  0
M  END
>  <CHROM.1>
-117.43630440,-118.36301968,-72.38991408,76.62863404,-1.93846989,76.77081115
-7.83155446,-8.54532238,-17.86200315,-0.49415948,1.08875810,0.74976523

>  <Name>
ligand

>  <RI>
0

>  <Rbt.Current_Directory>
/home/itssahil/PROJECTS/Mol_Feturizer/New_Systems/rnas/4F8U

>  <Rbt.Executable>
rbdock ($Id: //depot/dev/client3/rdock/2013.1/src/exe/rbdock.cxx#4 $)

>  <Rbt.Library>
libRbt.so (2013.1, Build901 2013/11/27)

>  <Rbt.Parameter_File>
/export/apps/rDock/src/rDock_2013.1_src/data/scripts/dock_solv.prm

>  <Rbt.Receptor>
prm/blind_docking_80.prm

>  <SCORE>
17.9369

>  <SCORE.INTER>
-0.713706

>  <SCORE.INTER.CONST>
1

>  <SCORE.INTER.POLAR>
0

>  <SCORE.INTER.ROT>
6

>  <SCORE.INTER.SOLV>
22.2368

>  <SCORE.INTER.VDW>
-15.4881

>  <SCORE.INTER.norm>
-0.0230228

>  <SCORE.INTRA>
6.59627

>  <SCORE.INTRA.DIHEDRAL>
-0.0264859

>  <SCORE.INTRA.DIHEDRAL.0>
18.77

>  <SCORE.INTRA.POLAR>
0

>  <SCORE.INTRA.POLAR.0>
0

>  <SCORE.INTRA.REPUL>
0

>  <SCORE.INTRA.REPUL.0>
0

>  <SCORE.INTRA.SOLV>
4.4835

>  <SCORE.INTRA.SOLV.lig_0>
-77.2465

>  <SCORE.INTRA.VDW>
4.36777

>  <SCORE.INTRA.VDW.0>
-4.16072

>  <SCORE.INTRA.norm>
0.212783

>  <SCORE.RESTR>
12.0544

>  <SCORE.RESTR.CAVITY>
12.0544

>  <SCORE.RESTR.norm>
0.388851

>  <SCORE.SYSTEM>
0

>  <SCORE.SYSTEM.CONST>
0

>  <SCORE.SYSTEM.DIHEDRAL>
0

>  <SCORE.SYSTEM.SOLV>
0

>  <SCORE.SYSTEM.norm>
0

>  <SCORE.heavy>
31

>  <SCORE.norm>
0.578611

>  <RMSD>
6.441

$$$$
ligand
 OpenBabel11021811493D
libRbt.so/2013.1/901 2013/11/27
 31 33  0  0  0  0  0  0  0  0999 V2000
   -8.5109   -9.0320  -11.2863 C   0  0  2  0  0  0  0  0  0  0  0  0
   -7.0907   -9.2286  -11.3186 O   0  0  0  0  0  0  0  0  0  0  0  0
   -5.0722  -12.6759   -9.7808 C   0  0  2  0  0  0  0  0  0  0  0  0
   -4.4869  -13.9802   -9.7147 N   0  0  0  0  0  0  0  0  0  0  0  0
   -1.8965  -11.7671  -11.5293 C   0  0  2  0  0  0  0  0  0  0  0  0
   -8.9790   -8.9453  -12.7814 C   0  0  2  0  0  0  0  0  0  0  0  0
   -8.5932  -10.1609  -13.4894 N   0  0  0  0  0  0  0  0  0  0  0  0
   -6.6046  -12.8216  -10.1251 C   0  0  0  0  0  0  0  0  0  0  0  0
   -2.5640  -12.2574  -12.8512 C   0  0  2  0  0  0  0  0  0  0  0  0
   -3.5703  -11.3342  -13.2304 O   0  0  0  0  0  0  0  0  0  0  0  0
   -8.3474   -7.6819  -13.4631 C   0  0  0  0  0  0  0  0  0  0  0  0
   -7.2554  -11.3726  -10.1904 C   0  0  2  0  0  0  0  0  0  0  0  0
   -8.6957  -11.4968  -10.5151 N   0  0  0  0  0  0  0  0  0  0  0  0
   -3.1888  -13.6921  -12.5554 C   0  0  1  0  0  0  0  0  0  0  0  0
   -3.8854  -14.2283  -13.7738 N   0  0  0  0  0  0  0  0  0  0  0  0
   -8.5132   -6.4247  -12.5613 C   0  0  0  0  0  0  0  0  0  0  0  0
   -6.5115  -10.5049  -11.3006 C   0  0  2  0  0  0  0  0  0  0  0  0
   -1.9972  -14.7162  -12.1261 C   0  0  1  0  0  0  0  0  0  0  0  0
   -1.0282  -14.8623  -13.1462 O   0  0  0  0  0  0  0  0  0  0  0  0
   -8.7563   -6.5440  -11.2474 C   0  0  2  0  0  0  0  0  0  0  0  0
   -8.8847   -7.8113  -10.5795 O   0  0  0  0  0  0  0  0  0  0  0  0
   -4.9704  -10.4036  -10.9394 C   0  0  2  0  0  0  0  0  0  0  0  0
   -4.2851   -9.6454  -11.9441 O   0  0  0  0  0  0  0  0  0  0  0  0
   -1.2709  -14.1600  -10.8552 C   0  0  0  0  0  0  0  0  0  0  0  0
   -0.8187  -12.7309  -11.1041 O   0  0  0  0  0  0  0  0  0  0  0  0
   -8.9268   -5.3068  -10.3353 C   0  0  0  0  0  0  0  0  0  0  0  0
  -10.1039   -5.4798   -9.4957 N   0  0  0  0  0  0  0  0  0  0  0  0
   -4.3432  -11.8431  -10.8764 C   0  0  1  0  0  0  0  0  0  0  0  0
   -2.9806  -11.7123  -10.5492 O   0  0  0  0  0  0  0  0  0  0  0  0
   -2.4372  -16.1531  -11.8003 C   0  0  0  0  0  0  0  0  0  0  0  0
   -5.1172  -13.5284  -14.1849 C   0  0  0  0  0  0  0  0  0  0  0  0
  1  2  1  6  0  0  0
  1  6  1  0  0  0  0
  1 21  1  0  0  0  0
  3  4  1  6  0  0  0
  3  8  1  0  0  0  0
  3 28  1  0  0  0  0
  5  9  1  0  0  0  0
  5 25  1  0  0  0  0
  5 29  1  1  0  0  0
  6  7  1  6  0  0  0
  6 11  1  0  0  0  0
  8 12  1  0  0  0  0
  9 10  1  1  0  0  0
  9 14  1  0  0  0  0
 11 16  1  0  0  0  0
 12 13  1  6  0  0  0
 12 17  1  0  0  0  0
 14 15  1  6  0  0  0
 14 18  1  0  0  0  0
 15 31  1  0  0  0  0
 16 20  1  0  0  0  0
 17  2  1  1  0  0  0
 17 22  1  0  0  0  0
 18 19  1  6  0  0  0
 18 24  1  0  0  0  0
 18 30  1  0  0  0  0
 20 21  1  0  0  0  0
 20 26  1  6  0  0  0
 22 23  1  6  0  0  0
 22 28  1  0  0  0  0
 24 25  1  0  0  0  0
 26 27  1  0  0  0  0
 28 29  1  1  0  0  0
M  END
>  <CHROM.1>
-92.51375329,-10.52002775,-68.44473073,-44.81905130,132.92953738,141.29357974
-5.43376701,-11.05468341,-11.61391238,2.44109460,-0.40381985,0.54298940

>  <Name>
ligand

>  <RI>
0

>  <Rbt.Current_Directory>
/home/itssahil/PROJECTS/Mol_Feturizer/New_Systems/rnas/4F8U

>  <Rbt.Executable>
rbdock ($Id: //depot/dev/client3/rdock/2013.1/src/exe/rbdock.cxx#4 $)

>  <Rbt.Library>
libRbt.so (2013.1, Build901 2013/11/27)

>  <Rbt.Parameter_File>
/export/apps/rDock/src/rDock_2013.1_src/data/scripts/dock_solv.prm

>  <Rbt.Receptor>
prm/blind_docking_40.prm

>  <SCORE>
24.6281

>  <SCORE.INTER>
-0.230822

>  <SCORE.INTER.CONST>
1

>  <SCORE.INTER.POLAR>
0

>  <SCORE.INTER.ROT>
6

>  <SCORE.INTER.SOLV>
18.2438

>  <SCORE.INTER.VDW>
-13.8351

>  <SCORE.INTER.norm>
-0.00744586

>  <SCORE.INTRA>
14.0702

>  <SCORE.INTRA.DIHEDRAL>
0.18058

>  <SCORE.INTRA.DIHEDRAL.0>
18.77

>  <SCORE.INTRA.POLAR>
0

>  <SCORE.INTRA.POLAR.0>
0

>  <SCORE.INTRA.REPUL>
0

>  <SCORE.INTRA.REPUL.0>
0

>  <SCORE.INTRA.SOLV>
6.2536

>  <SCORE.INTRA.SOLV.lig_0>
-77.2465

>  <SCORE.INTRA.VDW>
10.8532

>  <SCORE.INTRA.VDW.0>
-4.16072

>  <SCORE.INTRA.norm>
0.453879

>  <SCORE.RESTR>
10.7887

>  <SCORE.RESTR.CAVITY>
10.7887

>  <SCORE.RESTR.norm>
0.348022

>  <SCORE.SYSTEM>
0

>  <SCORE.SYSTEM.CONST>
0

>  <SCORE.SYSTEM.DIHEDRAL>
0

>  <SCORE.SYSTEM.SOLV>
0

>  <SCORE.SYSTEM.norm>
0

>  <SCORE.heavy>
31

>  <SCORE.norm>
0.794455

>  <RMSD>
6.445

$$$$
ligand
 OpenBabel11021811493D
libRbt.so/2013.1/901 2013/11/27
 31 33  0  0  0  0  0  0  0  0999 V2000
   -8.3364  -14.9798  -11.7896 C   0  0  2  0  0  0  0  0  0  0  0  0
   -8.5006  -14.6964  -13.1857 O   0  0  0  0  0  0  0  0  0  0  0  0
   -5.9508  -12.6422  -15.9430 C   0  0  2  0  0  0  0  0  0  0  0  0
   -5.2774  -11.5789  -16.6241 N   0  0  0  0  0  0  0  0  0  0  0  0
   -3.2067  -11.7189  -14.1053 C   0  0  2  0  0  0  0  0  0  0  0  0
   -9.4131  -16.0628  -11.4291 C   0  0  2  0  0  0  0  0  0  0  0  0
   -9.2278  -17.2403  -12.2699 N   0  0  0  0  0  0  0  0  0  0  0  0
   -7.5076  -12.4462  -16.1049 C   0  0  0  0  0  0  0  0  0  0  0  0
   -2.0064  -12.3650  -13.3470 C   0  0  2  0  0  0  0  0  0  0  0  0
   -1.4606  -13.4018  -14.1445 O   0  0  0  0  0  0  0  0  0  0  0  0
  -10.8510  -15.4659  -11.6193 C   0  0  0  0  0  0  0  0  0  0  0  0
   -8.2544  -13.6323  -15.3546 C   0  0  2  0  0  0  0  0  0  0  0  0
   -9.7186  -13.4578  -15.4985 N   0  0  0  0  0  0  0  0  0  0  0  0
   -2.5749  -12.9403  -11.9751 C   0  0  1  0  0  0  0  0  0  0  0  0
   -1.4849  -13.6142  -11.1908 N   0  0  0  0  0  0  0  0  0  0  0  0
  -10.9607  -14.0630  -10.9550 C   0  0  0  0  0  0  0  0  0  0  0  0
   -7.8460  -13.6282  -13.8144 C   0  0  2  0  0  0  0  0  0  0  0  0
   -3.1884  -11.7149  -11.0948 C   0  0  1  0  0  0  0  0  0  0  0  0
   -2.2117  -10.7384  -10.7891 O   0  0  0  0  0  0  0  0  0  0  0  0
   -9.8638  -13.3425  -10.6768 C   0  0  2  0  0  0  0  0  0  0  0  0
   -8.5282  -13.7960  -10.9583 O   0  0  0  0  0  0  0  0  0  0  0  0
   -6.2739  -13.7975  -13.6897 C   0  0  2  0  0  0  0  0  0  0  0  0
   -5.8908  -13.7709  -12.3090 O   0  0  0  0  0  0  0  0  0  0  0  0
   -4.3259  -11.0121  -11.9099 C   0  0  0  0  0  0  0  0  0  0  0  0
   -3.8051  -10.6093  -13.2793 O   0  0  0  0  0  0  0  0  0  0  0  0
   -9.9521  -11.9478  -10.0146 C   0  0  0  0  0  0  0  0  0  0  0  0
   -9.3337  -10.9565  -10.8836 N   0  0  0  0  0  0  0  0  0  0  0  0
   -5.5512  -12.6195  -14.4379 C   0  0  1  0  0  0  0  0  0  0  0  0
   -4.1622  -12.8071  -14.3097 O   0  0  0  0  0  0  0  0  0  0  0  0
   -3.7861  -12.1055   -9.7329 C   0  0  0  0  0  0  0  0  0  0  0  0
   -1.3625  -15.0744  -11.3613 C   0  0  0  0  0  0  0  0  0  0  0  0
  1  2  1  6  0  0  0
  1  6  1  0  0  0  0
  1 21  1  0  0  0  0
  3  4  1  6  0  0  0
  3  8  1  0  0  0  0
  3 28  1  0  0  0  0
  5  9  1  0  0  0  0
  5 25  1  0  0  0  0
  5 29  1  1  0  0  0
  6  7  1  6  0  0  0
  6 11  1  0  0  0  0
  8 12  1  0  0  0  0
  9 10  1  6  0  0  0
  9 14  1  0  0  0  0
 11 16  1  0  0  0  0
 12 13  1  1  0  0  0
 12 17  1  0  0  0  0
 14 15  1  1  0  0  0
 14 18  1  0  0  0  0
 15 31  1  0  0  0  0
 16 20  1  0  0  0  0
 17  2  1  1  0  0  0
 17 22  1  0  0  0  0
 18 19  1  1  0  0  0
 18 24  1  0  0  0  0
 18 30  1  0  0  0  0
 20 21  1  0  0  0  0
 20 26  1  1  0  0  0
 22 23  1  1  0  0  0
 22 28  1  0  0  0  0
 24 25  1  0  0  0  0
 26 27  1  0  0  0  0
 28 29  1  6  0  0  0
M  END
>  <CHROM.1>
170.04472926,152.85087625,-94.91221839,179.47338469,-121.04081903,99.14902263
-6.11017330,-13.15992024,-12.71705639,-3.05251189,-0.25203826,-1.47400111

>  <Name>
ligand

>  <RI>
0

>  <Rbt.Current_Directory>
/home/itssahil/PROJECTS/Mol_Feturizer/New_Systems/rnas/4F8U

>  <Rbt.Executable>
rbdock ($Id: //depot/dev/client3/rdock/2013.1/src/exe/rbdock.cxx#4 $)

>  <Rbt.Library>
libRbt.so (2013.1, Build901 2013/11/27)

>  <Rbt.Parameter_File>
/export/apps/rDock/src/rDock_2013.1_src/data/scripts/dock_solv.prm

>  <Rbt.Receptor>
prm/pocket_docking_6.prm

>  <SCORE>
-3.23992

>  <SCORE.INTER>
1.01865

>  <SCORE.INTER.CONST>
1

>  <SCORE.INTER.POLAR>
0

>  <SCORE.INTER.ROT>
6

>  <SCORE.INTER.SOLV>
4.67496

>  <SCORE.INTER.VDW>
-8.47922

>  <SCORE.INTER.norm>
0.0328597

>  <SCORE.INTRA>
-4.26048

>  <SCORE.INTRA.DIHEDRAL>
-7.53174

>  <SCORE.INTRA.DIHEDRAL.0>
18.77

>  <SCORE.INTRA.POLAR>
0

>  <SCORE.INTRA.POLAR.0>
0

>  <SCORE.INTRA.REPUL>
0

>  <SCORE.INTRA.REPUL.0>
0

>  <SCORE.INTRA.SOLV>
-1.73036

>  <SCORE.INTRA.SOLV.lig_0>
-77.2465

>  <SCORE.INTRA.VDW>
0.370569

>  <SCORE.INTRA.VDW.0>
-4.16072

>  <SCORE.INTRA.norm>
-0.137435

>  <SCORE.RESTR>
0.00191208

>  <SCORE.RESTR.CAVITY>
0.00191208

>  <SCORE.RESTR.norm>
6.16801e-05

>  <SCORE.SYSTEM>
0

>  <SCORE.SYSTEM.CONST>
0

>  <SCORE.SYSTEM.DIHEDRAL>
0

>  <SCORE.SYSTEM.SOLV>
0

>  <SCORE.SYSTEM.norm>
0

>  <SCORE.heavy>
31

>  <SCORE.norm>
-0.104513

>  <RMSD>
6.497

$$$$
ligand
 OpenBabel11021811493D
libRbt.so/2013.1/901 2013/11/27
 31 33  0  0  0  0  0  0  0  0999 V2000
   -9.8750   -8.8224  -12.1882 C   0  0  2  0  0  0  0  0  0  0  0  0
   -8.5052   -9.2405  -12.2618 O   0  0  0  0  0  0  0  0  0  0  0  0
   -5.3302  -10.6569   -9.7645 C   0  0  2  0  0  0  0  0  0  0  0  0
   -4.6456  -11.3157   -8.6943 N   0  0  0  0  0  0  0  0  0  0  0  0
   -4.5445  -13.6802  -10.3490 C   0  0  2  0  0  0  0  0  0  0  0  0
  -10.2005   -8.1323  -13.5592 C   0  0  2  0  0  0  0  0  0  0  0  0
   -9.9533   -9.0667  -14.6518 N   0  0  0  0  0  0  0  0  0  0  0  0
   -6.3111   -9.5815   -9.1569 C   0  0  0  0  0  0  0  0  0  0  0  0
   -3.0261  -13.3499  -10.4858 C   0  0  2  0  0  0  0  0  0  0  0  0
   -2.7893  -12.0477   -9.9789 O   0  0  0  0  0  0  0  0  0  0  0  0
   -9.3256   -6.8411  -13.7248 C   0  0  0  0  0  0  0  0  0  0  0  0
   -7.0651   -8.8449  -10.3470 C   0  0  2  0  0  0  0  0  0  0  0  0
   -7.9914   -7.8327   -9.7878 N   0  0  0  0  0  0  0  0  0  0  0  0
   -2.6672  -13.4325  -12.0352 C   0  0  1  0  0  0  0  0  0  0  0  0
   -1.2213  -13.0938  -12.2631 N   0  0  0  0  0  0  0  0  0  0  0  0
   -9.3656   -5.9755  -12.4323 C   0  0  0  0  0  0  0  0  0  0  0  0
   -7.8712   -9.9152  -11.2094 C   0  0  2  0  0  0  0  0  0  0  0  0
   -2.9535  -14.9439  -12.5706 C   0  0  1  0  0  0  0  0  0  0  0  0
   -2.1735  -15.9067  -11.8883 O   0  0  0  0  0  0  0  0  0  0  0  0
   -9.7304   -6.5069  -11.2557 C   0  0  2  0  0  0  0  0  0  0  0  0
  -10.1095   -7.8850  -11.0948 O   0  0  0  0  0  0  0  0  0  0  0  0
   -6.8600  -10.9958  -11.7797 C   0  0  2  0  0  0  0  0  0  0  0  0
   -7.5765  -11.9788  -12.5377 O   0  0  0  0  0  0  0  0  0  0  0  0
   -4.4606  -15.2984  -12.3355 C   0  0  0  0  0  0  0  0  0  0  0  0
   -4.8242  -15.0630  -10.8791 O   0  0  0  0  0  0  0  0  0  0  0  0
   -9.7790   -5.6625   -9.9610 C   0  0  0  0  0  0  0  0  0  0  0  0
  -11.1589   -5.5379   -9.5128 N   0  0  0  0  0  0  0  0  0  0  0  0
   -6.1218  -11.7125  -10.5918 C   0  0  1  0  0  0  0  0  0  0  0  0
   -5.2322  -12.6575  -11.1365 O   0  0  0  0  0  0  0  0  0  0  0  0
   -2.6600  -15.1913  -14.0596 C   0  0  0  0  0  0  0  0  0  0  0  0
   -0.9078  -11.6671  -12.4695 C   0  0  0  0  0  0  0  0  0  0  0  0
  1  2  1  6  0  0  0
  1  6  1  0  0  0  0
  1 21  1  0  0  0  0
  3  4  1  1  0  0  0
  3  8  1  0  0  0  0
  3 28  1  0  0  0  0
  5  9  1  0  0  0  0
  5 25  1  0  0  0  0
  5 29  1  6  0  0  0
  6  7  1  6  0  0  0
  6 11  1  0  0  0  0
  8 12  1  0  0  0  0
  9 10  1  6  0  0  0
  9 14  1  0  0  0  0
 11 16  1  0  0  0  0
 12 13  1  1  0  0  0
 12 17  1  0  0  0  0
 14 15  1  1  0  0  0
 14 18  1  0  0  0  0
 15 31  1  0  0  0  0
 16 20  1  0  0  0  0
 17  2  1  6  0  0  0
 17 22  1  0  0  0  0
 18 19  1  1  0  0  0
 18 24  1  0  0  0  0
 18 30  1  0  0  0  0
 20 21  1  0  0  0  0
 20 26  1  6  0  0  0
 22 23  1  1  0  0  0
 22 28  1  0  0  0  0
 24 25  1  0  0  0  0
 26 27  1  0  0  0  0
 28 29  1  6  0  0  0
M  END
>  <CHROM.1>
-179.19428902,-116.76648964,-88.45015213,-96.65372308,113.36667127,72.04834322
-6.27016065,-10.77813524,-11.45751201,2.68399940,-0.67279572,0.93313240

>  <Name>
ligand

>  <RI>
0

>  <Rbt.Current_Directory>
/home/itssahil/PROJECTS/Mol_Feturizer/New_Systems/rnas/4F8U

>  <Rbt.Executable>
rbdock ($Id: //depot/dev/client3/rdock/2013.1/src/exe/rbdock.cxx#4 $)

>  <Rbt.Library>
libRbt.so (2013.1, Build901 2013/11/27)

>  <Rbt.Parameter_File>
/export/apps/rDock/src/rDock_2013.1_src/data/scripts/dock_solv.prm

>  <Rbt.Receptor>
prm/blind_docking_20.prm

>  <SCORE>
23.0534

>  <SCORE.INTER>
7.68729

>  <SCORE.INTER.CONST>
1

>  <SCORE.INTER.POLAR>
0

>  <SCORE.INTER.ROT>
6

>  <SCORE.INTER.SOLV>
21.8358

>  <SCORE.INTER.VDW>
-9.75375

>  <SCORE.INTER.norm>
0.247977

>  <SCORE.INTRA>
4.18098

>  <SCORE.INTRA.DIHEDRAL>
-3.80718

>  <SCORE.INTRA.DIHEDRAL.0>
18.77

>  <SCORE.INTRA.POLAR>
0

>  <SCORE.INTRA.POLAR.0>
0

>  <SCORE.INTRA.REPUL>
0

>  <SCORE.INTRA.REPUL.0>
0

>  <SCORE.INTRA.SOLV>
4.67825

>  <SCORE.INTRA.SOLV.lig_0>
-77.2465

>  <SCORE.INTRA.VDW>
3.74545

>  <SCORE.INTRA.VDW.0>
-4.16072

>  <SCORE.INTRA.norm>
0.13487

>  <SCORE.RESTR>
11.1851

>  <SCORE.RESTR.CAVITY>
11.1851

>  <SCORE.RESTR.norm>
0.36081

>  <SCORE.SYSTEM>
0

>  <SCORE.SYSTEM.CONST>
0

>  <SCORE.SYSTEM.DIHEDRAL>
0

>  <SCORE.SYSTEM.SOLV>
0

>  <SCORE.SYSTEM.norm>
0

>  <SCORE.heavy>
31

>  <SCORE.norm>
0.743657

>  <RMSD>
6.508

$$$$
ligand
 OpenBabel11021811493D
libRbt.so/2013.1/901 2013/11/27
 31 33  0  0  0  0  0  0  0  0999 V2000
   -9.5200   -8.5907  -11.2783 C   0  0  2  0  0  0  0  0  0  0  0  0
   -8.2008   -9.1036  -11.0480 O   0  0  0  0  0  0  0  0  0  0  0  0
   -6.4209  -12.8343   -9.9356 C   0  0  2  0  0  0  0  0  0  0  0  0
   -6.1168  -14.2326   -9.9161 N   0  0  0  0  0  0  0  0  0  0  0  0
   -3.6287  -11.9179  -10.6980 C   0  0  2  0  0  0  0  0  0  0  0  0
   -9.8821   -8.9531  -12.7614 C   0  0  2  0  0  0  0  0  0  0  0  0
   -9.7967  -10.3970  -12.9504 N   0  0  0  0  0  0  0  0  0  0  0  0
   -7.9580  -12.6425   -9.6381 C   0  0  0  0  0  0  0  0  0  0  0  0
   -2.6137  -11.2010  -11.6409 C   0  0  2  0  0  0  0  0  0  0  0  0
   -3.2777  -10.1487  -12.3194 O   0  0  0  0  0  0  0  0  0  0  0  0
   -8.9123   -8.2067  -13.7423 C   0  0  0  0  0  0  0  0  0  0  0  0
   -8.2929  -11.0885   -9.6521 C   0  0  2  0  0  0  0  0  0  0  0  0
   -9.7356  -10.8960   -9.3752 N   0  0  0  0  0  0  0  0  0  0  0  0
   -2.0779  -12.2933  -12.6685 C   0  0  1  0  0  0  0  0  0  0  0  0
   -1.1132  -11.6773  -13.6417 N   0  0  0  0  0  0  0  0  0  0  0  0
   -8.7834   -6.7045  -13.3576 C   0  0  0  0  0  0  0  0  0  0  0  0
   -7.9164  -10.4760  -11.0740 C   0  0  2  0  0  0  0  0  0  0  0  0
   -1.3233  -13.4782  -11.8443 C   0  0  1  0  0  0  0  0  0  0  0  0
   -0.2188  -12.9924  -11.1060 O   0  0  0  0  0  0  0  0  0  0  0  0
   -9.1074   -6.2758  -12.1284 C   0  0  2  0  0  0  0  0  0  0  0  0
   -9.5925   -7.1455  -11.0905 O   0  0  0  0  0  0  0  0  0  0  0  0
   -6.3730  -10.7119  -11.3531 C   0  0  2  0  0  0  0  0  0  0  0  0
   -6.0267  -10.1867  -12.6408 O   0  0  0  0  0  0  0  0  0  0  0  0
   -2.3276  -14.1228  -10.8304 C   0  0  0  0  0  0  0  0  0  0  0  0
   -2.9469  -13.0417   -9.9606 O   0  0  0  0  0  0  0  0  0  0  0  0
   -8.9888   -4.7867  -11.7278 C   0  0  0  0  0  0  0  0  0  0  0  0
   -8.3447   -4.6830  -10.4259 N   0  0  0  0  0  0  0  0  0  0  0  0
   -6.0584  -12.2515  -11.3336 C   0  0  1  0  0  0  0  0  0  0  0  0
   -4.6827  -12.4197  -11.5790 O   0  0  0  0  0  0  0  0  0  0  0  0
   -0.7478  -14.6217  -12.6962 C   0  0  0  0  0  0  0  0  0  0  0  0
   -0.1848  -10.6700  -13.0945 C   0  0  0  0  0  0  0  0  0  0  0  0
  1  2  1  6  0  0  0
  1  6  1  0  0  0  0
  1 21  1  0  0  0  0
  3  4  1  6  0  0  0
  3  8  1  0  0  0  0
  3 28  1  0  0  0  0
  5  9  1  0  0  0  0
  5 25  1  0  0  0  0
  5 29  1  6  0  0  0
  6  7  1  1  0  0  0
  6 11  1  0  0  0  0
  8 12  1  0  0  0  0
  9 10  1  6  0  0  0
  9 14  1  0  0  0  0
 11 16  1  0  0  0  0
 12 13  1  6  0  0  0
 12 17  1  0  0  0  0
 14 15  1  6  0  0  0
 14 18  1  0  0  0  0
 15 31  1  0  0  0  0
 16 20  1  0  0  0  0
 17  2  1  1  0  0  0
 17 22  1  0  0  0  0
 18 19  1  1  0  0  0
 18 24  1  0  0  0  0
 18 30  1  0  0  0  0
 20 21  1  0  0  0  0
 20 26  1  6  0  0  0
 22 23  1  6  0  0  0
 22 28  1  0  0  0  0
 24 25  1  0  0  0  0
 26 27  1  0  0  0  0
 28 29  1  1  0  0  0
M  END
>  <CHROM.1>
-64.67352935,-132.41445459,38.89898266,-82.63225235,-134.25665170,-56.20307969
-5.79557456,-10.60485935,-11.53838952,2.58480426,0.28146376,-0.39961409

>  <Name>
ligand

>  <RI>
0

>  <Rbt.Current_Directory>
/home/itssahil/PROJECTS/Mol_Feturizer/New_Systems/rnas/4F8U

>  <Rbt.Executable>
rbdock ($Id: //depot/dev/client3/rdock/2013.1/src/exe/rbdock.cxx#4 $)

>  <Rbt.Library>
libRbt.so (2013.1, Build901 2013/11/27)

>  <Rbt.Parameter_File>
/export/apps/rDock/src/rDock_2013.1_src/data/scripts/dock_solv.prm

>  <Rbt.Receptor>
prm/blind_docking_40.prm

>  <SCORE>
17.1994

>  <SCORE.INTER>
1.96672

>  <SCORE.INTER.CONST>
1

>  <SCORE.INTER.POLAR>
0

>  <SCORE.INTER.ROT>
6

>  <SCORE.INTER.SOLV>
21.6885

>  <SCORE.INTER.VDW>
-13.5184

>  <SCORE.INTER.norm>
0.0634425

>  <SCORE.INTRA>
1.53644

>  <SCORE.INTRA.DIHEDRAL>
-7.61234

>  <SCORE.INTRA.DIHEDRAL.0>
18.77

>  <SCORE.INTRA.POLAR>
0

>  <SCORE.INTRA.POLAR.0>
0

>  <SCORE.INTRA.REPUL>
0

>  <SCORE.INTRA.REPUL.0>
0

>  <SCORE.INTRA.SOLV>
3.42454

>  <SCORE.INTRA.SOLV.lig_0>
-77.2465

>  <SCORE.INTRA.VDW>
3.63034

>  <SCORE.INTRA.VDW.0>
-4.16072

>  <SCORE.INTRA.norm>
0.0495626

>  <SCORE.RESTR>
13.6962

>  <SCORE.RESTR.CAVITY>
13.6962

>  <SCORE.RESTR.norm>
0.441813

>  <SCORE.SYSTEM>
0

>  <SCORE.SYSTEM.CONST>
0

>  <SCORE.SYSTEM.DIHEDRAL>
0

>  <SCORE.SYSTEM.SOLV>
0

>  <SCORE.SYSTEM.norm>
0

>  <SCORE.heavy>
31

>  <SCORE.norm>
0.554818

>  <RMSD>
6.508

$$$$
ligand
 OpenBabel11021811493D
libRbt.so/2013.1/901 2013/11/27
 31 33  0  0  0  0  0  0  0  0999 V2000
   -6.1409   -7.4570  -22.5189 C   0  0  2  0  0  0  0  0  0  0  0  0
   -7.1291   -8.4083  -22.1006 O   0  0  0  0  0  0  0  0  0  0  0  0
   -7.6773  -12.4934  -20.9454 C   0  0  2  0  0  0  0  0  0  0  0  0
   -7.3797  -13.8430  -20.5736 N   0  0  0  0  0  0  0  0  0  0  0  0
   -6.8804  -12.4158  -17.5306 C   0  0  2  0  0  0  0  0  0  0  0  0
   -5.1605   -7.2768  -21.3072 C   0  0  2  0  0  0  0  0  0  0  0  0
   -4.5844   -8.5667  -20.9438 N   0  0  0  0  0  0  0  0  0  0  0  0
   -7.0779  -12.2150  -22.3776 C   0  0  0  0  0  0  0  0  0  0  0  0
   -6.7987  -11.3346  -16.4091 C   0  0  2  0  0  0  0  0  0  0  0  0
   -8.1127  -10.9683  -16.0244 O   0  0  0  0  0  0  0  0  0  0  0  0
   -5.9282   -6.6498  -20.0917 C   0  0  0  0  0  0  0  0  0  0  0  0
   -7.4160  -10.7181  -22.7927 C   0  0  2  0  0  0  0  0  0  0  0  0
   -6.8560  -10.4444  -24.1368 N   0  0  0  0  0  0  0  0  0  0  0  0
   -6.0144  -10.0889  -17.0166 C   0  0  1  0  0  0  0  0  0  0  0  0
   -5.9181   -8.9799  -16.0076 N   0  0  0  0  0  0  0  0  0  0  0  0
   -6.7784   -5.4276  -20.5443 C   0  0  0  0  0  0  0  0  0  0  0  0
   -6.7956   -9.7157  -21.7208 C   0  0  2  0  0  0  0  0  0  0  0  0
   -4.5135  -10.5575  -17.4415 C   0  0  1  0  0  0  0  0  0  0  0  0
   -3.7753  -11.0437  -16.3371 O   0  0  0  0  0  0  0  0  0  0  0  0
   -7.1163   -5.2597  -21.8317 C   0  0  2  0  0  0  0  0  0  0  0  0
   -6.7280   -6.1696  -22.8757 O   0  0  0  0  0  0  0  0  0  0  0  0
   -7.3968  -10.0423  -20.2899 C   0  0  2  0  0  0  0  0  0  0  0  0
   -6.8278   -9.1627  -19.3119 O   0  0  0  0  0  0  0  0  0  0  0  0
   -4.6115  -11.7124  -18.4945 C   0  0  0  0  0  0  0  0  0  0  0  0
   -5.4944  -12.8262  -17.9571 O   0  0  0  0  0  0  0  0  0  0  0  0
   -7.9582   -4.0504  -22.3014 C   0  0  0  0  0  0  0  0  0  0  0  0
   -8.9698   -3.7434  -21.3000 N   0  0  0  0  0  0  0  0  0  0  0  0
   -7.0562  -11.5249  -19.8957 C   0  0  1  0  0  0  0  0  0  0  0  0
   -7.6092  -11.7779  -18.6264 O   0  0  0  0  0  0  0  0  0  0  0  0
   -3.6214   -9.4649  -18.0537 C   0  0  0  0  0  0  0  0  0  0  0  0
   -5.4875   -9.3653  -14.6503 C   0  0  0  0  0  0  0  0  0  0  0  0
  1  2  1  1  0  0  0
  1  6  1  0  0  0  0
  1 21  1  0  0  0  0
  3  4  1  1  0  0  0
  3  8  1  0  0  0  0
  3 28  1  0  0  0  0
  5  9  1  0  0  0  0
  5 25  1  0  0  0  0
  5 29  1  6  0  0  0
  6  7  1  1  0  0  0
  6 11  1  0  0  0  0
  8 12  1  0  0  0  0
  9 10  1  6  0  0  0
  9 14  1  0  0  0  0
 11 16  1  0  0  0  0
 12 13  1  6  0  0  0
 12 17  1  0  0  0  0
 14 15  1  1  0  0  0
 14 18  1  0  0  0  0
 15 31  1  0  0  0  0
 16 20  1  0  0  0  0
 17  2  1  6  0  0  0
 17 22  1  0  0  0  0
 18 19  1  1  0  0  0
 18 24  1  0  0  0  0
 18 30  1  0  0  0  0
 20 21  1  0  0  0  0
 20 26  1  6  0  0  0
 22 23  1  1  0  0  0
 22 28  1  0  0  0  0
 24 25  1  0  0  0  0
 26 27  1  0  0  0  0
 28 29  1  1  0  0  0
M  END
>  <CHROM.1>
-60.37855780,116.45903373,47.34805222,-113.70049364,-37.65053070,108.14524891
-6.44007421,-9.47787361,-19.71571156,2.24929389,-1.31148955,-0.07548925

>  <Name>
ligand

>  <RI>
0

>  <Rbt.Current_Directory>
/home/itssahil/PROJECTS/Mol_Feturizer/New_Systems/rnas/4F8U

>  <Rbt.Executable>
rbdock ($Id: //depot/dev/client3/rdock/2013.1/src/exe/rbdock.cxx#4 $)

>  <Rbt.Library>
libRbt.so (2013.1, Build901 2013/11/27)

>  <Rbt.Parameter_File>
/export/apps/rDock/src/rDock_2013.1_src/data/scripts/dock_solv.prm

>  <Rbt.Receptor>
prm/blind_docking_60.prm

>  <SCORE>
23.5965

>  <SCORE.INTER>
-6.26953

>  <SCORE.INTER.CONST>
1

>  <SCORE.INTER.POLAR>
0

>  <SCORE.INTER.ROT>
6

>  <SCORE.INTER.SOLV>
19.9075

>  <SCORE.INTER.VDW>
-18.4155

>  <SCORE.INTER.norm>
-0.202243

>  <SCORE.INTRA>
10.3745

>  <SCORE.INTRA.DIHEDRAL>
5.04211

>  <SCORE.INTRA.DIHEDRAL.0>
18.77

>  <SCORE.INTRA.POLAR>
0

>  <SCORE.INTRA.POLAR.0>
0

>  <SCORE.INTRA.REPUL>
0

>  <SCORE.INTRA.REPUL.0>
0

>  <SCORE.INTRA.SOLV>
4.70043

>  <SCORE.INTRA.SOLV.lig_0>
-77.2465

>  <SCORE.INTRA.VDW>
5.50322

>  <SCORE.INTRA.VDW.0>
-4.16072

>  <SCORE.INTRA.norm>
0.334661

>  <SCORE.RESTR>
19.4915

>  <SCORE.RESTR.CAVITY>
19.4915

>  <SCORE.RESTR.norm>
0.62876

>  <SCORE.SYSTEM>
0

>  <SCORE.SYSTEM.CONST>
0

>  <SCORE.SYSTEM.DIHEDRAL>
0

>  <SCORE.SYSTEM.SOLV>
0

>  <SCORE.SYSTEM.norm>
0

>  <SCORE.heavy>
31

>  <SCORE.norm>
0.761178

>  <RMSD>
6.535

$$$$
ligand
 OpenBabel11021811493D
libRbt.so/2013.1/901 2013/11/27
 31 33  0  0  0  0  0  0  0  0999 V2000
   -6.0483   -7.4071  -22.4521 C   0  0  2  0  0  0  0  0  0  0  0  0
   -7.0728   -8.3241  -22.0445 O   0  0  0  0  0  0  0  0  0  0  0  0
   -7.7830  -12.4045  -20.9631 C   0  0  2  0  0  0  0  0  0  0  0  0
   -7.5393  -13.7715  -20.6166 N   0  0  0  0  0  0  0  0  0  0  0  0
   -6.9707  -12.3985  -17.5405 C   0  0  2  0  0  0  0  0  0  0  0  0
   -5.0542   -7.2899  -21.2438 C   0  0  2  0  0  0  0  0  0  0  0  0
   -4.5301   -8.6091  -20.9076 N   0  0  0  0  0  0  0  0  0  0  0  0
   -7.1746  -12.1242  -22.3911 C   0  0  0  0  0  0  0  0  0  0  0  0
   -6.8670  -11.3295  -16.4093 C   0  0  2  0  0  0  0  0  0  0  0  0
   -8.1733  -10.9376  -16.0231 O   0  0  0  0  0  0  0  0  0  0  0  0
   -5.7881   -6.6541  -20.0121 C   0  0  0  0  0  0  0  0  0  0  0  0
   -7.4529  -10.6076  -22.7782 C   0  0  2  0  0  0  0  0  0  0  0  0
   -6.8839  -10.3319  -24.1181 N   0  0  0  0  0  0  0  0  0  0  0  0
   -6.0544  -10.0960  -17.0044 C   0  0  1  0  0  0  0  0  0  0  0  0
   -5.9353   -8.9984  -15.9854 N   0  0  0  0  0  0  0  0  0  0  0  0
   -6.5893   -5.3896  -20.4370 C   0  0  0  0  0  0  0  0  0  0  0  0
   -6.7915   -9.6506  -21.6893 C   0  0  2  0  0  0  0  0  0  0  0  0
   -4.5635  -10.5938  -17.4314 C   0  0  1  0  0  0  0  0  0  0  0  0
   -3.8381  -11.1061  -16.3303 O   0  0  0  0  0  0  0  0  0  0  0  0
   -6.9276   -5.1842  -21.7188 C   0  0  2  0  0  0  0  0  0  0  0  0
   -6.5835   -6.0902  -22.7817 O   0  0  0  0  0  0  0  0  0  0  0  0
   -7.4036   -9.9791  -20.2635 C   0  0  2  0  0  0  0  0  0  0  0  0
   -6.7987   -9.1410  -19.2707 O   0  0  0  0  0  0  0  0  0  0  0  0
   -4.6853  -11.7368  -18.4948 C   0  0  0  0  0  0  0  0  0  0  0  0
   -5.5934  -12.8356  -17.9687 O   0  0  0  0  0  0  0  0  0  0  0  0
   -7.7212   -3.9327  -22.1611 C   0  0  0  0  0  0  0  0  0  0  0  0
   -8.7441   -3.6299  -21.1700 N   0  0  0  0  0  0  0  0  0  0  0  0
   -7.1222  -11.4811  -19.8971 C   0  0  1  0  0  0  0  0  0  0  0  0
   -7.6835  -11.7349  -18.6316 O   0  0  0  0  0  0  0  0  0  0  0  0
   -3.6465   -9.5158  -18.0325 C   0  0  0  0  0  0  0  0  0  0  0  0
   -5.4663   -9.3977  -14.6449 C   0  0  0  0  0  0  0  0  0  0  0  0
  1  2  1  1  0  0  0
  1  6  1  0  0  0  0
  1 21  1  0  0  0  0
  3  4  1  1  0  0  0
  3  8  1  0  0  0  0
  3 28  1  0  0  0  0
  5  9  1  0  0  0  0
  5 25  1  0  0  0  0
  5 29  1  6  0  0  0
  6  7  1  1  0  0  0
  6 11  1  0  0  0  0
  8 12  1  0  0  0  0
  9 10  1  6  0  0  0
  9 14  1  0  0  0  0
 11 16  1  0  0  0  0
 12 13  1  6  0  0  0
 12 17  1  0  0  0  0
 14 15  1  1  0  0  0
 14 18  1  0  0  0  0
 15 31  1  0  0  0  0
 16 20  1  0  0  0  0
 17  2  1  6  0  0  0
 17 22  1  0  0  0  0
 18 19  1  1  0  0  0
 18 24  1  0  0  0  0
 18 30  1  0  0  0  0
 20 21  1  0  0  0  0
 20 26  1  6  0  0  0
 22 23  1  1  0  0  0
 22 28  1  0  0  0  0
 24 25  1  0  0  0  0
 26 27  1  0  0  0  0
 28 29  1  1  0  0  0
M  END
>  <CHROM.1>
-60.31295922,116.35763371,49.59171995,-113.46218069,-39.61084965,109.37616310
-6.42958139,-9.44548406,-19.68365138,2.08947332,-1.30688102,-0.21423585

>  <Name>
ligand

>  <RI>
0

>  <Rbt.Current_Directory>
/home/itssahil/PROJECTS/Mol_Feturizer/New_Systems/rnas/4F8U

>  <Rbt.Executable>
rbdock ($Id: //depot/dev/client3/rdock/2013.1/src/exe/rbdock.cxx#4 $)

>  <Rbt.Library>
libRbt.so (2013.1, Build901 2013/11/27)

>  <Rbt.Parameter_File>
/export/apps/rDock/src/rDock_2013.1_src/data/scripts/dock_solv.prm

>  <Rbt.Receptor>
prm/blind_docking_60.prm

>  <SCORE>
23.3972

>  <SCORE.INTER>
-6.71536

>  <SCORE.INTER.CONST>
1

>  <SCORE.INTER.POLAR>
0

>  <SCORE.INTER.ROT>
6

>  <SCORE.INTER.SOLV>
19.944

>  <SCORE.INTER.VDW>
-18.7249

>  <SCORE.INTER.norm>
-0.216625

>  <SCORE.INTRA>
10.7076

>  <SCORE.INTRA.DIHEDRAL>
5.20073

>  <SCORE.INTRA.DIHEDRAL.0>
18.77

>  <SCORE.INTRA.POLAR>
0

>  <SCORE.INTRA.POLAR.0>
0

>  <SCORE.INTRA.REPUL>
0

>  <SCORE.INTRA.REPUL.0>
0

>  <SCORE.INTRA.SOLV>
4.7369

>  <SCORE.INTRA.SOLV.lig_0>
-77.2465

>  <SCORE.INTRA.VDW>
5.73877

>  <SCORE.INTRA.VDW.0>
-4.16072

>  <SCORE.INTRA.norm>
0.345406

>  <SCORE.RESTR>
19.405

>  <SCORE.RESTR.CAVITY>
19.405

>  <SCORE.RESTR.norm>
0.625967

>  <SCORE.SYSTEM>
0

>  <SCORE.SYSTEM.CONST>
0

>  <SCORE.SYSTEM.DIHEDRAL>
0

>  <SCORE.SYSTEM.SOLV>
0

>  <SCORE.SYSTEM.norm>
0

>  <SCORE.heavy>
31

>  <SCORE.norm>
0.754748

>  <RMSD>
6.540

$$$$
ligand
 OpenBabel11021811493D
libRbt.so/2013.1/901 2013/11/27
 31 33  0  0  0  0  0  0  0  0999 V2000
   -7.9578   -7.2375  -11.9698 C   0  0  2  0  0  0  0  0  0  0  0  0
   -8.3126   -8.0386  -10.8345 O   0  0  0  0  0  0  0  0  0  0  0  0
   -7.1401  -12.0353   -9.8472 C   0  0  2  0  0  0  0  0  0  0  0  0
   -7.0939  -13.4656   -9.8385 N   0  0  0  0  0  0  0  0  0  0  0  0
   -5.1390  -12.2925  -13.0191 C   0  0  2  0  0  0  0  0  0  0  0  0
   -8.7736   -5.9033  -11.8413 C   0  0  2  0  0  0  0  0  0  0  0  0
   -8.4606   -5.2550  -10.5726 N   0  0  0  0  0  0  0  0  0  0  0  0
   -8.5815  -11.5690   -9.4081 C   0  0  0  0  0  0  0  0  0  0  0  0
   -3.9375  -13.2753  -12.8654 C   0  0  2  0  0  0  0  0  0  0  0  0
   -4.3589  -14.4074  -12.1241 O   0  0  0  0  0  0  0  0  0  0  0  0
  -10.3087   -6.2076  -11.9450 C   0  0  0  0  0  0  0  0  0  0  0  0
   -8.6292   -9.9799   -9.4105 C   0  0  2  0  0  0  0  0  0  0  0  0
   -9.9800   -9.5299   -9.0009 N   0  0  0  0  0  0  0  0  0  0  0  0
   -2.7847  -12.4884  -12.0985 C   0  0  1  0  0  0  0  0  0  0  0  0
   -1.5935  -13.3768  -11.8769 N   0  0  0  0  0  0  0  0  0  0  0  0
  -10.6075   -7.1449  -13.1507 C   0  0  0  0  0  0  0  0  0  0  0  0
   -8.2854   -9.4396  -10.8695 C   0  0  2  0  0  0  0  0  0  0  0  0
   -2.3337  -11.2004  -12.9875 C   0  0  1  0  0  0  0  0  0  0  0  0
   -1.8366  -11.5779  -14.2569 O   0  0  0  0  0  0  0  0  0  0  0  0
   -9.6400   -7.8954  -13.6987 C   0  0  2  0  0  0  0  0  0  0  0  0
   -8.2792   -7.8940  -13.2327 O   0  0  0  0  0  0  0  0  0  0  0  0
   -6.8440   -9.9506  -11.2903 C   0  0  2  0  0  0  0  0  0  0  0  0
   -6.5327   -9.4912  -12.6117 O   0  0  0  0  0  0  0  0  0  0  0  0
   -3.5736  -10.2722  -13.2183 C   0  0  0  0  0  0  0  0  0  0  0  0
   -4.7186  -11.0788  -13.8075 O   0  0  0  0  0  0  0  0  0  0  0  0
   -9.9164   -8.8308  -14.8988 C   0  0  0  0  0  0  0  0  0  0  0  0
   -8.6560   -9.3477  -15.4133 N   0  0  0  0  0  0  0  0  0  0  0  0
   -6.8131  -11.5218  -11.2807 C   0  0  1  0  0  0  0  0  0  0  0  0
   -5.5204  -11.9358  -11.6530 O   0  0  0  0  0  0  0  0  0  0  0  0
   -1.2239  -10.3261  -12.3806 C   0  0  0  0  0  0  0  0  0  0  0  0
   -1.6994  -14.3509  -10.7741 C   0  0  0  0  0  0  0  0  0  0  0  0
  1  2  1  1  0  0  0
  1  6  1  0  0  0  0
  1 21  1  0  0  0  0
  3  4  1  6  0  0  0
  3  8  1  0  0  0  0
  3 28  1  0  0  0  0
  5  9  1  0  0  0  0
  5 25  1  0  0  0  0
  5 29  1  1  0  0  0
  6  7  1  1  0  0  0
  6 11  1  0  0  0  0
  8 12  1  0  0  0  0
  9 10  1  1  0  0  0
  9 14  1  0  0  0  0
 11 16  1  0  0  0  0
 12 13  1  6  0  0  0
 12 17  1  0  0  0  0
 14 15  1  6  0  0  0
 14 18  1  0  0  0  0
 15 31  1  0  0  0  0
 16 20  1  0  0  0  0
 17  2  1  1  0  0  0
 17 22  1  0  0  0  0
 18 19  1  6  0  0  0
 18 24  1  0  0  0  0
 18 30  1  0  0  0  0
 20 21  1  0  0  0  0
 20 26  1  6  0  0  0
 22 23  1  6  0  0  0
 22 28  1  0  0  0  0
 24 25  1  0  0  0  0
 26 27  1  0  0  0  0
 28 29  1  1  0  0  0
M  END
>  <CHROM.1>
151.29801214,-154.10657682,-77.97280487,175.75091331,170.89586426,145.69429161
-6.39570298,-10.25521969,-12.02848368,-2.70522901,-0.52571143,2.37433540

>  <Name>
ligand

>  <RI>
0

>  <Rbt.Current_Directory>
/home/itssahil/PROJECTS/Mol_Feturizer/New_Systems/rnas/4F8U

>  <Rbt.Executable>
rbdock ($Id: //depot/dev/client3/rdock/2013.1/src/exe/rbdock.cxx#4 $)

>  <Rbt.Library>
libRbt.so (2013.1, Build901 2013/11/27)

>  <Rbt.Parameter_File>
/export/apps/rDock/src/rDock_2013.1_src/data/scripts/dock_solv.prm

>  <Rbt.Receptor>
prm/blind_docking_40.prm

>  <SCORE>
20.3417

>  <SCORE.INTER>
8.64296

>  <SCORE.INTER.CONST>
1

>  <SCORE.INTER.POLAR>
0

>  <SCORE.INTER.ROT>
6

>  <SCORE.INTER.SOLV>
20.7585

>  <SCORE.INTER.VDW>
-8.75753

>  <SCORE.INTER.norm>
0.278805

>  <SCORE.INTRA>
-0.549003

>  <SCORE.INTRA.DIHEDRAL>
-4.3495

>  <SCORE.INTRA.DIHEDRAL.0>
18.77

>  <SCORE.INTRA.POLAR>
0

>  <SCORE.INTRA.POLAR.0>
0

>  <SCORE.INTRA.REPUL>
0

>  <SCORE.INTRA.REPUL.0>
0

>  <SCORE.INTRA.SOLV>
-1.10723

>  <SCORE.INTRA.SOLV.lig_0>
-77.2465

>  <SCORE.INTRA.VDW>
2.17936

>  <SCORE.INTRA.VDW.0>
-4.16072

>  <SCORE.INTRA.norm>
-0.0177098

>  <SCORE.RESTR>
12.2477

>  <SCORE.RESTR.CAVITY>
12.2477

>  <SCORE.RESTR.norm>
0.395088

>  <SCORE.SYSTEM>
0

>  <SCORE.SYSTEM.CONST>
0

>  <SCORE.SYSTEM.DIHEDRAL>
0

>  <SCORE.SYSTEM.SOLV>
0

>  <SCORE.SYSTEM.norm>
0

>  <SCORE.heavy>
31

>  <SCORE.norm>
0.656184

>  <RMSD>
6.542

$$$$
ligand
 OpenBabel11021811493D
libRbt.so/2013.1/901 2013/11/27
 31 33  0  0  0  0  0  0  0  0999 V2000
   -6.2388   -8.3274  -21.6770 C   0  0  2  0  0  0  0  0  0  0  0  0
   -7.2414   -8.4604  -20.6604 O   0  0  0  0  0  0  0  0  0  0  0  0
   -7.8786  -10.8169  -17.1441 C   0  0  2  0  0  0  0  0  0  0  0  0
   -7.6398  -11.4595  -15.8879 N   0  0  0  0  0  0  0  0  0  0  0  0
   -9.2059   -9.6248  -14.9246 C   0  0  2  0  0  0  0  0  0  0  0  0
   -4.9478   -7.8000  -20.9579 C   0  0  2  0  0  0  0  0  0  0  0  0
   -4.5600   -8.7265  -19.9001 N   0  0  0  0  0  0  0  0  0  0  0  0
   -6.8274  -11.3449  -18.1949 C   0  0  0  0  0  0  0  0  0  0  0  0
  -10.4498   -8.8482  -14.3926 C   0  0  2  0  0  0  0  0  0  0  0  0
  -11.4002   -8.7275  -15.4371 O   0  0  0  0  0  0  0  0  0  0  0  0
   -5.2130   -6.3692  -20.3726 C   0  0  0  0  0  0  0  0  0  0  0  0
   -7.0987  -10.6363  -19.5919 C   0  0  2  0  0  0  0  0  0  0  0  0
   -6.1154  -11.1237  -20.5873 N   0  0  0  0  0  0  0  0  0  0  0  0
   -9.9394   -7.4162  -13.9181 C   0  0  1  0  0  0  0  0  0  0  0  0
  -11.0859   -6.5838  -13.4182 N   0  0  0  0  0  0  0  0  0  0  0  0
   -5.8966   -5.4558  -21.4308 C   0  0  0  0  0  0  0  0  0  0  0  0
   -6.9750   -9.0571  -19.4203 C   0  0  2  0  0  0  0  0  0  0  0  0
   -8.8532   -7.6059  -12.7193 C   0  0  1  0  0  0  0  0  0  0  0  0
   -9.4080   -8.2668  -11.5984 O   0  0  0  0  0  0  0  0  0  0  0  0
   -6.5351   -5.9807  -22.4875 C   0  0  2  0  0  0  0  0  0  0  0  0
   -6.6356   -7.3953  -22.7272 O   0  0  0  0  0  0  0  0  0  0  0  0
   -8.0241   -8.5649  -18.3373 C   0  0  2  0  0  0  0  0  0  0  0  0
   -7.9060   -7.1482  -18.1558 O   0  0  0  0  0  0  0  0  0  0  0  0
   -7.6564   -8.4720  -13.2388 C   0  0  0  0  0  0  0  0  0  0  0  0
   -8.1787   -9.7700  -13.8314 O   0  0  0  0  0  0  0  0  0  0  0  0
   -7.2181   -5.0896  -23.5511 C   0  0  0  0  0  0  0  0  0  0  0  0
   -7.8172   -3.9312  -22.9033 N   0  0  0  0  0  0  0  0  0  0  0  0
   -7.7439   -9.2758  -16.9640 C   0  0  1  0  0  0  0  0  0  0  0  0
   -8.6954   -8.8188  -16.0331 O   0  0  0  0  0  0  0  0  0  0  0  0
   -8.2557   -6.3091  -12.1486 C   0  0  0  0  0  0  0  0  0  0  0  0
  -10.8419   -5.1332  -13.3064 C   0  0  0  0  0  0  0  0  0  0  0  0
  1  2  1  1  0  0  0
  1  6  1  0  0  0  0
  1 21  1  0  0  0  0
  3  4  1  1  0  0  0
  3  8  1  0  0  0  0
  3 28  1  0  0  0  0
  5  9  1  0  0  0  0
  5 25  1  0  0  0  0
  5 29  1  6  0  0  0
  6  7  1  1  0  0  0
  6 11  1  0  0  0  0
  8 12  1  0  0  0  0
  9 10  1  6  0  0  0
  9 14  1  0  0  0  0
 11 16  1  0  0  0  0
 12 13  1  6  0  0  0
 12 17  1  0  0  0  0
 14 15  1  1  0  0  0
 14 18  1  0  0  0  0
 15 31  1  0  0  0  0
 16 20  1  0  0  0  0
 17  2  1  6  0  0  0
 17 22  1  0  0  0  0
 18 19  1  1  0  0  0
 18 24  1  0  0  0  0
 18 30  1  0  0  0  0
 20 21  1  0  0  0  0
 20 26  1  6  0  0  0
 22 23  1  1  0  0  0
 22 28  1  0  0  0  0
 24 25  1  0  0  0  0
 26 27  1  0  0  0  0
 28 29  1  1  0  0  0
M  END
>  <CHROM.1>
-45.47443989,-166.92672380,-163.30985289,-83.08868548,-36.79033207,29.77253456
-7.84888630,-8.12921992,-17.57423902,-0.69685386,-1.09787800,2.49532020

>  <Name>
ligand

>  <RI>
0

>  <Rbt.Current_Directory>
/home/itssahil/PROJECTS/Mol_Feturizer/New_Systems/rnas/4F8U

>  <Rbt.Executable>
rbdock ($Id: //depot/dev/client3/rdock/2013.1/src/exe/rbdock.cxx#4 $)

>  <Rbt.Library>
libRbt.so (2013.1, Build901 2013/11/27)

>  <Rbt.Parameter_File>
/export/apps/rDock/src/rDock_2013.1_src/data/scripts/dock_solv.prm

>  <Rbt.Receptor>
prm/blind_docking_80.prm

>  <SCORE>
31.8073

>  <SCORE.INTER>
14.5937

>  <SCORE.INTER.CONST>
1

>  <SCORE.INTER.POLAR>
0

>  <SCORE.INTER.ROT>
6

>  <SCORE.INTER.SOLV>
21.6159

>  <SCORE.INTER.VDW>
-5.07616

>  <SCORE.INTER.norm>
0.470765

>  <SCORE.INTRA>
6.44237

>  <SCORE.INTRA.DIHEDRAL>
-7.80639

>  <SCORE.INTRA.DIHEDRAL.0>
18.77

>  <SCORE.INTRA.POLAR>
0

>  <SCORE.INTRA.POLAR.0>
0

>  <SCORE.INTRA.REPUL>
0

>  <SCORE.INTRA.REPUL.0>
0

>  <SCORE.INTRA.SOLV>
4.90876

>  <SCORE.INTRA.SOLV.lig_0>
-77.2465

>  <SCORE.INTRA.VDW>
7.89119

>  <SCORE.INTRA.VDW.0>
-4.16072

>  <SCORE.INTRA.norm>
0.207818

>  <SCORE.RESTR>
10.7712

>  <SCORE.RESTR.CAVITY>
10.7712

>  <SCORE.RESTR.norm>
0.347459

>  <SCORE.SYSTEM>
0

>  <SCORE.SYSTEM.CONST>
0

>  <SCORE.SYSTEM.DIHEDRAL>
0

>  <SCORE.SYSTEM.SOLV>
0

>  <SCORE.SYSTEM.norm>
0

>  <SCORE.heavy>
31

>  <SCORE.norm>
1.02604

>  <RMSD>
6.549

$$$$
ligand
 OpenBabel11021811493D
libRbt.so/2013.1/901 2013/11/27
 31 33  0  0  0  0  0  0  0  0999 V2000
   -6.0225   -8.8324  -20.7085 C   0  0  2  0  0  0  0  0  0  0  0  0
   -7.0244   -8.6955  -19.6917 O   0  0  0  0  0  0  0  0  0  0  0  0
   -7.6841  -10.8169  -16.0327 C   0  0  2  0  0  0  0  0  0  0  0  0
   -7.4975  -11.2953  -14.6969 N   0  0  0  0  0  0  0  0  0  0  0  0
   -9.3446   -9.5829  -13.9941 C   0  0  2  0  0  0  0  0  0  0  0  0
   -6.2884   -7.6872  -21.7476 C   0  0  2  0  0  0  0  0  0  0  0  0
   -6.2391   -6.3927  -21.0771 N   0  0  0  0  0  0  0  0  0  0  0  0
   -6.4368  -11.2349  -16.9030 C   0  0  0  0  0  0  0  0  0  0  0  0
  -10.6242   -8.8366  -13.5053 C   0  0  2  0  0  0  0  0  0  0  0  0
  -11.6298   -8.9457  -14.4981 O   0  0  0  0  0  0  0  0  0  0  0  0
   -7.6826   -7.9046  -22.4324 C   0  0  0  0  0  0  0  0  0  0  0  0
   -6.6490  -10.7098  -18.3885 C   0  0  2  0  0  0  0  0  0  0  0  0
   -5.4818  -11.0955  -19.2156 N   0  0  0  0  0  0  0  0  0  0  0  0
  -10.2174   -7.3149  -13.2707 C   0  0  1  0  0  0  0  0  0  0  0  0
  -11.4065   -6.5106  -12.8275 N   0  0  0  0  0  0  0  0  0  0  0  0
   -7.8466   -9.3801  -22.8987 C   0  0  0  0  0  0  0  0  0  0  0  0
   -6.8165   -9.1253  -18.3738 C   0  0  2  0  0  0  0  0  0  0  0  0
   -9.0634   -7.2406  -12.1237 C   0  0  1  0  0  0  0  0  0  0  0  0
   -9.5055   -7.7711  -10.8892 O   0  0  0  0  0  0  0  0  0  0  0  0
   -7.0888  -10.3574  -22.3786 C   0  0  2  0  0  0  0  0  0  0  0  0
   -6.0841  -10.1290  -21.3751 O   0  0  0  0  0  0  0  0  0  0  0  0
   -8.0596   -8.7393  -17.4676 C   0  0  2  0  0  0  0  0  0  0  0  0
   -8.2064   -7.3142  -17.4264 O   0  0  0  0  0  0  0  0  0  0  0  0
   -7.8223   -8.0770  -12.5845 C   0  0  0  0  0  0  0  0  0  0  0  0
   -8.2581   -9.4849  -12.9541 O   0  0  0  0  0  0  0  0  0  0  0  0
   -7.2350  -11.8291  -22.8308 C   0  0  0  0  0  0  0  0  0  0  0  0
   -7.0664  -11.9135  -24.2748 N   0  0  0  0  0  0  0  0  0  0  0  0
   -7.8355   -9.2671  -16.0044 C   0  0  1  0  0  0  0  0  0  0  0  0
   -8.9584   -8.9109  -15.2343 O   0  0  0  0  0  0  0  0  0  0  0  0
   -8.5537   -5.8311  -11.7800 C   0  0  0  0  0  0  0  0  0  0  0  0
  -11.4203   -5.0897  -13.2235 C   0  0  0  0  0  0  0  0  0  0  0  0
  1  2  1  1  0  0  0
  1  6  1  0  0  0  0
  1 21  1  0  0  0  0
  3  4  1  1  0  0  0
  3  8  1  0  0  0  0
  3 28  1  0  0  0  0
  5  9  1  0  0  0  0
  5 25  1  0  0  0  0
  5 29  1  6  0  0  0
  6  7  1  1  0  0  0
  6 11  1  0  0  0  0
  8 12  1  0  0  0  0
  9 10  1  6  0  0  0
  9 14  1  0  0  0  0
 11 16  1  0  0  0  0
 12 13  1  6  0  0  0
 12 17  1  0  0  0  0
 14 15  1  1  0  0  0
 14 18  1  0  0  0  0
 15 31  1  0  0  0  0
 16 20  1  0  0  0  0
 17  2  1  6  0  0  0
 17 22  1  0  0  0  0
 18 19  1  1  0  0  0
 18 24  1  0  0  0  0
 18 30  1  0  0  0  0
 20 21  1  0  0  0  0
 20 26  1  6  0  0  0
 22 23  1  1  0  0  0
 22 28  1  0  0  0  0
 24 25  1  0  0  0  0
 26 27  1  0  0  0  0
 28 29  1  1  0  0  0
M  END
>  <CHROM.1>
-152.74397019,179.42196216,-149.42339032,-64.85080080,55.60350211,39.09633198
-8.08976801,-8.89250378,-17.08107763,0.78900257,1.13136429,-1.07454565

>  <Name>
ligand

>  <RI>
0

>  <Rbt.Current_Directory>
/home/itssahil/PROJECTS/Mol_Feturizer/New_Systems/rnas/4F8U

>  <Rbt.Executable>
rbdock ($Id: //depot/dev/client3/rdock/2013.1/src/exe/rbdock.cxx#4 $)

>  <Rbt.Library>
libRbt.so (2013.1, Build901 2013/11/27)

>  <Rbt.Parameter_File>
/export/apps/rDock/src/rDock_2013.1_src/data/scripts/dock_solv.prm

>  <Rbt.Receptor>
prm/blind_docking_80.prm

>  <SCORE>
43.0504

>  <SCORE.INTER>
31.272

>  <SCORE.INTER.CONST>
1

>  <SCORE.INTER.POLAR>
0

>  <SCORE.INTER.ROT>
6

>  <SCORE.INTER.SOLV>
26.0662

>  <SCORE.INTER.VDW>
4.55928

>  <SCORE.INTER.norm>
1.00878

>  <SCORE.INTRA>
0.636835

>  <SCORE.INTRA.DIHEDRAL>
-9.42309

>  <SCORE.INTRA.DIHEDRAL.0>
18.77

>  <SCORE.INTRA.POLAR>
0

>  <SCORE.INTRA.POLAR.0>
0

>  <SCORE.INTRA.REPUL>
0

>  <SCORE.INTRA.REPUL.0>
0

>  <SCORE.INTRA.SOLV>
1.97471

>  <SCORE.INTRA.SOLV.lig_0>
-77.2465

>  <SCORE.INTRA.VDW>
4.36103

>  <SCORE.INTRA.VDW.0>
-4.16072

>  <SCORE.INTRA.norm>
0.020543

>  <SCORE.RESTR>
11.1415

>  <SCORE.RESTR.CAVITY>
11.1415

>  <SCORE.RESTR.norm>
0.359405

>  <SCORE.SYSTEM>
0

>  <SCORE.SYSTEM.CONST>
0

>  <SCORE.SYSTEM.DIHEDRAL>
0

>  <SCORE.SYSTEM.SOLV>
0

>  <SCORE.SYSTEM.norm>
0

>  <SCORE.heavy>
31

>  <SCORE.norm>
1.38872

>  <RMSD>
6.560

$$$$
ligand
 OpenBabel11021811493D
libRbt.so/2013.1/901 2013/11/27
 31 33  0  0  0  0  0  0  0  0999 V2000
   -8.9413   -5.8699  -11.9983 C   0  0  2  0  0  0  0  0  0  0  0  0
   -9.0889   -7.2885  -11.8491 O   0  0  0  0  0  0  0  0  0  0  0  0
   -7.4801  -11.0132  -13.2138 C   0  0  2  0  0  0  0  0  0  0  0  0
   -6.5696  -11.9692  -13.7660 N   0  0  0  0  0  0  0  0  0  0  0  0
   -5.5030  -11.3202  -10.0119 C   0  0  2  0  0  0  0  0  0  0  0  0
   -9.1523   -5.2514  -10.5718 C   0  0  2  0  0  0  0  0  0  0  0  0
   -8.1881   -5.8244   -9.6392 N   0  0  0  0  0  0  0  0  0  0  0  0
   -7.7768   -9.9064  -14.2978 C   0  0  0  0  0  0  0  0  0  0  0  0
   -4.2404  -10.9289  -10.8402 C   0  0  2  0  0  0  0  0  0  0  0  0
   -4.4623   -9.6705  -11.4535 O   0  0  0  0  0  0  0  0  0  0  0  0
  -10.6197   -5.5206  -10.0880 C   0  0  0  0  0  0  0  0  0  0  0  0
   -8.7945   -8.8493  -13.6860 C   0  0  2  0  0  0  0  0  0  0  0  0
   -9.0795   -7.8030  -14.6955 N   0  0  0  0  0  0  0  0  0  0  0  0
   -4.0274  -12.0666  -11.9340 C   0  0  1  0  0  0  0  0  0  0  0  0
   -2.8436  -11.7508  -12.8036 N   0  0  0  0  0  0  0  0  0  0  0  0
  -11.6444   -5.1708  -11.2056 C   0  0  0  0  0  0  0  0  0  0  0  0
   -8.1613   -8.1970  -12.3774 C   0  0  2  0  0  0  0  0  0  0  0  0
   -3.7754  -13.4898  -11.1831 C   0  0  1  0  0  0  0  0  0  0  0  0
   -2.6293  -13.4585  -10.3546 O   0  0  0  0  0  0  0  0  0  0  0  0
  -11.2651   -5.0886  -12.4898 C   0  0  2  0  0  0  0  0  0  0  0  0
   -9.9134   -5.3074  -12.9299 O   0  0  0  0  0  0  0  0  0  0  0  0
   -7.8490   -9.3392  -11.3222 C   0  0  2  0  0  0  0  0  0  0  0  0
   -7.2560   -8.7677  -10.1493 O   0  0  0  0  0  0  0  0  0  0  0  0
   -5.0090  -13.8216  -10.2773 C   0  0  0  0  0  0  0  0  0  0  0  0
   -5.2926  -12.6555   -9.3455 O   0  0  0  0  0  0  0  0  0  0  0  0
  -12.2679   -4.7397  -13.6142 C   0  0  0  0  0  0  0  0  0  0  0  0
  -12.5426   -3.3098  -13.5947 N   0  0  0  0  0  0  0  0  0  0  0  0
   -6.8443  -10.3762  -11.9428 C   0  0  1  0  0  0  0  0  0  0  0  0
   -6.5966  -11.3740  -10.9815 O   0  0  0  0  0  0  0  0  0  0  0  0
   -3.5551  -14.7008  -12.1047 C   0  0  0  0  0  0  0  0  0  0  0  0
   -1.6726  -11.1619  -12.1267 C   0  0  0  0  0  0  0  0  0  0  0  0
  1  2  1  1  0  0  0
  1  6  1  0  0  0  0
  1 21  1  0  0  0  0
  3  4  1  6  0  0  0
  3  8  1  0  0  0  0
  3 28  1  0  0  0  0
  5  9  1  0  0  0  0
  5 25  1  0  0  0  0
  5 29  1  6  0  0  0
  6  7  1  1  0  0  0
  6 11  1  0  0  0  0
  8 12  1  0  0  0  0
  9 10  1  6  0  0  0
  9 14  1  0  0  0  0
 11 16  1  0  0  0  0
 12 13  1  6  0  0  0
 12 17  1  0  0  0  0
 14 15  1  1  0  0  0
 14 18  1  0  0  0  0
 15 31  1  0  0  0  0
 16 20  1  0  0  0  0
 17  2  1  1  0  0  0
 17 22  1  0  0  0  0
 18 19  1  1  0  0  0
 18 24  1  0  0  0  0
 18 30  1  0  0  0  0
 20 21  1  0  0  0  0
 20 26  1  1  0  0  0
 22 23  1  1  0  0  0
 22 28  1  0  0  0  0
 24 25  1  0  0  0  0
 26 27  1  0  0  0  0
 28 29  1  1  0  0  0
M  END
>  <CHROM.1>
-131.42099319,-47.13603022,39.10009229,-103.96782079,76.87584440,149.42476484
-7.15910598,-9.24831581,-11.81132282,-2.91939269,0.80548814,-2.00768396

>  <Name>
ligand

>  <RI>
0

>  <Rbt.Current_Directory>
/home/itssahil/PROJECTS/Mol_Feturizer/New_Systems/rnas/4F8U

>  <Rbt.Executable>
rbdock ($Id: //depot/dev/client3/rdock/2013.1/src/exe/rbdock.cxx#4 $)

>  <Rbt.Library>
libRbt.so (2013.1, Build901 2013/11/27)

>  <Rbt.Parameter_File>
/export/apps/rDock/src/rDock_2013.1_src/data/scripts/dock_solv.prm

>  <Rbt.Receptor>
prm/blind_docking_40.prm

>  <SCORE>
22.0761

>  <SCORE.INTER>
5.2323

>  <SCORE.INTER.CONST>
1

>  <SCORE.INTER.POLAR>
0

>  <SCORE.INTER.ROT>
6

>  <SCORE.INTER.SOLV>
22.848

>  <SCORE.INTER.VDW>
-11.7278

>  <SCORE.INTER.norm>
0.168784

>  <SCORE.INTRA>
6.52793

>  <SCORE.INTRA.DIHEDRAL>
1.87964

>  <SCORE.INTRA.DIHEDRAL.0>
18.77

>  <SCORE.INTRA.POLAR>
0

>  <SCORE.INTRA.POLAR.0>
0

>  <SCORE.INTRA.REPUL>
0

>  <SCORE.INTRA.REPUL.0>
0

>  <SCORE.INTRA.SOLV>
3.1508

>  <SCORE.INTRA.SOLV.lig_0>
-77.2465

>  <SCORE.INTRA.VDW>
4.01271

>  <SCORE.INTRA.VDW.0>
-4.16072

>  <SCORE.INTRA.norm>
0.210578

>  <SCORE.RESTR>
10.3159

>  <SCORE.RESTR.CAVITY>
10.3159

>  <SCORE.RESTR.norm>
0.332771

>  <SCORE.SYSTEM>
0

>  <SCORE.SYSTEM.CONST>
0

>  <SCORE.SYSTEM.DIHEDRAL>
0

>  <SCORE.SYSTEM.SOLV>
0

>  <SCORE.SYSTEM.norm>
0

>  <SCORE.heavy>
31

>  <SCORE.norm>
0.712133

>  <RMSD>
6.562

$$$$
ligand
 OpenBabel11021811493D
libRbt.so/2013.1/901 2013/11/27
 31 33  0  0  0  0  0  0  0  0999 V2000
   -7.9593   -6.9733  -22.4421 C   0  0  2  0  0  0  0  0  0  0  0  0
   -6.8555   -7.7680  -22.8967 O   0  0  0  0  0  0  0  0  0  0  0  0
   -7.4693  -11.3794  -20.6820 C   0  0  2  0  0  0  0  0  0  0  0  0
   -7.2835  -12.7115  -20.1930 N   0  0  0  0  0  0  0  0  0  0  0  0
   -5.5272  -11.5925  -18.1430 C   0  0  2  0  0  0  0  0  0  0  0  0
   -7.4921   -5.4779  -22.5287 C   0  0  2  0  0  0  0  0  0  0  0  0
   -7.0962   -5.1641  -23.8971 N   0  0  0  0  0  0  0  0  0  0  0  0
   -7.6892  -11.4352  -22.2429 C   0  0  0  0  0  0  0  0  0  0  0  0
   -5.6616  -11.1274  -16.6601 C   0  0  2  0  0  0  0  0  0  0  0  0
   -7.0253  -10.8594  -16.3820 O   0  0  0  0  0  0  0  0  0  0  0  0
   -6.3015   -5.2353  -21.5371 C   0  0  0  0  0  0  0  0  0  0  0  0
   -7.9035   -9.9557  -22.7837 C   0  0  2  0  0  0  0  0  0  0  0  0
   -8.1096   -9.9954  -24.2504 N   0  0  0  0  0  0  0  0  0  0  0  0
   -4.7780   -9.8121  -16.5005 C   0  0  1  0  0  0  0  0  0  0  0  0
   -4.8768   -9.2739  -15.1012 N   0  0  0  0  0  0  0  0  0  0  0  0
   -6.6176   -5.8322  -20.1352 C   0  0  0  0  0  0  0  0  0  0  0  0
   -6.6278   -9.0695  -22.4287 C   0  0  2  0  0  0  0  0  0  0  0  0
   -3.2231  -10.1695  -16.8278 C   0  0  1  0  0  0  0  0  0  0  0  0
   -2.7073  -11.1528  -15.9514 O   0  0  0  0  0  0  0  0  0  0  0  0
   -7.5617   -6.7729  -19.9817 C   0  0  2  0  0  0  0  0  0  0  0  0
   -8.3437   -7.2927  -21.0712 O   0  0  0  0  0  0  0  0  0  0  0  0
   -6.4193   -9.0592  -20.8564 C   0  0  2  0  0  0  0  0  0  0  0  0
   -5.2596   -8.2848  -20.5255 O   0  0  0  0  0  0  0  0  0  0  0  0
   -3.1177  -10.7292  -18.2866 C   0  0  0  0  0  0  0  0  0  0  0  0
   -4.0848  -11.8874  -18.4652 O   0  0  0  0  0  0  0  0  0  0  0  0
   -7.8922   -7.3764  -18.5967 C   0  0  0  0  0  0  0  0  0  0  0  0
   -7.9854   -8.8253  -18.7069 N   0  0  0  0  0  0  0  0  0  0  0  0
   -6.2114  -10.5281  -20.3378 C   0  0  1  0  0  0  0  0  0  0  0  0
   -6.0357  -10.4782  -18.9423 O   0  0  0  0  0  0  0  0  0  0  0  0
   -2.2326   -8.9980  -16.7227 C   0  0  0  0  0  0  0  0  0  0  0  0
   -6.1370   -8.5926  -14.7493 C   0  0  0  0  0  0  0  0  0  0  0  0
  1  2  1  1  0  0  0
  1  6  1  0  0  0  0
  1 21  1  0  0  0  0
  3  4  1  6  0  0  0
  3  8  1  0  0  0  0
  3 28  1  0  0  0  0
  5  9  1  0  0  0  0
  5 25  1  0  0  0  0
  5 29  1  6  0  0  0
  6  7  1  6  0  0  0
  6 11  1  0  0  0  0
  8 12  1  0  0  0  0
  9 10  1  6  0  0  0
  9 14  1  0  0  0  0
 11 16  1  0  0  0  0
 12 13  1  6  0  0  0
 12 17  1  0  0  0  0
 14 15  1  1  0  0  0
 14 18  1  0  0  0  0
 15 31  1  0  0  0  0
 16 20  1  0  0  0  0
 17  2  1  1  0  0  0
 17 22  1  0  0  0  0
 18 19  1  1  0  0  0
 18 24  1  0  0  0  0
 18 30  1  0  0  0  0
 20 21  1  0  0  0  0
 20 26  1  1  0  0  0
 22 23  1  6  0  0  0
 22 28  1  0  0  0  0
 24 25  1  0  0  0  0
 26 27  1  0  0  0  0
 28 29  1  1  0  0  0
M  END
>  <CHROM.1>
150.27939452,-173.79842597,-74.42202202,59.82253758,-134.15429576,74.81809788
-6.18699621,-9.16283138,-19.60286285,-2.78972352,1.11154188,-3.05556450

>  <Name>
ligand

>  <RI>
0

>  <Rbt.Current_Directory>
/home/itssahil/PROJECTS/Mol_Feturizer/New_Systems/rnas/4F8U

>  <Rbt.Executable>
rbdock ($Id: //depot/dev/client3/rdock/2013.1/src/exe/rbdock.cxx#4 $)

>  <Rbt.Library>
libRbt.so (2013.1, Build901 2013/11/27)

>  <Rbt.Parameter_File>
/export/apps/rDock/src/rDock_2013.1_src/data/scripts/dock_solv.prm

>  <Rbt.Receptor>
prm/blind_docking_60.prm

>  <SCORE>
28.417

>  <SCORE.INTER>
7.75321

>  <SCORE.INTER.CONST>
1

>  <SCORE.INTER.POLAR>
0

>  <SCORE.INTER.ROT>
6

>  <SCORE.INTER.SOLV>
22.4149

>  <SCORE.INTER.VDW>
-9.90283

>  <SCORE.INTER.norm>
0.250104

>  <SCORE.INTRA>
3.18808

>  <SCORE.INTRA.DIHEDRAL>
-11.9039

>  <SCORE.INTRA.DIHEDRAL.0>
18.77

>  <SCORE.INTRA.POLAR>
0

>  <SCORE.INTRA.POLAR.0>
0

>  <SCORE.INTRA.REPUL>
0.162986

>  <SCORE.INTRA.REPUL.0>
0

>  <SCORE.INTRA.SOLV>
7.06009

>  <SCORE.INTRA.SOLV.lig_0>
-77.2465

>  <SCORE.INTRA.VDW>
4.79503

>  <SCORE.INTRA.VDW.0>
-4.16072

>  <SCORE.INTRA.norm>
0.102841

>  <SCORE.RESTR>
17.4757

>  <SCORE.RESTR.CAVITY>
17.4757

>  <SCORE.RESTR.norm>
0.563731

>  <SCORE.SYSTEM>
0

>  <SCORE.SYSTEM.CONST>
0

>  <SCORE.SYSTEM.DIHEDRAL>
0

>  <SCORE.SYSTEM.SOLV>
0

>  <SCORE.SYSTEM.norm>
0

>  <SCORE.heavy>
31

>  <SCORE.norm>
0.916676

>  <RMSD>
6.573

$$$$
ligand
 OpenBabel11021811493D
libRbt.so/2013.1/901 2013/11/27
 31 33  0  0  0  0  0  0  0  0999 V2000
   -8.0043   -6.2128  -21.9576 C   0  0  2  0  0  0  0  0  0  0  0  0
   -7.5020   -7.1553  -22.9146 O   0  0  0  0  0  0  0  0  0  0  0  0
   -7.1918  -10.7390  -20.5941 C   0  0  2  0  0  0  0  0  0  0  0  0
   -6.8149  -12.0605  -20.1949 N   0  0  0  0  0  0  0  0  0  0  0  0
   -5.3058   -8.6430  -18.6114 C   0  0  2  0  0  0  0  0  0  0  0  0
   -8.5010   -4.9715  -22.7789 C   0  0  2  0  0  0  0  0  0  0  0  0
   -9.5125   -5.3913  -23.7424 N   0  0  0  0  0  0  0  0  0  0  0  0
   -7.9700  -10.8224  -21.9636 C   0  0  0  0  0  0  0  0  0  0  0  0
   -4.3418   -8.9871  -17.4343 C   0  0  2  0  0  0  0  0  0  0  0  0
   -3.0339   -9.1728  -17.9478 O   0  0  0  0  0  0  0  0  0  0  0  0
   -7.2870   -4.2965  -23.5073 C   0  0  0  0  0  0  0  0  0  0  0  0
   -8.3950   -9.3545  -22.4020 C   0  0  2  0  0  0  0  0  0  0  0  0
   -9.1259   -9.4202  -23.6891 N   0  0  0  0  0  0  0  0  0  0  0  0
   -4.8849  -10.3240  -16.7605 C   0  0  1  0  0  0  0  0  0  0  0  0
   -3.9907  -10.7490  -15.6303 N   0  0  0  0  0  0  0  0  0  0  0  0
   -6.0904   -4.1074  -22.5307 C   0  0  0  0  0  0  0  0  0  0  0  0
   -7.0944   -8.4461  -22.5507 C   0  0  2  0  0  0  0  0  0  0  0  0
   -6.3860  -10.0615  -16.1855 C   0  0  1  0  0  0  0  0  0  0  0  0
   -6.4103   -9.0378  -15.2095 O   0  0  0  0  0  0  0  0  0  0  0  0
   -6.0022   -4.8229  -21.3993 C   0  0  2  0  0  0  0  0  0  0  0  0
   -6.9830   -5.7970  -21.0019 O   0  0  0  0  0  0  0  0  0  0  0  0
   -6.3219   -8.4082  -21.1660 C   0  0  2  0  0  0  0  0  0  0  0  0
   -5.1361   -7.6134  -21.2933 O   0  0  0  0  0  0  0  0  0  0  0  0
   -7.3201   -9.6199  -17.3622 C   0  0  0  0  0  0  0  0  0  0  0  0
   -6.7056   -8.4373  -18.0920 O   0  0  0  0  0  0  0  0  0  0  0  0
   -4.8224   -4.6475  -20.4149 C   0  0  0  0  0  0  0  0  0  0  0  0
   -5.2131   -3.7418  -19.3436 N   0  0  0  0  0  0  0  0  0  0  0  0
   -5.9112   -9.8658  -20.7460 C   0  0  1  0  0  0  0  0  0  0  0  0
   -5.2348   -9.7916  -19.5140 O   0  0  0  0  0  0  0  0  0  0  0  0
   -7.0592  -11.2640  -15.5034 C   0  0  0  0  0  0  0  0  0  0  0  0
   -2.7493  -11.4516  -16.0064 C   0  0  0  0  0  0  0  0  0  0  0  0
  1  2  1  6  0  0  0
  1  6  1  0  0  0  0
  1 21  1  0  0  0  0
  3  4  1  6  0  0  0
  3  8  1  0  0  0  0
  3 28  1  0  0  0  0
  5  9  1  0  0  0  0
  5 25  1  0  0  0  0
  5 29  1  6  0  0  0
  6  7  1  6  0  0  0
  6 11  1  0  0  0  0
  8 12  1  0  0  0  0
  9 10  1  6  0  0  0
  9 14  1  0  0  0  0
 11 16  1  0  0  0  0
 12 13  1  6  0  0  0
 12 17  1  0  0  0  0
 14 15  1  1  0  0  0
 14 18  1  0  0  0  0
 15 31  1  0  0  0  0
 16 20  1  0  0  0  0
 17  2  1  1  0  0  0
 17 22  1  0  0  0  0
 18 19  1  1  0  0  0
 18 24  1  0  0  0  0
 18 30  1  0  0  0  0
 20 21  1  0  0  0  0
 20 26  1  1  0  0  0
 22 23  1  6  0  0  0
 22 28  1  0  0  0  0
 24 25  1  0  0  0  0
 26 27  1  0  0  0  0
 28 29  1  1  0  0  0
M  END
>  <CHROM.1>
-173.49995661,-176.90471725,-79.58743798,79.97195509,96.82380938,-101.13547530
-6.33714045,-8.24176379,-19.91522742,2.12676292,-0.95548355,-0.45296216

>  <Name>
ligand

>  <RI>
0

>  <Rbt.Current_Directory>
/home/itssahil/PROJECTS/Mol_Feturizer/New_Systems/rnas/4F8U

>  <Rbt.Executable>
rbdock ($Id: //depot/dev/client3/rdock/2013.1/src/exe/rbdock.cxx#4 $)

>  <Rbt.Library>
libRbt.so (2013.1, Build901 2013/11/27)

>  <Rbt.Parameter_File>
/export/apps/rDock/src/rDock_2013.1_src/data/scripts/dock_solv.prm

>  <Rbt.Receptor>
prm/blind_docking_60.prm

>  <SCORE>
26.5333

>  <SCORE.INTER>
5.28218

>  <SCORE.INTER.CONST>
1

>  <SCORE.INTER.POLAR>
0

>  <SCORE.INTER.ROT>
6

>  <SCORE.INTER.SOLV>
21.6678

>  <SCORE.INTER.VDW>
-11.3012

>  <SCORE.INTER.norm>
0.170393

>  <SCORE.INTRA>
-0.407029

>  <SCORE.INTRA.DIHEDRAL>
-8.54295

>  <SCORE.INTRA.DIHEDRAL.0>
18.77

>  <SCORE.INTRA.POLAR>
0

>  <SCORE.INTRA.POLAR.0>
0

>  <SCORE.INTRA.REPUL>
0.274558

>  <SCORE.INTRA.REPUL.0>
0

>  <SCORE.INTRA.SOLV>
-0.819558

>  <SCORE.INTRA.SOLV.lig_0>
-77.2465

>  <SCORE.INTRA.VDW>
2.90143

>  <SCORE.INTRA.VDW.0>
-4.16072

>  <SCORE.INTRA.norm>
-0.01313

>  <SCORE.RESTR>
21.6581

>  <SCORE.RESTR.CAVITY>
21.6581

>  <SCORE.RESTR.norm>
0.69865

>  <SCORE.SYSTEM>
0

>  <SCORE.SYSTEM.CONST>
0

>  <SCORE.SYSTEM.DIHEDRAL>
0

>  <SCORE.SYSTEM.SOLV>
0

>  <SCORE.SYSTEM.norm>
0

>  <SCORE.heavy>
31

>  <SCORE.norm>
0.855913

>  <RMSD>
6.579

$$$$
ligand
 OpenBabel11021811493D
libRbt.so/2013.1/901 2013/11/27
 31 33  0  0  0  0  0  0  0  0999 V2000
   -9.6955   -8.3902  -11.9076 C   0  0  2  0  0  0  0  0  0  0  0  0
   -8.3133   -8.7339  -11.7407 O   0  0  0  0  0  0  0  0  0  0  0  0
   -6.0534  -12.0425  -10.2340 C   0  0  2  0  0  0  0  0  0  0  0  0
   -5.6003  -13.3833  -10.0222 N   0  0  0  0  0  0  0  0  0  0  0  0
   -3.4174  -11.4022  -11.1964 C   0  0  2  0  0  0  0  0  0  0  0  0
   -9.8100   -7.6865  -13.3054 C   0  0  2  0  0  0  0  0  0  0  0  0
   -9.3205   -8.5810  -14.3486 N   0  0  0  0  0  0  0  0  0  0  0  0
   -7.5708  -11.9448   -9.8146 C   0  0  0  0  0  0  0  0  0  0  0  0
   -2.1440  -11.3893  -12.0972 C   0  0  2  0  0  0  0  0  0  0  0  0
   -2.3150  -10.4280  -13.1246 O   0  0  0  0  0  0  0  0  0  0  0  0
   -8.9932   -6.3477  -13.2943 C   0  0  0  0  0  0  0  0  0  0  0  0
   -8.0708  -10.4531  -10.0429 C   0  0  2  0  0  0  0  0  0  0  0  0
   -9.4966  -10.3495   -9.6536 N   0  0  0  0  0  0  0  0  0  0  0  0
   -1.9869  -12.8525  -12.7060 C   0  0  1  0  0  0  0  0  0  0  0  0
   -0.7957  -12.9215  -13.6191 N   0  0  0  0  0  0  0  0  0  0  0  0
   -9.3107   -5.5156  -12.0183 C   0  0  0  0  0  0  0  0  0  0  0  0
   -7.8864  -10.0588  -11.5757 C   0  0  2  0  0  0  0  0  0  0  0  0
   -1.7921  -13.9192  -11.4907 C   0  0  1  0  0  0  0  0  0  0  0  0
   -0.6408  -13.6405  -10.7176 O   0  0  0  0  0  0  0  0  0  0  0  0
   -9.8488   -6.0926  -10.9333 C   0  0  2  0  0  0  0  0  0  0  0  0
  -10.1728   -7.4921  -10.8613 O   0  0  0  0  0  0  0  0  0  0  0  0
   -6.3564  -10.1961  -11.9705 C   0  0  2  0  0  0  0  0  0  0  0  0
   -6.1808   -9.8675  -13.3544 O   0  0  0  0  0  0  0  0  0  0  0  0
   -3.0335  -13.8501  -10.5387 C   0  0  0  0  0  0  0  0  0  0  0  0
   -3.2610  -12.4157  -10.0919 O   0  0  0  0  0  0  0  0  0  0  0  0
  -10.1740   -5.2823   -9.6568 C   0  0  0  0  0  0  0  0  0  0  0  0
  -11.5824   -5.4433   -9.3240 N   0  0  0  0  0  0  0  0  0  0  0  0
   -5.8775  -11.6746  -11.7371 C   0  0  1  0  0  0  0  0  0  0  0  0
   -4.5181  -11.7550  -12.0925 O   0  0  0  0  0  0  0  0  0  0  0  0
   -1.6297  -15.3890  -11.9124 C   0  0  0  0  0  0  0  0  0  0  0  0
    0.4919  -12.4807  -13.0499 C   0  0  0  0  0  0  0  0  0  0  0  0
  1  2  1  1  0  0  0
  1  6  1  0  0  0  0
  1 21  1  0  0  0  0
  3  4  1  6  0  0  0
  3  8  1  0  0  0  0
  3 28  1  0  0  0  0
  5  9  1  0  0  0  0
  5 25  1  0  0  0  0
  5 29  1  6  0  0  0
  6  7  1  6  0  0  0
  6 11  1  0  0  0  0
  8 12  1  0  0  0  0
  9 10  1  6  0  0  0
  9 14  1  0  0  0  0
 11 16  1  0  0  0  0
 12 13  1  6  0  0  0
 12 17  1  0  0  0  0
 14 15  1  6  0  0  0
 14 18  1  0  0  0  0
 15 31  1  0  0  0  0
 16 20  1  0  0  0  0
 17  2  1  1  0  0  0
 17 22  1  0  0  0  0
 18 19  1  1  0  0  0
 18 24  1  0  0  0  0
 18 30  1  0  0  0  0
 20 21  1  0  0  0  0
 20 26  1  6  0  0  0
 22 23  1  6  0  0  0
 22 28  1  0  0  0  0
 24 25  1  0  0  0  0
 26 27  1  0  0  0  0
 28 29  1  1  0  0  0
M  END
>  <CHROM.1>
-119.59503025,-169.58227046,54.03473074,-82.36245325,123.68508943,-35.05015703
-5.93179782,-10.39852985,-11.57045769,-2.72078941,-0.50789463,2.40619938

>  <Name>
ligand

>  <RI>
0

>  <Rbt.Current_Directory>
/home/itssahil/PROJECTS/Mol_Feturizer/New_Systems/rnas/4F8U

>  <Rbt.Executable>
rbdock ($Id: //depot/dev/client3/rdock/2013.1/src/exe/rbdock.cxx#4 $)

>  <Rbt.Library>
libRbt.so (2013.1, Build901 2013/11/27)

>  <Rbt.Parameter_File>
/export/apps/rDock/src/rDock_2013.1_src/data/scripts/dock_solv.prm

>  <Rbt.Receptor>
prm/blind_docking_40.prm

>  <SCORE>
20.0525

>  <SCORE.INTER>
3.4271

>  <SCORE.INTER.CONST>
1

>  <SCORE.INTER.POLAR>
0

>  <SCORE.INTER.ROT>
6

>  <SCORE.INTER.SOLV>
15.1315

>  <SCORE.INTER.VDW>
-10.3591

>  <SCORE.INTER.norm>
0.110552

>  <SCORE.INTRA>
4.00292

>  <SCORE.INTRA.DIHEDRAL>
-4.46191

>  <SCORE.INTRA.DIHEDRAL.0>
18.77

>  <SCORE.INTRA.POLAR>
0

>  <SCORE.INTRA.POLAR.0>
0

>  <SCORE.INTRA.REPUL>
0

>  <SCORE.INTRA.REPUL.0>
0

>  <SCORE.INTRA.SOLV>
2.54842

>  <SCORE.INTRA.SOLV.lig_0>
-77.2465

>  <SCORE.INTRA.VDW>
4.95966

>  <SCORE.INTRA.VDW.0>
-4.16072

>  <SCORE.INTRA.norm>
0.129126

>  <SCORE.RESTR>
12.6225

>  <SCORE.RESTR.CAVITY>
12.6225

>  <SCORE.RESTR.norm>
0.407176

>  <SCORE.SYSTEM>
0

>  <SCORE.SYSTEM.CONST>
0

>  <SCORE.SYSTEM.DIHEDRAL>
0

>  <SCORE.SYSTEM.SOLV>
0

>  <SCORE.SYSTEM.norm>
0

>  <SCORE.heavy>
31

>  <SCORE.norm>
0.646854

>  <RMSD>
6.604

$$$$
ligand
 OpenBabel11021811493D
libRbt.so/2013.1/901 2013/11/27
 31 33  0  0  0  0  0  0  0  0999 V2000
   -8.3160   -6.9730  -11.6863 C   0  0  2  0  0  0  0  0  0  0  0  0
   -8.6557   -7.8591  -10.6111 O   0  0  0  0  0  0  0  0  0  0  0  0
   -7.0270  -11.7417   -9.8390 C   0  0  2  0  0  0  0  0  0  0  0  0
   -6.8322  -13.1586   -9.8896 N   0  0  0  0  0  0  0  0  0  0  0  0
   -4.3151  -11.1142  -10.9342 C   0  0  2  0  0  0  0  0  0  0  0  0
   -9.2444   -5.7173  -11.5339 C   0  0  2  0  0  0  0  0  0  0  0  0
   -9.0453   -5.1141  -10.2207 N   0  0  0  0  0  0  0  0  0  0  0  0
   -8.4853  -11.4458   -9.3160 C   0  0  0  0  0  0  0  0  0  0  0  0
   -3.1565  -11.0603  -11.9773 C   0  0  2  0  0  0  0  0  0  0  0  0
   -3.4340  -10.0422  -12.9235 O   0  0  0  0  0  0  0  0  0  0  0  0
  -10.7426   -6.1377  -11.7299 C   0  0  0  0  0  0  0  0  0  0  0  0
   -8.6978   -9.8716   -9.2528 C   0  0  2  0  0  0  0  0  0  0  0  0
  -10.0660   -9.5813   -8.7640 N   0  0  0  0  0  0  0  0  0  0  0  0
   -3.0921  -12.4885  -12.6791 C   0  0  1  0  0  0  0  0  0  0  0  0
   -2.0178  -12.5152  -13.7290 N   0  0  0  0  0  0  0  0  0  0  0  0
  -10.9066   -7.0307  -12.9937 C   0  0  0  0  0  0  0  0  0  0  0  0
   -8.4849   -9.2473  -10.7033 C   0  0  2  0  0  0  0  0  0  0  0  0
   -2.7703  -13.6225  -11.5551 C   0  0  1  0  0  0  0  0  0  0  0  0
   -1.5323  -13.3955  -10.9096 O   0  0  0  0  0  0  0  0  0  0  0  0
   -9.8559   -7.6711  -13.5283 C   0  0  2  0  0  0  0  0  0  0  0  0
   -8.5231   -7.5853  -12.9945 O   0  0  0  0  0  0  0  0  0  0  0  0
   -7.0211   -9.5883  -11.2098 C   0  0  2  0  0  0  0  0  0  0  0  0
   -6.8253   -9.0527  -12.5246 O   0  0  0  0  0  0  0  0  0  0  0  0
   -3.8899  -13.5975  -10.4606 C   0  0  0  0  0  0  0  0  0  0  0  0
   -4.0436  -12.1886   -9.9127 O   0  0  0  0  0  0  0  0  0  0  0  0
   -9.9981   -8.5608  -14.7853 C   0  0  0  0  0  0  0  0  0  0  0  0
   -8.7152   -9.1773  -15.0926 N   0  0  0  0  0  0  0  0  0  0  0  0
   -6.8267  -11.1468  -11.2643 C   0  0  1  0  0  0  0  0  0  0  0  0
   -5.5183  -11.4087  -11.7117 O   0  0  0  0  0  0  0  0  0  0  0  0
   -2.6788  -15.0677  -12.0723 C   0  0  0  0  0  0  0  0  0  0  0  0
   -2.3091  -11.7938  -14.9824 C   0  0  0  0  0  0  0  0  0  0  0  0
  1  2  1  1  0  0  0
  1  6  1  0  0  0  0
  1 21  1  0  0  0  0
  3  4  1  6  0  0  0
  3  8  1  0  0  0  0
  3 28  1  0  0  0  0
  5  9  1  0  0  0  0
  5 25  1  0  0  0  0
  5 29  1  6  0  0  0
  6  7  1  1  0  0  0
  6 11  1  0  0  0  0
  8 12  1  0  0  0  0
  9 10  1  6  0  0  0
  9 14  1  0  0  0  0
 11 16  1  0  0  0  0
 12 13  1  6  0  0  0
 12 17  1  0  0  0  0
 14 15  1  6  0  0  0
 14 18  1  0  0  0  0
 15 31  1  0  0  0  0
 16 20  1  0  0  0  0
 17  2  1  1  0  0  0
 17 22  1  0  0  0  0
 18 19  1  1  0  0  0
 18 24  1  0  0  0  0
 18 30  1  0  0  0  0
 20 21  1  0  0  0  0
 20 26  1  6  0  0  0
 22 23  1  6  0  0  0
 22 28  1  0  0  0  0
 24 25  1  0  0  0  0
 26 27  1  0  0  0  0
 28 29  1  1  0  0  0
M  END
>  <CHROM.1>
152.65904266,-159.55471385,-74.17470713,169.40022154,-177.07890948,-50.79058696
-6.50562228,-10.17272877,-11.68787967,-2.80432940,-0.62600269,2.11989013

>  <Name>
ligand

>  <RI>
0

>  <Rbt.Current_Directory>
/home/itssahil/PROJECTS/Mol_Feturizer/New_Systems/rnas/4F8U

>  <Rbt.Executable>
rbdock ($Id: //depot/dev/client3/rdock/2013.1/src/exe/rbdock.cxx#4 $)

>  <Rbt.Library>
libRbt.so (2013.1, Build901 2013/11/27)

>  <Rbt.Parameter_File>
/export/apps/rDock/src/rDock_2013.1_src/data/scripts/dock_solv.prm

>  <Rbt.Receptor>
prm/blind_docking_40.prm

>  <SCORE>
17.8506

>  <SCORE.INTER>
7.70453

>  <SCORE.INTER.CONST>
1

>  <SCORE.INTER.POLAR>
0

>  <SCORE.INTER.ROT>
6

>  <SCORE.INTER.SOLV>
19.8859

>  <SCORE.INTER.VDW>
-9.09227

>  <SCORE.INTER.norm>
0.248533

>  <SCORE.INTRA>
0.544263

>  <SCORE.INTRA.DIHEDRAL>
-9.09544

>  <SCORE.INTRA.DIHEDRAL.0>
18.77

>  <SCORE.INTRA.POLAR>
0

>  <SCORE.INTRA.POLAR.0>
0

>  <SCORE.INTRA.REPUL>
0

>  <SCORE.INTRA.REPUL.0>
0

>  <SCORE.INTRA.SOLV>
1.03795

>  <SCORE.INTRA.SOLV.lig_0>
-77.2465

>  <SCORE.INTRA.VDW>
4.57301

>  <SCORE.INTRA.VDW.0>
-4.16072

>  <SCORE.INTRA.norm>
0.0175569

>  <SCORE.RESTR>
9.60175

>  <SCORE.RESTR.CAVITY>
9.60175

>  <SCORE.RESTR.norm>
0.309734

>  <SCORE.SYSTEM>
0

>  <SCORE.SYSTEM.CONST>
0

>  <SCORE.SYSTEM.DIHEDRAL>
0

>  <SCORE.SYSTEM.SOLV>
0

>  <SCORE.SYSTEM.norm>
0

>  <SCORE.heavy>
31

>  <SCORE.norm>
0.575824

>  <RMSD>
6.607

$$$$
ligand
 OpenBabel11021811493D
libRbt.so/2013.1/901 2013/11/27
 31 33  0  0  0  0  0  0  0  0999 V2000
   -1.8826  -10.4519  -13.6462 C   0  0  2  0  0  0  0  0  0  0  0  0
   -2.3062  -11.3939  -14.6411 O   0  0  0  0  0  0  0  0  0  0  0  0
   -6.5273  -10.6856  -14.7064 C   0  0  2  0  0  0  0  0  0  0  0  0
   -7.9059  -10.7760  -15.0797 N   0  0  0  0  0  0  0  0  0  0  0  0
   -8.1623  -12.9710  -13.1592 C   0  0  2  0  0  0  0  0  0  0  0  0
   -0.3657  -10.7477  -13.3754 C   0  0  2  0  0  0  0  0  0  0  0  0
    0.3881  -10.6329  -14.6190 N   0  0  0  0  0  0  0  0  0  0  0  0
   -5.6899  -10.2160  -15.9579 C   0  0  0  0  0  0  0  0  0  0  0  0
   -8.5745  -13.2410  -11.6792 C   0  0  2  0  0  0  0  0  0  0  0  0
   -8.4839  -12.0311  -10.9466 O   0  0  0  0  0  0  0  0  0  0  0  0
   -0.2058  -12.1814  -12.7601 C   0  0  0  0  0  0  0  0  0  0  0  0
   -4.1599  -10.1082  -15.5398 C   0  0  2  0  0  0  0  0  0  0  0  0
   -3.3626   -9.6691  -16.7089 N   0  0  0  0  0  0  0  0  0  0  0  0
   -7.5668  -14.3322  -11.1046 C   0  0  1  0  0  0  0  0  0  0  0  0
   -7.8726  -14.6294   -9.6640 N   0  0  0  0  0  0  0  0  0  0  0  0
   -1.2217  -12.4038  -11.6025 C   0  0  0  0  0  0  0  0  0  0  0  0
   -3.6484  -11.5260  -15.0231 C   0  0  2  0  0  0  0  0  0  0  0  0
   -7.7080  -15.7015  -11.9752 C   0  0  1  0  0  0  0  0  0  0  0  0
   -9.0156  -16.2378  -11.9148 O   0  0  0  0  0  0  0  0  0  0  0  0
   -2.3198  -11.6413  -11.4908 C   0  0  2  0  0  0  0  0  0  0  0  0
   -2.6403  -10.5788  -12.4057 O   0  0  0  0  0  0  0  0  0  0  0  0
   -4.5296  -11.9804  -13.7851 C   0  0  2  0  0  0  0  0  0  0  0  0
   -4.0950  -13.2666  -13.3259 O   0  0  0  0  0  0  0  0  0  0  0  0
   -7.3881  -15.3941  -13.4770 C   0  0  0  0  0  0  0  0  0  0  0  0
   -8.2525  -14.2428  -13.9629 O   0  0  0  0  0  0  0  0  0  0  0  0
   -3.3395  -11.8450  -10.3461 C   0  0  0  0  0  0  0  0  0  0  0  0
   -4.5746  -11.1422  -10.6639 N   0  0  0  0  0  0  0  0  0  0  0  0
   -6.0382  -12.0798  -14.2140 C   0  0  1  0  0  0  0  0  0  0  0  0
   -6.7866  -12.4792  -13.0909 O   0  0  0  0  0  0  0  0  0  0  0  0
   -6.7929  -16.8611  -11.5484 C   0  0  0  0  0  0  0  0  0  0  0  0
   -6.7115  -14.8214   -8.7744 C   0  0  0  0  0  0  0  0  0  0  0  0
  1  2  1  6  0  0  0
  1  6  1  0  0  0  0
  1 21  1  0  0  0  0
  3  4  1  6  0  0  0
  3  8  1  0  0  0  0
  3 28  1  0  0  0  0
  5  9  1  0  0  0  0
  5 25  1  0  0  0  0
  5 29  1  1  0  0  0
  6  7  1  6  0  0  0
  6 11  1  0  0  0  0
  8 12  1  0  0  0  0
  9 10  1  1  0  0  0
  9 14  1  0  0  0  0
 11 16  1  0  0  0  0
 12 13  1  6  0  0  0
 12 17  1  0  0  0  0
 14 15  1  1  0  0  0
 14 18  1  0  0  0  0
 15 31  1  0  0  0  0
 16 20  1  0  0  0  0
 17  2  1  1  0  0  0
 17 22  1  0  0  0  0
 18 19  1  1  0  0  0
 18 24  1  0  0  0  0
 18 30  1  0  0  0  0
 20 21  1  0  0  0  0
 20 26  1  1  0  0  0
 22 23  1  6  0  0  0
 22 28  1  0  0  0  0
 24 25  1  0  0  0  0
 26 27  1  0  0  0  0
 28 29  1  1  0  0  0
M  END
>  <CHROM.1>
172.63928587,-178.29557849,-140.62491115,57.54551969,-165.13820097,75.25788457
-5.11603132,-12.49157805,-12.91938922,-0.56357425,0.28890457,2.16892047

>  <Name>
ligand

>  <RI>
0

>  <Rbt.Current_Directory>
/home/itssahil/PROJECTS/Mol_Feturizer/New_Systems/rnas/4F8U

>  <Rbt.Executable>
rbdock ($Id: //depot/dev/client3/rdock/2013.1/src/exe/rbdock.cxx#4 $)

>  <Rbt.Library>
libRbt.so (2013.1, Build901 2013/11/27)

>  <Rbt.Parameter_File>
/export/apps/rDock/src/rDock_2013.1_src/data/scripts/dock_solv.prm

>  <Rbt.Receptor>
prm/pocket_docking_5.prm

>  <SCORE>
-5.64992

>  <SCORE.INTER>
-0.510331

>  <SCORE.INTER.CONST>
1

>  <SCORE.INTER.POLAR>
0

>  <SCORE.INTER.ROT>
6

>  <SCORE.INTER.SOLV>
8.6927

>  <SCORE.INTER.VDW>
-10.8378

>  <SCORE.INTER.norm>
-0.0164623

>  <SCORE.INTRA>
-5.13959

>  <SCORE.INTRA.DIHEDRAL>
-13.1612

>  <SCORE.INTRA.DIHEDRAL.0>
18.77

>  <SCORE.INTRA.POLAR>
0

>  <SCORE.INTRA.POLAR.0>
0

>  <SCORE.INTRA.REPUL>
0

>  <SCORE.INTRA.REPUL.0>
0

>  <SCORE.INTRA.SOLV>
2.1028

>  <SCORE.INTRA.SOLV.lig_0>
-77.2465

>  <SCORE.INTRA.VDW>
0.389593

>  <SCORE.INTRA.VDW.0>
-4.16072

>  <SCORE.INTRA.norm>
-0.165793

>  <SCORE.RESTR>
0

>  <SCORE.RESTR.CAVITY>
0

>  <SCORE.RESTR.norm>
0

>  <SCORE.SYSTEM>
0

>  <SCORE.SYSTEM.CONST>
0

>  <SCORE.SYSTEM.DIHEDRAL>
0

>  <SCORE.SYSTEM.SOLV>
0

>  <SCORE.SYSTEM.norm>
0

>  <SCORE.heavy>
31

>  <SCORE.norm>
-0.182255

>  <RMSD>
6.632

$$$$
ligand
 OpenBabel11021811493D
libRbt.so/2013.1/901 2013/11/27
 31 33  0  0  0  0  0  0  0  0999 V2000
   -9.0384   -5.5658  -11.8972 C   0  0  2  0  0  0  0  0  0  0  0  0
   -9.2275   -6.9868  -11.9348 O   0  0  0  0  0  0  0  0  0  0  0  0
   -7.7709  -10.5098  -13.8818 C   0  0  2  0  0  0  0  0  0  0  0  0
   -6.8931  -11.4086  -14.5670 N   0  0  0  0  0  0  0  0  0  0  0  0
   -6.6395  -11.2880  -10.3032 C   0  0  2  0  0  0  0  0  0  0  0  0
   -9.1936   -5.1391  -10.3953 C   0  0  2  0  0  0  0  0  0  0  0  0
   -8.2252   -5.8594   -9.5761 N   0  0  0  0  0  0  0  0  0  0  0  0
   -7.9686   -9.2178  -14.7647 C   0  0  0  0  0  0  0  0  0  0  0  0
   -5.1281  -11.6704  -10.2510 C   0  0  2  0  0  0  0  0  0  0  0  0
   -4.3839  -10.7129  -10.9845 O   0  0  0  0  0  0  0  0  0  0  0  0
  -10.6563   -5.4292   -9.9093 C   0  0  0  0  0  0  0  0  0  0  0  0
   -8.9501   -8.2236  -14.0061 C   0  0  2  0  0  0  0  0  0  0  0  0
   -9.1421   -7.0045  -14.8259 N   0  0  0  0  0  0  0  0  0  0  0  0
   -4.9894  -13.1185  -10.8990 C   0  0  1  0  0  0  0  0  0  0  0  0
   -3.5517  -13.5543  -10.9199 N   0  0  0  0  0  0  0  0  0  0  0  0
  -11.6970   -4.9033  -10.9397 C   0  0  0  0  0  0  0  0  0  0  0  0
   -8.3310   -7.8440  -12.5878 C   0  0  2  0  0  0  0  0  0  0  0  0
   -5.8582  -14.1819  -10.0230 C   0  0  1  0  0  0  0  0  0  0  0  0
   -5.4121  -14.2571   -8.6828 O   0  0  0  0  0  0  0  0  0  0  0  0
  -11.3476   -4.6599  -12.2119 C   0  0  2  0  0  0  0  0  0  0  0  0
  -10.0150   -4.8557  -12.7165 O   0  0  0  0  0  0  0  0  0  0  0  0
   -8.1185   -9.1668  -11.7389 C   0  0  2  0  0  0  0  0  0  0  0  0
   -7.5390   -8.8410  -10.4693 O   0  0  0  0  0  0  0  0  0  0  0  0
   -7.3575  -13.7303  -10.0013 C   0  0  0  0  0  0  0  0  0  0  0  0
   -7.4551  -12.2900   -9.5273 O   0  0  0  0  0  0  0  0  0  0  0  0
  -12.3665   -4.1346  -13.2499 C   0  0  0  0  0  0  0  0  0  0  0  0
  -12.5636   -5.1363  -14.2883 N   0  0  0  0  0  0  0  0  0  0  0  0
   -7.1487  -10.1390  -12.5030 C   0  0  1  0  0  0  0  0  0  0  0  0
   -6.9896  -11.2998  -11.7232 O   0  0  0  0  0  0  0  0  0  0  0  0
   -5.8334  -15.6360  -10.5225 C   0  0  0  0  0  0  0  0  0  0  0  0
   -2.7349  -13.0626  -12.0456 C   0  0  0  0  0  0  0  0  0  0  0  0
  1  2  1  1  0  0  0
  1  6  1  0  0  0  0
  1 21  1  0  0  0  0
  3  4  1  6  0  0  0
  3  8  1  0  0  0  0
  3 28  1  0  0  0  0
  5  9  1  0  0  0  0
  5 25  1  0  0  0  0
  5 29  1  6  0  0  0
  6  7  1  1  0  0  0
  6 11  1  0  0  0  0
  8 12  1  0  0  0  0
  9 10  1  6  0  0  0
  9 14  1  0  0  0  0
 11 16  1  0  0  0  0
 12 13  1  6  0  0  0
 12 17  1  0  0  0  0
 14 15  1  1  0  0  0
 14 18  1  0  0  0  0
 15 31  1  0  0  0  0
 16 20  1  0  0  0  0
 17  2  1  1  0  0  0
 17 22  1  0  0  0  0
 18 19  1  1  0  0  0
 18 24  1  0  0  0  0
 18 30  1  0  0  0  0
 20 21  1  0  0  0  0
 20 26  1  1  0  0  0
 22 23  1  1  0  0  0
 22 28  1  0  0  0  0
 24 25  1  0  0  0  0
 26 27  1  0  0  0  0
 28 29  1  1  0  0  0
M  END
>  <CHROM.1>
-130.34096185,-103.27281434,-83.08785286,-100.33341287,-115.12289414,-169.61485999
-7.79786727,-9.38004894,-11.66324227,3.01639634,0.98520037,-1.63239668

>  <Name>
ligand

>  <RI>
0

>  <Rbt.Current_Directory>
/home/itssahil/PROJECTS/Mol_Feturizer/New_Systems/rnas/4F8U

>  <Rbt.Executable>
rbdock ($Id: //depot/dev/client3/rdock/2013.1/src/exe/rbdock.cxx#4 $)

>  <Rbt.Library>
libRbt.so (2013.1, Build901 2013/11/27)

>  <Rbt.Parameter_File>
/export/apps/rDock/src/rDock_2013.1_src/data/scripts/dock_solv.prm

>  <Rbt.Receptor>
prm/blind_docking_40.prm

>  <SCORE>
41.6453

>  <SCORE.INTER>
22.8355

>  <SCORE.INTER.CONST>
1

>  <SCORE.INTER.POLAR>
0

>  <SCORE.INTER.ROT>
6

>  <SCORE.INTER.SOLV>
27.8917

>  <SCORE.INTER.VDW>
-1.67358

>  <SCORE.INTER.norm>
0.736628

>  <SCORE.INTRA>
2.99622

>  <SCORE.INTRA.DIHEDRAL>
1.89224

>  <SCORE.INTRA.DIHEDRAL.0>
18.77

>  <SCORE.INTRA.POLAR>
0

>  <SCORE.INTRA.POLAR.0>
0

>  <SCORE.INTRA.REPUL>
0

>  <SCORE.INTRA.REPUL.0>
0

>  <SCORE.INTRA.SOLV>
0.40954

>  <SCORE.INTRA.SOLV.lig_0>
-77.2465

>  <SCORE.INTRA.VDW>
1.84533

>  <SCORE.INTRA.VDW.0>
-4.16072

>  <SCORE.INTRA.norm>
0.0966521

>  <SCORE.RESTR>
15.8136

>  <SCORE.RESTR.CAVITY>
15.8136

>  <SCORE.RESTR.norm>
0.510116

>  <SCORE.SYSTEM>
0

>  <SCORE.SYSTEM.CONST>
0

>  <SCORE.SYSTEM.DIHEDRAL>
0

>  <SCORE.SYSTEM.SOLV>
0

>  <SCORE.SYSTEM.norm>
0

>  <SCORE.heavy>
31

>  <SCORE.norm>
1.3434

>  <RMSD>
6.650

$$$$
ligand
 OpenBabel11021811493D
libRbt.so/2013.1/901 2013/11/27
 31 33  0  0  0  0  0  0  0  0999 V2000
   -6.2903   -7.4973  -22.6446 C   0  0  2  0  0  0  0  0  0  0  0  0
   -7.1948   -8.2424  -21.8179 O   0  0  0  0  0  0  0  0  0  0  0  0
   -8.0063  -12.3142  -20.7760 C   0  0  2  0  0  0  0  0  0  0  0  0
   -7.7965  -13.6833  -20.4161 N   0  0  0  0  0  0  0  0  0  0  0  0
   -7.7352  -12.7944  -17.5897 C   0  0  2  0  0  0  0  0  0  0  0  0
   -5.4181   -6.6276  -21.6726 C   0  0  2  0  0  0  0  0  0  0  0  0
   -4.7305   -7.4927  -20.7205 N   0  0  0  0  0  0  0  0  0  0  0  0
   -7.3168  -12.0415  -22.1682 C   0  0  0  0  0  0  0  0  0  0  0  0
   -8.5982  -12.5847  -16.3074 C   0  0  2  0  0  0  0  0  0  0  0  0
   -9.9664  -12.5375  -16.6743 O   0  0  0  0  0  0  0  0  0  0  0  0
   -6.3286   -5.5925  -20.9245 C   0  0  0  0  0  0  0  0  0  0  0  0
   -7.5574  -10.5225  -22.5707 C   0  0  2  0  0  0  0  0  0  0  0  0
   -6.9122  -10.2539  -23.8771 N   0  0  0  0  0  0  0  0  0  0  0  0
   -8.1360  -11.2087  -15.6523 C   0  0  1  0  0  0  0  0  0  0  0  0
   -8.9440  -10.9098  -14.4214 N   0  0  0  0  0  0  0  0  0  0  0  0
   -7.2747   -4.8642  -21.9224 C   0  0  0  0  0  0  0  0  0  0  0  0
   -6.9475   -9.5714  -21.4472 C   0  0  2  0  0  0  0  0  0  0  0  0
   -6.5618  -11.3116  -15.2471 C   0  0  1  0  0  0  0  0  0  0  0  0
   -6.3195  -12.3451  -14.3121 O   0  0  0  0  0  0  0  0  0  0  0  0
   -7.5426   -5.3879  -23.1281 C   0  0  2  0  0  0  0  0  0  0  0  0
   -6.9890   -6.6326  -23.5897 O   0  0  0  0  0  0  0  0  0  0  0  0
   -7.6411   -9.8921  -20.0574 C   0  0  2  0  0  0  0  0  0  0  0  0
   -7.0834   -9.0595  -19.0328 O   0  0  0  0  0  0  0  0  0  0  0  0
   -5.7175  -11.6214  -16.5290 C   0  0  0  0  0  0  0  0  0  0  0  0
   -6.2733  -12.8511  -17.2274 O   0  0  0  0  0  0  0  0  0  0  0  0
   -8.4780   -4.6780  -24.1346 C   0  0  0  0  0  0  0  0  0  0  0  0
   -8.0427   -4.9705  -25.4930 N   0  0  0  0  0  0  0  0  0  0  0  0
   -7.3962  -11.3967  -19.6754 C   0  0  1  0  0  0  0  0  0  0  0  0
   -8.0293  -11.6435  -18.4428 O   0  0  0  0  0  0  0  0  0  0  0  0
   -5.9552  -10.0545  -14.6018 C   0  0  0  0  0  0  0  0  0  0  0  0
  -10.1976  -10.1600  -14.6273 C   0  0  0  0  0  0  0  0  0  0  0  0
  1  2  1  1  0  0  0
  1  6  1  0  0  0  0
  1 21  1  0  0  0  0
  3  4  1  1  0  0  0
  3  8  1  0  0  0  0
  3 28  1  0  0  0  0
  5  9  1  0  0  0  0
  5 25  1  0  0  0  0
  5 29  1  6  0  0  0
  6  7  1  1  0  0  0
  6 11  1  0  0  0  0
  8 12  1  0  0  0  0
  9 10  1  6  0  0  0
  9 14  1  0  0  0  0
 11 16  1  0  0  0  0
 12 13  1  6  0  0  0
 12 17  1  0  0  0  0
 14 15  1  1  0  0  0
 14 18  1  0  0  0  0
 15 31  1  0  0  0  0
 16 20  1  0  0  0  0
 17  2  1  6  0  0  0
 17 22  1  0  0  0  0
 18 19  1  1  0  0  0
 18 24  1  0  0  0  0
 18 30  1  0  0  0  0
 20 21  1  0  0  0  0
 20 26  1  6  0  0  0
 22 23  1  1  0  0  0
 22 28  1  0  0  0  0
 24 25  1  0  0  0  0
 26 27  1  0  0  0  0
 28 29  1  1  0  0  0
M  END
>  <CHROM.1>
-98.03155173,176.11370010,-88.53242040,-88.47365566,148.22644836,78.01747166
-7.34281485,-9.71315361,-19.55885058,-0.89317536,1.46366056,1.53511285

>  <Name>
ligand

>  <RI>
0

>  <Rbt.Current_Directory>
/home/itssahil/PROJECTS/Mol_Feturizer/New_Systems/rnas/4F8U

>  <Rbt.Executable>
rbdock ($Id: //depot/dev/client3/rdock/2013.1/src/exe/rbdock.cxx#4 $)

>  <Rbt.Library>
libRbt.so (2013.1, Build901 2013/11/27)

>  <Rbt.Parameter_File>
/export/apps/rDock/src/rDock_2013.1_src/data/scripts/dock_solv.prm

>  <Rbt.Receptor>
prm/pocket_docking_6.prm

>  <SCORE>
-11.146

>  <SCORE.INTER>
-9.19736

>  <SCORE.INTER.CONST>
1

>  <SCORE.INTER.POLAR>
0

>  <SCORE.INTER.ROT>
6

>  <SCORE.INTER.SOLV>
16.5423

>  <SCORE.INTER.VDW>
-19.2457

>  <SCORE.INTER.norm>
-0.296689

>  <SCORE.INTRA>
-1.9486

>  <SCORE.INTRA.DIHEDRAL>
-5.7209

>  <SCORE.INTRA.DIHEDRAL.0>
18.77

>  <SCORE.INTRA.POLAR>
0

>  <SCORE.INTRA.POLAR.0>
0

>  <SCORE.INTRA.REPUL>
0

>  <SCORE.INTRA.REPUL.0>
0

>  <SCORE.INTRA.SOLV>
0.771983

>  <SCORE.INTRA.SOLV.lig_0>
-77.2465

>  <SCORE.INTRA.VDW>
0.525858

>  <SCORE.INTRA.VDW.0>
-4.16072

>  <SCORE.INTRA.norm>
-0.062858

>  <SCORE.RESTR>
0

>  <SCORE.RESTR.CAVITY>
0

>  <SCORE.RESTR.norm>
0

>  <SCORE.SYSTEM>
0

>  <SCORE.SYSTEM.CONST>
0

>  <SCORE.SYSTEM.DIHEDRAL>
0

>  <SCORE.SYSTEM.SOLV>
0

>  <SCORE.SYSTEM.norm>
0

>  <SCORE.heavy>
31

>  <SCORE.norm>
-0.359547

>  <RMSD>
6.660

$$$$
ligand
 OpenBabel11021811493D
libRbt.so/2013.1/901 2013/11/27
 31 33  0  0  0  0  0  0  0  0999 V2000
   -9.5095   -6.0432  -10.4742 C   0  0  2  0  0  0  0  0  0  0  0  0
   -9.5037   -7.3291  -11.1091 O   0  0  0  0  0  0  0  0  0  0  0  0
   -6.9833  -10.1699  -13.0842 C   0  0  2  0  0  0  0  0  0  0  0  0
   -5.8358  -10.7483  -13.7140 N   0  0  0  0  0  0  0  0  0  0  0  0
   -5.0541  -11.0044  -10.0499 C   0  0  2  0  0  0  0  0  0  0  0  0
  -10.8830   -5.9269   -9.7246 C   0  0  2  0  0  0  0  0  0  0  0  0
  -11.0206   -7.0260   -8.7754 N   0  0  0  0  0  0  0  0  0  0  0  0
   -7.4253   -8.8953  -13.9016 C   0  0  0  0  0  0  0  0  0  0  0  0
   -3.8424  -10.9205  -11.0286 C   0  0  2  0  0  0  0  0  0  0  0  0
   -3.9054   -9.6949  -11.7376 O   0  0  0  0  0  0  0  0  0  0  0  0
  -12.0578   -5.9407  -10.7636 C   0  0  0  0  0  0  0  0  0  0  0  0
   -8.7048   -8.2582  -13.2056 C   0  0  2  0  0  0  0  0  0  0  0  0
   -9.1284   -7.0582  -13.9643 N   0  0  0  0  0  0  0  0  0  0  0  0
   -3.9566  -12.1602  -12.0218 C   0  0  1  0  0  0  0  0  0  0  0  0
   -2.8398  -12.1390  -13.0266 N   0  0  0  0  0  0  0  0  0  0  0  0
  -11.7701   -4.9614  -11.9381 C   0  0  0  0  0  0  0  0  0  0  0  0
   -8.3524   -7.8656  -11.7021 C   0  0  2  0  0  0  0  0  0  0  0  0
   -3.8778  -13.5421  -11.1633 C   0  0  1  0  0  0  0  0  0  0  0  0
   -2.6593  -13.6594  -10.4546 O   0  0  0  0  0  0  0  0  0  0  0  0
  -10.5224   -4.5435  -12.1995 C   0  0  2  0  0  0  0  0  0  0  0  0
   -9.3756   -4.9518  -11.4333 O   0  0  0  0  0  0  0  0  0  0  0  0
   -7.8847   -9.1629  -10.9186 C   0  0  2  0  0  0  0  0  0  0  0  0
   -7.5413   -8.8185   -9.5705 O   0  0  0  0  0  0  0  0  0  0  0  0
   -5.0421  -13.5670  -10.1164 C   0  0  0  0  0  0  0  0  0  0  0  0
   -5.0100  -12.2991   -9.2797 O   0  0  0  0  0  0  0  0  0  0  0  0
  -10.2166   -3.5685  -13.3603 C   0  0  0  0  0  0  0  0  0  0  0  0
  -11.4226   -2.8286  -13.7047 N   0  0  0  0  0  0  0  0  0  0  0  0
   -6.6217   -9.7813  -11.6200 C   0  0  1  0  0  0  0  0  0  0  0  0
   -6.2410  -10.9299  -10.9012 O   0  0  0  0  0  0  0  0  0  0  0  0
   -3.9787  -14.8415  -11.9794 C   0  0  0  0  0  0  0  0  0  0  0  0
   -1.4858  -11.8922  -12.4954 C   0  0  0  0  0  0  0  0  0  0  0  0
  1  2  1  6  0  0  0
  1  6  1  0  0  0  0
  1 21  1  0  0  0  0
  3  4  1  6  0  0  0
  3  8  1  0  0  0  0
  3 28  1  0  0  0  0
  5  9  1  0  0  0  0
  5 25  1  0  0  0  0
  5 29  1  6  0  0  0
  6  7  1  1  0  0  0
  6 11  1  0  0  0  0
  8 12  1  0  0  0  0
  9 10  1  6  0  0  0
  9 14  1  0  0  0  0
 11 16  1  0  0  0  0
 12 13  1  6  0  0  0
 12 17  1  0  0  0  0
 14 15  1  6  0  0  0
 14 18  1  0  0  0  0
 15 31  1  0  0  0  0
 16 20  1  0  0  0  0
 17  2  1  1  0  0  0
 17 22  1  0  0  0  0
 18 19  1  1  0  0  0
 18 24  1  0  0  0  0
 18 30  1  0  0  0  0
 20 21  1  0  0  0  0
 20 26  1  1  0  0  0
 22 23  1  1  0  0  0
 22 28  1  0  0  0  0
 24 25  1  0  0  0  0
 26 27  1  0  0  0  0
 28 29  1  1  0  0  0
M  END
>  <CHROM.1>
-170.02469567,-67.93714712,46.50846930,-125.92032763,22.21393347,133.12841852
-7.14199510,-9.07683112,-11.57221736,2.71308146,0.72350856,-1.02256696

>  <Name>
ligand

>  <RI>
0

>  <Rbt.Current_Directory>
/home/itssahil/PROJECTS/Mol_Feturizer/New_Systems/rnas/4F8U

>  <Rbt.Executable>
rbdock ($Id: //depot/dev/client3/rdock/2013.1/src/exe/rbdock.cxx#4 $)

>  <Rbt.Library>
libRbt.so (2013.1, Build901 2013/11/27)

>  <Rbt.Parameter_File>
/export/apps/rDock/src/rDock_2013.1_src/data/scripts/dock_solv.prm

>  <Rbt.Receptor>
prm/blind_docking_40.prm

>  <SCORE>
11.561

>  <SCORE.INTER>
-2.5211

>  <SCORE.INTER.CONST>
1

>  <SCORE.INTER.POLAR>
0

>  <SCORE.INTER.ROT>
6

>  <SCORE.INTER.SOLV>
21.894

>  <SCORE.INTER.VDW>
-16.5787

>  <SCORE.INTER.norm>
-0.0813259

>  <SCORE.INTRA>
3.65007

>  <SCORE.INTRA.DIHEDRAL>
-2.17244

>  <SCORE.INTRA.DIHEDRAL.0>
18.77

>  <SCORE.INTRA.POLAR>
0

>  <SCORE.INTRA.POLAR.0>
0

>  <SCORE.INTRA.REPUL>
0

>  <SCORE.INTRA.REPUL.0>
0

>  <SCORE.INTRA.SOLV>
3.97396

>  <SCORE.INTRA.SOLV.lig_0>
-77.2465

>  <SCORE.INTRA.VDW>
2.74931

>  <SCORE.INTRA.VDW.0>
-4.16072

>  <SCORE.INTRA.norm>
0.117744

>  <SCORE.RESTR>
10.432

>  <SCORE.RESTR.CAVITY>
10.432

>  <SCORE.RESTR.norm>
0.336516

>  <SCORE.SYSTEM>
0

>  <SCORE.SYSTEM.CONST>
0

>  <SCORE.SYSTEM.DIHEDRAL>
0

>  <SCORE.SYSTEM.SOLV>
0

>  <SCORE.SYSTEM.norm>
0

>  <SCORE.heavy>
31

>  <SCORE.norm>
0.372934

>  <RMSD>
6.673

$$$$
ligand
 OpenBabel11021811493D
libRbt.so/2013.1/901 2013/11/27
 31 33  0  0  0  0  0  0  0  0999 V2000
   -8.1349   -7.1197  -11.7094 C   0  0  2  0  0  0  0  0  0  0  0  0
   -8.6203   -7.9773  -10.6676 O   0  0  0  0  0  0  0  0  0  0  0  0
   -7.5197  -12.0075   -9.7347 C   0  0  2  0  0  0  0  0  0  0  0  0
   -7.4553  -13.4362   -9.7875 N   0  0  0  0  0  0  0  0  0  0  0  0
   -4.6474  -11.7744  -10.3087 C   0  0  2  0  0  0  0  0  0  0  0  0
   -8.9852   -5.8034  -11.6299 C   0  0  2  0  0  0  0  0  0  0  0  0
   -8.8529   -5.2111  -10.3035 N   0  0  0  0  0  0  0  0  0  0  0  0
   -9.0095  -11.5743   -9.4506 C   0  0  0  0  0  0  0  0  0  0  0  0
   -3.4253  -11.0984  -11.0036 C   0  0  2  0  0  0  0  0  0  0  0  0
   -3.7947   -9.7957  -11.4223 O   0  0  0  0  0  0  0  0  0  0  0  0
  -10.4876   -6.1217  -11.9481 C   0  0  0  0  0  0  0  0  0  0  0  0
   -9.0782   -9.9874   -9.3843 C   0  0  2  0  0  0  0  0  0  0  0  0
  -10.4744   -9.5684   -9.1193 N   0  0  0  0  0  0  0  0  0  0  0  0
   -3.0338  -12.0084  -12.2505 C   0  0  1  0  0  0  0  0  0  0  0  0
   -1.8787  -11.4096  -13.0018 N   0  0  0  0  0  0  0  0  0  0  0  0
  -10.6087   -7.0054  -13.2232 C   0  0  0  0  0  0  0  0  0  0  0  0
   -8.5699   -9.3748  -10.7646 C   0  0  2  0  0  0  0  0  0  0  0  0
   -2.6166  -13.4909  -11.7205 C   0  0  1  0  0  0  0  0  0  0  0  0
   -1.5078  -13.4496  -10.8430 O   0  0  0  0  0  0  0  0  0  0  0  0
   -9.5640   -7.7173  -13.6722 C   0  0  2  0  0  0  0  0  0  0  0  0
   -8.2762   -7.7206  -13.0316 O   0  0  0  0  0  0  0  0  0  0  0  0
   -7.0817   -9.8535  -11.0327 C   0  0  2  0  0  0  0  0  0  0  0  0
   -6.6210   -9.3286  -12.2842 O   0  0  0  0  0  0  0  0  0  0  0  0
   -3.8199  -14.1176  -10.9385 C   0  0  0  0  0  0  0  0  0  0  0  0
   -4.2807  -13.1625   -9.8503 O   0  0  0  0  0  0  0  0  0  0  0  0
   -9.6637   -8.5991  -14.9388 C   0  0  0  0  0  0  0  0  0  0  0  0
   -9.2806   -9.9654  -14.6118 N   0  0  0  0  0  0  0  0  0  0  0  0
   -7.0307  -11.4230  -11.0930 C   0  0  1  0  0  0  0  0  0  0  0  0
   -5.6972  -11.8084  -11.3264 O   0  0  0  0  0  0  0  0  0  0  0  0
   -2.2129  -14.4996  -12.8087 C   0  0  0  0  0  0  0  0  0  0  0  0
   -2.2018  -10.3116  -13.9325 C   0  0  0  0  0  0  0  0  0  0  0  0
  1  2  1  1  0  0  0
  1  6  1  0  0  0  0
  1 21  1  0  0  0  0
  3  4  1  6  0  0  0
  3  8  1  0  0  0  0
  3 28  1  0  0  0  0
  5  9  1  0  0  0  0
  5 25  1  0  0  0  0
  5 29  1  6  0  0  0
  6  7  1  1  0  0  0
  6 11  1  0  0  0  0
  8 12  1  0  0  0  0
  9 10  1  6  0  0  0
  9 14  1  0  0  0  0
 11 16  1  0  0  0  0
 12 13  1  6  0  0  0
 12 17  1  0  0  0  0
 14 15  1  1  0  0  0
 14 18  1  0  0  0  0
 15 31  1  0  0  0  0
 16 20  1  0  0  0  0
 17  2  1  1  0  0  0
 17 22  1  0  0  0  0
 18 19  1  1  0  0  0
 18 24  1  0  0  0  0
 18 30  1  0  0  0  0
 20 21  1  0  0  0  0
 20 26  1  6  0  0  0
 22 23  1  6  0  0  0
 22 28  1  0  0  0  0
 24 25  1  0  0  0  0
 26 27  1  0  0  0  0
 28 29  1  1  0  0  0
M  END
>  <CHROM.1>
150.91246405,-133.48261384,-80.27209951,175.31765041,-124.31093138,-43.91127251
-6.54880141,-10.22938291,-11.55329601,-2.61661139,-0.46252471,2.41687513

>  <Name>
ligand

>  <RI>
0

>  <Rbt.Current_Directory>
/home/itssahil/PROJECTS/Mol_Feturizer/New_Systems/rnas/4F8U

>  <Rbt.Executable>
rbdock ($Id: //depot/dev/client3/rdock/2013.1/src/exe/rbdock.cxx#4 $)

>  <Rbt.Library>
libRbt.so (2013.1, Build901 2013/11/27)

>  <Rbt.Parameter_File>
/export/apps/rDock/src/rDock_2013.1_src/data/scripts/dock_solv.prm

>  <Rbt.Receptor>
prm/blind_docking_40.prm

>  <SCORE>
14.9983

>  <SCORE.INTER>
4.88229

>  <SCORE.INTER.CONST>
1

>  <SCORE.INTER.POLAR>
0

>  <SCORE.INTER.ROT>
6

>  <SCORE.INTER.SOLV>
18.4914

>  <SCORE.INTER.VDW>
-10.5089

>  <SCORE.INTER.norm>
0.157493

>  <SCORE.INTRA>
-0.283606

>  <SCORE.INTRA.DIHEDRAL>
-5.6775

>  <SCORE.INTRA.DIHEDRAL.0>
18.77

>  <SCORE.INTRA.POLAR>
0

>  <SCORE.INTRA.POLAR.0>
0

>  <SCORE.INTRA.REPUL>
0

>  <SCORE.INTRA.REPUL.0>
0

>  <SCORE.INTRA.SOLV>
0.590882

>  <SCORE.INTRA.SOLV.lig_0>
-77.2465

>  <SCORE.INTRA.VDW>
2.2597

>  <SCORE.INTRA.VDW.0>
-4.16072

>  <SCORE.INTRA.norm>
-0.00914859

>  <SCORE.RESTR>
10.3996

>  <SCORE.RESTR.CAVITY>
10.3996

>  <SCORE.RESTR.norm>
0.335472

>  <SCORE.SYSTEM>
0

>  <SCORE.SYSTEM.CONST>
0

>  <SCORE.SYSTEM.DIHEDRAL>
0

>  <SCORE.SYSTEM.SOLV>
0

>  <SCORE.SYSTEM.norm>
0

>  <SCORE.heavy>
31

>  <SCORE.norm>
0.483816

>  <RMSD>
6.708

$$$$
ligand
 OpenBabel11021811493D
libRbt.so/2013.1/901 2013/11/27
 31 33  0  0  0  0  0  0  0  0999 V2000
   -7.5204   -6.6123  -21.1023 C   0  0  2  0  0  0  0  0  0  0  0  0
   -8.1445   -7.7970  -21.6155 O   0  0  0  0  0  0  0  0  0  0  0  0
   -7.9494  -12.0434  -21.1118 C   0  0  2  0  0  0  0  0  0  0  0  0
   -7.4139  -13.3623  -20.9641 N   0  0  0  0  0  0  0  0  0  0  0  0
   -7.0314  -12.3931  -17.7641 C   0  0  2  0  0  0  0  0  0  0  0  0
   -7.4840   -5.5838  -22.2868 C   0  0  2  0  0  0  0  0  0  0  0  0
   -8.8385   -5.3435  -22.7720 N   0  0  0  0  0  0  0  0  0  0  0  0
   -7.4705  -11.4503  -22.4928 C   0  0  0  0  0  0  0  0  0  0  0  0
   -7.1045  -11.5612  -16.4465 C   0  0  2  0  0  0  0  0  0  0  0  0
   -8.4491  -11.5205  -16.0002 O   0  0  0  0  0  0  0  0  0  0  0  0
   -6.5712   -6.1320  -23.4383 C   0  0  0  0  0  0  0  0  0  0  0  0
   -8.0725   -9.9884  -22.6592 C   0  0  2  0  0  0  0  0  0  0  0  0
   -7.6277   -9.4201  -23.9532 N   0  0  0  0  0  0  0  0  0  0  0  0
   -6.5721  -10.0993  -16.7862 C   0  0  1  0  0  0  0  0  0  0  0  0
   -6.6394   -9.2155  -15.5730 N   0  0  0  0  0  0  0  0  0  0  0  0
   -5.2203   -6.6571  -22.8719 C   0  0  0  0  0  0  0  0  0  0  0  0
   -7.5803   -9.0700  -21.4538 C   0  0  2  0  0  0  0  0  0  0  0  0
   -5.0269  -10.1970  -17.2919 C   0  0  1  0  0  0  0  0  0  0  0  0
   -4.1788  -10.7541  -16.3064 O   0  0  0  0  0  0  0  0  0  0  0  0
   -5.0926   -6.9783  -21.5757 C   0  0  2  0  0  0  0  0  0  0  0  0
   -6.1649   -6.8637  -20.6240 O   0  0  0  0  0  0  0  0  0  0  0  0
   -8.0530   -9.7101  -20.0818 C   0  0  2  0  0  0  0  0  0  0  0  0
   -7.5953   -8.9056  -18.9876 O   0  0  0  0  0  0  0  0  0  0  0  0
   -4.9547  -11.1165  -18.5575 C   0  0  0  0  0  0  0  0  0  0  0  0
   -5.6096  -12.4549  -18.2601 O   0  0  0  0  0  0  0  0  0  0  0  0
   -3.7579   -7.4990  -20.9935 C   0  0  0  0  0  0  0  0  0  0  0  0
   -3.9705   -8.8021  -20.3793 N   0  0  0  0  0  0  0  0  0  0  0  0
   -7.4519  -11.1545  -19.9338 C   0  0  1  0  0  0  0  0  0  0  0  0
   -7.8967  -11.6899  -18.7105 O   0  0  0  0  0  0  0  0  0  0  0  0
   -4.3617   -8.8624  -17.6669 C   0  0  0  0  0  0  0  0  0  0  0  0
   -6.0044   -9.7364  -14.3476 C   0  0  0  0  0  0  0  0  0  0  0  0
  1  2  1  6  0  0  0
  1  6  1  0  0  0  0
  1 21  1  0  0  0  0
  3  4  1  1  0  0  0
  3  8  1  0  0  0  0
  3 28  1  0  0  0  0
  5  9  1  0  0  0  0
  5 25  1  0  0  0  0
  5 29  1  6  0  0  0
  6  7  1  6  0  0  0
  6 11  1  0  0  0  0
  8 12  1  0  0  0  0
  9 10  1  6  0  0  0
  9 14  1  0  0  0  0
 11 16  1  0  0  0  0
 12 13  1  6  0  0  0
 12 17  1  0  0  0  0
 14 15  1  1  0  0  0
 14 18  1  0  0  0  0
 15 31  1  0  0  0  0
 16 20  1  0  0  0  0
 17  2  1  6  0  0  0
 17 22  1  0  0  0  0
 18 19  1  1  0  0  0
 18 24  1  0  0  0  0
 18 30  1  0  0  0  0
 20 21  1  0  0  0  0
 20 26  1  1  0  0  0
 22 23  1  1  0  0  0
 22 28  1  0  0  0  0
 24 25  1  0  0  0  0
 26 27  1  0  0  0  0
 28 29  1  1  0  0  0
M  END
>  <CHROM.1>
130.10695210,119.93887461,52.20167972,-152.84178870,-122.62515774,105.96263166
-6.63086100,-9.46112190,-19.72413122,-1.75438585,1.03452888,2.33018492

>  <Name>
ligand

>  <RI>
0

>  <Rbt.Current_Directory>
/home/itssahil/PROJECTS/Mol_Feturizer/New_Systems/rnas/4F8U

>  <Rbt.Executable>
rbdock ($Id: //depot/dev/client3/rdock/2013.1/src/exe/rbdock.cxx#4 $)

>  <Rbt.Library>
libRbt.so (2013.1, Build901 2013/11/27)

>  <Rbt.Parameter_File>
/export/apps/rDock/src/rDock_2013.1_src/data/scripts/dock_solv.prm

>  <Rbt.Receptor>
prm/blind_docking_60.prm

>  <SCORE>
30.345

>  <SCORE.INTER>
3.69509

>  <SCORE.INTER.CONST>
1

>  <SCORE.INTER.POLAR>
0

>  <SCORE.INTER.ROT>
6

>  <SCORE.INTER.SOLV>
25.1256

>  <SCORE.INTER.VDW>
-13.5118

>  <SCORE.INTER.norm>
0.119196

>  <SCORE.INTRA>
9.16112

>  <SCORE.INTRA.DIHEDRAL>
6.2104

>  <SCORE.INTRA.DIHEDRAL.0>
18.77

>  <SCORE.INTRA.POLAR>
0

>  <SCORE.INTRA.POLAR.0>
0

>  <SCORE.INTRA.REPUL>
0

>  <SCORE.INTRA.REPUL.0>
0

>  <SCORE.INTRA.SOLV>
5.59914

>  <SCORE.INTRA.SOLV.lig_0>
-77.2465

>  <SCORE.INTRA.VDW>
3.25635

>  <SCORE.INTRA.VDW.0>
-4.16072

>  <SCORE.INTRA.norm>
0.29552

>  <SCORE.RESTR>
17.4888

>  <SCORE.RESTR.CAVITY>
17.4888

>  <SCORE.RESTR.norm>
0.564156

>  <SCORE.SYSTEM>
0

>  <SCORE.SYSTEM.CONST>
0

>  <SCORE.SYSTEM.DIHEDRAL>
0

>  <SCORE.SYSTEM.SOLV>
0

>  <SCORE.SYSTEM.norm>
0

>  <SCORE.heavy>
31

>  <SCORE.norm>
0.978872

>  <RMSD>
6.710

$$$$
ligand
 OpenBabel11021811493D
libRbt.so/2013.1/901 2013/11/27
 31 33  0  0  0  0  0  0  0  0999 V2000
   -8.3256   -9.3926  -12.2931 C   0  0  2  0  0  0  0  0  0  0  0  0
   -6.9275   -9.3327  -11.9794 O   0  0  0  0  0  0  0  0  0  0  0  0
   -3.8600  -11.7464  -10.2221 C   0  0  2  0  0  0  0  0  0  0  0  0
   -3.0811  -12.8938   -9.8691 N   0  0  0  0  0  0  0  0  0  0  0  0
   -1.9927  -11.9134  -13.4673 C   0  0  2  0  0  0  0  0  0  0  0  0
   -8.7331   -7.9544  -12.7703 C   0  0  2  0  0  0  0  0  0  0  0  0
   -7.9143   -7.5642  -13.9127 N   0  0  0  0  0  0  0  0  0  0  0  0
   -5.3360  -11.9535   -9.7058 C   0  0  0  0  0  0  0  0  0  0  0  0
   -2.3769  -13.4252  -13.4604 C   0  0  2  0  0  0  0  0  0  0  0  0
   -3.7876  -13.5428  -13.3903 O   0  0  0  0  0  0  0  0  0  0  0  0
   -8.5617   -6.9351  -11.5908 C   0  0  0  0  0  0  0  0  0  0  0  0
   -6.1982  -10.6748  -10.0916 C   0  0  2  0  0  0  0  0  0  0  0  0
   -7.5882  -10.8588   -9.6128 N   0  0  0  0  0  0  0  0  0  0  0  0
   -1.6863  -14.0774  -12.1821 C   0  0  1  0  0  0  0  0  0  0  0  0
   -2.0332  -15.5356  -12.0784 N   0  0  0  0  0  0  0  0  0  0  0  0
   -9.1976   -7.4891  -10.2830 C   0  0  0  0  0  0  0  0  0  0  0  0
   -6.1799  -10.4780  -11.6727 C   0  0  2  0  0  0  0  0  0  0  0  0
   -0.0702  -13.9194  -12.3084 C   0  0  1  0  0  0  0  0  0  0  0  0
    0.4392  -14.5656  -13.4591 O   0  0  0  0  0  0  0  0  0  0  0  0
   -9.4358   -8.8007  -10.1323 C   0  0  2  0  0  0  0  0  0  0  0  0
   -9.1350   -9.7796  -11.1423 O   0  0  0  0  0  0  0  0  0  0  0  0
   -4.6809  -10.3024  -12.1605 C   0  0  2  0  0  0  0  0  0  0  0  0
   -4.6488  -10.1488  -13.5851 O   0  0  0  0  0  0  0  0  0  0  0  0
    0.2937  -12.4001  -12.4149 C   0  0  0  0  0  0  0  0  0  0  0  0
   -0.4955  -11.7592  -13.5442 O   0  0  0  0  0  0  0  0  0  0  0  0
  -10.0694   -9.3702   -8.8416 C   0  0  0  0  0  0  0  0  0  0  0  0
  -11.1906  -10.2318   -9.1891 N   0  0  0  0  0  0  0  0  0  0  0  0
   -3.8422  -11.5726  -11.7697 C   0  0  1  0  0  0  0  0  0  0  0  0
   -2.5208  -11.3773  -12.2132 O   0  0  0  0  0  0  0  0  0  0  0  0
    0.7500  -14.4979  -11.1435 C   0  0  0  0  0  0  0  0  0  0  0  0
   -3.4702  -15.8643  -12.0210 C   0  0  0  0  0  0  0  0  0  0  0  0
  1  2  1  1  0  0  0
  1  6  1  0  0  0  0
  1 21  1  0  0  0  0
  3  4  1  6  0  0  0
  3  8  1  0  0  0  0
  3 28  1  0  0  0  0
  5  9  1  0  0  0  0
  5 25  1  0  0  0  0
  5 29  1  1  0  0  0
  6  7  1  6  0  0  0
  6 11  1  0  0  0  0
  8 12  1  0  0  0  0
  9 10  1  1  0  0  0
  9 14  1  0  0  0  0
 11 16  1  0  0  0  0
 12 13  1  6  0  0  0
 12 17  1  0  0  0  0
 14 15  1  6  0  0  0
 14 18  1  0  0  0  0
 15 31  1  0  0  0  0
 16 20  1  0  0  0  0
 17  2  1  1  0  0  0
 17 22  1  0  0  0  0
 18 19  1  6  0  0  0
 18 24  1  0  0  0  0
 18 30  1  0  0  0  0
 20 21  1  0  0  0  0
 20 26  1  6  0  0  0
 22 23  1  6  0  0  0
 22 28  1  0  0  0  0
 24 25  1  0  0  0  0
 26 27  1  0  0  0  0
 28 29  1  1  0  0  0
M  END
>  <CHROM.1>
-172.08976283,-50.08620820,-57.01911622,-92.43908024,129.75906900,143.31918047
-4.86376171,-11.32310330,-11.72057300,-2.85216650,-0.50281185,2.43812786

>  <Name>
ligand

>  <RI>
0

>  <Rbt.Current_Directory>
/home/itssahil/PROJECTS/Mol_Feturizer/New_Systems/rnas/4F8U

>  <Rbt.Executable>
rbdock ($Id: //depot/dev/client3/rdock/2013.1/src/exe/rbdock.cxx#4 $)

>  <Rbt.Library>
libRbt.so (2013.1, Build901 2013/11/27)

>  <Rbt.Parameter_File>
/export/apps/rDock/src/rDock_2013.1_src/data/scripts/dock_solv.prm

>  <Rbt.Receptor>
prm/blind_docking_40.prm

>  <SCORE>
30.8468

>  <SCORE.INTER>
8.90292

>  <SCORE.INTER.CONST>
1

>  <SCORE.INTER.POLAR>
0

>  <SCORE.INTER.ROT>
6

>  <SCORE.INTER.SOLV>
17.057

>  <SCORE.INTER.VDW>
-7.35038

>  <SCORE.INTER.norm>
0.287191

>  <SCORE.INTRA>
4.5899

>  <SCORE.INTRA.DIHEDRAL>
-7.28929

>  <SCORE.INTRA.DIHEDRAL.0>
18.77

>  <SCORE.INTRA.POLAR>
0

>  <SCORE.INTRA.POLAR.0>
0

>  <SCORE.INTRA.REPUL>
0

>  <SCORE.INTRA.REPUL.0>
0

>  <SCORE.INTRA.SOLV>
6.5672

>  <SCORE.INTRA.SOLV.lig_0>
-77.2465

>  <SCORE.INTRA.VDW>
4.95095

>  <SCORE.INTRA.VDW.0>
-4.16072

>  <SCORE.INTRA.norm>
0.148061

>  <SCORE.RESTR>
17.354

>  <SCORE.RESTR.CAVITY>
17.354

>  <SCORE.RESTR.norm>
0.559806

>  <SCORE.SYSTEM>
0

>  <SCORE.SYSTEM.CONST>
0

>  <SCORE.SYSTEM.DIHEDRAL>
0

>  <SCORE.SYSTEM.SOLV>
0

>  <SCORE.SYSTEM.norm>
0

>  <SCORE.heavy>
31

>  <SCORE.norm>
0.995058

>  <RMSD>
6.715

$$$$
ligand
 OpenBabel11021811493D
libRbt.so/2013.1/901 2013/11/27
 31 33  0  0  0  0  0  0  0  0999 V2000
   -8.3711   -8.9953  -22.6049 C   0  0  2  0  0  0  0  0  0  0  0  0
   -7.2667   -9.9101  -22.6059 O   0  0  0  0  0  0  0  0  0  0  0  0
   -7.9726  -12.8062  -19.5338 C   0  0  2  0  0  0  0  0  0  0  0  0
   -7.7372  -13.7016  -18.4425 N   0  0  0  0  0  0  0  0  0  0  0  0
   -7.9275  -10.4722  -16.7344 C   0  0  2  0  0  0  0  0  0  0  0  0
   -8.4996   -8.4564  -24.0729 C   0  0  2  0  0  0  0  0  0  0  0  0
   -8.6917   -9.5725  -24.9922 N   0  0  0  0  0  0  0  0  0  0  0  0
   -7.0742  -13.2427  -20.7545 C   0  0  0  0  0  0  0  0  0  0  0  0
   -7.1487   -9.1693  -17.0936 C   0  0  2  0  0  0  0  0  0  0  0  0
   -8.0405   -8.2513  -17.7027 O   0  0  0  0  0  0  0  0  0  0  0  0
   -7.2159   -7.6393  -24.4528 C   0  0  0  0  0  0  0  0  0  0  0  0
   -7.3425  -12.2521  -21.9687 C   0  0  2  0  0  0  0  0  0  0  0  0
   -6.5020  -12.6516  -23.1216 N   0  0  0  0  0  0  0  0  0  0  0  0
   -5.9830   -9.5826  -18.0969 C   0  0  1  0  0  0  0  0  0  0  0  0
   -5.1977   -8.3749  -18.5233 N   0  0  0  0  0  0  0  0  0  0  0  0
   -6.8454   -6.6336  -23.3246 C   0  0  0  0  0  0  0  0  0  0  0  0
   -6.9989  -10.7609  -21.5246 C   0  0  2  0  0  0  0  0  0  0  0  0
   -4.9858  -10.6344  -17.3537 C   0  0  1  0  0  0  0  0  0  0  0  0
   -4.3914  -10.0774  -16.1972 O   0  0  0  0  0  0  0  0  0  0  0  0
   -7.3078   -6.7951  -22.0757 C   0  0  2  0  0  0  0  0  0  0  0  0
   -8.1661   -7.8812  -21.6852 O   0  0  0  0  0  0  0  0  0  0  0  0
   -7.8979  -10.3658  -20.2791 C   0  0  2  0  0  0  0  0  0  0  0  0
   -7.5808   -9.0343  -19.8544 O   0  0  0  0  0  0  0  0  0  0  0  0
   -5.8022  -11.8948  -16.9098 C   0  0  0  0  0  0  0  0  0  0  0  0
   -7.0019  -11.4664  -16.0816 O   0  0  0  0  0  0  0  0  0  0  0  0
   -6.9531   -5.8051  -20.9418 C   0  0  0  0  0  0  0  0  0  0  0  0
   -7.0718   -6.4764  -19.6550 N   0  0  0  0  0  0  0  0  0  0  0  0
   -7.6226  -11.3551  -19.0894 C   0  0  1  0  0  0  0  0  0  0  0  0
   -8.4400  -10.9765  -18.0080 O   0  0  0  0  0  0  0  0  0  0  0  0
   -3.8011  -11.1387  -18.1943 C   0  0  0  0  0  0  0  0  0  0  0  0
   -4.6653   -8.3924  -19.8990 C   0  0  0  0  0  0  0  0  0  0  0  0
  1  2  1  6  0  0  0
  1  6  1  0  0  0  0
  1 21  1  0  0  0  0
  3  4  1  1  0  0  0
  3  8  1  0  0  0  0
  3 28  1  0  0  0  0
  5  9  1  0  0  0  0
  5 25  1  0  0  0  0
  5 29  1  6  0  0  0
  6  7  1  6  0  0  0
  6 11  1  0  0  0  0
  8 12  1  0  0  0  0
  9 10  1  6  0  0  0
  9 14  1  0  0  0  0
 11 16  1  0  0  0  0
 12 13  1  6  0  0  0
 12 17  1  0  0  0  0
 14 15  1  1  0  0  0
 14 18  1  0  0  0  0
 15 31  1  0  0  0  0
 16 20  1  0  0  0  0
 17  2  1  6  0  0  0
 17 22  1  0  0  0  0
 18 19  1  1  0  0  0
 18 24  1  0  0  0  0
 18 30  1  0  0  0  0
 20 21  1  0  0  0  0
 20 26  1  6  0  0  0
 22 23  1  1  0  0  0
 22 28  1  0  0  0  0
 24 25  1  0  0  0  0
 26 27  1  0  0  0  0
 28 29  1  1  0  0  0
M  END
>  <CHROM.1>
-168.65998311,60.94627124,-146.36498952,109.22766947,-155.69871666,126.02957369
-6.97510582,-9.81497143,-20.02192298,2.34420112,-1.27723372,-0.38028506

>  <Name>
ligand

>  <RI>
0

>  <Rbt.Current_Directory>
/home/itssahil/PROJECTS/Mol_Feturizer/New_Systems/rnas/4F8U

>  <Rbt.Executable>
rbdock ($Id: //depot/dev/client3/rdock/2013.1/src/exe/rbdock.cxx#4 $)

>  <Rbt.Library>
libRbt.so (2013.1, Build901 2013/11/27)

>  <Rbt.Parameter_File>
/export/apps/rDock/src/rDock_2013.1_src/data/scripts/dock_solv.prm

>  <Rbt.Receptor>
prm/blind_docking_60.prm

>  <SCORE>
30.935

>  <SCORE.INTER>
-2.02747

>  <SCORE.INTER.CONST>
1

>  <SCORE.INTER.POLAR>
0

>  <SCORE.INTER.ROT>
6

>  <SCORE.INTER.SOLV>
28.1982

>  <SCORE.INTER.VDW>
-18.351

>  <SCORE.INTER.norm>
-0.0654021

>  <SCORE.INTRA>
17.1223

>  <SCORE.INTRA.DIHEDRAL>
-0.84884

>  <SCORE.INTRA.DIHEDRAL.0>
18.77

>  <SCORE.INTRA.POLAR>
0

>  <SCORE.INTRA.POLAR.0>
0

>  <SCORE.INTRA.REPUL>
0.00758473

>  <SCORE.INTRA.REPUL.0>
0

>  <SCORE.INTRA.SOLV>
8.41135

>  <SCORE.INTRA.SOLV.lig_0>
-77.2465

>  <SCORE.INTRA.VDW>
13.3031

>  <SCORE.INTRA.VDW.0>
-4.16072

>  <SCORE.INTRA.norm>
0.552333

>  <SCORE.RESTR>
15.8402

>  <SCORE.RESTR.CAVITY>
15.8402

>  <SCORE.RESTR.norm>
0.510974

>  <SCORE.SYSTEM>
0

>  <SCORE.SYSTEM.CONST>
0

>  <SCORE.SYSTEM.DIHEDRAL>
0

>  <SCORE.SYSTEM.SOLV>
0

>  <SCORE.SYSTEM.norm>
0

>  <SCORE.heavy>
31

>  <SCORE.norm>
0.997904

>  <RMSD>
6.723

$$$$
ligand
 OpenBabel11021811493D
libRbt.so/2013.1/901 2013/11/27
 31 33  0  0  0  0  0  0  0  0999 V2000
   -6.3940   -7.9416  -21.9621 C   0  0  2  0  0  0  0  0  0  0  0  0
   -7.3255   -8.1193  -20.8863 O   0  0  0  0  0  0  0  0  0  0  0  0
   -8.0103  -11.0035  -17.7983 C   0  0  2  0  0  0  0  0  0  0  0  0
   -7.7710  -11.8821  -16.6943 N   0  0  0  0  0  0  0  0  0  0  0  0
   -8.8616  -10.0414  -15.1645 C   0  0  2  0  0  0  0  0  0  0  0  0
   -6.7883   -6.5982  -22.6704 C   0  0  2  0  0  0  0  0  0  0  0  0
   -6.7528   -5.5042  -21.7062 N   0  0  0  0  0  0  0  0  0  0  0  0
   -7.0796  -11.4281  -18.9989 C   0  0  0  0  0  0  0  0  0  0  0  0
  -10.1535   -9.4405  -14.5296 C   0  0  2  0  0  0  0  0  0  0  0  0
  -11.1895   -9.4475  -15.4967 O   0  0  0  0  0  0  0  0  0  0  0  0
   -8.2162   -6.7319  -23.3055 C   0  0  0  0  0  0  0  0  0  0  0  0
   -7.3521  -10.4564  -20.2273 C   0  0  2  0  0  0  0  0  0  0  0  0
   -6.4815  -10.8448  -21.3615 N   0  0  0  0  0  0  0  0  0  0  0  0
   -9.8049   -7.9536  -14.0784 C   0  0  1  0  0  0  0  0  0  0  0  0
  -11.0106   -7.2841  -13.4823 N   0  0  0  0  0  0  0  0  0  0  0  0
   -8.3427   -8.0580  -24.1099 C   0  0  0  0  0  0  0  0  0  0  0  0
   -7.0549   -8.9526  -19.7922 C   0  0  2  0  0  0  0  0  0  0  0  0
   -8.6135   -7.9969  -12.9686 C   0  0  1  0  0  0  0  0  0  0  0  0
   -8.9859   -8.7283  -11.8165 O   0  0  0  0  0  0  0  0  0  0  0  0
   -7.5037   -9.0816  -23.8910 C   0  0  2  0  0  0  0  0  0  0  0  0
   -6.4414   -9.0394  -22.9222 O   0  0  0  0  0  0  0  0  0  0  0  0
   -7.9854   -8.5692  -18.5663 C   0  0  2  0  0  0  0  0  0  0  0  0
   -7.7102   -7.2259  -18.1495 O   0  0  0  0  0  0  0  0  0  0  0  0
   -7.3551   -8.6929  -13.5885 C   0  0  0  0  0  0  0  0  0  0  0  0
   -7.7426  -10.0485  -14.1549 O   0  0  0  0  0  0  0  0  0  0  0  0
   -7.6116  -10.4062  -24.6819 C   0  0  0  0  0  0  0  0  0  0  0  0
   -7.4882  -10.1335  -26.1070 N   0  0  0  0  0  0  0  0  0  0  0  0
   -7.7056   -9.5397  -17.3624 C   0  0  1  0  0  0  0  0  0  0  0  0
   -8.5513   -9.1722  -16.2990 O   0  0  0  0  0  0  0  0  0  0  0  0
   -8.1533   -6.6322  -12.4298 C   0  0  0  0  0  0  0  0  0  0  0  0
  -10.9096   -5.8290  -13.2619 C   0  0  0  0  0  0  0  0  0  0  0  0
  1  2  1  1  0  0  0
  1  6  1  0  0  0  0
  1 21  1  0  0  0  0
  3  4  1  1  0  0  0
  3  8  1  0  0  0  0
  3 28  1  0  0  0  0
  5  9  1  0  0  0  0
  5 25  1  0  0  0  0
  5 29  1  6  0  0  0
  6  7  1  1  0  0  0
  6 11  1  0  0  0  0
  8 12  1  0  0  0  0
  9 10  1  6  0  0  0
  9 14  1  0  0  0  0
 11 16  1  0  0  0  0
 12 13  1  6  0  0  0
 12 17  1  0  0  0  0
 14 15  1  1  0  0  0
 14 18  1  0  0  0  0
 15 31  1  0  0  0  0
 16 20  1  0  0  0  0
 17  2  1  6  0  0  0
 17 22  1  0  0  0  0
 18 19  1  1  0  0  0
 18 24  1  0  0  0  0
 18 30  1  0  0  0  0
 20 21  1  0  0  0  0
 20 26  1  6  0  0  0
 22 23  1  1  0  0  0
 22 28  1  0  0  0  0
 24 25  1  0  0  0  0
 26 27  1  0  0  0  0
 28 29  1  1  0  0  0
M  END
>  <CHROM.1>
-159.42047761,-161.50782776,-168.53083279,-80.45522279,57.92974566,42.81635069
-8.12122744,-8.78567484,-18.28769580,0.68999579,1.30631230,-0.75212128

>  <Name>
ligand

>  <RI>
0

>  <Rbt.Current_Directory>
/home/itssahil/PROJECTS/Mol_Feturizer/New_Systems/rnas/4F8U

>  <Rbt.Executable>
rbdock ($Id: //depot/dev/client3/rdock/2013.1/src/exe/rbdock.cxx#4 $)

>  <Rbt.Library>
libRbt.so (2013.1, Build901 2013/11/27)

>  <Rbt.Parameter_File>
/export/apps/rDock/src/rDock_2013.1_src/data/scripts/dock_solv.prm

>  <Rbt.Receptor>
prm/blind_docking_80.prm

>  <SCORE>
31.9408

>  <SCORE.INTER>
15.6076

>  <SCORE.INTER.CONST>
1

>  <SCORE.INTER.POLAR>
0

>  <SCORE.INTER.ROT>
6

>  <SCORE.INTER.SOLV>
20.4395

>  <SCORE.INTER.VDW>
-4.00811

>  <SCORE.INTER.norm>
0.50347

>  <SCORE.INTRA>
2.60426

>  <SCORE.INTRA.DIHEDRAL>
-8.37696

>  <SCORE.INTRA.DIHEDRAL.0>
18.77

>  <SCORE.INTRA.POLAR>
0

>  <SCORE.INTRA.POLAR.0>
0

>  <SCORE.INTRA.REPUL>
0

>  <SCORE.INTRA.REPUL.0>
0

>  <SCORE.INTRA.SOLV>
2.07296

>  <SCORE.INTRA.SOLV.lig_0>
-77.2465

>  <SCORE.INTRA.VDW>
5.75625

>  <SCORE.INTRA.VDW.0>
-4.16072

>  <SCORE.INTRA.norm>
0.0840082

>  <SCORE.RESTR>
13.729

>  <SCORE.RESTR.CAVITY>
13.729

>  <SCORE.RESTR.norm>
0.442871

>  <SCORE.SYSTEM>
0

>  <SCORE.SYSTEM.CONST>
0

>  <SCORE.SYSTEM.DIHEDRAL>
0

>  <SCORE.SYSTEM.SOLV>
0

>  <SCORE.SYSTEM.norm>
0

>  <SCORE.heavy>
31

>  <SCORE.norm>
1.03035

>  <RMSD>
6.746

$$$$
ligand
 OpenBabel11021811493D
libRbt.so/2013.1/901 2013/11/27
 31 33  0  0  0  0  0  0  0  0999 V2000
    0.7900   -9.3552  -15.2452 C   0  0  2  0  0  0  0  0  0  0  0  0
    1.4625  -10.5410  -15.6904 O   0  0  0  0  0  0  0  0  0  0  0  0
    1.6542  -14.5024  -14.0797 C   0  0  2  0  0  0  0  0  0  0  0  0
    1.9947  -15.5960  -13.2217 N   0  0  0  0  0  0  0  0  0  0  0  0
   -0.9541  -13.5033  -11.5172 C   0  0  2  0  0  0  0  0  0  0  0  0
    0.2618   -8.6360  -16.5358 C   0  0  2  0  0  0  0  0  0  0  0  0
   -0.6134   -9.5366  -17.2781 N   0  0  0  0  0  0  0  0  0  0  0  0
    2.9793  -13.8959  -14.6831 C   0  0  0  0  0  0  0  0  0  0  0  0
   -1.8987  -14.6653  -11.0805 C   0  0  2  0  0  0  0  0  0  0  0  0
   -1.1220  -15.8264  -10.8407 O   0  0  0  0  0  0  0  0  0  0  0  0
    1.4722   -8.1818  -17.4237 C   0  0  0  0  0  0  0  0  0  0  0  0
    2.5993  -12.6863  -15.6422 C   0  0  2  0  0  0  0  0  0  0  0  0
    3.8373  -12.1071  -16.2140 N   0  0  0  0  0  0  0  0  0  0  0  0
   -2.9281  -14.9042  -12.2719 C   0  0  1  0  0  0  0  0  0  0  0  0
   -3.8608  -16.0365  -11.9474 N   0  0  0  0  0  0  0  0  0  0  0  0
    2.5506   -7.4615  -16.5636 C   0  0  0  0  0  0  0  0  0  0  0  0
    1.8030  -11.5814  -14.8150 C   0  0  2  0  0  0  0  0  0  0  0  0
   -3.7965  -13.5466  -12.5085 C   0  0  1  0  0  0  0  0  0  0  0  0
   -4.5344  -13.1800  -11.3588 O   0  0  0  0  0  0  0  0  0  0  0  0
    2.5973   -7.6274  -15.2331 C   0  0  2  0  0  0  0  0  0  0  0  0
    1.6759   -8.4603  -14.5079 O   0  0  0  0  0  0  0  0  0  0  0  0
    0.4940  -12.2316  -14.1991 C   0  0  2  0  0  0  0  0  0  0  0  0
   -0.2190  -11.2535  -13.4318 O   0  0  0  0  0  0  0  0  0  0  0  0
   -2.8262  -12.3654  -12.8485 C   0  0  0  0  0  0  0  0  0  0  0  0
   -1.7553  -12.2534  -11.7764 O   0  0  0  0  0  0  0  0  0  0  0  0
    3.6594   -6.9182  -14.3610 C   0  0  0  0  0  0  0  0  0  0  0  0
    4.5553   -6.1499  -15.2139 N   0  0  0  0  0  0  0  0  0  0  0  0
    0.8866  -13.4261  -13.2563 C   0  0  1  0  0  0  0  0  0  0  0  0
   -0.2981  -13.9789  -12.7347 O   0  0  0  0  0  0  0  0  0  0  0  0
   -4.8404  -13.6101  -13.6357 C   0  0  0  0  0  0  0  0  0  0  0  0
   -3.4296  -17.3820  -12.3715 C   0  0  0  0  0  0  0  0  0  0  0  0
  1  2  1  6  0  0  0
  1  6  1  0  0  0  0
  1 21  1  0  0  0  0
  3  4  1  1  0  0  0
  3  8  1  0  0  0  0
  3 28  1  0  0  0  0
  5  9  1  0  0  0  0
  5 25  1  0  0  0  0
  5 29  1  6  0  0  0
  6  7  1  6  0  0  0
  6 11  1  0  0  0  0
  8 12  1  0  0  0  0
  9 10  1  6  0  0  0
  9 14  1  0  0  0  0
 11 16  1  0  0  0  0
 12 13  1  1  0  0  0
 12 17  1  0  0  0  0
 14 15  1  1  0  0  0
 14 18  1  0  0  0  0
 15 31  1  0  0  0  0
 16 20  1  0  0  0  0
 17  2  1  6  0  0  0
 17 22  1  0  0  0  0
 18 19  1  1  0  0  0
 18 24  1  0  0  0  0
 18 30  1  0  0  0  0
 20 21  1  0  0  0  0
 20 26  1  1  0  0  0
 22 23  1  1  0  0  0
 22 28  1  0  0  0  0
 24 25  1  0  0  0  0
 26 27  1  0  0  0  0
 28 29  1  6  0  0  0
M  END
>  <CHROM.1>
-165.46052584,-161.56667314,-90.43539072,-177.04524938,-2.34224819,153.18465325
0.03477739,-11.99393288,-13.91933673,0.93491898,0.26197889,-0.33342173

>  <Name>
ligand

>  <RI>
0

>  <Rbt.Current_Directory>
/home/itssahil/PROJECTS/Mol_Feturizer/New_Systems/rnas/4F8U

>  <Rbt.Executable>
rbdock ($Id: //depot/dev/client3/rdock/2013.1/src/exe/rbdock.cxx#4 $)

>  <Rbt.Library>
libRbt.so (2013.1, Build901 2013/11/27)

>  <Rbt.Parameter_File>
/export/apps/rDock/src/rDock_2013.1_src/data/scripts/dock_solv.prm

>  <Rbt.Receptor>
prm/pocket_docking_8.prm

>  <SCORE>
-12.5346

>  <SCORE.INTER>
-8.53867

>  <SCORE.INTER.CONST>
1

>  <SCORE.INTER.POLAR>
0

>  <SCORE.INTER.ROT>
6

>  <SCORE.INTER.SOLV>
18.4988

>  <SCORE.INTER.VDW>
-19.4587

>  <SCORE.INTER.norm>
-0.275441

>  <SCORE.INTRA>
-3.9959

>  <SCORE.INTRA.DIHEDRAL>
-10.8765

>  <SCORE.INTRA.DIHEDRAL.0>
18.77

>  <SCORE.INTRA.POLAR>
0

>  <SCORE.INTRA.POLAR.0>
0

>  <SCORE.INTRA.REPUL>
0

>  <SCORE.INTRA.REPUL.0>
0

>  <SCORE.INTRA.SOLV>
-2.28851

>  <SCORE.INTRA.SOLV.lig_0>
-77.2465

>  <SCORE.INTRA.VDW>
2.5866

>  <SCORE.INTRA.VDW.0>
-4.16072

>  <SCORE.INTRA.norm>
-0.1289

>  <SCORE.RESTR>
0

>  <SCORE.RESTR.CAVITY>
0

>  <SCORE.RESTR.norm>
0

>  <SCORE.SYSTEM>
0

>  <SCORE.SYSTEM.CONST>
0

>  <SCORE.SYSTEM.DIHEDRAL>
0

>  <SCORE.SYSTEM.SOLV>
0

>  <SCORE.SYSTEM.norm>
0

>  <SCORE.heavy>
31

>  <SCORE.norm>
-0.404341

>  <RMSD>
6.748

$$$$
ligand
 OpenBabel11021811493D
libRbt.so/2013.1/901 2013/11/27
 31 33  0  0  0  0  0  0  0  0999 V2000
   -6.0692   -9.1055  -20.6517 C   0  0  2  0  0  0  0  0  0  0  0  0
   -7.1681   -9.0039  -19.7360 O   0  0  0  0  0  0  0  0  0  0  0  0
   -8.9098  -11.0761  -16.4199 C   0  0  2  0  0  0  0  0  0  0  0  0
   -9.0277  -11.8708  -15.2356 N   0  0  0  0  0  0  0  0  0  0  0  0
   -9.2646   -9.6139  -13.9010 C   0  0  2  0  0  0  0  0  0  0  0  0
   -6.1520   -7.8451  -21.5825 C   0  0  2  0  0  0  0  0  0  0  0  0
   -6.1031   -6.6318  -20.7742 N   0  0  0  0  0  0  0  0  0  0  0  0
   -8.2407  -11.9458  -17.5530 C   0  0  0  0  0  0  0  0  0  0  0  0
  -10.5355   -8.7478  -13.6405 C   0  0  2  0  0  0  0  0  0  0  0  0
  -11.3985   -8.8456  -14.7605 O   0  0  0  0  0  0  0  0  0  0  0  0
   -7.4718   -7.8954  -22.4284 C   0  0  0  0  0  0  0  0  0  0  0  0
   -8.1175  -11.0646  -18.8704 C   0  0  2  0  0  0  0  0  0  0  0  0
   -7.4882  -11.8712  -19.9421 N   0  0  0  0  0  0  0  0  0  0  0  0
  -10.0440   -7.2479  -13.4287 C   0  0  1  0  0  0  0  0  0  0  0  0
  -11.2146   -6.3335  -13.2030 N   0  0  0  0  0  0  0  0  0  0  0  0
   -7.6676   -9.3011  -23.0664 C   0  0  0  0  0  0  0  0  0  0  0  0
   -7.2394   -9.7706  -18.5647 C   0  0  2  0  0  0  0  0  0  0  0  0
   -9.0590   -7.1858  -12.1331 C   0  0  1  0  0  0  0  0  0  0  0  0
   -9.7101   -7.6047  -10.9492 O   0  0  0  0  0  0  0  0  0  0  0  0
   -7.0295  -10.3760  -22.5792 C   0  0  2  0  0  0  0  0  0  0  0  0
   -6.1308  -10.3203  -21.4576 O   0  0  0  0  0  0  0  0  0  0  0  0
   -7.9245   -8.9362  -17.4028 C   0  0  2  0  0  0  0  0  0  0  0  0
   -7.1309   -7.7815  -17.1014 O   0  0  0  0  0  0  0  0  0  0  0  0
   -7.8372   -8.1371  -12.3669 C   0  0  0  0  0  0  0  0  0  0  0  0
   -8.3293   -9.5301  -12.7222 O   0  0  0  0  0  0  0  0  0  0  0  0
   -7.2090  -11.7805  -23.2011 C   0  0  0  0  0  0  0  0  0  0  0  0
   -7.1637  -11.6793  -24.6530 N   0  0  0  0  0  0  0  0  0  0  0  0
   -8.0408   -9.8215  -16.1096 C   0  0  1  0  0  0  0  0  0  0  0  0
   -8.6565   -9.0505  -15.1059 O   0  0  0  0  0  0  0  0  0  0  0  0
   -8.4902   -5.7983  -11.7929 C   0  0  0  0  0  0  0  0  0  0  0  0
  -10.9417   -4.8864  -13.2918 C   0  0  0  0  0  0  0  0  0  0  0  0
  1  2  1  1  0  0  0
  1  6  1  0  0  0  0
  1 21  1  0  0  0  0
  3  4  1  1  0  0  0
  3  8  1  0  0  0  0
  3 28  1  0  0  0  0
  5  9  1  0  0  0  0
  5 25  1  0  0  0  0
  5 29  1  6  0  0  0
  6  7  1  1  0  0  0
  6 11  1  0  0  0  0
  8 12  1  0  0  0  0
  9 10  1  6  0  0  0
  9 14  1  0  0  0  0
 11 16  1  0  0  0  0
 12 13  1  6  0  0  0
 12 17  1  0  0  0  0
 14 15  1  1  0  0  0
 14 18  1  0  0  0  0
 15 31  1  0  0  0  0
 16 20  1  0  0  0  0
 17  2  1  6  0  0  0
 17 22  1  0  0  0  0
 18 19  1  1  0  0  0
 18 24  1  0  0  0  0
 18 30  1  0  0  0  0
 20 21  1  0  0  0  0
 20 26  1  6  0  0  0
 22 23  1  1  0  0  0
 22 28  1  0  0  0  0
 24 25  1  0  0  0  0
 26 27  1  0  0  0  0
 28 29  1  1  0  0  0
M  END
>  <CHROM.1>
-164.56584391,-142.27069782,-166.80843214,-95.41159874,43.73905967,43.33302121
-8.26030671,-9.04285111,-17.19949203,-0.44809697,1.26881749,0.21047369

>  <Name>
ligand

>  <RI>
0

>  <Rbt.Current_Directory>
/home/itssahil/PROJECTS/Mol_Feturizer/New_Systems/rnas/4F8U

>  <Rbt.Executable>
rbdock ($Id: //depot/dev/client3/rdock/2013.1/src/exe/rbdock.cxx#4 $)

>  <Rbt.Library>
libRbt.so (2013.1, Build901 2013/11/27)

>  <Rbt.Parameter_File>
/export/apps/rDock/src/rDock_2013.1_src/data/scripts/dock_solv.prm

>  <Rbt.Receptor>
prm/blind_docking_80.prm

>  <SCORE>
44.0225

>  <SCORE.INTER>
29.0426

>  <SCORE.INTER.CONST>
1

>  <SCORE.INTER.POLAR>
0

>  <SCORE.INTER.ROT>
6

>  <SCORE.INTER.SOLV>
25.9996

>  <SCORE.INTER.VDW>
3.09519

>  <SCORE.INTER.norm>
0.936857

>  <SCORE.INTRA>
4.11017

>  <SCORE.INTRA.DIHEDRAL>
-3.33809

>  <SCORE.INTRA.DIHEDRAL.0>
18.77

>  <SCORE.INTRA.POLAR>
0

>  <SCORE.INTRA.POLAR.0>
0

>  <SCORE.INTRA.REPUL>
0

>  <SCORE.INTRA.REPUL.0>
0

>  <SCORE.INTRA.SOLV>
2.51931

>  <SCORE.INTRA.SOLV.lig_0>
-77.2465

>  <SCORE.INTRA.VDW>
4.51956

>  <SCORE.INTRA.VDW.0>
-4.16072

>  <SCORE.INTRA.norm>
0.132586

>  <SCORE.RESTR>
10.8697

>  <SCORE.RESTR.CAVITY>
10.8697

>  <SCORE.RESTR.norm>
0.350636

>  <SCORE.SYSTEM>
0

>  <SCORE.SYSTEM.CONST>
0

>  <SCORE.SYSTEM.DIHEDRAL>
0

>  <SCORE.SYSTEM.SOLV>
0

>  <SCORE.SYSTEM.norm>
0

>  <SCORE.heavy>
31

>  <SCORE.norm>
1.42008

>  <RMSD>
6.757

$$$$
ligand
 OpenBabel11021811493D
libRbt.so/2013.1/901 2013/11/27
 31 33  0  0  0  0  0  0  0  0999 V2000
   -6.4883   -6.6623  -22.8505 C   0  0  2  0  0  0  0  0  0  0  0  0
   -7.2778   -7.4089  -21.9147 O   0  0  0  0  0  0  0  0  0  0  0  0
   -7.9656  -11.5247  -20.9605 C   0  0  2  0  0  0  0  0  0  0  0  0
   -7.7141  -12.8976  -20.6444 N   0  0  0  0  0  0  0  0  0  0  0  0
   -7.7102  -12.1612  -17.8747 C   0  0  2  0  0  0  0  0  0  0  0  0
   -5.1379   -6.3308  -22.1236 C   0  0  2  0  0  0  0  0  0  0  0  0
   -4.4908   -7.5673  -21.6988 N   0  0  0  0  0  0  0  0  0  0  0  0
   -7.3248  -11.1992  -22.3646 C   0  0  0  0  0  0  0  0  0  0  0  0
   -8.3878  -11.9432  -16.4867 C   0  0  2  0  0  0  0  0  0  0  0  0
   -9.7681  -11.6871  -16.6818 O   0  0  0  0  0  0  0  0  0  0  0  0
   -5.4122   -5.3973  -20.8935 C   0  0  0  0  0  0  0  0  0  0  0  0
   -7.6116   -9.6760  -22.7182 C   0  0  2  0  0  0  0  0  0  0  0  0
   -7.0124   -9.3579  -24.0354 N   0  0  0  0  0  0  0  0  0  0  0  0
   -7.6676  -10.6970  -15.8051 C   0  0  1  0  0  0  0  0  0  0  0  0
   -8.2843  -10.3940  -14.4690 N   0  0  0  0  0  0  0  0  0  0  0  0
   -6.3481   -4.2191  -21.2901 C   0  0  0  0  0  0  0  0  0  0  0  0
   -6.9895   -8.7411  -21.5878 C   0  0  2  0  0  0  0  0  0  0  0  0
   -6.0882  -11.0383  -15.6005 C   0  0  1  0  0  0  0  0  0  0  0  0
   -5.8909  -12.1663  -14.7700 O   0  0  0  0  0  0  0  0  0  0  0  0
   -7.1197   -4.2881  -22.3853 C   0  0  2  0  0  0  0  0  0  0  0  0
   -7.1433   -5.4259  -23.2648 O   0  0  0  0  0  0  0  0  0  0  0  0
   -7.6334   -9.1147  -20.1873 C   0  0  2  0  0  0  0  0  0  0  0  0
   -7.0639   -8.2968  -19.1574 O   0  0  0  0  0  0  0  0  0  0  0  0
   -5.4431  -11.3528  -16.9923 C   0  0  0  0  0  0  0  0  0  0  0  0
   -6.2396  -12.4387  -17.6960 O   0  0  0  0  0  0  0  0  0  0  0  0
   -8.0542   -3.1268  -22.7975 C   0  0  0  0  0  0  0  0  0  0  0  0
   -7.5670   -2.5243  -24.0304 N   0  0  0  0  0  0  0  0  0  0  0  0
   -7.3432  -10.6228  -19.8539 C   0  0  1  0  0  0  0  0  0  0  0  0
   -7.9330  -10.9169  -18.6103 O   0  0  0  0  0  0  0  0  0  0  0  0
   -5.2437   -9.9279  -14.9537 C   0  0  0  0  0  0  0  0  0  0  0  0
   -9.2132   -9.2490  -14.4212 C   0  0  0  0  0  0  0  0  0  0  0  0
  1  2  1  1  0  0  0
  1  6  1  0  0  0  0
  1 21  1  0  0  0  0
  3  4  1  1  0  0  0
  3  8  1  0  0  0  0
  3 28  1  0  0  0  0
  5  9  1  0  0  0  0
  5 25  1  0  0  0  0
  5 29  1  6  0  0  0
  6  7  1  1  0  0  0
  6 11  1  0  0  0  0
  8 12  1  0  0  0  0
  9 10  1  6  0  0  0
  9 14  1  0  0  0  0
 11 16  1  0  0  0  0
 12 13  1  6  0  0  0
 12 17  1  0  0  0  0
 14 15  1  1  0  0  0
 14 18  1  0  0  0  0
 15 31  1  0  0  0  0
 16 20  1  0  0  0  0
 17  2  1  6  0  0  0
 17 22  1  0  0  0  0
 18 19  1  1  0  0  0
 18 24  1  0  0  0  0
 18 30  1  0  0  0  0
 20 21  1  0  0  0  0
 20 26  1  6  0  0  0
 22 23  1  1  0  0  0
 22 28  1  0  0  0  0
 24 25  1  0  0  0  0
 26 27  1  0  0  0  0
 28 29  1  1  0  0  0
M  END
>  <CHROM.1>
-73.19843564,171.88676079,-102.39246187,-82.20124287,112.10918792,70.23578063
-7.09097714,-8.99043245,-19.60451768,0.85827195,-1.48141717,-1.53710581

>  <Name>
ligand

>  <RI>
0

>  <Rbt.Current_Directory>
/home/itssahil/PROJECTS/Mol_Feturizer/New_Systems/rnas/4F8U

>  <Rbt.Executable>
rbdock ($Id: //depot/dev/client3/rdock/2013.1/src/exe/rbdock.cxx#4 $)

>  <Rbt.Library>
libRbt.so (2013.1, Build901 2013/11/27)

>  <Rbt.Parameter_File>
/export/apps/rDock/src/rDock_2013.1_src/data/scripts/dock_solv.prm

>  <Rbt.Receptor>
prm/pocket_docking_6.prm

>  <SCORE>
-15.6352

>  <SCORE.INTER>
-11.4855

>  <SCORE.INTER.CONST>
1

>  <SCORE.INTER.POLAR>
0

>  <SCORE.INTER.ROT>
6

>  <SCORE.INTER.SOLV>
16.7263

>  <SCORE.INTER.VDW>
-20.8325

>  <SCORE.INTER.norm>
-0.370501

>  <SCORE.INTRA>
-4.14964

>  <SCORE.INTRA.DIHEDRAL>
-12.221

>  <SCORE.INTRA.DIHEDRAL.0>
18.77

>  <SCORE.INTRA.POLAR>
0

>  <SCORE.INTRA.POLAR.0>
0

>  <SCORE.INTRA.REPUL>
0

>  <SCORE.INTRA.REPUL.0>
0

>  <SCORE.INTRA.SOLV>
1.9054

>  <SCORE.INTRA.SOLV.lig_0>
-77.2465

>  <SCORE.INTRA.VDW>
1.00816

>  <SCORE.INTRA.VDW.0>
-4.16072

>  <SCORE.INTRA.norm>
-0.133859

>  <SCORE.RESTR>
0

>  <SCORE.RESTR.CAVITY>
0

>  <SCORE.RESTR.norm>
0

>  <SCORE.SYSTEM>
0

>  <SCORE.SYSTEM.CONST>
0

>  <SCORE.SYSTEM.DIHEDRAL>
0

>  <SCORE.SYSTEM.SOLV>
0

>  <SCORE.SYSTEM.norm>
0

>  <SCORE.heavy>
31

>  <SCORE.norm>
-0.504361

>  <RMSD>
6.757

$$$$
ligand
 OpenBabel11021811493D
libRbt.so/2013.1/901 2013/11/27
 31 33  0  0  0  0  0  0  0  0999 V2000
   -6.9081  -13.3036  -20.3522 C   0  0  2  0  0  0  0  0  0  0  0  0
   -7.8522  -12.7010  -21.2478 O   0  0  0  0  0  0  0  0  0  0  0  0
   -6.6880   -8.5856  -21.4274 C   0  0  2  0  0  0  0  0  0  0  0  0
   -6.7703   -7.1644  -21.5729 N   0  0  0  0  0  0  0  0  0  0  0  0
   -5.7471   -7.9947  -18.8250 C   0  0  2  0  0  0  0  0  0  0  0  0
   -7.0926  -14.8553  -20.4945 C   0  0  2  0  0  0  0  0  0  0  0  0
   -6.8852  -15.2505  -21.8833 N   0  0  0  0  0  0  0  0  0  0  0  0
   -7.1758   -9.2643  -22.7651 C   0  0  0  0  0  0  0  0  0  0  0  0
   -4.8639   -9.1848  -19.3118 C   0  0  2  0  0  0  0  0  0  0  0  0
   -5.1280   -9.4248  -20.6835 O   0  0  0  0  0  0  0  0  0  0  0  0
   -8.5261  -15.2663  -20.0088 C   0  0  0  0  0  0  0  0  0  0  0  0
   -7.0764  -10.8428  -22.6051 C   0  0  2  0  0  0  0  0  0  0  0  0
   -7.5340  -11.4916  -23.8560 N   0  0  0  0  0  0  0  0  0  0  0  0
   -5.2540  -10.4497  -18.4264 C   0  0  1  0  0  0  0  0  0  0  0  0
   -4.4692  -11.6577  -18.8531 N   0  0  0  0  0  0  0  0  0  0  0  0
   -8.8587  -14.6036  -18.6407 C   0  0  0  0  0  0  0  0  0  0  0  0
   -7.9782  -11.3110  -21.3777 C   0  0  2  0  0  0  0  0  0  0  0  0
   -4.9322  -10.1275  -16.8626 C   0  0  1  0  0  0  0  0  0  0  0  0
   -3.5622   -9.8482  -16.6479 O   0  0  0  0  0  0  0  0  0  0  0  0
   -8.1871  -13.5231  -18.2150 C   0  0  2  0  0  0  0  0  0  0  0  0
   -7.1277  -12.9046  -18.9659 O   0  0  0  0  0  0  0  0  0  0  0  0
   -7.4796  -10.5884  -20.0568 C   0  0  2  0  0  0  0  0  0  0  0  0
   -8.2989  -10.9827  -18.9489 O   0  0  0  0  0  0  0  0  0  0  0  0
   -5.7506   -8.8695  -16.4153 C   0  0  0  0  0  0  0  0  0  0  0  0
   -5.4838   -7.7159  -17.3675 O   0  0  0  0  0  0  0  0  0  0  0  0
   -8.5010  -12.8519  -16.8575 C   0  0  0  0  0  0  0  0  0  0  0  0
   -7.7973  -11.5802  -16.7693 N   0  0  0  0  0  0  0  0  0  0  0  0
   -7.5820   -9.0300  -20.2321 C   0  0  1  0  0  0  0  0  0  0  0  0
   -7.1272   -8.4258  -19.0450 O   0  0  0  0  0  0  0  0  0  0  0  0
   -5.2590  -11.2538  -15.8681 C   0  0  0  0  0  0  0  0  0  0  0  0
   -3.1394  -11.8256  -18.2370 C   0  0  0  0  0  0  0  0  0  0  0  0
  1  2  1  6  0  0  0
  1  6  1  0  0  0  0
  1 21  1  0  0  0  0
  3  4  1  6  0  0  0
  3  8  1  0  0  0  0
  3 28  1  0  0  0  0
  5  9  1  0  0  0  0
  5 25  1  0  0  0  0
  5 29  1  1  0  0  0
  6  7  1  6  0  0  0
  6 11  1  0  0  0  0
  8 12  1  0  0  0  0
  9 10  1  6  0  0  0
  9 14  1  0  0  0  0
 11 16  1  0  0  0  0
 12 13  1  6  0  0  0
 12 17  1  0  0  0  0
 14 15  1  6  0  0  0
 14 18  1  0  0  0  0
 15 31  1  0  0  0  0
 16 20  1  0  0  0  0
 17  2  1  1  0  0  0
 17 22  1  0  0  0  0
 18 19  1  1  0  0  0
 18 24  1  0  0  0  0
 18 30  1  0  0  0  0
 20 21  1  0  0  0  0
 20 26  1  1  0  0  0
 22 23  1  1  0  0  0
 22 28  1  0  0  0  0
 24 25  1  0  0  0  0
 26 27  1  0  0  0  0
 28 29  1  1  0  0  0
M  END
>  <CHROM.1>
179.46157013,-46.17239256,86.25519238,94.67097160,-169.80091640,-26.27396956
-6.59806627,-11.04718766,-19.41483467,-2.85184025,-1.11579477,-0.78086686

>  <Name>
ligand

>  <RI>
0

>  <Rbt.Current_Directory>
/home/itssahil/PROJECTS/Mol_Feturizer/New_Systems/rnas/4F8U

>  <Rbt.Executable>
rbdock ($Id: //depot/dev/client3/rdock/2013.1/src/exe/rbdock.cxx#4 $)

>  <Rbt.Library>
libRbt.so (2013.1, Build901 2013/11/27)

>  <Rbt.Parameter_File>
/export/apps/rDock/src/rDock_2013.1_src/data/scripts/dock_solv.prm

>  <Rbt.Receptor>
prm/blind_docking_60.prm

>  <SCORE>
67.4496

>  <SCORE.INTER>
9.0886

>  <SCORE.INTER.CONST>
1

>  <SCORE.INTER.POLAR>
0

>  <SCORE.INTER.ROT>
6

>  <SCORE.INTER.SOLV>
22.4083

>  <SCORE.INTER.VDW>
-9.01037

>  <SCORE.INTER.norm>
0.293181

>  <SCORE.INTRA>
38.5403

>  <SCORE.INTRA.DIHEDRAL>
-5.14519

>  <SCORE.INTRA.DIHEDRAL.0>
18.77

>  <SCORE.INTRA.POLAR>
0

>  <SCORE.INTRA.POLAR.0>
0

>  <SCORE.INTRA.REPUL>
0.242555

>  <SCORE.INTRA.REPUL.0>
0

>  <SCORE.INTRA.SOLV>
9.786

>  <SCORE.INTRA.SOLV.lig_0>
-77.2465

>  <SCORE.INTRA.VDW>
35.0071

>  <SCORE.INTRA.VDW.0>
-4.16072

>  <SCORE.INTRA.norm>
1.24323

>  <SCORE.RESTR>
19.8207

>  <SCORE.RESTR.CAVITY>
19.8207

>  <SCORE.RESTR.norm>
0.639378

>  <SCORE.SYSTEM>
0

>  <SCORE.SYSTEM.CONST>
0

>  <SCORE.SYSTEM.DIHEDRAL>
0

>  <SCORE.SYSTEM.SOLV>
0

>  <SCORE.SYSTEM.norm>
0

>  <SCORE.heavy>
31

>  <SCORE.norm>
2.17579

>  <RMSD>
6.802

$$$$
ligand
 OpenBabel11021811493D
libRbt.so/2013.1/901 2013/11/27
 31 33  0  0  0  0  0  0  0  0999 V2000
   -8.1658   -7.0618  -11.5215 C   0  0  2  0  0  0  0  0  0  0  0  0
   -8.7864   -7.9125  -10.5479 O   0  0  0  0  0  0  0  0  0  0  0  0
   -8.1223  -11.9720   -9.3635 C   0  0  2  0  0  0  0  0  0  0  0  0
   -8.0789  -13.4017   -9.4085 N   0  0  0  0  0  0  0  0  0  0  0  0
   -5.5111  -13.1774   -9.9434 C   0  0  2  0  0  0  0  0  0  0  0  0
   -8.9979   -5.7316  -11.5402 C   0  0  2  0  0  0  0  0  0  0  0  0
   -9.0158   -5.1432  -10.2055 N   0  0  0  0  0  0  0  0  0  0  0  0
   -9.6165  -11.5012   -9.5464 C   0  0  0  0  0  0  0  0  0  0  0  0
   -3.9588  -13.1393   -9.7945 C   0  0  2  0  0  0  0  0  0  0  0  0
   -3.6142  -12.2017   -8.7890 O   0  0  0  0  0  0  0  0  0  0  0  0
  -10.4564   -6.0246  -12.0370 C   0  0  0  0  0  0  0  0  0  0  0  0
   -9.6645   -9.9132   -9.4882 C   0  0  2  0  0  0  0  0  0  0  0  0
  -11.0641   -9.4589   -9.6608 N   0  0  0  0  0  0  0  0  0  0  0  0
   -3.3640  -12.7052  -11.2066 C   0  0  1  0  0  0  0  0  0  0  0  0
   -1.8659  -12.6103  -11.1441 N   0  0  0  0  0  0  0  0  0  0  0  0
  -10.4382   -6.9047  -13.3202 C   0  0  0  0  0  0  0  0  0  0  0  0
   -8.7419   -9.3105  -10.6391 C   0  0  2  0  0  0  0  0  0  0  0  0
   -3.7839  -13.8110  -12.3264 C   0  0  1  0  0  0  0  0  0  0  0  0
   -3.2838  -15.0976  -12.0172 O   0  0  0  0  0  0  0  0  0  0  0  0
   -9.3591   -7.6333  -13.6431 C   0  0  2  0  0  0  0  0  0  0  0  0
   -8.1575   -7.6586  -12.8530 O   0  0  0  0  0  0  0  0  0  0  0  0
   -7.2553   -9.8268  -10.4418 C   0  0  2  0  0  0  0  0  0  0  0  0
   -6.4197   -9.3110  -11.4857 O   0  0  0  0  0  0  0  0  0  0  0  0
   -5.3452  -13.9103  -12.3943 C   0  0  0  0  0  0  0  0  0  0  0  0
   -5.9059  -14.1703  -11.0062 O   0  0  0  0  0  0  0  0  0  0  0  0
   -9.3207   -8.5118  -14.9153 C   0  0  0  0  0  0  0  0  0  0  0  0
   -8.0514   -9.2228  -14.9775 N   0  0  0  0  0  0  0  0  0  0  0  0
   -7.2255  -11.3970  -10.4996 C   0  0  1  0  0  0  0  0  0  0  0  0
   -5.8945  -11.8161  -10.3158 O   0  0  0  0  0  0  0  0  0  0  0  0
   -3.2879  -13.5351  -13.7555 C   0  0  0  0  0  0  0  0  0  0  0  0
   -1.1307  -13.8880  -11.0865 C   0  0  0  0  0  0  0  0  0  0  0  0
  1  2  1  1  0  0  0
  1  6  1  0  0  0  0
  1 21  1  0  0  0  0
  3  4  1  6  0  0  0
  3  8  1  0  0  0  0
  3 28  1  0  0  0  0
  5  9  1  0  0  0  0
  5 25  1  0  0  0  0
  5 29  1  6  0  0  0
  6  7  1  1  0  0  0
  6 11  1  0  0  0  0
  8 12  1  0  0  0  0
  9 10  1  1  0  0  0
  9 14  1  0  0  0  0
 11 16  1  0  0  0  0
 12 13  1  6  0  0  0
 12 17  1  0  0  0  0
 14 15  1  1  0  0  0
 14 18  1  0  0  0  0
 15 31  1  0  0  0  0
 16 20  1  0  0  0  0
 17  2  1  1  0  0  0
 17 22  1  0  0  0  0
 18 19  1  1  0  0  0
 18 24  1  0  0  0  0
 18 30  1  0  0  0  0
 20 21  1  0  0  0  0
 20 26  1  6  0  0  0
 22 23  1  6  0  0  0
 22 28  1  0  0  0  0
 24 25  1  0  0  0  0
 26 27  1  0  0  0  0
 28 29  1  1  0  0  0
M  END
>  <CHROM.1>
151.23298684,-177.41260888,73.28978058,-173.81589550,-177.78238522,43.30048996
-6.85363230,-10.60794103,-11.29177313,-2.60054559,-0.65322934,2.23955379

>  <Name>
ligand

>  <RI>
0

>  <Rbt.Current_Directory>
/home/itssahil/PROJECTS/Mol_Feturizer/New_Systems/rnas/4F8U

>  <Rbt.Executable>
rbdock ($Id: //depot/dev/client3/rdock/2013.1/src/exe/rbdock.cxx#4 $)

>  <Rbt.Library>
libRbt.so (2013.1, Build901 2013/11/27)

>  <Rbt.Parameter_File>
/export/apps/rDock/src/rDock_2013.1_src/data/scripts/dock_solv.prm

>  <Rbt.Receptor>
prm/blind_docking_40.prm

>  <SCORE>
17.4643

>  <SCORE.INTER>
3.55561

>  <SCORE.INTER.CONST>
1

>  <SCORE.INTER.POLAR>
0

>  <SCORE.INTER.ROT>
6

>  <SCORE.INTER.SOLV>
20.5362

>  <SCORE.INTER.VDW>
-12.075

>  <SCORE.INTER.norm>
0.114697

>  <SCORE.INTRA>
1.11586

>  <SCORE.INTRA.DIHEDRAL>
-10.1546

>  <SCORE.INTRA.DIHEDRAL.0>
18.77

>  <SCORE.INTRA.POLAR>
0

>  <SCORE.INTRA.POLAR.0>
0

>  <SCORE.INTRA.REPUL>
0

>  <SCORE.INTRA.REPUL.0>
0

>  <SCORE.INTRA.SOLV>
0.255256

>  <SCORE.INTRA.SOLV.lig_0>
-77.2465

>  <SCORE.INTRA.VDW>
6.06551

>  <SCORE.INTRA.VDW.0>
-4.16072

>  <SCORE.INTRA.norm>
0.0359956

>  <SCORE.RESTR>
12.7928

>  <SCORE.RESTR.CAVITY>
12.7928

>  <SCORE.RESTR.norm>
0.412671

>  <SCORE.SYSTEM>
0

>  <SCORE.SYSTEM.CONST>
0

>  <SCORE.SYSTEM.DIHEDRAL>
0

>  <SCORE.SYSTEM.SOLV>
0

>  <SCORE.SYSTEM.norm>
0

>  <SCORE.heavy>
31

>  <SCORE.norm>
0.563363

>  <RMSD>
6.823

$$$$
ligand
 OpenBabel11021811493D
libRbt.so/2013.1/901 2013/11/27
 31 33  0  0  0  0  0  0  0  0999 V2000
   -6.1929   -6.9913  -22.1423 C   0  0  2  0  0  0  0  0  0  0  0  0
   -7.1053   -8.0819  -22.3277 O   0  0  0  0  0  0  0  0  0  0  0  0
   -7.9319  -11.9761  -20.7542 C   0  0  2  0  0  0  0  0  0  0  0  0
   -7.7271  -13.2931  -20.2331 N   0  0  0  0  0  0  0  0  0  0  0  0
   -7.7683  -12.1921  -17.6558 C   0  0  2  0  0  0  0  0  0  0  0  0
   -6.8285   -5.7550  -22.8702 C   0  0  2  0  0  0  0  0  0  0  0  0
   -8.1512   -5.4848  -22.3177 N   0  0  0  0  0  0  0  0  0  0  0  0
   -7.2925  -11.8921  -22.1937 C   0  0  0  0  0  0  0  0  0  0  0  0
   -8.4646  -11.7698  -16.3254 C   0  0  2  0  0  0  0  0  0  0  0  0
   -9.8099  -11.4179  -16.5998 O   0  0  0  0  0  0  0  0  0  0  0  0
   -6.9171   -6.0338  -24.4111 C   0  0  0  0  0  0  0  0  0  0  0  0
   -7.5276  -10.4311  -22.7747 C   0  0  2  0  0  0  0  0  0  0  0  0
   -6.9293  -10.3398  -24.1270 N   0  0  0  0  0  0  0  0  0  0  0  0
   -7.6559  -10.5249  -15.7488 C   0  0  1  0  0  0  0  0  0  0  0  0
   -8.2824  -10.0293  -14.4764 N   0  0  0  0  0  0  0  0  0  0  0  0
   -5.5712   -6.5990  -24.9501 C   0  0  0  0  0  0  0  0  0  0  0  0
   -6.8622   -9.3585  -21.8023 C   0  0  2  0  0  0  0  0  0  0  0  0
   -6.1204  -10.9775  -15.4484 C   0  0  1  0  0  0  0  0  0  0  0  0
   -6.0502  -12.0234  -14.4986 O   0  0  0  0  0  0  0  0  0  0  0  0
   -4.6745   -7.1559  -24.1221 C   0  0  2  0  0  0  0  0  0  0  0  0
   -4.8748   -7.2710  -22.7024 O   0  0  0  0  0  0  0  0  0  0  0  0
   -7.5064   -9.4903  -20.3590 C   0  0  2  0  0  0  0  0  0  0  0  0
   -6.8986   -8.5465  -19.4680 O   0  0  0  0  0  0  0  0  0  0  0  0
   -5.4650  -11.4930  -16.7739 C   0  0  0  0  0  0  0  0  0  0  0  0
   -6.3347  -12.5748  -17.3920 O   0  0  0  0  0  0  0  0  0  0  0  0
   -3.3304   -7.7205  -24.6381 C   0  0  0  0  0  0  0  0  0  0  0  0
   -2.4057   -6.6237  -24.8879 N   0  0  0  0  0  0  0  0  0  0  0  0
   -7.2676  -10.9396  -19.8003 C   0  0  1  0  0  0  0  0  0  0  0  0
   -7.8564  -11.0188  -18.5244 O   0  0  0  0  0  0  0  0  0  0  0  0
   -5.1992   -9.8815  -14.8875 C   0  0  0  0  0  0  0  0  0  0  0  0
   -9.2229   -8.9002  -14.6062 C   0  0  0  0  0  0  0  0  0  0  0  0
  1  2  1  6  0  0  0
  1  6  1  0  0  0  0
  1 21  1  0  0  0  0
  3  4  1  1  0  0  0
  3  8  1  0  0  0  0
  3 28  1  0  0  0  0
  5  9  1  0  0  0  0
  5 25  1  0  0  0  0
  5 29  1  6  0  0  0
  6  7  1  1  0  0  0
  6 11  1  0  0  0  0
  8 12  1  0  0  0  0
  9 10  1  6  0  0  0
  9 14  1  0  0  0  0
 11 16  1  0  0  0  0
 12 13  1  6  0  0  0
 12 17  1  0  0  0  0
 14 15  1  1  0  0  0
 14 18  1  0  0  0  0
 15 31  1  0  0  0  0
 16 20  1  0  0  0  0
 17  2  1  6  0  0  0
 17 22  1  0  0  0  0
 18 19  1  1  0  0  0
 18 24  1  0  0  0  0
 18 30  1  0  0  0  0
 20 21  1  0  0  0  0
 20 26  1  1  0  0  0
 22 23  1  1  0  0  0
 22 28  1  0  0  0  0
 24 25  1  0  0  0  0
 26 27  1  0  0  0  0
 28 29  1  1  0  0  0
M  END
>  <CHROM.1>
-179.75987072,175.59779315,-95.89616925,-149.20147476,77.74807270,64.66060294
-6.78365615,-9.58130405,-19.94236986,-0.70326059,1.28958028,1.18517594

>  <Name>
ligand

>  <RI>
0

>  <Rbt.Current_Directory>
/home/itssahil/PROJECTS/Mol_Feturizer/New_Systems/rnas/4F8U

>  <Rbt.Executable>
rbdock ($Id: //depot/dev/client3/rdock/2013.1/src/exe/rbdock.cxx#4 $)

>  <Rbt.Library>
libRbt.so (2013.1, Build901 2013/11/27)

>  <Rbt.Parameter_File>
/export/apps/rDock/src/rDock_2013.1_src/data/scripts/dock_solv.prm

>  <Rbt.Receptor>
prm/pocket_docking_7.prm

>  <SCORE>
-14.4258

>  <SCORE.INTER>
-9.45083

>  <SCORE.INTER.CONST>
1

>  <SCORE.INTER.POLAR>
0

>  <SCORE.INTER.ROT>
6

>  <SCORE.INTER.SOLV>
17.7457

>  <SCORE.INTER.VDW>
-19.8158

>  <SCORE.INTER.norm>
-0.304865

>  <SCORE.INTRA>
-4.97502

>  <SCORE.INTRA.DIHEDRAL>
-10.8159

>  <SCORE.INTRA.DIHEDRAL.0>
18.77

>  <SCORE.INTRA.POLAR>
0

>  <SCORE.INTRA.POLAR.0>
0

>  <SCORE.INTRA.REPUL>
0

>  <SCORE.INTRA.REPUL.0>
0

>  <SCORE.INTRA.SOLV>
-0.487384

>  <SCORE.INTRA.SOLV.lig_0>
-77.2465

>  <SCORE.INTRA.VDW>
0.676616

>  <SCORE.INTRA.VDW.0>
-4.16072

>  <SCORE.INTRA.norm>
-0.160484

>  <SCORE.RESTR>
0

>  <SCORE.RESTR.CAVITY>
0

>  <SCORE.RESTR.norm>
0

>  <SCORE.SYSTEM>
0

>  <SCORE.SYSTEM.CONST>
0

>  <SCORE.SYSTEM.DIHEDRAL>
0

>  <SCORE.SYSTEM.SOLV>
0

>  <SCORE.SYSTEM.norm>
0

>  <SCORE.heavy>
31

>  <SCORE.norm>
-0.46535

>  <RMSD>
6.824

$$$$
ligand
 OpenBabel11021811493D
libRbt.so/2013.1/901 2013/11/27
 31 33  0  0  0  0  0  0  0  0999 V2000
   -8.1350   -6.9291  -11.7453 C   0  0  2  0  0  0  0  0  0  0  0  0
   -8.6026   -7.6634  -10.6058 O   0  0  0  0  0  0  0  0  0  0  0  0
   -8.0767  -11.7343   -9.3914 C   0  0  2  0  0  0  0  0  0  0  0  0
   -8.2004  -13.1596   -9.3567 N   0  0  0  0  0  0  0  0  0  0  0  0
   -5.7656  -12.6113  -12.1063 C   0  0  2  0  0  0  0  0  0  0  0  0
   -8.9270   -5.5746  -11.7534 C   0  0  2  0  0  0  0  0  0  0  0  0
   -8.7064   -4.8677  -10.4967 N   0  0  0  0  0  0  0  0  0  0  0  0
   -9.5045  -11.0936   -9.1946 C   0  0  0  0  0  0  0  0  0  0  0  0
   -4.5886  -13.5165  -11.6282 C   0  0  2  0  0  0  0  0  0  0  0  0
   -5.0584  -14.3868  -10.6130 O   0  0  0  0  0  0  0  0  0  0  0  0
  -10.4547   -5.8542  -11.9719 C   0  0  0  0  0  0  0  0  0  0  0  0
   -9.3646   -9.5103   -9.2254 C   0  0  2  0  0  0  0  0  0  0  0  0
  -10.7009   -8.8970   -9.0431 N   0  0  0  0  0  0  0  0  0  0  0  0
   -3.4523  -12.5504  -11.0701 C   0  0  1  0  0  0  0  0  0  0  0  0
   -2.2866  -13.3457  -10.5544 N   0  0  0  0  0  0  0  0  0  0  0  0
  -10.6732   -6.8466  -13.1504 C   0  0  0  0  0  0  0  0  0  0  0  0
   -8.7346   -9.0589  -10.6177 C   0  0  2  0  0  0  0  0  0  0  0  0
   -2.9444  -11.5731  -12.2700 C   0  0  1  0  0  0  0  0  0  0  0  0
   -2.4057  -12.3008  -13.3568 O   0  0  0  0  0  0  0  0  0  0  0  0
   -9.6811   -7.6430  -13.5760 C   0  0  2  0  0  0  0  0  0  0  0  0
   -8.3647   -7.6437  -12.9966 O   0  0  0  0  0  0  0  0  0  0  0  0
   -7.3150   -9.7434  -10.7958 C   0  0  2  0  0  0  0  0  0  0  0  0
   -6.7480   -9.3644  -12.0563 O   0  0  0  0  0  0  0  0  0  0  0  0
   -4.1577  -10.7420  -12.8079 C   0  0  0  0  0  0  0  0  0  0  0  0
   -5.2935  -11.6763  -13.1899 O   0  0  0  0  0  0  0  0  0  0  0  0
   -9.8779   -8.6338  -14.7471 C   0  0  0  0  0  0  0  0  0  0  0  0
   -8.5828   -9.1415  -15.1777 N   0  0  0  0  0  0  0  0  0  0  0  0
   -7.4703  -11.3068  -10.7607 C   0  0  1  0  0  0  0  0  0  0  0  0
   -6.1927  -11.8766  -10.9161 O   0  0  0  0  0  0  0  0  0  0  0  0
   -1.8433  -10.5686  -11.8918 C   0  0  0  0  0  0  0  0  0  0  0  0
   -1.7437  -14.3748  -11.4612 C   0  0  0  0  0  0  0  0  0  0  0  0
  1  2  1  1  0  0  0
  1  6  1  0  0  0  0
  1 21  1  0  0  0  0
  3  4  1  6  0  0  0
  3  8  1  0  0  0  0
  3 28  1  0  0  0  0
  5  9  1  0  0  0  0
  5 25  1  0  0  0  0
  5 29  1  1  0  0  0
  6  7  1  1  0  0  0
  6 11  1  0  0  0  0
  8 12  1  0  0  0  0
  9 10  1  1  0  0  0
  9 14  1  0  0  0  0
 11 16  1  0  0  0  0
 12 13  1  6  0  0  0
 12 17  1  0  0  0  0
 14 15  1  6  0  0  0
 14 18  1  0  0  0  0
 15 31  1  0  0  0  0
 16 20  1  0  0  0  0
 17  2  1  1  0  0  0
 17 22  1  0  0  0  0
 18 19  1  6  0  0  0
 18 24  1  0  0  0  0
 18 30  1  0  0  0  0
 20 21  1  0  0  0  0
 20 26  1  6  0  0  0
 22 23  1  6  0  0  0
 22 28  1  0  0  0  0
 24 25  1  0  0  0  0
 26 27  1  0  0  0  0
 28 29  1  1  0  0  0
M  END
>  <CHROM.1>
144.61207335,-157.47024374,50.56016436,-176.36187754,167.59840950,130.02770027
-6.85466405,-10.16022128,-11.58585238,-2.58741678,-0.52733562,2.42185135

>  <Name>
ligand

>  <RI>
0

>  <Rbt.Current_Directory>
/home/itssahil/PROJECTS/Mol_Feturizer/New_Systems/rnas/4F8U

>  <Rbt.Executable>
rbdock ($Id: //depot/dev/client3/rdock/2013.1/src/exe/rbdock.cxx#4 $)

>  <Rbt.Library>
libRbt.so (2013.1, Build901 2013/11/27)

>  <Rbt.Parameter_File>
/export/apps/rDock/src/rDock_2013.1_src/data/scripts/dock_solv.prm

>  <Rbt.Receptor>
prm/blind_docking_40.prm

>  <SCORE>
17.2442

>  <SCORE.INTER>
3.30414

>  <SCORE.INTER.CONST>
1

>  <SCORE.INTER.POLAR>
0

>  <SCORE.INTER.ROT>
6

>  <SCORE.INTER.SOLV>
22.1352

>  <SCORE.INTER.VDW>
-12.7756

>  <SCORE.INTER.norm>
0.106585

>  <SCORE.INTRA>
1.52453

>  <SCORE.INTRA.DIHEDRAL>
-1.68491

>  <SCORE.INTRA.DIHEDRAL.0>
18.77

>  <SCORE.INTRA.POLAR>
0

>  <SCORE.INTRA.POLAR.0>
0

>  <SCORE.INTRA.REPUL>
0

>  <SCORE.INTRA.REPUL.0>
0

>  <SCORE.INTRA.SOLV>
-0.696776

>  <SCORE.INTRA.SOLV.lig_0>
-77.2465

>  <SCORE.INTRA.VDW>
2.71537

>  <SCORE.INTRA.VDW.0>
-4.16072

>  <SCORE.INTRA.norm>
0.0491784

>  <SCORE.RESTR>
12.4156

>  <SCORE.RESTR.CAVITY>
12.4156

>  <SCORE.RESTR.norm>
0.400502

>  <SCORE.SYSTEM>
0

>  <SCORE.SYSTEM.CONST>
0

>  <SCORE.SYSTEM.DIHEDRAL>
0

>  <SCORE.SYSTEM.SOLV>
0

>  <SCORE.SYSTEM.norm>
0

>  <SCORE.heavy>
31

>  <SCORE.norm>
0.556266

>  <RMSD>
6.825

$$$$
ligand
 OpenBabel11021811493D
libRbt.so/2013.1/901 2013/11/27
 31 33  0  0  0  0  0  0  0  0999 V2000
   -6.7737   -7.4252  -23.1214 C   0  0  2  0  0  0  0  0  0  0  0  0
   -7.4379   -8.0966  -22.0422 O   0  0  0  0  0  0  0  0  0  0  0  0
   -7.9067  -12.1865  -20.8686 C   0  0  2  0  0  0  0  0  0  0  0  0
   -7.5833  -13.5215  -20.4672 N   0  0  0  0  0  0  0  0  0  0  0  0
   -7.6712  -12.6098  -17.7261 C   0  0  2  0  0  0  0  0  0  0  0  0
   -5.9198   -6.2809  -22.4707 C   0  0  2  0  0  0  0  0  0  0  0  0
   -4.9896   -6.8504  -21.5022 N   0  0  0  0  0  0  0  0  0  0  0  0
   -7.2466  -11.9020  -22.2727 C   0  0  0  0  0  0  0  0  0  0  0  0
   -8.4432  -12.3739  -16.3913 C   0  0  2  0  0  0  0  0  0  0  0  0
   -9.8293  -12.2768  -16.6705 O   0  0  0  0  0  0  0  0  0  0  0  0
   -6.8670   -5.2371  -21.7828 C   0  0  0  0  0  0  0  0  0  0  0  0
   -7.6132  -10.4216  -22.7211 C   0  0  2  0  0  0  0  0  0  0  0  0
   -6.9966  -10.1422  -24.0391 N   0  0  0  0  0  0  0  0  0  0  0  0
   -7.8914  -11.0174  -15.7653 C   0  0  1  0  0  0  0  0  0  0  0  0
   -8.6086  -10.6942  -14.4853 N   0  0  0  0  0  0  0  0  0  0  0  0
   -8.0361   -4.8412  -22.7304 C   0  0  0  0  0  0  0  0  0  0  0  0
   -7.0804   -9.3883  -21.6315 C   0  0  2  0  0  0  0  0  0  0  0  0
   -6.2994  -11.1776  -15.4610 C   0  0  1  0  0  0  0  0  0  0  0  0
   -6.0354  -12.2222  -14.5445 O   0  0  0  0  0  0  0  0  0  0  0  0
   -8.3810   -5.6215  -23.7657 C   0  0  2  0  0  0  0  0  0  0  0  0
   -7.7138   -6.8560  -24.0813 O   0  0  0  0  0  0  0  0  0  0  0  0
   -7.7407   -9.7210  -20.2283 C   0  0  2  0  0  0  0  0  0  0  0  0
   -7.2505   -8.8131  -19.2336 O   0  0  0  0  0  0  0  0  0  0  0  0
   -5.5497  -11.5130  -16.7944 C   0  0  0  0  0  0  0  0  0  0  0  0
   -6.1923  -12.7198  -17.4573 O   0  0  0  0  0  0  0  0  0  0  0  0
   -9.5379   -5.2439  -24.7200 C   0  0  0  0  0  0  0  0  0  0  0  0
   -9.1207   -5.4572  -26.0987 N   0  0  0  0  0  0  0  0  0  0  0  0
   -7.3710  -11.1873  -19.8009 C   0  0  1  0  0  0  0  0  0  0  0  0
   -7.9776  -11.4463  -18.5575 O   0  0  0  0  0  0  0  0  0  0  0  0
   -5.6086   -9.9452  -14.8541 C   0  0  0  0  0  0  0  0  0  0  0  0
   -9.7621   -9.7811  -14.5937 C   0  0  0  0  0  0  0  0  0  0  0  0
  1  2  1  1  0  0  0
  1  6  1  0  0  0  0
  1 21  1  0  0  0  0
  3  4  1  1  0  0  0
  3  8  1  0  0  0  0
  3 28  1  0  0  0  0
  5  9  1  0  0  0  0
  5 25  1  0  0  0  0
  5 29  1  6  0  0  0
  6  7  1  1  0  0  0
  6 11  1  0  0  0  0
  8 12  1  0  0  0  0
  9 10  1  6  0  0  0
  9 14  1  0  0  0  0
 11 16  1  0  0  0  0
 12 13  1  6  0  0  0
 12 17  1  0  0  0  0
 14 15  1  1  0  0  0
 14 18  1  0  0  0  0
 15 31  1  0  0  0  0
 16 20  1  0  0  0  0
 17  2  1  6  0  0  0
 17 22  1  0  0  0  0
 18 19  1  1  0  0  0
 18 24  1  0  0  0  0
 18 30  1  0  0  0  0
 20 21  1  0  0  0  0
 20 26  1  6  0  0  0
 22 23  1  1  0  0  0
 22 28  1  0  0  0  0
 24 25  1  0  0  0  0
 26 27  1  0  0  0  0
 28 29  1  1  0  0  0
M  END
>  <CHROM.1>
-108.79786482,173.15397344,-94.84528694,-73.91779397,134.96898537,72.24297845
-7.47130688,-9.59135640,-19.85246178,-2.64663119,1.53434310,-3.04816508

>  <Name>
ligand

>  <RI>
0

>  <Rbt.Current_Directory>
/home/itssahil/PROJECTS/Mol_Feturizer/New_Systems/rnas/4F8U

>  <Rbt.Executable>
rbdock ($Id: //depot/dev/client3/rdock/2013.1/src/exe/rbdock.cxx#4 $)

>  <Rbt.Library>
libRbt.so (2013.1, Build901 2013/11/27)

>  <Rbt.Parameter_File>
/export/apps/rDock/src/rDock_2013.1_src/data/scripts/dock_solv.prm

>  <Rbt.Receptor>
prm/pocket_docking_7.prm

>  <SCORE>
-12.1695

>  <SCORE.INTER>
-9.47301

>  <SCORE.INTER.CONST>
1

>  <SCORE.INTER.POLAR>
0

>  <SCORE.INTER.ROT>
6

>  <SCORE.INTER.SOLV>
15.0957

>  <SCORE.INTER.VDW>
-18.9472

>  <SCORE.INTER.norm>
-0.305581

>  <SCORE.INTRA>
-2.69653

>  <SCORE.INTRA.DIHEDRAL>
-7.60049

>  <SCORE.INTRA.DIHEDRAL.0>
18.77

>  <SCORE.INTRA.POLAR>
0

>  <SCORE.INTRA.POLAR.0>
0

>  <SCORE.INTRA.REPUL>
0

>  <SCORE.INTRA.REPUL.0>
0

>  <SCORE.INTRA.SOLV>
0.537557

>  <SCORE.INTRA.SOLV.lig_0>
-77.2465

>  <SCORE.INTRA.VDW>
0.834933

>  <SCORE.INTRA.VDW.0>
-4.16072

>  <SCORE.INTRA.norm>
-0.0869849

>  <SCORE.RESTR>
0

>  <SCORE.RESTR.CAVITY>
0

>  <SCORE.RESTR.norm>
0

>  <SCORE.SYSTEM>
0

>  <SCORE.SYSTEM.CONST>
0

>  <SCORE.SYSTEM.DIHEDRAL>
0

>  <SCORE.SYSTEM.SOLV>
0

>  <SCORE.SYSTEM.norm>
0

>  <SCORE.heavy>
31

>  <SCORE.norm>
-0.392566

>  <RMSD>
6.828

$$$$
ligand
 OpenBabel11021811493D
libRbt.so/2013.1/901 2013/11/27
 31 33  0  0  0  0  0  0  0  0999 V2000
   -6.1944  -12.6421  -10.9624 C   0  0  2  0  0  0  0  0  0  0  0  0
   -6.7609  -12.9429  -12.2450 O   0  0  0  0  0  0  0  0  0  0  0  0
   -5.2536  -12.6583  -16.2413 C   0  0  2  0  0  0  0  0  0  0  0  0
   -4.7882  -12.0951  -17.4719 N   0  0  0  0  0  0  0  0  0  0  0  0
   -2.1551  -12.1614  -16.4044 C   0  0  2  0  0  0  0  0  0  0  0  0
   -6.9011  -13.5928   -9.9335 C   0  0  2  0  0  0  0  0  0  0  0  0
   -6.6993  -14.9826  -10.3281 N   0  0  0  0  0  0  0  0  0  0  0  0
   -6.7305  -12.1688  -15.9828 C   0  0  0  0  0  0  0  0  0  0  0  0
   -0.8069  -12.9305  -16.2493 C   0  0  2  0  0  0  0  0  0  0  0  0
   -1.0524  -14.3213  -16.3677 O   0  0  0  0  0  0  0  0  0  0  0  0
   -8.4305  -13.2532   -9.8604 C   0  0  0  0  0  0  0  0  0  0  0  0
   -7.2491  -12.8014  -14.6196 C   0  0  2  0  0  0  0  0  0  0  0  0
   -8.6361  -12.3469  -14.3652 N   0  0  0  0  0  0  0  0  0  0  0  0
   -0.2283  -12.5743  -14.8090 C   0  0  1  0  0  0  0  0  0  0  0  0
    1.0617  -13.3034  -14.5609 N   0  0  0  0  0  0  0  0  0  0  0  0
   -8.6513  -11.7190   -9.7235 C   0  0  0  0  0  0  0  0  0  0  0  0
   -6.2927  -12.3523  -13.4269 C   0  0  2  0  0  0  0  0  0  0  0  0
    0.0385  -10.9699  -14.7216 C   0  0  1  0  0  0  0  0  0  0  0  0
    0.9728  -10.5325  -15.6894 O   0  0  0  0  0  0  0  0  0  0  0  0
   -7.6900  -10.8490  -10.0682 C   0  0  2  0  0  0  0  0  0  0  0  0
   -6.4059  -11.2509  -10.5764 O   0  0  0  0  0  0  0  0  0  0  0  0
   -4.8131  -12.8344  -13.7331 C   0  0  2  0  0  0  0  0  0  0  0  0
   -3.9378  -12.4149  -12.6786 O   0  0  0  0  0  0  0  0  0  0  0  0
   -1.3053  -10.2080  -14.9783 C   0  0  0  0  0  0  0  0  0  0  0  0
   -1.9221  -10.6772  -16.2853 O   0  0  0  0  0  0  0  0  0  0  0  0
   -7.8894   -9.3211   -9.9369 C   0  0  0  0  0  0  0  0  0  0  0  0
   -8.1569   -8.7507  -11.2498 N   0  0  0  0  0  0  0  0  0  0  0  0
   -4.3167  -12.2026  -15.0837 C   0  0  1  0  0  0  0  0  0  0  0  0
   -3.0061  -12.6567  -15.3231 O   0  0  0  0  0  0  0  0  0  0  0  0
    0.5975  -10.4582  -13.3836 C   0  0  0  0  0  0  0  0  0  0  0  0
    0.9612  -14.5829  -13.8335 C   0  0  0  0  0  0  0  0  0  0  0  0
  1  2  1  6  0  0  0
  1  6  1  0  0  0  0
  1 21  1  0  0  0  0
  3  4  1  6  0  0  0
  3  8  1  0  0  0  0
  3 28  1  0  0  0  0
  5  9  1  0  0  0  0
  5 25  1  0  0  0  0
  5 29  1  1  0  0  0
  6  7  1  6  0  0  0
  6 11  1  0  0  0  0
  8 12  1  0  0  0  0
  9 10  1  1  0  0  0
  9 14  1  0  0  0  0
 11 16  1  0  0  0  0
 12 13  1  1  0  0  0
 12 17  1  0  0  0  0
 14 15  1  6  0  0  0
 14 18  1  0  0  0  0
 15 31  1  0  0  0  0
 16 20  1  0  0  0  0
 17  2  1  1  0  0  0
 17 22  1  0  0  0  0
 18 19  1  6  0  0  0
 18 24  1  0  0  0  0
 18 30  1  0  0  0  0
 20 21  1  0  0  0  0
 20 26  1  1  0  0  0
 22 23  1  1  0  0  0
 22 28  1  0  0  0  0
 24 25  1  0  0  0  0
 26 27  1  0  0  0  0
 28 29  1  6  0  0  0
M  END
>  <CHROM.1>
-175.03302111,178.90299720,-94.83274900,-174.14076667,-102.84015212,68.19026515
-4.22860160,-12.14383337,-13.59206255,-2.59637515,-0.01279955,-1.66099516

>  <Name>
ligand

>  <RI>
0

>  <Rbt.Current_Directory>
/home/itssahil/PROJECTS/Mol_Feturizer/New_Systems/rnas/4F8U

>  <Rbt.Executable>
rbdock ($Id: //depot/dev/client3/rdock/2013.1/src/exe/rbdock.cxx#4 $)

>  <Rbt.Library>
libRbt.so (2013.1, Build901 2013/11/27)

>  <Rbt.Parameter_File>
/export/apps/rDock/src/rDock_2013.1_src/data/scripts/dock_solv.prm

>  <Rbt.Receptor>
prm/pocket_docking_8.prm

>  <SCORE>
-4.74445

>  <SCORE.INTER>
2.92182

>  <SCORE.INTER.CONST>
1

>  <SCORE.INTER.POLAR>
0

>  <SCORE.INTER.ROT>
6

>  <SCORE.INTER.SOLV>
5.5365

>  <SCORE.INTER.VDW>
-7.49762

>  <SCORE.INTER.norm>
0.0942523

>  <SCORE.INTRA>
-7.66627

>  <SCORE.INTRA.DIHEDRAL>
-15.3534

>  <SCORE.INTRA.DIHEDRAL.0>
18.77

>  <SCORE.INTRA.POLAR>
0

>  <SCORE.INTRA.POLAR.0>
0

>  <SCORE.INTRA.REPUL>
0

>  <SCORE.INTRA.REPUL.0>
0

>  <SCORE.INTRA.SOLV>
-1.95439

>  <SCORE.INTRA.SOLV.lig_0>
-77.2465

>  <SCORE.INTRA.VDW>
0.987627

>  <SCORE.INTRA.VDW.0>
-4.16072

>  <SCORE.INTRA.norm>
-0.247299

>  <SCORE.RESTR>
0

>  <SCORE.RESTR.CAVITY>
0

>  <SCORE.RESTR.norm>
0

>  <SCORE.SYSTEM>
0

>  <SCORE.SYSTEM.CONST>
0

>  <SCORE.SYSTEM.DIHEDRAL>
0

>  <SCORE.SYSTEM.SOLV>
0

>  <SCORE.SYSTEM.norm>
0

>  <SCORE.heavy>
31

>  <SCORE.norm>
-0.153047

>  <RMSD>
6.835

$$$$
ligand
 OpenBabel11021811493D
libRbt.so/2013.1/901 2013/11/27
 31 33  0  0  0  0  0  0  0  0999 V2000
   -7.0907   -7.0565  -22.9834 C   0  0  2  0  0  0  0  0  0  0  0  0
   -7.6524   -7.7675  -21.8718 O   0  0  0  0  0  0  0  0  0  0  0  0
   -7.8342  -11.9083  -20.8021 C   0  0  2  0  0  0  0  0  0  0  0  0
   -7.4181  -13.2278  -20.4362 N   0  0  0  0  0  0  0  0  0  0  0  0
   -7.4295  -12.2729  -17.5812 C   0  0  2  0  0  0  0  0  0  0  0  0
   -5.7219   -6.4715  -22.4874 C   0  0  2  0  0  0  0  0  0  0  0  0
   -4.8645   -7.5545  -22.0185 N   0  0  0  0  0  0  0  0  0  0  0  0
   -7.2022  -11.5438  -22.2006 C   0  0  0  0  0  0  0  0  0  0  0  0
   -8.5649  -12.5180  -16.5400 C   0  0  2  0  0  0  0  0  0  0  0  0
   -9.7334  -12.9404  -17.2219 O   0  0  0  0  0  0  0  0  0  0  0  0
   -5.9735   -5.4282  -21.3437 C   0  0  0  0  0  0  0  0  0  0  0  0
   -7.6716  -10.0810  -22.6096 C   0  0  2  0  0  0  0  0  0  0  0  0
   -7.0822   -9.7267  -23.9220 N   0  0  0  0  0  0  0  0  0  0  0  0
   -8.8130  -11.1379  -15.7850 C   0  0  1  0  0  0  0  0  0  0  0  0
   -9.9214  -11.2754  -14.7801 N   0  0  0  0  0  0  0  0  0  0  0  0
   -7.1035   -4.4343  -21.7394 C   0  0  0  0  0  0  0  0  0  0  0  0
   -7.2052   -9.0416  -21.4956 C   0  0  2  0  0  0  0  0  0  0  0  0
   -7.4464  -10.6953  -15.0172 C   0  0  1  0  0  0  0  0  0  0  0  0
   -7.0411  -11.6527  -14.0580 O   0  0  0  0  0  0  0  0  0  0  0  0
   -7.9834   -4.7375  -22.7056 C   0  0  2  0  0  0  0  0  0  0  0  0
   -7.9547   -5.9733  -23.4410 O   0  0  0  0  0  0  0  0  0  0  0  0
   -7.8340   -9.4543  -20.0993 C   0  0  2  0  0  0  0  0  0  0  0  0
   -7.4020   -8.5405  -19.0832 O   0  0  0  0  0  0  0  0  0  0  0  0
   -6.2901  -10.5498  -16.0631 C   0  0  0  0  0  0  0  0  0  0  0  0
   -6.1722  -11.8246  -16.8815 O   0  0  0  0  0  0  0  0  0  0  0  0
   -9.1116   -3.7620  -23.1149 C   0  0  0  0  0  0  0  0  0  0  0  0
   -8.9760   -3.4256  -24.5251 N   0  0  0  0  0  0  0  0  0  0  0  0
   -7.3626  -10.9023  -19.7108 C   0  0  1  0  0  0  0  0  0  0  0  0
   -7.9438  -11.2337  -18.4725 O   0  0  0  0  0  0  0  0  0  0  0  0
   -7.5175   -9.3715  -14.2380 C   0  0  0  0  0  0  0  0  0  0  0  0
  -11.2585  -10.8292  -15.2151 C   0  0  0  0  0  0  0  0  0  0  0  0
  1  2  1  1  0  0  0
  1  6  1  0  0  0  0
  1 21  1  0  0  0  0
  3  4  1  1  0  0  0
  3  8  1  0  0  0  0
  3 28  1  0  0  0  0
  5  9  1  0  0  0  0
  5 25  1  0  0  0  0
  5 29  1  6  0  0  0
  6  7  1  1  0  0  0
  6 11  1  0  0  0  0
  8 12  1  0  0  0  0
  9 10  1  6  0  0  0
  9 14  1  0  0  0  0
 11 16  1  0  0  0  0
 12 13  1  6  0  0  0
 12 17  1  0  0  0  0
 14 15  1  1  0  0  0
 14 18  1  0  0  0  0
 15 31  1  0  0  0  0
 16 20  1  0  0  0  0
 17  2  1  6  0  0  0
 17 22  1  0  0  0  0
 18 19  1  1  0  0  0
 18 24  1  0  0  0  0
 18 30  1  0  0  0  0
 20 21  1  0  0  0  0
 20 26  1  6  0  0  0
 22 23  1  1  0  0  0
 22 28  1  0  0  0  0
 24 25  1  0  0  0  0
 26 27  1  0  0  0  0
 28 29  1  1  0  0  0
M  END
>  <CHROM.1>
-77.57745271,-166.44910212,-97.32529622,-70.33903288,120.63767173,81.52955718
-7.67565420,-9.28072902,-19.58094391,-1.09484310,-1.38552214,2.72278387

>  <Name>
ligand

>  <RI>
0

>  <Rbt.Current_Directory>
/home/itssahil/PROJECTS/Mol_Feturizer/New_Systems/rnas/4F8U

>  <Rbt.Executable>
rbdock ($Id: //depot/dev/client3/rdock/2013.1/src/exe/rbdock.cxx#4 $)

>  <Rbt.Library>
libRbt.so (2013.1, Build901 2013/11/27)

>  <Rbt.Parameter_File>
/export/apps/rDock/src/rDock_2013.1_src/data/scripts/dock_solv.prm

>  <Rbt.Receptor>
prm/pocket_docking_8.prm

>  <SCORE>
-14.4783

>  <SCORE.INTER>
-10.7778

>  <SCORE.INTER.CONST>
1

>  <SCORE.INTER.POLAR>
0

>  <SCORE.INTER.ROT>
6

>  <SCORE.INTER.SOLV>
15.6698

>  <SCORE.INTER.VDW>
-20.0084

>  <SCORE.INTER.norm>
-0.34767

>  <SCORE.INTRA>
-3.7005

>  <SCORE.INTRA.DIHEDRAL>
-11.403

>  <SCORE.INTRA.DIHEDRAL.0>
18.77

>  <SCORE.INTRA.POLAR>
0

>  <SCORE.INTRA.POLAR.0>
0

>  <SCORE.INTRA.REPUL>
0

>  <SCORE.INTRA.REPUL.0>
0

>  <SCORE.INTRA.SOLV>
1.95553

>  <SCORE.INTRA.SOLV.lig_0>
-77.2465

>  <SCORE.INTRA.VDW>
1.02324

>  <SCORE.INTRA.VDW.0>
-4.16072

>  <SCORE.INTRA.norm>
-0.119371

>  <SCORE.RESTR>
0

>  <SCORE.RESTR.CAVITY>
0

>  <SCORE.RESTR.norm>
0

>  <SCORE.SYSTEM>
0

>  <SCORE.SYSTEM.CONST>
0

>  <SCORE.SYSTEM.DIHEDRAL>
0

>  <SCORE.SYSTEM.SOLV>
0

>  <SCORE.SYSTEM.norm>
0

>  <SCORE.heavy>
31

>  <SCORE.norm>
-0.467041

>  <RMSD>
6.840

$$$$
ligand
 OpenBabel11021811493D
libRbt.so/2013.1/901 2013/11/27
 31 33  0  0  0  0  0  0  0  0999 V2000
   -7.4896  -11.8653  -23.1023 C   0  0  2  0  0  0  0  0  0  0  0  0
   -6.2724  -12.1576  -22.4026 O   0  0  0  0  0  0  0  0  0  0  0  0
   -7.5775  -12.0066  -18.3286 C   0  0  2  0  0  0  0  0  0  0  0  0
   -7.5399  -12.0043  -16.8981 N   0  0  0  0  0  0  0  0  0  0  0  0
   -6.5982   -8.6631  -17.5163 C   0  0  2  0  0  0  0  0  0  0  0  0
   -7.0989  -11.6828  -24.6110 C   0  0  2  0  0  0  0  0  0  0  0  0
   -6.4429  -12.8907  -25.0994 N   0  0  0  0  0  0  0  0  0  0  0  0
   -6.9790  -13.3688  -18.8524 C   0  0  0  0  0  0  0  0  0  0  0  0
   -5.5499   -7.9502  -18.4252 C   0  0  2  0  0  0  0  0  0  0  0  0
   -6.2282   -7.2764  -19.4715 O   0  0  0  0  0  0  0  0  0  0  0  0
   -6.1581  -10.4379  -24.7690 C   0  0  0  0  0  0  0  0  0  0  0  0
   -7.0287  -13.3734  -20.4413 C   0  0  2  0  0  0  0  0  0  0  0  0
   -6.4671  -14.6485  -20.9451 N   0  0  0  0  0  0  0  0  0  0  0  0
   -4.5876   -9.0794  -19.0039 C   0  0  1  0  0  0  0  0  0  0  0  0
   -3.5606   -8.4808  -19.9227 N   0  0  0  0  0  0  0  0  0  0  0  0
   -6.7274   -9.2119  -23.9981 C   0  0  0  0  0  0  0  0  0  0  0  0
   -6.1910  -12.1400  -21.0034 C   0  0  2  0  0  0  0  0  0  0  0  0
   -3.8313   -9.8227  -17.7676 C   0  0  1  0  0  0  0  0  0  0  0  0
   -3.0456   -8.9248  -17.0077 O   0  0  0  0  0  0  0  0  0  0  0  0
   -7.6286   -9.3703  -23.0171 C   0  0  2  0  0  0  0  0  0  0  0  0
   -8.1345  -10.6531  -22.6084 O   0  0  0  0  0  0  0  0  0  0  0  0
   -6.8008  -10.7909  -20.4346 C   0  0  2  0  0  0  0  0  0  0  0  0
   -6.0404   -9.6745  -20.9137 O   0  0  0  0  0  0  0  0  0  0  0  0
   -4.9001  -10.4488  -16.8095 C   0  0  0  0  0  0  0  0  0  0  0  0
   -5.9029   -9.3865  -16.3917 O   0  0  0  0  0  0  0  0  0  0  0  0
   -8.2080   -8.1644  -22.2413 C   0  0  0  0  0  0  0  0  0  0  0  0
   -7.4011   -6.9817  -22.5071 N   0  0  0  0  0  0  0  0  0  0  0  0
   -6.7464  -10.8033  -18.8641 C   0  0  1  0  0  0  0  0  0  0  0  0
   -7.2994   -9.5958  -18.3980 O   0  0  0  0  0  0  0  0  0  0  0  0
   -2.8623  -10.9506  -18.1592 C   0  0  0  0  0  0  0  0  0  0  0  0
   -4.0760   -7.7976  -21.1243 C   0  0  0  0  0  0  0  0  0  0  0  0
  1  2  1  1  0  0  0
  1  6  1  0  0  0  0
  1 21  1  0  0  0  0
  3  4  1  1  0  0  0
  3  8  1  0  0  0  0
  3 28  1  0  0  0  0
  5  9  1  0  0  0  0
  5 25  1  0  0  0  0
  5 29  1  6  0  0  0
  6  7  1  1  0  0  0
  6 11  1  0  0  0  0
  8 12  1  0  0  0  0
  9 10  1  6  0  0  0
  9 14  1  0  0  0  0
 11 16  1  0  0  0  0
 12 13  1  6  0  0  0
 12 17  1  0  0  0  0
 14 15  1  6  0  0  0
 14 18  1  0  0  0  0
 15 31  1  0  0  0  0
 16 20  1  0  0  0  0
 17  2  1  6  0  0  0
 17 22  1  0  0  0  0
 18 19  1  1  0  0  0
 18 24  1  0  0  0  0
 18 30  1  0  0  0  0
 20 21  1  0  0  0  0
 20 26  1  6  0  0  0
 22 23  1  6  0  0  0
 22 28  1  0  0  0  0
 24 25  1  0  0  0  0
 26 27  1  0  0  0  0
 28 29  1  1  0  0  0
M  END
>  <CHROM.1>
167.97629750,74.68558234,-61.50328884,69.38544211,-14.00303869,116.80392608
-6.15794173,-10.30935756,-20.33862752,2.69812396,-1.22218928,-0.72733291

>  <Name>
ligand

>  <RI>
0

>  <Rbt.Current_Directory>
/home/itssahil/PROJECTS/Mol_Feturizer/New_Systems/rnas/4F8U

>  <Rbt.Executable>
rbdock ($Id: //depot/dev/client3/rdock/2013.1/src/exe/rbdock.cxx#4 $)

>  <Rbt.Library>
libRbt.so (2013.1, Build901 2013/11/27)

>  <Rbt.Parameter_File>
/export/apps/rDock/src/rDock_2013.1_src/data/scripts/dock_solv.prm

>  <Rbt.Receptor>
prm/blind_docking_60.prm

>  <SCORE>
30.2288

>  <SCORE.INTER>
5.36553

>  <SCORE.INTER.CONST>
1

>  <SCORE.INTER.POLAR>
0

>  <SCORE.INTER.ROT>
6

>  <SCORE.INTER.SOLV>
23.4626

>  <SCORE.INTER.VDW>
-11.8438

>  <SCORE.INTER.norm>
0.173082

>  <SCORE.INTRA>
8.95248

>  <SCORE.INTRA.DIHEDRAL>
-7.56116

>  <SCORE.INTRA.DIHEDRAL.0>
18.77

>  <SCORE.INTRA.POLAR>
0

>  <SCORE.INTRA.POLAR.0>
0

>  <SCORE.INTRA.REPUL>
0

>  <SCORE.INTRA.REPUL.0>
0

>  <SCORE.INTRA.SOLV>
4.4684

>  <SCORE.INTRA.SOLV.lig_0>
-77.2465

>  <SCORE.INTRA.VDW>
10.4989

>  <SCORE.INTRA.VDW.0>
-4.16072

>  <SCORE.INTRA.norm>
0.28879

>  <SCORE.RESTR>
15.9108

>  <SCORE.RESTR.CAVITY>
15.9108

>  <SCORE.RESTR.norm>
0.51325

>  <SCORE.SYSTEM>
0

>  <SCORE.SYSTEM.CONST>
0

>  <SCORE.SYSTEM.DIHEDRAL>
0

>  <SCORE.SYSTEM.SOLV>
0

>  <SCORE.SYSTEM.norm>
0

>  <SCORE.heavy>
31

>  <SCORE.norm>
0.975121

>  <RMSD>
6.845

$$$$
ligand
 OpenBabel11021811493D
libRbt.so/2013.1/901 2013/11/27
 31 33  0  0  0  0  0  0  0  0999 V2000
   -7.3972  -14.5840  -19.6709 C   0  0  2  0  0  0  0  0  0  0  0  0
   -6.0696  -14.4520  -19.1450 O   0  0  0  0  0  0  0  0  0  0  0  0
   -2.1330  -15.0879  -20.7013 C   0  0  2  0  0  0  0  0  0  0  0  0
   -0.9751  -14.9703  -21.5341 N   0  0  0  0  0  0  0  0  0  0  0  0
   -1.2026  -11.9709  -18.6739 C   0  0  2  0  0  0  0  0  0  0  0  0
   -7.8544  -13.1408  -20.0834 C   0  0  2  0  0  0  0  0  0  0  0  0
   -6.9159  -12.5849  -21.0520 N   0  0  0  0  0  0  0  0  0  0  0  0
   -3.3513  -15.5590  -21.5855 C   0  0  0  0  0  0  0  0  0  0  0  0
    0.3311  -11.7745  -18.4676 C   0  0  2  0  0  0  0  0  0  0  0  0
    0.9825  -11.8759  -19.7223 O   0  0  0  0  0  0  0  0  0  0  0  0
   -7.9440  -12.2282  -18.8110 C   0  0  0  0  0  0  0  0  0  0  0  0
   -4.6349  -15.6970  -20.6578 C   0  0  2  0  0  0  0  0  0  0  0  0
   -5.7871  -16.1377  -21.4784 N   0  0  0  0  0  0  0  0  0  0  0  0
    0.8205  -12.9212  -17.4768 C   0  0  1  0  0  0  0  0  0  0  0  0
    2.3023  -12.8268  -17.2475 N   0  0  0  0  0  0  0  0  0  0  0  0
   -8.7118  -12.9490  -17.6653 C   0  0  0  0  0  0  0  0  0  0  0  0
   -4.9493  -14.2933  -19.9724 C   0  0  2  0  0  0  0  0  0  0  0  0
    0.0474  -12.7627  -16.0520 C   0  0  1  0  0  0  0  0  0  0  0  0
    0.3093  -11.5143  -15.4406 O   0  0  0  0  0  0  0  0  0  0  0  0
   -8.8549  -14.2828  -17.6619 C   0  0  2  0  0  0  0  0  0  0  0  0
   -8.3278  -15.1367  -18.6923 O   0  0  0  0  0  0  0  0  0  0  0  0
   -3.6946  -13.8365  -19.1166 C   0  0  2  0  0  0  0  0  0  0  0  0
   -3.9557  -12.5625  -18.5141 O   0  0  0  0  0  0  0  0  0  0  0  0
   -1.4974  -12.8625  -16.2885 C   0  0  0  0  0  0  0  0  0  0  0  0
   -1.9212  -11.8649  -17.3534 O   0  0  0  0  0  0  0  0  0  0  0  0
   -9.6166  -15.0171  -16.5339 C   0  0  0  0  0  0  0  0  0  0  0  0
   -8.6831  -15.8264  -15.7632 N   0  0  0  0  0  0  0  0  0  0  0  0
   -2.4347  -13.7072  -20.0470 C   0  0  1  0  0  0  0  0  0  0  0  0
   -1.3440  -13.3065  -19.2528 O   0  0  0  0  0  0  0  0  0  0  0  0
    0.4063  -13.8035  -14.9785 C   0  0  0  0  0  0  0  0  0  0  0  0
    3.1425  -13.7821  -17.9943 C   0  0  0  0  0  0  0  0  0  0  0  0
  1  2  1  1  0  0  0
  1  6  1  0  0  0  0
  1 21  1  0  0  0  0
  3  4  1  6  0  0  0
  3  8  1  0  0  0  0
  3 28  1  0  0  0  0
  5  9  1  0  0  0  0
  5 25  1  0  0  0  0
  5 29  1  1  0  0  0
  6  7  1  6  0  0  0
  6 11  1  0  0  0  0
  8 12  1  0  0  0  0
  9 10  1  6  0  0  0
  9 14  1  0  0  0  0
 11 16  1  0  0  0  0
 12 13  1  6  0  0  0
 12 17  1  0  0  0  0
 14 15  1  1  0  0  0
 14 18  1  0  0  0  0
 15 31  1  0  0  0  0
 16 20  1  0  0  0  0
 17  2  1  1  0  0  0
 17 22  1  0  0  0  0
 18 19  1  1  0  0  0
 18 24  1  0  0  0  0
 18 30  1  0  0  0  0
 20 21  1  0  0  0  0
 20 26  1  6  0  0  0
 22 23  1  6  0  0  0
 22 28  1  0  0  0  0
 24 25  1  0  0  0  0
 26 27  1  0  0  0  0
 28 29  1  1  0  0  0
M  END
>  <CHROM.1>
-77.42285036,-155.05579750,-101.68483021,-73.91186677,-112.73281035,169.64964086
-3.51037119,-13.63552232,-18.60733132,-2.97584194,0.13403490,1.26545453

>  <Name>
ligand

>  <RI>
0

>  <Rbt.Current_Directory>
/home/itssahil/PROJECTS/Mol_Feturizer/New_Systems/rnas/4F8U

>  <Rbt.Executable>
rbdock ($Id: //depot/dev/client3/rdock/2013.1/src/exe/rbdock.cxx#4 $)

>  <Rbt.Library>
libRbt.so (2013.1, Build901 2013/11/27)

>  <Rbt.Parameter_File>
/export/apps/rDock/src/rDock_2013.1_src/data/scripts/dock_solv.prm

>  <Rbt.Receptor>
prm/pocket_docking_7.prm

>  <SCORE>
-6.5003

>  <SCORE.INTER>
-3.64797

>  <SCORE.INTER.CONST>
1

>  <SCORE.INTER.POLAR>
0

>  <SCORE.INTER.ROT>
6

>  <SCORE.INTER.SOLV>
12.1033

>  <SCORE.INTER.VDW>
-14.0664

>  <SCORE.INTER.norm>
-0.117676

>  <SCORE.INTRA>
-2.85234

>  <SCORE.INTRA.DIHEDRAL>
-10.5898

>  <SCORE.INTRA.DIHEDRAL.0>
18.77

>  <SCORE.INTRA.POLAR>
0

>  <SCORE.INTRA.POLAR.0>
0

>  <SCORE.INTRA.REPUL>
0

>  <SCORE.INTRA.REPUL.0>
0

>  <SCORE.INTRA.SOLV>
1.05375

>  <SCORE.INTRA.SOLV.lig_0>
-77.2465

>  <SCORE.INTRA.VDW>
1.91567

>  <SCORE.INTRA.VDW.0>
-4.16072

>  <SCORE.INTRA.norm>
-0.0920109

>  <SCORE.RESTR>
0

>  <SCORE.RESTR.CAVITY>
0

>  <SCORE.RESTR.norm>
0

>  <SCORE.SYSTEM>
0

>  <SCORE.SYSTEM.CONST>
0

>  <SCORE.SYSTEM.DIHEDRAL>
0

>  <SCORE.SYSTEM.SOLV>
0

>  <SCORE.SYSTEM.norm>
0

>  <SCORE.heavy>
31

>  <SCORE.norm>
-0.209687

>  <RMSD>
6.847

$$$$
ligand
 OpenBabel11021811493D
libRbt.so/2013.1/901 2013/11/27
 31 33  0  0  0  0  0  0  0  0999 V2000
   -7.7989   -6.9952  -22.3292 C   0  0  2  0  0  0  0  0  0  0  0  0
   -8.0889   -8.3328  -22.7572 O   0  0  0  0  0  0  0  0  0  0  0  0
   -7.5143  -12.3473  -21.3870 C   0  0  2  0  0  0  0  0  0  0  0  0
   -6.8788  -13.5155  -20.8585 N   0  0  0  0  0  0  0  0  0  0  0  0
   -7.5130  -12.3509  -18.0659 C   0  0  2  0  0  0  0  0  0  0  0  0
   -6.6765   -6.4590  -23.2857 C   0  0  2  0  0  0  0  0  0  0  0  0
   -7.1364   -6.5222  -24.6686 N   0  0  0  0  0  0  0  0  0  0  0  0
   -6.7673  -11.9135  -22.7069 C   0  0  0  0  0  0  0  0  0  0  0  0
   -7.3099  -11.3079  -16.9239 C   0  0  2  0  0  0  0  0  0  0  0  0
   -8.5713  -10.7799  -16.5511 O   0  0  0  0  0  0  0  0  0  0  0  0
   -5.3691   -7.3045  -23.0966 C   0  0  0  0  0  0  0  0  0  0  0  0
   -7.4790  -10.6204  -23.2974 C   0  0  2  0  0  0  0  0  0  0  0  0
   -6.7844  -10.2024  -24.5375 N   0  0  0  0  0  0  0  0  0  0  0  0
   -6.3606  -10.1651  -17.4976 C   0  0  1  0  0  0  0  0  0  0  0  0
   -6.1376   -9.0945  -16.4673 N   0  0  0  0  0  0  0  0  0  0  0  0
   -5.0348   -7.4774  -21.5867 C   0  0  0  0  0  0  0  0  0  0  0  0
   -7.4353   -9.4493  -22.2178 C   0  0  2  0  0  0  0  0  0  0  0  0
   -4.9266  -10.8180  -17.9098 C   0  0  1  0  0  0  0  0  0  0  0  0
   -4.2759  -11.4140  -16.8042 O   0  0  0  0  0  0  0  0  0  0  0  0
   -5.9753   -7.3020  -20.6463 C   0  0  2  0  0  0  0  0  0  0  0  0
   -7.3358   -6.9447  -20.9464 O   0  0  0  0  0  0  0  0  0  0  0  0
   -8.1682   -9.9292  -20.8956 C   0  0  2  0  0  0  0  0  0  0  0  0
   -8.1144   -8.8928  -19.9072 O   0  0  0  0  0  0  0  0  0  0  0  0
   -5.1566  -11.9331  -18.9850 C   0  0  0  0  0  0  0  0  0  0  0  0
   -6.1852  -12.9311  -18.4804 O   0  0  0  0  0  0  0  0  0  0  0  0
   -5.6621   -7.4666  -19.1408 C   0  0  0  0  0  0  0  0  0  0  0  0
   -6.9067   -7.5971  -18.3963 N   0  0  0  0  0  0  0  0  0  0  0  0
   -7.4546  -11.2084  -20.3264 C   0  0  1  0  0  0  0  0  0  0  0  0
   -8.1348  -11.6059  -19.1601 O   0  0  0  0  0  0  0  0  0  0  0  0
   -3.8903   -9.8410  -18.4895 C   0  0  0  0  0  0  0  0  0  0  0  0
   -5.7629   -9.5538  -15.1164 C   0  0  0  0  0  0  0  0  0  0  0  0
  1  2  1  6  0  0  0
  1  6  1  0  0  0  0
  1 21  1  0  0  0  0
  3  4  1  1  0  0  0
  3  8  1  0  0  0  0
  3 28  1  0  0  0  0
  5  9  1  0  0  0  0
  5 25  1  0  0  0  0
  5 29  1  6  0  0  0
  6  7  1  6  0  0  0
  6 11  1  0  0  0  0
  8 12  1  0  0  0  0
  9 10  1  6  0  0  0
  9 14  1  0  0  0  0
 11 16  1  0  0  0  0
 12 13  1  6  0  0  0
 12 17  1  0  0  0  0
 14 15  1  1  0  0  0
 14 18  1  0  0  0  0
 15 31  1  0  0  0  0
 16 20  1  0  0  0  0
 17  2  1  6  0  0  0
 17 22  1  0  0  0  0
 18 19  1  1  0  0  0
 18 24  1  0  0  0  0
 18 30  1  0  0  0  0
 20 21  1  0  0  0  0
 20 26  1  1  0  0  0
 22 23  1  1  0  0  0
 22 28  1  0  0  0  0
 24 25  1  0  0  0  0
 26 27  1  0  0  0  0
 28 29  1  1  0  0  0
M  END
>  <CHROM.1>
91.62052525,105.08612287,48.24358997,-154.77269786,-163.92972183,87.34506671
-6.67421425,-9.75566067,-20.06479211,-2.01174959,1.31311001,2.49459840

>  <Name>
ligand

>  <RI>
0

>  <Rbt.Current_Directory>
/home/itssahil/PROJECTS/Mol_Feturizer/New_Systems/rnas/4F8U

>  <Rbt.Executable>
rbdock ($Id: //depot/dev/client3/rdock/2013.1/src/exe/rbdock.cxx#4 $)

>  <Rbt.Library>
libRbt.so (2013.1, Build901 2013/11/27)

>  <Rbt.Parameter_File>
/export/apps/rDock/src/rDock_2013.1_src/data/scripts/dock_solv.prm

>  <Rbt.Receptor>
prm/blind_docking_60.prm

>  <SCORE>
27.2531

>  <SCORE.INTER>
-4.70295

>  <SCORE.INTER.CONST>
1

>  <SCORE.INTER.POLAR>
0

>  <SCORE.INTER.ROT>
6

>  <SCORE.INTER.SOLV>
22.7818

>  <SCORE.INTER.VDW>
-18.3292

>  <SCORE.INTER.norm>
-0.151708

>  <SCORE.INTRA>
14.6278

>  <SCORE.INTRA.DIHEDRAL>
0.493516

>  <SCORE.INTRA.DIHEDRAL.0>
18.77

>  <SCORE.INTRA.POLAR>
0

>  <SCORE.INTRA.POLAR.0>
0

>  <SCORE.INTRA.REPUL>
0

>  <SCORE.INTRA.REPUL.0>
0

>  <SCORE.INTRA.SOLV>
11.0538

>  <SCORE.INTRA.SOLV.lig_0>
-77.2465

>  <SCORE.INTRA.VDW>
8.85412

>  <SCORE.INTRA.VDW.0>
-4.16072

>  <SCORE.INTRA.norm>
0.471863

>  <SCORE.RESTR>
17.3283

>  <SCORE.RESTR.CAVITY>
17.3283

>  <SCORE.RESTR.norm>
0.558978

>  <SCORE.SYSTEM>
0

>  <SCORE.SYSTEM.CONST>
0

>  <SCORE.SYSTEM.DIHEDRAL>
0

>  <SCORE.SYSTEM.SOLV>
0

>  <SCORE.SYSTEM.norm>
0

>  <SCORE.heavy>
31

>  <SCORE.norm>
0.879133

>  <RMSD>
6.918

$$$$
ligand
 OpenBabel11021811493D
libRbt.so/2013.1/901 2013/11/27
 31 33  0  0  0  0  0  0  0  0999 V2000
   -8.4906   -8.6905  -22.5172 C   0  0  2  0  0  0  0  0  0  0  0  0
   -8.2249  -10.0908  -22.6753 O   0  0  0  0  0  0  0  0  0  0  0  0
   -6.7464  -13.1413  -20.0615 C   0  0  2  0  0  0  0  0  0  0  0  0
   -5.8584  -13.8863  -19.2222 N   0  0  0  0  0  0  0  0  0  0  0  0
   -6.7872  -11.4156  -16.9576 C   0  0  2  0  0  0  0  0  0  0  0  0
   -8.5140   -8.0795  -23.9623 C   0  0  2  0  0  0  0  0  0  0  0  0
   -9.5231   -8.7583  -24.7677 N   0  0  0  0  0  0  0  0  0  0  0  0
   -6.1317  -13.0634  -21.5120 C   0  0  0  0  0  0  0  0  0  0  0  0
   -6.9408   -9.8660  -16.8651 C   0  0  2  0  0  0  0  0  0  0  0  0
   -8.3191   -9.5416  -16.8026 O   0  0  0  0  0  0  0  0  0  0  0  0
   -7.0963   -8.2152  -24.6191 C   0  0  0  0  0  0  0  0  0  0  0  0
   -7.1228  -12.2424  -22.4454 C   0  0  2  0  0  0  0  0  0  0  0  0
   -6.5546  -12.1611  -23.8113 N   0  0  0  0  0  0  0  0  0  0  0  0
   -6.2689   -9.2505  -18.1712 C   0  0  1  0  0  0  0  0  0  0  0  0
   -6.4017   -7.7540  -18.1805 N   0  0  0  0  0  0  0  0  0  0  0  0
   -5.9834   -7.7495  -23.6363 C   0  0  0  0  0  0  0  0  0  0  0  0
   -7.3307  -10.7810  -21.8453 C   0  0  2  0  0  0  0  0  0  0  0  0
   -4.6895   -9.6477  -18.1979 C   0  0  1  0  0  0  0  0  0  0  0  0
   -3.9960   -9.1473  -17.0712 O   0  0  0  0  0  0  0  0  0  0  0  0
   -6.2117   -7.6817  -22.3160 C   0  0  2  0  0  0  0  0  0  0  0  0
   -7.4729   -8.0212  -21.7137 O   0  0  0  0  0  0  0  0  0  0  0  0
   -7.9213  -10.8972  -20.3779 C   0  0  2  0  0  0  0  0  0  0  0  0
   -8.0901   -9.5890  -19.8175 O   0  0  0  0  0  0  0  0  0  0  0  0
   -4.5489  -11.2073  -18.1899 C   0  0  0  0  0  0  0  0  0  0  0  0
   -5.3285  -11.7891  -17.0227 O   0  0  0  0  0  0  0  0  0  0  0  0
   -5.1196   -7.2188  -21.3236 C   0  0  0  0  0  0  0  0  0  0  0  0
   -5.3257   -5.8156  -20.9932 N   0  0  0  0  0  0  0  0  0  0  0  0
   -6.9317  -11.7128  -19.4695 C   0  0  1  0  0  0  0  0  0  0  0  0
   -7.4913  -11.7987  -18.1809 O   0  0  0  0  0  0  0  0  0  0  0  0
   -3.8915   -9.1301  -19.4061 C   0  0  0  0  0  0  0  0  0  0  0  0
   -7.5026   -7.1994  -18.9909 C   0  0  0  0  0  0  0  0  0  0  0  0
  1  2  1  6  0  0  0
  1  6  1  0  0  0  0
  1 21  1  0  0  0  0
  3  4  1  1  0  0  0
  3  8  1  0  0  0  0
  3 28  1  0  0  0  0
  5  9  1  0  0  0  0
  5 25  1  0  0  0  0
  5 29  1  6  0  0  0
  6  7  1  6  0  0  0
  6 11  1  0  0  0  0
  8 12  1  0  0  0  0
  9 10  1  6  0  0  0
  9 14  1  0  0  0  0
 11 16  1  0  0  0  0
 12 13  1  6  0  0  0
 12 17  1  0  0  0  0
 14 15  1  1  0  0  0
 14 18  1  0  0  0  0
 15 31  1  0  0  0  0
 16 20  1  0  0  0  0
 17  2  1  6  0  0  0
 17 22  1  0  0  0  0
 18 19  1  1  0  0  0
 18 24  1  0  0  0  0
 18 30  1  0  0  0  0
 20 21  1  0  0  0  0
 20 26  1  6  0  0  0
 22 23  1  1  0  0  0
 22 28  1  0  0  0  0
 24 25  1  0  0  0  0
 26 27  1  0  0  0  0
 28 29  1  1  0  0  0
M  END
>  <CHROM.1>
137.29033922,81.83393870,-98.53380768,-171.58142856,98.62255923,113.52391157
-6.67258232,-9.84156177,-20.31918160,-2.46213124,1.24352727,2.79589954

>  <Name>
ligand

>  <RI>
0

>  <Rbt.Current_Directory>
/home/itssahil/PROJECTS/Mol_Feturizer/New_Systems/rnas/4F8U

>  <Rbt.Executable>
rbdock ($Id: //depot/dev/client3/rdock/2013.1/src/exe/rbdock.cxx#4 $)

>  <Rbt.Library>
libRbt.so (2013.1, Build901 2013/11/27)

>  <Rbt.Parameter_File>
/export/apps/rDock/src/rDock_2013.1_src/data/scripts/dock_solv.prm

>  <Rbt.Receptor>
prm/blind_docking_60.prm

>  <SCORE>
32.8098

>  <SCORE.INTER>
5.08507

>  <SCORE.INTER.CONST>
1

>  <SCORE.INTER.POLAR>
0

>  <SCORE.INTER.ROT>
6

>  <SCORE.INTER.SOLV>
27.6593

>  <SCORE.INTER.VDW>
-13.4297

>  <SCORE.INTER.norm>
0.164035

>  <SCORE.INTRA>
10.9452

>  <SCORE.INTRA.DIHEDRAL>
-0.419043

>  <SCORE.INTRA.DIHEDRAL.0>
18.77

>  <SCORE.INTRA.POLAR>
0

>  <SCORE.INTRA.POLAR.0>
0

>  <SCORE.INTRA.REPUL>
0

>  <SCORE.INTRA.REPUL.0>
0

>  <SCORE.INTRA.SOLV>
4.61898

>  <SCORE.INTRA.SOLV.lig_0>
-77.2465

>  <SCORE.INTRA.VDW>
8.84518

>  <SCORE.INTRA.VDW.0>
-4.16072

>  <SCORE.INTRA.norm>
0.35307

>  <SCORE.RESTR>
16.7796

>  <SCORE.RESTR.CAVITY>
16.7796

>  <SCORE.RESTR.norm>
0.541277

>  <SCORE.SYSTEM>
0

>  <SCORE.SYSTEM.CONST>
0

>  <SCORE.SYSTEM.DIHEDRAL>
0

>  <SCORE.SYSTEM.SOLV>
0

>  <SCORE.SYSTEM.norm>
0

>  <SCORE.heavy>
31

>  <SCORE.norm>
1.05838

>  <RMSD>
6.947

$$$$
ligand
 OpenBabel11021811493D
libRbt.so/2013.1/901 2013/11/27
 31 33  0  0  0  0  0  0  0  0999 V2000
   -6.7507   -7.3520  -23.2687 C   0  0  2  0  0  0  0  0  0  0  0  0
   -7.3207   -7.9209  -22.0821 O   0  0  0  0  0  0  0  0  0  0  0  0
   -7.9704  -11.9737  -20.8671 C   0  0  2  0  0  0  0  0  0  0  0  0
   -7.7064  -13.3176  -20.4519 N   0  0  0  0  0  0  0  0  0  0  0  0
   -7.7886  -12.3966  -17.7411 C   0  0  2  0  0  0  0  0  0  0  0  0
   -6.4180   -5.8574  -22.9260 C   0  0  2  0  0  0  0  0  0  0  0  0
   -5.5130   -5.8039  -21.7832 N   0  0  0  0  0  0  0  0  0  0  0  0
   -7.2981  -11.7332  -22.2736 C   0  0  0  0  0  0  0  0  0  0  0  0
   -8.5304  -12.1092  -16.3993 C   0  0  2  0  0  0  0  0  0  0  0  0
   -9.9066  -11.9021  -16.6676 O   0  0  0  0  0  0  0  0  0  0  0  0
   -7.7426   -5.0747  -22.6219 C   0  0  0  0  0  0  0  0  0  0  0  0
   -7.5987  -10.2426  -22.7373 C   0  0  2  0  0  0  0  0  0  0  0  0
   -6.9702  -10.0044  -24.0577 N   0  0  0  0  0  0  0  0  0  0  0  0
   -7.8697  -10.8040  -15.7698 C   0  0  1  0  0  0  0  0  0  0  0  0
   -8.5503  -10.4335  -14.4827 N   0  0  0  0  0  0  0  0  0  0  0  0
   -8.8185   -5.3633  -23.7084 C   0  0  0  0  0  0  0  0  0  0  0  0
   -7.0208   -9.2228  -21.6580 C   0  0  2  0  0  0  0  0  0  0  0  0
   -6.2930  -11.0903  -15.4783 C   0  0  1  0  0  0  0  0  0  0  0  0
   -6.1053  -12.1581  -14.5696 O   0  0  0  0  0  0  0  0  0  0  0  0
   -8.7335   -6.4473  -24.4943 C   0  0  2  0  0  0  0  0  0  0  0  0
   -7.6661   -7.4071  -24.4037 O   0  0  0  0  0  0  0  0  0  0  0  0
   -7.6954   -9.5116  -20.2519 C   0  0  2  0  0  0  0  0  0  0  0  0
   -7.1655   -8.6162  -19.2662 O   0  0  0  0  0  0  0  0  0  0  0  0
   -5.5812  -11.4752  -16.8190 C   0  0  0  0  0  0  0  0  0  0  0  0
   -6.3211  -12.6237  -17.4840 O   0  0  0  0  0  0  0  0  0  0  0  0
   -9.7911   -6.7499  -25.5813 C   0  0  0  0  0  0  0  0  0  0  0  0
   -9.1247   -7.0067  -26.8503 N   0  0  0  0  0  0  0  0  0  0  0  0
   -7.3910  -10.9884  -19.8093 C   0  0  1  0  0  0  0  0  0  0  0  0
   -8.0086  -11.2076  -18.5637 O   0  0  0  0  0  0  0  0  0  0  0  0
   -5.5035   -9.9196  -14.8697 C   0  0  0  0  0  0  0  0  0  0  0  0
   -9.2440   -9.1317  -14.4601 C   0  0  0  0  0  0  0  0  0  0  0  0
  1  2  1  1  0  0  0
  1  6  1  0  0  0  0
  1 21  1  0  0  0  0
  3  4  1  1  0  0  0
  3  8  1  0  0  0  0
  3 28  1  0  0  0  0
  5  9  1  0  0  0  0
  5 25  1  0  0  0  0
  5 29  1  6  0  0  0
  6  7  1  1  0  0  0
  6 11  1  0  0  0  0
  8 12  1  0  0  0  0
  9 10  1  6  0  0  0
  9 14  1  0  0  0  0
 11 16  1  0  0  0  0
 12 13  1  6  0  0  0
 12 17  1  0  0  0  0
 14 15  1  1  0  0  0
 14 18  1  0  0  0  0
 15 31  1  0  0  0  0
 16 20  1  0  0  0  0
 17  2  1  6  0  0  0
 17 22  1  0  0  0  0
 18 19  1  1  0  0  0
 18 24  1  0  0  0  0
 18 30  1  0  0  0  0
 20 21  1  0  0  0  0
 20 26  1  6  0  0  0
 22 23  1  1  0  0  0
 22 28  1  0  0  0  0
 24 25  1  0  0  0  0
 26 27  1  0  0  0  0
 28 29  1  1  0  0  0
M  END
>  <CHROM.1>
-140.15628961,173.07136926,-116.76543444,-65.83641306,129.16577777,70.08400545
-7.56287246,-9.55448003,-20.02774171,-2.20158715,1.46861603,2.69031487

>  <Name>
ligand

>  <RI>
0

>  <Rbt.Current_Directory>
/home/itssahil/PROJECTS/Mol_Feturizer/New_Systems/rnas/4F8U

>  <Rbt.Executable>
rbdock ($Id: //depot/dev/client3/rdock/2013.1/src/exe/rbdock.cxx#4 $)

>  <Rbt.Library>
libRbt.so (2013.1, Build901 2013/11/27)

>  <Rbt.Parameter_File>
/export/apps/rDock/src/rDock_2013.1_src/data/scripts/dock_solv.prm

>  <Rbt.Receptor>
prm/pocket_docking_7.prm

>  <SCORE>
-12.5195

>  <SCORE.INTER>
-9.0665

>  <SCORE.INTER.CONST>
1

>  <SCORE.INTER.POLAR>
0

>  <SCORE.INTER.ROT>
6

>  <SCORE.INTER.SOLV>
14.1389

>  <SCORE.INTER.VDW>
-18.3573

>  <SCORE.INTER.norm>
-0.292468

>  <SCORE.INTRA>
-3.45299

>  <SCORE.INTRA.DIHEDRAL>
-9.52082

>  <SCORE.INTRA.DIHEDRAL.0>
18.77

>  <SCORE.INTRA.POLAR>
0

>  <SCORE.INTRA.POLAR.0>
0

>  <SCORE.INTRA.REPUL>
0

>  <SCORE.INTRA.REPUL.0>
0

>  <SCORE.INTRA.SOLV>
0.611253

>  <SCORE.INTRA.SOLV.lig_0>
-77.2465

>  <SCORE.INTRA.VDW>
1.00179

>  <SCORE.INTRA.VDW.0>
-4.16072

>  <SCORE.INTRA.norm>
-0.111387

>  <SCORE.RESTR>
0

>  <SCORE.RESTR.CAVITY>
0

>  <SCORE.RESTR.norm>
0

>  <SCORE.SYSTEM>
0

>  <SCORE.SYSTEM.CONST>
0

>  <SCORE.SYSTEM.DIHEDRAL>
0

>  <SCORE.SYSTEM.SOLV>
0

>  <SCORE.SYSTEM.norm>
0

>  <SCORE.heavy>
31

>  <SCORE.norm>
-0.403855

>  <RMSD>
6.956

$$$$
ligand
 OpenBabel11021811493D
libRbt.so/2013.1/901 2013/11/27
 31 33  0  0  0  0  0  0  0  0999 V2000
   -8.1708   -7.5336  -11.3341 C   0  0  2  0  0  0  0  0  0  0  0  0
   -8.7776   -8.3966  -10.3628 O   0  0  0  0  0  0  0  0  0  0  0  0
   -8.1442  -12.5548   -9.5678 C   0  0  2  0  0  0  0  0  0  0  0  0
   -8.2057  -13.9787   -9.6969 N   0  0  0  0  0  0  0  0  0  0  0  0
   -5.4386  -13.1318   -9.9003 C   0  0  2  0  0  0  0  0  0  0  0  0
   -8.8921   -6.1462  -11.2041 C   0  0  2  0  0  0  0  0  0  0  0  0
   -8.7555   -5.6460   -9.8406 N   0  0  0  0  0  0  0  0  0  0  0  0
   -9.6086  -11.9946   -9.3960 C   0  0  0  0  0  0  0  0  0  0  0  0
   -4.1395  -12.2934   -9.6944 C   0  0  2  0  0  0  0  0  0  0  0  0
   -4.4964  -10.9699   -9.3339 O   0  0  0  0  0  0  0  0  0  0  0  0
  -10.4046   -6.2957  -11.5913 C   0  0  0  0  0  0  0  0  0  0  0  0
   -9.5383  -10.4136   -9.2448 C   0  0  2  0  0  0  0  0  0  0  0  0
  -10.9094   -9.8756   -9.0842 N   0  0  0  0  0  0  0  0  0  0  0  0
   -3.3458  -12.3138  -11.0750 C   0  0  1  0  0  0  0  0  0  0  0  0
   -2.0887  -11.4970  -10.9757 N   0  0  0  0  0  0  0  0  0  0  0  0
  -10.5602   -7.0893  -12.9207 C   0  0  0  0  0  0  0  0  0  0  0  0
   -8.8459   -9.7860  -10.5353 C   0  0  2  0  0  0  0  0  0  0  0  0
   -2.9571  -13.8514  -11.4456 C   0  0  1  0  0  0  0  0  0  0  0  0
   -2.1353  -14.4450  -10.4591 O   0  0  0  0  0  0  0  0  0  0  0  0
   -9.5726   -7.8746  -13.3764 C   0  0  2  0  0  0  0  0  0  0  0  0
   -8.3174   -8.0416  -12.6942 O   0  0  0  0  0  0  0  0  0  0  0  0
   -7.3888  -10.3921  -10.6940 C   0  0  2  0  0  0  0  0  0  0  0  0
   -6.7640   -9.8535  -11.8660 O   0  0  0  0  0  0  0  0  0  0  0  0
   -4.2662  -14.7042  -11.5511 C   0  0  0  0  0  0  0  0  0  0  0  0
   -5.0874  -14.5468  -10.2824 O   0  0  0  0  0  0  0  0  0  0  0  0
   -9.7072   -8.6689  -14.6964 C   0  0  0  0  0  0  0  0  0  0  0  0
   -8.9775   -9.9242  -14.5854 N   0  0  0  0  0  0  0  0  0  0  0  0
   -7.4756  -11.9544  -10.8399 C   0  0  1  0  0  0  0  0  0  0  0  0
   -6.1667  -12.4545  -10.9727 O   0  0  0  0  0  0  0  0  0  0  0  0
   -2.1859  -14.0462  -12.7616 C   0  0  0  0  0  0  0  0  0  0  0  0
   -1.7944  -10.6073  -12.1150 C   0  0  0  0  0  0  0  0  0  0  0  0
  1  2  1  1  0  0  0
  1  6  1  0  0  0  0
  1 21  1  0  0  0  0
  3  4  1  6  0  0  0
  3  8  1  0  0  0  0
  3 28  1  0  0  0  0
  5  9  1  0  0  0  0
  5 25  1  0  0  0  0
  5 29  1  6  0  0  0
  6  7  1  1  0  0  0
  6 11  1  0  0  0  0
  8 12  1  0  0  0  0
  9 10  1  6  0  0  0
  9 14  1  0  0  0  0
 11 16  1  0  0  0  0
 12 13  1  6  0  0  0
 12 17  1  0  0  0  0
 14 15  1  1  0  0  0
 14 18  1  0  0  0  0
 15 31  1  0  0  0  0
 16 20  1  0  0  0  0
 17  2  1  1  0  0  0
 17 22  1  0  0  0  0
 18 19  1  1  0  0  0
 18 24  1  0  0  0  0
 18 30  1  0  0  0  0
 20 21  1  0  0  0  0
 20 26  1  6  0  0  0
 22 23  1  6  0  0  0
 22 28  1  0  0  0  0
 24 25  1  0  0  0  0
 26 27  1  0  0  0  0
 28 29  1  1  0  0  0
M  END
>  <CHROM.1>
151.62978337,-122.02829244,-136.14187032,178.17956366,-146.94915007,-15.17335657
-6.82906726,-10.70446442,-11.10744555,-2.46780444,-0.33786008,2.61784410

>  <Name>
ligand

>  <RI>
0

>  <Rbt.Current_Directory>
/home/itssahil/PROJECTS/Mol_Feturizer/New_Systems/rnas/4F8U

>  <Rbt.Executable>
rbdock ($Id: //depot/dev/client3/rdock/2013.1/src/exe/rbdock.cxx#4 $)

>  <Rbt.Library>
libRbt.so (2013.1, Build901 2013/11/27)

>  <Rbt.Parameter_File>
/export/apps/rDock/src/rDock_2013.1_src/data/scripts/dock_solv.prm

>  <Rbt.Receptor>
prm/blind_docking_20.prm

>  <SCORE>
9.83407

>  <SCORE.INTER>
-2.93234

>  <SCORE.INTER.CONST>
1

>  <SCORE.INTER.POLAR>
0

>  <SCORE.INTER.ROT>
6

>  <SCORE.INTER.SOLV>
19.0572

>  <SCORE.INTER.VDW>
-15.9073

>  <SCORE.INTER.norm>
-0.0945915

>  <SCORE.INTRA>
3.28371

>  <SCORE.INTRA.DIHEDRAL>
1.32703

>  <SCORE.INTRA.DIHEDRAL.0>
18.77

>  <SCORE.INTRA.POLAR>
0

>  <SCORE.INTRA.POLAR.0>
0

>  <SCORE.INTRA.REPUL>
0

>  <SCORE.INTRA.REPUL.0>
0

>  <SCORE.INTRA.SOLV>
0.421694

>  <SCORE.INTRA.SOLV.lig_0>
-77.2465

>  <SCORE.INTRA.VDW>
2.40935

>  <SCORE.INTRA.VDW.0>
-4.16072

>  <SCORE.INTRA.norm>
0.105926

>  <SCORE.RESTR>
9.4827

>  <SCORE.RESTR.CAVITY>
9.4827

>  <SCORE.RESTR.norm>
0.305894

>  <SCORE.SYSTEM>
0

>  <SCORE.SYSTEM.CONST>
0

>  <SCORE.SYSTEM.DIHEDRAL>
0

>  <SCORE.SYSTEM.SOLV>
0

>  <SCORE.SYSTEM.norm>
0

>  <SCORE.heavy>
31

>  <SCORE.norm>
0.317228

>  <RMSD>
6.999

$$$$
ligand
 OpenBabel11021811493D
libRbt.so/2013.1/901 2013/11/27
 31 33  0  0  0  0  0  0  0  0999 V2000
   -9.8722   -6.2675   -9.7728 C   0  0  2  0  0  0  0  0  0  0  0  0
   -9.7097   -7.6397  -10.1567 O   0  0  0  0  0  0  0  0  0  0  0  0
   -7.1641  -10.2906  -12.3512 C   0  0  2  0  0  0  0  0  0  0  0  0
   -6.0270  -10.7905  -13.0619 N   0  0  0  0  0  0  0  0  0  0  0  0
   -4.9492  -11.1356   -9.5816 C   0  0  2  0  0  0  0  0  0  0  0  0
  -11.2390   -6.1820   -9.0070 C   0  0  2  0  0  0  0  0  0  0  0  0
  -11.2213   -7.0895   -7.8651 N   0  0  0  0  0  0  0  0  0  0  0  0
   -7.7205   -9.0226  -13.1065 C   0  0  0  0  0  0  0  0  0  0  0  0
   -3.9054  -11.0054  -10.7335 C   0  0  2  0  0  0  0  0  0  0  0  0
   -4.0953   -9.7640  -11.3906 O   0  0  0  0  0  0  0  0  0  0  0  0
  -12.4162   -6.5378   -9.9803 C   0  0  0  0  0  0  0  0  0  0  0  0
   -8.9884   -8.4730  -12.3205 C   0  0  2  0  0  0  0  0  0  0  0  0
   -9.5190   -7.2797  -13.0204 N   0  0  0  0  0  0  0  0  0  0  0  0
   -4.1548  -12.2221  -11.7304 C   0  0  1  0  0  0  0  0  0  0  0  0
   -3.2081  -12.1556  -12.8951 N   0  0  0  0  0  0  0  0  0  0  0  0
  -12.2727   -5.7710  -11.3268 C   0  0  0  0  0  0  0  0  0  0  0  0
   -8.5689   -8.0983  -10.8297 C   0  0  2  0  0  0  0  0  0  0  0  0
   -3.9240  -13.6231  -10.9324 C   0  0  1  0  0  0  0  0  0  0  0  0
   -2.6086  -13.7356  -10.4245 O   0  0  0  0  0  0  0  0  0  0  0  0
  -11.0927   -5.2592  -11.7081 C   0  0  2  0  0  0  0  0  0  0  0  0
   -9.8927   -5.3698  -10.9229 O   0  0  0  0  0  0  0  0  0  0  0  0
   -7.9877   -9.3869  -10.1104 C   0  0  2  0  0  0  0  0  0  0  0  0
   -7.5838   -9.0571   -8.7755 O   0  0  0  0  0  0  0  0  0  0  0  0
   -4.9111  -13.6952   -9.7189 C   0  0  0  0  0  0  0  0  0  0  0  0
   -4.7675  -12.4479   -8.8631 O   0  0  0  0  0  0  0  0  0  0  0  0
  -10.9306   -4.4918  -13.0410 C   0  0  0  0  0  0  0  0  0  0  0  0
   -9.8041   -5.0394  -13.7837 N   0  0  0  0  0  0  0  0  0  0  0  0
   -6.7375   -9.9186  -10.9003 C   0  0  1  0  0  0  0  0  0  0  0  0
   -6.2548  -11.0619  -10.2364 O   0  0  0  0  0  0  0  0  0  0  0  0
   -4.1318  -14.9035  -11.7582 C   0  0  0  0  0  0  0  0  0  0  0  0
   -1.7705  -12.1045  -12.5681 C   0  0  0  0  0  0  0  0  0  0  0  0
  1  2  1  6  0  0  0
  1  6  1  0  0  0  0
  1 21  1  0  0  0  0
  3  4  1  6  0  0  0
  3  8  1  0  0  0  0
  3 28  1  0  0  0  0
  5  9  1  0  0  0  0
  5 25  1  0  0  0  0
  5 29  1  6  0  0  0
  6  7  1  1  0  0  0
  6 11  1  0  0  0  0
  8 12  1  0  0  0  0
  9 10  1  6  0  0  0
  9 14  1  0  0  0  0
 11 16  1  0  0  0  0
 12 13  1  6  0  0  0
 12 17  1  0  0  0  0
 14 15  1  6  0  0  0
 14 18  1  0  0  0  0
 15 31  1  0  0  0  0
 16 20  1  0  0  0  0
 17  2  1  1  0  0  0
 17 22  1  0  0  0  0
 18 19  1  1  0  0  0
 18 24  1  0  0  0  0
 18 30  1  0  0  0  0
 20 21  1  0  0  0  0
 20 26  1  1  0  0  0
 22 23  1  1  0  0  0
 22 28  1  0  0  0  0
 24 25  1  0  0  0  0
 26 27  1  0  0  0  0
 28 29  1  1  0  0  0
M  END
>  <CHROM.1>
-177.93685021,-65.40625133,55.55013947,-110.33097392,-129.16306695,126.13397337
-7.29361530,-9.37564619,-11.04188640,2.84814233,0.71146893,-1.12481134

>  <Name>
ligand

>  <RI>
0

>  <Rbt.Current_Directory>
/home/itssahil/PROJECTS/Mol_Feturizer/New_Systems/rnas/4F8U

>  <Rbt.Executable>
rbdock ($Id: //depot/dev/client3/rdock/2013.1/src/exe/rbdock.cxx#4 $)

>  <Rbt.Library>
libRbt.so (2013.1, Build901 2013/11/27)

>  <Rbt.Parameter_File>
/export/apps/rDock/src/rDock_2013.1_src/data/scripts/dock_solv.prm

>  <Rbt.Receptor>
prm/blind_docking_20.prm

>  <SCORE>
19.6765

>  <SCORE.INTER>
2.58155

>  <SCORE.INTER.CONST>
1

>  <SCORE.INTER.POLAR>
0

>  <SCORE.INTER.ROT>
6

>  <SCORE.INTER.SOLV>
21.0443

>  <SCORE.INTER.VDW>
-12.8937

>  <SCORE.INTER.norm>
0.0832757

>  <SCORE.INTRA>
6.97558

>  <SCORE.INTRA.DIHEDRAL>
-3.03712

>  <SCORE.INTRA.DIHEDRAL.0>
18.77

>  <SCORE.INTRA.POLAR>
0

>  <SCORE.INTRA.POLAR.0>
0

>  <SCORE.INTRA.REPUL>
0

>  <SCORE.INTRA.REPUL.0>
0

>  <SCORE.INTRA.SOLV>
8.80049

>  <SCORE.INTRA.SOLV.lig_0>
-77.2465

>  <SCORE.INTRA.VDW>
4.09389

>  <SCORE.INTRA.VDW.0>
-4.16072

>  <SCORE.INTRA.norm>
0.225019

>  <SCORE.RESTR>
10.1194

>  <SCORE.RESTR.CAVITY>
10.1194

>  <SCORE.RESTR.norm>
0.326431

>  <SCORE.SYSTEM>
0

>  <SCORE.SYSTEM.CONST>
0

>  <SCORE.SYSTEM.DIHEDRAL>
0

>  <SCORE.SYSTEM.SOLV>
0

>  <SCORE.SYSTEM.norm>
0

>  <SCORE.heavy>
31

>  <SCORE.norm>
0.634726

>  <RMSD>
7.042

$$$$
ligand
 OpenBabel11021811493D
libRbt.so/2013.1/901 2013/11/27
 31 33  0  0  0  0  0  0  0  0999 V2000
   -5.1377   -5.5357  -21.3475 C   0  0  2  0  0  0  0  0  0  0  0  0
   -6.2448   -6.2702  -21.8874 O   0  0  0  0  0  0  0  0  0  0  0  0
   -7.8548  -10.1889  -21.2747 C   0  0  2  0  0  0  0  0  0  0  0  0
   -7.9599  -11.6158  -21.2443 N   0  0  0  0  0  0  0  0  0  0  0  0
   -6.7971  -11.5337  -18.5719 C   0  0  2  0  0  0  0  0  0  0  0  0
   -5.5321   -4.0192  -21.4289 C   0  0  2  0  0  0  0  0  0  0  0  0
   -6.7719   -3.7927  -20.6946 N   0  0  0  0  0  0  0  0  0  0  0  0
   -7.6059   -9.7275  -22.7624 C   0  0  0  0  0  0  0  0  0  0  0  0
   -7.3958  -11.5363  -17.1315 C   0  0  2  0  0  0  0  0  0  0  0  0
   -8.7486  -11.1181  -17.1930 O   0  0  0  0  0  0  0  0  0  0  0  0
   -5.6899   -3.5913  -22.9295 C   0  0  0  0  0  0  0  0  0  0  0  0
   -7.4973   -8.1418  -22.7959 C   0  0  2  0  0  0  0  0  0  0  0  0
   -7.2616   -7.6965  -24.1893 N   0  0  0  0  0  0  0  0  0  0  0  0
   -6.5256  -10.5253  -16.2614 C   0  0  1  0  0  0  0  0  0  0  0  0
   -7.0569  -10.4403  -14.8587 N   0  0  0  0  0  0  0  0  0  0  0  0
   -4.4837   -4.0892  -23.7773 C   0  0  0  0  0  0  0  0  0  0  0  0
   -6.3007   -7.6704  -21.8552 C   0  0  2  0  0  0  0  0  0  0  0  0
   -4.9833  -11.0472  -16.2188 C   0  0  1  0  0  0  0  0  0  0  0  0
   -4.8724  -12.3323  -15.6382 O   0  0  0  0  0  0  0  0  0  0  0  0
   -3.7016   -5.0899  -23.3452 C   0  0  2  0  0  0  0  0  0  0  0  0
   -3.9044   -5.7666  -22.0923 O   0  0  0  0  0  0  0  0  0  0  0  0
   -6.5685   -8.1755  -20.3757 C   0  0  2  0  0  0  0  0  0  0  0  0
   -5.4864   -7.7786  -19.5240 O   0  0  0  0  0  0  0  0  0  0  0  0
   -4.4270  -11.1350  -17.6800 C   0  0  0  0  0  0  0  0  0  0  0  0
   -5.3574  -11.9780  -18.5358 O   0  0  0  0  0  0  0  0  0  0  0  0
   -2.4969   -5.5969  -24.1718 C   0  0  0  0  0  0  0  0  0  0  0  0
   -2.8368   -6.8665  -24.7987 N   0  0  0  0  0  0  0  0  0  0  0  0
   -6.6755   -9.7433  -20.3602 C   0  0  1  0  0  0  0  0  0  0  0  0
   -6.9178  -10.1519  -19.0353 O   0  0  0  0  0  0  0  0  0  0  0  0
   -4.0049  -10.1733  -15.4166 C   0  0  0  0  0  0  0  0  0  0  0  0
   -8.1244   -9.4501  -14.6218 C   0  0  0  0  0  0  0  0  0  0  0  0
  1  2  1  6  0  0  0
  1  6  1  0  0  0  0
  1 21  1  0  0  0  0
  3  4  1  6  0  0  0
  3  8  1  0  0  0  0
  3 28  1  0  0  0  0
  5  9  1  0  0  0  0
  5 25  1  0  0  0  0
  5 29  1  1  0  0  0
  6  7  1  1  0  0  0
  6 11  1  0  0  0  0
  8 12  1  0  0  0  0
  9 10  1  6  0  0  0
  9 14  1  0  0  0  0
 11 16  1  0  0  0  0
 12 13  1  6  0  0  0
 12 17  1  0  0  0  0
 14 15  1  1  0  0  0
 14 18  1  0  0  0  0
 15 31  1  0  0  0  0
 16 20  1  0  0  0  0
 17  2  1  1  0  0  0
 17 22  1  0  0  0  0
 18 19  1  1  0  0  0
 18 24  1  0  0  0  0
 18 30  1  0  0  0  0
 20 21  1  0  0  0  0
 20 26  1  1  0  0  0
 22 23  1  1  0  0  0
 22 28  1  0  0  0  0
 24 25  1  0  0  0  0
 26 27  1  0  0  0  0
 28 29  1  1  0  0  0
M  END
>  <CHROM.1>
-173.61583172,-170.36756706,-87.39164193,-168.39291600,-104.42534193,74.29722926
-5.96864586,-8.50092272,-20.02049294,-1.25095217,0.98282449,2.01976861

>  <Name>
ligand

>  <RI>
0

>  <Rbt.Current_Directory>
/home/itssahil/PROJECTS/Mol_Feturizer/New_Systems/rnas/4F8U

>  <Rbt.Executable>
rbdock ($Id: //depot/dev/client3/rdock/2013.1/src/exe/rbdock.cxx#4 $)

>  <Rbt.Library>
libRbt.so (2013.1, Build901 2013/11/27)

>  <Rbt.Parameter_File>
/export/apps/rDock/src/rDock_2013.1_src/data/scripts/dock_solv.prm

>  <Rbt.Receptor>
prm/pocket_docking_8.prm

>  <SCORE>
-14.5998

>  <SCORE.INTER>
-7.49023

>  <SCORE.INTER.CONST>
1

>  <SCORE.INTER.POLAR>
0

>  <SCORE.INTER.ROT>
6

>  <SCORE.INTER.SOLV>
17.2877

>  <SCORE.INTER.VDW>
-18.3561

>  <SCORE.INTER.norm>
-0.24162

>  <SCORE.INTRA>
-7.10959

>  <SCORE.INTRA.DIHEDRAL>
-14.0125

>  <SCORE.INTRA.DIHEDRAL.0>
18.77

>  <SCORE.INTRA.POLAR>
0

>  <SCORE.INTRA.POLAR.0>
0

>  <SCORE.INTRA.REPUL>
0

>  <SCORE.INTRA.REPUL.0>
0

>  <SCORE.INTRA.SOLV>
-1.83796

>  <SCORE.INTRA.SOLV.lig_0>
-77.2465

>  <SCORE.INTRA.VDW>
0.815665

>  <SCORE.INTRA.VDW.0>
-4.16072

>  <SCORE.INTRA.norm>
-0.229341

>  <SCORE.RESTR>
0

>  <SCORE.RESTR.CAVITY>
0

>  <SCORE.RESTR.norm>
0

>  <SCORE.SYSTEM>
0

>  <SCORE.SYSTEM.CONST>
0

>  <SCORE.SYSTEM.DIHEDRAL>
0

>  <SCORE.SYSTEM.SOLV>
0

>  <SCORE.SYSTEM.norm>
0

>  <SCORE.heavy>
31

>  <SCORE.norm>
-0.470962

>  <RMSD>
7.053

$$$$
ligand
 OpenBabel11021811493D
libRbt.so/2013.1/901 2013/11/27
 31 33  0  0  0  0  0  0  0  0999 V2000
   -6.2298  -10.0497  -17.8490 C   0  0  2  0  0  0  0  0  0  0  0  0
   -7.2895   -9.4723  -17.0742 O   0  0  0  0  0  0  0  0  0  0  0  0
  -10.2498  -10.5724  -14.1846 C   0  0  2  0  0  0  0  0  0  0  0  0
  -10.8876  -11.2439  -13.0936 N   0  0  0  0  0  0  0  0  0  0  0  0
   -8.4127   -7.8534  -12.2189 C   0  0  2  0  0  0  0  0  0  0  0  0
   -5.5863   -8.8729  -18.6633 C   0  0  2  0  0  0  0  0  0  0  0  0
   -5.1174   -7.8389  -17.7474 N   0  0  0  0  0  0  0  0  0  0  0  0
   -9.8821  -11.6339  -15.2919 C   0  0  0  0  0  0  0  0  0  0  0  0
   -9.0863   -7.2814  -10.9335 C   0  0  2  0  0  0  0  0  0  0  0  0
   -9.2203   -8.3219   -9.9804 O   0  0  0  0  0  0  0  0  0  0  0  0
   -6.6365   -8.2873  -19.6703 C   0  0  0  0  0  0  0  0  0  0  0  0
   -9.1809  -10.8856  -16.5067 C   0  0  2  0  0  0  0  0  0  0  0  0
   -8.8292  -11.8737  -17.5531 N   0  0  0  0  0  0  0  0  0  0  0  0
  -10.5113   -6.7159  -11.3642 C   0  0  1  0  0  0  0  0  0  0  0  0
  -11.2478   -6.1719  -10.1730 N   0  0  0  0  0  0  0  0  0  0  0  0
   -7.3480   -9.4278  -20.4542 C   0  0  0  0  0  0  0  0  0  0  0  0
   -7.8717  -10.1401  -15.9880 C   0  0  2  0  0  0  0  0  0  0  0  0
  -10.3062   -5.5248  -12.4561 C   0  0  1  0  0  0  0  0  0  0  0  0
   -9.5477   -4.4504  -11.9353 O   0  0  0  0  0  0  0  0  0  0  0  0
   -7.3515  -10.6868  -19.9909 C   0  0  2  0  0  0  0  0  0  0  0  0
   -6.7110  -11.0792  -18.7643 O   0  0  0  0  0  0  0  0  0  0  0  0
   -8.2736   -9.1032  -14.8571 C   0  0  2  0  0  0  0  0  0  0  0  0
   -7.1007   -8.4430  -14.3647 O   0  0  0  0  0  0  0  0  0  0  0  0
   -9.5401   -6.0901  -13.6994 C   0  0  0  0  0  0  0  0  0  0  0  0
   -8.2553   -6.7653  -13.2498 O   0  0  0  0  0  0  0  0  0  0  0  0
   -8.0506  -11.8343  -20.7566 C   0  0  0  0  0  0  0  0  0  0  0  0
   -7.1074  -12.9232  -20.9688 N   0  0  0  0  0  0  0  0  0  0  0  0
   -8.9670   -9.8579  -13.6657 C   0  0  1  0  0  0  0  0  0  0  0  0
   -9.3126   -8.9066  -12.6877 O   0  0  0  0  0  0  0  0  0  0  0  0
  -11.5953   -4.8712  -12.9809 C   0  0  0  0  0  0  0  0  0  0  0  0
  -10.4845   -5.2745   -9.2851 C   0  0  0  0  0  0  0  0  0  0  0  0
  1  2  1  6  0  0  0
  1  6  1  0  0  0  0
  1 21  1  0  0  0  0
  3  4  1  1  0  0  0
  3  8  1  0  0  0  0
  3 28  1  0  0  0  0
  5  9  1  0  0  0  0
  5 25  1  0  0  0  0
  5 29  1  6  0  0  0
  6  7  1  1  0  0  0
  6 11  1  0  0  0  0
  8 12  1  0  0  0  0
  9 10  1  1  0  0  0
  9 14  1  0  0  0  0
 11 16  1  0  0  0  0
 12 13  1  6  0  0  0
 12 17  1  0  0  0  0
 14 15  1  1  0  0  0
 14 18  1  0  0  0  0
 15 31  1  0  0  0  0
 16 20  1  0  0  0  0
 17  2  1  6  0  0  0
 17 22  1  0  0  0  0
 18 19  1  1  0  0  0
 18 24  1  0  0  0  0
 18 30  1  0  0  0  0
 20 21  1  0  0  0  0
 20 26  1  6  0  0  0
 22 23  1  1  0  0  0
 22 28  1  0  0  0  0
 24 25  1  0  0  0  0
 26 27  1  0  0  0  0
 28 29  1  1  0  0  0
M  END
>  <CHROM.1>
-163.88527835,-166.98401967,47.51878069,-95.45923132,126.25447326,-165.23035459
-8.58442347,-8.75573552,-15.06885510,-0.95860610,1.00497428,0.54928467

>  <Name>
ligand

>  <RI>
0

>  <Rbt.Current_Directory>
/home/itssahil/PROJECTS/Mol_Feturizer/New_Systems/rnas/4F8U

>  <Rbt.Executable>
rbdock ($Id: //depot/dev/client3/rdock/2013.1/src/exe/rbdock.cxx#4 $)

>  <Rbt.Library>
libRbt.so (2013.1, Build901 2013/11/27)

>  <Rbt.Parameter_File>
/export/apps/rDock/src/rDock_2013.1_src/data/scripts/dock_solv.prm

>  <Rbt.Receptor>
prm/blind_docking_80.prm

>  <SCORE>
18.7526

>  <SCORE.INTER>
2.5629

>  <SCORE.INTER.CONST>
1

>  <SCORE.INTER.POLAR>
0

>  <SCORE.INTER.ROT>
6

>  <SCORE.INTER.SOLV>
24.4535

>  <SCORE.INTER.VDW>
-14.0426

>  <SCORE.INTER.norm>
0.0826743

>  <SCORE.INTRA>
2.11666

>  <SCORE.INTRA.DIHEDRAL>
-9.263

>  <SCORE.INTRA.DIHEDRAL.0>
18.77

>  <SCORE.INTRA.POLAR>
0

>  <SCORE.INTRA.POLAR.0>
0

>  <SCORE.INTRA.REPUL>
0

>  <SCORE.INTRA.REPUL.0>
0

>  <SCORE.INTRA.SOLV>
1.59568

>  <SCORE.INTRA.SOLV.lig_0>
-77.2465

>  <SCORE.INTRA.VDW>
5.95032

>  <SCORE.INTRA.VDW.0>
-4.16072

>  <SCORE.INTRA.norm>
0.0682794

>  <SCORE.RESTR>
14.0731

>  <SCORE.RESTR.CAVITY>
14.0731

>  <SCORE.RESTR.norm>
0.45397

>  <SCORE.SYSTEM>
0

>  <SCORE.SYSTEM.CONST>
0

>  <SCORE.SYSTEM.DIHEDRAL>
0

>  <SCORE.SYSTEM.SOLV>
0

>  <SCORE.SYSTEM.norm>
0

>  <SCORE.heavy>
31

>  <SCORE.norm>
0.604924

>  <RMSD>
7.072

$$$$
ligand
 OpenBabel11021811493D
libRbt.so/2013.1/901 2013/11/27
 31 33  0  0  0  0  0  0  0  0999 V2000
   -6.0210   -7.4226  -19.2823 C   0  0  2  0  0  0  0  0  0  0  0  0
   -6.9336   -8.4104  -19.7804 O   0  0  0  0  0  0  0  0  0  0  0  0
   -7.3483  -11.0687  -16.4509 C   0  0  2  0  0  0  0  0  0  0  0  0
   -7.8966  -12.0552  -15.5710 N   0  0  0  0  0  0  0  0  0  0  0  0
   -6.5585  -14.1604  -18.0914 C   0  0  2  0  0  0  0  0  0  0  0  0
   -5.1269   -6.9942  -20.4984 C   0  0  2  0  0  0  0  0  0  0  0  0
   -5.9706   -6.4908  -21.5767 N   0  0  0  0  0  0  0  0  0  0  0  0
   -8.3508   -9.8544  -16.5435 C   0  0  0  0  0  0  0  0  0  0  0  0
   -5.3196  -14.7079  -18.8650 C   0  0  2  0  0  0  0  0  0  0  0  0
   -4.1800  -14.6301  -18.0259 O   0  0  0  0  0  0  0  0  0  0  0  0
   -4.2730   -8.2160  -20.9862 C   0  0  0  0  0  0  0  0  0  0  0  0
   -7.7370   -8.7558  -17.5150 C   0  0  2  0  0  0  0  0  0  0  0  0
   -8.6715   -7.6101  -17.6111 N   0  0  0  0  0  0  0  0  0  0  0  0
   -5.1372  -13.7987  -20.1597 C   0  0  1  0  0  0  0  0  0  0  0  0
   -3.9382  -14.2380  -20.9513 N   0  0  0  0  0  0  0  0  0  0  0  0
   -3.5933   -8.9322  -19.7835 C   0  0  0  0  0  0  0  0  0  0  0  0
   -7.4952   -9.3941  -18.9547 C   0  0  2  0  0  0  0  0  0  0  0  0
   -6.4677  -13.9216  -21.0912 C   0  0  1  0  0  0  0  0  0  0  0  0
   -6.6974  -15.2506  -21.5179 O   0  0  0  0  0  0  0  0  0  0  0  0
   -4.0522   -8.7698  -18.5334 C   0  0  2  0  0  0  0  0  0  0  0  0
   -5.1797   -7.9384  -18.2074 O   0  0  0  0  0  0  0  0  0  0  0  0
   -6.5077  -10.6280  -18.8206 C   0  0  2  0  0  0  0  0  0  0  0  0
   -6.3011  -11.2265  -20.1064 O   0  0  0  0  0  0  0  0  0  0  0  0
   -7.7186  -13.4626  -20.2684 C   0  0  0  0  0  0  0  0  0  0  0  0
   -7.7871  -14.2342  -18.9613 O   0  0  0  0  0  0  0  0  0  0  0  0
   -3.3888   -9.4708  -17.3250 C   0  0  0  0  0  0  0  0  0  0  0  0
   -4.4198   -9.9756  -16.4291 N   0  0  0  0  0  0  0  0  0  0  0  0
   -7.1275  -11.7028  -17.8561 C   0  0  1  0  0  0  0  0  0  0  0  0
   -6.2225  -12.7764  -17.7587 O   0  0  0  0  0  0  0  0  0  0  0  0
   -6.4537  -13.0948  -22.3875 C   0  0  0  0  0  0  0  0  0  0  0  0
   -2.6212  -13.8353  -20.4225 C   0  0  0  0  0  0  0  0  0  0  0  0
  1  2  1  6  0  0  0
  1  6  1  0  0  0  0
  1 21  1  0  0  0  0
  3  4  1  1  0  0  0
  3  8  1  0  0  0  0
  3 28  1  0  0  0  0
  5  9  1  0  0  0  0
  5 25  1  0  0  0  0
  5 29  1  6  0  0  0
  6  7  1  6  0  0  0
  6 11  1  0  0  0  0
  8 12  1  0  0  0  0
  9 10  1  1  0  0  0
  9 14  1  0  0  0  0
 11 16  1  0  0  0  0
 12 13  1  6  0  0  0
 12 17  1  0  0  0  0
 14 15  1  6  0  0  0
 14 18  1  0  0  0  0
 15 31  1  0  0  0  0
 16 20  1  0  0  0  0
 17  2  1  6  0  0  0
 17 22  1  0  0  0  0
 18 19  1  6  0  0  0
 18 24  1  0  0  0  0
 18 30  1  0  0  0  0
 20 21  1  0  0  0  0
 20 26  1  1  0  0  0
 22 23  1  6  0  0  0
 22 28  1  0  0  0  0
 24 25  1  0  0  0  0
 26 27  1  0  0  0  0
 28 29  1  1  0  0  0
M  END
>  <CHROM.1>
153.50590051,138.28180861,-76.90540035,34.80917091,-138.23013544,118.17992909
-5.97518451,-11.10506052,-19.05959229,-1.63048594,-0.90928079,-3.04074641

>  <Name>
ligand

>  <RI>
0

>  <Rbt.Current_Directory>
/home/itssahil/PROJECTS/Mol_Feturizer/New_Systems/rnas/4F8U

>  <Rbt.Executable>
rbdock ($Id: //depot/dev/client3/rdock/2013.1/src/exe/rbdock.cxx#4 $)

>  <Rbt.Library>
libRbt.so (2013.1, Build901 2013/11/27)

>  <Rbt.Parameter_File>
/export/apps/rDock/src/rDock_2013.1_src/data/scripts/dock_solv.prm

>  <Rbt.Receptor>
prm/blind_docking_60.prm

>  <SCORE>
66.9518

>  <SCORE.INTER>
33.6423

>  <SCORE.INTER.CONST>
1

>  <SCORE.INTER.POLAR>
0

>  <SCORE.INTER.ROT>
6

>  <SCORE.INTER.SOLV>
24.9714

>  <SCORE.INTER.VDW>
6.50439

>  <SCORE.INTER.norm>
1.08524

>  <SCORE.INTRA>
5.7203

>  <SCORE.INTRA.DIHEDRAL>
2.03662

>  <SCORE.INTRA.DIHEDRAL.0>
18.77

>  <SCORE.INTRA.POLAR>
0

>  <SCORE.INTRA.POLAR.0>
0

>  <SCORE.INTRA.REPUL>
0

>  <SCORE.INTRA.REPUL.0>
0

>  <SCORE.INTRA.SOLV>
4.57258

>  <SCORE.INTRA.SOLV.lig_0>
-77.2465

>  <SCORE.INTRA.VDW>
2.4157

>  <SCORE.INTRA.VDW.0>
-4.16072

>  <SCORE.INTRA.norm>
0.184526

>  <SCORE.RESTR>
27.5892

>  <SCORE.RESTR.CAVITY>
27.5892

>  <SCORE.RESTR.norm>
0.889974

>  <SCORE.SYSTEM>
0

>  <SCORE.SYSTEM.CONST>
0

>  <SCORE.SYSTEM.DIHEDRAL>
0

>  <SCORE.SYSTEM.SOLV>
0

>  <SCORE.SYSTEM.norm>
0

>  <SCORE.heavy>
31

>  <SCORE.norm>
2.15974

>  <RMSD>
7.076

$$$$
ligand
 OpenBabel11021811493D
libRbt.so/2013.1/901 2013/11/27
 31 33  0  0  0  0  0  0  0  0999 V2000
   -8.0543   -9.6158  -23.5770 C   0  0  2  0  0  0  0  0  0  0  0  0
   -7.0748   -9.5628  -22.5309 O   0  0  0  0  0  0  0  0  0  0  0  0
   -6.6921  -10.0671  -18.2974 C   0  0  2  0  0  0  0  0  0  0  0  0
   -7.0068  -10.0472  -16.9015 N   0  0  0  0  0  0  0  0  0  0  0  0
   -8.5558  -13.3602  -18.9429 C   0  0  2  0  0  0  0  0  0  0  0  0
   -7.2828  -10.0114  -24.8848 C   0  0  2  0  0  0  0  0  0  0  0  0
   -6.5986  -11.2843  -24.6870 N   0  0  0  0  0  0  0  0  0  0  0  0
   -6.7482   -8.5922  -18.8537 C   0  0  0  0  0  0  0  0  0  0  0  0
   -8.5665  -14.3560  -17.7422 C   0  0  2  0  0  0  0  0  0  0  0  0
   -9.0313  -13.6804  -16.5862 O   0  0  0  0  0  0  0  0  0  0  0  0
   -6.2593   -8.8836  -25.2593 C   0  0  0  0  0  0  0  0  0  0  0  0
   -6.3908   -8.6145  -20.4026 C   0  0  2  0  0  0  0  0  0  0  0  0
   -6.4420   -7.2336  -20.9370 N   0  0  0  0  0  0  0  0  0  0  0  0
   -7.0705  -14.8642  -17.5426 C   0  0  1  0  0  0  0  0  0  0  0  0
   -6.9826  -15.8086  -16.3775 N   0  0  0  0  0  0  0  0  0  0  0  0
   -6.9305   -7.4814  -25.1910 C   0  0  0  0  0  0  0  0  0  0  0  0
   -7.4288   -9.5448  -21.1748 C   0  0  2  0  0  0  0  0  0  0  0  0
   -6.5824  -15.6333  -18.8929 C   0  0  1  0  0  0  0  0  0  0  0  0
   -7.3909  -16.7561  -19.1873 O   0  0  0  0  0  0  0  0  0  0  0  0
   -8.0593   -7.2889  -24.4921 C   0  0  2  0  0  0  0  0  0  0  0  0
   -8.7291   -8.3363  -23.7688 O   0  0  0  0  0  0  0  0  0  0  0  0
   -7.3670  -11.0103  -20.5714 C   0  0  2  0  0  0  0  0  0  0  0  0
   -8.3142  -11.8515  -21.2416 O   0  0  0  0  0  0  0  0  0  0  0  0
   -6.6717  -14.6501  -20.1084 C   0  0  0  0  0  0  0  0  0  0  0  0
   -8.0674  -14.0547  -20.1881 O   0  0  0  0  0  0  0  0  0  0  0  0
   -8.7428   -5.9038  -24.4145 C   0  0  0  0  0  0  0  0  0  0  0  0
  -10.0672   -5.9804  -25.0150 N   0  0  0  0  0  0  0  0  0  0  0  0
   -7.7202  -10.9705  -19.0406 C   0  0  1  0  0  0  0  0  0  0  0  0
   -7.6498  -12.2846  -18.5414 O   0  0  0  0  0  0  0  0  0  0  0  0
   -5.1474  -16.1851  -18.8649 C   0  0  0  0  0  0  0  0  0  0  0  0
   -6.7441  -15.1977  -15.0561 C   0  0  0  0  0  0  0  0  0  0  0  0
  1  2  1  1  0  0  0
  1  6  1  0  0  0  0
  1 21  1  0  0  0  0
  3  4  1  1  0  0  0
  3  8  1  0  0  0  0
  3 28  1  0  0  0  0
  5  9  1  0  0  0  0
  5 25  1  0  0  0  0
  5 29  1  1  0  0  0
  6  7  1  1  0  0  0
  6 11  1  0  0  0  0
  8 12  1  0  0  0  0
  9 10  1  1  0  0  0
  9 14  1  0  0  0  0
 11 16  1  0  0  0  0
 12 13  1  6  0  0  0
 12 17  1  0  0  0  0
 14 15  1  1  0  0  0
 14 18  1  0  0  0  0
 15 31  1  0  0  0  0
 16 20  1  0  0  0  0
 17  2  1  6  0  0  0
 17 22  1  0  0  0  0
 18 19  1  6  0  0  0
 18 24  1  0  0  0  0
 18 30  1  0  0  0  0
 20 21  1  0  0  0  0
 20 26  1  6  0  0  0
 22 23  1  6  0  0  0
 22 28  1  0  0  0  0
 24 25  1  0  0  0  0
 26 27  1  0  0  0  0
 28 29  1  1  0  0  0
M  END
>  <CHROM.1>
-164.93771959,-154.42668058,-88.31708834,-144.42766648,117.24907849,174.73115658
-7.44412447,-11.30651545,-20.60270761,-2.32000989,-1.47698761,1.65463712

>  <Name>
ligand

>  <RI>
0

>  <Rbt.Current_Directory>
/home/itssahil/PROJECTS/Mol_Feturizer/New_Systems/rnas/4F8U

>  <Rbt.Executable>
rbdock ($Id: //depot/dev/client3/rdock/2013.1/src/exe/rbdock.cxx#4 $)

>  <Rbt.Library>
libRbt.so (2013.1, Build901 2013/11/27)

>  <Rbt.Parameter_File>
/export/apps/rDock/src/rDock_2013.1_src/data/scripts/dock_solv.prm

>  <Rbt.Receptor>
prm/pocket_docking_6.prm

>  <SCORE>
-11.6845

>  <SCORE.INTER>
-8.63783

>  <SCORE.INTER.CONST>
1

>  <SCORE.INTER.POLAR>
0

>  <SCORE.INTER.ROT>
6

>  <SCORE.INTER.SOLV>
16.0892

>  <SCORE.INTER.VDW>
-18.7216

>  <SCORE.INTER.norm>
-0.27864

>  <SCORE.INTRA>
-3.0467

>  <SCORE.INTRA.DIHEDRAL>
-7.92303

>  <SCORE.INTRA.DIHEDRAL.0>
18.77

>  <SCORE.INTRA.POLAR>
0

>  <SCORE.INTRA.POLAR.0>
0

>  <SCORE.INTRA.REPUL>
0

>  <SCORE.INTRA.REPUL.0>
0

>  <SCORE.INTRA.SOLV>
-1.19911

>  <SCORE.INTRA.SOLV.lig_0>
-77.2465

>  <SCORE.INTRA.VDW>
1.51437

>  <SCORE.INTRA.VDW.0>
-4.16072

>  <SCORE.INTRA.norm>
-0.0982806

>  <SCORE.RESTR>
0

>  <SCORE.RESTR.CAVITY>
0

>  <SCORE.RESTR.norm>
0

>  <SCORE.SYSTEM>
0

>  <SCORE.SYSTEM.CONST>
0

>  <SCORE.SYSTEM.DIHEDRAL>
0

>  <SCORE.SYSTEM.SOLV>
0

>  <SCORE.SYSTEM.norm>
0

>  <SCORE.heavy>
31

>  <SCORE.norm>
-0.37692

>  <RMSD>
7.100

$$$$
ligand
 OpenBabel11021811493D
libRbt.so/2013.1/901 2013/11/27
 31 33  0  0  0  0  0  0  0  0999 V2000
   -8.3848   -7.0500  -11.0895 C   0  0  2  0  0  0  0  0  0  0  0  0
   -9.0528   -7.9305  -10.1757 O   0  0  0  0  0  0  0  0  0  0  0  0
   -8.4577  -12.0369   -9.1235 C   0  0  2  0  0  0  0  0  0  0  0  0
   -8.4236  -13.4643   -9.2208 N   0  0  0  0  0  0  0  0  0  0  0  0
   -5.8405  -13.2365   -9.6382 C   0  0  2  0  0  0  0  0  0  0  0  0
   -9.2101   -5.7156  -11.1001 C   0  0  2  0  0  0  0  0  0  0  0  0
   -9.2874   -5.1735   -9.7481 N   0  0  0  0  0  0  0  0  0  0  0  0
   -9.9418  -11.5466   -9.3365 C   0  0  0  0  0  0  0  0  0  0  0  0
   -4.2821  -13.2476   -9.5704 C   0  0  2  0  0  0  0  0  0  0  0  0
   -3.8560  -12.3178   -8.5893 O   0  0  0  0  0  0  0  0  0  0  0  0
  -10.6452   -5.9834  -11.6734 C   0  0  0  0  0  0  0  0  0  0  0  0
   -9.9797   -9.9616   -9.2204 C   0  0  2  0  0  0  0  0  0  0  0  0
  -11.3696   -9.4890   -9.4205 N   0  0  0  0  0  0  0  0  0  0  0  0
   -3.7482  -12.8382  -11.0139 C   0  0  1  0  0  0  0  0  0  0  0  0
   -2.2466  -12.7910  -11.0298 N   0  0  0  0  0  0  0  0  0  0  0  0
  -10.5712   -6.8186  -12.9842 C   0  0  0  0  0  0  0  0  0  0  0  0
   -9.0159   -9.3245  -10.3177 C   0  0  2  0  0  0  0  0  0  0  0  0
   -4.2608  -13.9340  -12.1043 C   0  0  1  0  0  0  0  0  0  0  0  0
   -3.7866  -15.2348  -11.8146 O   0  0  0  0  0  0  0  0  0  0  0  0
   -9.4811   -7.5414  -13.2823 C   0  0  2  0  0  0  0  0  0  0  0  0
   -8.3173   -7.6005  -12.4391 O   0  0  0  0  0  0  0  0  0  0  0  0
   -7.5403   -9.8607  -10.0925 C   0  0  2  0  0  0  0  0  0  0  0  0
   -6.6676   -9.3137  -11.0890 O   0  0  0  0  0  0  0  0  0  0  0  0
   -5.8259  -13.9836  -12.0905 C   0  0  0  0  0  0  0  0  0  0  0  0
   -6.3215  -14.2203  -10.6737 O   0  0  0  0  0  0  0  0  0  0  0  0
   -9.3874   -8.3756  -14.5812 C   0  0  0  0  0  0  0  0  0  0  0  0
   -8.0279   -8.8712  -14.7441 N   0  0  0  0  0  0  0  0  0  0  0  0
   -7.5205  -11.4279  -10.2080 C   0  0  1  0  0  0  0  0  0  0  0  0
   -6.1993  -11.8650   -9.9976 O   0  0  0  0  0  0  0  0  0  0  0  0
   -3.8315  -13.6795  -13.5588 C   0  0  0  0  0  0  0  0  0  0  0  0
   -1.5497  -14.0867  -10.9207 C   0  0  0  0  0  0  0  0  0  0  0  0
  1  2  1  1  0  0  0
  1  6  1  0  0  0  0
  1 21  1  0  0  0  0
  3  4  1  6  0  0  0
  3  8  1  0  0  0  0
  3 28  1  0  0  0  0
  5  9  1  0  0  0  0
  5 25  1  0  0  0  0
  5 29  1  6  0  0  0
  6  7  1  1  0  0  0
  6 11  1  0  0  0  0
  8 12  1  0  0  0  0
  9 10  1  1  0  0  0
  9 14  1  0  0  0  0
 11 16  1  0  0  0  0
 12 13  1  6  0  0  0
 12 17  1  0  0  0  0
 14 15  1  1  0  0  0
 14 18  1  0  0  0  0
 15 31  1  0  0  0  0
 16 20  1  0  0  0  0
 17  2  1  1  0  0  0
 17 22  1  0  0  0  0
 18 19  1  1  0  0  0
 18 24  1  0  0  0  0
 18 30  1  0  0  0  0
 20 21  1  0  0  0  0
 20 26  1  6  0  0  0
 22 23  1  6  0  0  0
 22 28  1  0  0  0  0
 24 25  1  0  0  0  0
 26 27  1  0  0  0  0
 28 29  1  1  0  0  0
M  END
>  <CHROM.1>
150.85502474,177.83482424,69.69125360,-174.38682142,170.78923611,42.03030489
-7.14940363,-10.63955302,-11.00040616,-2.55915353,-0.66710721,2.30265002

>  <Name>
ligand

>  <RI>
0

>  <Rbt.Current_Directory>
/home/itssahil/PROJECTS/Mol_Feturizer/New_Systems/rnas/4F8U

>  <Rbt.Executable>
rbdock ($Id: //depot/dev/client3/rdock/2013.1/src/exe/rbdock.cxx#4 $)

>  <Rbt.Library>
libRbt.so (2013.1, Build901 2013/11/27)

>  <Rbt.Parameter_File>
/export/apps/rDock/src/rDock_2013.1_src/data/scripts/dock_solv.prm

>  <Rbt.Receptor>
prm/blind_docking_20.prm

>  <SCORE>
7.5872

>  <SCORE.INTER>
-0.712123

>  <SCORE.INTER.CONST>
1

>  <SCORE.INTER.POLAR>
0

>  <SCORE.INTER.ROT>
6

>  <SCORE.INTER.SOLV>
21.2133

>  <SCORE.INTER.VDW>
-15.1458

>  <SCORE.INTER.norm>
-0.0229717

>  <SCORE.INTRA>
0.858765

>  <SCORE.INTRA.DIHEDRAL>
-10.1054

>  <SCORE.INTRA.DIHEDRAL.0>
18.77

>  <SCORE.INTRA.POLAR>
0

>  <SCORE.INTRA.POLAR.0>
0

>  <SCORE.INTRA.REPUL>
0

>  <SCORE.INTRA.REPUL.0>
0

>  <SCORE.INTRA.SOLV>
0.25931

>  <SCORE.INTRA.SOLV.lig_0>
-77.2465

>  <SCORE.INTRA.VDW>
5.7818

>  <SCORE.INTRA.VDW.0>
-4.16072

>  <SCORE.INTRA.norm>
0.0277021

>  <SCORE.RESTR>
7.44056

>  <SCORE.RESTR.CAVITY>
7.44056

>  <SCORE.RESTR.norm>
0.240018

>  <SCORE.SYSTEM>
0

>  <SCORE.SYSTEM.CONST>
0

>  <SCORE.SYSTEM.DIHEDRAL>
0

>  <SCORE.SYSTEM.SOLV>
0

>  <SCORE.SYSTEM.norm>
0

>  <SCORE.heavy>
31

>  <SCORE.norm>
0.244748

>  <RMSD>
7.120

$$$$
ligand
 OpenBabel11021811493D
libRbt.so/2013.1/901 2013/11/27
 31 33  0  0  0  0  0  0  0  0999 V2000
   -8.0804   -9.6017  -23.6053 C   0  0  2  0  0  0  0  0  0  0  0  0
   -7.0936   -9.5564  -22.5658 O   0  0  0  0  0  0  0  0  0  0  0  0
   -6.6811  -10.0703  -18.3362 C   0  0  2  0  0  0  0  0  0  0  0  0
   -6.9860  -10.0541  -16.9380 N   0  0  0  0  0  0  0  0  0  0  0  0
   -8.5257  -13.3716  -18.9999 C   0  0  2  0  0  0  0  0  0  0  0  0
   -7.3248  -10.0257  -24.9134 C   0  0  2  0  0  0  0  0  0  0  0  0
   -6.6637  -11.3094  -24.7061 N   0  0  0  0  0  0  0  0  0  0  0  0
   -6.7426   -8.5941  -18.8886 C   0  0  0  0  0  0  0  0  0  0  0  0
   -8.5434  -14.3742  -17.8051 C   0  0  2  0  0  0  0  0  0  0  0  0
   -9.0330  -13.7105  -16.6525 O   0  0  0  0  0  0  0  0  0  0  0  0
   -6.2823   -8.9217  -25.3060 C   0  0  0  0  0  0  0  0  0  0  0  0
   -6.3959   -8.6124  -20.4400 C   0  0  2  0  0  0  0  0  0  0  0  0
   -6.4523   -7.2303  -20.9707 N   0  0  0  0  0  0  0  0  0  0  0  0
   -7.0449  -14.8670  -17.5857 C   0  0  1  0  0  0  0  0  0  0  0  0
   -6.9640  -15.8170  -16.4246 N   0  0  0  0  0  0  0  0  0  0  0  0
   -6.9262   -7.5063  -25.2487 C   0  0  0  0  0  0  0  0  0  0  0  0
   -7.4381   -9.5419  -21.2071 C   0  0  2  0  0  0  0  0  0  0  0  0
   -6.5280  -15.6229  -18.9327 C   0  0  1  0  0  0  0  0  0  0  0  0
   -7.3194  -16.7528  -19.2455 O   0  0  0  0  0  0  0  0  0  0  0  0
   -8.0467   -7.2849  -24.5451 C   0  0  2  0  0  0  0  0  0  0  0  0
   -8.7318   -8.3116  -23.8066 O   0  0  0  0  0  0  0  0  0  0  0  0
   -7.3706  -11.0088  -20.6077 C   0  0  2  0  0  0  0  0  0  0  0  0
   -8.3216  -11.8495  -21.2733 O   0  0  0  0  0  0  0  0  0  0  0  0
   -6.6100  -14.6338  -20.1440 C   0  0  0  0  0  0  0  0  0  0  0  0
   -8.0109  -14.0534  -20.2415 O   0  0  0  0  0  0  0  0  0  0  0  0
   -8.7032   -5.8862  -24.4781 C   0  0  0  0  0  0  0  0  0  0  0  0
  -10.0612   -5.9607  -24.9985 N   0  0  0  0  0  0  0  0  0  0  0  0
   -7.7133  -10.9731  -19.0744 C   0  0  1  0  0  0  0  0  0  0  0  0
   -7.6380  -12.2883  -18.5789 O   0  0  0  0  0  0  0  0  0  0  0  0
   -5.0875  -16.1588  -18.8861 C   0  0  0  0  0  0  0  0  0  0  0  0
   -6.6254  -15.2249  -15.1166 C   0  0  0  0  0  0  0  0  0  0  0  0
  1  2  1  1  0  0  0
  1  6  1  0  0  0  0
  1 21  1  0  0  0  0
  3  4  1  1  0  0  0
  3  8  1  0  0  0  0
  3 28  1  0  0  0  0
  5  9  1  0  0  0  0
  5 25  1  0  0  0  0
  5 29  1  1  0  0  0
  6  7  1  1  0  0  0
  6 11  1  0  0  0  0
  8 12  1  0  0  0  0
  9 10  1  1  0  0  0
  9 14  1  0  0  0  0
 11 16  1  0  0  0  0
 12 13  1  6  0  0  0
 12 17  1  0  0  0  0
 14 15  1  1  0  0  0
 14 18  1  0  0  0  0
 15 31  1  0  0  0  0
 16 20  1  0  0  0  0
 17  2  1  6  0  0  0
 17 22  1  0  0  0  0
 18 19  1  6  0  0  0
 18 24  1  0  0  0  0
 18 30  1  0  0  0  0
 20 21  1  0  0  0  0
 20 26  1  6  0  0  0
 22 23  1  6  0  0  0
 22 28  1  0  0  0  0
 24 25  1  0  0  0  0
 26 27  1  0  0  0  0
 28 29  1  1  0  0  0
M  END
>  <CHROM.1>
-163.74318335,-154.60386366,-93.92203941,-144.12990833,120.53575510,176.22062247
-7.42994668,-11.30849824,-20.64322001,-2.37327457,-1.47349019,1.60339123

>  <Name>
ligand

>  <RI>
0

>  <Rbt.Current_Directory>
/home/itssahil/PROJECTS/Mol_Feturizer/New_Systems/rnas/4F8U

>  <Rbt.Executable>
rbdock ($Id: //depot/dev/client3/rdock/2013.1/src/exe/rbdock.cxx#4 $)

>  <Rbt.Library>
libRbt.so (2013.1, Build901 2013/11/27)

>  <Rbt.Parameter_File>
/export/apps/rDock/src/rDock_2013.1_src/data/scripts/dock_solv.prm

>  <Rbt.Receptor>
prm/pocket_docking_6.prm

>  <SCORE>
-11.7216

>  <SCORE.INTER>
-8.8002

>  <SCORE.INTER.CONST>
1

>  <SCORE.INTER.POLAR>
0

>  <SCORE.INTER.ROT>
6

>  <SCORE.INTER.SOLV>
15.9626

>  <SCORE.INTER.VDW>
-18.7877

>  <SCORE.INTER.norm>
-0.283877

>  <SCORE.INTRA>
-2.92138

>  <SCORE.INTRA.DIHEDRAL>
-7.63784

>  <SCORE.INTRA.DIHEDRAL.0>
18.77

>  <SCORE.INTRA.POLAR>
0

>  <SCORE.INTRA.POLAR.0>
0

>  <SCORE.INTRA.REPUL>
0

>  <SCORE.INTRA.REPUL.0>
0

>  <SCORE.INTRA.SOLV>
-1.19639

>  <SCORE.INTRA.SOLV.lig_0>
-77.2465

>  <SCORE.INTRA.VDW>
1.49573

>  <SCORE.INTRA.VDW.0>
-4.16072

>  <SCORE.INTRA.norm>
-0.0942382

>  <SCORE.RESTR>
0

>  <SCORE.RESTR.CAVITY>
0

>  <SCORE.RESTR.norm>
0

>  <SCORE.SYSTEM>
0

>  <SCORE.SYSTEM.CONST>
0

>  <SCORE.SYSTEM.DIHEDRAL>
0

>  <SCORE.SYSTEM.SOLV>
0

>  <SCORE.SYSTEM.norm>
0

>  <SCORE.heavy>
31

>  <SCORE.norm>
-0.378116

>  <RMSD>
7.121

$$$$
ligand
 OpenBabel11021811493D
libRbt.so/2013.1/901 2013/11/27
 31 33  0  0  0  0  0  0  0  0999 V2000
   -8.8362   -6.8837  -11.5394 C   0  0  2  0  0  0  0  0  0  0  0  0
   -9.0437   -7.8008  -10.4567 O   0  0  0  0  0  0  0  0  0  0  0  0
   -7.6990  -11.7984   -9.7256 C   0  0  2  0  0  0  0  0  0  0  0  0
   -7.5563  -13.2175   -9.8427 N   0  0  0  0  0  0  0  0  0  0  0  0
   -4.8768  -11.4804  -10.3284 C   0  0  2  0  0  0  0  0  0  0  0  0
   -9.2336   -5.4652  -10.9991 C   0  0  2  0  0  0  0  0  0  0  0  0
   -8.4309   -5.1430   -9.8245 N   0  0  0  0  0  0  0  0  0  0  0  0
   -9.2037  -11.4630   -9.3919 C   0  0  0  0  0  0  0  0  0  0  0  0
   -3.5361  -11.4010  -11.1219 C   0  0  2  0  0  0  0  0  0  0  0  0
   -3.5028  -10.1864  -11.8517 O   0  0  0  0  0  0  0  0  0  0  0  0
  -10.7625   -5.4390  -10.6505 C   0  0  0  0  0  0  0  0  0  0  0  0
   -9.3592   -9.8868   -9.2542 C   0  0  2  0  0  0  0  0  0  0  0  0
  -10.7701   -9.5594   -8.9422 N   0  0  0  0  0  0  0  0  0  0  0  0
   -3.4974  -12.6560  -12.1015 C   0  0  1  0  0  0  0  0  0  0  0  0
   -2.2465  -12.6403  -12.9337 N   0  0  0  0  0  0  0  0  0  0  0  0
  -11.6046   -6.0539  -11.8056 C   0  0  0  0  0  0  0  0  0  0  0  0
   -8.9178   -9.1877  -10.6163 C   0  0  2  0  0  0  0  0  0  0  0  0
   -3.5360  -14.0245  -11.2192 C   0  0  1  0  0  0  0  0  0  0  0  0
   -2.4327  -14.1214  -10.3392 O   0  0  0  0  0  0  0  0  0  0  0  0
  -11.0415   -6.8608  -12.7175 C   0  0  2  0  0  0  0  0  0  0  0  0
   -9.6470   -7.2131  -12.7070 O   0  0  0  0  0  0  0  0  0  0  0  0
   -7.4118   -9.5693  -10.9360 C   0  0  2  0  0  0  0  0  0  0  0  0
   -7.0101   -8.9660  -12.1723 O   0  0  0  0  0  0  0  0  0  0  0  0
   -4.8399  -14.0436  -10.3522 C   0  0  0  0  0  0  0  0  0  0  0  0
   -4.9373  -12.7633   -9.5397 O   0  0  0  0  0  0  0  0  0  0  0  0
  -11.8609   -7.4793  -13.8740 C   0  0  0  0  0  0  0  0  0  0  0  0
  -12.9534   -6.5844  -14.2292 N   0  0  0  0  0  0  0  0  0  0  0  0
   -7.2748  -11.1294  -11.0665 C   0  0  1  0  0  0  0  0  0  0  0  0
   -5.9277  -11.4282  -11.3441 O   0  0  0  0  0  0  0  0  0  0  0  0
   -3.5093  -15.3364  -12.0208 C   0  0  0  0  0  0  0  0  0  0  0  0
   -0.9699  -12.7154  -12.1983 C   0  0  0  0  0  0  0  0  0  0  0  0
  1  2  1  1  0  0  0
  1  6  1  0  0  0  0
  1 21  1  0  0  0  0
  3  4  1  6  0  0  0
  3  8  1  0  0  0  0
  3 28  1  0  0  0  0
  5  9  1  0  0  0  0
  5 25  1  0  0  0  0
  5 29  1  6  0  0  0
  6  7  1  1  0  0  0
  6 11  1  0  0  0  0
  8 12  1  0  0  0  0
  9 10  1  6  0  0  0
  9 14  1  0  0  0  0
 11 16  1  0  0  0  0
 12 13  1  6  0  0  0
 12 17  1  0  0  0  0
 14 15  1  1  0  0  0
 14 18  1  0  0  0  0
 15 31  1  0  0  0  0
 16 20  1  0  0  0  0
 17  2  1  1  0  0  0
 17 22  1  0  0  0  0
 18 19  1  1  0  0  0
 18 24  1  0  0  0  0
 18 30  1  0  0  0  0
 20 21  1  0  0  0  0
 20 26  1  6  0  0  0
 22 23  1  6  0  0  0
 22 28  1  0  0  0  0
 24 25  1  0  0  0  0
 26 27  1  0  0  0  0
 28 29  1  1  0  0  0
M  END
>  <CHROM.1>
173.47991014,-163.00162714,61.34937935,-174.41820454,29.90215186,-38.93405941
-7.12769505,-10.09988132,-11.17538814,-2.49930061,-0.36954772,2.61897558

>  <Name>
ligand

>  <RI>
0

>  <Rbt.Current_Directory>
/home/itssahil/PROJECTS/Mol_Feturizer/New_Systems/rnas/4F8U

>  <Rbt.Executable>
rbdock ($Id: //depot/dev/client3/rdock/2013.1/src/exe/rbdock.cxx#4 $)

>  <Rbt.Library>
libRbt.so (2013.1, Build901 2013/11/27)

>  <Rbt.Parameter_File>
/export/apps/rDock/src/rDock_2013.1_src/data/scripts/dock_solv.prm

>  <Rbt.Receptor>
prm/blind_docking_20.prm

>  <SCORE>
11.6961

>  <SCORE.INTER>
3.09193

>  <SCORE.INTER.CONST>
1

>  <SCORE.INTER.POLAR>
0

>  <SCORE.INTER.ROT>
6

>  <SCORE.INTER.SOLV>
19.864

>  <SCORE.INTER.VDW>
-12.16

>  <SCORE.INTER.norm>
0.0997396

>  <SCORE.INTRA>
-1.6953

>  <SCORE.INTRA.DIHEDRAL>
-12.4608

>  <SCORE.INTRA.DIHEDRAL.0>
18.77

>  <SCORE.INTRA.POLAR>
0

>  <SCORE.INTRA.POLAR.0>
0

>  <SCORE.INTRA.REPUL>
0

>  <SCORE.INTRA.REPUL.0>
0

>  <SCORE.INTRA.SOLV>
-0.150012

>  <SCORE.INTRA.SOLV.lig_0>
-77.2465

>  <SCORE.INTRA.VDW>
4.61013

>  <SCORE.INTRA.VDW.0>
-4.16072

>  <SCORE.INTRA.norm>
-0.0546871

>  <SCORE.RESTR>
10.2995

>  <SCORE.RESTR.CAVITY>
10.2995

>  <SCORE.RESTR.norm>
0.332241

>  <SCORE.SYSTEM>
0

>  <SCORE.SYSTEM.CONST>
0

>  <SCORE.SYSTEM.DIHEDRAL>
0

>  <SCORE.SYSTEM.SOLV>
0

>  <SCORE.SYSTEM.norm>
0

>  <SCORE.heavy>
31

>  <SCORE.norm>
0.377293

>  <RMSD>
7.125

$$$$
ligand
 OpenBabel11021811493D
libRbt.so/2013.1/901 2013/11/27
 31 33  0  0  0  0  0  0  0  0999 V2000
   -9.7593   -7.9932  -11.9980 C   0  0  2  0  0  0  0  0  0  0  0  0
   -8.9110   -8.6285  -11.0320 O   0  0  0  0  0  0  0  0  0  0  0  0
   -7.5490  -12.4547   -9.6796 C   0  0  2  0  0  0  0  0  0  0  0  0
   -7.2942  -13.8625   -9.6457 N   0  0  0  0  0  0  0  0  0  0  0  0
   -4.8317  -13.0601   -9.9879 C   0  0  2  0  0  0  0  0  0  0  0  0
   -8.8200   -7.1270  -12.9087 C   0  0  2  0  0  0  0  0  0  0  0  0
   -7.8058   -7.9782  -13.5208 N   0  0  0  0  0  0  0  0  0  0  0  0
   -9.1070  -12.2202   -9.7542 C   0  0  0  0  0  0  0  0  0  0  0  0
   -3.3163  -12.6920   -9.9532 C   0  0  2  0  0  0  0  0  0  0  0  0
   -3.1695  -11.3911   -9.4101 O   0  0  0  0  0  0  0  0  0  0  0  0
   -8.1515   -5.9932  -12.0558 C   0  0  0  0  0  0  0  0  0  0  0  0
   -9.3892  -10.6559   -9.7838 C   0  0  2  0  0  0  0  0  0  0  0  0
  -10.8506  -10.4232   -9.8556 N   0  0  0  0  0  0  0  0  0  0  0  0
   -2.7872  -12.7460  -11.4543 C   0  0  1  0  0  0  0  0  0  0  0  0
   -1.3341  -12.3699  -11.5180 N   0  0  0  0  0  0  0  0  0  0  0  0
   -9.2091   -5.2641  -11.1775 C   0  0  0  0  0  0  0  0  0  0  0  0
   -8.6636  -10.0082  -11.0459 C   0  0  2  0  0  0  0  0  0  0  0  0
   -2.9748  -14.2569  -12.0332 C   0  0  1  0  0  0  0  0  0  0  0  0
   -2.2505  -15.2094  -11.2789 O   0  0  0  0  0  0  0  0  0  0  0  0
  -10.3885   -5.8384  -10.8967 C   0  0  2  0  0  0  0  0  0  0  0  0
  -10.7667   -7.1412  -11.3748 O   0  0  0  0  0  0  0  0  0  0  0  0
   -7.1051  -10.2877  -10.9537 C   0  0  2  0  0  0  0  0  0  0  0  0
   -6.4436   -9.7308  -12.0965 O   0  0  0  0  0  0  0  0  0  0  0  0
   -4.4892  -14.6503  -11.9693 C   0  0  0  0  0  0  0  0  0  0  0  0
   -5.0165  -14.4423  -10.5595 O   0  0  0  0  0  0  0  0  0  0  0  0
  -11.4534   -5.1290  -10.0281 C   0  0  0  0  0  0  0  0  0  0  0  0
  -12.3683   -4.3901  -10.8869 N   0  0  0  0  0  0  0  0  0  0  0  0
   -6.8436  -11.8370  -10.9231 C   0  0  1  0  0  0  0  0  0  0  0  0
   -5.4542  -12.0442  -10.8359 O   0  0  0  0  0  0  0  0  0  0  0  0
   -2.5133  -14.4780  -13.4833 C   0  0  0  0  0  0  0  0  0  0  0  0
   -0.9818  -11.2713  -12.4374 C   0  0  0  0  0  0  0  0  0  0  0  0
  1  2  1  1  0  0  0
  1  6  1  0  0  0  0
  1 21  1  0  0  0  0
  3  4  1  6  0  0  0
  3  8  1  0  0  0  0
  3 28  1  0  0  0  0
  5  9  1  0  0  0  0
  5 25  1  0  0  0  0
  5 29  1  6  0  0  0
  6  7  1  1  0  0  0
  6 11  1  0  0  0  0
  8 12  1  0  0  0  0
  9 10  1  6  0  0  0
  9 14  1  0  0  0  0
 11 16  1  0  0  0  0
 12 13  1  6  0  0  0
 12 17  1  0  0  0  0
 14 15  1  1  0  0  0
 14 18  1  0  0  0  0
 15 31  1  0  0  0  0
 16 20  1  0  0  0  0
 17  2  1  1  0  0  0
 17 22  1  0  0  0  0
 18 19  1  1  0  0  0
 18 24  1  0  0  0  0
 18 30  1  0  0  0  0
 20 21  1  0  0  0  0
 20 26  1  6  0  0  0
 22 23  1  6  0  0  0
 22 28  1  0  0  0  0
 24 25  1  0  0  0  0
 26 27  1  0  0  0  0
 28 29  1  1  0  0  0
M  END
>  <CHROM.1>
-110.31330347,-166.71965505,-125.33099320,-110.23604552,92.55615146,19.59786927
-6.73247349,-10.52096576,-11.11911120,-2.42863074,-0.32697162,2.81165918

>  <Name>
ligand

>  <RI>
0

>  <Rbt.Current_Directory>
/home/itssahil/PROJECTS/Mol_Feturizer/New_Systems/rnas/4F8U

>  <Rbt.Executable>
rbdock ($Id: //depot/dev/client3/rdock/2013.1/src/exe/rbdock.cxx#4 $)

>  <Rbt.Library>
libRbt.so (2013.1, Build901 2013/11/27)

>  <Rbt.Parameter_File>
/export/apps/rDock/src/rDock_2013.1_src/data/scripts/dock_solv.prm

>  <Rbt.Receptor>
prm/blind_docking_40.prm

>  <SCORE>
23.7126

>  <SCORE.INTER>
2.96693

>  <SCORE.INTER.CONST>
1

>  <SCORE.INTER.POLAR>
0

>  <SCORE.INTER.ROT>
6

>  <SCORE.INTER.SOLV>
15.1287

>  <SCORE.INTER.VDW>
-10.665

>  <SCORE.INTER.norm>
0.0957074

>  <SCORE.INTRA>
6.45964

>  <SCORE.INTRA.DIHEDRAL>
4.70714

>  <SCORE.INTRA.DIHEDRAL.0>
18.77

>  <SCORE.INTRA.POLAR>
0

>  <SCORE.INTRA.POLAR.0>
0

>  <SCORE.INTRA.REPUL>
0

>  <SCORE.INTRA.REPUL.0>
0

>  <SCORE.INTRA.SOLV>
2.03491

>  <SCORE.INTRA.SOLV.lig_0>
-77.2465

>  <SCORE.INTRA.VDW>
3.08861

>  <SCORE.INTRA.VDW.0>
-4.16072

>  <SCORE.INTRA.norm>
0.208375

>  <SCORE.RESTR>
14.286

>  <SCORE.RESTR.CAVITY>
14.286

>  <SCORE.RESTR.norm>
0.460839

>  <SCORE.SYSTEM>
0

>  <SCORE.SYSTEM.CONST>
0

>  <SCORE.SYSTEM.DIHEDRAL>
0

>  <SCORE.SYSTEM.SOLV>
0

>  <SCORE.SYSTEM.norm>
0

>  <SCORE.heavy>
31

>  <SCORE.norm>
0.764922

>  <RMSD>
7.135

$$$$
ligand
 OpenBabel11021811493D
libRbt.so/2013.1/901 2013/11/27
 31 33  0  0  0  0  0  0  0  0999 V2000
   -9.7396   -8.4743  -11.3683 C   0  0  2  0  0  0  0  0  0  0  0  0
   -8.5775   -9.0132  -10.7236 O   0  0  0  0  0  0  0  0  0  0  0  0
   -6.7271  -12.7545   -9.7739 C   0  0  2  0  0  0  0  0  0  0  0  0
   -6.3401  -14.1296   -9.8596 N   0  0  0  0  0  0  0  0  0  0  0  0
   -4.0572  -12.0336  -12.3572 C   0  0  2  0  0  0  0  0  0  0  0  0
   -9.2273   -7.7256  -12.6485 C   0  0  2  0  0  0  0  0  0  0  0  0
   -8.4888   -8.6527  -13.4987 N   0  0  0  0  0  0  0  0  0  0  0  0
   -8.2991  -12.6726   -9.6736 C   0  0  0  0  0  0  0  0  0  0  0  0
   -4.2373  -13.4476  -12.9907 C   0  0  2  0  0  0  0  0  0  0  0  0
   -5.6167  -13.6784  -13.2204 O   0  0  0  0  0  0  0  0  0  0  0  0
   -8.3217   -6.5156  -12.2293 C   0  0  0  0  0  0  0  0  0  0  0  0
   -8.7273  -11.1450   -9.5705 C   0  0  2  0  0  0  0  0  0  0  0  0
  -10.2032  -11.0554   -9.4774 N   0  0  0  0  0  0  0  0  0  0  0  0
   -3.6476  -14.5031  -11.9542 C   0  0  1  0  0  0  0  0  0  0  0  0
   -3.8112  -15.9036  -12.4729 N   0  0  0  0  0  0  0  0  0  0  0  0
   -8.9988   -5.6805  -11.1043 C   0  0  0  0  0  0  0  0  0  0  0  0
   -8.2056  -10.3584  -10.8542 C   0  0  2  0  0  0  0  0  0  0  0  0
   -2.0640  -14.1992  -11.7241 C   0  0  1  0  0  0  0  0  0  0  0  0
   -1.3226  -14.3027  -12.9244 O   0  0  0  0  0  0  0  0  0  0  0  0
   -9.9749   -6.2040  -10.3474 C   0  0  2  0  0  0  0  0  0  0  0  0
  -10.4678   -7.5454  -10.5103 O   0  0  0  0  0  0  0  0  0  0  0  0
   -6.6270  -10.4860  -10.9400 C   0  0  2  0  0  0  0  0  0  0  0  0
   -6.1474   -9.8026  -12.1049 O   0  0  0  0  0  0  0  0  0  0  0  0
   -1.8914  -12.7403  -11.1819 C   0  0  0  0  0  0  0  0  0  0  0  0
   -2.5967  -11.7607  -12.1047 O   0  0  0  0  0  0  0  0  0  0  0  0
  -10.6618   -5.3893   -9.2267 C   0  0  0  0  0  0  0  0  0  0  0  0
  -12.0818   -5.2577   -9.5213 N   0  0  0  0  0  0  0  0  0  0  0  0
   -6.2205  -12.0008  -11.0391 C   0  0  1  0  0  0  0  0  0  0  0  0
   -4.8166  -12.0731  -11.1080 O   0  0  0  0  0  0  0  0  0  0  0  0
   -1.3412  -15.1336  -10.7398 C   0  0  0  0  0  0  0  0  0  0  0  0
   -4.9881  -16.6485  -11.9868 C   0  0  0  0  0  0  0  0  0  0  0  0
  1  2  1  1  0  0  0
  1  6  1  0  0  0  0
  1 21  1  0  0  0  0
  3  4  1  6  0  0  0
  3  8  1  0  0  0  0
  3 28  1  0  0  0  0
  5  9  1  0  0  0  0
  5 25  1  0  0  0  0
  5 29  1  1  0  0  0
  6  7  1  6  0  0  0
  6 11  1  0  0  0  0
  8 12  1  0  0  0  0
  9 10  1  1  0  0  0
  9 14  1  0  0  0  0
 11 16  1  0  0  0  0
 12 13  1  6  0  0  0
 12 17  1  0  0  0  0
 14 15  1  6  0  0  0
 14 18  1  0  0  0  0
 15 31  1  0  0  0  0
 16 20  1  0  0  0  0
 17  2  1  1  0  0  0
 17 22  1  0  0  0  0
 18 19  1  6  0  0  0
 18 24  1  0  0  0  0
 18 30  1  0  0  0  0
 20 21  1  0  0  0  0
 20 26  1  6  0  0  0
 22 23  1  6  0  0  0
 22 28  1  0  0  0  0
 24 25  1  0  0  0  0
 26 27  1  0  0  0  0
 28 29  1  1  0  0  0
M  END
>  <CHROM.1>
-100.29812996,-75.88048014,-96.65094707,-98.29471392,118.64922368,151.59471229
-6.55815401,-11.02661277,-11.28159043,2.41150523,0.43159051,-0.26623875

>  <Name>
ligand

>  <RI>
0

>  <Rbt.Current_Directory>
/home/itssahil/PROJECTS/Mol_Feturizer/New_Systems/rnas/4F8U

>  <Rbt.Executable>
rbdock ($Id: //depot/dev/client3/rdock/2013.1/src/exe/rbdock.cxx#4 $)

>  <Rbt.Library>
libRbt.so (2013.1, Build901 2013/11/27)

>  <Rbt.Parameter_File>
/export/apps/rDock/src/rDock_2013.1_src/data/scripts/dock_solv.prm

>  <Rbt.Receptor>
prm/blind_docking_20.prm

>  <SCORE>
11.8212

>  <SCORE.INTER>
0.0640957

>  <SCORE.INTER.CONST>
1

>  <SCORE.INTER.POLAR>
0

>  <SCORE.INTER.ROT>
6

>  <SCORE.INTER.SOLV>
9.85625

>  <SCORE.INTER.VDW>
-10.8427

>  <SCORE.INTER.norm>
0.0020676

>  <SCORE.INTRA>
0.70776

>  <SCORE.INTRA.DIHEDRAL>
-1.24438

>  <SCORE.INTRA.DIHEDRAL.0>
18.77

>  <SCORE.INTRA.POLAR>
0

>  <SCORE.INTRA.POLAR.0>
0

>  <SCORE.INTRA.REPUL>
0

>  <SCORE.INTRA.REPUL.0>
0

>  <SCORE.INTRA.SOLV>
2.52672

>  <SCORE.INTRA.SOLV.lig_0>
-77.2465

>  <SCORE.INTRA.VDW>
0.0665902

>  <SCORE.INTRA.VDW.0>
-4.16072

>  <SCORE.INTRA.norm>
0.022831

>  <SCORE.RESTR>
11.0494

>  <SCORE.RESTR.CAVITY>
11.0494

>  <SCORE.RESTR.norm>
0.356431

>  <SCORE.SYSTEM>
0

>  <SCORE.SYSTEM.CONST>
0

>  <SCORE.SYSTEM.DIHEDRAL>
0

>  <SCORE.SYSTEM.SOLV>
0

>  <SCORE.SYSTEM.norm>
0

>  <SCORE.heavy>
31

>  <SCORE.norm>
0.38133

>  <RMSD>
7.181

$$$$
ligand
 OpenBabel11021811493D
libRbt.so/2013.1/901 2013/11/27
 31 33  0  0  0  0  0  0  0  0999 V2000
   -8.4813   -6.9703  -10.8603 C   0  0  2  0  0  0  0  0  0  0  0  0
   -9.1941   -7.9102  -10.0448 O   0  0  0  0  0  0  0  0  0  0  0  0
   -8.4540  -12.0417   -9.2045 C   0  0  2  0  0  0  0  0  0  0  0  0
   -8.3772  -13.4609   -9.3721 N   0  0  0  0  0  0  0  0  0  0  0  0
   -5.8170  -13.0949   -9.6726 C   0  0  2  0  0  0  0  0  0  0  0  0
   -9.3439   -5.6598  -10.8807 C   0  0  2  0  0  0  0  0  0  0  0  0
   -9.5481   -5.1834   -9.5172 N   0  0  0  0  0  0  0  0  0  0  0  0
   -9.9559  -11.5893   -9.3706 C   0  0  0  0  0  0  0  0  0  0  0  0
   -4.2623  -13.0408   -9.5578 C   0  0  2  0  0  0  0  0  0  0  0  0
   -3.9036  -12.0531   -8.6067 O   0  0  0  0  0  0  0  0  0  0  0  0
  -10.7184   -5.9397  -11.5823 C   0  0  0  0  0  0  0  0  0  0  0  0
  -10.0412  -10.0137   -9.1764 C   0  0  2  0  0  0  0  0  0  0  0  0
  -11.4483   -9.5766   -9.3320 N   0  0  0  0  0  0  0  0  0  0  0  0
   -3.6992  -12.6732  -11.0014 C   0  0  1  0  0  0  0  0  0  0  0  0
   -2.2008  -12.5669  -10.9745 N   0  0  0  0  0  0  0  0  0  0  0  0
  -10.5117   -6.7108  -12.9180 C   0  0  0  0  0  0  0  0  0  0  0  0
   -9.1162   -9.2938  -10.2556 C   0  0  2  0  0  0  0  0  0  0  0  0
   -4.1344  -13.8349  -12.0569 C   0  0  1  0  0  0  0  0  0  0  0  0
   -3.6197  -15.1019  -11.6955 O   0  0  0  0  0  0  0  0  0  0  0  0
   -9.3790   -7.3890  -13.1561 C   0  0  2  0  0  0  0  0  0  0  0  0
   -8.2867   -7.4555  -12.2227 O   0  0  0  0  0  0  0  0  0  0  0  0
   -7.6211   -9.7929  -10.0793 C   0  0  2  0  0  0  0  0  0  0  0  0
   -6.7825   -9.1706  -11.0609 O   0  0  0  0  0  0  0  0  0  0  0  0
   -5.6961  -13.9462  -12.0876 C   0  0  0  0  0  0  0  0  0  0  0  0
   -6.2267  -14.1410  -10.6772 O   0  0  0  0  0  0  0  0  0  0  0  0
   -9.1537   -8.1591  -14.4782 C   0  0  0  0  0  0  0  0  0  0  0  0
   -8.5202   -9.4391  -14.1938 N   0  0  0  0  0  0  0  0  0  0  0  0
   -7.5544  -11.3512  -10.2719 C   0  0  1  0  0  0  0  0  0  0  0  0
   -6.2169  -11.7557  -10.1032 O   0  0  0  0  0  0  0  0  0  0  0  0
   -3.6695  -13.6266  -13.5077 C   0  0  0  0  0  0  0  0  0  0  0  0
   -1.6036  -11.5169  -11.8214 C   0  0  0  0  0  0  0  0  0  0  0  0
  1  2  1  1  0  0  0
  1  6  1  0  0  0  0
  1 21  1  0  0  0  0
  3  4  1  6  0  0  0
  3  8  1  0  0  0  0
  3 28  1  0  0  0  0
  5  9  1  0  0  0  0
  5 25  1  0  0  0  0
  5 29  1  6  0  0  0
  6  7  1  1  0  0  0
  6 11  1  0  0  0  0
  8 12  1  0  0  0  0
  9 10  1  1  0  0  0
  9 14  1  0  0  0  0
 11 16  1  0  0  0  0
 12 13  1  6  0  0  0
 12 17  1  0  0  0  0
 14 15  1  1  0  0  0
 14 18  1  0  0  0  0
 15 31  1  0  0  0  0
 16 20  1  0  0  0  0
 17  2  1  1  0  0  0
 17 22  1  0  0  0  0
 18 19  1  1  0  0  0
 18 24  1  0  0  0  0
 18 30  1  0  0  0  0
 20 21  1  0  0  0  0
 20 26  1  6  0  0  0
 22 23  1  6  0  0  0
 22 28  1  0  0  0  0
 24 25  1  0  0  0  0
 26 27  1  0  0  0  0
 28 29  1  1  0  0  0
M  END
>  <CHROM.1>
150.00403899,-177.00928705,-143.17670024,-179.52876138,-138.59785481,34.98932327
-7.16538364,-10.48898714,-10.96664984,-2.49960618,-0.55535475,2.49070863

>  <Name>
ligand

>  <RI>
0

>  <Rbt.Current_Directory>
/home/itssahil/PROJECTS/Mol_Feturizer/New_Systems/rnas/4F8U

>  <Rbt.Executable>
rbdock ($Id: //depot/dev/client3/rdock/2013.1/src/exe/rbdock.cxx#4 $)

>  <Rbt.Library>
libRbt.so (2013.1, Build901 2013/11/27)

>  <Rbt.Parameter_File>
/export/apps/rDock/src/rDock_2013.1_src/data/scripts/dock_solv.prm

>  <Rbt.Receptor>
prm/blind_docking_20.prm

>  <SCORE>
5.67477

>  <SCORE.INTER>
-1.7814

>  <SCORE.INTER.CONST>
1

>  <SCORE.INTER.POLAR>
0

>  <SCORE.INTER.ROT>
6

>  <SCORE.INTER.SOLV>
19.3152

>  <SCORE.INTER.VDW>
-15.226

>  <SCORE.INTER.norm>
-0.0574647

>  <SCORE.INTRA>
-0.918452

>  <SCORE.INTRA.DIHEDRAL>
-9.54055

>  <SCORE.INTRA.DIHEDRAL.0>
18.77

>  <SCORE.INTRA.POLAR>
0

>  <SCORE.INTRA.POLAR.0>
0

>  <SCORE.INTRA.REPUL>
0

>  <SCORE.INTRA.REPUL.0>
0

>  <SCORE.INTRA.SOLV>
0.938648

>  <SCORE.INTRA.SOLV.lig_0>
-77.2465

>  <SCORE.INTRA.VDW>
3.3825

>  <SCORE.INTRA.VDW.0>
-4.16072

>  <SCORE.INTRA.norm>
-0.0296275

>  <SCORE.RESTR>
8.37463

>  <SCORE.RESTR.CAVITY>
8.37463

>  <SCORE.RESTR.norm>
0.270149

>  <SCORE.SYSTEM>
0

>  <SCORE.SYSTEM.CONST>
0

>  <SCORE.SYSTEM.DIHEDRAL>
0

>  <SCORE.SYSTEM.SOLV>
0

>  <SCORE.SYSTEM.norm>
0

>  <SCORE.heavy>
31

>  <SCORE.norm>
0.183057

>  <RMSD>
7.222

$$$$
ligand
 OpenBabel11021811493D
libRbt.so/2013.1/901 2013/11/27
 31 33  0  0  0  0  0  0  0  0999 V2000
  -10.0334   -5.7304  -10.2050 C   0  0  2  0  0  0  0  0  0  0  0  0
   -9.9386   -7.0951  -10.6351 O   0  0  0  0  0  0  0  0  0  0  0  0
   -7.8735   -9.6525  -13.3772 C   0  0  2  0  0  0  0  0  0  0  0  0
   -6.8825  -10.1315  -14.2917 N   0  0  0  0  0  0  0  0  0  0  0  0
   -6.4400  -10.8555  -10.0697 C   0  0  2  0  0  0  0  0  0  0  0  0
  -11.3324   -5.6321   -9.3304 C   0  0  2  0  0  0  0  0  0  0  0  0
  -11.2485   -6.5706   -8.2168 N   0  0  0  0  0  0  0  0  0  0  0  0
   -8.4932   -8.3195  -13.9491 C   0  0  0  0  0  0  0  0  0  0  0  0
   -5.3533  -11.9739  -10.0303 C   0  0  2  0  0  0  0  0  0  0  0  0
   -4.1833  -11.5037  -10.6775 O   0  0  0  0  0  0  0  0  0  0  0  0
  -12.5922   -5.9323  -10.2152 C   0  0  0  0  0  0  0  0  0  0  0  0
   -9.5995   -7.7926  -12.9363 C   0  0  2  0  0  0  0  0  0  0  0  0
  -10.1880   -6.5389  -13.4626 N   0  0  0  0  0  0  0  0  0  0  0  0
   -5.9554  -13.2381  -10.7887 C   0  0  1  0  0  0  0  0  0  0  0  0
   -4.9555  -14.3588  -10.8273 N   0  0  0  0  0  0  0  0  0  0  0  0
  -12.5355   -5.1329  -11.5491 C   0  0  0  0  0  0  0  0  0  0  0  0
   -8.9364   -7.5359  -11.5104 C   0  0  2  0  0  0  0  0  0  0  0  0
   -7.2939  -13.7418  -10.0092 C   0  0  1  0  0  0  0  0  0  0  0  0
   -7.0211  -14.1210   -8.6740 O   0  0  0  0  0  0  0  0  0  0  0  0
  -11.3762   -4.6401  -12.0105 C   0  0  2  0  0  0  0  0  0  0  0  0
  -10.1211   -4.8014  -11.3268 O   0  0  0  0  0  0  0  0  0  0  0  0
   -8.2986   -8.8874  -10.9792 C   0  0  2  0  0  0  0  0  0  0  0  0
   -7.6771   -8.6640   -9.7073 O   0  0  0  0  0  0  0  0  0  0  0  0
   -8.3382  -12.5756   -9.9693 C   0  0  0  0  0  0  0  0  0  0  0  0
   -7.6962  -11.3288   -9.3845 O   0  0  0  0  0  0  0  0  0  0  0  0
  -11.2999   -3.8409  -13.3324 C   0  0  0  0  0  0  0  0  0  0  0  0
  -10.5968   -2.5866  -13.1027 N   0  0  0  0  0  0  0  0  0  0  0  0
   -7.2097   -9.3957  -11.9919 C   0  0  1  0  0  0  0  0  0  0  0  0
   -6.6723  -10.5958  -11.4901 O   0  0  0  0  0  0  0  0  0  0  0  0
   -8.0038  -14.9608  -10.6213 C   0  0  0  0  0  0  0  0  0  0  0  0
   -4.0829  -14.4171  -12.0153 C   0  0  0  0  0  0  0  0  0  0  0  0
  1  2  1  6  0  0  0
  1  6  1  0  0  0  0
  1 21  1  0  0  0  0
  3  4  1  6  0  0  0
  3  8  1  0  0  0  0
  3 28  1  0  0  0  0
  5  9  1  0  0  0  0
  5 25  1  0  0  0  0
  5 29  1  6  0  0  0
  6  7  1  1  0  0  0
  6 11  1  0  0  0  0
  8 12  1  0  0  0  0
  9 10  1  6  0  0  0
  9 14  1  0  0  0  0
 11 16  1  0  0  0  0
 12 13  1  6  0  0  0
 12 17  1  0  0  0  0
 14 15  1  1  0  0  0
 14 18  1  0  0  0  0
 15 31  1  0  0  0  0
 16 20  1  0  0  0  0
 17  2  1  1  0  0  0
 17 22  1  0  0  0  0
 18 19  1  1  0  0  0
 18 24  1  0  0  0  0
 18 30  1  0  0  0  0
 20 21  1  0  0  0  0
 20 26  1  1  0  0  0
 22 23  1  1  0  0  0
 22 28  1  0  0  0  0
 24 25  1  0  0  0  0
 26 27  1  0  0  0  0
 28 29  1  1  0  0  0
M  END
>  <CHROM.1>
175.96611752,-157.54093654,-92.37395361,-106.46401713,128.92829267,-155.97850117
-8.42801994,-9.14994646,-11.15998590,2.46076236,0.83928638,-0.86691784

>  <Name>
ligand

>  <RI>
0

>  <Rbt.Current_Directory>
/home/itssahil/PROJECTS/Mol_Feturizer/New_Systems/rnas/4F8U

>  <Rbt.Executable>
rbdock ($Id: //depot/dev/client3/rdock/2013.1/src/exe/rbdock.cxx#4 $)

>  <Rbt.Library>
libRbt.so (2013.1, Build901 2013/11/27)

>  <Rbt.Parameter_File>
/export/apps/rDock/src/rDock_2013.1_src/data/scripts/dock_solv.prm

>  <Rbt.Receptor>
prm/blind_docking_20.prm

>  <SCORE>
14.3941

>  <SCORE.INTER>
3.30475

>  <SCORE.INTER.CONST>
1

>  <SCORE.INTER.POLAR>
0

>  <SCORE.INTER.ROT>
6

>  <SCORE.INTER.SOLV>
22.2579

>  <SCORE.INTER.VDW>
-12.8161

>  <SCORE.INTER.norm>
0.106605

>  <SCORE.INTRA>
1.98596

>  <SCORE.INTRA.DIHEDRAL>
-5.19318

>  <SCORE.INTRA.DIHEDRAL.0>
18.77

>  <SCORE.INTRA.POLAR>
0

>  <SCORE.INTRA.POLAR.0>
0

>  <SCORE.INTRA.REPUL>
0

>  <SCORE.INTRA.REPUL.0>
0

>  <SCORE.INTRA.SOLV>
1.90527

>  <SCORE.INTRA.SOLV.lig_0>
-77.2465

>  <SCORE.INTRA.VDW>
3.62992

>  <SCORE.INTRA.VDW.0>
-4.16072

>  <SCORE.INTRA.norm>
0.0640634

>  <SCORE.RESTR>
9.10343

>  <SCORE.RESTR.CAVITY>
9.10343

>  <SCORE.RESTR.norm>
0.293659

>  <SCORE.SYSTEM>
0

>  <SCORE.SYSTEM.CONST>
0

>  <SCORE.SYSTEM.DIHEDRAL>
0

>  <SCORE.SYSTEM.SOLV>
0

>  <SCORE.SYSTEM.norm>
0

>  <SCORE.heavy>
31

>  <SCORE.norm>
0.464327

>  <RMSD>
7.223

$$$$
ligand
 OpenBabel11021811493D
libRbt.so/2013.1/901 2013/11/27
 31 33  0  0  0  0  0  0  0  0999 V2000
   -4.8170  -11.9177  -12.4815 C   0  0  2  0  0  0  0  0  0  0  0  0
   -4.2918  -10.5840  -12.5255 O   0  0  0  0  0  0  0  0  0  0  0  0
   -2.4115  -10.5454  -16.3708 C   0  0  2  0  0  0  0  0  0  0  0  0
   -1.7547  -10.0644  -17.5478 N   0  0  0  0  0  0  0  0  0  0  0  0
    0.7310  -10.5532  -16.2527 C   0  0  2  0  0  0  0  0  0  0  0  0
   -5.7436  -11.9861  -11.2172 C   0  0  2  0  0  0  0  0  0  0  0  0
   -6.7869  -10.9714  -11.3159 N   0  0  0  0  0  0  0  0  0  0  0  0
   -3.8072   -9.8232  -16.2345 C   0  0  0  0  0  0  0  0  0  0  0  0
    1.8195  -11.6649  -16.1414 C   0  0  2  0  0  0  0  0  0  0  0  0
    1.2266  -12.9214  -16.4214 O   0  0  0  0  0  0  0  0  0  0  0  0
   -4.8877  -11.7776   -9.9196 C   0  0  0  0  0  0  0  0  0  0  0  0
   -4.5392  -10.3642  -14.9311 C   0  0  2  0  0  0  0  0  0  0  0  0
   -5.8517   -9.6911  -14.7917 N   0  0  0  0  0  0  0  0  0  0  0  0
    2.3836  -11.6199  -14.6527 C   0  0  1  0  0  0  0  0  0  0  0  0
    3.4209  -12.6870  -14.4464 N   0  0  0  0  0  0  0  0  0  0  0  0
   -3.6102  -12.6654   -9.9500 C   0  0  0  0  0  0  0  0  0  0  0  0
   -3.6320  -10.0765  -13.6533 C   0  0  2  0  0  0  0  0  0  0  0  0
    3.0547  -10.1612  -14.3791 C   0  0  1  0  0  0  0  0  0  0  0  0
    4.1272   -9.8950  -15.2622 O   0  0  0  0  0  0  0  0  0  0  0  0
   -3.1408  -13.1614  -11.1048 C   0  0  2  0  0  0  0  0  0  0  0  0
   -3.7650  -12.9237  -12.3786 O   0  0  0  0  0  0  0  0  0  0  0  0
   -2.2283  -10.7918  -13.8367 C   0  0  2  0  0  0  0  0  0  0  0  0
   -1.3934  -10.5202  -12.7039 O   0  0  0  0  0  0  0  0  0  0  0  0
    1.9747   -9.0475  -14.5920 C   0  0  0  0  0  0  0  0  0  0  0  0
    1.3362   -9.2039  -15.9619 O   0  0  0  0  0  0  0  0  0  0  0  0
   -1.8745  -14.0478  -11.1553 C   0  0  0  0  0  0  0  0  0  0  0  0
   -0.7337  -13.2434  -11.5700 N   0  0  0  0  0  0  0  0  0  0  0  0
   -1.5193  -10.2481  -15.1295 C   0  0  1  0  0  0  0  0  0  0  0  0
   -0.2832  -10.9083  -15.2606 O   0  0  0  0  0  0  0  0  0  0  0  0
    3.6466   -9.9516  -12.9755 C   0  0  0  0  0  0  0  0  0  0  0  0
    2.9246  -14.0080  -14.0163 C   0  0  0  0  0  0  0  0  0  0  0  0
  1  2  1  1  0  0  0
  1  6  1  0  0  0  0
  1 21  1  0  0  0  0
  3  4  1  6  0  0  0
  3  8  1  0  0  0  0
  3 28  1  0  0  0  0
  5  9  1  0  0  0  0
  5 25  1  0  0  0  0
  5 29  1  1  0  0  0
  6  7  1  6  0  0  0
  6 11  1  0  0  0  0
  8 12  1  0  0  0  0
  9 10  1  1  0  0  0
  9 14  1  0  0  0  0
 11 16  1  0  0  0  0
 12 13  1  1  0  0  0
 12 17  1  0  0  0  0
 14 15  1  6  0  0  0
 14 18  1  0  0  0  0
 15 31  1  0  0  0  0
 16 20  1  0  0  0  0
 17  2  1  1  0  0  0
 17 22  1  0  0  0  0
 18 19  1  6  0  0  0
 18 24  1  0  0  0  0
 18 30  1  0  0  0  0
 20 21  1  0  0  0  0
 20 26  1  1  0  0  0
 22 23  1  1  0  0  0
 22 28  1  0  0  0  0
 24 25  1  0  0  0  0
 26 27  1  0  0  0  0
 28 29  1  6  0  0  0
M  END
>  <CHROM.1>
-167.37932268,-172.66172654,-88.05426205,49.82137552,-99.99732671,68.46290474
-1.25515032,-11.22893594,-13.84864457,-2.76681231,0.15555567,-1.00881030

>  <Name>
ligand

>  <RI>
0

>  <Rbt.Current_Directory>
/home/itssahil/PROJECTS/Mol_Feturizer/New_Systems/rnas/4F8U

>  <Rbt.Executable>
rbdock ($Id: //depot/dev/client3/rdock/2013.1/src/exe/rbdock.cxx#4 $)

>  <Rbt.Library>
libRbt.so (2013.1, Build901 2013/11/27)

>  <Rbt.Parameter_File>
/export/apps/rDock/src/rDock_2013.1_src/data/scripts/dock_solv.prm

>  <Rbt.Receptor>
prm/pocket_docking_7.prm

>  <SCORE>
-9.96907

>  <SCORE.INTER>
-4.43039

>  <SCORE.INTER.CONST>
1

>  <SCORE.INTER.POLAR>
0

>  <SCORE.INTER.ROT>
6

>  <SCORE.INTER.SOLV>
14.6262

>  <SCORE.INTER.VDW>
-15.429

>  <SCORE.INTER.norm>
-0.142916

>  <SCORE.INTRA>
-5.53868

>  <SCORE.INTRA.DIHEDRAL>
-14.2008

>  <SCORE.INTRA.DIHEDRAL.0>
18.77

>  <SCORE.INTRA.POLAR>
0

>  <SCORE.INTRA.POLAR.0>
0

>  <SCORE.INTRA.REPUL>
0.0183115

>  <SCORE.INTRA.REPUL.0>
0

>  <SCORE.INTRA.SOLV>
1.74035

>  <SCORE.INTRA.SOLV.lig_0>
-77.2465

>  <SCORE.INTRA.VDW>
0.600006

>  <SCORE.INTRA.VDW.0>
-4.16072

>  <SCORE.INTRA.norm>
-0.178667

>  <SCORE.RESTR>
0

>  <SCORE.RESTR.CAVITY>
0

>  <SCORE.RESTR.norm>
0

>  <SCORE.SYSTEM>
0

>  <SCORE.SYSTEM.CONST>
0

>  <SCORE.SYSTEM.DIHEDRAL>
0

>  <SCORE.SYSTEM.SOLV>
0

>  <SCORE.SYSTEM.norm>
0

>  <SCORE.heavy>
31

>  <SCORE.norm>
-0.321583

>  <RMSD>
7.258

$$$$
ligand
 OpenBabel11021811493D
libRbt.so/2013.1/901 2013/11/27
 31 33  0  0  0  0  0  0  0  0999 V2000
   -7.4781   -6.2898  -20.1848 C   0  0  2  0  0  0  0  0  0  0  0  0
   -8.0751   -7.1608  -21.1552 O   0  0  0  0  0  0  0  0  0  0  0  0
   -7.6541  -11.0835  -22.8161 C   0  0  2  0  0  0  0  0  0  0  0  0
   -7.0501  -12.2900  -23.2932 N   0  0  0  0  0  0  0  0  0  0  0  0
   -6.9663  -12.9793  -19.9063 C   0  0  2  0  0  0  0  0  0  0  0  0
   -6.5350   -5.3214  -20.9815 C   0  0  2  0  0  0  0  0  0  0  0  0
   -7.3063   -4.6008  -21.9884 N   0  0  0  0  0  0  0  0  0  0  0  0
   -7.1089   -9.8704  -23.6642 C   0  0  0  0  0  0  0  0  0  0  0  0
   -7.7022  -13.3193  -18.5736 C   0  0  2  0  0  0  0  0  0  0  0  0
   -8.9891  -13.8315  -18.8745 O   0  0  0  0  0  0  0  0  0  0  0  0
   -5.3765   -6.1398  -21.6508 C   0  0  0  0  0  0  0  0  0  0  0  0
   -7.7865   -8.5318  -23.1386 C   0  0  2  0  0  0  0  0  0  0  0  0
   -7.2803   -7.3843  -23.9273 N   0  0  0  0  0  0  0  0  0  0  0  0
   -7.8077  -11.9668  -17.7394 C   0  0  1  0  0  0  0  0  0  0  0  0
   -8.5375  -12.1972  -16.4464 N   0  0  0  0  0  0  0  0  0  0  0  0
   -4.7352   -7.1262  -20.6324 C   0  0  0  0  0  0  0  0  0  0  0  0
   -7.4465   -8.3341  -21.5945 C   0  0  2  0  0  0  0  0  0  0  0  0
   -6.3081  -11.4189  -17.4172 C   0  0  1  0  0  0  0  0  0  0  0  0
   -5.5553  -12.3447  -16.6575 O   0  0  0  0  0  0  0  0  0  0  0  0
   -5.3907   -7.4960  -19.5219 C   0  0  2  0  0  0  0  0  0  0  0  0
   -6.7060   -7.0209  -19.1856 O   0  0  0  0  0  0  0  0  0  0  0  0
   -7.9819   -9.5833  -20.7769 C   0  0  2  0  0  0  0  0  0  0  0  0
   -7.6604   -9.4290  -19.3888 O   0  0  0  0  0  0  0  0  0  0  0  0
   -5.5462  -11.1766  -18.7637 C   0  0  0  0  0  0  0  0  0  0  0  0
   -5.5917  -12.4343  -19.6151 O   0  0  0  0  0  0  0  0  0  0  0  0
   -4.7692   -8.4729  -18.4967 C   0  0  0  0  0  0  0  0  0  0  0  0
   -3.5468   -9.0422  -19.0463 N   0  0  0  0  0  0  0  0  0  0  0  0
   -7.3047  -10.8975  -21.3098 C   0  0  1  0  0  0  0  0  0  0  0  0
   -7.8076  -11.9811  -20.5656 O   0  0  0  0  0  0  0  0  0  0  0  0
   -6.2341  -10.1085  -16.6162 C   0  0  0  0  0  0  0  0  0  0  0  0
   -9.3168  -11.0594  -15.9228 C   0  0  0  0  0  0  0  0  0  0  0  0
  1  2  1  6  0  0  0
  1  6  1  0  0  0  0
  1 21  1  0  0  0  0
  3  4  1  6  0  0  0
  3  8  1  0  0  0  0
  3 28  1  0  0  0  0
  5  9  1  0  0  0  0
  5 25  1  0  0  0  0
  5 29  1  1  0  0  0
  6  7  1  6  0  0  0
  6 11  1  0  0  0  0
  8 12  1  0  0  0  0
  9 10  1  6  0  0  0
  9 14  1  0  0  0  0
 11 16  1  0  0  0  0
 12 13  1  6  0  0  0
 12 17  1  0  0  0  0
 14 15  1  1  0  0  0
 14 18  1  0  0  0  0
 15 31  1  0  0  0  0
 16 20  1  0  0  0  0
 17  2  1  1  0  0  0
 17 22  1  0  0  0  0
 18 19  1  1  0  0  0
 18 24  1  0  0  0  0
 18 30  1  0  0  0  0
 20 21  1  0  0  0  0
 20 26  1  1  0  0  0
 22 23  1  1  0  0  0
 22 28  1  0  0  0  0
 24 25  1  0  0  0  0
 26 27  1  0  0  0  0
 28 29  1  1  0  0  0
M  END
>  <CHROM.1>
85.59353136,143.26647596,-149.08670319,-144.41619464,-9.29546548,112.13637571
-6.89556540,-9.73292642,-19.95410536,-1.25879810,1.23639020,2.25270422

>  <Name>
ligand

>  <RI>
0

>  <Rbt.Current_Directory>
/home/itssahil/PROJECTS/Mol_Feturizer/New_Systems/rnas/4F8U

>  <Rbt.Executable>
rbdock ($Id: //depot/dev/client3/rdock/2013.1/src/exe/rbdock.cxx#4 $)

>  <Rbt.Library>
libRbt.so (2013.1, Build901 2013/11/27)

>  <Rbt.Parameter_File>
/export/apps/rDock/src/rDock_2013.1_src/data/scripts/dock_solv.prm

>  <Rbt.Receptor>
prm/blind_docking_60.prm

>  <SCORE>
25.1875

>  <SCORE.INTER>
-3.59505

>  <SCORE.INTER.CONST>
1

>  <SCORE.INTER.POLAR>
0

>  <SCORE.INTER.ROT>
6

>  <SCORE.INTER.SOLV>
27.503

>  <SCORE.INTER.VDW>
-19.1644

>  <SCORE.INTER.norm>
-0.115969

>  <SCORE.INTRA>
10.1879

>  <SCORE.INTRA.DIHEDRAL>
2.80509

>  <SCORE.INTRA.DIHEDRAL.0>
18.77

>  <SCORE.INTRA.POLAR>
0

>  <SCORE.INTRA.POLAR.0>
0

>  <SCORE.INTRA.REPUL>
0

>  <SCORE.INTRA.REPUL.0>
0

>  <SCORE.INTRA.SOLV>
5.13192

>  <SCORE.INTRA.SOLV.lig_0>
-77.2465

>  <SCORE.INTRA.VDW>
6.21943

>  <SCORE.INTRA.VDW.0>
-4.16072

>  <SCORE.INTRA.norm>
0.328643

>  <SCORE.RESTR>
18.5946

>  <SCORE.RESTR.CAVITY>
18.5946

>  <SCORE.RESTR.norm>
0.599826

>  <SCORE.SYSTEM>
0

>  <SCORE.SYSTEM.CONST>
0

>  <SCORE.SYSTEM.DIHEDRAL>
0

>  <SCORE.SYSTEM.SOLV>
0

>  <SCORE.SYSTEM.norm>
0

>  <SCORE.heavy>
31

>  <SCORE.norm>
0.8125

>  <RMSD>
7.290

$$$$
ligand
 OpenBabel11021811493D
libRbt.so/2013.1/901 2013/11/27
 31 33  0  0  0  0  0  0  0  0999 V2000
   -5.6084  -12.0877  -12.1148 C   0  0  2  0  0  0  0  0  0  0  0  0
   -5.5782  -10.7050  -12.4939 O   0  0  0  0  0  0  0  0  0  0  0  0
   -5.1459  -11.0214  -16.7409 C   0  0  2  0  0  0  0  0  0  0  0  0
   -5.0187  -10.6482  -18.1166 N   0  0  0  0  0  0  0  0  0  0  0  0
   -2.1456  -10.5390  -17.7109 C   0  0  2  0  0  0  0  0  0  0  0  0
   -5.9823  -12.1198  -10.5912 C   0  0  2  0  0  0  0  0  0  0  0  0
   -7.2611  -11.4494  -10.3838 N   0  0  0  0  0  0  0  0  0  0  0  0
   -6.5149  -10.4675  -16.1867 C   0  0  0  0  0  0  0  0  0  0  0  0
   -0.8465  -11.3920  -17.8445 C   0  0  2  0  0  0  0  0  0  0  0  0
   -1.1934  -12.7662  -17.8344 O   0  0  0  0  0  0  0  0  0  0  0  0
   -4.8513  -11.4294   -9.7522 C   0  0  0  0  0  0  0  0  0  0  0  0
   -6.6587  -10.8896  -14.6608 C   0  0  2  0  0  0  0  0  0  0  0  0
   -7.9413  -10.3729  -14.1286 N   0  0  0  0  0  0  0  0  0  0  0  0
    0.0812  -11.0291  -16.6019 C   0  0  1  0  0  0  0  0  0  0  0  0
    1.3485  -11.8354  -16.6333 N   0  0  0  0  0  0  0  0  0  0  0  0
   -3.4483  -11.9479  -10.1813 C   0  0  0  0  0  0  0  0  0  0  0  0
   -5.4361  -10.2978  -13.8277 C   0  0  2  0  0  0  0  0  0  0  0  0
    0.4535   -9.4445  -16.6574 C   0  0  1  0  0  0  0  0  0  0  0  0
    1.1514   -9.1030  -17.8395 O   0  0  0  0  0  0  0  0  0  0  0  0
   -3.2649  -12.5414  -11.3703 C   0  0  2  0  0  0  0  0  0  0  0  0
   -4.3232  -12.7467  -12.3225 O   0  0  0  0  0  0  0  0  0  0  0  0
   -4.0768  -10.8511  -14.4291 C   0  0  2  0  0  0  0  0  0  0  0  0
   -2.9675  -10.3065  -13.7032 O   0  0  0  0  0  0  0  0  0  0  0  0
   -0.8661   -8.6021  -16.6231 C   0  0  0  0  0  0  0  0  0  0  0  0
   -1.8053   -9.0708  -17.7217 O   0  0  0  0  0  0  0  0  0  0  0  0
   -1.8791  -13.0656  -11.8136 C   0  0  0  0  0  0  0  0  0  0  0  0
   -1.9135  -14.5188  -11.9002 N   0  0  0  0  0  0  0  0  0  0  0  0
   -3.9513  -10.4277  -15.9373 C   0  0  1  0  0  0  0  0  0  0  0  0
   -2.7388  -10.9400  -16.4357 O   0  0  0  0  0  0  0  0  0  0  0  0
    1.3465   -8.9284  -15.5169 C   0  0  0  0  0  0  0  0  0  0  0  0
    1.3749  -13.0467  -15.7917 C   0  0  0  0  0  0  0  0  0  0  0  0
  1  2  1  1  0  0  0
  1  6  1  0  0  0  0
  1 21  1  0  0  0  0
  3  4  1  6  0  0  0
  3  8  1  0  0  0  0
  3 28  1  0  0  0  0
  5  9  1  0  0  0  0
  5 25  1  0  0  0  0
  5 29  1  1  0  0  0
  6  7  1  6  0  0  0
  6 11  1  0  0  0  0
  8 12  1  0  0  0  0
  9 10  1  1  0  0  0
  9 14  1  0  0  0  0
 11 16  1  0  0  0  0
 12 13  1  1  0  0  0
 12 17  1  0  0  0  0
 14 15  1  6  0  0  0
 14 18  1  0  0  0  0
 15 31  1  0  0  0  0
 16 20  1  0  0  0  0
 17  2  1  1  0  0  0
 17 22  1  0  0  0  0
 18 19  1  6  0  0  0
 18 24  1  0  0  0  0
 18 30  1  0  0  0  0
 20 21  1  0  0  0  0
 20 26  1  1  0  0  0
 22 23  1  1  0  0  0
 22 28  1  0  0  0  0
 24 25  1  0  0  0  0
 26 27  1  0  0  0  0
 28 29  1  6  0  0  0
M  END
>  <CHROM.1>
-172.09740427,-178.57619623,-97.67184412,59.93778439,113.14962944,73.34055660
-3.04177578,-11.11091415,-14.66095049,-2.36062056,0.16127769,-1.18651464

>  <Name>
ligand

>  <RI>
0

>  <Rbt.Current_Directory>
/home/itssahil/PROJECTS/Mol_Feturizer/New_Systems/rnas/4F8U

>  <Rbt.Executable>
rbdock ($Id: //depot/dev/client3/rdock/2013.1/src/exe/rbdock.cxx#4 $)

>  <Rbt.Library>
libRbt.so (2013.1, Build901 2013/11/27)

>  <Rbt.Parameter_File>
/export/apps/rDock/src/rDock_2013.1_src/data/scripts/dock_solv.prm

>  <Rbt.Receptor>
prm/pocket_docking_6.prm

>  <SCORE>
-10.6936

>  <SCORE.INTER>
-3.45555

>  <SCORE.INTER.CONST>
1

>  <SCORE.INTER.POLAR>
0

>  <SCORE.INTER.ROT>
6

>  <SCORE.INTER.SOLV>
8.93268

>  <SCORE.INTER.VDW>
-12.8813

>  <SCORE.INTER.norm>
-0.111469

>  <SCORE.INTRA>
-7.23802

>  <SCORE.INTRA.DIHEDRAL>
-15.0323

>  <SCORE.INTRA.DIHEDRAL.0>
18.77

>  <SCORE.INTRA.POLAR>
0

>  <SCORE.INTRA.POLAR.0>
0

>  <SCORE.INTRA.REPUL>
0

>  <SCORE.INTRA.REPUL.0>
0

>  <SCORE.INTRA.SOLV>
-0.469861

>  <SCORE.INTRA.SOLV.lig_0>
-77.2465

>  <SCORE.INTRA.VDW>
0.513089

>  <SCORE.INTRA.VDW.0>
-4.16072

>  <SCORE.INTRA.norm>
-0.233484

>  <SCORE.RESTR>
0

>  <SCORE.RESTR.CAVITY>
0

>  <SCORE.RESTR.norm>
0

>  <SCORE.SYSTEM>
0

>  <SCORE.SYSTEM.CONST>
0

>  <SCORE.SYSTEM.DIHEDRAL>
0

>  <SCORE.SYSTEM.SOLV>
0

>  <SCORE.SYSTEM.norm>
0

>  <SCORE.heavy>
31

>  <SCORE.norm>
-0.344954

>  <RMSD>
7.319

$$$$
ligand
 OpenBabel11021811493D
libRbt.so/2013.1/901 2013/11/27
 31 33  0  0  0  0  0  0  0  0999 V2000
   -4.3690  -10.7680  -12.4187 C   0  0  2  0  0  0  0  0  0  0  0  0
   -3.9359  -11.9241  -13.1482 O   0  0  0  0  0  0  0  0  0  0  0  0
   -3.5581  -10.3284  -17.1023 C   0  0  2  0  0  0  0  0  0  0  0  0
   -3.2311  -10.2272  -18.4919 N   0  0  0  0  0  0  0  0  0  0  0  0
   -6.8795  -12.1843  -17.6240 C   0  0  2  0  0  0  0  0  0  0  0  0
   -4.4134  -11.1900  -10.9081 C   0  0  2  0  0  0  0  0  0  0  0  0
   -3.0979  -11.6615  -10.4897 N   0  0  0  0  0  0  0  0  0  0  0  0
   -2.2317  -10.5662  -16.2824 C   0  0  0  0  0  0  0  0  0  0  0  0
   -6.4040  -13.4497  -18.4024 C   0  0  2  0  0  0  0  0  0  0  0  0
   -5.2911  -14.0141  -17.7302 O   0  0  0  0  0  0  0  0  0  0  0  0
   -5.4950  -12.3066  -10.7002 C   0  0  0  0  0  0  0  0  0  0  0  0
   -2.5952  -10.6705  -14.7383 C   0  0  2  0  0  0  0  0  0  0  0  0
   -1.3563  -10.8958  -13.9576 N   0  0  0  0  0  0  0  0  0  0  0  0
   -6.0033  -12.9740  -19.8684 C   0  0  1  0  0  0  0  0  0  0  0  0
   -5.4989  -14.1320  -20.6820 N   0  0  0  0  0  0  0  0  0  0  0  0
   -6.8300  -11.9218  -11.4009 C   0  0  0  0  0  0  0  0  0  0  0  0
   -3.6171  -11.8720  -14.5123 C   0  0  2  0  0  0  0  0  0  0  0  0
   -7.3112  -12.3357  -20.5997 C   0  0  1  0  0  0  0  0  0  0  0  0
   -8.3656  -13.2716  -20.7156 O   0  0  0  0  0  0  0  0  0  0  0  0
   -6.8581  -11.0016  -12.3766 C   0  0  2  0  0  0  0  0  0  0  0  0
   -5.6873  -10.3080  -12.8425 O   0  0  0  0  0  0  0  0  0  0  0  0
   -4.9247  -11.6153  -15.3725 C   0  0  2  0  0  0  0  0  0  0  0  0
   -5.8425  -12.7020  -15.1967 O   0  0  0  0  0  0  0  0  0  0  0  0
   -7.8376  -11.1274  -19.7540 C   0  0  0  0  0  0  0  0  0  0  0  0
   -8.0659  -11.5648  -18.3169 O   0  0  0  0  0  0  0  0  0  0  0  0
   -8.1751  -10.6038  -13.0831 C   0  0  0  0  0  0  0  0  0  0  0  0
   -8.0909  -10.9438  -14.4965 N   0  0  0  0  0  0  0  0  0  0  0  0
   -4.5481  -11.5125  -16.8947 C   0  0  1  0  0  0  0  0  0  0  0  0
   -5.7301  -11.2800  -17.6227 O   0  0  0  0  0  0  0  0  0  0  0  0
   -7.0904  -11.8205  -22.0315 C   0  0  0  0  0  0  0  0  0  0  0  0
   -4.0684  -14.4615  -20.5353 C   0  0  0  0  0  0  0  0  0  0  0  0
  1  2  1  6  0  0  0
  1  6  1  0  0  0  0
  1 21  1  0  0  0  0
  3  4  1  6  0  0  0
  3  8  1  0  0  0  0
  3 28  1  0  0  0  0
  5  9  1  0  0  0  0
  5 25  1  0  0  0  0
  5 29  1  6  0  0  0
  6  7  1  6  0  0  0
  6 11  1  0  0  0  0
  8 12  1  0  0  0  0
  9 10  1  1  0  0  0
  9 14  1  0  0  0  0
 11 16  1  0  0  0  0
 12 13  1  1  0  0  0
 12 17  1  0  0  0  0
 14 15  1  6  0  0  0
 14 18  1  0  0  0  0
 15 31  1  0  0  0  0
 16 20  1  0  0  0  0
 17  2  1  1  0  0  0
 17 22  1  0  0  0  0
 18 19  1  6  0  0  0
 18 24  1  0  0  0  0
 18 30  1  0  0  0  0
 20 21  1  0  0  0  0
 20 26  1  1  0  0  0
 22 23  1  6  0  0  0
 22 28  1  0  0  0  0
 24 25  1  0  0  0  0
 26 27  1  0  0  0  0
 28 29  1  6  0  0  0
M  END
>  <CHROM.1>
-171.73405469,-69.64314461,-85.15014894,50.73544139,-117.39152824,-178.63650569
-5.42752304,-11.81473429,-16.10629595,-1.35190085,-0.05966419,-1.73227982

>  <Name>
ligand

>  <RI>
0

>  <Rbt.Current_Directory>
/home/itssahil/PROJECTS/Mol_Feturizer/New_Systems/rnas/4F8U

>  <Rbt.Executable>
rbdock ($Id: //depot/dev/client3/rdock/2013.1/src/exe/rbdock.cxx#4 $)

>  <Rbt.Library>
libRbt.so (2013.1, Build901 2013/11/27)

>  <Rbt.Parameter_File>
/export/apps/rDock/src/rDock_2013.1_src/data/scripts/dock_solv.prm

>  <Rbt.Receptor>
prm/pocket_docking_6.prm

>  <SCORE>
-9.17142

>  <SCORE.INTER>
-4.13023

>  <SCORE.INTER.CONST>
1

>  <SCORE.INTER.POLAR>
0

>  <SCORE.INTER.ROT>
6

>  <SCORE.INTER.SOLV>
15.5189

>  <SCORE.INTER.VDW>
-15.5265

>  <SCORE.INTER.norm>
-0.133233

>  <SCORE.INTRA>
-5.04119

>  <SCORE.INTRA.DIHEDRAL>
-15.4218

>  <SCORE.INTRA.DIHEDRAL.0>
18.77

>  <SCORE.INTRA.POLAR>
0

>  <SCORE.INTRA.POLAR.0>
0

>  <SCORE.INTRA.REPUL>
0

>  <SCORE.INTRA.REPUL.0>
0

>  <SCORE.INTRA.SOLV>
2.5636

>  <SCORE.INTRA.SOLV.lig_0>
-77.2465

>  <SCORE.INTRA.VDW>
1.38792

>  <SCORE.INTRA.VDW.0>
-4.16072

>  <SCORE.INTRA.norm>
-0.162619

>  <SCORE.RESTR>
0

>  <SCORE.RESTR.CAVITY>
0

>  <SCORE.RESTR.norm>
0

>  <SCORE.SYSTEM>
0

>  <SCORE.SYSTEM.CONST>
0

>  <SCORE.SYSTEM.DIHEDRAL>
0

>  <SCORE.SYSTEM.SOLV>
0

>  <SCORE.SYSTEM.norm>
0

>  <SCORE.heavy>
31

>  <SCORE.norm>
-0.295852

>  <RMSD>
7.420

$$$$
ligand
 OpenBabel11021811493D
libRbt.so/2013.1/901 2013/11/27
 31 33  0  0  0  0  0  0  0  0999 V2000
   -9.6107   -5.2438  -12.3600 C   0  0  2  0  0  0  0  0  0  0  0  0
   -9.7439   -5.7344  -11.0191 O   0  0  0  0  0  0  0  0  0  0  0  0
   -9.4891   -9.4318   -8.8772 C   0  0  2  0  0  0  0  0  0  0  0  0
   -9.6639  -10.8115   -8.5399 N   0  0  0  0  0  0  0  0  0  0  0  0
   -6.5346  -10.1187  -11.2287 C   0  0  2  0  0  0  0  0  0  0  0  0
  -11.0598   -4.8909  -12.8473 C   0  0  2  0  0  0  0  0  0  0  0  0
  -11.6583   -3.9132  -11.9452 N   0  0  0  0  0  0  0  0  0  0  0  0
  -10.9074   -8.7507   -8.9896 C   0  0  0  0  0  0  0  0  0  0  0  0
   -6.8332  -11.5511  -11.7693 C   0  0  2  0  0  0  0  0  0  0  0  0
   -8.1860  -11.6140  -12.1876 O   0  0  0  0  0  0  0  0  0  0  0  0
  -11.9308   -6.1937  -12.9104 C   0  0  0  0  0  0  0  0  0  0  0  0
  -10.7116   -7.2163   -9.3565 C   0  0  2  0  0  0  0  0  0  0  0  0
  -12.0384   -6.5660   -9.4666 N   0  0  0  0  0  0  0  0  0  0  0  0
   -6.5578  -12.5685  -10.5755 C   0  0  1  0  0  0  0  0  0  0  0  0
   -6.8543  -13.9784  -11.0016 N   0  0  0  0  0  0  0  0  0  0  0  0
  -11.1642   -7.3380  -13.6346 C   0  0  0  0  0  0  0  0  0  0  0  0
   -9.9209   -7.0955  -10.7345 C   0  0  2  0  0  0  0  0  0  0  0  0
   -4.9944  -12.4612  -10.1315 C   0  0  1  0  0  0  0  0  0  0  0  0
   -4.1166  -12.7834  -11.1929 O   0  0  0  0  0  0  0  0  0  0  0  0
   -9.8291   -7.3033  -13.7609 C   0  0  2  0  0  0  0  0  0  0  0  0
   -9.0151   -6.2313  -13.2541 O   0  0  0  0  0  0  0  0  0  0  0  0
   -8.5142   -7.8149  -10.5952 C   0  0  2  0  0  0  0  0  0  0  0  0
   -7.8027   -7.7344  -11.8366 O   0  0  0  0  0  0  0  0  0  0  0  0
   -4.6836  -10.9926   -9.6854 C   0  0  0  0  0  0  0  0  0  0  0  0
   -5.0994  -10.0230  -10.7789 O   0  0  0  0  0  0  0  0  0  0  0  0
   -9.0497   -8.4293  -14.4794 C   0  0  0  0  0  0  0  0  0  0  0  0
   -7.6473   -8.3747  -14.0911 N   0  0  0  0  0  0  0  0  0  0  0  0
   -8.7250   -9.3289  -10.2304 C   0  0  1  0  0  0  0  0  0  0  0  0
   -7.4581   -9.9301  -10.1105 O   0  0  0  0  0  0  0  0  0  0  0  0
   -4.5633  -13.3826   -8.9783 C   0  0  0  0  0  0  0  0  0  0  0  0
   -7.5504  -14.8274  -10.0164 C   0  0  0  0  0  0  0  0  0  0  0  0
  1  2  1  1  0  0  0
  1  6  1  0  0  0  0
  1 21  1  0  0  0  0
  3  4  1  6  0  0  0
  3  8  1  0  0  0  0
  3 28  1  0  0  0  0
  5  9  1  0  0  0  0
  5 25  1  0  0  0  0
  5 29  1  1  0  0  0
  6  7  1  1  0  0  0
  6 11  1  0  0  0  0
  8 12  1  0  0  0  0
  9 10  1  1  0  0  0
  9 14  1  0  0  0  0
 11 16  1  0  0  0  0
 12 13  1  6  0  0  0
 12 17  1  0  0  0  0
 14 15  1  6  0  0  0
 14 18  1  0  0  0  0
 15 31  1  0  0  0  0
 16 20  1  0  0  0  0
 17  2  1  1  0  0  0
 17 22  1  0  0  0  0
 18 19  1  6  0  0  0
 18 24  1  0  0  0  0
 18 30  1  0  0  0  0
 20 21  1  0  0  0  0
 20 26  1  6  0  0  0
 22 23  1  6  0  0  0
 22 28  1  0  0  0  0
 24 25  1  0  0  0  0
 26 27  1  0  0  0  0
 28 29  1  1  0  0  0
M  END
>  <CHROM.1>
91.02861590,-93.14233025,-138.72286058,-152.74709735,-161.16404794,174.03567428
-8.40747866,-9.14370851,-11.18833509,-2.45195537,-0.72443309,2.21062529

>  <Name>
ligand

>  <RI>
0

>  <Rbt.Current_Directory>
/home/itssahil/PROJECTS/Mol_Feturizer/New_Systems/rnas/4F8U

>  <Rbt.Executable>
rbdock ($Id: //depot/dev/client3/rdock/2013.1/src/exe/rbdock.cxx#4 $)

>  <Rbt.Library>
libRbt.so (2013.1, Build901 2013/11/27)

>  <Rbt.Parameter_File>
/export/apps/rDock/src/rDock_2013.1_src/data/scripts/dock_solv.prm

>  <Rbt.Receptor>
prm/blind_docking_20.prm

>  <SCORE>
15.9487

>  <SCORE.INTER>
3.71596

>  <SCORE.INTER.CONST>
1

>  <SCORE.INTER.POLAR>
0

>  <SCORE.INTER.ROT>
6

>  <SCORE.INTER.SOLV>
15.9486

>  <SCORE.INTER.VDW>
-10.4389

>  <SCORE.INTER.norm>
0.11987

>  <SCORE.INTRA>
4.32891

>  <SCORE.INTRA.DIHEDRAL>
-3.42153

>  <SCORE.INTRA.DIHEDRAL.0>
18.77

>  <SCORE.INTRA.POLAR>
0

>  <SCORE.INTRA.POLAR.0>
0

>  <SCORE.INTRA.REPUL>
0

>  <SCORE.INTRA.REPUL.0>
0

>  <SCORE.INTRA.SOLV>
5.24881

>  <SCORE.INTRA.SOLV.lig_0>
-77.2465

>  <SCORE.INTRA.VDW>
3.41527

>  <SCORE.INTRA.VDW.0>
-4.16072

>  <SCORE.INTRA.norm>
0.139642

>  <SCORE.RESTR>
7.90388

>  <SCORE.RESTR.CAVITY>
7.90388

>  <SCORE.RESTR.norm>
0.254964

>  <SCORE.SYSTEM>
0

>  <SCORE.SYSTEM.CONST>
0

>  <SCORE.SYSTEM.DIHEDRAL>
0

>  <SCORE.SYSTEM.SOLV>
0

>  <SCORE.SYSTEM.norm>
0

>  <SCORE.heavy>
31

>  <SCORE.norm>
0.514476

>  <RMSD>
7.494

$$$$
ligand
 OpenBabel11021811493D
libRbt.so/2013.1/901 2013/11/27
 31 33  0  0  0  0  0  0  0  0999 V2000
   -1.4831  -11.1244  -13.2999 C   0  0  2  0  0  0  0  0  0  0  0  0
   -1.6317  -12.0721  -14.3659 O   0  0  0  0  0  0  0  0  0  0  0  0
   -3.0588   -9.5730  -17.5348 C   0  0  2  0  0  0  0  0  0  0  0  0
   -3.4336   -9.1356  -18.8448 N   0  0  0  0  0  0  0  0  0  0  0  0
   -6.0043   -9.8946  -18.2770 C   0  0  2  0  0  0  0  0  0  0  0  0
   -0.7570  -11.8821  -12.1334 C   0  0  2  0  0  0  0  0  0  0  0  0
    0.5200  -12.4055  -12.6058 N   0  0  0  0  0  0  0  0  0  0  0  0
   -1.5301   -9.9614  -17.5448 C   0  0  0  0  0  0  0  0  0  0  0  0
   -7.5177  -10.0686  -17.9419 C   0  0  2  0  0  0  0  0  0  0  0  0
   -7.8141   -9.3488  -16.7574 O   0  0  0  0  0  0  0  0  0  0  0  0
   -1.6704  -13.0420  -11.6040 C   0  0  0  0  0  0  0  0  0  0  0  0
   -1.1130  -10.4396  -16.0872 C   0  0  2  0  0  0  0  0  0  0  0  0
    0.3219  -10.8089  -16.0848 N   0  0  0  0  0  0  0  0  0  0  0  0
   -7.7763  -11.6272  -17.7415 C   0  0  1  0  0  0  0  0  0  0  0  0
   -9.2119  -11.8842  -17.3805 N   0  0  0  0  0  0  0  0  0  0  0  0
   -3.1240  -12.5389  -11.3685 C   0  0  0  0  0  0  0  0  0  0  0  0
   -2.0059  -11.6886  -15.6612 C   0  0  2  0  0  0  0  0  0  0  0  0
   -7.4242  -12.4099  -19.1258 C   0  0  1  0  0  0  0  0  0  0  0  0
   -8.2248  -11.9682  -20.2051 O   0  0  0  0  0  0  0  0  0  0  0  0
   -3.5723  -11.4205  -11.9585 C   0  0  2  0  0  0  0  0  0  0  0  0
   -2.7666  -10.6110  -12.8328 O   0  0  0  0  0  0  0  0  0  0  0  0
   -3.5360  -11.2719  -15.6902 C   0  0  2  0  0  0  0  0  0  0  0  0
   -4.3518  -12.3945  -15.3323 O   0  0  0  0  0  0  0  0  0  0  0  0
   -5.9277  -12.1446  -19.5031 C   0  0  0  0  0  0  0  0  0  0  0  0
   -5.6619  -10.6490  -19.5360 O   0  0  0  0  0  0  0  0  0  0  0  0
   -5.0123  -10.9030  -11.7348 C   0  0  0  0  0  0  0  0  0  0  0  0
   -5.8719  -11.3758  -12.8108 N   0  0  0  0  0  0  0  0  0  0  0  0
   -3.9313  -10.7999  -17.1361 C   0  0  1  0  0  0  0  0  0  0  0  0
   -5.2904  -10.4345  -17.1204 O   0  0  0  0  0  0  0  0  0  0  0  0
   -7.6177  -13.9351  -19.0980 C   0  0  0  0  0  0  0  0  0  0  0  0
   -9.5508  -11.8048  -15.9470 C   0  0  0  0  0  0  0  0  0  0  0  0
  1  2  1  6  0  0  0
  1  6  1  0  0  0  0
  1 21  1  0  0  0  0
  3  4  1  6  0  0  0
  3  8  1  0  0  0  0
  3 28  1  0  0  0  0
  5  9  1  0  0  0  0
  5 25  1  0  0  0  0
  5 29  1  1  0  0  0
  6  7  1  6  0  0  0
  6 11  1  0  0  0  0
  8 12  1  0  0  0  0
  9 10  1  1  0  0  0
  9 14  1  0  0  0  0
 11 16  1  0  0  0  0
 12 13  1  6  0  0  0
 12 17  1  0  0  0  0
 14 15  1  6  0  0  0
 14 18  1  0  0  0  0
 15 31  1  0  0  0  0
 16 20  1  0  0  0  0
 17  2  1  1  0  0  0
 17 22  1  0  0  0  0
 18 19  1  6  0  0  0
 18 24  1  0  0  0  0
 18 30  1  0  0  0  0
 20 21  1  0  0  0  0
 20 26  1  1  0  0  0
 22 23  1  6  0  0  0
 22 28  1  0  0  0  0
 24 25  1  0  0  0  0
 26 27  1  0  0  0  0
 28 29  1  1  0  0  0
M  END
>  <CHROM.1>
-167.55708283,162.58230575,-86.60422647,47.39764613,-95.41766185,58.36326823
-4.43356653,-11.28337036,-15.92956795,-0.73862633,-0.14091922,-1.37248677

>  <Name>
ligand

>  <RI>
0

>  <Rbt.Current_Directory>
/home/itssahil/PROJECTS/Mol_Feturizer/New_Systems/rnas/4F8U

>  <Rbt.Executable>
rbdock ($Id: //depot/dev/client3/rdock/2013.1/src/exe/rbdock.cxx#4 $)

>  <Rbt.Library>
libRbt.so (2013.1, Build901 2013/11/27)

>  <Rbt.Parameter_File>
/export/apps/rDock/src/rDock_2013.1_src/data/scripts/dock_solv.prm

>  <Rbt.Receptor>
prm/pocket_docking_3.prm

>  <SCORE>
-6.57088

>  <SCORE.INTER>
-2.86231

>  <SCORE.INTER.CONST>
1

>  <SCORE.INTER.POLAR>
0

>  <SCORE.INTER.ROT>
6

>  <SCORE.INTER.SOLV>
17.3947

>  <SCORE.INTER.VDW>
-15.3064

>  <SCORE.INTER.norm>
-0.0923325

>  <SCORE.INTRA>
-4.18166

>  <SCORE.INTRA.DIHEDRAL>
-13.0001

>  <SCORE.INTRA.DIHEDRAL.0>
18.77

>  <SCORE.INTRA.POLAR>
0

>  <SCORE.INTRA.POLAR.0>
0

>  <SCORE.INTRA.REPUL>
0.0001271

>  <SCORE.INTRA.REPUL.0>
0

>  <SCORE.INTRA.SOLV>
2.27651

>  <SCORE.INTRA.SOLV.lig_0>
-77.2465

>  <SCORE.INTRA.VDW>
1.17951

>  <SCORE.INTRA.VDW.0>
-4.16072

>  <SCORE.INTRA.norm>
-0.134892

>  <SCORE.RESTR>
0.473092

>  <SCORE.RESTR.CAVITY>
0.473092

>  <SCORE.RESTR.norm>
0.015261

>  <SCORE.SYSTEM>
0

>  <SCORE.SYSTEM.CONST>
0

>  <SCORE.SYSTEM.DIHEDRAL>
0

>  <SCORE.SYSTEM.SOLV>
0

>  <SCORE.SYSTEM.norm>
0

>  <SCORE.heavy>
31

>  <SCORE.norm>
-0.211964

>  <RMSD>
7.519

$$$$
ligand
 OpenBabel11021811493D
libRbt.so/2013.1/901 2013/11/27
 31 33  0  0  0  0  0  0  0  0999 V2000
   -7.9431   -9.1749  -24.5446 C   0  0  2  0  0  0  0  0  0  0  0  0
   -7.4690   -8.2577  -23.5494 O   0  0  0  0  0  0  0  0  0  0  0  0
   -6.7484   -8.6747  -19.3505 C   0  0  2  0  0  0  0  0  0  0  0  0
   -6.9887   -8.8250  -17.9478 N   0  0  0  0  0  0  0  0  0  0  0  0
   -6.8236  -11.6010  -18.2990 C   0  0  2  0  0  0  0  0  0  0  0  0
   -7.2456   -8.7666  -25.8895 C   0  0  2  0  0  0  0  0  0  0  0  0
   -5.7968   -8.8103  -25.7259 N   0  0  0  0  0  0  0  0  0  0  0  0
   -7.4286   -7.3401  -19.8444 C   0  0  0  0  0  0  0  0  0  0  0  0
   -5.6673  -12.6392  -18.1637 C   0  0  2  0  0  0  0  0  0  0  0  0
   -4.4299  -11.9832  -18.3812 O   0  0  0  0  0  0  0  0  0  0  0  0
   -7.7129   -7.3314  -26.3157 C   0  0  0  0  0  0  0  0  0  0  0  0
   -7.1542   -7.1703  -21.4010 C   0  0  2  0  0  0  0  0  0  0  0  0
   -7.7905   -5.9198  -21.8769 N   0  0  0  0  0  0  0  0  0  0  0  0
   -5.9174  -13.7638  -19.2633 C   0  0  1  0  0  0  0  0  0  0  0  0
   -4.8246  -14.7942  -19.2256 N   0  0  0  0  0  0  0  0  0  0  0  0
   -9.2601   -7.1997  -26.2143 C   0  0  0  0  0  0  0  0  0  0  0  0
   -7.7459   -8.4247  -22.1854 C   0  0  2  0  0  0  0  0  0  0  0  0
   -7.3466  -14.4885  -18.9716 C   0  0  1  0  0  0  0  0  0  0  0  0
   -7.3804  -15.1050  -17.6989 O   0  0  0  0  0  0  0  0  0  0  0  0
   -9.9776   -8.0453  -25.4593 C   0  0  2  0  0  0  0  0  0  0  0  0
   -9.3926   -9.1195  -24.7026 O   0  0  0  0  0  0  0  0  0  0  0  0
   -7.0625   -9.7498  -21.6444 C   0  0  2  0  0  0  0  0  0  0  0  0
   -7.6043  -10.8884  -22.3255 O   0  0  0  0  0  0  0  0  0  0  0  0
   -8.4872  -13.4163  -19.0120 C   0  0  0  0  0  0  0  0  0  0  0  0
   -8.1531  -12.2725  -18.0692 O   0  0  0  0  0  0  0  0  0  0  0  0
  -11.5159   -7.9323  -25.3479 C   0  0  0  0  0  0  0  0  0  0  0  0
  -11.8666   -7.2852  -24.0914 N   0  0  0  0  0  0  0  0  0  0  0  0
   -7.3410   -9.9014  -20.1052 C   0  0  1  0  0  0  0  0  0  0  0  0
   -6.7161  -11.0822  -19.6622 O   0  0  0  0  0  0  0  0  0  0  0  0
   -7.7422  -15.6036  -19.9536 C   0  0  0  0  0  0  0  0  0  0  0  0
   -4.0125  -14.9322  -20.4494 C   0  0  0  0  0  0  0  0  0  0  0  0
  1  2  1  1  0  0  0
  1  6  1  0  0  0  0
  1 21  1  0  0  0  0
  3  4  1  1  0  0  0
  3  8  1  0  0  0  0
  3 28  1  0  0  0  0
  5  9  1  0  0  0  0
  5 25  1  0  0  0  0
  5 29  1  6  0  0  0
  6  7  1  1  0  0  0
  6 11  1  0  0  0  0
  8 12  1  0  0  0  0
  9 10  1  6  0  0  0
  9 14  1  0  0  0  0
 11 16  1  0  0  0  0
 12 13  1  6  0  0  0
 12 17  1  0  0  0  0
 14 15  1  1  0  0  0
 14 18  1  0  0  0  0
 15 31  1  0  0  0  0
 16 20  1  0  0  0  0
 17  2  1  6  0  0  0
 17 22  1  0  0  0  0
 18 19  1  1  0  0  0
 18 24  1  0  0  0  0
 18 30  1  0  0  0  0
 20 21  1  0  0  0  0
 20 26  1  6  0  0  0
 22 23  1  6  0  0  0
 22 28  1  0  0  0  0
 24 25  1  0  0  0  0
 26 27  1  0  0  0  0
 28 29  1  1  0  0  0
M  END
>  <CHROM.1>
-171.53706030,-163.67239464,-118.16951281,-175.96062229,-101.40069481,64.67497537
-7.46313496,-10.38452814,-21.45191376,2.94250556,-1.27116744,0.56162850

>  <Name>
ligand

>  <RI>
0

>  <Rbt.Current_Directory>
/home/itssahil/PROJECTS/Mol_Feturizer/New_Systems/rnas/4F8U

>  <Rbt.Executable>
rbdock ($Id: //depot/dev/client3/rdock/2013.1/src/exe/rbdock.cxx#4 $)

>  <Rbt.Library>
libRbt.so (2013.1, Build901 2013/11/27)

>  <Rbt.Parameter_File>
/export/apps/rDock/src/rDock_2013.1_src/data/scripts/dock_solv.prm

>  <Rbt.Receptor>
prm/pocket_docking_8.prm

>  <SCORE>
-13.6461

>  <SCORE.INTER>
-7.00524

>  <SCORE.INTER.CONST>
1

>  <SCORE.INTER.POLAR>
0

>  <SCORE.INTER.ROT>
6

>  <SCORE.INTER.SOLV>
19.8289

>  <SCORE.INTER.VDW>
-18.8798

>  <SCORE.INTER.norm>
-0.225975

>  <SCORE.INTRA>
-6.6409

>  <SCORE.INTRA.DIHEDRAL>
-13.6971

>  <SCORE.INTRA.DIHEDRAL.0>
18.77

>  <SCORE.INTRA.POLAR>
0

>  <SCORE.INTRA.POLAR.0>
0

>  <SCORE.INTRA.REPUL>
0

>  <SCORE.INTRA.REPUL.0>
0

>  <SCORE.INTRA.SOLV>
-1.89172

>  <SCORE.INTRA.SOLV.lig_0>
-77.2465

>  <SCORE.INTRA.VDW>
1.1535

>  <SCORE.INTRA.VDW.0>
-4.16072

>  <SCORE.INTRA.norm>
-0.214223

>  <SCORE.RESTR>
0

>  <SCORE.RESTR.CAVITY>
0

>  <SCORE.RESTR.norm>
0

>  <SCORE.SYSTEM>
0

>  <SCORE.SYSTEM.CONST>
0

>  <SCORE.SYSTEM.DIHEDRAL>
0

>  <SCORE.SYSTEM.SOLV>
0

>  <SCORE.SYSTEM.norm>
0

>  <SCORE.heavy>
31

>  <SCORE.norm>
-0.440198

>  <RMSD>
7.559

$$$$
ligand
 OpenBabel11021811493D
libRbt.so/2013.1/901 2013/11/27
 31 33  0  0  0  0  0  0  0  0999 V2000
   -4.7716  -10.9514  -12.0238 C   0  0  2  0  0  0  0  0  0  0  0  0
   -4.0255  -11.9400  -12.7467 O   0  0  0  0  0  0  0  0  0  0  0  0
   -3.4220   -9.9523  -16.4895 C   0  0  2  0  0  0  0  0  0  0  0  0
   -2.9515   -9.6804  -17.8134 N   0  0  0  0  0  0  0  0  0  0  0  0
   -6.5107  -10.2957  -17.0679 C   0  0  2  0  0  0  0  0  0  0  0  0
   -5.0827  -11.5740  -10.6175 C   0  0  2  0  0  0  0  0  0  0  0  0
   -3.8360  -11.9379   -9.9533 N   0  0  0  0  0  0  0  0  0  0  0  0
   -2.1816  -10.0800  -15.5237 C   0  0  0  0  0  0  0  0  0  0  0  0
   -7.5514  -10.6324  -18.1801 C   0  0  2  0  0  0  0  0  0  0  0  0
   -7.8748  -12.0105  -18.1078 O   0  0  0  0  0  0  0  0  0  0  0  0
   -6.0087  -12.8286  -10.7853 C   0  0  0  0  0  0  0  0  0  0  0  0
   -2.7059  -10.3741  -14.0520 C   0  0  2  0  0  0  0  0  0  0  0  0
   -1.5484  -10.4979  -13.1354 N   0  0  0  0  0  0  0  0  0  0  0  0
   -6.8741  -10.2783  -19.5772 C   0  0  1  0  0  0  0  0  0  0  0  0
   -7.8010  -10.6051  -20.7136 N   0  0  0  0  0  0  0  0  0  0  0  0
   -7.2000  -12.5147  -11.7360 C   0  0  0  0  0  0  0  0  0  0  0  0
   -3.5588  -11.7200  -14.0501 C   0  0  2  0  0  0  0  0  0  0  0  0
   -6.5228   -8.6883  -19.6135 C   0  0  1  0  0  0  0  0  0  0  0  0
   -7.6783   -7.8849  -19.4707 O   0  0  0  0  0  0  0  0  0  0  0  0
   -7.1483  -11.4821  -12.5908 C   0  0  2  0  0  0  0  0  0  0  0  0
   -6.0182  -10.5985  -12.6951 O   0  0  0  0  0  0  0  0  0  0  0  0
   -4.7788  -11.5674  -15.0520 C   0  0  2  0  0  0  0  0  0  0  0  0
   -5.5405  -12.7812  -15.0778 O   0  0  0  0  0  0  0  0  0  0  0  0
   -5.5553   -8.3458  -18.4307 C   0  0  0  0  0  0  0  0  0  0  0  0
   -6.1506   -8.8332  -17.1204 O   0  0  0  0  0  0  0  0  0  0  0  0
   -8.3227  -11.1524  -13.5414 C   0  0  0  0  0  0  0  0  0  0  0  0
   -8.8542   -9.8354  -13.2197 N   0  0  0  0  0  0  0  0  0  0  0  0
   -4.2441  -11.2750  -16.5005 C   0  0  1  0  0  0  0  0  0  0  0  0
   -5.3529  -11.1412  -17.3570 O   0  0  0  0  0  0  0  0  0  0  0  0
   -5.8547   -8.1816  -20.9024 C   0  0  0  0  0  0  0  0  0  0  0  0
   -7.5944  -11.9085  -21.3729 C   0  0  0  0  0  0  0  0  0  0  0  0
  1  2  1  6  0  0  0
  1  6  1  0  0  0  0
  1 21  1  0  0  0  0
  3  4  1  6  0  0  0
  3  8  1  0  0  0  0
  3 28  1  0  0  0  0
  5  9  1  0  0  0  0
  5 25  1  0  0  0  0
  5 29  1  6  0  0  0
  6  7  1  6  0  0  0
  6 11  1  0  0  0  0
  8 12  1  0  0  0  0
  9 10  1  6  0  0  0
  9 14  1  0  0  0  0
 11 16  1  0  0  0  0
 12 13  1  1  0  0  0
 12 17  1  0  0  0  0
 14 15  1  6  0  0  0
 14 18  1  0  0  0  0
 15 31  1  0  0  0  0
 16 20  1  0  0  0  0
 17  2  1  1  0  0  0
 17 22  1  0  0  0  0
 18 19  1  1  0  0  0
 18 24  1  0  0  0  0
 18 30  1  0  0  0  0
 20 21  1  0  0  0  0
 20 26  1  1  0  0  0
 22 23  1  6  0  0  0
 22 28  1  0  0  0  0
 24 25  1  0  0  0  0
 26 27  1  0  0  0  0
 28 29  1  6  0  0  0
M  END
>  <CHROM.1>
-179.23928020,-171.82366422,-96.75871808,54.22910267,117.12946860,-70.23126939
-5.62544501,-10.69721337,-15.69633889,-1.34517415,-0.17254490,-1.29355669

>  <Name>
ligand

>  <RI>
0

>  <Rbt.Current_Directory>
/home/itssahil/PROJECTS/Mol_Feturizer/New_Systems/rnas/4F8U

>  <Rbt.Executable>
rbdock ($Id: //depot/dev/client3/rdock/2013.1/src/exe/rbdock.cxx#4 $)

>  <Rbt.Library>
libRbt.so (2013.1, Build901 2013/11/27)

>  <Rbt.Parameter_File>
/export/apps/rDock/src/rDock_2013.1_src/data/scripts/dock_solv.prm

>  <Rbt.Receptor>
prm/pocket_docking_4.prm

>  <SCORE>
-12.613

>  <SCORE.INTER>
-5.74743

>  <SCORE.INTER.CONST>
1

>  <SCORE.INTER.POLAR>
0

>  <SCORE.INTER.ROT>
6

>  <SCORE.INTER.SOLV>
17.0412

>  <SCORE.INTER.VDW>
-17.112

>  <SCORE.INTER.norm>
-0.185401

>  <SCORE.INTRA>
-6.86557

>  <SCORE.INTRA.DIHEDRAL>
-15.2714

>  <SCORE.INTRA.DIHEDRAL.0>
18.77

>  <SCORE.INTRA.POLAR>
0

>  <SCORE.INTRA.POLAR.0>
0

>  <SCORE.INTRA.REPUL>
0

>  <SCORE.INTRA.REPUL.0>
0

>  <SCORE.INTRA.SOLV>
0.610001

>  <SCORE.INTRA.SOLV.lig_0>
-77.2465

>  <SCORE.INTRA.VDW>
0.465124

>  <SCORE.INTRA.VDW.0>
-4.16072

>  <SCORE.INTRA.norm>
-0.22147

>  <SCORE.RESTR>
0

>  <SCORE.RESTR.CAVITY>
0

>  <SCORE.RESTR.norm>
0

>  <SCORE.SYSTEM>
0

>  <SCORE.SYSTEM.CONST>
0

>  <SCORE.SYSTEM.DIHEDRAL>
0

>  <SCORE.SYSTEM.SOLV>
0

>  <SCORE.SYSTEM.norm>
0

>  <SCORE.heavy>
31

>  <SCORE.norm>
-0.406871

>  <RMSD>
7.569

$$$$
ligand
 OpenBabel11021811493D
libRbt.so/2013.1/901 2013/11/27
 31 33  0  0  0  0  0  0  0  0999 V2000
   -2.1022  -10.9378  -13.6015 C   0  0  2  0  0  0  0  0  0  0  0  0
   -1.7737  -11.6939  -14.7749 O   0  0  0  0  0  0  0  0  0  0  0  0
   -3.9324   -9.5439  -17.7817 C   0  0  2  0  0  0  0  0  0  0  0  0
   -4.4115   -9.1332  -19.0662 N   0  0  0  0  0  0  0  0  0  0  0  0
   -6.5553  -10.7897  -18.7081 C   0  0  2  0  0  0  0  0  0  0  0  0
   -1.2304  -11.5273  -12.4377 C   0  0  2  0  0  0  0  0  0  0  0  0
    0.1828  -11.4401  -12.7882 N   0  0  0  0  0  0  0  0  0  0  0  0
   -2.3658   -9.3648  -17.7406 C   0  0  0  0  0  0  0  0  0  0  0  0
   -7.9953  -11.2573  -18.3326 C   0  0  2  0  0  0  0  0  0  0  0  0
   -8.3955  -10.6065  -17.1388 O   0  0  0  0  0  0  0  0  0  0  0  0
   -1.6439  -13.0156  -12.1659 C   0  0  0  0  0  0  0  0  0  0  0  0
   -1.8358   -9.8139  -16.3106 C   0  0  2  0  0  0  0  0  0  0  0  0
   -0.3640   -9.6514  -16.2607 N   0  0  0  0  0  0  0  0  0  0  0  0
   -7.9365  -12.8357  -18.1292 C   0  0  1  0  0  0  0  0  0  0  0  0
   -9.2832  -13.3692  -17.7302 N   0  0  0  0  0  0  0  0  0  0  0  0
   -3.1912  -13.1528  -12.0746 C   0  0  0  0  0  0  0  0  0  0  0  0
   -2.2332  -11.3346  -16.0495 C   0  0  2  0  0  0  0  0  0  0  0  0
   -7.4747  -13.5378  -19.5245 C   0  0  1  0  0  0  0  0  0  0  0  0
   -8.3755  -13.2654  -20.5806 O   0  0  0  0  0  0  0  0  0  0  0  0
   -3.9998  -12.2167  -12.5938 C   0  0  2  0  0  0  0  0  0  0  0  0
   -3.5170  -11.0358  -13.2580 O   0  0  0  0  0  0  0  0  0  0  0  0
   -3.8104  -11.4838  -16.1269 C   0  0  2  0  0  0  0  0  0  0  0  0
   -4.1794  -12.8528  -15.9177 O   0  0  0  0  0  0  0  0  0  0  0  0
   -6.0704  -12.9843  -19.9414 C   0  0  0  0  0  0  0  0  0  0  0  0
   -6.1052  -11.4656  -19.9777 O   0  0  0  0  0  0  0  0  0  0  0  0
   -5.5396  -12.3338  -12.5107 C   0  0  0  0  0  0  0  0  0  0  0  0
   -6.0660  -11.2535  -11.6883 N   0  0  0  0  0  0  0  0  0  0  0  0
   -4.3181  -11.0341  -17.5445 C   0  0  1  0  0  0  0  0  0  0  0  0
   -5.7182  -11.1753  -17.5725 O   0  0  0  0  0  0  0  0  0  0  0  0
   -7.3634  -15.0711  -19.4951 C   0  0  0  0  0  0  0  0  0  0  0  0
   -9.4259  -13.8036  -16.3277 C   0  0  0  0  0  0  0  0  0  0  0  0
  1  2  1  6  0  0  0
  1  6  1  0  0  0  0
  1 21  1  0  0  0  0
  3  4  1  6  0  0  0
  3  8  1  0  0  0  0
  3 28  1  0  0  0  0
  5  9  1  0  0  0  0
  5 25  1  0  0  0  0
  5 29  1  1  0  0  0
  6  7  1  6  0  0  0
  6 11  1  0  0  0  0
  8 12  1  0  0  0  0
  9 10  1  1  0  0  0
  9 14  1  0  0  0  0
 11 16  1  0  0  0  0
 12 13  1  6  0  0  0
 12 17  1  0  0  0  0
 14 15  1  6  0  0  0
 14 18  1  0  0  0  0
 15 31  1  0  0  0  0
 16 20  1  0  0  0  0
 17  2  1  1  0  0  0
 17 22  1  0  0  0  0
 18 19  1  6  0  0  0
 18 24  1  0  0  0  0
 18 30  1  0  0  0  0
 20 21  1  0  0  0  0
 20 26  1  1  0  0  0
 22 23  1  6  0  0  0
 22 28  1  0  0  0  0
 24 25  1  0  0  0  0
 26 27  1  0  0  0  0
 28 29  1  1  0  0  0
M  END
>  <CHROM.1>
-171.55404659,174.67172498,-107.57125576,53.45173286,115.18858587,57.59286551
-4.78362131,-11.72785995,-16.28286123,-0.67166461,-0.44207257,-1.28340602

>  <Name>
ligand

>  <RI>
0

>  <Rbt.Current_Directory>
/home/itssahil/PROJECTS/Mol_Feturizer/New_Systems/rnas/4F8U

>  <Rbt.Executable>
rbdock ($Id: //depot/dev/client3/rdock/2013.1/src/exe/rbdock.cxx#4 $)

>  <Rbt.Library>
libRbt.so (2013.1, Build901 2013/11/27)

>  <Rbt.Parameter_File>
/export/apps/rDock/src/rDock_2013.1_src/data/scripts/dock_solv.prm

>  <Rbt.Receptor>
prm/pocket_docking_4.prm

>  <SCORE>
-9.0638

>  <SCORE.INTER>
-2.57225

>  <SCORE.INTER.CONST>
1

>  <SCORE.INTER.POLAR>
0

>  <SCORE.INTER.ROT>
6

>  <SCORE.INTER.SOLV>
15.2046

>  <SCORE.INTER.VDW>
-14.383

>  <SCORE.INTER.norm>
-0.082976

>  <SCORE.INTRA>
-6.49155

>  <SCORE.INTRA.DIHEDRAL>
-15.2536

>  <SCORE.INTRA.DIHEDRAL.0>
18.77

>  <SCORE.INTRA.POLAR>
0

>  <SCORE.INTRA.POLAR.0>
0

>  <SCORE.INTRA.REPUL>
0

>  <SCORE.INTRA.REPUL.0>
0

>  <SCORE.INTRA.SOLV>
0.194159

>  <SCORE.INTRA.SOLV.lig_0>
-77.2465

>  <SCORE.INTRA.VDW>
1.03815

>  <SCORE.INTRA.VDW.0>
-4.16072

>  <SCORE.INTRA.norm>
-0.209405

>  <SCORE.RESTR>
0

>  <SCORE.RESTR.CAVITY>
0

>  <SCORE.RESTR.norm>
0

>  <SCORE.SYSTEM>
0

>  <SCORE.SYSTEM.CONST>
0

>  <SCORE.SYSTEM.DIHEDRAL>
0

>  <SCORE.SYSTEM.SOLV>
0

>  <SCORE.SYSTEM.norm>
0

>  <SCORE.heavy>
31

>  <SCORE.norm>
-0.292381

>  <RMSD>
7.593

$$$$
ligand
 OpenBabel11021811493D
libRbt.so/2013.1/901 2013/11/27
 31 33  0  0  0  0  0  0  0  0999 V2000
   -2.7178  -10.5968  -13.0899 C   0  0  2  0  0  0  0  0  0  0  0  0
   -2.2285  -11.5642  -14.0286 O   0  0  0  0  0  0  0  0  0  0  0  0
   -2.9031   -9.5552  -17.7478 C   0  0  2  0  0  0  0  0  0  0  0  0
   -2.8535   -9.2475  -19.1446 N   0  0  0  0  0  0  0  0  0  0  0  0
   -5.9972  -10.2833  -17.4000 C   0  0  2  0  0  0  0  0  0  0  0  0
   -2.7241  -11.3043  -11.6894 C   0  0  2  0  0  0  0  0  0  0  0  0
   -1.3806  -11.7732  -11.3685 N   0  0  0  0  0  0  0  0  0  0  0  0
   -1.4348   -9.5489  -17.1717 C   0  0  0  0  0  0  0  0  0  0  0  0
   -7.2306  -10.5625  -18.3132 C   0  0  2  0  0  0  0  0  0  0  0  0
   -7.4236  -11.9631  -18.4131 O   0  0  0  0  0  0  0  0  0  0  0  0
   -3.7403  -12.4988  -11.7024 C   0  0  0  0  0  0  0  0  0  0  0  0
   -1.4920   -9.8830  -15.6185 C   0  0  2  0  0  0  0  0  0  0  0  0
   -0.1171   -9.8815  -15.0663 N   0  0  0  0  0  0  0  0  0  0  0  0
   -6.9105   -9.9281  -19.7384 C   0  0  1  0  0  0  0  0  0  0  0  0
   -8.0395  -10.1811  -20.6969 N   0  0  0  0  0  0  0  0  0  0  0  0
   -5.1013  -12.0616  -12.3171 C   0  0  0  0  0  0  0  0  0  0  0  0
   -2.1716  -11.3084  -15.4056 C   0  0  2  0  0  0  0  0  0  0  0  0
   -6.6987   -8.3216  -19.5733 C   0  0  1  0  0  0  0  0  0  0  0  0
   -7.8512   -7.6832  -19.0585 O   0  0  0  0  0  0  0  0  0  0  0  0
   -5.1896  -10.9733  -13.0966 C   0  0  2  0  0  0  0  0  0  0  0  0
   -4.0636  -10.1383  -13.4183 O   0  0  0  0  0  0  0  0  0  0  0  0
   -3.6330  -11.2883  -16.0215 C   0  0  2  0  0  0  0  0  0  0  0  0
   -4.2465  -12.5732  -15.8580 O   0  0  0  0  0  0  0  0  0  0  0  0
   -5.5211   -8.0556  -18.5758 C   0  0  0  0  0  0  0  0  0  0  0  0
   -5.7706   -8.7986  -17.2741 O   0  0  0  0  0  0  0  0  0  0  0  0
   -6.5334  -10.5212  -13.7144 C   0  0  0  0  0  0  0  0  0  0  0  0
   -7.6048  -11.3805  -13.2309 N   0  0  0  0  0  0  0  0  0  0  0  0
   -3.5592  -10.9546  -17.5554 C   0  0  1  0  0  0  0  0  0  0  0  0
   -4.8717  -10.9406  -18.0634 O   0  0  0  0  0  0  0  0  0  0  0  0
   -6.3752   -7.5547  -20.8662 C   0  0  0  0  0  0  0  0  0  0  0  0
   -7.6603  -10.6053  -22.0579 C   0  0  0  0  0  0  0  0  0  0  0  0
  1  2  1  6  0  0  0
  1  6  1  0  0  0  0
  1 21  1  0  0  0  0
  3  4  1  6  0  0  0
  3  8  1  0  0  0  0
  3 28  1  0  0  0  0
  5  9  1  0  0  0  0
  5 25  1  0  0  0  0
  5 29  1  6  0  0  0
  6  7  1  6  0  0  0
  6 11  1  0  0  0  0
  8 12  1  0  0  0  0
  9 10  1  6  0  0  0
  9 14  1  0  0  0  0
 11 16  1  0  0  0  0
 12 13  1  6  0  0  0
 12 17  1  0  0  0  0
 14 15  1  6  0  0  0
 14 18  1  0  0  0  0
 15 31  1  0  0  0  0
 16 20  1  0  0  0  0
 17  2  1  1  0  0  0
 17 22  1  0  0  0  0
 18 19  1  1  0  0  0
 18 24  1  0  0  0  0
 18 30  1  0  0  0  0
 20 21  1  0  0  0  0
 20 26  1  1  0  0  0
 22 23  1  6  0  0  0
 22 28  1  0  0  0  0
 24 25  1  0  0  0  0
 26 27  1  0  0  0  0
 28 29  1  1  0  0  0
M  END
>  <CHROM.1>
175.60514992,-178.83148714,-136.30616973,48.05948237,4.19808552,-74.15438419
-4.68111724,-10.38714571,-16.38960201,-1.06782441,-0.13572456,-1.22222547

>  <Name>
ligand

>  <RI>
0

>  <Rbt.Current_Directory>
/home/itssahil/PROJECTS/Mol_Feturizer/New_Systems/rnas/4F8U

>  <Rbt.Executable>
rbdock ($Id: //depot/dev/client3/rdock/2013.1/src/exe/rbdock.cxx#4 $)

>  <Rbt.Library>
libRbt.so (2013.1, Build901 2013/11/27)

>  <Rbt.Parameter_File>
/export/apps/rDock/src/rDock_2013.1_src/data/scripts/dock_solv.prm

>  <Rbt.Receptor>
prm/pocket_docking_3.prm

>  <SCORE>
-11.5351

>  <SCORE.INTER>
-6.19239

>  <SCORE.INTER.CONST>
1

>  <SCORE.INTER.POLAR>
0

>  <SCORE.INTER.ROT>
6

>  <SCORE.INTER.SOLV>
22.9132

>  <SCORE.INTER.VDW>
-19.366

>  <SCORE.INTER.norm>
-0.199755

>  <SCORE.INTRA>
-5.3475

>  <SCORE.INTRA.DIHEDRAL>
-14.342

>  <SCORE.INTRA.DIHEDRAL.0>
18.77

>  <SCORE.INTRA.POLAR>
0

>  <SCORE.INTRA.POLAR.0>
0

>  <SCORE.INTRA.REPUL>
0

>  <SCORE.INTRA.REPUL.0>
0

>  <SCORE.INTRA.SOLV>
0.693673

>  <SCORE.INTRA.SOLV.lig_0>
-77.2465

>  <SCORE.INTRA.VDW>
1.47668

>  <SCORE.INTRA.VDW.0>
-4.16072

>  <SCORE.INTRA.norm>
-0.1725

>  <SCORE.RESTR>
0.00484565

>  <SCORE.RESTR.CAVITY>
0.00484565

>  <SCORE.RESTR.norm>
0.000156311

>  <SCORE.SYSTEM>
0

>  <SCORE.SYSTEM.CONST>
0

>  <SCORE.SYSTEM.DIHEDRAL>
0

>  <SCORE.SYSTEM.SOLV>
0

>  <SCORE.SYSTEM.norm>
0

>  <SCORE.heavy>
31

>  <SCORE.norm>
-0.372098

>  <RMSD>
7.595

$$$$
ligand
 OpenBabel11021811493D
libRbt.so/2013.1/901 2013/11/27
 31 33  0  0  0  0  0  0  0  0999 V2000
   -1.9327  -10.6400  -13.6196 C   0  0  2  0  0  0  0  0  0  0  0  0
   -1.7910  -11.5547  -14.7149 O   0  0  0  0  0  0  0  0  0  0  0  0
   -3.9477   -9.5465  -17.8197 C   0  0  2  0  0  0  0  0  0  0  0  0
   -4.4236   -9.1937  -19.1224 N   0  0  0  0  0  0  0  0  0  0  0  0
   -6.5681  -10.7839  -18.6773 C   0  0  2  0  0  0  0  0  0  0  0  0
   -0.9461  -11.1318  -12.5030 C   0  0  2  0  0  0  0  0  0  0  0  0
    0.4131  -11.1745  -13.0308 N   0  0  0  0  0  0  0  0  0  0  0  0
   -2.3820   -9.3585  -17.7806 C   0  0  0  0  0  0  0  0  0  0  0  0
   -8.0072  -11.2510  -18.2979 C   0  0  2  0  0  0  0  0  0  0  0  0
   -8.4016  -10.6047  -17.0997 O   0  0  0  0  0  0  0  0  0  0  0  0
   -1.3870  -12.5470  -11.9906 C   0  0  0  0  0  0  0  0  0  0  0  0
   -1.8556   -9.7430  -16.3307 C   0  0  2  0  0  0  0  0  0  0  0  0
   -0.3847   -9.5718  -16.2824 N   0  0  0  0  0  0  0  0  0  0  0  0
   -7.9499  -12.8303  -18.1014 C   0  0  1  0  0  0  0  0  0  0  0  0
   -9.2957  -13.3636  -17.6992 N   0  0  0  0  0  0  0  0  0  0  0  0
   -2.9144  -12.5780  -11.6949 C   0  0  0  0  0  0  0  0  0  0  0  0
   -2.2472  -11.2529  -16.0055 C   0  0  2  0  0  0  0  0  0  0  0  0
   -7.4949  -13.5272  -19.5015 C   0  0  1  0  0  0  0  0  0  0  0  0
   -8.3995  -13.2491  -20.5528 O   0  0  0  0  0  0  0  0  0  0  0  0
   -3.7404  -11.6666  -12.2304 C   0  0  2  0  0  0  0  0  0  0  0  0
   -3.2948  -10.6089  -13.0972 O   0  0  0  0  0  0  0  0  0  0  0  0
   -3.8234  -11.4125  -16.0823 C   0  0  2  0  0  0  0  0  0  0  0  0
   -4.1871  -12.7729  -15.8155 O   0  0  0  0  0  0  0  0  0  0  0  0
   -6.0915  -12.9739  -19.9218 C   0  0  0  0  0  0  0  0  0  0  0  0
   -6.1242  -11.4551  -19.9516 O   0  0  0  0  0  0  0  0  0  0  0  0
   -5.2606  -11.6791  -11.9464 C   0  0  0  0  0  0  0  0  0  0  0  0
   -5.9827  -11.9766  -13.1755 N   0  0  0  0  0  0  0  0  0  0  0  0
   -4.3276  -11.0267  -17.5198 C   0  0  1  0  0  0  0  0  0  0  0  0
   -5.7269  -11.1755  -17.5468 O   0  0  0  0  0  0  0  0  0  0  0  0
   -7.3857  -15.0608  -19.4791 C   0  0  0  0  0  0  0  0  0  0  0  0
   -9.5011  -13.6027  -16.2580 C   0  0  0  0  0  0  0  0  0  0  0  0
  1  2  1  6  0  0  0
  1  6  1  0  0  0  0
  1 21  1  0  0  0  0
  3  4  1  6  0  0  0
  3  8  1  0  0  0  0
  3 28  1  0  0  0  0
  5  9  1  0  0  0  0
  5 25  1  0  0  0  0
  5 29  1  1  0  0  0
  6  7  1  6  0  0  0
  6 11  1  0  0  0  0
  8 12  1  0  0  0  0
  9 10  1  1  0  0  0
  9 14  1  0  0  0  0
 11 16  1  0  0  0  0
 12 13  1  6  0  0  0
 12 17  1  0  0  0  0
 14 15  1  6  0  0  0
 14 18  1  0  0  0  0
 15 31  1  0  0  0  0
 16 20  1  0  0  0  0
 17  2  1  1  0  0  0
 17 22  1  0  0  0  0
 18 19  1  6  0  0  0
 18 24  1  0  0  0  0
 18 30  1  0  0  0  0
 20 21  1  0  0  0  0
 20 26  1  1  0  0  0
 22 23  1  6  0  0  0
 22 28  1  0  0  0  0
 24 25  1  0  0  0  0
 26 27  1  0  0  0  0
 28 29  1  1  0  0  0
M  END
>  <CHROM.1>
-163.26453811,175.18825407,-98.20998688,42.67055844,-114.12233548,54.56375512
-4.73099878,-11.61019846,-16.27203431,-0.65086003,-0.44412736,-1.31100855

>  <Name>
ligand

>  <RI>
0

>  <Rbt.Current_Directory>
/home/itssahil/PROJECTS/Mol_Feturizer/New_Systems/rnas/4F8U

>  <Rbt.Executable>
rbdock ($Id: //depot/dev/client3/rdock/2013.1/src/exe/rbdock.cxx#4 $)

>  <Rbt.Library>
libRbt.so (2013.1, Build901 2013/11/27)

>  <Rbt.Parameter_File>
/export/apps/rDock/src/rDock_2013.1_src/data/scripts/dock_solv.prm

>  <Rbt.Receptor>
prm/pocket_docking_4.prm

>  <SCORE>
-8.35727

>  <SCORE.INTER>
-4.1811

>  <SCORE.INTER.CONST>
1

>  <SCORE.INTER.POLAR>
0

>  <SCORE.INTER.ROT>
6

>  <SCORE.INTER.SOLV>
15.4118

>  <SCORE.INTER.VDW>
-15.5247

>  <SCORE.INTER.norm>
-0.134874

>  <SCORE.INTRA>
-4.17617

>  <SCORE.INTRA.DIHEDRAL>
-13.2536

>  <SCORE.INTRA.DIHEDRAL.0>
18.77

>  <SCORE.INTRA.POLAR>
0

>  <SCORE.INTRA.POLAR.0>
0

>  <SCORE.INTRA.REPUL>
0

>  <SCORE.INTRA.REPUL.0>
0

>  <SCORE.INTRA.SOLV>
2.21536

>  <SCORE.INTRA.SOLV.lig_0>
-77.2465

>  <SCORE.INTRA.VDW>
1.34296

>  <SCORE.INTRA.VDW.0>
-4.16072

>  <SCORE.INTRA.norm>
-0.134715

>  <SCORE.RESTR>
0

>  <SCORE.RESTR.CAVITY>
0

>  <SCORE.RESTR.norm>
0

>  <SCORE.SYSTEM>
0

>  <SCORE.SYSTEM.CONST>
0

>  <SCORE.SYSTEM.DIHEDRAL>
0

>  <SCORE.SYSTEM.SOLV>
0

>  <SCORE.SYSTEM.norm>
0

>  <SCORE.heavy>
31

>  <SCORE.norm>
-0.26959

>  <RMSD>
7.599

$$$$
ligand
 OpenBabel11021811493D
libRbt.so/2013.1/901 2013/11/27
 31 33  0  0  0  0  0  0  0  0999 V2000
   -2.7094  -10.6175  -13.0854 C   0  0  2  0  0  0  0  0  0  0  0  0
   -2.2289  -11.5831  -14.0304 O   0  0  0  0  0  0  0  0  0  0  0  0
   -2.9142   -9.5572  -17.7385 C   0  0  2  0  0  0  0  0  0  0  0  0
   -2.8694   -9.2437  -19.1341 N   0  0  0  0  0  0  0  0  0  0  0  0
   -6.0056  -10.2699  -17.3880 C   0  0  2  0  0  0  0  0  0  0  0  0
   -2.7042  -11.3281  -11.6864 C   0  0  2  0  0  0  0  0  0  0  0  0
   -1.3583  -11.7987  -11.3782 N   0  0  0  0  0  0  0  0  0  0  0  0
   -1.4436   -9.5560  -17.1681 C   0  0  0  0  0  0  0  0  0  0  0  0
   -7.2425  -10.5393  -18.2996 C   0  0  2  0  0  0  0  0  0  0  0  0
   -7.4476  -11.9383  -18.3980 O   0  0  0  0  0  0  0  0  0  0  0  0
   -3.7214  -12.5218  -11.6934 C   0  0  0  0  0  0  0  0  0  0  0  0
   -1.4954   -9.8966  -15.6161 C   0  0  2  0  0  0  0  0  0  0  0  0
   -0.1184   -9.9000  -15.0693 N   0  0  0  0  0  0  0  0  0  0  0  0
   -6.9186   -9.9089  -19.7257 C   0  0  1  0  0  0  0  0  0  0  0  0
   -8.0509  -10.1531  -20.6826 N   0  0  0  0  0  0  0  0  0  0  0  0
   -5.0873  -12.0822  -12.2955 C   0  0  0  0  0  0  0  0  0  0  0  0
   -2.1768  -11.3216  -15.4066 C   0  0  2  0  0  0  0  0  0  0  0  0
   -6.6928   -8.3042  -19.5622 C   0  0  1  0  0  0  0  0  0  0  0  0
   -7.8392   -7.6555  -19.0466 O   0  0  0  0  0  0  0  0  0  0  0  0
   -5.1815  -10.9922  -13.0717 C   0  0  2  0  0  0  0  0  0  0  0  0
   -4.0576  -10.1572  -13.4012 O   0  0  0  0  0  0  0  0  0  0  0  0
   -3.6407  -11.2961  -16.0166 C   0  0  2  0  0  0  0  0  0  0  0  0
   -4.2559  -12.5805  -15.8562 O   0  0  0  0  0  0  0  0  0  0  0  0
   -5.5119   -8.0474  -18.5664 C   0  0  0  0  0  0  0  0  0  0  0  0
   -5.7662   -8.7872  -17.2638 O   0  0  0  0  0  0  0  0  0  0  0  0
   -6.5301  -10.5376  -13.6770 C   0  0  0  0  0  0  0  0  0  0  0  0
   -7.5970  -11.4019  -13.1921 N   0  0  0  0  0  0  0  0  0  0  0  0
   -3.5722  -10.9560  -17.5494 C   0  0  1  0  0  0  0  0  0  0  0  0
   -4.8866  -10.9375  -18.0522 O   0  0  0  0  0  0  0  0  0  0  0  0
   -6.3642   -7.5412  -20.8562 C   0  0  0  0  0  0  0  0  0  0  0  0
   -7.6785  -10.6151  -22.0333 C   0  0  0  0  0  0  0  0  0  0  0  0
  1  2  1  6  0  0  0
  1  6  1  0  0  0  0
  1 21  1  0  0  0  0
  3  4  1  6  0  0  0
  3  8  1  0  0  0  0
  3 28  1  0  0  0  0
  5  9  1  0  0  0  0
  5 25  1  0  0  0  0
  5 29  1  6  0  0  0
  6  7  1  6  0  0  0
  6 11  1  0  0  0  0
  8 12  1  0  0  0  0
  9 10  1  6  0  0  0
  9 14  1  0  0  0  0
 11 16  1  0  0  0  0
 12 13  1  6  0  0  0
 12 17  1  0  0  0  0
 14 15  1  6  0  0  0
 14 18  1  0  0  0  0
 15 31  1  0  0  0  0
 16 20  1  0  0  0  0
 17  2  1  1  0  0  0
 17 22  1  0  0  0  0
 18 19  1  1  0  0  0
 18 24  1  0  0  0  0
 18 30  1  0  0  0  0
 20 21  1  0  0  0  0
 20 26  1  1  0  0  0
 22 23  1  6  0  0  0
 22 28  1  0  0  0  0
 24 25  1  0  0  0  0
 26 27  1  0  0  0  0
 28 29  1  1  0  0  0
M  END
>  <CHROM.1>
175.95687051,-179.19279785,-134.78618171,47.89174704,3.88191027,-73.54475742
-4.68191806,-10.39006042,-16.37873001,-1.06790495,-0.13440687,-1.21767789

>  <Name>
ligand

>  <RI>
0

>  <Rbt.Current_Directory>
/home/itssahil/PROJECTS/Mol_Feturizer/New_Systems/rnas/4F8U

>  <Rbt.Executable>
rbdock ($Id: //depot/dev/client3/rdock/2013.1/src/exe/rbdock.cxx#4 $)

>  <Rbt.Library>
libRbt.so (2013.1, Build901 2013/11/27)

>  <Rbt.Parameter_File>
/export/apps/rDock/src/rDock_2013.1_src/data/scripts/dock_solv.prm

>  <Rbt.Receptor>
prm/pocket_docking_3.prm

>  <SCORE>
-11.5359

>  <SCORE.INTER>
-6.24369

>  <SCORE.INTER.CONST>
1

>  <SCORE.INTER.POLAR>
0

>  <SCORE.INTER.ROT>
6

>  <SCORE.INTER.SOLV>
22.8426

>  <SCORE.INTER.VDW>
-19.3767

>  <SCORE.INTER.norm>
-0.201409

>  <SCORE.INTRA>
-5.29219

>  <SCORE.INTRA.DIHEDRAL>
-14.3862

>  <SCORE.INTRA.DIHEDRAL.0>
18.77

>  <SCORE.INTRA.POLAR>
0

>  <SCORE.INTRA.POLAR.0>
0

>  <SCORE.INTRA.REPUL>
0

>  <SCORE.INTRA.REPUL.0>
0

>  <SCORE.INTRA.SOLV>
0.749751

>  <SCORE.INTRA.SOLV.lig_0>
-77.2465

>  <SCORE.INTRA.VDW>
1.52605

>  <SCORE.INTRA.VDW.0>
-4.16072

>  <SCORE.INTRA.norm>
-0.170716

>  <SCORE.RESTR>
0

>  <SCORE.RESTR.CAVITY>
0

>  <SCORE.RESTR.norm>
0

>  <SCORE.SYSTEM>
0

>  <SCORE.SYSTEM.CONST>
0

>  <SCORE.SYSTEM.DIHEDRAL>
0

>  <SCORE.SYSTEM.SOLV>
0

>  <SCORE.SYSTEM.norm>
0

>  <SCORE.heavy>
31

>  <SCORE.norm>
-0.372125

>  <RMSD>
7.600

$$$$
ligand
 OpenBabel11021811493D
libRbt.so/2013.1/901 2013/11/27
 31 33  0  0  0  0  0  0  0  0999 V2000
   -7.2182   -7.5324  -23.2800 C   0  0  2  0  0  0  0  0  0  0  0  0
   -8.1233   -7.8074  -22.2022 O   0  0  0  0  0  0  0  0  0  0  0  0
   -5.4939   -9.6307  -19.3586 C   0  0  2  0  0  0  0  0  0  0  0  0
   -5.0266  -10.2558  -18.1591 N   0  0  0  0  0  0  0  0  0  0  0  0
   -6.7844  -12.8658  -20.9768 C   0  0  2  0  0  0  0  0  0  0  0  0
   -8.0293   -6.7039  -24.3373 C   0  0  2  0  0  0  0  0  0  0  0  0
   -8.5531   -5.4922  -23.7167 N   0  0  0  0  0  0  0  0  0  0  0  0
   -6.0903   -8.2159  -18.9973 C   0  0  0  0  0  0  0  0  0  0  0  0
   -7.6137  -13.5184  -19.8281 C   0  0  2  0  0  0  0  0  0  0  0  0
   -8.4717  -12.5408  -19.2651 O   0  0  0  0  0  0  0  0  0  0  0  0
   -9.1948   -7.5788  -24.9169 C   0  0  0  0  0  0  0  0  0  0  0  0
   -6.6018   -7.5192  -20.3316 C   0  0  2  0  0  0  0  0  0  0  0  0
   -7.1662   -6.1890  -20.0041 N   0  0  0  0  0  0  0  0  0  0  0  0
   -6.5744  -14.0551  -18.7474 C   0  0  1  0  0  0  0  0  0  0  0  0
   -7.2933  -14.6737  -17.5821 N   0  0  0  0  0  0  0  0  0  0  0  0
   -8.6799   -8.9909  -25.3197 C   0  0  0  0  0  0  0  0  0  0  0  0
   -7.7093   -8.4354  -21.0193 C   0  0  2  0  0  0  0  0  0  0  0  0
   -5.6138  -15.1741  -19.4388 C   0  0  1  0  0  0  0  0  0  0  0  0
   -6.3500  -16.2797  -19.9254 O   0  0  0  0  0  0  0  0  0  0  0  0
   -7.5340   -9.4772  -24.8195 C   0  0  2  0  0  0  0  0  0  0  0  0
   -6.7042   -8.7514  -23.8957 O   0  0  0  0  0  0  0  0  0  0  0  0
   -7.0851   -9.8574  -21.3418 C   0  0  2  0  0  0  0  0  0  0  0  0
   -8.0790  -10.6997  -21.9390 O   0  0  0  0  0  0  0  0  0  0  0  0
   -4.8623  -14.5308  -20.6527 C   0  0  0  0  0  0  0  0  0  0  0  0
   -5.8639  -13.8860  -21.5959 O   0  0  0  0  0  0  0  0  0  0  0  0
   -7.0044  -10.8769  -25.2097 C   0  0  0  0  0  0  0  0  0  0  0  0
   -7.0392  -11.0239  -26.6580 N   0  0  0  0  0  0  0  0  0  0  0  0
   -6.5826  -10.5311  -20.0139 C   0  0  1  0  0  0  0  0  0  0  0  0
   -6.0324  -11.7847  -20.3408 O   0  0  0  0  0  0  0  0  0  0  0  0
   -4.5440  -15.7926  -18.5238 C   0  0  0  0  0  0  0  0  0  0  0  0
   -7.5874  -13.7807  -16.4453 C   0  0  0  0  0  0  0  0  0  0  0  0
  1  2  1  1  0  0  0
  1  6  1  0  0  0  0
  1 21  1  0  0  0  0
  3  4  1  1  0  0  0
  3  8  1  0  0  0  0
  3 28  1  0  0  0  0
  5  9  1  0  0  0  0
  5 25  1  0  0  0  0
  5 29  1  1  0  0  0
  6  7  1  1  0  0  0
  6 11  1  0  0  0  0
  8 12  1  0  0  0  0
  9 10  1  1  0  0  0
  9 14  1  0  0  0  0
 11 16  1  0  0  0  0
 12 13  1  1  0  0  0
 12 17  1  0  0  0  0
 14 15  1  1  0  0  0
 14 18  1  0  0  0  0
 15 31  1  0  0  0  0
 16 20  1  0  0  0  0
 17  2  1  6  0  0  0
 17 22  1  0  0  0  0
 18 19  1  6  0  0  0
 18 24  1  0  0  0  0
 18 30  1  0  0  0  0
 20 21  1  0  0  0  0
 20 26  1  6  0  0  0
 22 23  1  1  0  0  0
 22 28  1  0  0  0  0
 24 25  1  0  0  0  0
 26 27  1  0  0  0  0
 28 29  1  6  0  0  0
M  END
>  <CHROM.1>
-174.38891214,-78.99573854,-92.20474321,60.88275645,48.54083425,-179.72560454
-6.95648061,-10.83506308,-21.24513575,-2.97951335,1.37444033,-2.36345918

>  <Name>
ligand

>  <RI>
0

>  <Rbt.Current_Directory>
/home/itssahil/PROJECTS/Mol_Feturizer/New_Systems/rnas/4F8U

>  <Rbt.Executable>
rbdock ($Id: //depot/dev/client3/rdock/2013.1/src/exe/rbdock.cxx#4 $)

>  <Rbt.Library>
libRbt.so (2013.1, Build901 2013/11/27)

>  <Rbt.Parameter_File>
/export/apps/rDock/src/rDock_2013.1_src/data/scripts/dock_solv.prm

>  <Rbt.Receptor>
prm/pocket_docking_7.prm

>  <SCORE>
-16.0036

>  <SCORE.INTER>
-10.7888

>  <SCORE.INTER.CONST>
1

>  <SCORE.INTER.POLAR>
0

>  <SCORE.INTER.ROT>
6

>  <SCORE.INTER.SOLV>
20.643

>  <SCORE.INTER.VDW>
-21.6735

>  <SCORE.INTER.norm>
-0.348025

>  <SCORE.INTRA>
-5.21484

>  <SCORE.INTRA.DIHEDRAL>
-12.8687

>  <SCORE.INTRA.DIHEDRAL.0>
18.77

>  <SCORE.INTRA.POLAR>
0

>  <SCORE.INTRA.POLAR.0>
0

>  <SCORE.INTRA.REPUL>
0

>  <SCORE.INTRA.REPUL.0>
0

>  <SCORE.INTRA.SOLV>
-0.891597

>  <SCORE.INTRA.SOLV.lig_0>
-77.2465

>  <SCORE.INTRA.VDW>
1.66529

>  <SCORE.INTRA.VDW.0>
-4.16072

>  <SCORE.INTRA.norm>
-0.16822

>  <SCORE.RESTR>
0

>  <SCORE.RESTR.CAVITY>
0

>  <SCORE.RESTR.norm>
0

>  <SCORE.SYSTEM>
0

>  <SCORE.SYSTEM.CONST>
0

>  <SCORE.SYSTEM.DIHEDRAL>
0

>  <SCORE.SYSTEM.SOLV>
0

>  <SCORE.SYSTEM.norm>
0

>  <SCORE.heavy>
31

>  <SCORE.norm>
-0.516245

>  <RMSD>
7.608

$$$$
ligand
 OpenBabel11021811493D
libRbt.so/2013.1/901 2013/11/27
 31 33  0  0  0  0  0  0  0  0999 V2000
   -9.8795   -7.7777  -11.4921 C   0  0  2  0  0  0  0  0  0  0  0  0
   -8.8517   -8.5474  -10.8535 O   0  0  0  0  0  0  0  0  0  0  0  0
   -8.0522  -12.4945   -9.4026 C   0  0  2  0  0  0  0  0  0  0  0  0
   -8.0962  -13.9187   -9.2694 N   0  0  0  0  0  0  0  0  0  0  0  0
   -5.4710  -13.3221   -9.9523 C   0  0  2  0  0  0  0  0  0  0  0  0
   -9.1514   -6.8116  -12.4913 C   0  0  2  0  0  0  0  0  0  0  0  0
   -8.3576   -7.5882  -13.4371 N   0  0  0  0  0  0  0  0  0  0  0  0
   -9.5032  -11.9166   -9.1817 C   0  0  0  0  0  0  0  0  0  0  0  0
   -4.2133  -12.4306   -9.7138 C   0  0  2  0  0  0  0  0  0  0  0  0
   -4.6330  -11.1397   -9.3062 O   0  0  0  0  0  0  0  0  0  0  0  0
   -8.2435   -5.8104  -11.6956 C   0  0  0  0  0  0  0  0  0  0  0  0
   -9.4515  -10.3339   -9.3220 C   0  0  2  0  0  0  0  0  0  0  0  0
  -10.8103   -9.7796   -9.1180 N   0  0  0  0  0  0  0  0  0  0  0  0
   -3.4196  -12.3631  -11.0928 C   0  0  1  0  0  0  0  0  0  0  0  0
   -2.2028  -11.4915  -10.9618 N   0  0  0  0  0  0  0  0  0  0  0  0
   -9.0201   -5.1896  -10.4986 C   0  0  0  0  0  0  0  0  0  0  0  0
   -8.9075   -9.9455  -10.7684 C   0  0  2  0  0  0  0  0  0  0  0  0
   -2.9579  -13.8660  -11.5182 C   0  0  1  0  0  0  0  0  0  0  0  0
   -2.1088  -14.4551  -10.5524 O   0  0  0  0  0  0  0  0  0  0  0  0
  -10.1208   -5.7796  -10.0085 C   0  0  2  0  0  0  0  0  0  0  0  0
  -10.6640   -7.0020  -10.5371 O   0  0  0  0  0  0  0  0  0  0  0  0
   -7.4616  -10.5661  -10.9674 C   0  0  2  0  0  0  0  0  0  0  0  0
   -6.9709  -10.2442  -12.2749 O   0  0  0  0  0  0  0  0  0  0  0  0
   -4.2249  -14.7758  -11.6569 C   0  0  0  0  0  0  0  0  0  0  0  0
   -5.0527  -14.7039  -10.3848 O   0  0  0  0  0  0  0  0  0  0  0  0
  -10.9078   -5.1768   -8.8215 C   0  0  0  0  0  0  0  0  0  0  0  0
  -12.3005   -4.9924   -9.2046 N   0  0  0  0  0  0  0  0  0  0  0  0
   -7.5295  -12.1295  -10.8235 C   0  0  1  0  0  0  0  0  0  0  0  0
   -6.2306  -12.6417  -11.0007 O   0  0  0  0  0  0  0  0  0  0  0  0
   -2.1783  -13.9759  -12.8390 C   0  0  0  0  0  0  0  0  0  0  0  0
   -1.9434  -10.5580  -12.0743 C   0  0  0  0  0  0  0  0  0  0  0  0
  1  2  1  1  0  0  0
  1  6  1  0  0  0  0
  1 21  1  0  0  0  0
  3  4  1  6  0  0  0
  3  8  1  0  0  0  0
  3 28  1  0  0  0  0
  5  9  1  0  0  0  0
  5 25  1  0  0  0  0
  5 29  1  6  0  0  0
  6  7  1  6  0  0  0
  6 11  1  0  0  0  0
  8 12  1  0  0  0  0
  9 10  1  6  0  0  0
  9 14  1  0  0  0  0
 11 16  1  0  0  0  0
 12 13  1  6  0  0  0
 12 17  1  0  0  0  0
 14 15  1  1  0  0  0
 14 18  1  0  0  0  0
 15 31  1  0  0  0  0
 16 20  1  0  0  0  0
 17  2  1  1  0  0  0
 17 22  1  0  0  0  0
 18 19  1  1  0  0  0
 18 24  1  0  0  0  0
 18 30  1  0  0  0  0
 20 21  1  0  0  0  0
 20 26  1  6  0  0  0
 22 23  1  6  0  0  0
 22 28  1  0  0  0  0
 24 25  1  0  0  0  0
 26 27  1  0  0  0  0
 28 29  1  1  0  0  0
M  END
>  <CHROM.1>
-129.95066486,-117.55796810,-136.76758365,-98.86798085,124.77206680,-4.28054135
-7.02140895,-10.39906066,-10.69292990,-2.41883612,-0.38376091,2.83316933

>  <Name>
ligand

>  <RI>
0

>  <Rbt.Current_Directory>
/home/itssahil/PROJECTS/Mol_Feturizer/New_Systems/rnas/4F8U

>  <Rbt.Executable>
rbdock ($Id: //depot/dev/client3/rdock/2013.1/src/exe/rbdock.cxx#4 $)

>  <Rbt.Library>
libRbt.so (2013.1, Build901 2013/11/27)

>  <Rbt.Parameter_File>
/export/apps/rDock/src/rDock_2013.1_src/data/scripts/dock_solv.prm

>  <Rbt.Receptor>
prm/blind_docking_20.prm

>  <SCORE>
11.8507

>  <SCORE.INTER>
-2.92786

>  <SCORE.INTER.CONST>
1

>  <SCORE.INTER.POLAR>
0

>  <SCORE.INTER.ROT>
6

>  <SCORE.INTER.SOLV>
17.0545

>  <SCORE.INTER.VDW>
-15.2367

>  <SCORE.INTER.norm>
-0.0944472

>  <SCORE.INTRA>
7.48042

>  <SCORE.INTRA.DIHEDRAL>
10.1338

>  <SCORE.INTRA.DIHEDRAL.0>
18.77

>  <SCORE.INTRA.POLAR>
0

>  <SCORE.INTRA.POLAR.0>
0

>  <SCORE.INTRA.REPUL>
0

>  <SCORE.INTRA.REPUL.0>
0

>  <SCORE.INTRA.SOLV>
1.35616

>  <SCORE.INTRA.SOLV.lig_0>
-77.2465

>  <SCORE.INTRA.VDW>
1.73542

>  <SCORE.INTRA.VDW.0>
-4.16072

>  <SCORE.INTRA.norm>
0.241304

>  <SCORE.RESTR>
7.29819

>  <SCORE.RESTR.CAVITY>
7.29819

>  <SCORE.RESTR.norm>
0.235425

>  <SCORE.SYSTEM>
0

>  <SCORE.SYSTEM.CONST>
0

>  <SCORE.SYSTEM.DIHEDRAL>
0

>  <SCORE.SYSTEM.SOLV>
0

>  <SCORE.SYSTEM.norm>
0

>  <SCORE.heavy>
31

>  <SCORE.norm>
0.382282

>  <RMSD>
7.611

$$$$
ligand
 OpenBabel11021811493D
libRbt.so/2013.1/901 2013/11/27
 31 33  0  0  0  0  0  0  0  0999 V2000
    2.9657  -10.3827  -13.1818 C   0  0  2  0  0  0  0  0  0  0  0  0
    2.2462   -9.6133  -14.1549 O   0  0  0  0  0  0  0  0  0  0  0  0
   -1.7926   -9.9944  -15.5211 C   0  0  2  0  0  0  0  0  0  0  0  0
   -2.9387  -10.4786  -16.2283 N   0  0  0  0  0  0  0  0  0  0  0  0
   -2.0063  -12.6299  -12.7365 C   0  0  2  0  0  0  0  0  0  0  0  0
    4.3711   -9.7014  -13.0313 C   0  0  2  0  0  0  0  0  0  0  0  0
    4.2027   -8.3072  -12.6367 N   0  0  0  0  0  0  0  0  0  0  0  0
   -0.7111   -9.5201  -16.5667 C   0  0  0  0  0  0  0  0  0  0  0  0
   -3.3431  -13.4333  -12.7617 C   0  0  2  0  0  0  0  0  0  0  0  0
   -3.5663  -13.9172  -14.0750 O   0  0  0  0  0  0  0  0  0  0  0  0
    5.1585   -9.8040  -14.3838 C   0  0  0  0  0  0  0  0  0  0  0  0
    0.5583   -8.9751  -15.7799 C   0  0  2  0  0  0  0  0  0  0  0  0
    1.5825   -8.5279  -16.7526 N   0  0  0  0  0  0  0  0  0  0  0  0
   -4.4993  -12.4315  -12.3191 C   0  0  1  0  0  0  0  0  0  0  0  0
   -5.8353  -13.1183  -12.3477 N   0  0  0  0  0  0  0  0  0  0  0  0
    5.0942  -11.2505  -14.9539 C   0  0  0  0  0  0  0  0  0  0  0  0
    1.1447  -10.1296  -14.8514 C   0  0  2  0  0  0  0  0  0  0  0  0
   -4.2006  -11.9048  -10.8070 C   0  0  1  0  0  0  0  0  0  0  0  0
   -4.1589  -12.9659   -9.8726 O   0  0  0  0  0  0  0  0  0  0  0  0
    4.1433  -12.1087  -14.5551 C   0  0  2  0  0  0  0  0  0  0  0  0
    3.1317  -11.7741  -13.5890 O   0  0  0  0  0  0  0  0  0  0  0  0
    0.0238  -10.6022  -13.8336 C   0  0  2  0  0  0  0  0  0  0  0  0
    0.5315  -11.6582  -13.0083 O   0  0  0  0  0  0  0  0  0  0  0  0
   -2.8091  -11.1872  -10.7754 C   0  0  0  0  0  0  0  0  0  0  0  0
   -1.7426  -12.1054  -11.3484 O   0  0  0  0  0  0  0  0  0  0  0  0
    4.0644  -13.5509  -15.1079 C   0  0  0  0  0  0  0  0  0  0  0  0
    2.8335  -13.7137  -15.8687 N   0  0  0  0  0  0  0  0  0  0  0  0
   -1.2238  -11.1354  -14.6266 C   0  0  1  0  0  0  0  0  0  0  0  0
   -2.1958  -11.5392  -13.6922 O   0  0  0  0  0  0  0  0  0  0  0  0
   -5.2288  -10.9186  -10.2286 C   0  0  0  0  0  0  0  0  0  0  0  0
   -6.6354  -12.9430  -13.5746 C   0  0  0  0  0  0  0  0  0  0  0  0
  1  2  1  6  0  0  0
  1  6  1  0  0  0  0
  1 21  1  0  0  0  0
  3  4  1  6  0  0  0
  3  8  1  0  0  0  0
  3 28  1  0  0  0  0
  5  9  1  0  0  0  0
  5 25  1  0  0  0  0
  5 29  1  6  0  0  0
  6  7  1  6  0  0  0
  6 11  1  0  0  0  0
  8 12  1  0  0  0  0
  9 10  1  6  0  0  0
  9 14  1  0  0  0  0
 11 16  1  0  0  0  0
 12 13  1  6  0  0  0
 12 17  1  0  0  0  0
 14 15  1  1  0  0  0
 14 18  1  0  0  0  0
 15 31  1  0  0  0  0
 16 20  1  0  0  0  0
 17  2  1  1  0  0  0
 17 22  1  0  0  0  0
 18 19  1  1  0  0  0
 18 24  1  0  0  0  0
 18 30  1  0  0  0  0
 20 21  1  0  0  0  0
 20 26  1  1  0  0  0
 22 23  1  1  0  0  0
 22 28  1  0  0  0  0
 24 25  1  0  0  0  0
 26 27  1  0  0  0  0
 28 29  1  1  0  0  0
M  END
>  <CHROM.1>
159.72969047,-136.67114835,-95.52638935,176.96960297,-115.06447012,177.36694398
-0.38214551,-11.32752578,-13.62221429,-0.34433366,0.10270370,1.94384354

>  <Name>
ligand

>  <RI>
0

>  <Rbt.Current_Directory>
/home/itssahil/PROJECTS/Mol_Feturizer/New_Systems/rnas/4F8U

>  <Rbt.Executable>
rbdock ($Id: //depot/dev/client3/rdock/2013.1/src/exe/rbdock.cxx#4 $)

>  <Rbt.Library>
libRbt.so (2013.1, Build901 2013/11/27)

>  <Rbt.Parameter_File>
/export/apps/rDock/src/rDock_2013.1_src/data/scripts/dock_solv.prm

>  <Rbt.Receptor>
prm/pocket_docking_7.prm

>  <SCORE>
-6.1747

>  <SCORE.INTER>
-2.43407

>  <SCORE.INTER.CONST>
1

>  <SCORE.INTER.POLAR>
0

>  <SCORE.INTER.ROT>
6

>  <SCORE.INTER.SOLV>
11.9345

>  <SCORE.INTER.VDW>
-13.2009

>  <SCORE.INTER.norm>
-0.0785183

>  <SCORE.INTRA>
-3.74195

>  <SCORE.INTRA.DIHEDRAL>
-8.44802

>  <SCORE.INTRA.DIHEDRAL.0>
18.77

>  <SCORE.INTRA.POLAR>
0

>  <SCORE.INTRA.POLAR.0>
0

>  <SCORE.INTRA.REPUL>
0

>  <SCORE.INTRA.REPUL.0>
0

>  <SCORE.INTRA.SOLV>
-2.37193

>  <SCORE.INTRA.SOLV.lig_0>
-77.2465

>  <SCORE.INTRA.VDW>
1.66802

>  <SCORE.INTRA.VDW.0>
-4.16072

>  <SCORE.INTRA.norm>
-0.120708

>  <SCORE.RESTR>
0.00132344

>  <SCORE.RESTR.CAVITY>
0.00132344

>  <SCORE.RESTR.norm>
4.26916e-05

>  <SCORE.SYSTEM>
0

>  <SCORE.SYSTEM.CONST>
0

>  <SCORE.SYSTEM.DIHEDRAL>
0

>  <SCORE.SYSTEM.SOLV>
0

>  <SCORE.SYSTEM.norm>
0

>  <SCORE.heavy>
31

>  <SCORE.norm>
-0.199184

>  <RMSD>
7.641

$$$$
ligand
 OpenBabel11021811493D
libRbt.so/2013.1/901 2013/11/27
 31 33  0  0  0  0  0  0  0  0999 V2000
   -3.4915  -10.5252  -12.8492 C   0  0  2  0  0  0  0  0  0  0  0  0
   -2.8343  -11.4975  -13.6734 O   0  0  0  0  0  0  0  0  0  0  0  0
   -3.0770   -9.6272  -17.5161 C   0  0  2  0  0  0  0  0  0  0  0  0
   -2.8896   -9.3851  -18.9141 N   0  0  0  0  0  0  0  0  0  0  0  0
   -6.2259  -10.1996  -17.4122 C   0  0  2  0  0  0  0  0  0  0  0  0
   -3.3975  -11.0584  -11.3766 C   0  0  2  0  0  0  0  0  0  0  0  0
   -1.9987  -11.2546  -11.0122 N   0  0  0  0  0  0  0  0  0  0  0  0
   -1.6663   -9.6649  -16.8116 C   0  0  0  0  0  0  0  0  0  0  0  0
   -7.3907  -10.4706  -18.4137 C   0  0  2  0  0  0  0  0  0  0  0  0
   -7.6350  -11.8656  -18.4712 O   0  0  0  0  0  0  0  0  0  0  0  0
   -4.1984  -12.4005  -11.2457 C   0  0  0  0  0  0  0  0  0  0  0  0
   -1.8761   -9.9261  -15.2575 C   0  0  2  0  0  0  0  0  0  0  0  0
   -0.5566   -9.9653  -14.5849 N   0  0  0  0  0  0  0  0  0  0  0  0
   -6.9271   -9.9141  -19.8320 C   0  0  1  0  0  0  0  0  0  0  0  0
   -7.9831  -10.1653  -20.8708 N   0  0  0  0  0  0  0  0  0  0  0  0
   -5.6053  -12.2720  -11.8982 C   0  0  0  0  0  0  0  0  0  0  0  0
   -2.6440  -11.3065  -15.0489 C   0  0  2  0  0  0  0  0  0  0  0  0
   -6.6606   -8.3115  -19.7165 C   0  0  1  0  0  0  0  0  0  0  0  0
   -7.8230   -7.6055  -19.3276 O   0  0  0  0  0  0  0  0  0  0  0  0
   -5.8647  -11.3107  -12.7973 C   0  0  2  0  0  0  0  0  0  0  0  0
   -4.8907  -10.3405  -13.2200 O   0  0  0  0  0  0  0  0  0  0  0  0
   -4.0431  -11.2445  -15.7935 C   0  0  2  0  0  0  0  0  0  0  0  0
   -4.7337  -12.4901  -15.6338 O   0  0  0  0  0  0  0  0  0  0  0  0
   -5.5589   -8.0476  -18.6352 C   0  0  0  0  0  0  0  0  0  0  0  0
   -5.9467   -8.7209  -17.3295 O   0  0  0  0  0  0  0  0  0  0  0  0
   -7.2569  -11.1650  -13.4547 C   0  0  0  0  0  0  0  0  0  0  0  0
   -7.8548   -9.8995  -13.0527 N   0  0  0  0  0  0  0  0  0  0  0  0
   -3.8184  -10.9837  -17.3268 C   0  0  1  0  0  0  0  0  0  0  0  0
   -5.0790  -10.9300  -17.9505 O   0  0  0  0  0  0  0  0  0  0  0  0
   -6.1987   -7.6169  -21.0083 C   0  0  0  0  0  0  0  0  0  0  0  0
   -7.5128  -10.6776  -22.1719 C   0  0  0  0  0  0  0  0  0  0  0  0
  1  2  1  6  0  0  0
  1  6  1  0  0  0  0
  1 21  1  0  0  0  0
  3  4  1  6  0  0  0
  3  8  1  0  0  0  0
  3 28  1  0  0  0  0
  5  9  1  0  0  0  0
  5 25  1  0  0  0  0
  5 29  1  6  0  0  0
  6  7  1  6  0  0  0
  6 11  1  0  0  0  0
  8 12  1  0  0  0  0
  9 10  1  6  0  0  0
  9 14  1  0  0  0  0
 11 16  1  0  0  0  0
 12 13  1  1  0  0  0
 12 17  1  0  0  0  0
 14 15  1  6  0  0  0
 14 18  1  0  0  0  0
 15 31  1  0  0  0  0
 16 20  1  0  0  0  0
 17  2  1  1  0  0  0
 17 22  1  0  0  0  0
 18 19  1  1  0  0  0
 18 24  1  0  0  0  0
 18 30  1  0  0  0  0
 20 21  1  0  0  0  0
 20 26  1  1  0  0  0
 22 23  1  6  0  0  0
 22 28  1  0  0  0  0
 24 25  1  0  0  0  0
 26 27  1  0  0  0  0
 28 29  1  6  0  0  0
M  END
>  <CHROM.1>
-175.53663953,-178.18496566,-135.72033521,55.26455944,115.19897296,-74.66113006
-4.98960292,-10.35190029,-16.24227081,-1.17417498,-0.11715186,-1.27305129

>  <Name>
ligand

>  <RI>
0

>  <Rbt.Current_Directory>
/home/itssahil/PROJECTS/Mol_Feturizer/New_Systems/rnas/4F8U

>  <Rbt.Executable>
rbdock ($Id: //depot/dev/client3/rdock/2013.1/src/exe/rbdock.cxx#4 $)

>  <Rbt.Library>
libRbt.so (2013.1, Build901 2013/11/27)

>  <Rbt.Parameter_File>
/export/apps/rDock/src/rDock_2013.1_src/data/scripts/dock_solv.prm

>  <Rbt.Receptor>
prm/pocket_docking_4.prm

>  <SCORE>
-12.3661

>  <SCORE.INTER>
-6.05134

>  <SCORE.INTER.CONST>
1

>  <SCORE.INTER.POLAR>
0

>  <SCORE.INTER.ROT>
6

>  <SCORE.INTER.SOLV>
23.4785

>  <SCORE.INTER.VDW>
-19.4604

>  <SCORE.INTER.norm>
-0.195205

>  <SCORE.INTRA>
-6.31471

>  <SCORE.INTRA.DIHEDRAL>
-14.8133

>  <SCORE.INTRA.DIHEDRAL.0>
18.77

>  <SCORE.INTRA.POLAR>
0

>  <SCORE.INTRA.POLAR.0>
0

>  <SCORE.INTRA.REPUL>
0

>  <SCORE.INTRA.REPUL.0>
0

>  <SCORE.INTRA.SOLV>
0.770913

>  <SCORE.INTRA.SOLV.lig_0>
-77.2465

>  <SCORE.INTRA.VDW>
0.70648

>  <SCORE.INTRA.VDW.0>
-4.16072

>  <SCORE.INTRA.norm>
-0.2037

>  <SCORE.RESTR>
0

>  <SCORE.RESTR.CAVITY>
0

>  <SCORE.RESTR.norm>
0

>  <SCORE.SYSTEM>
0

>  <SCORE.SYSTEM.CONST>
0

>  <SCORE.SYSTEM.DIHEDRAL>
0

>  <SCORE.SYSTEM.SOLV>
0

>  <SCORE.SYSTEM.norm>
0

>  <SCORE.heavy>
31

>  <SCORE.norm>
-0.398905

>  <RMSD>
7.649

$$$$
ligand
 OpenBabel11021811493D
libRbt.so/2013.1/901 2013/11/27
 31 33  0  0  0  0  0  0  0  0999 V2000
   -2.1797  -10.8966  -13.4909 C   0  0  2  0  0  0  0  0  0  0  0  0
   -1.8722  -11.6889  -14.6460 O   0  0  0  0  0  0  0  0  0  0  0  0
   -3.9739   -9.5608  -17.7083 C   0  0  2  0  0  0  0  0  0  0  0  0
   -4.4256   -9.1566  -19.0047 N   0  0  0  0  0  0  0  0  0  0  0  0
   -6.5686  -10.8103  -18.6852 C   0  0  2  0  0  0  0  0  0  0  0  0
   -1.1786  -11.3446  -12.3688 C   0  0  2  0  0  0  0  0  0  0  0  0
    0.1929  -11.1612  -12.8305 N   0  0  0  0  0  0  0  0  0  0  0  0
   -2.4098   -9.3717  -17.6313 C   0  0  0  0  0  0  0  0  0  0  0  0
   -8.0158  -11.2794  -18.3404 C   0  0  2  0  0  0  0  0  0  0  0  0
   -8.4388  -10.6354  -17.1508 O   0  0  0  0  0  0  0  0  0  0  0  0
   -1.4409  -12.8440  -11.9908 C   0  0  0  0  0  0  0  0  0  0  0  0
   -1.9104   -9.8135  -16.1882 C   0  0  2  0  0  0  0  0  0  0  0  0
   -0.4411   -9.6417  -16.1046 N   0  0  0  0  0  0  0  0  0  0  0  0
   -7.9615  -12.8590  -18.1451 C   0  0  1  0  0  0  0  0  0  0  0  0
   -9.3158  -13.3942  -17.7754 N   0  0  0  0  0  0  0  0  0  0  0  0
   -2.9599  -13.1031  -11.7743 C   0  0  0  0  0  0  0  0  0  0  0  0
   -2.3042  -11.3361  -15.9319 C   0  0  2  0  0  0  0  0  0  0  0  0
   -7.4730  -13.5531  -19.5352 C   0  0  1  0  0  0  0  0  0  0  0  0
   -8.3530  -13.2742  -20.6070 O   0  0  0  0  0  0  0  0  0  0  0  0
   -3.8818  -12.2682  -12.2770 C   0  0  2  0  0  0  0  0  0  0  0  0
   -3.5522  -11.0914  -13.0356 O   0  0  0  0  0  0  0  0  0  0  0  0
   -3.8782  -11.4954  -16.0455 C   0  0  2  0  0  0  0  0  0  0  0  0
   -4.2434  -12.8660  -15.8410 O   0  0  0  0  0  0  0  0  0  0  0  0
   -6.0607  -12.9978  -19.9216 C   0  0  0  0  0  0  0  0  0  0  0  0
   -6.0943  -11.4790  -19.9498 O   0  0  0  0  0  0  0  0  0  0  0  0
   -5.3957  -12.5071  -12.0704 C   0  0  0  0  0  0  0  0  0  0  0  0
   -6.0161  -12.8304  -13.3475 N   0  0  0  0  0  0  0  0  0  0  0  0
   -4.3557  -11.0527  -17.4758 C   0  0  1  0  0  0  0  0  0  0  0  0
   -5.7538  -11.2029  -17.5359 O   0  0  0  0  0  0  0  0  0  0  0  0
   -7.3628  -15.0867  -19.5127 C   0  0  0  0  0  0  0  0  0  0  0  0
   -9.5408  -13.6742  -16.3446 C   0  0  0  0  0  0  0  0  0  0  0  0
  1  2  1  6  0  0  0
  1  6  1  0  0  0  0
  1 21  1  0  0  0  0
  3  4  1  6  0  0  0
  3  8  1  0  0  0  0
  3 28  1  0  0  0  0
  5  9  1  0  0  0  0
  5 25  1  0  0  0  0
  5 29  1  1  0  0  0
  6  7  1  6  0  0  0
  6 11  1  0  0  0  0
  8 12  1  0  0  0  0
  9 10  1  1  0  0  0
  9 14  1  0  0  0  0
 11 16  1  0  0  0  0
 12 13  1  6  0  0  0
 12 17  1  0  0  0  0
 14 15  1  6  0  0  0
 14 18  1  0  0  0  0
 15 31  1  0  0  0  0
 16 20  1  0  0  0  0
 17  2  1  1  0  0  0
 17 22  1  0  0  0  0
 18 19  1  6  0  0  0
 18 24  1  0  0  0  0
 18 30  1  0  0  0  0
 20 21  1  0  0  0  0
 20 26  1  1  0  0  0
 22 23  1  6  0  0  0
 22 28  1  0  0  0  0
 24 25  1  0  0  0  0
 26 27  1  0  0  0  0
 28 29  1  1  0  0  0
M  END
>  <CHROM.1>
-162.60951914,175.19180422,-99.99118375,50.42671369,-112.55123886,56.79968597
-4.78870577,-11.76977171,-16.25464144,-0.63912049,-0.48288315,-1.21721301

>  <Name>
ligand

>  <RI>
0

>  <Rbt.Current_Directory>
/home/itssahil/PROJECTS/Mol_Feturizer/New_Systems/rnas/4F8U

>  <Rbt.Executable>
rbdock ($Id: //depot/dev/client3/rdock/2013.1/src/exe/rbdock.cxx#4 $)

>  <Rbt.Library>
libRbt.so (2013.1, Build901 2013/11/27)

>  <Rbt.Parameter_File>
/export/apps/rDock/src/rDock_2013.1_src/data/scripts/dock_solv.prm

>  <Rbt.Receptor>
prm/pocket_docking_4.prm

>  <SCORE>
-8.34125

>  <SCORE.INTER>
-3.47362

>  <SCORE.INTER.CONST>
1

>  <SCORE.INTER.POLAR>
0

>  <SCORE.INTER.ROT>
6

>  <SCORE.INTER.SOLV>
14.9197

>  <SCORE.INTER.VDW>
-14.889

>  <SCORE.INTER.norm>
-0.112052

>  <SCORE.INTRA>
-4.86764

>  <SCORE.INTRA.DIHEDRAL>
-14.1153

>  <SCORE.INTRA.DIHEDRAL.0>
18.77

>  <SCORE.INTRA.POLAR>
0

>  <SCORE.INTRA.POLAR.0>
0

>  <SCORE.INTRA.REPUL>
0

>  <SCORE.INTRA.REPUL.0>
0

>  <SCORE.INTRA.SOLV>
2.41451

>  <SCORE.INTRA.SOLV.lig_0>
-77.2465

>  <SCORE.INTRA.VDW>
0.982757

>  <SCORE.INTRA.VDW.0>
-4.16072

>  <SCORE.INTRA.norm>
-0.15702

>  <SCORE.RESTR>
0

>  <SCORE.RESTR.CAVITY>
0

>  <SCORE.RESTR.norm>
0

>  <SCORE.SYSTEM>
0

>  <SCORE.SYSTEM.CONST>
0

>  <SCORE.SYSTEM.DIHEDRAL>
0

>  <SCORE.SYSTEM.SOLV>
0

>  <SCORE.SYSTEM.norm>
0

>  <SCORE.heavy>
31

>  <SCORE.norm>
-0.269073

>  <RMSD>
7.650

$$$$
ligand
 OpenBabel11021811493D
libRbt.so/2013.1/901 2013/11/27
 31 33  0  0  0  0  0  0  0  0999 V2000
   -9.8215   -7.6353  -11.6263 C   0  0  2  0  0  0  0  0  0  0  0  0
   -8.7300   -8.3698  -11.0556 O   0  0  0  0  0  0  0  0  0  0  0  0
   -8.1081  -12.2697   -9.4041 C   0  0  2  0  0  0  0  0  0  0  0  0
   -8.1106  -13.6943   -9.2677 N   0  0  0  0  0  0  0  0  0  0  0  0
   -5.5793  -13.6297   -9.9700 C   0  0  2  0  0  0  0  0  0  0  0  0
   -9.1929   -6.3723  -12.3130 C   0  0  2  0  0  0  0  0  0  0  0  0
   -8.2117   -6.7900  -13.3083 N   0  0  0  0  0  0  0  0  0  0  0  0
   -9.5966  -11.7688   -9.5502 C   0  0  0  0  0  0  0  0  0  0  0  0
   -4.0464  -13.5431   -9.6943 C   0  0  2  0  0  0  0  0  0  0  0  0
   -3.8028  -12.5029   -8.7630 O   0  0  0  0  0  0  0  0  0  0  0  0
   -8.5275   -5.4545  -11.2291 C   0  0  0  0  0  0  0  0  0  0  0  0
   -9.5930  -10.1855   -9.6936 C   0  0  2  0  0  0  0  0  0  0  0  0
  -10.9870   -9.7033   -9.8332 N   0  0  0  0  0  0  0  0  0  0  0  0
   -3.3371  -13.2387  -11.0873 C   0  0  1  0  0  0  0  0  0  0  0  0
   -1.8515  -13.1053  -10.9076 N   0  0  0  0  0  0  0  0  0  0  0  0
   -9.4846   -5.2410  -10.0208 C   0  0  0  0  0  0  0  0  0  0  0  0
   -8.7336   -9.7689  -10.9690 C   0  0  2  0  0  0  0  0  0  0  0  0
   -3.6437  -14.4592  -12.1214 C   0  0  1  0  0  0  0  0  0  0  0  0
   -3.1554  -15.6974  -11.6426 O   0  0  0  0  0  0  0  0  0  0  0  0
  -10.5044   -6.0816   -9.7902 C   0  0  2  0  0  0  0  0  0  0  0  0
  -10.7941   -7.2192  -10.6213 O   0  0  0  0  0  0  0  0  0  0  0  0
   -7.2531  -10.3127  -10.8025 C   0  0  2  0  0  0  0  0  0  0  0  0
   -6.4757   -9.9653  -11.9553 O   0  0  0  0  0  0  0  0  0  0  0  0
   -5.1918  -14.5989  -12.3114 C   0  0  0  0  0  0  0  0  0  0  0  0
   -5.8673  -14.7318  -10.9569 O   0  0  0  0  0  0  0  0  0  0  0  0
  -11.4678   -5.8848   -8.5965 C   0  0  0  0  0  0  0  0  0  0  0  0
  -12.5723   -5.0255   -8.9992 N   0  0  0  0  0  0  0  0  0  0  0  0
   -7.2743  -11.8776  -10.6597 C   0  0  1  0  0  0  0  0  0  0  0  0
   -5.9470  -12.3209  -10.5092 O   0  0  0  0  0  0  0  0  0  0  0  0
   -3.0293  -14.3160  -13.5237 C   0  0  0  0  0  0  0  0  0  0  0  0
   -1.1520  -12.2299  -11.8671 C   0  0  0  0  0  0  0  0  0  0  0  0
  1  2  1  1  0  0  0
  1  6  1  0  0  0  0
  1 21  1  0  0  0  0
  3  4  1  6  0  0  0
  3  8  1  0  0  0  0
  3 28  1  0  0  0  0
  5  9  1  0  0  0  0
  5 25  1  0  0  0  0
  5 29  1  6  0  0  0
  6  7  1  6  0  0  0
  6 11  1  0  0  0  0
  8 12  1  0  0  0  0
  9 10  1  1  0  0  0
  9 14  1  0  0  0  0
 11 16  1  0  0  0  0
 12 13  1  6  0  0  0
 12 17  1  0  0  0  0
 14 15  1  1  0  0  0
 14 18  1  0  0  0  0
 15 31  1  0  0  0  0
 16 20  1  0  0  0  0
 17  2  1  1  0  0  0
 17 22  1  0  0  0  0
 18 19  1  1  0  0  0
 18 24  1  0  0  0  0
 18 30  1  0  0  0  0
 20 21  1  0  0  0  0
 20 26  1  6  0  0  0
 22 23  1  6  0  0  0
 22 28  1  0  0  0  0
 24 25  1  0  0  0  0
 26 27  1  0  0  0  0
 28 29  1  1  0  0  0
M  END
>  <CHROM.1>
-147.09643621,-167.52037341,-151.50715146,-81.08403438,88.81442354,42.27178459
-7.12028816,-10.60898562,-10.75261339,-2.40720828,-0.44615136,2.82070596

>  <Name>
ligand

>  <RI>
0

>  <Rbt.Current_Directory>
/home/itssahil/PROJECTS/Mol_Feturizer/New_Systems/rnas/4F8U

>  <Rbt.Executable>
rbdock ($Id: //depot/dev/client3/rdock/2013.1/src/exe/rbdock.cxx#4 $)

>  <Rbt.Library>
libRbt.so (2013.1, Build901 2013/11/27)

>  <Rbt.Parameter_File>
/export/apps/rDock/src/rDock_2013.1_src/data/scripts/dock_solv.prm

>  <Rbt.Receptor>
prm/blind_docking_20.prm

>  <SCORE>
7.25316

>  <SCORE.INTER>
-0.751242

>  <SCORE.INTER.CONST>
1

>  <SCORE.INTER.POLAR>
0

>  <SCORE.INTER.ROT>
6

>  <SCORE.INTER.SOLV>
17.7498

>  <SCORE.INTER.VDW>
-14.0174

>  <SCORE.INTER.norm>
-0.0242336

>  <SCORE.INTRA>
-0.147625

>  <SCORE.INTRA.DIHEDRAL>
-7.20378

>  <SCORE.INTRA.DIHEDRAL.0>
18.77

>  <SCORE.INTRA.POLAR>
0

>  <SCORE.INTRA.POLAR.0>
0

>  <SCORE.INTRA.REPUL>
0

>  <SCORE.INTRA.REPUL.0>
0

>  <SCORE.INTRA.SOLV>
1.45693

>  <SCORE.INTRA.SOLV.lig_0>
-77.2465

>  <SCORE.INTRA.VDW>
2.7258

>  <SCORE.INTRA.VDW.0>
-4.16072

>  <SCORE.INTRA.norm>
-0.00476211

>  <SCORE.RESTR>
8.15203

>  <SCORE.RESTR.CAVITY>
8.15203

>  <SCORE.RESTR.norm>
0.262969

>  <SCORE.SYSTEM>
0

>  <SCORE.SYSTEM.CONST>
0

>  <SCORE.SYSTEM.DIHEDRAL>
0

>  <SCORE.SYSTEM.SOLV>
0

>  <SCORE.SYSTEM.norm>
0

>  <SCORE.heavy>
31

>  <SCORE.norm>
0.233973

>  <RMSD>
7.661

$$$$
ligand
 OpenBabel11021811493D
libRbt.so/2013.1/901 2013/11/27
 31 33  0  0  0  0  0  0  0  0999 V2000
   -6.2224   -6.6914  -19.6127 C   0  0  2  0  0  0  0  0  0  0  0  0
   -7.3748   -7.3339  -20.1747 O   0  0  0  0  0  0  0  0  0  0  0  0
   -7.5436  -11.0896  -18.1278 C   0  0  2  0  0  0  0  0  0  0  0  0
   -8.0685  -12.2815  -17.5345 N   0  0  0  0  0  0  0  0  0  0  0  0
   -5.8829  -12.2843  -20.6257 C   0  0  2  0  0  0  0  0  0  0  0  0
   -5.4532   -6.0356  -20.8128 C   0  0  2  0  0  0  0  0  0  0  0  0
   -6.3330   -5.1059  -21.5125 N   0  0  0  0  0  0  0  0  0  0  0  0
   -8.1822   -9.8388  -17.4098 C   0  0  0  0  0  0  0  0  0  0  0  0
   -5.7918  -13.4344  -21.6756 C   0  0  2  0  0  0  0  0  0  0  0  0
   -6.5916  -13.1003  -22.7970 O   0  0  0  0  0  0  0  0  0  0  0  0
   -4.9380   -7.1517  -21.7868 C   0  0  0  0  0  0  0  0  0  0  0  0
   -7.5925   -8.5155  -18.0644 C   0  0  2  0  0  0  0  0  0  0  0  0
   -8.1869   -7.3329  -17.3985 N   0  0  0  0  0  0  0  0  0  0  0  0
   -6.3265  -14.7571  -20.9679 C   0  0  1  0  0  0  0  0  0  0  0  0
   -6.3048  -15.9157  -21.9243 N   0  0  0  0  0  0  0  0  0  0  0  0
   -4.2403   -8.2969  -20.9974 C   0  0  0  0  0  0  0  0  0  0  0  0
   -7.9260   -8.4983  -19.6224 C   0  0  2  0  0  0  0  0  0  0  0  0
   -5.3774  -15.1006  -19.6896 C   0  0  1  0  0  0  0  0  0  0  0  0
   -4.0325  -15.3199  -20.0692 O   0  0  0  0  0  0  0  0  0  0  0  0
   -4.4668   -8.4702  -19.6866 C   0  0  2  0  0  0  0  0  0  0  0  0
   -5.3478   -7.6313  -18.9193 O   0  0  0  0  0  0  0  0  0  0  0  0
   -7.2951   -9.7827  -20.3065 C   0  0  2  0  0  0  0  0  0  0  0  0
   -7.6090   -9.7916  -21.7048 O   0  0  0  0  0  0  0  0  0  0  0  0
   -5.3999  -13.8949  -18.6906 C   0  0  0  0  0  0  0  0  0  0  0  0
   -5.0379  -12.6131  -19.4218 O   0  0  0  0  0  0  0  0  0  0  0  0
   -3.7810   -9.6006  -18.8843 C   0  0  0  0  0  0  0  0  0  0  0  0
   -2.8245   -9.0231  -17.9505 N   0  0  0  0  0  0  0  0  0  0  0  0
   -7.8861  -11.0810  -19.6471 C   0  0  1  0  0  0  0  0  0  0  0  0
   -7.3000  -12.1959  -20.2751 O   0  0  0  0  0  0  0  0  0  0  0  0
   -5.7642  -16.3553  -18.8892 C   0  0  0  0  0  0  0  0  0  0  0  0
   -7.5551  -16.1797  -22.6614 C   0  0  0  0  0  0  0  0  0  0  0  0
  1  2  1  6  0  0  0
  1  6  1  0  0  0  0
  1 21  1  0  0  0  0
  3  4  1  1  0  0  0
  3  8  1  0  0  0  0
  3 28  1  0  0  0  0
  5  9  1  0  0  0  0
  5 25  1  0  0  0  0
  5 29  1  1  0  0  0
  6  7  1  6  0  0  0
  6 11  1  0  0  0  0
  8 12  1  0  0  0  0
  9 10  1  6  0  0  0
  9 14  1  0  0  0  0
 11 16  1  0  0  0  0
 12 13  1  1  0  0  0
 12 17  1  0  0  0  0
 14 15  1  6  0  0  0
 14 18  1  0  0  0  0
 15 31  1  0  0  0  0
 16 20  1  0  0  0  0
 17  2  1  6  0  0  0
 17 22  1  0  0  0  0
 18 19  1  6  0  0  0
 18 24  1  0  0  0  0
 18 30  1  0  0  0  0
 20 21  1  0  0  0  0
 20 26  1  1  0  0  0
 22 23  1  6  0  0  0
 22 28  1  0  0  0  0
 24 25  1  0  0  0  0
 26 27  1  0  0  0  0
 28 29  1  6  0  0  0
M  END
>  <CHROM.1>
148.39984926,-162.18293541,-93.73201223,27.44623334,111.10601856,-77.49176103
-6.20973565,-10.83204102,-19.95306274,-1.59815037,-1.08248931,-3.05697614

>  <Name>
ligand

>  <RI>
0

>  <Rbt.Current_Directory>
/home/itssahil/PROJECTS/Mol_Feturizer/New_Systems/rnas/4F8U

>  <Rbt.Executable>
rbdock ($Id: //depot/dev/client3/rdock/2013.1/src/exe/rbdock.cxx#4 $)

>  <Rbt.Library>
libRbt.so (2013.1, Build901 2013/11/27)

>  <Rbt.Parameter_File>
/export/apps/rDock/src/rDock_2013.1_src/data/scripts/dock_solv.prm

>  <Rbt.Receptor>
prm/blind_docking_60.prm

>  <SCORE>
71.4316

>  <SCORE.INTER>
50.2253

>  <SCORE.INTER.CONST>
1

>  <SCORE.INTER.POLAR>
0

>  <SCORE.INTER.ROT>
6

>  <SCORE.INTER.SOLV>
31.7626

>  <SCORE.INTER.VDW>
15.296

>  <SCORE.INTER.norm>
1.62017

>  <SCORE.INTRA>
-0.506295

>  <SCORE.INTRA.DIHEDRAL>
-5.42373

>  <SCORE.INTRA.DIHEDRAL.0>
18.77

>  <SCORE.INTRA.POLAR>
0

>  <SCORE.INTRA.POLAR.0>
0

>  <SCORE.INTRA.REPUL>
0

>  <SCORE.INTRA.REPUL.0>
0

>  <SCORE.INTRA.SOLV>
0.432785

>  <SCORE.INTRA.SOLV.lig_0>
-77.2465

>  <SCORE.INTRA.VDW>
1.98918

>  <SCORE.INTRA.VDW.0>
-4.16072

>  <SCORE.INTRA.norm>
-0.0163321

>  <SCORE.RESTR>
21.7125

>  <SCORE.RESTR.CAVITY>
21.7125

>  <SCORE.RESTR.norm>
0.700404

>  <SCORE.SYSTEM>
0

>  <SCORE.SYSTEM.CONST>
0

>  <SCORE.SYSTEM.DIHEDRAL>
0

>  <SCORE.SYSTEM.SOLV>
0

>  <SCORE.SYSTEM.norm>
0

>  <SCORE.heavy>
31

>  <SCORE.norm>
2.30424

>  <RMSD>
7.668

$$$$
ligand
 OpenBabel11021811493D
libRbt.so/2013.1/901 2013/11/27
 31 33  0  0  0  0  0  0  0  0999 V2000
   -9.7732   -7.6728  -11.6884 C   0  0  2  0  0  0  0  0  0  0  0  0
   -8.7425   -8.4463  -11.0593 O   0  0  0  0  0  0  0  0  0  0  0  0
   -8.0373  -12.3527   -9.4572 C   0  0  2  0  0  0  0  0  0  0  0  0
   -8.1139  -13.7695   -9.2707 N   0  0  0  0  0  0  0  0  0  0  0  0
   -5.4742  -13.2595   -9.9646 C   0  0  2  0  0  0  0  0  0  0  0  0
   -9.0723   -6.3980  -12.2763 C   0  0  2  0  0  0  0  0  0  0  0  0
   -8.0205   -6.7982  -13.2044 N   0  0  0  0  0  0  0  0  0  0  0  0
   -9.4757  -11.7345   -9.2647 C   0  0  0  0  0  0  0  0  0  0  0  0
   -4.2058  -12.3795   -9.7413 C   0  0  2  0  0  0  0  0  0  0  0  0
   -4.6100  -11.0707   -9.3775 O   0  0  0  0  0  0  0  0  0  0  0  0
   -8.4826   -5.5308  -11.1100 C   0  0  0  0  0  0  0  0  0  0  0  0
   -9.3878  -10.1598   -9.4642 C   0  0  2  0  0  0  0  0  0  0  0  0
  -10.7345   -9.5679   -9.2872 N   0  0  0  0  0  0  0  0  0  0  0  0
   -3.3983  -12.3660  -11.1138 C   0  0  1  0  0  0  0  0  0  0  0  0
   -2.1701  -11.5085  -10.9978 N   0  0  0  0  0  0  0  0  0  0  0  0
   -9.5306   -5.3426   -9.9752 C   0  0  0  0  0  0  0  0  0  0  0  0
   -8.8301   -9.8385  -10.9218 C   0  0  2  0  0  0  0  0  0  0  0  0
   -2.9550  -13.8879  -11.4885 C   0  0  1  0  0  0  0  0  0  0  0  0
   -2.1237  -14.4592  -10.4968 O   0  0  0  0  0  0  0  0  0  0  0  0
  -10.5783   -6.1721   -9.8576 C   0  0  2  0  0  0  0  0  0  0  0  0
  -10.8172   -7.2746  -10.7499 O   0  0  0  0  0  0  0  0  0  0  0  0
   -7.3979  -10.4984  -11.0910 C   0  0  2  0  0  0  0  0  0  0  0  0
   -6.8954  -10.2371  -12.4075 O   0  0  0  0  0  0  0  0  0  0  0  0
   -4.2340  -14.7830  -11.6115 C   0  0  0  0  0  0  0  0  0  0  0  0
   -5.0724  -14.6599  -10.3504 O   0  0  0  0  0  0  0  0  0  0  0  0
  -11.6316   -5.9999   -8.7384 C   0  0  0  0  0  0  0  0  0  0  0  0
  -12.0265   -4.6009   -8.6531 N   0  0  0  0  0  0  0  0  0  0  0  0
   -7.5015  -12.0534  -10.8886 C   0  0  1  0  0  0  0  0  0  0  0  0
   -6.2138  -12.6008  -11.0407 O   0  0  0  0  0  0  0  0  0  0  0  0
   -2.1648  -14.0497  -12.7976 C   0  0  0  0  0  0  0  0  0  0  0  0
   -1.9200  -10.5693  -12.1076 C   0  0  0  0  0  0  0  0  0  0  0  0
  1  2  1  1  0  0  0
  1  6  1  0  0  0  0
  1 21  1  0  0  0  0
  3  4  1  6  0  0  0
  3  8  1  0  0  0  0
  3 28  1  0  0  0  0
  5  9  1  0  0  0  0
  5 25  1  0  0  0  0
  5 29  1  6  0  0  0
  6  7  1  6  0  0  0
  6 11  1  0  0  0  0
  8 12  1  0  0  0  0
  9 10  1  6  0  0  0
  9 14  1  0  0  0  0
 11 16  1  0  0  0  0
 12 13  1  6  0  0  0
 12 17  1  0  0  0  0
 14 15  1  1  0  0  0
 14 18  1  0  0  0  0
 15 31  1  0  0  0  0
 16 20  1  0  0  0  0
 17  2  1  1  0  0  0
 17 22  1  0  0  0  0
 18 19  1  1  0  0  0
 18 24  1  0  0  0  0
 18 30  1  0  0  0  0
 20 21  1  0  0  0  0
 20 26  1  6  0  0  0
 22 23  1  6  0  0  0
 22 28  1  0  0  0  0
 24 25  1  0  0  0  0
 26 27  1  0  0  0  0
 28 29  1  1  0  0  0
M  END
>  <CHROM.1>
-152.74859955,-116.92724591,-134.06663234,-96.57571877,46.35140394,-4.19778367
-7.04286492,-10.34709055,-10.67003556,-2.43593412,-0.39391892,2.83513275

>  <Name>
ligand

>  <RI>
0

>  <Rbt.Current_Directory>
/home/itssahil/PROJECTS/Mol_Feturizer/New_Systems/rnas/4F8U

>  <Rbt.Executable>
rbdock ($Id: //depot/dev/client3/rdock/2013.1/src/exe/rbdock.cxx#4 $)

>  <Rbt.Library>
libRbt.so (2013.1, Build901 2013/11/27)

>  <Rbt.Parameter_File>
/export/apps/rDock/src/rDock_2013.1_src/data/scripts/dock_solv.prm

>  <Rbt.Receptor>
prm/blind_docking_20.prm

>  <SCORE>
10.8196

>  <SCORE.INTER>
-3.45024

>  <SCORE.INTER.CONST>
1

>  <SCORE.INTER.POLAR>
0

>  <SCORE.INTER.ROT>
6

>  <SCORE.INTER.SOLV>
19.9021

>  <SCORE.INTER.VDW>
-16.5342

>  <SCORE.INTER.norm>
-0.111298

>  <SCORE.INTRA>
6.89556

>  <SCORE.INTRA.DIHEDRAL>
7.80019

>  <SCORE.INTRA.DIHEDRAL.0>
18.77

>  <SCORE.INTRA.POLAR>
0

>  <SCORE.INTRA.POLAR.0>
0

>  <SCORE.INTRA.REPUL>
0

>  <SCORE.INTRA.REPUL.0>
0

>  <SCORE.INTRA.SOLV>
1.99089

>  <SCORE.INTRA.SOLV.lig_0>
-77.2465

>  <SCORE.INTRA.VDW>
2.00003

>  <SCORE.INTRA.VDW.0>
-4.16072

>  <SCORE.INTRA.norm>
0.222438

>  <SCORE.RESTR>
7.37424

>  <SCORE.RESTR.CAVITY>
7.37424

>  <SCORE.RESTR.norm>
0.237879

>  <SCORE.SYSTEM>
0

>  <SCORE.SYSTEM.CONST>
0

>  <SCORE.SYSTEM.DIHEDRAL>
0

>  <SCORE.SYSTEM.SOLV>
0

>  <SCORE.SYSTEM.norm>
0

>  <SCORE.heavy>
31

>  <SCORE.norm>
0.349018

>  <RMSD>
7.675

$$$$
ligand
 OpenBabel11021811493D
libRbt.so/2013.1/901 2013/11/27
 31 33  0  0  0  0  0  0  0  0999 V2000
   -4.6382  -16.9198  -13.4003 C   0  0  2  0  0  0  0  0  0  0  0  0
   -3.7704  -16.1481  -12.5588 O   0  0  0  0  0  0  0  0  0  0  0  0
   -4.4432  -12.8463   -9.9189 C   0  0  2  0  0  0  0  0  0  0  0  0
   -4.7442  -11.5250   -9.4590 N   0  0  0  0  0  0  0  0  0  0  0  0
   -8.1350  -13.8280  -10.2864 C   0  0  2  0  0  0  0  0  0  0  0  0
   -4.0312  -18.3657  -13.4530 C   0  0  2  0  0  0  0  0  0  0  0  0
   -3.9278  -18.9059  -12.1020 N   0  0  0  0  0  0  0  0  0  0  0  0
   -3.1764  -12.7835  -10.8566 C   0  0  0  0  0  0  0  0  0  0  0  0
   -8.6389  -12.5961  -11.0998 C   0  0  2  0  0  0  0  0  0  0  0  0
   -7.7653  -12.3765  -12.1940 O   0  0  0  0  0  0  0  0  0  0  0  0
   -2.6237  -18.3259  -14.1439 C   0  0  0  0  0  0  0  0  0  0  0  0
   -2.8382  -14.2529  -11.3605 C   0  0  2  0  0  0  0  0  0  0  0  0
   -1.6499  -14.2062  -12.2443 N   0  0  0  0  0  0  0  0  0  0  0  0
   -8.6367  -11.3490  -10.1094 C   0  0  1  0  0  0  0  0  0  0  0  0
   -9.0799  -10.1039  -10.8239 N   0  0  0  0  0  0  0  0  0  0  0  0
   -2.6756  -17.4963  -15.4593 C   0  0  0  0  0  0  0  0  0  0  0  0
   -4.0897  -14.8465  -12.1479 C   0  0  2  0  0  0  0  0  0  0  0  0
   -9.6535  -11.6467   -8.8723 C   0  0  1  0  0  0  0  0  0  0  0  0
  -10.9815  -11.8535   -9.3133 O   0  0  0  0  0  0  0  0  0  0  0  0
   -3.6625  -16.6154  -15.6822 C   0  0  2  0  0  0  0  0  0  0  0  0
   -4.7305  -16.3727  -14.7499 O   0  0  0  0  0  0  0  0  0  0  0  0
   -5.3506  -14.8679  -11.1861 C   0  0  2  0  0  0  0  0  0  0  0  0
   -6.4900  -15.3775  -11.8905 O   0  0  0  0  0  0  0  0  0  0  0  0
   -9.1923  -12.9434   -8.1251 C   0  0  0  0  0  0  0  0  0  0  0  0
   -9.0492  -14.0860   -9.1164 O   0  0  0  0  0  0  0  0  0  0  0  0
   -3.7329  -15.7837  -16.9842 C   0  0  0  0  0  0  0  0  0  0  0  0
   -3.5246  -14.3762  -16.6742 N   0  0  0  0  0  0  0  0  0  0  0  0
   -5.6700  -13.4095  -10.6954 C   0  0  1  0  0  0  0  0  0  0  0  0
   -6.7882  -13.4702   -9.8427 O   0  0  0  0  0  0  0  0  0  0  0  0
   -9.7640  -10.5342   -7.8166 C   0  0  0  0  0  0  0  0  0  0  0  0
   -8.1645   -8.9490  -10.7559 C   0  0  0  0  0  0  0  0  0  0  0  0
  1  2  1  1  0  0  0
  1  6  1  0  0  0  0
  1 21  1  0  0  0  0
  3  4  1  6  0  0  0
  3  8  1  0  0  0  0
  3 28  1  0  0  0  0
  5  9  1  0  0  0  0
  5 25  1  0  0  0  0
  5 29  1  1  0  0  0
  6  7  1  1  0  0  0
  6 11  1  0  0  0  0
  8 12  1  0  0  0  0
  9 10  1  6  0  0  0
  9 14  1  0  0  0  0
 11 16  1  0  0  0  0
 12 13  1  6  0  0  0
 12 17  1  0  0  0  0
 14 15  1  6  0  0  0
 14 18  1  0  0  0  0
 15 31  1  0  0  0  0
 16 20  1  0  0  0  0
 17  2  1  1  0  0  0
 17 22  1  0  0  0  0
 18 19  1  6  0  0  0
 18 24  1  0  0  0  0
 18 30  1  0  0  0  0
 20 21  1  0  0  0  0
 20 26  1  6  0  0  0
 22 23  1  6  0  0  0
 22 28  1  0  0  0  0
 24 25  1  0  0  0  0
 26 27  1  0  0  0  0
 28 29  1  1  0  0  0
M  END
>  <CHROM.1>
-171.93570296,-72.56559662,-125.42377463,-174.16141105,-113.39528493,173.76619220
-5.90434376,-14.08664819,-11.71019315,0.74185129,-0.58116910,-2.92342253

>  <Name>
ligand

>  <RI>
0

>  <Rbt.Current_Directory>
/home/itssahil/PROJECTS/Mol_Feturizer/New_Systems/rnas/4F8U

>  <Rbt.Executable>
rbdock ($Id: //depot/dev/client3/rdock/2013.1/src/exe/rbdock.cxx#4 $)

>  <Rbt.Library>
libRbt.so (2013.1, Build901 2013/11/27)

>  <Rbt.Parameter_File>
/export/apps/rDock/src/rDock_2013.1_src/data/scripts/dock_solv.prm

>  <Rbt.Receptor>
prm/pocket_docking_8.prm

>  <SCORE>
-8.36457

>  <SCORE.INTER>
-1.51816

>  <SCORE.INTER.CONST>
1

>  <SCORE.INTER.POLAR>
0

>  <SCORE.INTER.ROT>
6

>  <SCORE.INTER.SOLV>
9.73392

>  <SCORE.INTER.VDW>
-11.8567

>  <SCORE.INTER.norm>
-0.0489729

>  <SCORE.INTRA>
-6.84641

>  <SCORE.INTRA.DIHEDRAL>
-14.4288

>  <SCORE.INTRA.DIHEDRAL.0>
18.77

>  <SCORE.INTRA.POLAR>
0

>  <SCORE.INTRA.POLAR.0>
0

>  <SCORE.INTRA.REPUL>
0

>  <SCORE.INTRA.REPUL.0>
0

>  <SCORE.INTRA.SOLV>
-1.98745

>  <SCORE.INTRA.SOLV.lig_0>
-77.2465

>  <SCORE.INTRA.VDW>
1.3617

>  <SCORE.INTRA.VDW.0>
-4.16072

>  <SCORE.INTRA.norm>
-0.220852

>  <SCORE.RESTR>
0

>  <SCORE.RESTR.CAVITY>
0

>  <SCORE.RESTR.norm>
0

>  <SCORE.SYSTEM>
0

>  <SCORE.SYSTEM.CONST>
0

>  <SCORE.SYSTEM.DIHEDRAL>
0

>  <SCORE.SYSTEM.SOLV>
0

>  <SCORE.SYSTEM.norm>
0

>  <SCORE.heavy>
31

>  <SCORE.norm>
-0.269825

>  <RMSD>
7.688

$$$$
ligand
 OpenBabel11021811493D
libRbt.so/2013.1/901 2013/11/27
 31 33  0  0  0  0  0  0  0  0999 V2000
   -9.7626   -7.6859  -11.6939 C   0  0  2  0  0  0  0  0  0  0  0  0
   -8.7532   -8.4598  -11.0314 O   0  0  0  0  0  0  0  0  0  0  0  0
   -8.0493  -12.3809   -9.4654 C   0  0  2  0  0  0  0  0  0  0  0  0
   -8.1246  -13.7996   -9.2934 N   0  0  0  0  0  0  0  0  0  0  0  0
   -5.4808  -13.2750   -9.9692 C   0  0  2  0  0  0  0  0  0  0  0  0
   -9.0490   -6.3952  -12.2295 C   0  0  2  0  0  0  0  0  0  0  0  0
   -7.9528   -6.7703  -13.1157 N   0  0  0  0  0  0  0  0  0  0  0  0
   -9.4894  -11.7668   -9.2730 C   0  0  0  0  0  0  0  0  0  0  0  0
   -4.2201  -12.3883   -9.7291 C   0  0  2  0  0  0  0  0  0  0  0  0
   -4.6360  -11.0861   -9.3547 O   0  0  0  0  0  0  0  0  0  0  0  0
   -8.5211   -5.5415  -11.0244 C   0  0  0  0  0  0  0  0  0  0  0  0
   -9.4030  -10.1900   -9.4564 C   0  0  2  0  0  0  0  0  0  0  0  0
  -10.7513   -9.6018   -9.2794 N   0  0  0  0  0  0  0  0  0  0  0  0
   -3.4044  -12.3550  -11.0965 C   0  0  1  0  0  0  0  0  0  0  0  0
   -2.1831  -11.4900  -10.9641 N   0  0  0  0  0  0  0  0  0  0  0  0
   -9.6206   -5.3816   -9.9350 C   0  0  0  0  0  0  0  0  0  0  0  0
   -8.8394   -9.8534  -10.9083 C   0  0  2  0  0  0  0  0  0  0  0  0
   -2.9478  -13.8698  -11.4837 C   0  0  1  0  0  0  0  0  0  0  0  0
   -2.1186  -14.4452  -10.4927 O   0  0  0  0  0  0  0  0  0  0  0  0
  -10.6640   -6.2229   -9.8777 C   0  0  2  0  0  0  0  0  0  0  0  0
  -10.8515   -7.3130  -10.7971 O   0  0  0  0  0  0  0  0  0  0  0  0
   -7.4054  -10.5096  -11.0777 C   0  0  2  0  0  0  0  0  0  0  0  0
   -6.8976  -10.2344  -12.3893 O   0  0  0  0  0  0  0  0  0  0  0  0
   -4.2196  -14.7728  -11.6238 C   0  0  0  0  0  0  0  0  0  0  0  0
   -5.0666  -14.6685  -10.3667 O   0  0  0  0  0  0  0  0  0  0  0  0
  -11.7681   -6.0789   -8.8044 C   0  0  0  0  0  0  0  0  0  0  0  0
  -11.9737   -4.6689   -8.5041 N   0  0  0  0  0  0  0  0  0  0  0  0
   -7.5077  -12.0666  -10.8913 C   0  0  1  0  0  0  0  0  0  0  0  0
   -6.2185  -12.6107  -11.0432 O   0  0  0  0  0  0  0  0  0  0  0  0
   -2.1485  -14.0127  -12.7895 C   0  0  0  0  0  0  0  0  0  0  0  0
   -1.8561  -10.6373  -12.1226 C   0  0  0  0  0  0  0  0  0  0  0  0
  1  2  1  1  0  0  0
  1  6  1  0  0  0  0
  1 21  1  0  0  0  0
  3  4  1  6  0  0  0
  3  8  1  0  0  0  0
  3 28  1  0  0  0  0
  5  9  1  0  0  0  0
  5 25  1  0  0  0  0
  5 29  1  6  0  0  0
  6  7  1  6  0  0  0
  6 11  1  0  0  0  0
  8 12  1  0  0  0  0
  9 10  1  6  0  0  0
  9 14  1  0  0  0  0
 11 16  1  0  0  0  0
 12 13  1  6  0  0  0
 12 17  1  0  0  0  0
 14 15  1  1  0  0  0
 14 18  1  0  0  0  0
 15 31  1  0  0  0  0
 16 20  1  0  0  0  0
 17  2  1  1  0  0  0
 17 22  1  0  0  0  0
 18 19  1  1  0  0  0
 18 24  1  0  0  0  0
 18 30  1  0  0  0  0
 20 21  1  0  0  0  0
 20 26  1  6  0  0  0
 22 23  1  6  0  0  0
 22 28  1  0  0  0  0
 24 25  1  0  0  0  0
 26 27  1  0  0  0  0
 28 29  1  1  0  0  0
M  END
>  <CHROM.1>
-153.40713087,-116.51468610,-140.10048656,-98.55249399,33.97692309,-4.41524030
-7.05212143,-10.36288682,-10.65834600,-2.44054810,-0.38812685,2.84243318

>  <Name>
ligand

>  <RI>
0

>  <Rbt.Current_Directory>
/home/itssahil/PROJECTS/Mol_Feturizer/New_Systems/rnas/4F8U

>  <Rbt.Executable>
rbdock ($Id: //depot/dev/client3/rdock/2013.1/src/exe/rbdock.cxx#4 $)

>  <Rbt.Library>
libRbt.so (2013.1, Build901 2013/11/27)

>  <Rbt.Parameter_File>
/export/apps/rDock/src/rDock_2013.1_src/data/scripts/dock_solv.prm

>  <Rbt.Receptor>
prm/blind_docking_20.prm

>  <SCORE>
10.3661

>  <SCORE.INTER>
-4.03978

>  <SCORE.INTER.CONST>
1

>  <SCORE.INTER.POLAR>
0

>  <SCORE.INTER.ROT>
6

>  <SCORE.INTER.SOLV>
20.0234

>  <SCORE.INTER.VDW>
-16.9676

>  <SCORE.INTER.norm>
-0.130316

>  <SCORE.INTRA>
6.94212

>  <SCORE.INTRA.DIHEDRAL>
7.32441

>  <SCORE.INTRA.DIHEDRAL.0>
18.77

>  <SCORE.INTRA.POLAR>
0

>  <SCORE.INTRA.POLAR.0>
0

>  <SCORE.INTRA.REPUL>
0

>  <SCORE.INTRA.REPUL.0>
0

>  <SCORE.INTRA.SOLV>
2.05128

>  <SCORE.INTRA.SOLV.lig_0>
-77.2465

>  <SCORE.INTRA.VDW>
2.25427

>  <SCORE.INTRA.VDW.0>
-4.16072

>  <SCORE.INTRA.norm>
0.223939

>  <SCORE.RESTR>
7.46374

>  <SCORE.RESTR.CAVITY>
7.46374

>  <SCORE.RESTR.norm>
0.240766

>  <SCORE.SYSTEM>
0

>  <SCORE.SYSTEM.CONST>
0

>  <SCORE.SYSTEM.DIHEDRAL>
0

>  <SCORE.SYSTEM.SOLV>
0

>  <SCORE.SYSTEM.norm>
0

>  <SCORE.heavy>
31

>  <SCORE.norm>
0.33439

>  <RMSD>
7.692

$$$$
ligand
 OpenBabel11021811493D
libRbt.so/2013.1/901 2013/11/27
 31 33  0  0  0  0  0  0  0  0999 V2000
   -6.6339   -7.0675  -23.3903 C   0  0  2  0  0  0  0  0  0  0  0  0
   -6.4348   -8.3030  -22.6899 O   0  0  0  0  0  0  0  0  0  0  0  0
   -7.1145   -9.6692  -18.6905 C   0  0  2  0  0  0  0  0  0  0  0  0
   -7.7883   -9.9885  -17.4690 N   0  0  0  0  0  0  0  0  0  0  0  0
   -8.0622  -12.9306  -20.4834 C   0  0  2  0  0  0  0  0  0  0  0  0
   -6.3238   -7.3608  -24.9002 C   0  0  2  0  0  0  0  0  0  0  0  0
   -7.1916   -8.4296  -25.3825 N   0  0  0  0  0  0  0  0  0  0  0  0
   -7.2689   -8.1244  -18.9692 C   0  0  0  0  0  0  0  0  0  0  0  0
   -8.3133  -14.1616  -19.5588 C   0  0  2  0  0  0  0  0  0  0  0  0
   -9.2815  -13.8162  -18.5830 O   0  0  0  0  0  0  0  0  0  0  0  0
   -4.8146   -7.7543  -25.0656 C   0  0  0  0  0  0  0  0  0  0  0  0
   -6.5133   -7.7695  -20.3221 C   0  0  2  0  0  0  0  0  0  0  0  0
   -6.6530   -6.3200  -20.5954 N   0  0  0  0  0  0  0  0  0  0  0  0
   -6.9212  -14.5260  -18.8766 C   0  0  1  0  0  0  0  0  0  0  0  0
   -7.0793  -15.6880  -17.9375 N   0  0  0  0  0  0  0  0  0  0  0  0
   -3.8955   -6.7584  -24.3009 C   0  0  0  0  0  0  0  0  0  0  0  0
   -7.1351   -8.6198  -21.5176 C   0  0  2  0  0  0  0  0  0  0  0  0
   -5.8443  -14.9163  -20.0345 C   0  0  1  0  0  0  0  0  0  0  0  0
   -6.2637  -16.0315  -20.7969 O   0  0  0  0  0  0  0  0  0  0  0  0
   -4.3812   -5.9848  -23.3184 C   0  0  2  0  0  0  0  0  0  0  0  0
   -5.7579   -6.0074  -22.9024 O   0  0  0  0  0  0  0  0  0  0  0  0
   -6.9894  -10.1651  -21.1914 C   0  0  2  0  0  0  0  0  0  0  0  0
   -7.5674  -10.9410  -22.2487 O   0  0  0  0  0  0  0  0  0  0  0  0
   -5.6768  -13.7057  -21.0136 C   0  0  0  0  0  0  0  0  0  0  0  0
   -7.0368  -13.2718  -21.5339 O   0  0  0  0  0  0  0  0  0  0  0  0
   -3.4845   -4.9872  -22.5487 C   0  0  0  0  0  0  0  0  0  0  0  0
   -3.9582   -3.6296  -22.7789 N   0  0  0  0  0  0  0  0  0  0  0  0
   -7.7392  -10.4986  -19.8512 C   0  0  1  0  0  0  0  0  0  0  0  0
   -7.5831  -11.8735  -19.5935 O   0  0  0  0  0  0  0  0  0  0  0  0
   -4.4380  -15.2920  -19.5387 C   0  0  0  0  0  0  0  0  0  0  0  0
   -6.4405  -15.5524  -16.6147 C   0  0  0  0  0  0  0  0  0  0  0  0
  1  2  1  1  0  0  0
  1  6  1  0  0  0  0
  1 21  1  0  0  0  0
  3  4  1  1  0  0  0
  3  8  1  0  0  0  0
  3 28  1  0  0  0  0
  5  9  1  0  0  0  0
  5 25  1  0  0  0  0
  5 29  1  1  0  0  0
  6  7  1  1  0  0  0
  6 11  1  0  0  0  0
  8 12  1  0  0  0  0
  9 10  1  1  0  0  0
  9 14  1  0  0  0  0
 11 16  1  0  0  0  0
 12 13  1  6  0  0  0
 12 17  1  0  0  0  0
 14 15  1  1  0  0  0
 14 18  1  0  0  0  0
 15 31  1  0  0  0  0
 16 20  1  0  0  0  0
 17  2  1  6  0  0  0
 17 22  1  0  0  0  0
 18 19  1  6  0  0  0
 18 24  1  0  0  0  0
 18 30  1  0  0  0  0
 20 21  1  0  0  0  0
 20 26  1  6  0  0  0
 22 23  1  6  0  0  0
 22 28  1  0  0  0  0
 24 25  1  0  0  0  0
 26 27  1  0  0  0  0
 28 29  1  1  0  0  0
M  END
>  <CHROM.1>
-151.18476165,-153.26865174,-134.24328089,-75.17340605,116.99200325,179.80140231
-6.47811925,-10.37694711,-21.04900106,-1.00639689,-1.22906749,-3.06847588

>  <Name>
ligand

>  <RI>
0

>  <Rbt.Current_Directory>
/home/itssahil/PROJECTS/Mol_Feturizer/New_Systems/rnas/4F8U

>  <Rbt.Executable>
rbdock ($Id: //depot/dev/client3/rdock/2013.1/src/exe/rbdock.cxx#4 $)

>  <Rbt.Library>
libRbt.so (2013.1, Build901 2013/11/27)

>  <Rbt.Parameter_File>
/export/apps/rDock/src/rDock_2013.1_src/data/scripts/dock_solv.prm

>  <Rbt.Receptor>
prm/pocket_docking_6.prm

>  <SCORE>
-15.0715

>  <SCORE.INTER>
-13.0666

>  <SCORE.INTER.CONST>
1

>  <SCORE.INTER.POLAR>
0

>  <SCORE.INTER.ROT>
6

>  <SCORE.INTER.SOLV>
15.3016

>  <SCORE.INTER.VDW>
-21.4116

>  <SCORE.INTER.norm>
-0.421502

>  <SCORE.INTRA>
-2.00492

>  <SCORE.INTRA.DIHEDRAL>
-8.59238

>  <SCORE.INTRA.DIHEDRAL.0>
18.77

>  <SCORE.INTRA.POLAR>
0

>  <SCORE.INTRA.POLAR.0>
0

>  <SCORE.INTRA.REPUL>
0

>  <SCORE.INTRA.REPUL.0>
0

>  <SCORE.INTRA.SOLV>
0.0469679

>  <SCORE.INTRA.SOLV.lig_0>
-77.2465

>  <SCORE.INTRA.VDW>
2.26779

>  <SCORE.INTRA.VDW.0>
-4.16072

>  <SCORE.INTRA.norm>
-0.0646747

>  <SCORE.RESTR>
0

>  <SCORE.RESTR.CAVITY>
0

>  <SCORE.RESTR.norm>
0

>  <SCORE.SYSTEM>
0

>  <SCORE.SYSTEM.CONST>
0

>  <SCORE.SYSTEM.DIHEDRAL>
0

>  <SCORE.SYSTEM.SOLV>
0

>  <SCORE.SYSTEM.norm>
0

>  <SCORE.heavy>
31

>  <SCORE.norm>
-0.486176

>  <RMSD>
7.697

$$$$
ligand
 OpenBabel11021811493D
libRbt.so/2013.1/901 2013/11/27
 31 33  0  0  0  0  0  0  0  0999 V2000
   -3.7057  -10.5822  -12.7238 C   0  0  2  0  0  0  0  0  0  0  0  0
   -3.1409  -11.6250  -13.5299 O   0  0  0  0  0  0  0  0  0  0  0  0
   -3.1842   -9.8038  -17.4035 C   0  0  2  0  0  0  0  0  0  0  0  0
   -2.9466   -9.5925  -18.7988 N   0  0  0  0  0  0  0  0  0  0  0  0
   -6.3765  -10.2595  -17.3554 C   0  0  2  0  0  0  0  0  0  0  0  0
   -3.4530  -10.9922  -11.2305 C   0  0  2  0  0  0  0  0  0  0  0  0
   -2.0229  -11.1693  -11.0037 N   0  0  0  0  0  0  0  0  0  0  0  0
   -1.7970   -9.9005  -16.6590 C   0  0  0  0  0  0  0  0  0  0  0  0
   -7.5139  -10.4621  -18.4035 C   0  0  2  0  0  0  0  0  0  0  0  0
   -7.8016  -11.8457  -18.5109 O   0  0  0  0  0  0  0  0  0  0  0  0
   -4.2344  -12.3120  -10.9027 C   0  0  0  0  0  0  0  0  0  0  0  0
   -2.0623  -10.1272  -15.1080 C   0  0  2  0  0  0  0  0  0  0  0  0
   -0.7654  -10.2214  -14.3980 N   0  0  0  0  0  0  0  0  0  0  0  0
   -6.9831   -9.8810  -19.7879 C   0  0  1  0  0  0  0  0  0  0  0  0
   -8.0099  -10.0663  -20.8690 N   0  0  0  0  0  0  0  0  0  0  0  0
   -5.7035  -12.2261  -11.4083 C   0  0  0  0  0  0  0  0  0  0  0  0
   -2.9036  -11.4647  -14.9021 C   0  0  2  0  0  0  0  0  0  0  0  0
   -6.6684   -8.2922  -19.6155 C   0  0  1  0  0  0  0  0  0  0  0  0
   -7.8199   -7.5589  -19.2453 O   0  0  0  0  0  0  0  0  0  0  0  0
   -6.0590  -11.3405  -12.3512 C   0  0  2  0  0  0  0  0  0  0  0  0
   -5.1368  -10.4170  -12.9558 O   0  0  0  0  0  0  0  0  0  0  0  0
   -4.2768  -11.3448  -15.6866 C   0  0  2  0  0  0  0  0  0  0  0  0
   -5.0328  -12.5522  -15.5293 O   0  0  0  0  0  0  0  0  0  0  0  0
   -5.5971   -8.0969  -18.4902 C   0  0  0  0  0  0  0  0  0  0  0  0
   -6.0520   -8.7940  -17.2190 O   0  0  0  0  0  0  0  0  0  0  0  0
   -7.5142  -11.2380  -12.8648 C   0  0  0  0  0  0  0  0  0  0  0  0
   -7.5980  -11.8010  -14.2051 N   0  0  0  0  0  0  0  0  0  0  0  0
   -3.9972  -11.1189  -17.2165 C   0  0  1  0  0  0  0  0  0  0  0  0
   -5.2360  -11.0125  -17.8762 O   0  0  0  0  0  0  0  0  0  0  0  0
   -6.1393   -7.5767  -20.8695 C   0  0  0  0  0  0  0  0  0  0  0  0
   -7.5916  -10.8596  -22.0402 C   0  0  0  0  0  0  0  0  0  0  0  0
  1  2  1  6  0  0  0
  1  6  1  0  0  0  0
  1 21  1  0  0  0  0
  3  4  1  6  0  0  0
  3  8  1  0  0  0  0
  3 28  1  0  0  0  0
  5  9  1  0  0  0  0
  5 25  1  0  0  0  0
  5 29  1  6  0  0  0
  6  7  1  6  0  0  0
  6 11  1  0  0  0  0
  8 12  1  0  0  0  0
  9 10  1  6  0  0  0
  9 14  1  0  0  0  0
 11 16  1  0  0  0  0
 12 13  1  1  0  0  0
 12 17  1  0  0  0  0
 14 15  1  6  0  0  0
 14 18  1  0  0  0  0
 15 31  1  0  0  0  0
 16 20  1  0  0  0  0
 17  2  1  1  0  0  0
 17 22  1  0  0  0  0
 18 19  1  1  0  0  0
 18 24  1  0  0  0  0
 18 30  1  0  0  0  0
 20 21  1  0  0  0  0
 20 26  1  1  0  0  0
 22 23  1  6  0  0  0
 22 28  1  0  0  0  0
 24 25  1  0  0  0  0
 26 27  1  0  0  0  0
 28 29  1  6  0  0  0
M  END
>  <CHROM.1>
-165.06172890,-178.64575083,-121.00556566,51.85275547,-106.75696303,-77.08880406
-5.10945329,-10.47034768,-16.13159471,-1.19104226,-0.18317323,-1.24502355

>  <Name>
ligand

>  <RI>
0

>  <Rbt.Current_Directory>
/home/itssahil/PROJECTS/Mol_Feturizer/New_Systems/rnas/4F8U

>  <Rbt.Executable>
rbdock ($Id: //depot/dev/client3/rdock/2013.1/src/exe/rbdock.cxx#4 $)

>  <Rbt.Library>
libRbt.so (2013.1, Build901 2013/11/27)

>  <Rbt.Parameter_File>
/export/apps/rDock/src/rDock_2013.1_src/data/scripts/dock_solv.prm

>  <Rbt.Receptor>
prm/pocket_docking_3.prm

>  <SCORE>
-10.9095

>  <SCORE.INTER>
-6.6713

>  <SCORE.INTER.CONST>
1

>  <SCORE.INTER.POLAR>
0

>  <SCORE.INTER.ROT>
6

>  <SCORE.INTER.SOLV>
21.8995

>  <SCORE.INTER.VDW>
-19.3474

>  <SCORE.INTER.norm>
-0.215203

>  <SCORE.INTRA>
-4.23824

>  <SCORE.INTRA.DIHEDRAL>
-12.941

>  <SCORE.INTRA.DIHEDRAL.0>
18.77

>  <SCORE.INTRA.POLAR>
0

>  <SCORE.INTRA.POLAR.0>
0

>  <SCORE.INTRA.REPUL>
0

>  <SCORE.INTRA.REPUL.0>
0

>  <SCORE.INTRA.SOLV>
3.59235

>  <SCORE.INTRA.SOLV.lig_0>
-77.2465

>  <SCORE.INTRA.VDW>
0.436069

>  <SCORE.INTRA.VDW.0>
-4.16072

>  <SCORE.INTRA.norm>
-0.136717

>  <SCORE.RESTR>
0

>  <SCORE.RESTR.CAVITY>
0

>  <SCORE.RESTR.norm>
0

>  <SCORE.SYSTEM>
0

>  <SCORE.SYSTEM.CONST>
0

>  <SCORE.SYSTEM.DIHEDRAL>
0

>  <SCORE.SYSTEM.SOLV>
0

>  <SCORE.SYSTEM.norm>
0

>  <SCORE.heavy>
31

>  <SCORE.norm>
-0.351921

>  <RMSD>
7.706

$$$$
ligand
 OpenBabel11021811493D
libRbt.so/2013.1/901 2013/11/27
 31 33  0  0  0  0  0  0  0  0999 V2000
   -3.2680  -10.5681  -13.0568 C   0  0  2  0  0  0  0  0  0  0  0  0
   -2.7435  -11.5605  -13.9492 O   0  0  0  0  0  0  0  0  0  0  0  0
   -3.0855   -9.5632  -17.7198 C   0  0  2  0  0  0  0  0  0  0  0  0
   -2.9422   -9.2792  -19.1151 N   0  0  0  0  0  0  0  0  0  0  0  0
   -6.2402  -10.0905  -17.5209 C   0  0  2  0  0  0  0  0  0  0  0  0
   -3.0172  -11.1041  -11.6036 C   0  0  2  0  0  0  0  0  0  0  0  0
   -1.5920  -11.3441  -11.4063 N   0  0  0  0  0  0  0  0  0  0  0  0
   -1.6521   -9.6473  -17.0668 C   0  0  0  0  0  0  0  0  0  0  0  0
   -7.4426  -10.3070  -18.4908 C   0  0  2  0  0  0  0  0  0  0  0  0
   -7.7113  -11.6951  -18.5905 O   0  0  0  0  0  0  0  0  0  0  0  0
   -3.8386  -12.4203  -11.3740 C   0  0  0  0  0  0  0  0  0  0  0  0
   -1.8128   -9.9550  -15.5154 C   0  0  2  0  0  0  0  0  0  0  0  0
   -0.4717  -10.0379  -14.8911 N   0  0  0  0  0  0  0  0  0  0  0  0
   -7.0185   -9.7056  -19.9031 C   0  0  1  0  0  0  0  0  0  0  0  0
   -8.1131   -9.9025  -20.9133 N   0  0  0  0  0  0  0  0  0  0  0  0
   -5.3080  -12.2476  -11.8561 C   0  0  0  0  0  0  0  0  0  0  0  0
   -2.5975  -11.3284  -15.3239 C   0  0  2  0  0  0  0  0  0  0  0  0
   -6.7222   -8.1125  -19.7388 C   0  0  1  0  0  0  0  0  0  0  0  0
   -7.8592   -7.4040  -19.2845 O   0  0  0  0  0  0  0  0  0  0  0  0
   -5.6418  -11.2786  -12.7218 C   0  0  2  0  0  0  0  0  0  0  0  0
   -4.6947  -10.3394  -13.2602 O   0  0  0  0  0  0  0  0  0  0  0  0
   -4.0202  -11.2189  -16.0165 C   0  0  2  0  0  0  0  0  0  0  0  0
   -4.7269  -12.4574  -15.8723 O   0  0  0  0  0  0  0  0  0  0  0  0
   -5.5803   -7.9051  -18.6874 C   0  0  0  0  0  0  0  0  0  0  0  0
   -5.9344   -8.6202  -17.3943 O   0  0  0  0  0  0  0  0  0  0  0  0
   -7.0967  -11.0892  -13.2105 C   0  0  0  0  0  0  0  0  0  0  0  0
   -7.2673  -11.7482  -14.4978 N   0  0  0  0  0  0  0  0  0  0  0  0
   -3.8439  -10.9125  -17.5478 C   0  0  1  0  0  0  0  0  0  0  0  0
   -5.1242  -10.8177  -18.1248 O   0  0  0  0  0  0  0  0  0  0  0  0
   -6.2934   -7.3777  -21.0197 C   0  0  0  0  0  0  0  0  0  0  0  0
   -7.6854  -10.2270  -22.2873 C   0  0  0  0  0  0  0  0  0  0  0  0
  1  2  1  6  0  0  0
  1  6  1  0  0  0  0
  1 21  1  0  0  0  0
  3  4  1  6  0  0  0
  3  8  1  0  0  0  0
  3 28  1  0  0  0  0
  5  9  1  0  0  0  0
  5 25  1  0  0  0  0
  5 29  1  6  0  0  0
  6  7  1  6  0  0  0
  6 11  1  0  0  0  0
  8 12  1  0  0  0  0
  9 10  1  6  0  0  0
  9 14  1  0  0  0  0
 11 16  1  0  0  0  0
 12 13  1  6  0  0  0
 12 17  1  0  0  0  0
 14 15  1  6  0  0  0
 14 18  1  0  0  0  0
 15 31  1  0  0  0  0
 16 20  1  0  0  0  0
 17  2  1  1  0  0  0
 17 22  1  0  0  0  0
 18 19  1  1  0  0  0
 18 24  1  0  0  0  0
 18 30  1  0  0  0  0
 20 21  1  0  0  0  0
 20 26  1  1  0  0  0
 22 23  1  6  0  0  0
 22 28  1  0  0  0  0
 24 25  1  0  0  0  0
 26 27  1  0  0  0  0
 28 29  1  6  0  0  0
M  END
>  <CHROM.1>
-169.53490572,-178.21929218,-142.31768729,50.77223973,-96.93291383,-74.92121913
-4.91752282,-10.33136121,-16.41381213,-1.12717216,-0.17534238,-1.19352297

>  <Name>
ligand

>  <RI>
0

>  <Rbt.Current_Directory>
/home/itssahil/PROJECTS/Mol_Feturizer/New_Systems/rnas/4F8U

>  <Rbt.Executable>
rbdock ($Id: //depot/dev/client3/rdock/2013.1/src/exe/rbdock.cxx#4 $)

>  <Rbt.Library>
libRbt.so (2013.1, Build901 2013/11/27)

>  <Rbt.Parameter_File>
/export/apps/rDock/src/rDock_2013.1_src/data/scripts/dock_solv.prm

>  <Rbt.Receptor>
prm/pocket_docking_3.prm

>  <SCORE>
-10.8532

>  <SCORE.INTER>
-6.50844

>  <SCORE.INTER.CONST>
1

>  <SCORE.INTER.POLAR>
0

>  <SCORE.INTER.ROT>
6

>  <SCORE.INTER.SOLV>
22.8193

>  <SCORE.INTER.VDW>
-19.5454

>  <SCORE.INTER.norm>
-0.20995

>  <SCORE.INTRA>
-4.34479

>  <SCORE.INTRA.DIHEDRAL>
-13.6349

>  <SCORE.INTRA.DIHEDRAL.0>
18.77

>  <SCORE.INTRA.POLAR>
0

>  <SCORE.INTRA.POLAR.0>
0

>  <SCORE.INTRA.REPUL>
0

>  <SCORE.INTRA.REPUL.0>
0

>  <SCORE.INTRA.SOLV>
3.71327

>  <SCORE.INTRA.SOLV.lig_0>
-77.2465

>  <SCORE.INTRA.VDW>
0.616018

>  <SCORE.INTRA.VDW.0>
-4.16072

>  <SCORE.INTRA.norm>
-0.140154

>  <SCORE.RESTR>
0

>  <SCORE.RESTR.CAVITY>
0

>  <SCORE.RESTR.norm>
0

>  <SCORE.SYSTEM>
0

>  <SCORE.SYSTEM.CONST>
0

>  <SCORE.SYSTEM.DIHEDRAL>
0

>  <SCORE.SYSTEM.SOLV>
0

>  <SCORE.SYSTEM.norm>
0

>  <SCORE.heavy>
31

>  <SCORE.norm>
-0.350104

>  <RMSD>
7.720

$$$$
ligand
 OpenBabel11021811493D
libRbt.so/2013.1/901 2013/11/27
 31 33  0  0  0  0  0  0  0  0999 V2000
   -6.0630  -15.2674  -11.3074 C   0  0  2  0  0  0  0  0  0  0  0  0
   -6.8968  -14.6266  -12.2825 O   0  0  0  0  0  0  0  0  0  0  0  0
   -6.6053  -11.0030  -14.5426 C   0  0  2  0  0  0  0  0  0  0  0  0
   -6.5438   -9.6077  -14.8548 N   0  0  0  0  0  0  0  0  0  0  0  0
   -3.4444   -9.8618  -14.1429 C   0  0  2  0  0  0  0  0  0  0  0  0
   -6.3096  -16.8094  -11.4603 C   0  0  2  0  0  0  0  0  0  0  0  0
   -6.0037  -17.2241  -12.8249 N   0  0  0  0  0  0  0  0  0  0  0  0
   -7.9755  -11.3043  -13.8217 C   0  0  0  0  0  0  0  0  0  0  0  0
   -2.2316  -10.0050  -15.1133 C   0  0  2  0  0  0  0  0  0  0  0  0
   -2.7153  -10.1873  -16.4330 O   0  0  0  0  0  0  0  0  0  0  0  0
   -7.7977  -17.1476  -11.0980 C   0  0  0  0  0  0  0  0  0  0  0  0
   -8.0461  -12.8558  -13.4825 C   0  0  2  0  0  0  0  0  0  0  0  0
   -9.3293  -13.1506  -12.8030 N   0  0  0  0  0  0  0  0  0  0  0  0
   -1.3950  -11.2719  -14.6326 C   0  0  1  0  0  0  0  0  0  0  0  0
   -0.2186  -11.5047  -15.5378 N   0  0  0  0  0  0  0  0  0  0  0  0
   -8.2134  -16.4598   -9.7655 C   0  0  0  0  0  0  0  0  0  0  0  0
   -6.8203  -13.2517  -12.5447 C   0  0  2  0  0  0  0  0  0  0  0  0
   -0.8604  -11.0155  -13.1156 C   0  0  1  0  0  0  0  0  0  0  0  0
   -0.0219   -9.8794  -13.0319 O   0  0  0  0  0  0  0  0  0  0  0  0
   -7.5292  -15.4098   -9.2870 C   0  0  2  0  0  0  0  0  0  0  0  0
   -6.3808  -14.8483   -9.9463 O   0  0  0  0  0  0  0  0  0  0  0  0
   -5.4615  -12.9090  -13.2875 C   0  0  2  0  0  0  0  0  0  0  0  0
   -4.3507  -13.2381  -12.4439 O   0  0  0  0  0  0  0  0  0  0  0  0
   -2.0852  -10.7742  -12.1701 C   0  0  0  0  0  0  0  0  0  0  0  0
   -2.9577   -9.6636  -12.7303 O   0  0  0  0  0  0  0  0  0  0  0  0
   -7.9251  -14.7146   -7.9635 C   0  0  0  0  0  0  0  0  0  0  0  0
   -6.9238  -15.0001   -6.9455 N   0  0  0  0  0  0  0  0  0  0  0  0
   -5.4085  -11.3734  -13.6175 C   0  0  1  0  0  0  0  0  0  0  0  0
   -4.1943  -11.1100  -14.2788 O   0  0  0  0  0  0  0  0  0  0  0  0
   -0.0328  -12.1549  -12.4981 C   0  0  0  0  0  0  0  0  0  0  0  0
   -0.4344  -12.4287  -16.6673 C   0  0  0  0  0  0  0  0  0  0  0  0
  1  2  1  6  0  0  0
  1  6  1  0  0  0  0
  1 21  1  0  0  0  0
  3  4  1  1  0  0  0
  3  8  1  0  0  0  0
  3 28  1  0  0  0  0
  5  9  1  0  0  0  0
  5 25  1  0  0  0  0
  5 29  1  1  0  0  0
  6  7  1  6  0  0  0
  6 11  1  0  0  0  0
  8 12  1  0  0  0  0
  9 10  1  6  0  0  0
  9 14  1  0  0  0  0
 11 16  1  0  0  0  0
 12 13  1  1  0  0  0
 12 17  1  0  0  0  0
 14 15  1  6  0  0  0
 14 18  1  0  0  0  0
 15 31  1  0  0  0  0
 16 20  1  0  0  0  0
 17  2  1  6  0  0  0
 17 22  1  0  0  0  0
 18 19  1  6  0  0  0
 18 24  1  0  0  0  0
 18 30  1  0  0  0  0
 20 21  1  0  0  0  0
 20 26  1  1  0  0  0
 22 23  1  1  0  0  0
 22 28  1  0  0  0  0
 24 25  1  0  0  0  0
 26 27  1  0  0  0  0
 28 29  1  6  0  0  0
M  END
>  <CHROM.1>
-172.23874089,-176.87930314,-92.30928575,-170.32570983,109.74327044,94.17263375
-4.83060961,-12.75653090,-12.73819897,-2.31923184,-0.09341159,-0.81474499

>  <Name>
ligand

>  <RI>
0

>  <Rbt.Current_Directory>
/home/itssahil/PROJECTS/Mol_Feturizer/New_Systems/rnas/4F8U

>  <Rbt.Executable>
rbdock ($Id: //depot/dev/client3/rdock/2013.1/src/exe/rbdock.cxx#4 $)

>  <Rbt.Library>
libRbt.so (2013.1, Build901 2013/11/27)

>  <Rbt.Parameter_File>
/export/apps/rDock/src/rDock_2013.1_src/data/scripts/dock_solv.prm

>  <Rbt.Receptor>
prm/pocket_docking_5.prm

>  <SCORE>
-3.9458

>  <SCORE.INTER>
2.35397

>  <SCORE.INTER.CONST>
1

>  <SCORE.INTER.POLAR>
0

>  <SCORE.INTER.ROT>
6

>  <SCORE.INTER.SOLV>
14.3667

>  <SCORE.INTER.VDW>
-10.8196

>  <SCORE.INTER.norm>
0.0759345

>  <SCORE.INTRA>
-6.29977

>  <SCORE.INTRA.DIHEDRAL>
-11.1058

>  <SCORE.INTRA.DIHEDRAL.0>
18.77

>  <SCORE.INTRA.POLAR>
0

>  <SCORE.INTRA.POLAR.0>
0

>  <SCORE.INTRA.REPUL>
0

>  <SCORE.INTRA.REPUL.0>
0

>  <SCORE.INTRA.SOLV>
-2.30609

>  <SCORE.INTRA.SOLV.lig_0>
-77.2465

>  <SCORE.INTRA.VDW>
0.406171

>  <SCORE.INTRA.VDW.0>
-4.16072

>  <SCORE.INTRA.norm>
-0.203218

>  <SCORE.RESTR>
0

>  <SCORE.RESTR.CAVITY>
0

>  <SCORE.RESTR.norm>
0

>  <SCORE.SYSTEM>
0

>  <SCORE.SYSTEM.CONST>
0

>  <SCORE.SYSTEM.DIHEDRAL>
0

>  <SCORE.SYSTEM.SOLV>
0

>  <SCORE.SYSTEM.norm>
0

>  <SCORE.heavy>
31

>  <SCORE.norm>
-0.127284

>  <RMSD>
7.739

$$$$
ligand
 OpenBabel11021811493D
libRbt.so/2013.1/901 2013/11/27
 31 33  0  0  0  0  0  0  0  0999 V2000
   -1.5928  -15.0589  -17.8179 C   0  0  2  0  0  0  0  0  0  0  0  0
   -1.3391  -13.7545  -17.2787 O   0  0  0  0  0  0  0  0  0  0  0  0
   -5.1037  -12.8595  -15.4483 C   0  0  2  0  0  0  0  0  0  0  0  0
   -6.1026  -12.1895  -14.6729 N   0  0  0  0  0  0  0  0  0  0  0  0
   -6.7528  -10.6448  -17.0376 C   0  0  2  0  0  0  0  0  0  0  0  0
   -0.3777  -15.3946  -18.7521 C   0  0  2  0  0  0  0  0  0  0  0  0
    0.8632  -15.3311  -17.9880 N   0  0  0  0  0  0  0  0  0  0  0  0
   -3.9109  -13.2676  -14.5003 C   0  0  0  0  0  0  0  0  0  0  0  0
   -7.7031  -10.5943  -18.2736 C   0  0  2  0  0  0  0  0  0  0  0  0
   -8.1905  -11.8992  -18.5348 O   0  0  0  0  0  0  0  0  0  0  0  0
   -0.3401  -14.3901  -19.9560 C   0  0  0  0  0  0  0  0  0  0  0  0
   -2.8056  -14.0188  -15.3614 C   0  0  2  0  0  0  0  0  0  0  0  0
   -1.6785  -14.4059  -14.4810 N   0  0  0  0  0  0  0  0  0  0  0  0
   -6.8462  -10.0496  -19.5005 C   0  0  1  0  0  0  0  0  0  0  0  0
   -7.6804   -9.9999  -20.7490 N   0  0  0  0  0  0  0  0  0  0  0  0
   -1.7495  -14.2427  -20.5987 C   0  0  0  0  0  0  0  0  0  0  0  0
   -2.2936  -13.0579  -16.5247 C   0  0  2  0  0  0  0  0  0  0  0  0
   -6.3104   -8.5508  -19.1549 C   0  0  1  0  0  0  0  0  0  0  0  0
   -7.3729   -7.6455  -18.9265 O   0  0  0  0  0  0  0  0  0  0  0  0
   -2.8564  -14.5860  -19.9230 C   0  0  2  0  0  0  0  0  0  0  0  0
   -2.8340  -15.1095  -18.5835 O   0  0  0  0  0  0  0  0  0  0  0  0
   -3.5213  -12.6443  -17.4398 C   0  0  2  0  0  0  0  0  0  0  0  0
   -3.0777  -11.7597  -18.4764 O   0  0  0  0  0  0  0  0  0  0  0  0
   -5.4391   -8.6006  -17.8546 C   0  0  0  0  0  0  0  0  0  0  0  0
   -6.2214   -9.2672  -16.7355 O   0  0  0  0  0  0  0  0  0  0  0  0
   -4.2656  -14.4494  -20.5454 C   0  0  0  0  0  0  0  0  0  0  0  0
   -4.9223  -15.7490  -20.5527 N   0  0  0  0  0  0  0  0  0  0  0  0
   -4.6049  -11.9057  -16.5739 C   0  0  1  0  0  0  0  0  0  0  0  0
   -5.6774  -11.5603  -17.4173 O   0  0  0  0  0  0  0  0  0  0  0  0
   -5.4562   -7.8799  -20.2434 C   0  0  0  0  0  0  0  0  0  0  0  0
   -7.4996  -11.1115  -21.7018 C   0  0  0  0  0  0  0  0  0  0  0  0
  1  2  1  6  0  0  0
  1  6  1  0  0  0  0
  1 21  1  0  0  0  0
  3  4  1  1  0  0  0
  3  8  1  0  0  0  0
  3 28  1  0  0  0  0
  5  9  1  0  0  0  0
  5 25  1  0  0  0  0
  5 29  1  6  0  0  0
  6  7  1  1  0  0  0
  6 11  1  0  0  0  0
  8 12  1  0  0  0  0
  9 10  1  6  0  0  0
  9 14  1  0  0  0  0
 11 16  1  0  0  0  0
 12 13  1  1  0  0  0
 12 17  1  0  0  0  0
 14 15  1  6  0  0  0
 14 18  1  0  0  0  0
 15 31  1  0  0  0  0
 16 20  1  0  0  0  0
 17  2  1  6  0  0  0
 17 22  1  0  0  0  0
 18 19  1  1  0  0  0
 18 24  1  0  0  0  0
 18 30  1  0  0  0  0
 20 21  1  0  0  0  0
 20 26  1  6  0  0  0
 22 23  1  6  0  0  0
 22 28  1  0  0  0  0
 24 25  1  0  0  0  0
 26 27  1  0  0  0  0
 28 29  1  6  0  0  0
M  END
>  <CHROM.1>
172.08316244,-179.16262349,-100.25390988,51.75491058,121.78275928,72.91732241
-4.33985790,-12.29009842,-18.13612492,-0.05257055,0.76422739,-1.68037615

>  <Name>
ligand

>  <RI>
0

>  <Rbt.Current_Directory>
/home/itssahil/PROJECTS/Mol_Feturizer/New_Systems/rnas/4F8U

>  <Rbt.Executable>
rbdock ($Id: //depot/dev/client3/rdock/2013.1/src/exe/rbdock.cxx#4 $)

>  <Rbt.Library>
libRbt.so (2013.1, Build901 2013/11/27)

>  <Rbt.Parameter_File>
/export/apps/rDock/src/rDock_2013.1_src/data/scripts/dock_solv.prm

>  <Rbt.Receptor>
prm/pocket_docking_7.prm

>  <SCORE>
-12.9702

>  <SCORE.INTER>
-5.47305

>  <SCORE.INTER.CONST>
1

>  <SCORE.INTER.POLAR>
0

>  <SCORE.INTER.ROT>
6

>  <SCORE.INTER.SOLV>
12.7135

>  <SCORE.INTER.VDW>
-15.4865

>  <SCORE.INTER.norm>
-0.17655

>  <SCORE.INTRA>
-7.49719

>  <SCORE.INTRA.DIHEDRAL>
-14.7436

>  <SCORE.INTRA.DIHEDRAL.0>
18.77

>  <SCORE.INTRA.POLAR>
0

>  <SCORE.INTRA.POLAR.0>
0

>  <SCORE.INTRA.REPUL>
0

>  <SCORE.INTRA.REPUL.0>
0

>  <SCORE.INTRA.SOLV>
-1.04152

>  <SCORE.INTRA.SOLV.lig_0>
-77.2465

>  <SCORE.INTRA.VDW>
0.395385

>  <SCORE.INTRA.VDW.0>
-4.16072

>  <SCORE.INTRA.norm>
-0.241845

>  <SCORE.RESTR>
0

>  <SCORE.RESTR.CAVITY>
0

>  <SCORE.RESTR.norm>
0

>  <SCORE.SYSTEM>
0

>  <SCORE.SYSTEM.CONST>
0

>  <SCORE.SYSTEM.DIHEDRAL>
0

>  <SCORE.SYSTEM.SOLV>
0

>  <SCORE.SYSTEM.norm>
0

>  <SCORE.heavy>
31

>  <SCORE.norm>
-0.418395

>  <RMSD>
7.745

$$$$
ligand
 OpenBabel11021811493D
libRbt.so/2013.1/901 2013/11/27
 31 33  0  0  0  0  0  0  0  0999 V2000
   -9.7799   -7.6442  -11.6300 C   0  0  2  0  0  0  0  0  0  0  0  0
   -8.7916   -8.4184  -10.9368 O   0  0  0  0  0  0  0  0  0  0  0  0
   -8.0665  -12.3582   -9.4280 C   0  0  2  0  0  0  0  0  0  0  0  0
   -8.1361  -13.7793   -9.2750 N   0  0  0  0  0  0  0  0  0  0  0  0
   -5.5034  -13.2490   -9.9609 C   0  0  2  0  0  0  0  0  0  0  0  0
   -9.0547   -6.3438  -12.1251 C   0  0  2  0  0  0  0  0  0  0  0  0
   -7.9228   -6.7033  -12.9721 N   0  0  0  0  0  0  0  0  0  0  0  0
   -9.5077  -11.7517   -9.2200 C   0  0  0  0  0  0  0  0  0  0  0  0
   -4.2319  -12.3789   -9.7168 C   0  0  2  0  0  0  0  0  0  0  0  0
   -4.6316  -11.0790   -9.3179 O   0  0  0  0  0  0  0  0  0  0  0  0
   -8.5790   -5.4990  -10.8923 C   0  0  0  0  0  0  0  0  0  0  0  0
   -9.4276  -10.1723   -9.3823 C   0  0  2  0  0  0  0  0  0  0  0  0
  -10.7770   -9.5913   -9.1905 N   0  0  0  0  0  0  0  0  0  0  0  0
   -3.4268  -12.3315  -11.0900 C   0  0  1  0  0  0  0  0  0  0  0  0
   -2.1959  -11.4810  -10.9536 N   0  0  0  0  0  0  0  0  0  0  0  0
   -9.7205   -5.3569   -9.8444 C   0  0  0  0  0  0  0  0  0  0  0  0
   -8.8725   -9.8139  -10.8322 C   0  0  2  0  0  0  0  0  0  0  0  0
   -2.9887  -13.8442  -11.5055 C   0  0  1  0  0  0  0  0  0  0  0  0
   -2.1574  -14.4440  -10.5308 O   0  0  0  0  0  0  0  0  0  0  0  0
  -10.7599   -6.2050   -9.8355 C   0  0  2  0  0  0  0  0  0  0  0  0
  -10.9048   -7.2870  -10.7721 O   0  0  0  0  0  0  0  0  0  0  0  0
   -7.4371  -10.4627  -11.0178 C   0  0  2  0  0  0  0  0  0  0  0  0
   -6.9368  -10.1679  -12.3281 O   0  0  0  0  0  0  0  0  0  0  0  0
   -4.2706  -14.7321  -11.6499 C   0  0  0  0  0  0  0  0  0  0  0  0
   -5.1064  -14.6399  -10.3843 O   0  0  0  0  0  0  0  0  0  0  0  0
  -11.9052   -6.0785   -8.8040 C   0  0  0  0  0  0  0  0  0  0  0  0
  -12.0064   -4.6966   -8.3564 N   0  0  0  0  0  0  0  0  0  0  0  0
   -7.5331  -12.0225  -10.8522 C   0  0  1  0  0  0  0  0  0  0  0  0
   -6.2429  -12.5600  -11.0179 O   0  0  0  0  0  0  0  0  0  0  0  0
   -2.2013  -13.9738  -12.8199 C   0  0  0  0  0  0  0  0  0  0  0  0
   -1.8954  -10.5784  -12.0812 C   0  0  0  0  0  0  0  0  0  0  0  0
  1  2  1  1  0  0  0
  1  6  1  0  0  0  0
  1 21  1  0  0  0  0
  3  4  1  6  0  0  0
  3  8  1  0  0  0  0
  3 28  1  0  0  0  0
  5  9  1  0  0  0  0
  5 25  1  0  0  0  0
  5 29  1  6  0  0  0
  6  7  1  6  0  0  0
  6 11  1  0  0  0  0
  8 12  1  0  0  0  0
  9 10  1  6  0  0  0
  9 14  1  0  0  0  0
 11 16  1  0  0  0  0
 12 13  1  6  0  0  0
 12 17  1  0  0  0  0
 14 15  1  1  0  0  0
 14 18  1  0  0  0  0
 15 31  1  0  0  0  0
 16 20  1  0  0  0  0
 17  2  1  1  0  0  0
 17 22  1  0  0  0  0
 18 19  1  1  0  0  0
 18 24  1  0  0  0  0
 18 30  1  0  0  0  0
 20 21  1  0  0  0  0
 20 26  1  6  0  0  0
 22 23  1  6  0  0  0
 22 28  1  0  0  0  0
 24 25  1  0  0  0  0
 26 27  1  0  0  0  0
 28 29  1  1  0  0  0
M  END
>  <CHROM.1>
-153.31730221,-117.46679437,-138.05631770,-101.10186616,26.02472097,-3.72676335
-7.08732369,-10.33408998,-10.61500157,-2.44358323,-0.39023908,2.85143645

>  <Name>
ligand

>  <RI>
0

>  <Rbt.Current_Directory>
/home/itssahil/PROJECTS/Mol_Feturizer/New_Systems/rnas/4F8U

>  <Rbt.Executable>
rbdock ($Id: //depot/dev/client3/rdock/2013.1/src/exe/rbdock.cxx#4 $)

>  <Rbt.Library>
libRbt.so (2013.1, Build901 2013/11/27)

>  <Rbt.Parameter_File>
/export/apps/rDock/src/rDock_2013.1_src/data/scripts/dock_solv.prm

>  <Rbt.Receptor>
prm/blind_docking_20.prm

>  <SCORE>
10.7095

>  <SCORE.INTER>
-3.7662

>  <SCORE.INTER.CONST>
1

>  <SCORE.INTER.POLAR>
0

>  <SCORE.INTER.ROT>
6

>  <SCORE.INTER.SOLV>
20.0437

>  <SCORE.INTER.VDW>
-16.792

>  <SCORE.INTER.norm>
-0.12149

>  <SCORE.INTRA>
7.11225

>  <SCORE.INTRA.DIHEDRAL>
7.47176

>  <SCORE.INTRA.DIHEDRAL.0>
18.77

>  <SCORE.INTRA.POLAR>
0

>  <SCORE.INTRA.POLAR.0>
0

>  <SCORE.INTRA.REPUL>
0

>  <SCORE.INTRA.REPUL.0>
0

>  <SCORE.INTRA.SOLV>
2.06702

>  <SCORE.INTRA.SOLV.lig_0>
-77.2465

>  <SCORE.INTRA.VDW>
2.34286

>  <SCORE.INTRA.VDW.0>
-4.16072

>  <SCORE.INTRA.norm>
0.229428

>  <SCORE.RESTR>
7.3634

>  <SCORE.RESTR.CAVITY>
7.3634

>  <SCORE.RESTR.norm>
0.237529

>  <SCORE.SYSTEM>
0

>  <SCORE.SYSTEM.CONST>
0

>  <SCORE.SYSTEM.DIHEDRAL>
0

>  <SCORE.SYSTEM.SOLV>
0

>  <SCORE.SYSTEM.norm>
0

>  <SCORE.heavy>
31

>  <SCORE.norm>
0.345466

>  <RMSD>
7.750

$$$$
ligand
 OpenBabel11021811493D
libRbt.so/2013.1/901 2013/11/27
 31 33  0  0  0  0  0  0  0  0999 V2000
   -2.1383  -11.5886  -13.7085 C   0  0  2  0  0  0  0  0  0  0  0  0
   -1.7191  -12.1111  -14.9765 O   0  0  0  0  0  0  0  0  0  0  0  0
   -3.9055   -9.6021  -17.6687 C   0  0  2  0  0  0  0  0  0  0  0  0
   -4.4017   -9.0380  -18.8867 N   0  0  0  0  0  0  0  0  0  0  0  0
   -6.5473  -10.7964  -18.7352 C   0  0  2  0  0  0  0  0  0  0  0  0
   -1.1528  -12.1792  -12.6398 C   0  0  2  0  0  0  0  0  0  0  0  0
    0.2178  -11.8109  -12.9771 N   0  0  0  0  0  0  0  0  0  0  0  0
   -2.3367   -9.4419  -17.6343 C   0  0  0  0  0  0  0  0  0  0  0  0
   -7.9978  -11.2078  -18.3352 C   0  0  2  0  0  0  0  0  0  0  0  0
   -8.3452  -10.5570  -17.1249 O   0  0  0  0  0  0  0  0  0  0  0  0
   -1.3090  -13.7386  -12.5778 C   0  0  0  0  0  0  0  0  0  0  0  0
   -1.7876  -10.0617  -16.2773 C   0  0  2  0  0  0  0  0  0  0  0  0
   -0.3136   -9.9183  -16.2345 N   0  0  0  0  0  0  0  0  0  0  0  0
   -8.0019  -12.7899  -18.1532 C   0  0  1  0  0  0  0  0  0  0  0  0
   -9.3614  -13.2715  -17.7324 N   0  0  0  0  0  0  0  0  0  0  0  0
   -2.8099  -14.1424  -12.5040 C   0  0  0  0  0  0  0  0  0  0  0  0
   -2.1961  -11.5995  -16.1912 C   0  0  2  0  0  0  0  0  0  0  0  0
   -7.5994  -13.4918  -19.5667 C   0  0  1  0  0  0  0  0  0  0  0  0
   -8.5094  -13.1674  -20.5999 O   0  0  0  0  0  0  0  0  0  0  0  0
   -3.7741  -13.2915  -12.8861 C   0  0  2  0  0  0  0  0  0  0  0  0
   -3.5087  -11.9668  -13.3798 O   0  0  0  0  0  0  0  0  0  0  0  0
   -3.7757  -11.7256  -16.2579 C   0  0  2  0  0  0  0  0  0  0  0  0
   -4.1551  -13.1066  -16.2059 O   0  0  0  0  0  0  0  0  0  0  0  0
   -6.1818  -12.9924  -20.0063 C   0  0  0  0  0  0  0  0  0  0  0  0
   -6.1528  -11.4733  -20.0227 O   0  0  0  0  0  0  0  0  0  0  0  0
   -5.2712  -13.6733  -12.8176 C   0  0  0  0  0  0  0  0  0  0  0  0
   -5.4154  -14.9587  -12.1488 N   0  0  0  0  0  0  0  0  0  0  0  0
   -4.3023  -11.1067  -17.6030 C   0  0  1  0  0  0  0  0  0  0  0  0
   -5.7040  -11.2323  -17.6227 O   0  0  0  0  0  0  0  0  0  0  0  0
   -7.5526  -15.0288  -19.5593 C   0  0  0  0  0  0  0  0  0  0  0  0
   -9.6278  -13.2944  -16.2816 C   0  0  0  0  0  0  0  0  0  0  0  0
  1  2  1  6  0  0  0
  1  6  1  0  0  0  0
  1 21  1  0  0  0  0
  3  4  1  6  0  0  0
  3  8  1  0  0  0  0
  3 28  1  0  0  0  0
  5  9  1  0  0  0  0
  5 25  1  0  0  0  0
  5 29  1  1  0  0  0
  6  7  1  6  0  0  0
  6 11  1  0  0  0  0
  8 12  1  0  0  0  0
  9 10  1  1  0  0  0
  9 14  1  0  0  0  0
 11 16  1  0  0  0  0
 12 13  1  6  0  0  0
 12 17  1  0  0  0  0
 14 15  1  6  0  0  0
 14 18  1  0  0  0  0
 15 31  1  0  0  0  0
 16 20  1  0  0  0  0
 17  2  1  1  0  0  0
 17 22  1  0  0  0  0
 18 19  1  6  0  0  0
 18 24  1  0  0  0  0
 18 30  1  0  0  0  0
 20 21  1  0  0  0  0
 20 26  1  1  0  0  0
 22 23  1  6  0  0  0
 22 28  1  0  0  0  0
 24 25  1  0  0  0  0
 26 27  1  0  0  0  0
 28 29  1  1  0  0  0
M  END
>  <CHROM.1>
-167.13649392,177.03959010,-88.06453291,60.52175722,6.89634603,62.31033953
-4.74024328,-12.09115168,-16.38544938,-0.58697141,-0.46784400,-1.01329640

>  <Name>
ligand

>  <RI>
0

>  <Rbt.Current_Directory>
/home/itssahil/PROJECTS/Mol_Feturizer/New_Systems/rnas/4F8U

>  <Rbt.Executable>
rbdock ($Id: //depot/dev/client3/rdock/2013.1/src/exe/rbdock.cxx#4 $)

>  <Rbt.Library>
libRbt.so (2013.1, Build901 2013/11/27)

>  <Rbt.Parameter_File>
/export/apps/rDock/src/rDock_2013.1_src/data/scripts/dock_solv.prm

>  <Rbt.Receptor>
prm/pocket_docking_4.prm

>  <SCORE>
-7.92737

>  <SCORE.INTER>
-2.2917

>  <SCORE.INTER.CONST>
1

>  <SCORE.INTER.POLAR>
0

>  <SCORE.INTER.ROT>
6

>  <SCORE.INTER.SOLV>
13.934

>  <SCORE.INTER.VDW>
-13.7725

>  <SCORE.INTER.norm>
-0.0739258

>  <SCORE.INTRA>
-5.63567

>  <SCORE.INTRA.DIHEDRAL>
-15.6276

>  <SCORE.INTRA.DIHEDRAL.0>
18.77

>  <SCORE.INTRA.POLAR>
0

>  <SCORE.INTRA.POLAR.0>
0

>  <SCORE.INTRA.REPUL>
0

>  <SCORE.INTRA.REPUL.0>
0

>  <SCORE.INTRA.SOLV>
0.422111

>  <SCORE.INTRA.SOLV.lig_0>
-77.2465

>  <SCORE.INTRA.VDW>
1.96709

>  <SCORE.INTRA.VDW.0>
-4.16072

>  <SCORE.INTRA.norm>
-0.181796

>  <SCORE.RESTR>
0

>  <SCORE.RESTR.CAVITY>
0

>  <SCORE.RESTR.norm>
0

>  <SCORE.SYSTEM>
0

>  <SCORE.SYSTEM.CONST>
0

>  <SCORE.SYSTEM.DIHEDRAL>
0

>  <SCORE.SYSTEM.SOLV>
0

>  <SCORE.SYSTEM.norm>
0

>  <SCORE.heavy>
31

>  <SCORE.norm>
-0.255721

>  <RMSD>
7.776

$$$$
ligand
 OpenBabel11021811493D
libRbt.so/2013.1/901 2013/11/27
 31 33  0  0  0  0  0  0  0  0999 V2000
   -7.6621   -9.0469  -24.1647 C   0  0  2  0  0  0  0  0  0  0  0  0
   -7.1751   -8.2562  -23.0719 O   0  0  0  0  0  0  0  0  0  0  0  0
   -6.9045   -9.1397  -18.8922 C   0  0  2  0  0  0  0  0  0  0  0  0
   -7.2860   -9.3461  -17.5284 N   0  0  0  0  0  0  0  0  0  0  0  0
   -8.0352  -12.6589  -19.9008 C   0  0  2  0  0  0  0  0  0  0  0  0
   -7.0316   -8.4376  -25.4660 C   0  0  2  0  0  0  0  0  0  0  0  0
   -5.5767   -8.4531  -25.3622 N   0  0  0  0  0  0  0  0  0  0  0  0
   -7.2604   -7.6589  -19.3027 C   0  0  0  0  0  0  0  0  0  0  0  0
   -7.7595  -13.7564  -18.8271 C   0  0  2  0  0  0  0  0  0  0  0  0
   -8.2578  -13.3140  -17.5762 O   0  0  0  0  0  0  0  0  0  0  0  0
   -7.5573   -6.9750  -25.6762 C   0  0  0  0  0  0  0  0  0  0  0  0
   -6.8290   -7.4284  -20.8154 C   0  0  2  0  0  0  0  0  0  0  0  0
   -7.1603   -6.0402  -21.2130 N   0  0  0  0  0  0  0  0  0  0  0  0
   -6.1822  -13.9688  -18.7696 C   0  0  1  0  0  0  0  0  0  0  0  0
   -5.8229  -14.9926  -17.7304 N   0  0  0  0  0  0  0  0  0  0  0  0
   -9.1023   -6.9113  -25.5022 C   0  0  0  0  0  0  0  0  0  0  0  0
   -7.5924   -8.4684  -21.7506 C   0  0  2  0  0  0  0  0  0  0  0  0
   -5.6577  -14.4771  -20.2254 C   0  0  1  0  0  0  0  0  0  0  0  0
   -6.2512  -15.7033  -20.6063 O   0  0  0  0  0  0  0  0  0  0  0  0
   -9.7638   -7.8748  -24.8436 C   0  0  2  0  0  0  0  0  0  0  0  0
   -9.1178   -9.0204  -24.2614 O   0  0  0  0  0  0  0  0  0  0  0  0
   -7.2355   -9.9441  -21.2921 C   0  0  2  0  0  0  0  0  0  0  0  0
   -7.9356  -10.8895  -22.1107 O   0  0  0  0  0  0  0  0  0  0  0  0
   -6.0298  -13.4105  -21.3099 C   0  0  0  0  0  0  0  0  0  0  0  0
   -7.5169  -13.1055  -21.2437 O   0  0  0  0  0  0  0  0  0  0  0  0
  -11.2990   -7.8307  -24.6625 C   0  0  0  0  0  0  0  0  0  0  0  0
  -11.8809   -6.9405  -25.6572 N   0  0  0  0  0  0  0  0  0  0  0  0
   -7.6658  -10.1547  -19.7954 C   0  0  1  0  0  0  0  0  0  0  0  0
   -7.3289  -11.4700  -19.4246 O   0  0  0  0  0  0  0  0  0  0  0  0
   -4.1447  -14.7263  -20.3399 C   0  0  0  0  0  0  0  0  0  0  0  0
   -5.5303  -14.4787  -16.3788 C   0  0  0  0  0  0  0  0  0  0  0  0
  1  2  1  1  0  0  0
  1  6  1  0  0  0  0
  1 21  1  0  0  0  0
  3  4  1  1  0  0  0
  3  8  1  0  0  0  0
  3 28  1  0  0  0  0
  5  9  1  0  0  0  0
  5 25  1  0  0  0  0
  5 29  1  1  0  0  0
  6  7  1  1  0  0  0
  6 11  1  0  0  0  0
  8 12  1  0  0  0  0
  9 10  1  1  0  0  0
  9 14  1  0  0  0  0
 11 16  1  0  0  0  0
 12 13  1  6  0  0  0
 12 17  1  0  0  0  0
 14 15  1  1  0  0  0
 14 18  1  0  0  0  0
 15 31  1  0  0  0  0
 16 20  1  0  0  0  0
 17  2  1  6  0  0  0
 17 22  1  0  0  0  0
 18 19  1  6  0  0  0
 18 24  1  0  0  0  0
 18 30  1  0  0  0  0
 20 21  1  0  0  0  0
 20 26  1  6  0  0  0
 22 23  1  6  0  0  0
 22 28  1  0  0  0  0
 24 25  1  0  0  0  0
 26 27  1  0  0  0  0
 28 29  1  1  0  0  0
M  END
>  <CHROM.1>
176.41457030,-156.57760972,-91.81313679,179.04385271,19.93287293,168.67498339
-7.43829750,-10.52885779,-21.39628278,-2.89459349,-1.28543639,1.09570913

>  <Name>
ligand

>  <RI>
0

>  <Rbt.Current_Directory>
/home/itssahil/PROJECTS/Mol_Feturizer/New_Systems/rnas/4F8U

>  <Rbt.Executable>
rbdock ($Id: //depot/dev/client3/rdock/2013.1/src/exe/rbdock.cxx#4 $)

>  <Rbt.Library>
libRbt.so (2013.1, Build901 2013/11/27)

>  <Rbt.Parameter_File>
/export/apps/rDock/src/rDock_2013.1_src/data/scripts/dock_solv.prm

>  <Rbt.Receptor>
prm/pocket_docking_8.prm

>  <SCORE>
-16.9556

>  <SCORE.INTER>
-12.0625

>  <SCORE.INTER.CONST>
1

>  <SCORE.INTER.POLAR>
0

>  <SCORE.INTER.ROT>
6

>  <SCORE.INTER.SOLV>
16.6459

>  <SCORE.INTER.VDW>
-21.1903

>  <SCORE.INTER.norm>
-0.389113

>  <SCORE.INTRA>
-4.8931

>  <SCORE.INTRA.DIHEDRAL>
-12.8873

>  <SCORE.INTRA.DIHEDRAL.0>
18.77

>  <SCORE.INTRA.POLAR>
0

>  <SCORE.INTRA.POLAR.0>
0

>  <SCORE.INTRA.REPUL>
0

>  <SCORE.INTRA.REPUL.0>
0

>  <SCORE.INTRA.SOLV>
-2.76201

>  <SCORE.INTRA.SOLV.lig_0>
-77.2465

>  <SCORE.INTRA.VDW>
2.93155

>  <SCORE.INTRA.VDW.0>
-4.16072

>  <SCORE.INTRA.norm>
-0.157842

>  <SCORE.RESTR>
0

>  <SCORE.RESTR.CAVITY>
0

>  <SCORE.RESTR.norm>
0

>  <SCORE.SYSTEM>
0

>  <SCORE.SYSTEM.CONST>
0

>  <SCORE.SYSTEM.DIHEDRAL>
0

>  <SCORE.SYSTEM.SOLV>
0

>  <SCORE.SYSTEM.norm>
0

>  <SCORE.heavy>
31

>  <SCORE.norm>
-0.546955

>  <RMSD>
7.780

$$$$
ligand
 OpenBabel11021811493D
libRbt.so/2013.1/901 2013/11/27
 31 33  0  0  0  0  0  0  0  0999 V2000
   -7.7907   -9.0303  -24.1964 C   0  0  2  0  0  0  0  0  0  0  0  0
   -7.2215   -8.2858  -23.1109 O   0  0  0  0  0  0  0  0  0  0  0  0
   -6.8935   -9.0981  -18.9209 C   0  0  2  0  0  0  0  0  0  0  0  0
   -7.2567   -9.2836  -17.5492 N   0  0  0  0  0  0  0  0  0  0  0  0
   -8.0300  -12.6379  -19.8409 C   0  0  2  0  0  0  0  0  0  0  0  0
   -7.1122   -8.4921  -25.5049 C   0  0  2  0  0  0  0  0  0  0  0  0
   -5.6651   -8.6495  -25.4098 N   0  0  0  0  0  0  0  0  0  0  0  0
   -7.2625   -7.6262  -19.3514 C   0  0  0  0  0  0  0  0  0  0  0  0
   -7.7042  -13.7198  -18.7655 C   0  0  2  0  0  0  0  0  0  0  0  0
   -8.1537  -13.2640  -17.5010 O   0  0  0  0  0  0  0  0  0  0  0  0
   -7.4935   -6.9860  -25.7199 C   0  0  0  0  0  0  0  0  0  0  0  0
   -6.8514   -7.4188  -20.8731 C   0  0  2  0  0  0  0  0  0  0  0  0
   -7.1951   -6.0390  -21.2895 N   0  0  0  0  0  0  0  0  0  0  0  0
   -6.1246  -13.9228  -18.7698 C   0  0  1  0  0  0  0  0  0  0  0  0
   -5.7170  -14.9310  -17.7331 N   0  0  0  0  0  0  0  0  0  0  0  0
   -9.0237   -6.7704  -25.5369 C   0  0  0  0  0  0  0  0  0  0  0  0
   -7.6209   -8.4780  -21.7812 C   0  0  2  0  0  0  0  0  0  0  0  0
   -5.6568  -14.4471  -20.2392 C   0  0  1  0  0  0  0  0  0  0  0  0
   -6.2580  -15.6813  -20.5799 O   0  0  0  0  0  0  0  0  0  0  0  0
   -9.7720   -7.6613  -24.8690 C   0  0  2  0  0  0  0  0  0  0  0  0
   -9.2375   -8.8619  -24.2844 O   0  0  0  0  0  0  0  0  0  0  0  0
   -7.2504   -9.9441  -21.3027 C   0  0  2  0  0  0  0  0  0  0  0  0
   -7.9557  -10.9066  -22.0965 O   0  0  0  0  0  0  0  0  0  0  0  0
   -6.0794  -13.3967  -21.3211 C   0  0  0  0  0  0  0  0  0  0  0  0
   -7.5643  -13.0990  -21.1981 O   0  0  0  0  0  0  0  0  0  0  0  0
  -11.2943   -7.4662  -24.6788 C   0  0  0  0  0  0  0  0  0  0  0  0
  -12.0146   -8.4312  -25.4976 N   0  0  0  0  0  0  0  0  0  0  0  0
   -7.6606  -10.1319  -19.7974 C   0  0  1  0  0  0  0  0  0  0  0  0
   -7.3122  -11.4391  -19.4091 O   0  0  0  0  0  0  0  0  0  0  0  0
   -4.1483  -14.6894  -20.4123 C   0  0  0  0  0  0  0  0  0  0  0  0
   -5.3532  -14.3963  -16.4072 C   0  0  0  0  0  0  0  0  0  0  0  0
  1  2  1  1  0  0  0
  1  6  1  0  0  0  0
  1 21  1  0  0  0  0
  3  4  1  1  0  0  0
  3  8  1  0  0  0  0
  3 28  1  0  0  0  0
  5  9  1  0  0  0  0
  5 25  1  0  0  0  0
  5 29  1  1  0  0  0
  6  7  1  1  0  0  0
  6 11  1  0  0  0  0
  8 12  1  0  0  0  0
  9 10  1  1  0  0  0
  9 14  1  0  0  0  0
 11 16  1  0  0  0  0
 12 13  1  6  0  0  0
 12 17  1  0  0  0  0
 14 15  1  1  0  0  0
 14 18  1  0  0  0  0
 15 31  1  0  0  0  0
 16 20  1  0  0  0  0
 17  2  1  6  0  0  0
 17 22  1  0  0  0  0
 18 19  1  6  0  0  0
 18 24  1  0  0  0  0
 18 30  1  0  0  0  0
 20 21  1  0  0  0  0
 20 26  1  6  0  0  0
 22 23  1  6  0  0  0
 22 28  1  0  0  0  0
 24 25  1  0  0  0  0
 26 27  1  0  0  0  0
 28 29  1  1  0  0  0
M  END
>  <CHROM.1>
178.35396093,-157.48983268,-92.69493335,-176.25392322,108.94538555,167.74020542
-7.44195363,-10.53829460,-21.40359367,-3.05727059,-1.28569724,0.91325908

>  <Name>
ligand

>  <RI>
0

>  <Rbt.Current_Directory>
/home/itssahil/PROJECTS/Mol_Feturizer/New_Systems/rnas/4F8U

>  <Rbt.Executable>
rbdock ($Id: //depot/dev/client3/rdock/2013.1/src/exe/rbdock.cxx#4 $)

>  <Rbt.Library>
libRbt.so (2013.1, Build901 2013/11/27)

>  <Rbt.Parameter_File>
/export/apps/rDock/src/rDock_2013.1_src/data/scripts/dock_solv.prm

>  <Rbt.Receptor>
prm/pocket_docking_8.prm

>  <SCORE>
-17.4816

>  <SCORE.INTER>
-11.4598

>  <SCORE.INTER.CONST>
1

>  <SCORE.INTER.POLAR>
0

>  <SCORE.INTER.ROT>
6

>  <SCORE.INTER.SOLV>
18.2439

>  <SCORE.INTER.VDW>
-21.3212

>  <SCORE.INTER.norm>
-0.369672

>  <SCORE.INTRA>
-6.02176

>  <SCORE.INTRA.DIHEDRAL>
-13.2217

>  <SCORE.INTRA.DIHEDRAL.0>
18.77

>  <SCORE.INTRA.POLAR>
0

>  <SCORE.INTRA.POLAR.0>
0

>  <SCORE.INTRA.REPUL>
0

>  <SCORE.INTRA.REPUL.0>
0

>  <SCORE.INTRA.SOLV>
-2.93841

>  <SCORE.INTRA.SOLV.lig_0>
-77.2465

>  <SCORE.INTRA.VDW>
2.0583

>  <SCORE.INTRA.VDW.0>
-4.16072

>  <SCORE.INTRA.norm>
-0.19425

>  <SCORE.RESTR>
0

>  <SCORE.RESTR.CAVITY>
0

>  <SCORE.RESTR.norm>
0

>  <SCORE.SYSTEM>
0

>  <SCORE.SYSTEM.CONST>
0

>  <SCORE.SYSTEM.DIHEDRAL>
0

>  <SCORE.SYSTEM.SOLV>
0

>  <SCORE.SYSTEM.norm>
0

>  <SCORE.heavy>
31

>  <SCORE.norm>
-0.563922

>  <RMSD>
7.782

$$$$
ligand
 OpenBabel11021811493D
libRbt.so/2013.1/901 2013/11/27
 31 33  0  0  0  0  0  0  0  0999 V2000
   -9.9385   -7.6084  -11.5552 C   0  0  2  0  0  0  0  0  0  0  0  0
   -8.8375   -8.3293  -10.9855 O   0  0  0  0  0  0  0  0  0  0  0  0
   -8.2914  -12.2033   -9.2483 C   0  0  2  0  0  0  0  0  0  0  0  0
   -8.2873  -13.6263   -9.0959 N   0  0  0  0  0  0  0  0  0  0  0  0
   -5.7007  -13.5956   -9.7766 C   0  0  2  0  0  0  0  0  0  0  0  0
   -9.3342   -6.3044  -12.1847 C   0  0  2  0  0  0  0  0  0  0  0  0
   -8.3198   -6.6583  -13.1715 N   0  0  0  0  0  0  0  0  0  0  0  0
   -9.7712  -11.7224   -9.5069 C   0  0  0  0  0  0  0  0  0  0  0  0
   -4.1530  -13.5723   -9.5832 C   0  0  2  0  0  0  0  0  0  0  0  0
   -3.8259  -12.6137   -8.5918 O   0  0  0  0  0  0  0  0  0  0  0  0
   -8.7203   -5.4051  -11.0559 C   0  0  0  0  0  0  0  0  0  0  0  0
   -9.7755  -10.1408   -9.6681 C   0  0  2  0  0  0  0  0  0  0  0  0
  -11.1612   -9.6774   -9.9134 N   0  0  0  0  0  0  0  0  0  0  0  0
   -3.5119  -13.1815  -10.9876 C   0  0  1  0  0  0  0  0  0  0  0  0
   -2.0151  -13.1029  -10.8835 N   0  0  0  0  0  0  0  0  0  0  0  0
   -9.7088   -5.2618   -9.8627 C   0  0  0  0  0  0  0  0  0  0  0  0
   -8.8312   -9.7273  -10.8831 C   0  0  2  0  0  0  0  0  0  0  0  0
   -3.9131  -14.3102  -12.0912 C   0  0  1  0  0  0  0  0  0  0  0  0
   -3.4387  -15.5944  -11.7354 O   0  0  0  0  0  0  0  0  0  0  0  0
  -10.7072   -6.1397   -9.6833 C   0  0  2  0  0  0  0  0  0  0  0  0
  -10.9444   -7.2562  -10.5585 O   0  0  0  0  0  0  0  0  0  0  0  0
   -7.3604  -10.2511  -10.6041 C   0  0  2  0  0  0  0  0  0  0  0  0
   -6.5059   -9.9065  -11.7019 O   0  0  0  0  0  0  0  0  0  0  0  0
   -5.4729  -14.3925  -12.2025 C   0  0  0  0  0  0  0  0  0  0  0  0
   -6.0770  -14.6104  -10.8254 O   0  0  0  0  0  0  0  0  0  0  0  0
  -11.7013   -6.0128   -8.5054 C   0  0  0  0  0  0  0  0  0  0  0  0
  -12.0989   -4.6204   -8.3522 N   0  0  0  0  0  0  0  0  0  0  0  0
   -7.3738  -11.8145  -10.4451 C   0  0  1  0  0  0  0  0  0  0  0  0
   -6.0557  -12.2397  -10.1942 O   0  0  0  0  0  0  0  0  0  0  0  0
   -3.3723  -14.0766  -13.5116 C   0  0  0  0  0  0  0  0  0  0  0  0
   -1.3432  -12.1649  -11.8026 C   0  0  0  0  0  0  0  0  0  0  0  0
  1  2  1  1  0  0  0
  1  6  1  0  0  0  0
  1 21  1  0  0  0  0
  3  4  1  6  0  0  0
  3  8  1  0  0  0  0
  3 28  1  0  0  0  0
  5  9  1  0  0  0  0
  5 25  1  0  0  0  0
  5 29  1  6  0  0  0
  6  7  1  6  0  0  0
  6 11  1  0  0  0  0
  8 12  1  0  0  0  0
  9 10  1  1  0  0  0
  9 14  1  0  0  0  0
 11 16  1  0  0  0  0
 12 13  1  6  0  0  0
 12 17  1  0  0  0  0
 14 15  1  1  0  0  0
 14 18  1  0  0  0  0
 15 31  1  0  0  0  0
 16 20  1  0  0  0  0
 17  2  1  1  0  0  0
 17 22  1  0  0  0  0
 18 19  1  1  0  0  0
 18 24  1  0  0  0  0
 18 30  1  0  0  0  0
 20 21  1  0  0  0  0
 20 26  1  6  0  0  0
 22 23  1  6  0  0  0
 22 28  1  0  0  0  0
 24 25  1  0  0  0  0
 26 27  1  0  0  0  0
 28 29  1  1  0  0  0
M  END
>  <CHROM.1>
-150.49541390,-178.31742647,-150.85099905,-76.46076862,43.17542527,50.41344762
-7.26534637,-10.54865514,-10.62720680,-2.40830651,-0.46497291,2.81433148

>  <Name>
ligand

>  <RI>
0

>  <Rbt.Current_Directory>
/home/itssahil/PROJECTS/Mol_Feturizer/New_Systems/rnas/4F8U

>  <Rbt.Executable>
rbdock ($Id: //depot/dev/client3/rdock/2013.1/src/exe/rbdock.cxx#4 $)

>  <Rbt.Library>
libRbt.so (2013.1, Build901 2013/11/27)

>  <Rbt.Parameter_File>
/export/apps/rDock/src/rDock_2013.1_src/data/scripts/dock_solv.prm

>  <Rbt.Receptor>
prm/blind_docking_20.prm

>  <SCORE>
6.61747

>  <SCORE.INTER>
-0.568143

>  <SCORE.INTER.CONST>
1

>  <SCORE.INTER.POLAR>
0

>  <SCORE.INTER.ROT>
6

>  <SCORE.INTER.SOLV>
19.0355

>  <SCORE.INTER.VDW>
-14.3239

>  <SCORE.INTER.norm>
-0.0183272

>  <SCORE.INTRA>
-1.09138

>  <SCORE.INTRA.DIHEDRAL>
-9.72221

>  <SCORE.INTRA.DIHEDRAL.0>
18.77

>  <SCORE.INTRA.POLAR>
0

>  <SCORE.INTRA.POLAR.0>
0

>  <SCORE.INTRA.REPUL>
0

>  <SCORE.INTRA.REPUL.0>
0

>  <SCORE.INTRA.SOLV>
1.69701

>  <SCORE.INTRA.SOLV.lig_0>
-77.2465

>  <SCORE.INTRA.VDW>
2.92123

>  <SCORE.INTRA.VDW.0>
-4.16072

>  <SCORE.INTRA.norm>
-0.0352057

>  <SCORE.RESTR>
8.27699

>  <SCORE.RESTR.CAVITY>
8.27699

>  <SCORE.RESTR.norm>
0.267

>  <SCORE.SYSTEM>
0

>  <SCORE.SYSTEM.CONST>
0

>  <SCORE.SYSTEM.DIHEDRAL>
0

>  <SCORE.SYSTEM.SOLV>
0

>  <SCORE.SYSTEM.norm>
0

>  <SCORE.heavy>
31

>  <SCORE.norm>
0.213467

>  <RMSD>
7.788

$$$$
ligand
 OpenBabel11021811493D
libRbt.so/2013.1/901 2013/11/27
 31 33  0  0  0  0  0  0  0  0999 V2000
   -7.8652   -9.0744  -24.2086 C   0  0  2  0  0  0  0  0  0  0  0  0
   -7.2726   -8.3225  -23.1409 O   0  0  0  0  0  0  0  0  0  0  0  0
   -6.8484   -9.1210  -18.9568 C   0  0  2  0  0  0  0  0  0  0  0  0
   -7.1794   -9.2995  -17.5760 N   0  0  0  0  0  0  0  0  0  0  0  0
   -8.0112  -12.6598  -19.8555 C   0  0  2  0  0  0  0  0  0  0  0  0
   -7.1927   -8.5669  -25.5323 C   0  0  2  0  0  0  0  0  0  0  0  0
   -5.7473   -8.7457  -25.4503 N   0  0  0  0  0  0  0  0  0  0  0  0
   -7.2196   -7.6487  -19.3840 C   0  0  0  0  0  0  0  0  0  0  0  0
   -7.6865  -13.7406  -18.7786 C   0  0  2  0  0  0  0  0  0  0  0  0
   -8.1348  -13.2822  -17.5146 O   0  0  0  0  0  0  0  0  0  0  0  0
   -7.5529   -7.0585  -25.7665 C   0  0  0  0  0  0  0  0  0  0  0  0
   -6.8441   -7.4492  -20.9159 C   0  0  2  0  0  0  0  0  0  0  0  0
   -7.1902   -6.0691  -21.3292 N   0  0  0  0  0  0  0  0  0  0  0  0
   -6.1073  -13.9460  -18.7832 C   0  0  1  0  0  0  0  0  0  0  0  0
   -5.7008  -14.9533  -17.7452 N   0  0  0  0  0  0  0  0  0  0  0  0
   -9.0774   -6.8161  -25.5705 C   0  0  0  0  0  0  0  0  0  0  0  0
   -7.6410   -8.5076  -21.8011 C   0  0  2  0  0  0  0  0  0  0  0  0
   -5.6409  -14.4732  -20.2520 C   0  0  1  0  0  0  0  0  0  0  0  0
   -6.2441  -15.7071  -20.5906 O   0  0  0  0  0  0  0  0  0  0  0  0
   -9.8322   -7.6849  -24.8810 C   0  0  2  0  0  0  0  0  0  0  0  0
   -9.3100   -8.8846  -24.2836 O   0  0  0  0  0  0  0  0  0  0  0  0
   -7.2670   -9.9739  -21.3261 C   0  0  2  0  0  0  0  0  0  0  0  0
   -7.9964  -10.9354  -22.0991 O   0  0  0  0  0  0  0  0  0  0  0  0
   -6.0623  -13.4239  -21.3354 C   0  0  0  0  0  0  0  0  0  0  0  0
   -7.5467  -13.1237  -21.2122 O   0  0  0  0  0  0  0  0  0  0  0  0
  -11.3491   -7.4629  -24.6776 C   0  0  0  0  0  0  0  0  0  0  0  0
  -12.0925   -8.4612  -25.4333 N   0  0  0  0  0  0  0  0  0  0  0  0
   -7.6419  -10.1538  -19.8107 C   0  0  1  0  0  0  0  0  0  0  0  0
   -7.2913  -11.4615  -19.4259 O   0  0  0  0  0  0  0  0  0  0  0  0
   -4.1328  -14.7181  -20.4254 C   0  0  0  0  0  0  0  0  0  0  0  0
   -5.2362  -14.4117  -16.4540 C   0  0  0  0  0  0  0  0  0  0  0  0
  1  2  1  1  0  0  0
  1  6  1  0  0  0  0
  1 21  1  0  0  0  0
  3  4  1  1  0  0  0
  3  8  1  0  0  0  0
  3 28  1  0  0  0  0
  5  9  1  0  0  0  0
  5 25  1  0  0  0  0
  5 29  1  1  0  0  0
  6  7  1  1  0  0  0
  6 11  1  0  0  0  0
  8 12  1  0  0  0  0
  9 10  1  1  0  0  0
  9 14  1  0  0  0  0
 11 16  1  0  0  0  0
 12 13  1  6  0  0  0
 12 17  1  0  0  0  0
 14 15  1  1  0  0  0
 14 18  1  0  0  0  0
 15 31  1  0  0  0  0
 16 20  1  0  0  0  0
 17  2  1  6  0  0  0
 17 22  1  0  0  0  0
 18 19  1  6  0  0  0
 18 24  1  0  0  0  0
 18 30  1  0  0  0  0
 20 21  1  0  0  0  0
 20 26  1  6  0  0  0
 22 23  1  6  0  0  0
 22 28  1  0  0  0  0
 24 25  1  0  0  0  0
 26 27  1  0  0  0  0
 28 29  1  1  0  0  0
M  END
>  <CHROM.1>
179.69229339,-157.16159063,-97.25226739,-176.69533098,111.10037021,168.90799166
-7.44958490,-10.56878821,-21.42176405,-3.10845147,-1.27470705,0.85906402

>  <Name>
ligand

>  <RI>
0

>  <Rbt.Current_Directory>
/home/itssahil/PROJECTS/Mol_Feturizer/New_Systems/rnas/4F8U

>  <Rbt.Executable>
rbdock ($Id: //depot/dev/client3/rdock/2013.1/src/exe/rbdock.cxx#4 $)

>  <Rbt.Library>
libRbt.so (2013.1, Build901 2013/11/27)

>  <Rbt.Parameter_File>
/export/apps/rDock/src/rDock_2013.1_src/data/scripts/dock_solv.prm

>  <Rbt.Receptor>
prm/pocket_docking_8.prm

>  <SCORE>
-17.5061

>  <SCORE.INTER>
-11.4245

>  <SCORE.INTER.CONST>
1

>  <SCORE.INTER.POLAR>
0

>  <SCORE.INTER.ROT>
6

>  <SCORE.INTER.SOLV>
18.125

>  <SCORE.INTER.VDW>
-21.258

>  <SCORE.INTER.norm>
-0.368533

>  <SCORE.INTRA>
-6.08154

>  <SCORE.INTRA.DIHEDRAL>
-13.2349

>  <SCORE.INTRA.DIHEDRAL.0>
18.77

>  <SCORE.INTRA.POLAR>
0

>  <SCORE.INTRA.POLAR.0>
0

>  <SCORE.INTRA.REPUL>
0

>  <SCORE.INTRA.REPUL.0>
0

>  <SCORE.INTRA.SOLV>
-2.96233

>  <SCORE.INTRA.SOLV.lig_0>
-77.2465

>  <SCORE.INTRA.VDW>
2.01709

>  <SCORE.INTRA.VDW.0>
-4.16072

>  <SCORE.INTRA.norm>
-0.196179

>  <SCORE.RESTR>
0

>  <SCORE.RESTR.CAVITY>
0

>  <SCORE.RESTR.norm>
0

>  <SCORE.SYSTEM>
0

>  <SCORE.SYSTEM.CONST>
0

>  <SCORE.SYSTEM.DIHEDRAL>
0

>  <SCORE.SYSTEM.SOLV>
0

>  <SCORE.SYSTEM.norm>
0

>  <SCORE.heavy>
31

>  <SCORE.norm>
-0.564712

>  <RMSD>
7.789

$$$$
ligand
 OpenBabel11021811493D
libRbt.so/2013.1/901 2013/11/27
 31 33  0  0  0  0  0  0  0  0999 V2000
   -6.0065   -6.3222  -20.3131 C   0  0  2  0  0  0  0  0  0  0  0  0
   -7.1465   -7.0256  -20.8250 O   0  0  0  0  0  0  0  0  0  0  0  0
   -7.1426  -10.6225  -18.5041 C   0  0  2  0  0  0  0  0  0  0  0  0
   -7.6035  -11.8159  -17.8627 N   0  0  0  0  0  0  0  0  0  0  0  0
   -7.1072  -12.8121  -21.5057 C   0  0  2  0  0  0  0  0  0  0  0  0
   -4.9852   -6.2137  -21.4994 C   0  0  2  0  0  0  0  0  0  0  0  0
   -5.6106   -5.5311  -22.6267 N   0  0  0  0  0  0  0  0  0  0  0  0
   -7.9597   -9.3947  -17.9445 C   0  0  0  0  0  0  0  0  0  0  0  0
   -7.8743  -13.8815  -20.6684 C   0  0  2  0  0  0  0  0  0  0  0  0
   -8.9262  -13.2471  -19.9616 O   0  0  0  0  0  0  0  0  0  0  0  0
   -4.5022   -7.6463  -21.9169 C   0  0  0  0  0  0  0  0  0  0  0  0
   -7.4415   -8.0687  -18.6520 C   0  0  2  0  0  0  0  0  0  0  0  0
   -8.2035   -6.9080  -18.1350 N   0  0  0  0  0  0  0  0  0  0  0  0
   -6.8231  -14.5312  -19.6639 C   0  0  1  0  0  0  0  0  0  0  0  0
   -7.4888  -15.5560  -18.7898 N   0  0  0  0  0  0  0  0  0  0  0  0
   -4.0992   -8.4811  -20.6671 C   0  0  0  0  0  0  0  0  0  0  0  0
   -7.6324   -8.1975  -20.2286 C   0  0  2  0  0  0  0  0  0  0  0  0
   -5.6373  -15.2476  -20.5204 C   0  0  1  0  0  0  0  0  0  0  0  0
   -6.1323  -16.2728  -21.3599 O   0  0  0  0  0  0  0  0  0  0  0  0
   -4.5353   -8.1472  -19.4431 C   0  0  2  0  0  0  0  0  0  0  0  0
   -5.3868   -7.0162  -19.1890 O   0  0  0  0  0  0  0  0  0  0  0  0
   -6.8228   -9.4567  -20.7524 C   0  0  2  0  0  0  0  0  0  0  0  0
   -7.0064   -9.5979  -22.1668 O   0  0  0  0  0  0  0  0  0  0  0  0
   -4.9409  -14.1808  -21.4310 C   0  0  0  0  0  0  0  0  0  0  0  0
   -5.9828  -13.4613  -22.2710 O   0  0  0  0  0  0  0  0  0  0  0  0
   -4.1437   -8.9626  -18.1887 C   0  0  0  0  0  0  0  0  0  0  0  0
   -3.1179   -9.9342  -18.5407 N   0  0  0  0  0  0  0  0  0  0  0  0
   -7.3452  -10.7577  -20.0423 C   0  0  1  0  0  0  0  0  0  0  0  0
   -6.6013  -11.8494  -20.5278 O   0  0  0  0  0  0  0  0  0  0  0  0
   -4.5314  -15.9237  -19.6930 C   0  0  0  0  0  0  0  0  0  0  0  0
   -8.2838  -16.5888  -19.4808 C   0  0  0  0  0  0  0  0  0  0  0  0
  1  2  1  6  0  0  0
  1  6  1  0  0  0  0
  1 21  1  0  0  0  0
  3  4  1  1  0  0  0
  3  8  1  0  0  0  0
  3 28  1  0  0  0  0
  5  9  1  0  0  0  0
  5 25  1  0  0  0  0
  5 29  1  1  0  0  0
  6  7  1  6  0  0  0
  6 11  1  0  0  0  0
  8 12  1  0  0  0  0
  9 10  1  1  0  0  0
  9 14  1  0  0  0  0
 11 16  1  0  0  0  0
 12 13  1  1  0  0  0
 12 17  1  0  0  0  0
 14 15  1  6  0  0  0
 14 18  1  0  0  0  0
 15 31  1  0  0  0  0
 16 20  1  0  0  0  0
 17  2  1  6  0  0  0
 17 22  1  0  0  0  0
 18 19  1  6  0  0  0
 18 24  1  0  0  0  0
 18 30  1  0  0  0  0
 20 21  1  0  0  0  0
 20 26  1  1  0  0  0
 22 23  1  6  0  0  0
 22 28  1  0  0  0  0
 24 25  1  0  0  0  0
 26 27  1  0  0  0  0
 28 29  1  6  0  0  0
M  END
>  <CHROM.1>
124.08878364,-85.71568045,51.48833352,35.44426941,8.96644690,137.25573480
-6.36243077,-10.80354344,-20.12947657,-1.43477252,-0.66341534,-3.06283238

>  <Name>
ligand

>  <RI>
0

>  <Rbt.Current_Directory>
/home/itssahil/PROJECTS/Mol_Feturizer/New_Systems/rnas/4F8U

>  <Rbt.Executable>
rbdock ($Id: //depot/dev/client3/rdock/2013.1/src/exe/rbdock.cxx#4 $)

>  <Rbt.Library>
libRbt.so (2013.1, Build901 2013/11/27)

>  <Rbt.Parameter_File>
/export/apps/rDock/src/rDock_2013.1_src/data/scripts/dock_solv.prm

>  <Rbt.Receptor>
prm/blind_docking_60.prm

>  <SCORE>
51.8722

>  <SCORE.INTER>
19.0169

>  <SCORE.INTER.CONST>
1

>  <SCORE.INTER.POLAR>
0

>  <SCORE.INTER.ROT>
6

>  <SCORE.INTER.SOLV>
28.6001

>  <SCORE.INTER.VDW>
-4.45544

>  <SCORE.INTER.norm>
0.613448

>  <SCORE.INTRA>
11.5104

>  <SCORE.INTRA.DIHEDRAL>
1.40376

>  <SCORE.INTRA.DIHEDRAL.0>
18.77

>  <SCORE.INTRA.POLAR>
0

>  <SCORE.INTRA.POLAR.0>
0

>  <SCORE.INTRA.REPUL>
0

>  <SCORE.INTRA.REPUL.0>
0

>  <SCORE.INTRA.SOLV>
3.51231

>  <SCORE.INTRA.SOLV.lig_0>
-77.2465

>  <SCORE.INTRA.VDW>
9.05234

>  <SCORE.INTRA.VDW.0>
-4.16072

>  <SCORE.INTRA.norm>
0.371302

>  <SCORE.RESTR>
21.3449

>  <SCORE.RESTR.CAVITY>
21.3449

>  <SCORE.RESTR.norm>
0.688547

>  <SCORE.SYSTEM>
0

>  <SCORE.SYSTEM.CONST>
0

>  <SCORE.SYSTEM.DIHEDRAL>
0

>  <SCORE.SYSTEM.SOLV>
0

>  <SCORE.SYSTEM.norm>
0

>  <SCORE.heavy>
31

>  <SCORE.norm>
1.6733

>  <RMSD>
7.811

$$$$
ligand
 OpenBabel11021811493D
libRbt.so/2013.1/901 2013/11/27
 31 33  0  0  0  0  0  0  0  0999 V2000
   -1.8849  -12.5652  -14.4596 C   0  0  2  0  0  0  0  0  0  0  0  0
   -1.4784  -12.6872  -15.8294 O   0  0  0  0  0  0  0  0  0  0  0  0
   -4.0775   -9.8585  -17.7181 C   0  0  2  0  0  0  0  0  0  0  0  0
   -4.6938   -9.0588  -18.7323 N   0  0  0  0  0  0  0  0  0  0  0  0
   -6.5551  -11.2298  -19.1687 C   0  0  2  0  0  0  0  0  0  0  0  0
   -0.9680  -13.5384  -13.6385 C   0  0  2  0  0  0  0  0  0  0  0  0
    0.4326  -13.1871  -13.8452 N   0  0  0  0  0  0  0  0  0  0  0  0
   -2.5408   -9.5083  -17.6562 C   0  0  0  0  0  0  0  0  0  0  0  0
   -7.9864  -11.6108  -18.6793 C   0  0  2  0  0  0  0  0  0  0  0  0
   -8.2527  -10.9364  -17.4615 O   0  0  0  0  0  0  0  0  0  0  0  0
   -1.2390  -15.0197  -14.0767 C   0  0  0  0  0  0  0  0  0  0  0  0
   -1.8589  -10.3915  -16.5238 C   0  0  2  0  0  0  0  0  0  0  0  0
   -0.4136  -10.0721  -16.4575 N   0  0  0  0  0  0  0  0  0  0  0  0
   -8.0051  -13.1897  -18.4724 C   0  0  1  0  0  0  0  0  0  0  0  0
   -9.3455  -13.6421  -17.9665 N   0  0  0  0  0  0  0  0  0  0  0  0
   -2.7667  -15.3107  -14.1305 C   0  0  0  0  0  0  0  0  0  0  0  0
   -2.0690  -11.9359  -16.8549 C   0  0  2  0  0  0  0  0  0  0  0  0
   -7.6963  -13.9192  -19.8956 C   0  0  1  0  0  0  0  0  0  0  0  0
   -8.6593  -13.5949  -20.8796 O   0  0  0  0  0  0  0  0  0  0  0  0
   -3.6578  -14.3117  -14.2180 C   0  0  2  0  0  0  0  0  0  0  0  0
   -3.2859  -12.9230  -14.2642 O   0  0  0  0  0  0  0  0  0  0  0  0
   -3.6221  -12.2463  -16.9385 C   0  0  2  0  0  0  0  0  0  0  0  0
   -3.8244  -13.6282  -17.2602 O   0  0  0  0  0  0  0  0  0  0  0  0
   -6.2987  -13.4503  -20.4239 C   0  0  0  0  0  0  0  0  0  0  0  0
   -6.2465  -11.9323  -20.4659 O   0  0  0  0  0  0  0  0  0  0  0  0
   -5.1799  -14.5805  -14.2699 C   0  0  0  0  0  0  0  0  0  0  0  0
   -5.8134  -14.0212  -13.0840 N   0  0  0  0  0  0  0  0  0  0  0  0
   -4.2811  -11.3643  -18.0599 C   0  0  1  0  0  0  0  0  0  0  0  0
   -5.6559  -11.6633  -18.0999 O   0  0  0  0  0  0  0  0  0  0  0  0
   -7.6737  -15.4564  -19.8666 C   0  0  0  0  0  0  0  0  0  0  0  0
   -9.3327  -14.5977  -16.8427 C   0  0  0  0  0  0  0  0  0  0  0  0
  1  2  1  6  0  0  0
  1  6  1  0  0  0  0
  1 21  1  0  0  0  0
  3  4  1  6  0  0  0
  3  8  1  0  0  0  0
  3 28  1  0  0  0  0
  5  9  1  0  0  0  0
  5 25  1  0  0  0  0
  5 29  1  1  0  0  0
  6  7  1  6  0  0  0
  6 11  1  0  0  0  0
  8 12  1  0  0  0  0
  9 10  1  1  0  0  0
  9 14  1  0  0  0  0
 11 16  1  0  0  0  0
 12 13  1  6  0  0  0
 12 17  1  0  0  0  0
 14 15  1  6  0  0  0
 14 18  1  0  0  0  0
 15 31  1  0  0  0  0
 16 20  1  0  0  0  0
 17  2  1  1  0  0  0
 17 22  1  0  0  0  0
 18 19  1  6  0  0  0
 18 24  1  0  0  0  0
 18 30  1  0  0  0  0
 20 21  1  0  0  0  0
 20 26  1  1  0  0  0
 22 23  1  6  0  0  0
 22 28  1  0  0  0  0
 24 25  1  0  0  0  0
 26 27  1  0  0  0  0
 28 29  1  1  0  0  0
M  END
>  <CHROM.1>
-178.72699798,-171.96198343,-134.19322834,59.31550396,115.57992707,72.45408329
-4.71503949,-12.64279372,-16.99771102,0.40708070,0.48265377,2.37061140

>  <Name>
ligand

>  <RI>
0

>  <Rbt.Current_Directory>
/home/itssahil/PROJECTS/Mol_Feturizer/New_Systems/rnas/4F8U

>  <Rbt.Executable>
rbdock ($Id: //depot/dev/client3/rdock/2013.1/src/exe/rbdock.cxx#4 $)

>  <Rbt.Library>
libRbt.so (2013.1, Build901 2013/11/27)

>  <Rbt.Parameter_File>
/export/apps/rDock/src/rDock_2013.1_src/data/scripts/dock_solv.prm

>  <Rbt.Receptor>
prm/pocket_docking_8.prm

>  <SCORE>
-9.06746

>  <SCORE.INTER>
-1.80736

>  <SCORE.INTER.CONST>
1

>  <SCORE.INTER.POLAR>
0

>  <SCORE.INTER.ROT>
6

>  <SCORE.INTER.SOLV>
12.634

>  <SCORE.INTER.VDW>
-13.0162

>  <SCORE.INTER.norm>
-0.0583021

>  <SCORE.INTRA>
-7.2601

>  <SCORE.INTRA.DIHEDRAL>
-14.9547

>  <SCORE.INTRA.DIHEDRAL.0>
18.77

>  <SCORE.INTRA.POLAR>
0

>  <SCORE.INTRA.POLAR.0>
0

>  <SCORE.INTRA.REPUL>
0

>  <SCORE.INTRA.REPUL.0>
0

>  <SCORE.INTRA.SOLV>
-0.78583

>  <SCORE.INTRA.SOLV.lig_0>
-77.2465

>  <SCORE.INTRA.VDW>
0.610185

>  <SCORE.INTRA.VDW.0>
-4.16072

>  <SCORE.INTRA.norm>
-0.234197

>  <SCORE.RESTR>
0

>  <SCORE.RESTR.CAVITY>
0

>  <SCORE.RESTR.norm>
0

>  <SCORE.SYSTEM>
0

>  <SCORE.SYSTEM.CONST>
0

>  <SCORE.SYSTEM.DIHEDRAL>
0

>  <SCORE.SYSTEM.SOLV>
0

>  <SCORE.SYSTEM.norm>
0

>  <SCORE.heavy>
31

>  <SCORE.norm>
-0.292499

>  <RMSD>
7.811

$$$$
ligand
 OpenBabel11021811493D
libRbt.so/2013.1/901 2013/11/27
 31 33  0  0  0  0  0  0  0  0999 V2000
   -7.4305   -8.9755  -24.1547 C   0  0  2  0  0  0  0  0  0  0  0  0
   -6.9990   -8.2237  -23.0123 O   0  0  0  0  0  0  0  0  0  0  0  0
   -7.0030   -9.2759  -18.8630 C   0  0  2  0  0  0  0  0  0  0  0  0
   -7.4691   -9.5154  -17.5313 N   0  0  0  0  0  0  0  0  0  0  0  0
   -8.1184  -12.7037  -20.1852 C   0  0  2  0  0  0  0  0  0  0  0  0
   -6.7580   -8.3054  -25.4040 C   0  0  2  0  0  0  0  0  0  0  0  0
   -5.3083   -8.3059  -25.2424 N   0  0  0  0  0  0  0  0  0  0  0  0
   -7.2683   -7.7656  -19.2323 C   0  0  0  0  0  0  0  0  0  0  0  0
   -8.1080  -13.8551  -19.1329 C   0  0  2  0  0  0  0  0  0  0  0  0
   -8.8525  -13.4494  -17.9971 O   0  0  0  0  0  0  0  0  0  0  0  0
   -7.2966   -6.8425  -25.5762 C   0  0  0  0  0  0  0  0  0  0  0  0
   -6.7429   -7.4989  -20.7088 C   0  0  2  0  0  0  0  0  0  0  0  0
   -6.9885   -6.0825  -21.0676 N   0  0  0  0  0  0  0  0  0  0  0  0
   -6.5860  -14.1252  -18.7501 C   0  0  1  0  0  0  0  0  0  0  0  0
   -6.4846  -15.2045  -17.7098 N   0  0  0  0  0  0  0  0  0  0  0  0
   -8.8481   -6.8064  -25.4621 C   0  0  0  0  0  0  0  0  0  0  0  0
   -7.4988   -8.4656  -21.7252 C   0  0  2  0  0  0  0  0  0  0  0  0
   -5.7734  -14.5890  -20.0833 C   0  0  1  0  0  0  0  0  0  0  0  0
   -6.3018  -15.7761  -20.6423 O   0  0  0  0  0  0  0  0  0  0  0  0
   -9.5208   -7.8047  -24.8699 C   0  0  2  0  0  0  0  0  0  0  0  0
   -8.8815   -8.9644  -24.3087 O   0  0  0  0  0  0  0  0  0  0  0  0
   -7.2349   -9.9728  -21.3077 C   0  0  2  0  0  0  0  0  0  0  0  0
   -7.9300  -10.8526  -22.2004 O   0  0  0  0  0  0  0  0  0  0  0  0
   -5.8765  -13.4646  -21.1684 C   0  0  0  0  0  0  0  0  0  0  0  0
   -7.3348  -13.1105  -21.4066 O   0  0  0  0  0  0  0  0  0  0  0  0
  -11.0625   -7.7883  -24.7491 C   0  0  0  0  0  0  0  0  0  0  0  0
  -11.5930   -6.6258  -25.4474 N   0  0  0  0  0  0  0  0  0  0  0  0
   -7.7574  -10.2191  -19.8462 C   0  0  1  0  0  0  0  0  0  0  0  0
   -7.5015  -11.5619  -19.5110 O   0  0  0  0  0  0  0  0  0  0  0  0
   -4.2780  -14.8862  -19.8839 C   0  0  0  0  0  0  0  0  0  0  0  0
   -6.2601  -14.7573  -16.3221 C   0  0  0  0  0  0  0  0  0  0  0  0
  1  2  1  1  0  0  0
  1  6  1  0  0  0  0
  1 21  1  0  0  0  0
  3  4  1  1  0  0  0
  3  8  1  0  0  0  0
  3 28  1  0  0  0  0
  5  9  1  0  0  0  0
  5 25  1  0  0  0  0
  5 29  1  1  0  0  0
  6  7  1  1  0  0  0
  6 11  1  0  0  0  0
  8 12  1  0  0  0  0
  9 10  1  1  0  0  0
  9 14  1  0  0  0  0
 11 16  1  0  0  0  0
 12 13  1  6  0  0  0
 12 17  1  0  0  0  0
 14 15  1  1  0  0  0
 14 18  1  0  0  0  0
 15 31  1  0  0  0  0
 16 20  1  0  0  0  0
 17  2  1  6  0  0  0
 17 22  1  0  0  0  0
 18 19  1  6  0  0  0
 18 24  1  0  0  0  0
 18 30  1  0  0  0  0
 20 21  1  0  0  0  0
 20 26  1  6  0  0  0
 22 23  1  6  0  0  0
 22 28  1  0  0  0  0
 24 25  1  0  0  0  0
 26 27  1  0  0  0  0
 28 29  1  1  0  0  0
M  END
>  <CHROM.1>
174.23109809,-154.00926037,-101.25097962,177.16645241,4.37218972,176.27599548
-7.45698567,-10.55814564,-21.39194342,-2.65835692,-1.33243764,1.36325289

>  <Name>
ligand

>  <RI>
0

>  <Rbt.Current_Directory>
/home/itssahil/PROJECTS/Mol_Feturizer/New_Systems/rnas/4F8U

>  <Rbt.Executable>
rbdock ($Id: //depot/dev/client3/rdock/2013.1/src/exe/rbdock.cxx#4 $)

>  <Rbt.Library>
libRbt.so (2013.1, Build901 2013/11/27)

>  <Rbt.Parameter_File>
/export/apps/rDock/src/rDock_2013.1_src/data/scripts/dock_solv.prm

>  <Rbt.Receptor>
prm/pocket_docking_7.prm

>  <SCORE>
-16.6892

>  <SCORE.INTER>
-11.8209

>  <SCORE.INTER.CONST>
1

>  <SCORE.INTER.POLAR>
0

>  <SCORE.INTER.ROT>
6

>  <SCORE.INTER.SOLV>
16.7724

>  <SCORE.INTER.VDW>
-21.0714

>  <SCORE.INTER.norm>
-0.38132

>  <SCORE.INTRA>
-4.86827

>  <SCORE.INTRA.DIHEDRAL>
-13.0078

>  <SCORE.INTRA.DIHEDRAL.0>
18.77

>  <SCORE.INTRA.POLAR>
0

>  <SCORE.INTRA.POLAR.0>
0

>  <SCORE.INTRA.REPUL>
0

>  <SCORE.INTRA.REPUL.0>
0

>  <SCORE.INTRA.SOLV>
-2.86774

>  <SCORE.INTRA.SOLV.lig_0>
-77.2465

>  <SCORE.INTRA.VDW>
3.06951

>  <SCORE.INTRA.VDW.0>
-4.16072

>  <SCORE.INTRA.norm>
-0.157041

>  <SCORE.RESTR>
0

>  <SCORE.RESTR.CAVITY>
0

>  <SCORE.RESTR.norm>
0

>  <SCORE.SYSTEM>
0

>  <SCORE.SYSTEM.CONST>
0

>  <SCORE.SYSTEM.DIHEDRAL>
0

>  <SCORE.SYSTEM.SOLV>
0

>  <SCORE.SYSTEM.norm>
0

>  <SCORE.heavy>
31

>  <SCORE.norm>
-0.538361

>  <RMSD>
7.830

$$$$
ligand
 OpenBabel11021811493D
libRbt.so/2013.1/901 2013/11/27
 31 33  0  0  0  0  0  0  0  0999 V2000
   -7.3544   -8.9883  -24.1586 C   0  0  2  0  0  0  0  0  0  0  0  0
   -6.9331   -8.2399  -23.0102 O   0  0  0  0  0  0  0  0  0  0  0  0
   -7.0208   -9.2868  -18.8605 C   0  0  2  0  0  0  0  0  0  0  0  0
   -7.5123   -9.5181  -17.5365 N   0  0  0  0  0  0  0  0  0  0  0  0
   -8.1499  -12.7010  -20.2068 C   0  0  2  0  0  0  0  0  0  0  0  0
   -6.6827   -8.3055  -25.4014 C   0  0  2  0  0  0  0  0  0  0  0  0
   -5.2336   -8.2955  -25.2345 N   0  0  0  0  0  0  0  0  0  0  0  0
   -7.2591   -7.7733  -19.2357 C   0  0  0  0  0  0  0  0  0  0  0  0
   -8.1844  -13.8523  -19.1548 C   0  0  2  0  0  0  0  0  0  0  0  0
   -8.9573  -13.4375  -18.0416 O   0  0  0  0  0  0  0  0  0  0  0  0
   -7.2323   -6.8460  -25.5670 C   0  0  0  0  0  0  0  0  0  0  0  0
   -6.7056   -7.5157  -20.7035 C   0  0  2  0  0  0  0  0  0  0  0  0
   -6.9257   -6.0966  -21.0678 N   0  0  0  0  0  0  0  0  0  0  0  0
   -6.6776  -14.1404  -18.7271 C   0  0  1  0  0  0  0  0  0  0  0  0
   -6.6200  -15.2206  -17.6845 N   0  0  0  0  0  0  0  0  0  0  0  0
   -8.7844   -6.8228  -25.4584 C   0  0  0  0  0  0  0  0  0  0  0  0
   -7.4575   -8.4732  -21.7314 C   0  0  2  0  0  0  0  0  0  0  0  0
   -5.8315  -14.6140  -20.0357 C   0  0  1  0  0  0  0  0  0  0  0  0
   -6.3572  -15.7949  -20.6103 O   0  0  0  0  0  0  0  0  0  0  0  0
   -9.4513   -7.8298  -24.8747 C   0  0  2  0  0  0  0  0  0  0  0  0
   -8.8048   -8.9878  -24.3179 O   0  0  0  0  0  0  0  0  0  0  0  0
   -7.2214   -9.9834  -21.3080 C   0  0  2  0  0  0  0  0  0  0  0  0
   -7.9134  -10.8547  -22.2113 O   0  0  0  0  0  0  0  0  0  0  0  0
   -5.8890  -13.4887  -21.1232 C   0  0  0  0  0  0  0  0  0  0  0  0
   -7.3352  -13.1173  -21.4045 O   0  0  0  0  0  0  0  0  0  0  0  0
  -10.9935   -7.8264  -24.7595 C   0  0  0  0  0  0  0  0  0  0  0  0
  -11.5284   -6.6457  -25.4230 N   0  0  0  0  0  0  0  0  0  0  0  0
   -7.7715  -10.2207  -19.8552 C   0  0  1  0  0  0  0  0  0  0  0  0
   -7.5396  -11.5665  -19.5144 O   0  0  0  0  0  0  0  0  0  0  0  0
   -4.3463  -14.9289  -19.7921 C   0  0  0  0  0  0  0  0  0  0  0  0
   -6.6484  -14.7755  -16.2783 C   0  0  0  0  0  0  0  0  0  0  0  0
  1  2  1  1  0  0  0
  1  6  1  0  0  0  0
  1 21  1  0  0  0  0
  3  4  1  1  0  0  0
  3  8  1  0  0  0  0
  3 28  1  0  0  0  0
  5  9  1  0  0  0  0
  5 25  1  0  0  0  0
  5 29  1  1  0  0  0
  6  7  1  1  0  0  0
  6 11  1  0  0  0  0
  8 12  1  0  0  0  0
  9 10  1  1  0  0  0
  9 14  1  0  0  0  0
 11 16  1  0  0  0  0
 12 13  1  6  0  0  0
 12 17  1  0  0  0  0
 14 15  1  1  0  0  0
 14 18  1  0  0  0  0
 15 31  1  0  0  0  0
 16 20  1  0  0  0  0
 17  2  1  6  0  0  0
 17 22  1  0  0  0  0
 18 19  1  6  0  0  0
 18 24  1  0  0  0  0
 18 30  1  0  0  0  0
 20 21  1  0  0  0  0
 20 26  1  6  0  0  0
 22 23  1  6  0  0  0
 22 28  1  0  0  0  0
 24 25  1  0  0  0  0
 26 27  1  0  0  0  0
 28 29  1  1  0  0  0
M  END
>  <CHROM.1>
172.77619203,-153.88365721,-91.82351564,177.08165682,2.90760454,176.95086548
-7.46631466,-10.57018703,-21.38505172,-2.57357176,-1.34700185,1.44655370

>  <Name>
ligand

>  <RI>
0

>  <Rbt.Current_Directory>
/home/itssahil/PROJECTS/Mol_Feturizer/New_Systems/rnas/4F8U

>  <Rbt.Executable>
rbdock ($Id: //depot/dev/client3/rdock/2013.1/src/exe/rbdock.cxx#4 $)

>  <Rbt.Library>
libRbt.so (2013.1, Build901 2013/11/27)

>  <Rbt.Parameter_File>
/export/apps/rDock/src/rDock_2013.1_src/data/scripts/dock_solv.prm

>  <Rbt.Receptor>
prm/pocket_docking_7.prm

>  <SCORE>
-16.614

>  <SCORE.INTER>
-11.7833

>  <SCORE.INTER.CONST>
1

>  <SCORE.INTER.POLAR>
0

>  <SCORE.INTER.ROT>
6

>  <SCORE.INTER.SOLV>
16.7406

>  <SCORE.INTER.VDW>
-21.0357

>  <SCORE.INTER.norm>
-0.380106

>  <SCORE.INTRA>
-4.83075

>  <SCORE.INTRA.DIHEDRAL>
-13.2032

>  <SCORE.INTRA.DIHEDRAL.0>
18.77

>  <SCORE.INTRA.POLAR>
0

>  <SCORE.INTRA.POLAR.0>
0

>  <SCORE.INTRA.REPUL>
0

>  <SCORE.INTRA.REPUL.0>
0

>  <SCORE.INTRA.SOLV>
-2.83791

>  <SCORE.INTRA.SOLV.lig_0>
-77.2465

>  <SCORE.INTRA.VDW>
3.1898

>  <SCORE.INTRA.VDW.0>
-4.16072

>  <SCORE.INTRA.norm>
-0.155831

>  <SCORE.RESTR>
0

>  <SCORE.RESTR.CAVITY>
0

>  <SCORE.RESTR.norm>
0

>  <SCORE.SYSTEM>
0

>  <SCORE.SYSTEM.CONST>
0

>  <SCORE.SYSTEM.DIHEDRAL>
0

>  <SCORE.SYSTEM.SOLV>
0

>  <SCORE.SYSTEM.norm>
0

>  <SCORE.heavy>
31

>  <SCORE.norm>
-0.535937

>  <RMSD>
7.836

$$$$
ligand
 OpenBabel11021811493D
libRbt.so/2013.1/901 2013/11/27
 31 33  0  0  0  0  0  0  0  0999 V2000
   -6.7109   -8.3948  -24.9728 C   0  0  2  0  0  0  0  0  0  0  0  0
   -6.2293   -7.7541  -23.7836 O   0  0  0  0  0  0  0  0  0  0  0  0
   -7.0114   -8.5563  -19.6522 C   0  0  2  0  0  0  0  0  0  0  0  0
   -7.6857   -8.6079  -18.3910 N   0  0  0  0  0  0  0  0  0  0  0  0
   -6.8581  -11.6462  -20.3252 C   0  0  2  0  0  0  0  0  0  0  0  0
   -5.6622   -8.0838  -26.0977 C   0  0  2  0  0  0  0  0  0  0  0  0
   -4.3464   -8.5643  -25.6907 N   0  0  0  0  0  0  0  0  0  0  0  0
   -6.8537   -7.0476  -20.0847 C   0  0  0  0  0  0  0  0  0  0  0  0
   -7.5015  -13.0190  -19.9584 C   0  0  2  0  0  0  0  0  0  0  0  0
   -8.4856  -13.3410  -20.9262 O   0  0  0  0  0  0  0  0  0  0  0  0
   -5.6270   -6.5413  -26.3791 C   0  0  0  0  0  0  0  0  0  0  0  0
   -6.0975   -6.9912  -21.4820 C   0  0  2  0  0  0  0  0  0  0  0  0
   -5.9449   -5.5779  -21.8995 N   0  0  0  0  0  0  0  0  0  0  0  0
   -8.1533  -12.8591  -18.5141 C   0  0  1  0  0  0  0  0  0  0  0  0
   -8.8288  -14.1334  -18.0935 N   0  0  0  0  0  0  0  0  0  0  0  0
   -7.0676   -5.9732  -26.5323 C   0  0  0  0  0  0  0  0  0  0  0  0
   -6.9310   -7.8024  -22.5711 C   0  0  2  0  0  0  0  0  0  0  0  0
   -6.9865  -12.4917  -17.4387 C   0  0  1  0  0  0  0  0  0  0  0  0
   -5.9962  -13.4989  -17.3633 O   0  0  0  0  0  0  0  0  0  0  0  0
   -8.1278   -6.6390  -26.0504 C   0  0  2  0  0  0  0  0  0  0  0  0
   -8.0254   -7.9035  -25.3726 O   0  0  0  0  0  0  0  0  0  0  0  0
   -7.0954   -9.3051  -22.0912 C   0  0  2  0  0  0  0  0  0  0  0  0
   -7.8649  -10.0400  -23.0514 O   0  0  0  0  0  0  0  0  0  0  0  0
   -6.2821  -11.1627  -17.8744 C   0  0  0  0  0  0  0  0  0  0  0  0
   -5.8041  -11.2802  -19.3119 O   0  0  0  0  0  0  0  0  0  0  0  0
   -9.5672   -6.0923  -26.1951 C   0  0  0  0  0  0  0  0  0  0  0  0
  -10.0786   -5.7157  -24.8848 N   0  0  0  0  0  0  0  0  0  0  0  0
   -7.8419   -9.3433  -20.7088 C   0  0  1  0  0  0  0  0  0  0  0  0
   -7.9638  -10.6889  -20.3148 O   0  0  0  0  0  0  0  0  0  0  0  0
   -7.4542  -12.2979  -15.9867 C   0  0  0  0  0  0  0  0  0  0  0  0
  -10.0827  -13.9885  -17.3299 C   0  0  0  0  0  0  0  0  0  0  0  0
  1  2  1  1  0  0  0
  1  6  1  0  0  0  0
  1 21  1  0  0  0  0
  3  4  1  1  0  0  0
  3  8  1  0  0  0  0
  3 28  1  0  0  0  0
  5  9  1  0  0  0  0
  5 25  1  0  0  0  0
  5 29  1  1  0  0  0
  6  7  1  1  0  0  0
  6 11  1  0  0  0  0
  8 12  1  0  0  0  0
  9 10  1  6  0  0  0
  9 14  1  0  0  0  0
 11 16  1  0  0  0  0
 12 13  1  6  0  0  0
 12 17  1  0  0  0  0
 14 15  1  1  0  0  0
 14 18  1  0  0  0  0
 15 31  1  0  0  0  0
 16 20  1  0  0  0  0
 17  2  1  6  0  0  0
 17 22  1  0  0  0  0
 18 19  1  6  0  0  0
 18 24  1  0  0  0  0
 18 30  1  0  0  0  0
 20 21  1  0  0  0  0
 20 26  1  6  0  0  0
 22 23  1  6  0  0  0
 22 28  1  0  0  0  0
 24 25  1  0  0  0  0
 26 27  1  0  0  0  0
 28 29  1  1  0  0  0
M  END
>  <CHROM.1>
178.97915286,-174.20360872,-143.10126572,179.79438210,-111.71808028,-70.76907104
-7.27385731,-9.57059490,-21.57167142,1.44434639,-1.11948697,-1.01370145

>  <Name>
ligand

>  <RI>
0

>  <Rbt.Current_Directory>
/home/itssahil/PROJECTS/Mol_Feturizer/New_Systems/rnas/4F8U

>  <Rbt.Executable>
rbdock ($Id: //depot/dev/client3/rdock/2013.1/src/exe/rbdock.cxx#4 $)

>  <Rbt.Library>
libRbt.so (2013.1, Build901 2013/11/27)

>  <Rbt.Parameter_File>
/export/apps/rDock/src/rDock_2013.1_src/data/scripts/dock_solv.prm

>  <Rbt.Receptor>
prm/pocket_docking_7.prm

>  <SCORE>
-13.4627

>  <SCORE.INTER>
-6.99551

>  <SCORE.INTER.CONST>
1

>  <SCORE.INTER.POLAR>
0

>  <SCORE.INTER.ROT>
6

>  <SCORE.INTER.SOLV>
16.2471

>  <SCORE.INTER.VDW>
-17.6794

>  <SCORE.INTER.norm>
-0.225662

>  <SCORE.INTRA>
-6.4672

>  <SCORE.INTRA.DIHEDRAL>
-15.4582

>  <SCORE.INTRA.DIHEDRAL.0>
18.77

>  <SCORE.INTRA.POLAR>
0

>  <SCORE.INTRA.POLAR.0>
0

>  <SCORE.INTRA.REPUL>
0

>  <SCORE.INTRA.REPUL.0>
0

>  <SCORE.INTRA.SOLV>
-0.647044

>  <SCORE.INTRA.SOLV.lig_0>
-77.2465

>  <SCORE.INTRA.VDW>
1.58541

>  <SCORE.INTRA.VDW.0>
-4.16072

>  <SCORE.INTRA.norm>
-0.208619

>  <SCORE.RESTR>
0

>  <SCORE.RESTR.CAVITY>
0

>  <SCORE.RESTR.norm>
0

>  <SCORE.SYSTEM>
0

>  <SCORE.SYSTEM.CONST>
0

>  <SCORE.SYSTEM.DIHEDRAL>
0

>  <SCORE.SYSTEM.SOLV>
0

>  <SCORE.SYSTEM.norm>
0

>  <SCORE.heavy>
31

>  <SCORE.norm>
-0.434281

>  <RMSD>
7.862

$$$$
ligand
 OpenBabel11021811493D
libRbt.so/2013.1/901 2013/11/27
 31 33  0  0  0  0  0  0  0  0999 V2000
   -7.6642   -8.9717  -24.1412 C   0  0  2  0  0  0  0  0  0  0  0  0
   -7.1943   -8.2104  -23.0204 O   0  0  0  0  0  0  0  0  0  0  0  0
   -7.0061   -9.1834  -18.8561 C   0  0  2  0  0  0  0  0  0  0  0  0
   -7.4146   -9.4203  -17.5051 N   0  0  0  0  0  0  0  0  0  0  0  0
   -8.0974  -12.6835  -19.9719 C   0  0  2  0  0  0  0  0  0  0  0  0
   -7.0125   -8.3294  -25.4158 C   0  0  2  0  0  0  0  0  0  0  0  0
   -5.5594   -8.3492  -25.2891 N   0  0  0  0  0  0  0  0  0  0  0  0
   -7.3584   -7.6950  -19.2417 C   0  0  0  0  0  0  0  0  0  0  0  0
   -7.8342  -13.8089  -18.9243 C   0  0  2  0  0  0  0  0  0  0  0  0
   -8.3625  -13.4068  -17.6721 O   0  0  0  0  0  0  0  0  0  0  0  0
   -7.5337   -6.8612  -25.5962 C   0  0  0  0  0  0  0  0  0  0  0  0
   -6.8970   -7.4307  -20.7399 C   0  0  2  0  0  0  0  0  0  0  0  0
   -7.2245   -6.0351  -21.1142 N   0  0  0  0  0  0  0  0  0  0  0  0
   -6.2566  -14.0095  -18.8396 C   0  0  1  0  0  0  0  0  0  0  0  0
   -5.9097  -15.0595  -17.8226 N   0  0  0  0  0  0  0  0  0  0  0  0
   -9.0813   -6.8004  -25.4454 C   0  0  0  0  0  0  0  0  0  0  0  0
   -7.6378   -8.4522  -21.7128 C   0  0  2  0  0  0  0  0  0  0  0  0
   -5.6973  -14.4714  -20.2979 C   0  0  1  0  0  0  0  0  0  0  0  0
   -6.2716  -15.6912  -20.7260 O   0  0  0  0  0  0  0  0  0  0  0  0
   -9.7539   -7.7801  -24.8229 C   0  0  2  0  0  0  0  0  0  0  0  0
   -9.1181   -8.9412  -24.2604 O   0  0  0  0  0  0  0  0  0  0  0  0
   -7.2855   -9.9366  -21.2791 C   0  0  2  0  0  0  0  0  0  0  0  0
   -7.9657  -10.8660  -22.1320 O   0  0  0  0  0  0  0  0  0  0  0  0
   -6.0564  -13.3774  -21.3592 C   0  0  0  0  0  0  0  0  0  0  0  0
   -7.5472  -13.0870  -21.3157 O   0  0  0  0  0  0  0  0  0  0  0  0
  -11.2919   -7.7391  -24.6654 C   0  0  0  0  0  0  0  0  0  0  0  0
  -11.8217   -6.5764  -25.3639 N   0  0  0  0  0  0  0  0  0  0  0  0
   -7.7455  -10.1807  -19.7963 C   0  0  1  0  0  0  0  0  0  0  0  0
   -7.4121  -11.5028  -19.4473 O   0  0  0  0  0  0  0  0  0  0  0  0
   -4.1800  -14.7044  -20.3875 C   0  0  0  0  0  0  0  0  0  0  0  0
   -6.6505  -16.3318  -17.9164 C   0  0  0  0  0  0  0  0  0  0  0  0
  1  2  1  1  0  0  0
  1  6  1  0  0  0  0
  1 21  1  0  0  0  0
  3  4  1  1  0  0  0
  3  8  1  0  0  0  0
  3 28  1  0  0  0  0
  5  9  1  0  0  0  0
  5 25  1  0  0  0  0
  5 29  1  1  0  0  0
  6  7  1  1  0  0  0
  6 11  1  0  0  0  0
  8 12  1  0  0  0  0
  9 10  1  1  0  0  0
  9 14  1  0  0  0  0
 11 16  1  0  0  0  0
 12 13  1  6  0  0  0
 12 17  1  0  0  0  0
 14 15  1  1  0  0  0
 14 18  1  0  0  0  0
 15 31  1  0  0  0  0
 16 20  1  0  0  0  0
 17  2  1  6  0  0  0
 17 22  1  0  0  0  0
 18 19  1  6  0  0  0
 18 24  1  0  0  0  0
 18 30  1  0  0  0  0
 20 21  1  0  0  0  0
 20 26  1  6  0  0  0
 22 23  1  6  0  0  0
 22 28  1  0  0  0  0
 24 25  1  0  0  0  0
 26 27  1  0  0  0  0
 28 29  1  1  0  0  0
M  END
>  <CHROM.1>
176.10203049,-157.14977197,49.12355041,179.53733230,4.19364352,169.20379510
-7.51423440,-10.56566796,-21.44507793,-2.77233994,-1.30435078,1.29352503

>  <Name>
ligand

>  <RI>
0

>  <Rbt.Current_Directory>
/home/itssahil/PROJECTS/Mol_Feturizer/New_Systems/rnas/4F8U

>  <Rbt.Executable>
rbdock ($Id: //depot/dev/client3/rdock/2013.1/src/exe/rbdock.cxx#4 $)

>  <Rbt.Library>
libRbt.so (2013.1, Build901 2013/11/27)

>  <Rbt.Parameter_File>
/export/apps/rDock/src/rDock_2013.1_src/data/scripts/dock_solv.prm

>  <Rbt.Receptor>
prm/pocket_docking_8.prm

>  <SCORE>
-15.4841

>  <SCORE.INTER>
-12.0874

>  <SCORE.INTER.CONST>
1

>  <SCORE.INTER.POLAR>
0

>  <SCORE.INTER.ROT>
6

>  <SCORE.INTER.SOLV>
17.6214

>  <SCORE.INTER.VDW>
-21.532

>  <SCORE.INTER.norm>
-0.389915

>  <SCORE.INTRA>
-3.39677

>  <SCORE.INTRA.DIHEDRAL>
-14.0497

>  <SCORE.INTRA.DIHEDRAL.0>
18.77

>  <SCORE.INTRA.POLAR>
0

>  <SCORE.INTRA.POLAR.0>
0

>  <SCORE.INTRA.REPUL>
0

>  <SCORE.INTRA.REPUL.0>
0

>  <SCORE.INTRA.SOLV>
-2.57941

>  <SCORE.INTRA.SOLV.lig_0>
-77.2465

>  <SCORE.INTRA.VDW>
4.91777

>  <SCORE.INTRA.VDW.0>
-4.16072

>  <SCORE.INTRA.norm>
-0.109573

>  <SCORE.RESTR>
0

>  <SCORE.RESTR.CAVITY>
0

>  <SCORE.RESTR.norm>
0

>  <SCORE.SYSTEM>
0

>  <SCORE.SYSTEM.CONST>
0

>  <SCORE.SYSTEM.DIHEDRAL>
0

>  <SCORE.SYSTEM.SOLV>
0

>  <SCORE.SYSTEM.norm>
0

>  <SCORE.heavy>
31

>  <SCORE.norm>
-0.499488

>  <RMSD>
7.878

$$$$
ligand
 OpenBabel11021811493D
libRbt.so/2013.1/901 2013/11/27
 31 33  0  0  0  0  0  0  0  0999 V2000
   -8.2783   -9.1724  -25.0303 C   0  0  2  0  0  0  0  0  0  0  0  0
   -7.3713   -9.8013  -24.1146 O   0  0  0  0  0  0  0  0  0  0  0  0
   -6.7871  -10.1161  -19.8858 C   0  0  2  0  0  0  0  0  0  0  0  0
   -7.0685  -10.2850  -18.4928 N   0  0  0  0  0  0  0  0  0  0  0  0
   -6.6073  -13.0459  -18.8195 C   0  0  2  0  0  0  0  0  0  0  0  0
   -7.7923   -9.5614  -26.4706 C   0  0  2  0  0  0  0  0  0  0  0  0
   -7.7688  -11.0135  -26.6069 N   0  0  0  0  0  0  0  0  0  0  0  0
   -7.5880   -8.8667  -20.4200 C   0  0  0  0  0  0  0  0  0  0  0  0
   -5.4885  -14.1264  -18.7008 C   0  0  2  0  0  0  0  0  0  0  0  0
   -4.2283  -13.5105  -18.9043 O   0  0  0  0  0  0  0  0  0  0  0  0
   -6.3691   -8.9564  -26.7323 C   0  0  0  0  0  0  0  0  0  0  0  0
   -7.2684   -8.6754  -21.9655 C   0  0  2  0  0  0  0  0  0  0  0  0
   -8.0171   -7.5046  -22.4791 N   0  0  0  0  0  0  0  0  0  0  0  0
   -5.7753  -15.2216  -19.8208 C   0  0  1  0  0  0  0  0  0  0  0  0
   -4.7194  -16.2903  -19.7996 N   0  0  0  0  0  0  0  0  0  0  0  0
   -6.3182   -7.4588  -26.3131 C   0  0  0  0  0  0  0  0  0  0  0  0
   -7.6856   -9.9910  -22.7618 C   0  0  2  0  0  0  0  0  0  0  0  0
   -7.2297  -15.9008  -19.5446 C   0  0  1  0  0  0  0  0  0  0  0  0
   -7.2883  -16.5383  -18.2832 O   0  0  0  0  0  0  0  0  0  0  0  0
   -7.2226   -6.9477  -25.4641 C   0  0  2  0  0  0  0  0  0  0  0  0
   -8.2903   -7.7202  -24.8879 O   0  0  0  0  0  0  0  0  0  0  0  0
   -6.8847  -11.2303  -22.1804 C   0  0  2  0  0  0  0  0  0  0  0  0
   -7.2694  -12.4249  -22.8725 O   0  0  0  0  0  0  0  0  0  0  0  0
   -8.3320  -14.7887  -19.5679 C   0  0  0  0  0  0  0  0  0  0  0  0
   -7.9601  -13.6743  -18.6042 O   0  0  0  0  0  0  0  0  0  0  0  0
   -7.1903   -5.4615  -25.0377 C   0  0  0  0  0  0  0  0  0  0  0  0
   -8.3223   -4.7612  -25.6280 N   0  0  0  0  0  0  0  0  0  0  0  0
   -7.2096  -11.4041  -20.6527 C   0  0  1  0  0  0  0  0  0  0  0  0
   -6.4784  -12.5070  -20.1730 O   0  0  0  0  0  0  0  0  0  0  0  0
   -7.6618  -16.9837  -20.5471 C   0  0  0  0  0  0  0  0  0  0  0  0
   -3.7463  -16.2713  -20.9082 C   0  0  0  0  0  0  0  0  0  0  0  0
  1  2  1  1  0  0  0
  1  6  1  0  0  0  0
  1 21  1  0  0  0  0
  3  4  1  1  0  0  0
  3  8  1  0  0  0  0
  3 28  1  0  0  0  0
  5  9  1  0  0  0  0
  5 25  1  0  0  0  0
  5 29  1  6  0  0  0
  6  7  1  1  0  0  0
  6 11  1  0  0  0  0
  8 12  1  0  0  0  0
  9 10  1  6  0  0  0
  9 14  1  0  0  0  0
 11 16  1  0  0  0  0
 12 13  1  6  0  0  0
 12 17  1  0  0  0  0
 14 15  1  1  0  0  0
 14 18  1  0  0  0  0
 15 31  1  0  0  0  0
 16 20  1  0  0  0  0
 17  2  1  6  0  0  0
 17 22  1  0  0  0  0
 18 19  1  1  0  0  0
 18 24  1  0  0  0  0
 18 30  1  0  0  0  0
 20 21  1  0  0  0  0
 20 26  1  6  0  0  0
 22 23  1  6  0  0  0
 22 28  1  0  0  0  0
 24 25  1  0  0  0  0
 26 27  1  0  0  0  0
 28 29  1  1  0  0  0
M  END
>  <CHROM.1>
-161.95706263,-173.10611120,-106.93925102,-86.87118263,110.05483932,66.06654229
-6.96732811,-11.34379845,-21.96749633,-2.38871342,-1.39185089,1.67496943

>  <Name>
ligand

>  <RI>
0

>  <Rbt.Current_Directory>
/home/itssahil/PROJECTS/Mol_Feturizer/New_Systems/rnas/4F8U

>  <Rbt.Executable>
rbdock ($Id: //depot/dev/client3/rdock/2013.1/src/exe/rbdock.cxx#4 $)

>  <Rbt.Library>
libRbt.so (2013.1, Build901 2013/11/27)

>  <Rbt.Parameter_File>
/export/apps/rDock/src/rDock_2013.1_src/data/scripts/dock_solv.prm

>  <Rbt.Receptor>
prm/pocket_docking_8.prm

>  <SCORE>
-12.2696

>  <SCORE.INTER>
-9.04385

>  <SCORE.INTER.CONST>
1

>  <SCORE.INTER.POLAR>
0

>  <SCORE.INTER.ROT>
6

>  <SCORE.INTER.SOLV>
15.7168

>  <SCORE.INTER.VDW>
-18.8682

>  <SCORE.INTER.norm>
-0.291737

>  <SCORE.INTRA>
-3.22576

>  <SCORE.INTRA.DIHEDRAL>
-10.9776

>  <SCORE.INTRA.DIHEDRAL.0>
18.77

>  <SCORE.INTRA.POLAR>
0

>  <SCORE.INTRA.POLAR.0>
0

>  <SCORE.INTRA.REPUL>
0

>  <SCORE.INTRA.REPUL.0>
0

>  <SCORE.INTRA.SOLV>
1.98196

>  <SCORE.INTRA.SOLV.lig_0>
-77.2465

>  <SCORE.INTRA.VDW>
1.27207

>  <SCORE.INTRA.VDW.0>
-4.16072

>  <SCORE.INTRA.norm>
-0.104057

>  <SCORE.RESTR>
0

>  <SCORE.RESTR.CAVITY>
0

>  <SCORE.RESTR.norm>
0

>  <SCORE.SYSTEM>
0

>  <SCORE.SYSTEM.CONST>
0

>  <SCORE.SYSTEM.DIHEDRAL>
0

>  <SCORE.SYSTEM.SOLV>
0

>  <SCORE.SYSTEM.norm>
0

>  <SCORE.heavy>
31

>  <SCORE.norm>
-0.395794

>  <RMSD>
7.897

$$$$
ligand
 OpenBabel11021811493D
libRbt.so/2013.1/901 2013/11/27
 31 33  0  0  0  0  0  0  0  0999 V2000
   -6.9107   -8.4637  -24.9951 C   0  0  2  0  0  0  0  0  0  0  0  0
   -6.3213   -7.8836  -23.8235 O   0  0  0  0  0  0  0  0  0  0  0  0
   -6.9106   -8.6629  -19.6559 C   0  0  2  0  0  0  0  0  0  0  0  0
   -7.5180   -8.6915  -18.3604 N   0  0  0  0  0  0  0  0  0  0  0  0
   -6.8998  -11.7479  -20.3071 C   0  0  2  0  0  0  0  0  0  0  0  0
   -5.9714   -8.0878  -26.1944 C   0  0  2  0  0  0  0  0  0  0  0  0
   -4.6230   -8.5814  -25.9372 N   0  0  0  0  0  0  0  0  0  0  0  0
   -6.7204   -7.1604  -20.0968 C   0  0  0  0  0  0  0  0  0  0  0  0
   -7.5838  -13.1097  -19.9743 C   0  0  2  0  0  0  0  0  0  0  0  0
   -8.5811  -13.3750  -20.9459 O   0  0  0  0  0  0  0  0  0  0  0  0
   -5.9638   -6.5325  -26.3958 C   0  0  0  0  0  0  0  0  0  0  0  0
   -6.0385   -7.1298  -21.5326 C   0  0  2  0  0  0  0  0  0  0  0  0
   -5.8562   -5.7224  -21.9582 N   0  0  0  0  0  0  0  0  0  0  0  0
   -8.2247  -12.9690  -18.5232 C   0  0  1  0  0  0  0  0  0  0  0  0
   -8.9376  -14.2329  -18.1339 N   0  0  0  0  0  0  0  0  0  0  0  0
   -7.4129   -5.9654  -26.3845 C   0  0  0  0  0  0  0  0  0  0  0  0
   -6.9585   -7.9079  -22.5752 C   0  0  2  0  0  0  0  0  0  0  0  0
   -7.0430  -12.6668  -17.4438 C   0  0  1  0  0  0  0  0  0  0  0  0
   -6.0840  -13.7057  -17.4002 O   0  0  0  0  0  0  0  0  0  0  0  0
   -8.4232   -6.6619  -25.8423 C   0  0  2  0  0  0  0  0  0  0  0  0
   -8.2571   -7.9596  -25.2448 O   0  0  0  0  0  0  0  0  0  0  0  0
   -7.1526   -9.4043  -22.0866 C   0  0  2  0  0  0  0  0  0  0  0  0
   -7.9990  -10.1086  -23.0039 O   0  0  0  0  0  0  0  0  0  0  0  0
   -6.2997  -11.3488  -17.8469 C   0  0  0  0  0  0  0  0  0  0  0  0
   -5.8311  -11.4420  -19.2893 O   0  0  0  0  0  0  0  0  0  0  0  0
   -9.8703   -6.1166  -25.8238 C   0  0  0  0  0  0  0  0  0  0  0  0
  -10.7425   -7.0265  -26.5530 N   0  0  0  0  0  0  0  0  0  0  0  0
   -7.8250   -9.4169  -20.6662 C   0  0  1  0  0  0  0  0  0  0  0  0
   -7.9753  -10.7578  -20.2657 O   0  0  0  0  0  0  0  0  0  0  0  0
   -7.4989  -12.4982  -15.9849 C   0  0  0  0  0  0  0  0  0  0  0  0
  -10.1560  -14.0725  -17.3177 C   0  0  0  0  0  0  0  0  0  0  0  0
  1  2  1  1  0  0  0
  1  6  1  0  0  0  0
  1 21  1  0  0  0  0
  3  4  1  1  0  0  0
  3  8  1  0  0  0  0
  3 28  1  0  0  0  0
  5  9  1  0  0  0  0
  5 25  1  0  0  0  0
  5 29  1  1  0  0  0
  6  7  1  1  0  0  0
  6 11  1  0  0  0  0
  8 12  1  0  0  0  0
  9 10  1  6  0  0  0
  9 14  1  0  0  0  0
 11 16  1  0  0  0  0
 12 13  1  6  0  0  0
 12 17  1  0  0  0  0
 14 15  1  1  0  0  0
 14 18  1  0  0  0  0
 15 31  1  0  0  0  0
 16 20  1  0  0  0  0
 17  2  1  6  0  0  0
 17 22  1  0  0  0  0
 18 19  1  6  0  0  0
 18 24  1  0  0  0  0
 18 30  1  0  0  0  0
 20 21  1  0  0  0  0
 20 26  1  6  0  0  0
 22 23  1  6  0  0  0
 22 28  1  0  0  0  0
 24 25  1  0  0  0  0
 26 27  1  0  0  0  0
 28 29  1  1  0  0  0
M  END
>  <CHROM.1>
173.80316628,-171.99221827,-145.31574315,-177.98413570,119.71082763,-69.35692733
-7.38459844,-9.70197760,-21.61061882,1.53104351,-0.84572386,-0.94318089

>  <Name>
ligand

>  <RI>
0

>  <Rbt.Current_Directory>
/home/itssahil/PROJECTS/Mol_Feturizer/New_Systems/rnas/4F8U

>  <Rbt.Executable>
rbdock ($Id: //depot/dev/client3/rdock/2013.1/src/exe/rbdock.cxx#4 $)

>  <Rbt.Library>
libRbt.so (2013.1, Build901 2013/11/27)

>  <Rbt.Parameter_File>
/export/apps/rDock/src/rDock_2013.1_src/data/scripts/dock_solv.prm

>  <Rbt.Receptor>
prm/pocket_docking_8.prm

>  <SCORE>
-13.9045

>  <SCORE.INTER>
-7.33407

>  <SCORE.INTER.CONST>
1

>  <SCORE.INTER.POLAR>
0

>  <SCORE.INTER.ROT>
6

>  <SCORE.INTER.SOLV>
15.0468

>  <SCORE.INTER.VDW>
-17.505

>  <SCORE.INTER.norm>
-0.236583

>  <SCORE.INTRA>
-6.57043

>  <SCORE.INTRA.DIHEDRAL>
-15.3965

>  <SCORE.INTRA.DIHEDRAL.0>
18.77

>  <SCORE.INTRA.POLAR>
0

>  <SCORE.INTRA.POLAR.0>
0

>  <SCORE.INTRA.REPUL>
0

>  <SCORE.INTRA.REPUL.0>
0

>  <SCORE.INTRA.SOLV>
-0.81795

>  <SCORE.INTRA.SOLV.lig_0>
-77.2465

>  <SCORE.INTRA.VDW>
1.53678

>  <SCORE.INTRA.VDW.0>
-4.16072

>  <SCORE.INTRA.norm>
-0.21195

>  <SCORE.RESTR>
0

>  <SCORE.RESTR.CAVITY>
0

>  <SCORE.RESTR.norm>
0

>  <SCORE.SYSTEM>
0

>  <SCORE.SYSTEM.CONST>
0

>  <SCORE.SYSTEM.DIHEDRAL>
0

>  <SCORE.SYSTEM.SOLV>
0

>  <SCORE.SYSTEM.norm>
0

>  <SCORE.heavy>
31

>  <SCORE.norm>
-0.448533

>  <RMSD>
7.900

$$$$
ligand
 OpenBabel11021811493D
libRbt.so/2013.1/901 2013/11/27
 31 33  0  0  0  0  0  0  0  0999 V2000
   -2.3537  -12.7644  -14.2709 C   0  0  2  0  0  0  0  0  0  0  0  0
   -3.6431  -12.5257  -13.6904 O   0  0  0  0  0  0  0  0  0  0  0  0
   -6.2276  -14.1470  -16.6930 C   0  0  2  0  0  0  0  0  0  0  0  0
   -7.4133  -14.6087  -17.3479 N   0  0  0  0  0  0  0  0  0  0  0  0
   -7.6261  -10.8748  -17.6716 C   0  0  2  0  0  0  0  0  0  0  0  0
   -1.3134  -12.0322  -13.3525 C   0  0  2  0  0  0  0  0  0  0  0  0
   -1.4204  -12.5366  -11.9879 N   0  0  0  0  0  0  0  0  0  0  0  0
   -5.9997  -15.0028  -15.3878 C   0  0  0  0  0  0  0  0  0  0  0  0
   -7.9454  -10.8543  -19.1983 C   0  0  2  0  0  0  0  0  0  0  0  0
   -8.3965  -12.1387  -19.5930 O   0  0  0  0  0  0  0  0  0  0  0  0
   -1.5655  -10.4848  -13.3934 C   0  0  0  0  0  0  0  0  0  0  0  0
   -4.6780  -14.4942  -14.6655 C   0  0  2  0  0  0  0  0  0  0  0  0
   -4.4544  -15.2904  -13.4361 N   0  0  0  0  0  0  0  0  0  0  0  0
   -6.5976  -10.4667  -19.9530 C   0  0  1  0  0  0  0  0  0  0  0  0
   -6.8074  -10.4561  -21.4407 N   0  0  0  0  0  0  0  0  0  0  0  0
   -1.7366   -9.9899  -14.8587 C   0  0  0  0  0  0  0  0  0  0  0  0
   -4.8300  -12.9499  -14.3038 C   0  0  2  0  0  0  0  0  0  0  0  0
   -6.1206   -8.9864  -19.4692 C   0  0  1  0  0  0  0  0  0  0  0  0
   -7.0864   -7.9947  -19.7603 O   0  0  0  0  0  0  0  0  0  0  0  0
   -2.0555  -10.8434  -15.8434 C   0  0  2  0  0  0  0  0  0  0  0  0
   -2.2569  -12.2521  -15.6338 O   0  0  0  0  0  0  0  0  0  0  0  0
   -5.0867  -12.1241  -15.6334 C   0  0  2  0  0  0  0  0  0  0  0  0
   -5.2495  -10.7355  -15.3186 O   0  0  0  0  0  0  0  0  0  0  0  0
   -5.8998   -8.9958  -17.9189 C   0  0  0  0  0  0  0  0  0  0  0  0
   -7.1460   -9.5181  -17.2240 O   0  0  0  0  0  0  0  0  0  0  0  0
   -2.2274  -10.3715  -17.3061 C   0  0  0  0  0  0  0  0  0  0  0  0
   -1.2887  -11.0846  -18.1609 N   0  0  0  0  0  0  0  0  0  0  0  0
   -6.3942  -12.6403  -16.3359 C   0  0  1  0  0  0  0  0  0  0  0  0
   -6.5849  -11.8892  -17.5108 O   0  0  0  0  0  0  0  0  0  0  0  0
   -4.8225   -8.4624  -20.1055 C   0  0  0  0  0  0  0  0  0  0  0  0
   -7.0306  -11.7668  -22.0798 C   0  0  0  0  0  0  0  0  0  0  0  0
  1  2  1  1  0  0  0
  1  6  1  0  0  0  0
  1 21  1  0  0  0  0
  3  4  1  1  0  0  0
  3  8  1  0  0  0  0
  3 28  1  0  0  0  0
  5  9  1  0  0  0  0
  5 25  1  0  0  0  0
  5 29  1  6  0  0  0
  6  7  1  1  0  0  0
  6 11  1  0  0  0  0
  8 12  1  0  0  0  0
  9 10  1  6  0  0  0
  9 14  1  0  0  0  0
 11 16  1  0  0  0  0
 12 13  1  1  0  0  0
 12 17  1  0  0  0  0
 14 15  1  6  0  0  0
 14 18  1  0  0  0  0
 15 31  1  0  0  0  0
 16 20  1  0  0  0  0
 17  2  1  6  0  0  0
 17 22  1  0  0  0  0
 18 19  1  6  0  0  0
 18 24  1  0  0  0  0
 18 30  1  0  0  0  0
 20 21  1  0  0  0  0
 20 26  1  6  0  0  0
 22 23  1  1  0  0  0
 22 28  1  0  0  0  0
 24 25  1  0  0  0  0
 26 27  1  0  0  0  0
 28 29  1  6  0  0  0
M  END
>  <CHROM.1>
175.13405020,-151.75825581,-69.35939203,51.01511304,121.04998427,133.03142433
-4.93529869,-11.56084005,-16.78827055,-0.81244320,-0.58885279,-0.73518615

>  <Name>
ligand

>  <RI>
0

>  <Rbt.Current_Directory>
/home/itssahil/PROJECTS/Mol_Feturizer/New_Systems/rnas/4F8U

>  <Rbt.Executable>
rbdock ($Id: //depot/dev/client3/rdock/2013.1/src/exe/rbdock.cxx#4 $)

>  <Rbt.Library>
libRbt.so (2013.1, Build901 2013/11/27)

>  <Rbt.Parameter_File>
/export/apps/rDock/src/rDock_2013.1_src/data/scripts/dock_solv.prm

>  <Rbt.Receptor>
prm/pocket_docking_4.prm

>  <SCORE>
-5.67638

>  <SCORE.INTER>
-2.51656

>  <SCORE.INTER.CONST>
1

>  <SCORE.INTER.POLAR>
0

>  <SCORE.INTER.ROT>
6

>  <SCORE.INTER.SOLV>
13.1671

>  <SCORE.INTER.VDW>
-13.6667

>  <SCORE.INTER.norm>
-0.0811793

>  <SCORE.INTRA>
-3.23831

>  <SCORE.INTRA.DIHEDRAL>
-6.84782

>  <SCORE.INTRA.DIHEDRAL.0>
18.77

>  <SCORE.INTRA.POLAR>
0

>  <SCORE.INTRA.POLAR.0>
0

>  <SCORE.INTRA.REPUL>
0

>  <SCORE.INTRA.REPUL.0>
0

>  <SCORE.INTRA.SOLV>
-0.949622

>  <SCORE.INTRA.SOLV.lig_0>
-77.2465

>  <SCORE.INTRA.VDW>
0.660409

>  <SCORE.INTRA.VDW.0>
-4.16072

>  <SCORE.INTRA.norm>
-0.104462

>  <SCORE.RESTR>
0.0784845

>  <SCORE.RESTR.CAVITY>
0.0784845

>  <SCORE.RESTR.norm>
0.00253176

>  <SCORE.SYSTEM>
0

>  <SCORE.SYSTEM.CONST>
0

>  <SCORE.SYSTEM.DIHEDRAL>
0

>  <SCORE.SYSTEM.SOLV>
0

>  <SCORE.SYSTEM.norm>
0

>  <SCORE.heavy>
31

>  <SCORE.norm>
-0.183109

>  <RMSD>
7.903

$$$$
ligand
 OpenBabel11021811493D
libRbt.so/2013.1/901 2013/11/27
 31 33  0  0  0  0  0  0  0  0999 V2000
   -6.7043   -8.6013  -25.0953 C   0  0  2  0  0  0  0  0  0  0  0  0
   -6.2927   -7.8189  -23.9662 O   0  0  0  0  0  0  0  0  0  0  0  0
   -7.0761   -8.3850  -19.7961 C   0  0  2  0  0  0  0  0  0  0  0  0
   -7.7586   -8.3838  -18.5383 N   0  0  0  0  0  0  0  0  0  0  0  0
   -6.7813  -11.4954  -20.2459 C   0  0  2  0  0  0  0  0  0  0  0  0
   -5.6968   -8.2716  -26.2521 C   0  0  2  0  0  0  0  0  0  0  0  0
   -4.3363   -8.5741  -25.8213 N   0  0  0  0  0  0  0  0  0  0  0  0
   -6.9788   -6.9021  -20.3248 C   0  0  0  0  0  0  0  0  0  0  0  0
   -7.3738  -12.8823  -19.8476 C   0  0  2  0  0  0  0  0  0  0  0  0
   -8.2969  -13.2928  -20.8417 O   0  0  0  0  0  0  0  0  0  0  0  0
   -5.8280   -6.7620  -26.6564 C   0  0  0  0  0  0  0  0  0  0  0  0
   -6.2135   -6.9037  -21.7183 C   0  0  2  0  0  0  0  0  0  0  0  0
   -6.1176   -5.5151  -22.2259 N   0  0  0  0  0  0  0  0  0  0  0  0
   -8.0965  -12.6957  -18.4408 C   0  0  1  0  0  0  0  0  0  0  0  0
   -8.7282  -13.9837  -17.9945 N   0  0  0  0  0  0  0  0  0  0  0  0
   -7.3215   -6.3655  -26.8400 C   0  0  0  0  0  0  0  0  0  0  0  0
   -7.0022   -7.8188  -22.7573 C   0  0  2  0  0  0  0  0  0  0  0  0
   -6.9980  -12.2265  -17.3335 C   0  0  1  0  0  0  0  0  0  0  0  0
   -5.9648  -13.1790  -17.1722 O   0  0  0  0  0  0  0  0  0  0  0  0
   -8.3034   -7.1000  -26.2957 C   0  0  2  0  0  0  0  0  0  0  0  0
   -8.0646   -8.2874  -25.5199 O   0  0  0  0  0  0  0  0  0  0  0  0
   -7.1068   -9.2930  -22.1817 C   0  0  2  0  0  0  0  0  0  0  0  0
   -7.8359  -10.1208  -23.0966 O   0  0  0  0  0  0  0  0  0  0  0  0
   -6.3395  -10.8831  -17.7961 C   0  0  0  0  0  0  0  0  0  0  0  0
   -5.7926  -11.0358  -19.2054 O   0  0  0  0  0  0  0  0  0  0  0  0
   -9.7934   -6.7239  -26.4691 C   0  0  0  0  0  0  0  0  0  0  0  0
  -10.3378   -6.2902  -25.1901 N   0  0  0  0  0  0  0  0  0  0  0  0
   -7.8631   -9.2736  -20.8043 C   0  0  1  0  0  0  0  0  0  0  0  0
   -7.9310  -10.5950  -20.3243 O   0  0  0  0  0  0  0  0  0  0  0  0
   -7.5390  -11.9965  -15.9126 C   0  0  0  0  0  0  0  0  0  0  0  0
  -10.0178  -13.8698  -17.2872 C   0  0  0  0  0  0  0  0  0  0  0  0
  1  2  1  1  0  0  0
  1  6  1  0  0  0  0
  1 21  1  0  0  0  0
  3  4  1  1  0  0  0
  3  8  1  0  0  0  0
  3 28  1  0  0  0  0
  5  9  1  0  0  0  0
  5 25  1  0  0  0  0
  5 29  1  1  0  0  0
  6  7  1  1  0  0  0
  6 11  1  0  0  0  0
  8 12  1  0  0  0  0
  9 10  1  6  0  0  0
  9 14  1  0  0  0  0
 11 16  1  0  0  0  0
 12 13  1  6  0  0  0
 12 17  1  0  0  0  0
 14 15  1  1  0  0  0
 14 18  1  0  0  0  0
 15 31  1  0  0  0  0
 16 20  1  0  0  0  0
 17  2  1  6  0  0  0
 17 22  1  0  0  0  0
 18 19  1  1  0  0  0
 18 24  1  0  0  0  0
 18 30  1  0  0  0  0
 20 21  1  0  0  0  0
 20 26  1  6  0  0  0
 22 23  1  6  0  0  0
 22 28  1  0  0  0  0
 24 25  1  0  0  0  0
 26 27  1  0  0  0  0
 28 29  1  1  0  0  0
M  END
>  <CHROM.1>
177.36857982,-172.44173755,-143.34647778,177.00610684,-111.29750840,-69.75024567
-7.31493281,-9.57579872,-21.65363659,1.48838357,-1.08168516,-1.03809168

>  <Name>
ligand

>  <RI>
0

>  <Rbt.Current_Directory>
/home/itssahil/PROJECTS/Mol_Feturizer/New_Systems/rnas/4F8U

>  <Rbt.Executable>
rbdock ($Id: //depot/dev/client3/rdock/2013.1/src/exe/rbdock.cxx#4 $)

>  <Rbt.Library>
libRbt.so (2013.1, Build901 2013/11/27)

>  <Rbt.Parameter_File>
/export/apps/rDock/src/rDock_2013.1_src/data/scripts/dock_solv.prm

>  <Rbt.Receptor>
prm/pocket_docking_8.prm

>  <SCORE>
-13.5186

>  <SCORE.INTER>
-7.14472

>  <SCORE.INTER.CONST>
1

>  <SCORE.INTER.POLAR>
0

>  <SCORE.INTER.ROT>
6

>  <SCORE.INTER.SOLV>
15.7209

>  <SCORE.INTER.VDW>
-17.6034

>  <SCORE.INTER.norm>
-0.230475

>  <SCORE.INTRA>
-6.37392

>  <SCORE.INTRA.DIHEDRAL>
-15.368

>  <SCORE.INTRA.DIHEDRAL.0>
18.77

>  <SCORE.INTRA.POLAR>
0

>  <SCORE.INTRA.POLAR.0>
0

>  <SCORE.INTRA.REPUL>
0

>  <SCORE.INTRA.REPUL.0>
0

>  <SCORE.INTRA.SOLV>
-0.678102

>  <SCORE.INTRA.SOLV.lig_0>
-77.2465

>  <SCORE.INTRA.VDW>
1.64912

>  <SCORE.INTRA.VDW.0>
-4.16072

>  <SCORE.INTRA.norm>
-0.20561

>  <SCORE.RESTR>
0

>  <SCORE.RESTR.CAVITY>
0

>  <SCORE.RESTR.norm>
0

>  <SCORE.SYSTEM>
0

>  <SCORE.SYSTEM.CONST>
0

>  <SCORE.SYSTEM.DIHEDRAL>
0

>  <SCORE.SYSTEM.SOLV>
0

>  <SCORE.SYSTEM.norm>
0

>  <SCORE.heavy>
31

>  <SCORE.norm>
-0.436085

>  <RMSD>
7.904

$$$$
ligand
 OpenBabel11021811493D
libRbt.so/2013.1/901 2013/11/27
 31 33  0  0  0  0  0  0  0  0999 V2000
   -4.8971  -11.8674  -12.0541 C   0  0  2  0  0  0  0  0  0  0  0  0
   -3.8487  -10.9405  -12.3677 O   0  0  0  0  0  0  0  0  0  0  0  0
   -1.8591   -9.5593  -15.8971 C   0  0  2  0  0  0  0  0  0  0  0  0
   -1.1178   -9.5708  -17.1213 N   0  0  0  0  0  0  0  0  0  0  0  0
   -4.1471  -10.3999  -18.4194 C   0  0  2  0  0  0  0  0  0  0  0  0
   -5.2011  -11.6895  -10.5250 C   0  0  2  0  0  0  0  0  0  0  0  0
   -5.5720  -10.3049  -10.2545 N   0  0  0  0  0  0  0  0  0  0  0  0
   -0.9682  -10.1850  -14.7557 C   0  0  0  0  0  0  0  0  0  0  0  0
   -5.1762   -9.4736  -19.1378 C   0  0  2  0  0  0  0  0  0  0  0  0
   -4.6399   -8.1642  -19.2203 O   0  0  0  0  0  0  0  0  0  0  0  0
   -3.9445  -12.1021   -9.6822 C   0  0  0  0  0  0  0  0  0  0  0  0
   -1.7897  -10.1644  -13.3948 C   0  0  2  0  0  0  0  0  0  0  0  0
   -0.9629  -10.7517  -12.3147 N   0  0  0  0  0  0  0  0  0  0  0  0
   -6.5087   -9.4900  -18.2658 C   0  0  1  0  0  0  0  0  0  0  0  0
   -7.5496   -8.5916  -18.8715 N   0  0  0  0  0  0  0  0  0  0  0  0
   -3.3735  -13.4651  -10.1699 C   0  0  0  0  0  0  0  0  0  0  0  0
   -3.1369  -10.9961  -13.5739 C   0  0  2  0  0  0  0  0  0  0  0  0
   -7.0869  -11.0113  -18.2013 C   0  0  1  0  0  0  0  0  0  0  0  0
   -7.3973  -11.5173  -19.4853 O   0  0  0  0  0  0  0  0  0  0  0  0
   -3.6661  -13.9400  -11.3900 C   0  0  2  0  0  0  0  0  0  0  0  0
   -4.5135  -13.2490  -12.3245 O   0  0  0  0  0  0  0  0  0  0  0  0
   -3.9932  -10.3585  -14.7469 C   0  0  2  0  0  0  0  0  0  0  0  0
   -5.1972  -11.1129  -14.9345 O   0  0  0  0  0  0  0  0  0  0  0  0
   -6.0040  -11.9491  -17.5687 C   0  0  0  0  0  0  0  0  0  0  0  0
   -4.6919  -11.8016  -18.3206 O   0  0  0  0  0  0  0  0  0  0  0  0
   -3.1108  -15.2934  -11.8917 C   0  0  0  0  0  0  0  0  0  0  0  0
   -1.7107  -15.4161  -11.5106 N   0  0  0  0  0  0  0  0  0  0  0  0
   -3.1668  -10.3843  -16.0833 C   0  0  1  0  0  0  0  0  0  0  0  0
   -3.9555   -9.8072  -17.0962 O   0  0  0  0  0  0  0  0  0  0  0  0
   -8.3774  -11.2009  -17.3871 C   0  0  0  0  0  0  0  0  0  0  0  0
   -7.6615   -8.6179  -20.3422 C   0  0  0  0  0  0  0  0  0  0  0  0
  1  2  1  1  0  0  0
  1  6  1  0  0  0  0
  1 21  1  0  0  0  0
  3  4  1  6  0  0  0
  3  8  1  0  0  0  0
  3 28  1  0  0  0  0
  5  9  1  0  0  0  0
  5 25  1  0  0  0  0
  5 29  1  1  0  0  0
  6  7  1  6  0  0  0
  6 11  1  0  0  0  0
  8 12  1  0  0  0  0
  9 10  1  1  0  0  0
  9 14  1  0  0  0  0
 11 16  1  0  0  0  0
 12 13  1  1  0  0  0
 12 17  1  0  0  0  0
 14 15  1  6  0  0  0
 14 18  1  0  0  0  0
 15 31  1  0  0  0  0
 16 20  1  0  0  0  0
 17  2  1  1  0  0  0
 17 22  1  0  0  0  0
 18 19  1  6  0  0  0
 18 24  1  0  0  0  0
 18 30  1  0  0  0  0
 20 21  1  0  0  0  0
 20 26  1  1  0  0  0
 22 23  1  6  0  0  0
 22 28  1  0  0  0  0
 24 25  1  0  0  0  0
 26 27  1  0  0  0  0
 28 29  1  6  0  0  0
M  END
>  <CHROM.1>
167.19111310,175.50355355,40.37698146,-162.06979474,-42.18748590,108.17356370
-4.39360397,-11.07544520,-15.12025477,1.22116765,0.28998377,2.03690722

>  <Name>
ligand

>  <RI>
0

>  <Rbt.Current_Directory>
/home/itssahil/PROJECTS/Mol_Feturizer/New_Systems/rnas/4F8U

>  <Rbt.Executable>
rbdock ($Id: //depot/dev/client3/rdock/2013.1/src/exe/rbdock.cxx#4 $)

>  <Rbt.Library>
libRbt.so (2013.1, Build901 2013/11/27)

>  <Rbt.Parameter_File>
/export/apps/rDock/src/rDock_2013.1_src/data/scripts/dock_solv.prm

>  <Rbt.Receptor>
prm/pocket_docking_2.prm

>  <SCORE>
-2.35722

>  <SCORE.INTER>
-2.06162

>  <SCORE.INTER.CONST>
1

>  <SCORE.INTER.POLAR>
0

>  <SCORE.INTER.ROT>
6

>  <SCORE.INTER.SOLV>
22.8739

>  <SCORE.INTER.VDW>
-16.599

>  <SCORE.INTER.norm>
-0.0665038

>  <SCORE.INTRA>
-1.29637

>  <SCORE.INTRA.DIHEDRAL>
-6.38243

>  <SCORE.INTRA.DIHEDRAL.0>
18.77

>  <SCORE.INTRA.POLAR>
0

>  <SCORE.INTRA.POLAR.0>
0

>  <SCORE.INTRA.REPUL>
0

>  <SCORE.INTRA.REPUL.0>
0

>  <SCORE.INTRA.SOLV>
-1.63318

>  <SCORE.INTRA.SOLV.lig_0>
-77.2465

>  <SCORE.INTRA.VDW>
2.71143

>  <SCORE.INTRA.VDW.0>
-4.16072

>  <SCORE.INTRA.norm>
-0.0418185

>  <SCORE.RESTR>
1.00078

>  <SCORE.RESTR.CAVITY>
1.00078

>  <SCORE.RESTR.norm>
0.0322831

>  <SCORE.SYSTEM>
0

>  <SCORE.SYSTEM.CONST>
0

>  <SCORE.SYSTEM.DIHEDRAL>
0

>  <SCORE.SYSTEM.SOLV>
0

>  <SCORE.SYSTEM.norm>
0

>  <SCORE.heavy>
31

>  <SCORE.norm>
-0.0760392

>  <RMSD>
7.922

$$$$
ligand
 OpenBabel11021811493D
libRbt.so/2013.1/901 2013/11/27
 31 33  0  0  0  0  0  0  0  0999 V2000
   -2.5060  -13.5340  -10.2638 C   0  0  2  0  0  0  0  0  0  0  0  0
   -2.5524  -12.3642  -11.0921 O   0  0  0  0  0  0  0  0  0  0  0  0
   -5.2854  -10.0065  -13.3933 C   0  0  2  0  0  0  0  0  0  0  0  0
   -6.3954   -9.6534  -14.2247 N   0  0  0  0  0  0  0  0  0  0  0  0
   -7.9719  -10.0034  -10.9075 C   0  0  2  0  0  0  0  0  0  0  0  0
   -2.2158  -14.7423  -11.2217 C   0  0  2  0  0  0  0  0  0  0  0  0
   -0.9688  -14.5109  -11.9424 N   0  0  0  0  0  0  0  0  0  0  0  0
   -4.3703  -11.0289  -14.1715 C   0  0  0  0  0  0  0  0  0  0  0  0
   -8.8848   -9.8962  -12.1678 C   0  0  2  0  0  0  0  0  0  0  0  0
   -8.4549  -10.8427  -13.1312 O   0  0  0  0  0  0  0  0  0  0  0  0
   -3.4094  -14.9250  -12.2226 C   0  0  0  0  0  0  0  0  0  0  0  0
   -3.1335  -11.4142  -13.2500 C   0  0  2  0  0  0  0  0  0  0  0  0
   -2.2671  -12.3762  -13.9704 N   0  0  0  0  0  0  0  0  0  0  0  0
   -8.7414   -8.4110  -12.7244 C   0  0  1  0  0  0  0  0  0  0  0  0
   -9.5673   -8.2282  -13.9660 N   0  0  0  0  0  0  0  0  0  0  0  0
   -4.7722  -14.8855  -11.4726 C   0  0  0  0  0  0  0  0  0  0  0  0
   -3.6623  -12.0568  -11.8912 C   0  0  2  0  0  0  0  0  0  0  0  0
   -9.2474   -7.3620  -11.5857 C   0  0  1  0  0  0  0  0  0  0  0  0
  -10.6021   -7.5697  -11.2356 O   0  0  0  0  0  0  0  0  0  0  0  0
   -4.8739  -14.3370  -10.2526 C   0  0  2  0  0  0  0  0  0  0  0  0
   -3.7597  -13.7577   -9.5514 O   0  0  0  0  0  0  0  0  0  0  0  0
   -4.6008  -11.0148  -11.1503 C   0  0  2  0  0  0  0  0  0  0  0  0
   -5.1028  -11.5903   -9.9376 O   0  0  0  0  0  0  0  0  0  0  0  0
   -8.3866   -7.5498  -10.2911 C   0  0  0  0  0  0  0  0  0  0  0  0
   -8.4095   -9.0078   -9.8640 O   0  0  0  0  0  0  0  0  0  0  0  0
   -6.2186  -14.2906   -9.4902 C   0  0  0  0  0  0  0  0  0  0  0  0
   -7.0447  -13.2176  -10.0254 N   0  0  0  0  0  0  0  0  0  0  0  0
   -5.8161  -10.6428  -12.0746 C   0  0  1  0  0  0  0  0  0  0  0  0
   -6.6206   -9.7151  -11.3867 O   0  0  0  0  0  0  0  0  0  0  0  0
   -9.1688   -5.8744  -11.9666 C   0  0  0  0  0  0  0  0  0  0  0  0
   -9.1139   -8.9552  -15.1669 C   0  0  0  0  0  0  0  0  0  0  0  0
  1  2  1  6  0  0  0
  1  6  1  0  0  0  0
  1 21  1  0  0  0  0
  3  4  1  6  0  0  0
  3  8  1  0  0  0  0
  3 28  1  0  0  0  0
  5  9  1  0  0  0  0
  5 25  1  0  0  0  0
  5 29  1  6  0  0  0
  6  7  1  6  0  0  0
  6 11  1  0  0  0  0
  8 12  1  0  0  0  0
  9 10  1  6  0  0  0
  9 14  1  0  0  0  0
 11 16  1  0  0  0  0
 12 13  1  6  0  0  0
 12 17  1  0  0  0  0
 14 15  1  6  0  0  0
 14 18  1  0  0  0  0
 15 31  1  0  0  0  0
 16 20  1  0  0  0  0
 17  2  1  1  0  0  0
 17 22  1  0  0  0  0
 18 19  1  1  0  0  0
 18 24  1  0  0  0  0
 18 30  1  0  0  0  0
 20 21  1  0  0  0  0
 20 26  1  1  0  0  0
 22 23  1  1  0  0  0
 22 28  1  0  0  0  0
 24 25  1  0  0  0  0
 26 27  1  0  0  0  0
 28 29  1  1  0  0  0
M  END
>  <CHROM.1>
76.96887453,-78.35223164,-68.74593572,-143.31578835,-78.04970978,128.27528515
-5.97448219,-11.06737437,-11.78733457,0.47507345,-0.62510462,2.13588485

>  <Name>
ligand

>  <RI>
0

>  <Rbt.Current_Directory>
/home/itssahil/PROJECTS/Mol_Feturizer/New_Systems/rnas/4F8U

>  <Rbt.Executable>
rbdock ($Id: //depot/dev/client3/rdock/2013.1/src/exe/rbdock.cxx#4 $)

>  <Rbt.Library>
libRbt.so (2013.1, Build901 2013/11/27)

>  <Rbt.Parameter_File>
/export/apps/rDock/src/rDock_2013.1_src/data/scripts/dock_solv.prm

>  <Rbt.Receptor>
prm/blind_docking_40.prm

>  <SCORE>
29.4528

>  <SCORE.INTER>
9.51424

>  <SCORE.INTER.CONST>
1

>  <SCORE.INTER.POLAR>
0

>  <SCORE.INTER.ROT>
6

>  <SCORE.INTER.SOLV>
13.8142

>  <SCORE.INTER.VDW>
-5.86192

>  <SCORE.INTER.norm>
0.306911

>  <SCORE.INTRA>
7.7073

>  <SCORE.INTRA.DIHEDRAL>
-0.93909

>  <SCORE.INTRA.DIHEDRAL.0>
18.77

>  <SCORE.INTRA.POLAR>
0

>  <SCORE.INTRA.POLAR.0>
0

>  <SCORE.INTRA.REPUL>
0

>  <SCORE.INTRA.REPUL.0>
0

>  <SCORE.INTRA.SOLV>
10.5111

>  <SCORE.INTRA.SOLV.lig_0>
-77.2465

>  <SCORE.INTRA.VDW>
2.92131

>  <SCORE.INTRA.VDW.0>
-4.16072

>  <SCORE.INTRA.norm>
0.248623

>  <SCORE.RESTR>
12.2312

>  <SCORE.RESTR.CAVITY>
12.2312

>  <SCORE.RESTR.norm>
0.394556

>  <SCORE.SYSTEM>
0

>  <SCORE.SYSTEM.CONST>
0

>  <SCORE.SYSTEM.DIHEDRAL>
0

>  <SCORE.SYSTEM.SOLV>
0

>  <SCORE.SYSTEM.norm>
0

>  <SCORE.heavy>
31

>  <SCORE.norm>
0.95009

>  <RMSD>
7.930

$$$$
ligand
 OpenBabel11021811493D
libRbt.so/2013.1/901 2013/11/27
 31 33  0  0  0  0  0  0  0  0999 V2000
   -8.5903   -8.9368  -24.5277 C   0  0  2  0  0  0  0  0  0  0  0  0
   -7.7587   -8.0472  -23.7704 O   0  0  0  0  0  0  0  0  0  0  0  0
   -6.3926   -8.2386  -19.7182 C   0  0  2  0  0  0  0  0  0  0  0  0
   -6.3930   -8.1712  -18.2887 N   0  0  0  0  0  0  0  0  0  0  0  0
   -7.9790  -11.7181  -19.6388 C   0  0  2  0  0  0  0  0  0  0  0  0
   -8.2223   -8.7089  -26.0359 C   0  0  2  0  0  0  0  0  0  0  0  0
   -6.7991   -8.9567  -26.2384 N   0  0  0  0  0  0  0  0  0  0  0  0
   -6.7650   -6.8188  -20.2956 C   0  0  0  0  0  0  0  0  0  0  0  0
   -7.4478  -12.6267  -18.4874 C   0  0  2  0  0  0  0  0  0  0  0  0
   -7.4842  -11.8997  -17.2713 O   0  0  0  0  0  0  0  0  0  0  0  0
   -8.5964   -7.2456  -26.4585 C   0  0  0  0  0  0  0  0  0  0  0  0
   -6.7565   -6.8928  -21.8836 C   0  0  2  0  0  0  0  0  0  0  0  0
   -7.1069   -5.5641  -22.4377 N   0  0  0  0  0  0  0  0  0  0  0  0
   -5.9549  -13.0338  -18.8637 C   0  0  1  0  0  0  0  0  0  0  0  0
   -5.3507  -13.8881  -17.7856 N   0  0  0  0  0  0  0  0  0  0  0  0
  -10.0330   -6.8821  -25.9839 C   0  0  0  0  0  0  0  0  0  0  0  0
   -7.8055   -7.9889  -22.3707 C   0  0  2  0  0  0  0  0  0  0  0  0
   -5.9644  -13.8662  -20.2637 C   0  0  1  0  0  0  0  0  0  0  0  0
   -6.7319  -15.0510  -20.1730 O   0  0  0  0  0  0  0  0  0  0  0  0
  -10.6306   -7.5707  -24.9998 C   0  0  2  0  0  0  0  0  0  0  0  0
  -10.0112   -8.6770  -24.3207 O   0  0  0  0  0  0  0  0  0  0  0  0
   -7.4186   -9.3958  -21.7490 C   0  0  2  0  0  0  0  0  0  0  0  0
   -8.3693  -10.3862  -22.1602 O   0  0  0  0  0  0  0  0  0  0  0  0
   -6.5923  -12.9769  -21.3893 C   0  0  0  0  0  0  0  0  0  0  0  0
   -7.9537  -12.4689  -20.9454 O   0  0  0  0  0  0  0  0  0  0  0  0
  -12.0586   -7.2264  -24.5160 C   0  0  0  0  0  0  0  0  0  0  0  0
  -12.9787   -8.2767  -24.9292 N   0  0  0  0  0  0  0  0  0  0  0  0
   -7.4293   -9.3050  -20.1802 C   0  0  1  0  0  0  0  0  0  0  0  0
   -7.0770  -10.5673  -19.6669 O   0  0  0  0  0  0  0  0  0  0  0  0
   -4.5901  -14.3322  -20.7724 C   0  0  0  0  0  0  0  0  0  0  0  0
   -4.2443  -13.2871  -17.0170 C   0  0  0  0  0  0  0  0  0  0  0  0
  1  2  1  1  0  0  0
  1  6  1  0  0  0  0
  1 21  1  0  0  0  0
  3  4  1  1  0  0  0
  3  8  1  0  0  0  0
  3 28  1  0  0  0  0
  5  9  1  0  0  0  0
  5 25  1  0  0  0  0
  5 29  1  6  0  0  0
  6  7  1  1  0  0  0
  6 11  1  0  0  0  0
  8 12  1  0  0  0  0
  9 10  1  1  0  0  0
  9 14  1  0  0  0  0
 11 16  1  0  0  0  0
 12 13  1  6  0  0  0
 12 17  1  0  0  0  0
 14 15  1  1  0  0  0
 14 18  1  0  0  0  0
 15 31  1  0  0  0  0
 16 20  1  0  0  0  0
 17  2  1  6  0  0  0
 17 22  1  0  0  0  0
 18 19  1  1  0  0  0
 18 24  1  0  0  0  0
 18 30  1  0  0  0  0
 20 21  1  0  0  0  0
 20 26  1  6  0  0  0
 22 23  1  1  0  0  0
 22 28  1  0  0  0  0
 24 25  1  0  0  0  0
 26 27  1  0  0  0  0
 28 29  1  1  0  0  0
M  END
>  <CHROM.1>
-179.26992968,-155.81216648,-112.38355290,-179.75783996,109.50655054,165.12632236
-7.66080253,-10.01296458,-21.69208364,2.57011690,-1.08139485,0.10203481

>  <Name>
ligand

>  <RI>
0

>  <Rbt.Current_Directory>
/home/itssahil/PROJECTS/Mol_Feturizer/New_Systems/rnas/4F8U

>  <Rbt.Executable>
rbdock ($Id: //depot/dev/client3/rdock/2013.1/src/exe/rbdock.cxx#4 $)

>  <Rbt.Library>
libRbt.so (2013.1, Build901 2013/11/27)

>  <Rbt.Parameter_File>
/export/apps/rDock/src/rDock_2013.1_src/data/scripts/dock_solv.prm

>  <Rbt.Receptor>
prm/pocket_docking_8.prm

>  <SCORE>
-16.4711

>  <SCORE.INTER>
-10.5439

>  <SCORE.INTER.CONST>
1

>  <SCORE.INTER.POLAR>
0

>  <SCORE.INTER.ROT>
6

>  <SCORE.INTER.SOLV>
16.4051

>  <SCORE.INTER.VDW>
-20.0976

>  <SCORE.INTER.norm>
-0.340125

>  <SCORE.INTRA>
-5.92719

>  <SCORE.INTRA.DIHEDRAL>
-12.2299

>  <SCORE.INTRA.DIHEDRAL.0>
18.77

>  <SCORE.INTRA.POLAR>
0

>  <SCORE.INTRA.POLAR.0>
0

>  <SCORE.INTRA.REPUL>
0

>  <SCORE.INTRA.REPUL.0>
0

>  <SCORE.INTRA.SOLV>
-2.95859

>  <SCORE.INTRA.SOLV.lig_0>
-77.2465

>  <SCORE.INTRA.VDW>
1.66703

>  <SCORE.INTRA.VDW.0>
-4.16072

>  <SCORE.INTRA.norm>
-0.1912

>  <SCORE.RESTR>
0

>  <SCORE.RESTR.CAVITY>
0

>  <SCORE.RESTR.norm>
0

>  <SCORE.SYSTEM>
0

>  <SCORE.SYSTEM.CONST>
0

>  <SCORE.SYSTEM.DIHEDRAL>
0

>  <SCORE.SYSTEM.SOLV>
0

>  <SCORE.SYSTEM.norm>
0

>  <SCORE.heavy>
31

>  <SCORE.norm>
-0.531325

>  <RMSD>
7.945

$$$$
ligand
 OpenBabel11021811493D
libRbt.so/2013.1/901 2013/11/27
 31 33  0  0  0  0  0  0  0  0999 V2000
   -7.4085  -13.0621  -19.4818 C   0  0  2  0  0  0  0  0  0  0  0  0
   -6.1226  -12.9059  -18.8666 O   0  0  0  0  0  0  0  0  0  0  0  0
   -6.5488   -9.0701  -17.0150 C   0  0  2  0  0  0  0  0  0  0  0  0
   -6.2588   -7.9124  -16.2253 N   0  0  0  0  0  0  0  0  0  0  0  0
   -6.0192   -8.0777  -20.3137 C   0  0  2  0  0  0  0  0  0  0  0  0
   -7.2153  -14.0852  -20.6556 C   0  0  2  0  0  0  0  0  0  0  0  0
   -6.6831  -15.3390  -20.1335 N   0  0  0  0  0  0  0  0  0  0  0  0
   -6.5601  -10.3378  -16.0766 C   0  0  0  0  0  0  0  0  0  0  0  0
   -5.0649   -7.1547  -21.1327 C   0  0  2  0  0  0  0  0  0  0  0  0
   -3.7553   -7.6955  -21.0956 O   0  0  0  0  0  0  0  0  0  0  0  0
   -6.2512  -13.4797  -21.7344 C   0  0  0  0  0  0  0  0  0  0  0  0
   -6.8901  -11.6220  -16.9536 C   0  0  2  0  0  0  0  0  0  0  0  0
   -6.9017  -12.8203  -16.0823 N   0  0  0  0  0  0  0  0  0  0  0  0
   -5.1070   -5.7160  -20.4512 C   0  0  1  0  0  0  0  0  0  0  0  0
   -4.1845   -4.7660  -21.1611 N   0  0  0  0  0  0  0  0  0  0  0  0
   -6.6590  -12.0195  -22.0846 C   0  0  0  0  0  0  0  0  0  0  0  0
   -5.7926  -11.7813  -18.0978 C   0  0  2  0  0  0  0  0  0  0  0  0
   -6.6276   -5.1364  -20.5192 C   0  0  1  0  0  0  0  0  0  0  0  0
   -7.0876   -5.0042  -21.8503 O   0  0  0  0  0  0  0  0  0  0  0  0
   -7.4272  -11.2985  -21.2541 C   0  0  2  0  0  0  0  0  0  0  0  0
   -7.9289  -11.8029  -20.0040 O   0  0  0  0  0  0  0  0  0  0  0  0
   -5.7883  -10.4790  -19.0032 C   0  0  2  0  0  0  0  0  0  0  0  0
   -4.7878  -10.5996  -20.0222 O   0  0  0  0  0  0  0  0  0  0  0  0
   -7.5906   -6.1243  -19.7783 C   0  0  0  0  0  0  0  0  0  0  0  0
   -7.4216   -7.5264  -20.3390 O   0  0  0  0  0  0  0  0  0  0  0  0
   -7.8453   -9.8469  -21.5856 C   0  0  0  0  0  0  0  0  0  0  0  0
   -8.6451   -9.8369  -22.8024 N   0  0  0  0  0  0  0  0  0  0  0  0
   -5.4631   -9.2194  -18.1216 C   0  0  1  0  0  0  0  0  0  0  0  0
   -5.4735   -8.0867  -18.9569 O   0  0  0  0  0  0  0  0  0  0  0  0
   -6.8409   -3.7473  -19.8952 C   0  0  0  0  0  0  0  0  0  0  0  0
   -3.5454   -3.7292  -20.3288 C   0  0  0  0  0  0  0  0  0  0  0  0
  1  2  1  6  0  0  0
  1  6  1  0  0  0  0
  1 21  1  0  0  0  0
  3  4  1  1  0  0  0
  3  8  1  0  0  0  0
  3 28  1  0  0  0  0
  5  9  1  0  0  0  0
  5 25  1  0  0  0  0
  5 29  1  1  0  0  0
  6  7  1  1  0  0  0
  6 11  1  0  0  0  0
  8 12  1  0  0  0  0
  9 10  1  1  0  0  0
  9 14  1  0  0  0  0
 11 16  1  0  0  0  0
 12 13  1  1  0  0  0
 12 17  1  0  0  0  0
 14 15  1  6  0  0  0
 14 18  1  0  0  0  0
 15 31  1  0  0  0  0
 16 20  1  0  0  0  0
 17  2  1  6  0  0  0
 17 22  1  0  0  0  0
 18 19  1  6  0  0  0
 18 24  1  0  0  0  0
 18 30  1  0  0  0  0
 20 21  1  0  0  0  0
 20 26  1  6  0  0  0
 22 23  1  6  0  0  0
 22 28  1  0  0  0  0
 24 25  1  0  0  0  0
 26 27  1  0  0  0  0
 28 29  1  6  0  0  0
M  END
>  <CHROM.1>
158.35663132,-142.68775304,-147.65383384,54.62358844,62.09595370,-105.53725143
-6.30688147,-9.32892725,-19.76491725,2.34339830,1.35186934,2.24462142

>  <Name>
ligand

>  <RI>
0

>  <Rbt.Current_Directory>
/home/itssahil/PROJECTS/Mol_Feturizer/New_Systems/rnas/4F8U

>  <Rbt.Executable>
rbdock ($Id: //depot/dev/client3/rdock/2013.1/src/exe/rbdock.cxx#4 $)

>  <Rbt.Library>
libRbt.so (2013.1, Build901 2013/11/27)

>  <Rbt.Parameter_File>
/export/apps/rDock/src/rDock_2013.1_src/data/scripts/dock_solv.prm

>  <Rbt.Receptor>
prm/blind_docking_60.prm

>  <SCORE>
82.0716

>  <SCORE.INTER>
60.4721

>  <SCORE.INTER.CONST>
1

>  <SCORE.INTER.POLAR>
0

>  <SCORE.INTER.ROT>
6

>  <SCORE.INTER.SOLV>
29.4115

>  <SCORE.INTER.VDW>
22.9109

>  <SCORE.INTER.norm>
1.95071

>  <SCORE.INTRA>
4.69814

>  <SCORE.INTRA.DIHEDRAL>
-1.12579

>  <SCORE.INTRA.DIHEDRAL.0>
18.77

>  <SCORE.INTRA.POLAR>
0

>  <SCORE.INTRA.POLAR.0>
0

>  <SCORE.INTRA.REPUL>
0

>  <SCORE.INTRA.REPUL.0>
0

>  <SCORE.INTRA.SOLV>
-0.176361

>  <SCORE.INTRA.SOLV.lig_0>
-77.2465

>  <SCORE.INTRA.VDW>
5.34921

>  <SCORE.INTRA.VDW.0>
-4.16072

>  <SCORE.INTRA.norm>
0.151553

>  <SCORE.RESTR>
16.9013

>  <SCORE.RESTR.CAVITY>
16.9013

>  <SCORE.RESTR.norm>
0.545204

>  <SCORE.SYSTEM>
0

>  <SCORE.SYSTEM.CONST>
0

>  <SCORE.SYSTEM.DIHEDRAL>
0

>  <SCORE.SYSTEM.SOLV>
0

>  <SCORE.SYSTEM.norm>
0

>  <SCORE.heavy>
31

>  <SCORE.norm>
2.64747

>  <RMSD>
8.010

$$$$
ligand
 OpenBabel11021811493D
libRbt.so/2013.1/901 2013/11/27
 31 33  0  0  0  0  0  0  0  0999 V2000
    0.4651  -11.7081  -19.0331 C   0  0  2  0  0  0  0  0  0  0  0  0
    0.1251  -11.8227  -17.6447 O   0  0  0  0  0  0  0  0  0  0  0  0
   -3.3423  -10.5406  -15.4867 C   0  0  2  0  0  0  0  0  0  0  0  0
   -4.2812   -9.6880  -14.8237 N   0  0  0  0  0  0  0  0  0  0  0  0
   -5.6630   -9.4815  -17.2139 C   0  0  2  0  0  0  0  0  0  0  0  0
    1.5618  -12.7954  -19.3105 C   0  0  2  0  0  0  0  0  0  0  0  0
    1.0463  -14.1149  -18.9625 N   0  0  0  0  0  0  0  0  0  0  0  0
   -1.9473  -10.4260  -14.7594 C   0  0  0  0  0  0  0  0  0  0  0  0
   -6.8567  -10.2455  -17.8656 C   0  0  2  0  0  0  0  0  0  0  0  0
   -6.8751  -11.5759  -17.3772 O   0  0  0  0  0  0  0  0  0  0  0  0
    2.8542  -12.4690  -18.4840 C   0  0  0  0  0  0  0  0  0  0  0  0
   -0.9074  -11.3795  -15.4919 C   0  0  2  0  0  0  0  0  0  0  0  0
    0.4082  -11.2788  -14.8179 N   0  0  0  0  0  0  0  0  0  0  0  0
   -6.6246  -10.2196  -19.4409 C   0  0  1  0  0  0  0  0  0  0  0  0
   -7.7181  -10.9669  -20.1501 N   0  0  0  0  0  0  0  0  0  0  0  0
    3.2435  -10.9698  -18.6335 C   0  0  0  0  0  0  0  0  0  0  0  0
   -0.7790  -10.9516  -17.0214 C   0  0  2  0  0  0  0  0  0  0  0  0
   -6.6127   -8.6739  -19.9543 C   0  0  1  0  0  0  0  0  0  0  0  0
   -7.8329   -8.0130  -19.6804 O   0  0  0  0  0  0  0  0  0  0  0  0
    2.3455  -10.0601  -19.0407 C   0  0  2  0  0  0  0  0  0  0  0  0
    0.9835  -10.3860  -19.3686 O   0  0  0  0  0  0  0  0  0  0  0  0
   -2.2028  -11.0503  -17.7133 C   0  0  2  0  0  0  0  0  0  0  0  0
   -2.1054  -10.6443  -19.0843 O   0  0  0  0  0  0  0  0  0  0  0  0
   -5.4724   -7.8935  -19.2174 C   0  0  0  0  0  0  0  0  0  0  0  0
   -5.6216   -8.0605  -17.7146 O   0  0  0  0  0  0  0  0  0  0  0  0
    2.7138   -8.5663  -19.1980 C   0  0  0  0  0  0  0  0  0  0  0  0
    4.0066   -8.3158  -18.5765 N   0  0  0  0  0  0  0  0  0  0  0  0
   -3.2188  -10.1045  -16.9766 C   0  0  1  0  0  0  0  0  0  0  0  0
   -4.4680  -10.2235  -17.6142 O   0  0  0  0  0  0  0  0  0  0  0  0
   -6.3929   -8.4735  -21.4629 C   0  0  0  0  0  0  0  0  0  0  0  0
   -7.2949  -11.8740  -21.2338 C   0  0  0  0  0  0  0  0  0  0  0  0
  1  2  1  1  0  0  0
  1  6  1  0  0  0  0
  1 21  1  0  0  0  0
  3  4  1  1  0  0  0
  3  8  1  0  0  0  0
  3 28  1  0  0  0  0
  5  9  1  0  0  0  0
  5 25  1  0  0  0  0
  5 29  1  6  0  0  0
  6  7  1  1  0  0  0
  6 11  1  0  0  0  0
  8 12  1  0  0  0  0
  9 10  1  1  0  0  0
  9 14  1  0  0  0  0
 11 16  1  0  0  0  0
 12 13  1  1  0  0  0
 12 17  1  0  0  0  0
 14 15  1  6  0  0  0
 14 18  1  0  0  0  0
 15 31  1  0  0  0  0
 16 20  1  0  0  0  0
 17  2  1  6  0  0  0
 17 22  1  0  0  0  0
 18 19  1  1  0  0  0
 18 24  1  0  0  0  0
 18 30  1  0  0  0  0
 20 21  1  0  0  0  0
 20 26  1  6  0  0  0
 22 23  1  6  0  0  0
 22 28  1  0  0  0  0
 24 25  1  0  0  0  0
 26 27  1  0  0  0  0
 28 29  1  6  0  0  0
M  END
>  <CHROM.1>
176.42646103,-162.44295780,-135.87727092,-179.98285200,-12.24849672,61.36301122
-2.51075725,-10.40629268,-18.19723195,-0.11412407,0.14255353,-1.42984582

>  <Name>
ligand

>  <RI>
0

>  <Rbt.Current_Directory>
/home/itssahil/PROJECTS/Mol_Feturizer/New_Systems/rnas/4F8U

>  <Rbt.Executable>
rbdock ($Id: //depot/dev/client3/rdock/2013.1/src/exe/rbdock.cxx#4 $)

>  <Rbt.Library>
libRbt.so (2013.1, Build901 2013/11/27)

>  <Rbt.Parameter_File>
/export/apps/rDock/src/rDock_2013.1_src/data/scripts/dock_solv.prm

>  <Rbt.Receptor>
prm/pocket_docking_7.prm

>  <SCORE>
-12.1736

>  <SCORE.INTER>
-6.57519

>  <SCORE.INTER.CONST>
1

>  <SCORE.INTER.POLAR>
0

>  <SCORE.INTER.ROT>
6

>  <SCORE.INTER.SOLV>
15.3186

>  <SCORE.INTER.VDW>
-17.0897

>  <SCORE.INTER.norm>
-0.212103

>  <SCORE.INTRA>
-5.5984

>  <SCORE.INTRA.DIHEDRAL>
-14.4006

>  <SCORE.INTRA.DIHEDRAL.0>
18.77

>  <SCORE.INTRA.POLAR>
0

>  <SCORE.INTRA.POLAR.0>
0

>  <SCORE.INTRA.REPUL>
0

>  <SCORE.INTRA.REPUL.0>
0

>  <SCORE.INTRA.SOLV>
-1.74993

>  <SCORE.INTRA.SOLV.lig_0>
-77.2465

>  <SCORE.INTRA.VDW>
2.47688

>  <SCORE.INTRA.VDW.0>
-4.16072

>  <SCORE.INTRA.norm>
-0.180594

>  <SCORE.RESTR>
0

>  <SCORE.RESTR.CAVITY>
0

>  <SCORE.RESTR.norm>
0

>  <SCORE.SYSTEM>
0

>  <SCORE.SYSTEM.CONST>
0

>  <SCORE.SYSTEM.DIHEDRAL>
0

>  <SCORE.SYSTEM.SOLV>
0

>  <SCORE.SYSTEM.norm>
0

>  <SCORE.heavy>
31

>  <SCORE.norm>
-0.392696

>  <RMSD>
8.010

$$$$
ligand
 OpenBabel11021811493D
libRbt.so/2013.1/901 2013/11/27
 31 33  0  0  0  0  0  0  0  0999 V2000
   -7.5158  -11.3315  -24.4970 C   0  0  2  0  0  0  0  0  0  0  0  0
   -6.3682  -11.4488  -23.6450 O   0  0  0  0  0  0  0  0  0  0  0  0
   -8.1520  -11.3758  -19.7545 C   0  0  2  0  0  0  0  0  0  0  0  0
   -8.2857  -11.2977  -18.3318 N   0  0  0  0  0  0  0  0  0  0  0  0
   -8.0469   -7.9772  -18.9304 C   0  0  2  0  0  0  0  0  0  0  0  0
   -6.9677  -11.2171  -25.9628 C   0  0  2  0  0  0  0  0  0  0  0  0
   -6.1495  -12.3836  -26.2751 N   0  0  0  0  0  0  0  0  0  0  0  0
   -7.2365  -12.6090  -20.1136 C   0  0  0  0  0  0  0  0  0  0  0  0
   -6.9066   -7.0975  -19.5295 C   0  0  2  0  0  0  0  0  0  0  0  0
   -7.3723   -6.4864  -20.7205 O   0  0  0  0  0  0  0  0  0  0  0  0
   -6.1342   -9.8975  -26.1166 C   0  0  0  0  0  0  0  0  0  0  0  0
   -7.0951  -12.6994  -21.6945 C   0  0  2  0  0  0  0  0  0  0  0  0
   -6.2351  -13.8541  -22.0441 N   0  0  0  0  0  0  0  0  0  0  0  0
   -5.6774   -8.0650  -19.8282 C   0  0  1  0  0  0  0  0  0  0  0  0
   -4.5387   -7.3011  -20.4423 N   0  0  0  0  0  0  0  0  0  0  0  0
   -6.9019   -8.6842  -25.5164 C   0  0  0  0  0  0  0  0  0  0  0  0
   -6.4588  -11.3483  -22.2498 C   0  0  2  0  0  0  0  0  0  0  0  0
   -5.1776   -8.7409  -18.4332 C   0  0  1  0  0  0  0  0  0  0  0  0
   -4.7540   -7.7715  -17.4941 O   0  0  0  0  0  0  0  0  0  0  0  0
   -7.8944   -8.8636  -24.6318 C   0  0  2  0  0  0  0  0  0  0  0  0
   -8.3241  -10.1592  -24.1784 O   0  0  0  0  0  0  0  0  0  0  0  0
   -7.3880  -10.1279  -21.8462 C   0  0  2  0  0  0  0  0  0  0  0  0
   -6.8136   -8.9031  -22.3193 O   0  0  0  0  0  0  0  0  0  0  0  0
   -6.3626   -9.5391  -17.7922 C   0  0  0  0  0  0  0  0  0  0  0  0
   -7.5787   -8.6379  -17.6593 O   0  0  0  0  0  0  0  0  0  0  0  0
   -8.6707   -7.6710  -24.0263 C   0  0  0  0  0  0  0  0  0  0  0  0
   -7.7286   -6.7006  -23.4869 N   0  0  0  0  0  0  0  0  0  0  0  0
   -7.5193  -10.0541  -20.2820 C   0  0  1  0  0  0  0  0  0  0  0  0
   -8.3529   -8.9654  -19.9642 O   0  0  0  0  0  0  0  0  0  0  0  0
   -3.9915   -9.7126  -18.5497 C   0  0  0  0  0  0  0  0  0  0  0  0
   -4.5798   -7.1296  -21.9070 C   0  0  0  0  0  0  0  0  0  0  0  0
  1  2  1  1  0  0  0
  1  6  1  0  0  0  0
  1 21  1  0  0  0  0
  3  4  1  1  0  0  0
  3  8  1  0  0  0  0
  3 28  1  0  0  0  0
  5  9  1  0  0  0  0
  5 25  1  0  0  0  0
  5 29  1  6  0  0  0
  6  7  1  1  0  0  0
  6 11  1  0  0  0  0
  8 12  1  0  0  0  0
  9 10  1  6  0  0  0
  9 14  1  0  0  0  0
 11 16  1  0  0  0  0
 12 13  1  1  0  0  0
 12 17  1  0  0  0  0
 14 15  1  1  0  0  0
 14 18  1  0  0  0  0
 15 31  1  0  0  0  0
 16 20  1  0  0  0  0
 17  2  1  6  0  0  0
 17 22  1  0  0  0  0
 18 19  1  1  0  0  0
 18 24  1  0  0  0  0
 18 30  1  0  0  0  0
 20 21  1  0  0  0  0
 20 26  1  6  0  0  0
 22 23  1  1  0  0  0
 22 28  1  0  0  0  0
 24 25  1  0  0  0  0
 26 27  1  0  0  0  0
 28 29  1  6  0  0  0
M  END
>  <CHROM.1>
169.14183275,73.29799267,-85.72811873,74.87648025,-51.44143133,107.10654126
-6.80580617,-9.58054366,-21.53675106,2.80247077,-1.45355911,-0.65211300

>  <Name>
ligand

>  <RI>
0

>  <Rbt.Current_Directory>
/home/itssahil/PROJECTS/Mol_Feturizer/New_Systems/rnas/4F8U

>  <Rbt.Executable>
rbdock ($Id: //depot/dev/client3/rdock/2013.1/src/exe/rbdock.cxx#4 $)

>  <Rbt.Library>
libRbt.so (2013.1, Build901 2013/11/27)

>  <Rbt.Parameter_File>
/export/apps/rDock/src/rDock_2013.1_src/data/scripts/dock_solv.prm

>  <Rbt.Receptor>
prm/blind_docking_40.prm

>  <SCORE>
34.633

>  <SCORE.INTER>
19.1493

>  <SCORE.INTER.CONST>
1

>  <SCORE.INTER.POLAR>
0

>  <SCORE.INTER.ROT>
6

>  <SCORE.INTER.SOLV>
39.4381

>  <SCORE.INTER.VDW>
-7.97979

>  <SCORE.INTER.norm>
0.617721

>  <SCORE.INTRA>
8.75434

>  <SCORE.INTRA.DIHEDRAL>
-5.94419

>  <SCORE.INTRA.DIHEDRAL.0>
18.77

>  <SCORE.INTRA.POLAR>
0

>  <SCORE.INTRA.POLAR.0>
0

>  <SCORE.INTRA.REPUL>
0

>  <SCORE.INTRA.REPUL.0>
0

>  <SCORE.INTRA.SOLV>
6.45355

>  <SCORE.INTRA.SOLV.lig_0>
-77.2465

>  <SCORE.INTRA.VDW>
8.49966

>  <SCORE.INTRA.VDW.0>
-4.16072

>  <SCORE.INTRA.norm>
0.282398

>  <SCORE.RESTR>
6.72928

>  <SCORE.RESTR.CAVITY>
6.72928

>  <SCORE.RESTR.norm>
0.217074

>  <SCORE.SYSTEM>
0

>  <SCORE.SYSTEM.CONST>
0

>  <SCORE.SYSTEM.DIHEDRAL>
0

>  <SCORE.SYSTEM.SOLV>
0

>  <SCORE.SYSTEM.norm>
0

>  <SCORE.heavy>
31

>  <SCORE.norm>
1.11719

>  <RMSD>
8.021

$$$$
ligand
 OpenBabel11021811493D
libRbt.so/2013.1/901 2013/11/27
 31 33  0  0  0  0  0  0  0  0999 V2000
   -2.2146  -13.2084  -14.0743 C   0  0  2  0  0  0  0  0  0  0  0  0
   -2.1881  -11.8301  -14.4694 O   0  0  0  0  0  0  0  0  0  0  0  0
   -4.1911   -9.6371  -17.5520 C   0  0  2  0  0  0  0  0  0  0  0  0
   -4.5655   -9.1717  -18.8525 N   0  0  0  0  0  0  0  0  0  0  0  0
   -6.5906  -11.0059  -18.8386 C   0  0  2  0  0  0  0  0  0  0  0  0
   -1.8962  -13.2337  -12.5381 C   0  0  2  0  0  0  0  0  0  0  0  0
   -2.8718  -12.4215  -11.8195 N   0  0  0  0  0  0  0  0  0  0  0  0
   -2.6577   -9.3436  -17.3273 C   0  0  0  0  0  0  0  0  0  0  0  0
   -8.0601  -11.4602  -18.5791 C   0  0  2  0  0  0  0  0  0  0  0  0
   -8.5442  -10.8142  -17.4141 O   0  0  0  0  0  0  0  0  0  0  0  0
   -0.4414  -12.7035  -12.2885 C   0  0  0  0  0  0  0  0  0  0  0  0
   -2.2448   -9.8538  -15.8794 C   0  0  2  0  0  0  0  0  0  0  0  0
   -0.8048   -9.5848  -15.6575 N   0  0  0  0  0  0  0  0  0  0  0  0
   -8.0337  -13.0407  -18.3852 C   0  0  1  0  0  0  0  0  0  0  0  0
   -9.4127  -13.5622  -18.0956 N   0  0  0  0  0  0  0  0  0  0  0  0
    0.5677  -13.3741  -13.2649 C   0  0  0  0  0  0  0  0  0  0  0  0
   -2.5400  -11.4152  -15.7613 C   0  0  2  0  0  0  0  0  0  0  0  0
   -7.4732  -13.7371  -19.7467 C   0  0  1  0  0  0  0  0  0  0  0  0
   -8.2870  -13.4467  -20.8667 O   0  0  0  0  0  0  0  0  0  0  0  0
    0.1494  -13.9555  -14.3992 C   0  0  2  0  0  0  0  0  0  0  0  0
   -1.2320  -14.0100  -14.7962 O   0  0  0  0  0  0  0  0  0  0  0  0
   -4.0825  -11.6769  -16.0212 C   0  0  2  0  0  0  0  0  0  0  0  0
   -4.3567  -13.0814  -15.9418 O   0  0  0  0  0  0  0  0  0  0  0  0
   -6.0352  -13.1961  -20.0495 C   0  0  0  0  0  0  0  0  0  0  0  0
   -6.0511  -11.6770  -20.0755 O   0  0  0  0  0  0  0  0  0  0  0  0
    1.1363  -14.6294  -15.3808 C   0  0  0  0  0  0  0  0  0  0  0  0
    1.1253  -13.9144  -16.6493 N   0  0  0  0  0  0  0  0  0  0  0  0
   -4.4746  -11.1653  -17.4544 C   0  0  1  0  0  0  0  0  0  0  0  0
   -5.8476  -11.4095  -17.6453 O   0  0  0  0  0  0  0  0  0  0  0  0
   -7.3806  -15.2718  -19.7220 C   0  0  0  0  0  0  0  0  0  0  0  0
   -9.7601  -13.7396  -16.6729 C   0  0  0  0  0  0  0  0  0  0  0  0
  1  2  1  6  0  0  0
  1  6  1  0  0  0  0
  1 21  1  0  0  0  0
  3  4  1  6  0  0  0
  3  8  1  0  0  0  0
  3 28  1  0  0  0  0
  5  9  1  0  0  0  0
  5 25  1  0  0  0  0
  5 29  1  1  0  0  0
  6  7  1  1  0  0  0
  6 11  1  0  0  0  0
  8 12  1  0  0  0  0
  9 10  1  1  0  0  0
  9 14  1  0  0  0  0
 11 16  1  0  0  0  0
 12 13  1  6  0  0  0
 12 17  1  0  0  0  0
 14 15  1  6  0  0  0
 14 18  1  0  0  0  0
 15 31  1  0  0  0  0
 16 20  1  0  0  0  0
 17  2  1  1  0  0  0
 17 22  1  0  0  0  0
 18 19  1  6  0  0  0
 18 24  1  0  0  0  0
 18 30  1  0  0  0  0
 20 21  1  0  0  0  0
 20 26  1  1  0  0  0
 22 23  1  6  0  0  0
 22 28  1  0  0  0  0
 24 25  1  0  0  0  0
 26 27  1  0  0  0  0
 28 29  1  1  0  0  0
M  END
>  <CHROM.1>
-174.55677638,-178.83351996,-95.21916785,-174.08034301,-115.91475276,57.53640048
-4.21180436,-12.29407778,-16.67462683,0.28232871,0.52363414,2.65575040

>  <Name>
ligand

>  <RI>
0

>  <Rbt.Current_Directory>
/home/itssahil/PROJECTS/Mol_Feturizer/New_Systems/rnas/4F8U

>  <Rbt.Executable>
rbdock ($Id: //depot/dev/client3/rdock/2013.1/src/exe/rbdock.cxx#4 $)

>  <Rbt.Library>
libRbt.so (2013.1, Build901 2013/11/27)

>  <Rbt.Parameter_File>
/export/apps/rDock/src/rDock_2013.1_src/data/scripts/dock_solv.prm

>  <Rbt.Receptor>
prm/pocket_docking_6.prm

>  <SCORE>
-10.9086

>  <SCORE.INTER>
-3.63846

>  <SCORE.INTER.CONST>
1

>  <SCORE.INTER.POLAR>
0

>  <SCORE.INTER.ROT>
6

>  <SCORE.INTER.SOLV>
14.6598

>  <SCORE.INTER.VDW>
-14.9122

>  <SCORE.INTER.norm>
-0.11737

>  <SCORE.INTRA>
-7.27018

>  <SCORE.INTRA.DIHEDRAL>
-15.9484

>  <SCORE.INTRA.DIHEDRAL.0>
18.77

>  <SCORE.INTRA.POLAR>
0

>  <SCORE.INTRA.POLAR.0>
0

>  <SCORE.INTRA.REPUL>
0

>  <SCORE.INTRA.REPUL.0>
0

>  <SCORE.INTRA.SOLV>
-1.48377

>  <SCORE.INTRA.SOLV.lig_0>
-77.2465

>  <SCORE.INTRA.VDW>
1.44589

>  <SCORE.INTRA.VDW.0>
-4.16072

>  <SCORE.INTRA.norm>
-0.234522

>  <SCORE.RESTR>
0

>  <SCORE.RESTR.CAVITY>
0

>  <SCORE.RESTR.norm>
0

>  <SCORE.SYSTEM>
0

>  <SCORE.SYSTEM.CONST>
0

>  <SCORE.SYSTEM.DIHEDRAL>
0

>  <SCORE.SYSTEM.SOLV>
0

>  <SCORE.SYSTEM.norm>
0

>  <SCORE.heavy>
31

>  <SCORE.norm>
-0.351892

>  <RMSD>
8.031

$$$$
ligand
 OpenBabel11021811493D
libRbt.so/2013.1/901 2013/11/27
 31 33  0  0  0  0  0  0  0  0999 V2000
   -6.2775   -6.1231  -21.5926 C   0  0  2  0  0  0  0  0  0  0  0  0
   -7.3208   -7.0725  -21.8510 O   0  0  0  0  0  0  0  0  0  0  0  0
   -7.5298   -9.7015  -18.4793 C   0  0  2  0  0  0  0  0  0  0  0  0
   -8.0689  -10.4962  -17.4183 N   0  0  0  0  0  0  0  0  0  0  0  0
   -8.3313  -12.4990  -20.9390 C   0  0  2  0  0  0  0  0  0  0  0  0
   -5.7260   -5.6808  -22.9934 C   0  0  2  0  0  0  0  0  0  0  0  0
   -6.8096   -5.1245  -23.7960 N   0  0  0  0  0  0  0  0  0  0  0  0
   -7.9590   -8.1996  -18.2603 C   0  0  0  0  0  0  0  0  0  0  0  0
   -8.3119  -13.8750  -20.2046 C   0  0  2  0  0  0  0  0  0  0  0  0
   -9.0115  -13.7536  -18.9779 O   0  0  0  0  0  0  0  0  0  0  0  0
   -5.0722   -6.9083  -23.7184 C   0  0  0  0  0  0  0  0  0  0  0  0
   -7.3529   -7.3166  -19.4352 C   0  0  2  0  0  0  0  0  0  0  0  0
   -7.7512   -5.9028  -19.2408 N   0  0  0  0  0  0  0  0  0  0  0  0
   -6.7845  -14.2505  -19.9550 C   0  0  1  0  0  0  0  0  0  0  0  0
   -6.6730  -15.5548  -19.2177 N   0  0  0  0  0  0  0  0  0  0  0  0
   -4.1203   -7.6770  -22.7570 C   0  0  0  0  0  0  0  0  0  0  0  0
   -7.8892   -7.8544  -20.8359 C   0  0  2  0  0  0  0  0  0  0  0  0
   -6.0244  -14.3800  -21.3897 C   0  0  1  0  0  0  0  0  0  0  0  0
   -6.5949  -15.3852  -22.2052 O   0  0  0  0  0  0  0  0  0  0  0  0
   -4.2246   -7.5408  -21.4265 C   0  0  2  0  0  0  0  0  0  0  0  0
   -5.1975   -6.6917  -20.7930 O   0  0  0  0  0  0  0  0  0  0  0  0
   -7.4658   -9.3729  -21.0100 C   0  0  2  0  0  0  0  0  0  0  0  0
   -7.9636   -9.8759  -22.2562 O   0  0  0  0  0  0  0  0  0  0  0  0
   -6.1380  -13.0209  -22.1591 C   0  0  0  0  0  0  0  0  0  0  0  0
   -7.5953  -12.6006  -22.2503 O   0  0  0  0  0  0  0  0  0  0  0  0
   -3.2864   -8.2940  -20.4548 C   0  0  0  0  0  0  0  0  0  0  0  0
   -4.0700   -8.8739  -19.3732 N   0  0  0  0  0  0  0  0  0  0  0  0
   -8.0705  -10.2310  -19.8405 C   0  0  1  0  0  0  0  0  0  0  0  0
   -7.6696  -11.5673  -20.0263 O   0  0  0  0  0  0  0  0  0  0  0  0
   -4.5299  -14.7360  -21.3234 C   0  0  0  0  0  0  0  0  0  0  0  0
   -5.7815  -15.5684  -18.0425 C   0  0  0  0  0  0  0  0  0  0  0  0
  1  2  1  6  0  0  0
  1  6  1  0  0  0  0
  1 21  1  0  0  0  0
  3  4  1  1  0  0  0
  3  8  1  0  0  0  0
  3 28  1  0  0  0  0
  5  9  1  0  0  0  0
  5 25  1  0  0  0  0
  5 29  1  1  0  0  0
  6  7  1  6  0  0  0
  6 11  1  0  0  0  0
  8 12  1  0  0  0  0
  9 10  1  1  0  0  0
  9 14  1  0  0  0  0
 11 16  1  0  0  0  0
 12 13  1  1  0  0  0
 12 17  1  0  0  0  0
 14 15  1  6  0  0  0
 14 18  1  0  0  0  0
 15 31  1  0  0  0  0
 16 20  1  0  0  0  0
 17  2  1  6  0  0  0
 17 22  1  0  0  0  0
 18 19  1  6  0  0  0
 18 24  1  0  0  0  0
 18 30  1  0  0  0  0
 20 21  1  0  0  0  0
 20 26  1  6  0  0  0
 22 23  1  6  0  0  0
 22 28  1  0  0  0  0
 24 25  1  0  0  0  0
 26 27  1  0  0  0  0
 28 29  1  6  0  0  0
M  END
>  <CHROM.1>
168.81932053,-142.18314145,-130.99692988,9.16797183,-134.55799484,159.22724619
-6.63898150,-10.24440004,-20.72698465,-1.39560656,-0.91631937,3.09975042

>  <Name>
ligand

>  <RI>
0

>  <Rbt.Current_Directory>
/home/itssahil/PROJECTS/Mol_Feturizer/New_Systems/rnas/4F8U

>  <Rbt.Executable>
rbdock ($Id: //depot/dev/client3/rdock/2013.1/src/exe/rbdock.cxx#4 $)

>  <Rbt.Library>
libRbt.so (2013.1, Build901 2013/11/27)

>  <Rbt.Parameter_File>
/export/apps/rDock/src/rDock_2013.1_src/data/scripts/dock_solv.prm

>  <Rbt.Receptor>
prm/blind_docking_60.prm

>  <SCORE>
51.7521

>  <SCORE.INTER>
25.4607

>  <SCORE.INTER.CONST>
1

>  <SCORE.INTER.POLAR>
0

>  <SCORE.INTER.ROT>
6

>  <SCORE.INTER.SOLV>
31.4944

>  <SCORE.INTER.VDW>
-1.12432

>  <SCORE.INTER.norm>
0.821313

>  <SCORE.INTRA>
3.29046

>  <SCORE.INTRA.DIHEDRAL>
-1.36757

>  <SCORE.INTRA.DIHEDRAL.0>
18.77

>  <SCORE.INTRA.POLAR>
0

>  <SCORE.INTRA.POLAR.0>
0

>  <SCORE.INTRA.REPUL>
0

>  <SCORE.INTRA.REPUL.0>
0

>  <SCORE.INTRA.SOLV>
2.14748

>  <SCORE.INTRA.SOLV.lig_0>
-77.2465

>  <SCORE.INTRA.VDW>
2.90051

>  <SCORE.INTRA.VDW.0>
-4.16072

>  <SCORE.INTRA.norm>
0.106144

>  <SCORE.RESTR>
23.0009

>  <SCORE.RESTR.CAVITY>
23.0009

>  <SCORE.RESTR.norm>
0.741964

>  <SCORE.SYSTEM>
0

>  <SCORE.SYSTEM.CONST>
0

>  <SCORE.SYSTEM.DIHEDRAL>
0

>  <SCORE.SYSTEM.SOLV>
0

>  <SCORE.SYSTEM.norm>
0

>  <SCORE.heavy>
31

>  <SCORE.norm>
1.66942

>  <RMSD>
8.032

$$$$
ligand
 OpenBabel11021811493D
libRbt.so/2013.1/901 2013/11/27
 31 33  0  0  0  0  0  0  0  0999 V2000
   -3.8268  -13.4488  -12.8323 C   0  0  2  0  0  0  0  0  0  0  0  0
   -4.7679  -13.1516  -11.7918 O   0  0  0  0  0  0  0  0  0  0  0  0
   -6.6257   -9.8763   -9.7560 C   0  0  2  0  0  0  0  0  0  0  0  0
   -6.8367   -8.5695   -9.2120 N   0  0  0  0  0  0  0  0  0  0  0  0
   -7.8686   -9.0983  -13.3031 C   0  0  2  0  0  0  0  0  0  0  0  0
   -2.7921  -14.4556  -12.2176 C   0  0  2  0  0  0  0  0  0  0  0  0
   -3.4884  -15.6412  -11.7304 N   0  0  0  0  0  0  0  0  0  0  0  0
   -5.3267  -10.4943   -9.1090 C   0  0  0  0  0  0  0  0  0  0  0  0
   -8.3790   -7.6386  -13.5083 C   0  0  2  0  0  0  0  0  0  0  0  0
   -7.3874   -6.7344  -13.0522 O   0  0  0  0  0  0  0  0  0  0  0  0
   -2.0006  -13.7603  -11.0557 C   0  0  0  0  0  0  0  0  0  0  0  0
   -5.0978  -11.9490   -9.7081 C   0  0  2  0  0  0  0  0  0  0  0  0
   -3.8784  -12.5393   -9.1084 N   0  0  0  0  0  0  0  0  0  0  0  0
   -9.7198   -7.4886  -12.6620 C   0  0  1  0  0  0  0  0  0  0  0  0
  -10.2655   -6.0935  -12.7766 N   0  0  0  0  0  0  0  0  0  0  0  0
   -1.4960  -12.3547  -11.4929 C   0  0  0  0  0  0  0  0  0  0  0  0
   -4.9449  -11.8542  -11.2913 C   0  0  2  0  0  0  0  0  0  0  0  0
  -10.8266   -8.5439  -13.2224 C   0  0  1  0  0  0  0  0  0  0  0  0
  -11.1393   -8.3147  -14.5828 O   0  0  0  0  0  0  0  0  0  0  0  0
   -2.0533  -11.7124  -12.5304 C   0  0  2  0  0  0  0  0  0  0  0  0
   -3.1336  -12.2565  -13.3087 O   0  0  0  0  0  0  0  0  0  0  0  0
   -6.2542  -11.2027  -11.9051 C   0  0  2  0  0  0  0  0  0  0  0  0
   -6.1192  -11.0894  -13.3274 O   0  0  0  0  0  0  0  0  0  0  0  0
  -10.2603   -9.9990  -13.1023 C   0  0  0  0  0  0  0  0  0  0  0  0
   -8.9045  -10.0821  -13.7832 O   0  0  0  0  0  0  0  0  0  0  0  0
   -1.5641  -10.3164  -12.9817 C   0  0  0  0  0  0  0  0  0  0  0  0
   -2.2684   -9.9224  -14.1938 N   0  0  0  0  0  0  0  0  0  0  0  0
   -6.4672   -9.7674  -11.3014 C   0  0  1  0  0  0  0  0  0  0  0  0
   -7.6378   -9.2256  -11.8646 O   0  0  0  0  0  0  0  0  0  0  0  0
  -12.1861   -8.5295  -12.5040 C   0  0  0  0  0  0  0  0  0  0  0  0
   -9.7005   -5.0915  -11.8530 C   0  0  0  0  0  0  0  0  0  0  0  0
  1  2  1  1  0  0  0
  1  6  1  0  0  0  0
  1 21  1  0  0  0  0
  3  4  1  1  0  0  0
  3  8  1  0  0  0  0
  3 28  1  0  0  0  0
  5  9  1  0  0  0  0
  5 25  1  0  0  0  0
  5 29  1  1  0  0  0
  6  7  1  1  0  0  0
  6 11  1  0  0  0  0
  8 12  1  0  0  0  0
  9 10  1  1  0  0  0
  9 14  1  0  0  0  0
 11 16  1  0  0  0  0
 12 13  1  1  0  0  0
 12 17  1  0  0  0  0
 14 15  1  6  0  0  0
 14 18  1  0  0  0  0
 15 31  1  0  0  0  0
 16 20  1  0  0  0  0
 17  2  1  6  0  0  0
 17 22  1  0  0  0  0
 18 19  1  6  0  0  0
 18 24  1  0  0  0  0
 18 30  1  0  0  0  0
 20 21  1  0  0  0  0
 20 26  1  6  0  0  0
 22 23  1  6  0  0  0
 22 28  1  0  0  0  0
 24 25  1  0  0  0  0
 26 27  1  0  0  0  0
 28 29  1  6  0  0  0
M  END
>  <CHROM.1>
118.48642255,-132.26662435,-84.36469039,-138.86001561,175.05486621,-174.40051390
-6.26863902,-10.33533900,-12.13076025,-0.11723612,0.63385625,-1.58727988

>  <Name>
ligand

>  <RI>
0

>  <Rbt.Current_Directory>
/home/itssahil/PROJECTS/Mol_Feturizer/New_Systems/rnas/4F8U

>  <Rbt.Executable>
rbdock ($Id: //depot/dev/client3/rdock/2013.1/src/exe/rbdock.cxx#4 $)

>  <Rbt.Library>
libRbt.so (2013.1, Build901 2013/11/27)

>  <Rbt.Parameter_File>
/export/apps/rDock/src/rDock_2013.1_src/data/scripts/dock_solv.prm

>  <Rbt.Receptor>
prm/blind_docking_40.prm

>  <SCORE>
30.9163

>  <SCORE.INTER>
12.3692

>  <SCORE.INTER.CONST>
1

>  <SCORE.INTER.POLAR>
0

>  <SCORE.INTER.ROT>
6

>  <SCORE.INTER.SOLV>
24.805

>  <SCORE.INTER.VDW>
-7.62218

>  <SCORE.INTER.norm>
0.399008

>  <SCORE.INTRA>
4.34863

>  <SCORE.INTRA.DIHEDRAL>
4.63058

>  <SCORE.INTRA.DIHEDRAL.0>
18.77

>  <SCORE.INTRA.POLAR>
0

>  <SCORE.INTRA.POLAR.0>
0

>  <SCORE.INTRA.REPUL>
0

>  <SCORE.INTRA.REPUL.0>
0

>  <SCORE.INTRA.SOLV>
0.860714

>  <SCORE.INTRA.SOLV.lig_0>
-77.2465

>  <SCORE.INTRA.VDW>
1.60298

>  <SCORE.INTRA.VDW.0>
-4.16072

>  <SCORE.INTRA.norm>
0.140278

>  <SCORE.RESTR>
14.1984

>  <SCORE.RESTR.CAVITY>
14.1984

>  <SCORE.RESTR.norm>
0.458013

>  <SCORE.SYSTEM>
0

>  <SCORE.SYSTEM.CONST>
0

>  <SCORE.SYSTEM.DIHEDRAL>
0

>  <SCORE.SYSTEM.SOLV>
0

>  <SCORE.SYSTEM.norm>
0

>  <SCORE.heavy>
31

>  <SCORE.norm>
0.997299

>  <RMSD>
8.097

$$$$
ligand
 OpenBabel11021811493D
libRbt.so/2013.1/901 2013/11/27
 31 33  0  0  0  0  0  0  0  0999 V2000
   -3.4360  -13.9230  -12.1890 C   0  0  2  0  0  0  0  0  0  0  0  0
   -3.7589  -14.1207  -10.8059 O   0  0  0  0  0  0  0  0  0  0  0  0
   -7.9844  -13.4359  -10.8184 C   0  0  2  0  0  0  0  0  0  0  0  0
   -9.3239  -13.2527  -10.3491 N   0  0  0  0  0  0  0  0  0  0  0  0
   -6.6732   -9.8821  -10.7706 C   0  0  2  0  0  0  0  0  0  0  0  0
   -1.9403  -14.3651  -12.3609 C   0  0  2  0  0  0  0  0  0  0  0  0
   -1.7851  -15.7523  -11.9375 N   0  0  0  0  0  0  0  0  0  0  0  0
   -7.4783  -14.8617  -10.3724 C   0  0  0  0  0  0  0  0  0  0  0  0
   -7.5031   -8.6984  -10.1847 C   0  0  2  0  0  0  0  0  0  0  0  0
   -7.8077   -8.9748   -8.8284 O   0  0  0  0  0  0  0  0  0  0  0  0
   -1.0082  -13.4218  -11.5236 C   0  0  0  0  0  0  0  0  0  0  0  0
   -5.9932  -15.0672  -10.9011 C   0  0  2  0  0  0  0  0  0  0  0  0
   -5.5062  -16.4036  -10.4864 N   0  0  0  0  0  0  0  0  0  0  0  0
   -8.8317   -8.5826  -11.0552 C   0  0  1  0  0  0  0  0  0  0  0  0
   -9.7114   -7.4811  -10.5356 N   0  0  0  0  0  0  0  0  0  0  0  0
   -1.3711  -11.9279  -11.7648 C   0  0  0  0  0  0  0  0  0  0  0  0
   -5.0536  -13.9269  -10.3047 C   0  0  2  0  0  0  0  0  0  0  0  0
   -8.4318   -8.2638  -12.6015 C   0  0  1  0  0  0  0  0  0  0  0  0
   -7.7187   -7.0486  -12.7269 O   0  0  0  0  0  0  0  0  0  0  0  0
   -2.5689  -11.5788  -12.2579 C   0  0  2  0  0  0  0  0  0  0  0  0
   -3.5907  -12.5315  -12.6001 O   0  0  0  0  0  0  0  0  0  0  0  0
   -5.6073  -12.5081  -10.7476 C   0  0  2  0  0  0  0  0  0  0  0  0
   -4.7842  -11.4722  -10.1967 O   0  0  0  0  0  0  0  0  0  0  0  0
   -7.5161   -9.4118  -13.1455 C   0  0  0  0  0  0  0  0  0  0  0  0
   -6.3327   -9.6123  -12.2138 O   0  0  0  0  0  0  0  0  0  0  0  0
   -2.9472  -10.1001  -12.5072 C   0  0  0  0  0  0  0  0  0  0  0  0
   -3.4252   -9.9439  -13.8738 N   0  0  0  0  0  0  0  0  0  0  0  0
   -7.0757  -12.3219  -10.2195 C   0  0  1  0  0  0  0  0  0  0  0  0
   -7.5329  -11.0575  -10.6358 O   0  0  0  0  0  0  0  0  0  0  0  0
   -9.6094   -8.1254  -13.5806 C   0  0  0  0  0  0  0  0  0  0  0  0
   -9.1321   -6.1244  -10.5381 C   0  0  0  0  0  0  0  0  0  0  0  0
  1  2  1  1  0  0  0
  1  6  1  0  0  0  0
  1 21  1  0  0  0  0
  3  4  1  1  0  0  0
  3  8  1  0  0  0  0
  3 28  1  0  0  0  0
  5  9  1  0  0  0  0
  5 25  1  0  0  0  0
  5 29  1  6  0  0  0
  6  7  1  1  0  0  0
  6 11  1  0  0  0  0
  8 12  1  0  0  0  0
  9 10  1  1  0  0  0
  9 14  1  0  0  0  0
 11 16  1  0  0  0  0
 12 13  1  1  0  0  0
 12 17  1  0  0  0  0
 14 15  1  1  0  0  0
 14 18  1  0  0  0  0
 15 31  1  0  0  0  0
 16 20  1  0  0  0  0
 17  2  1  6  0  0  0
 17 22  1  0  0  0  0
 18 19  1  6  0  0  0
 18 24  1  0  0  0  0
 18 30  1  0  0  0  0
 20 21  1  0  0  0  0
 20 26  1  6  0  0  0
 22 23  1  1  0  0  0
 22 28  1  0  0  0  0
 24 25  1  0  0  0  0
 26 27  1  0  0  0  0
 28 29  1  6  0  0  0
M  END
>  <CHROM.1>
-174.94051477,-138.21206730,60.22202403,68.37883287,127.69995268,-152.61822088
-5.86364280,-11.37647877,-11.38591875,-0.77850150,0.32221677,-0.28404000

>  <Name>
ligand

>  <RI>
0

>  <Rbt.Current_Directory>
/home/itssahil/PROJECTS/Mol_Feturizer/New_Systems/rnas/4F8U

>  <Rbt.Executable>
rbdock ($Id: //depot/dev/client3/rdock/2013.1/src/exe/rbdock.cxx#4 $)

>  <Rbt.Library>
libRbt.so (2013.1, Build901 2013/11/27)

>  <Rbt.Parameter_File>
/export/apps/rDock/src/rDock_2013.1_src/data/scripts/dock_solv.prm

>  <Rbt.Receptor>
prm/blind_docking_40.prm

>  <SCORE>
15.4034

>  <SCORE.INTER>
-0.0356366

>  <SCORE.INTER.CONST>
1

>  <SCORE.INTER.POLAR>
0

>  <SCORE.INTER.ROT>
6

>  <SCORE.INTER.SOLV>
17.7619

>  <SCORE.INTER.VDW>
-13.5444

>  <SCORE.INTER.norm>
-0.00114957

>  <SCORE.INTRA>
1.4584

>  <SCORE.INTRA.DIHEDRAL>
-7.75495

>  <SCORE.INTRA.DIHEDRAL.0>
18.77

>  <SCORE.INTRA.POLAR>
0

>  <SCORE.INTRA.POLAR.0>
0

>  <SCORE.INTRA.REPUL>
0.0783675

>  <SCORE.INTRA.REPUL.0>
0

>  <SCORE.INTRA.SOLV>
-0.220807

>  <SCORE.INTRA.SOLV.lig_0>
-77.2465

>  <SCORE.INTRA.VDW>
5.05445

>  <SCORE.INTRA.VDW.0>
-4.16072

>  <SCORE.INTRA.norm>
0.0470453

>  <SCORE.RESTR>
13.9807

>  <SCORE.RESTR.CAVITY>
13.9807

>  <SCORE.RESTR.norm>
0.450989

>  <SCORE.SYSTEM>
0

>  <SCORE.SYSTEM.CONST>
0

>  <SCORE.SYSTEM.DIHEDRAL>
0

>  <SCORE.SYSTEM.SOLV>
0

>  <SCORE.SYSTEM.norm>
0

>  <SCORE.heavy>
31

>  <SCORE.norm>
0.496884

>  <RMSD>
8.103

$$$$
ligand
 OpenBabel11021811493D
libRbt.so/2013.1/901 2013/11/27
 31 33  0  0  0  0  0  0  0  0999 V2000
   -6.7522   -9.3402  -24.6998 C   0  0  2  0  0  0  0  0  0  0  0  0
   -7.6282   -9.7034  -23.6241 O   0  0  0  0  0  0  0  0  0  0  0  0
   -7.6713  -11.8890  -19.9438 C   0  0  2  0  0  0  0  0  0  0  0  0
   -7.2225  -12.4894  -18.7247 N   0  0  0  0  0  0  0  0  0  0  0  0
   -7.6152   -9.0853  -17.6740 C   0  0  2  0  0  0  0  0  0  0  0  0
   -7.5996   -8.4553  -25.6800 C   0  0  2  0  0  0  0  0  0  0  0  0
   -8.1277   -7.2977  -24.9666 N   0  0  0  0  0  0  0  0  0  0  0  0
   -6.8521  -12.5003  -21.1451 C   0  0  0  0  0  0  0  0  0  0  0  0
   -6.8837   -7.8672  -18.3178 C   0  0  2  0  0  0  0  0  0  0  0  0
   -7.8291   -7.0803  -19.0218 O   0  0  0  0  0  0  0  0  0  0  0  0
   -8.7644   -9.3081  -26.2930 C   0  0  0  0  0  0  0  0  0  0  0  0
   -7.3570  -11.8384  -22.4994 C   0  0  2  0  0  0  0  0  0  0  0  0
   -6.5928  -12.4042  -23.6357 N   0  0  0  0  0  0  0  0  0  0  0  0
   -5.7806   -8.4529  -19.3060 C   0  0  1  0  0  0  0  0  0  0  0  0
   -5.0455   -7.3407  -19.9987 N   0  0  0  0  0  0  0  0  0  0  0  0
   -8.2372  -10.6805  -26.8027 C   0  0  0  0  0  0  0  0  0  0  0  0
   -7.1538  -10.2597  -22.4281 C   0  0  2  0  0  0  0  0  0  0  0  0
   -4.7189   -9.3463  -18.4531 C   0  0  1  0  0  0  0  0  0  0  0  0
   -4.0582   -8.5842  -17.4613 O   0  0  0  0  0  0  0  0  0  0  0  0
   -7.0730  -11.1804  -26.3620 C   0  0  2  0  0  0  0  0  0  0  0  0
   -6.2336  -10.5055  -25.4087 O   0  0  0  0  0  0  0  0  0  0  0  0
   -7.9661   -9.6830  -21.1939 C   0  0  2  0  0  0  0  0  0  0  0  0
   -7.7716   -8.2659  -21.1042 O   0  0  0  0  0  0  0  0  0  0  0  0
   -5.4829  -10.5073  -17.7315 C   0  0  0  0  0  0  0  0  0  0  0  0
   -6.6318   -9.9390  -16.9154 O   0  0  0  0  0  0  0  0  0  0  0  0
   -6.5310  -12.5411  -26.8586 C   0  0  0  0  0  0  0  0  0  0  0  0
   -5.4062  -12.3185  -27.7562 N   0  0  0  0  0  0  0  0  0  0  0  0
   -7.4569  -10.3485  -19.8644 C   0  0  1  0  0  0  0  0  0  0  0  0
   -8.2028   -9.8168  -18.7959 O   0  0  0  0  0  0  0  0  0  0  0  0
   -3.5845   -9.9914  -19.2664 C   0  0  0  0  0  0  0  0  0  0  0  0
   -4.7843   -7.5259  -21.4387 C   0  0  0  0  0  0  0  0  0  0  0  0
  1  2  1  1  0  0  0
  1  6  1  0  0  0  0
  1 21  1  0  0  0  0
  3  4  1  1  0  0  0
  3  8  1  0  0  0  0
  3 28  1  0  0  0  0
  5  9  1  0  0  0  0
  5 25  1  0  0  0  0
  5 29  1  6  0  0  0
  6  7  1  1  0  0  0
  6 11  1  0  0  0  0
  8 12  1  0  0  0  0
  9 10  1  6  0  0  0
  9 14  1  0  0  0  0
 11 16  1  0  0  0  0
 12 13  1  6  0  0  0
 12 17  1  0  0  0  0
 14 15  1  1  0  0  0
 14 18  1  0  0  0  0
 15 31  1  0  0  0  0
 16 20  1  0  0  0  0
 17  2  1  6  0  0  0
 17 22  1  0  0  0  0
 18 19  1  1  0  0  0
 18 24  1  0  0  0  0
 18 30  1  0  0  0  0
 20 21  1  0  0  0  0
 20 26  1  6  0  0  0
 22 23  1  1  0  0  0
 22 28  1  0  0  0  0
 24 25  1  0  0  0  0
 26 27  1  0  0  0  0
 28 29  1  1  0  0  0
M  END
>  <CHROM.1>
-166.59843396,58.90481311,-137.47495227,-99.22226951,107.04832174,120.80872678
-6.73338009,-9.86261689,-21.68851208,2.39181402,1.39632061,-2.56665703

>  <Name>
ligand

>  <RI>
0

>  <Rbt.Current_Directory>
/home/itssahil/PROJECTS/Mol_Feturizer/New_Systems/rnas/4F8U

>  <Rbt.Executable>
rbdock ($Id: //depot/dev/client3/rdock/2013.1/src/exe/rbdock.cxx#4 $)

>  <Rbt.Library>
libRbt.so (2013.1, Build901 2013/11/27)

>  <Rbt.Parameter_File>
/export/apps/rDock/src/rDock_2013.1_src/data/scripts/dock_solv.prm

>  <Rbt.Receptor>
prm/blind_docking_40.prm

>  <SCORE>
31.3225

>  <SCORE.INTER>
13.1243

>  <SCORE.INTER.CONST>
1

>  <SCORE.INTER.POLAR>
0

>  <SCORE.INTER.ROT>
6

>  <SCORE.INTER.SOLV>
26.0683

>  <SCORE.INTER.VDW>
-7.53991

>  <SCORE.INTER.norm>
0.423364

>  <SCORE.INTRA>
7.29441

>  <SCORE.INTRA.DIHEDRAL>
-2.58656

>  <SCORE.INTRA.DIHEDRAL.0>
18.77

>  <SCORE.INTRA.POLAR>
0

>  <SCORE.INTRA.POLAR.0>
0

>  <SCORE.INTRA.REPUL>
0

>  <SCORE.INTRA.REPUL.0>
0

>  <SCORE.INTRA.SOLV>
5.60633

>  <SCORE.INTRA.SOLV.lig_0>
-77.2465

>  <SCORE.INTRA.VDW>
5.78452

>  <SCORE.INTRA.VDW.0>
-4.16072

>  <SCORE.INTRA.norm>
0.235303

>  <SCORE.RESTR>
10.9039

>  <SCORE.RESTR.CAVITY>
10.9039

>  <SCORE.RESTR.norm>
0.351737

>  <SCORE.SYSTEM>
0

>  <SCORE.SYSTEM.CONST>
0

>  <SCORE.SYSTEM.DIHEDRAL>
0

>  <SCORE.SYSTEM.SOLV>
0

>  <SCORE.SYSTEM.norm>
0

>  <SCORE.heavy>
31

>  <SCORE.norm>
1.0104

>  <RMSD>
8.110

$$$$
ligand
 OpenBabel11021811493D
libRbt.so/2013.1/901 2013/11/27
 31 33  0  0  0  0  0  0  0  0999 V2000
   -3.8988  -12.1391  -11.3004 C   0  0  2  0  0  0  0  0  0  0  0  0
   -2.7164  -12.9456  -11.2108 O   0  0  0  0  0  0  0  0  0  0  0  0
    0.8935  -13.4317  -13.4593 C   0  0  2  0  0  0  0  0  0  0  0  0
    1.7773  -13.6840  -14.5563 N   0  0  0  0  0  0  0  0  0  0  0  0
    0.2585   -9.7440  -14.3230 C   0  0  2  0  0  0  0  0  0  0  0  0
   -4.5083  -12.0868   -9.8555 C   0  0  2  0  0  0  0  0  0  0  0  0
   -3.5241  -11.5447   -8.9252 N   0  0  0  0  0  0  0  0  0  0  0  0
    0.0123  -14.7157  -13.2088 C   0  0  0  0  0  0  0  0  0  0  0  0
   -0.1855   -9.8247  -15.8161 C   0  0  2  0  0  0  0  0  0  0  0  0
   -1.1715  -10.8339  -15.9508 O   0  0  0  0  0  0  0  0  0  0  0  0
   -4.9550  -13.5243   -9.4152 C   0  0  0  0  0  0  0  0  0  0  0  0
   -0.9634  -14.4371  -11.9849 C   0  0  2  0  0  0  0  0  0  0  0  0
   -1.7981  -15.6367  -11.7412 N   0  0  0  0  0  0  0  0  0  0  0  0
    1.1110  -10.1766  -16.6713 C   0  0  1  0  0  0  0  0  0  0  0  0
    0.7660  -10.3071  -18.1277 N   0  0  0  0  0  0  0  0  0  0  0  0
   -5.7760  -14.2182  -10.5404 C   0  0  0  0  0  0  0  0  0  0  0  0
   -1.8853  -13.1801  -12.3149 C   0  0  2  0  0  0  0  0  0  0  0  0
    2.2118   -8.9905  -16.4864 C   0  0  1  0  0  0  0  0  0  0  0  0
    1.7234   -7.7381  -16.9266 O   0  0  0  0  0  0  0  0  0  0  0  0
   -5.7000  -13.7963  -11.8116 C   0  0  2  0  0  0  0  0  0  0  0  0
   -4.8775  -12.6930  -12.2301 O   0  0  0  0  0  0  0  0  0  0  0  0
   -0.9674  -11.9161  -12.5897 C   0  0  2  0  0  0  0  0  0  0  0  0
   -1.7845  -10.7837  -12.9120 O   0  0  0  0  0  0  0  0  0  0  0  0
    2.5741   -8.8539  -14.9690 C   0  0  0  0  0  0  0  0  0  0  0  0
    1.3065   -8.6747  -14.1507 O   0  0  0  0  0  0  0  0  0  0  0  0
   -6.5100  -14.4709  -12.9432 C   0  0  0  0  0  0  0  0  0  0  0  0
   -7.2519  -15.6015  -12.4030 N   0  0  0  0  0  0  0  0  0  0  0  0
   -0.0082  -12.2084  -13.7997 C   0  0  1  0  0  0  0  0  0  0  0  0
    0.7914  -11.0692  -14.0088 O   0  0  0  0  0  0  0  0  0  0  0  0
    3.5333   -9.1815  -17.2491 C   0  0  0  0  0  0  0  0  0  0  0  0
    0.5322  -11.6762  -18.6250 C   0  0  0  0  0  0  0  0  0  0  0  0
  1  2  1  1  0  0  0
  1  6  1  0  0  0  0
  1 21  1  0  0  0  0
  3  4  1  6  0  0  0
  3  8  1  0  0  0  0
  3 28  1  0  0  0  0
  5  9  1  0  0  0  0
  5 25  1  0  0  0  0
  5 29  1  6  0  0  0
  6  7  1  1  0  0  0
  6 11  1  0  0  0  0
  8 12  1  0  0  0  0
  9 10  1  1  0  0  0
  9 14  1  0  0  0  0
 11 16  1  0  0  0  0
 12 13  1  6  0  0  0
 12 17  1  0  0  0  0
 14 15  1  6  0  0  0
 14 18  1  0  0  0  0
 15 31  1  0  0  0  0
 16 20  1  0  0  0  0
 17  2  1  1  0  0  0
 17 22  1  0  0  0  0
 18 19  1  6  0  0  0
 18 24  1  0  0  0  0
 18 30  1  0  0  0  0
 20 21  1  0  0  0  0
 20 26  1  1  0  0  0
 22 23  1  6  0  0  0
 22 28  1  0  0  0  0
 24 25  1  0  0  0  0
 26 27  1  0  0  0  0
 28 29  1  1  0  0  0
M  END
>  <CHROM.1>
-178.10390633,-74.94632853,-96.88685991,-162.71742356,-2.69592015,-178.83123571
-1.30852385,-11.90095498,-13.59467842,-3.09776770,-0.79769945,-2.42232262

>  <Name>
ligand

>  <RI>
0

>  <Rbt.Current_Directory>
/home/itssahil/PROJECTS/Mol_Feturizer/New_Systems/rnas/4F8U

>  <Rbt.Executable>
rbdock ($Id: //depot/dev/client3/rdock/2013.1/src/exe/rbdock.cxx#4 $)

>  <Rbt.Library>
libRbt.so (2013.1, Build901 2013/11/27)

>  <Rbt.Parameter_File>
/export/apps/rDock/src/rDock_2013.1_src/data/scripts/dock_solv.prm

>  <Rbt.Receptor>
prm/pocket_docking_7.prm

>  <SCORE>
-9.7395

>  <SCORE.INTER>
-4.28118

>  <SCORE.INTER.CONST>
1

>  <SCORE.INTER.POLAR>
0

>  <SCORE.INTER.ROT>
6

>  <SCORE.INTER.SOLV>
17.8602

>  <SCORE.INTER.VDW>
-16.4075

>  <SCORE.INTER.norm>
-0.138103

>  <SCORE.INTRA>
-5.45832

>  <SCORE.INTRA.DIHEDRAL>
-13.8167

>  <SCORE.INTRA.DIHEDRAL.0>
18.77

>  <SCORE.INTRA.POLAR>
0

>  <SCORE.INTRA.POLAR.0>
0

>  <SCORE.INTRA.REPUL>
0

>  <SCORE.INTRA.REPUL.0>
0

>  <SCORE.INTRA.SOLV>
-1.82347

>  <SCORE.INTRA.SOLV.lig_0>
-77.2465

>  <SCORE.INTRA.VDW>
2.36175

>  <SCORE.INTRA.VDW.0>
-4.16072

>  <SCORE.INTRA.norm>
-0.176075

>  <SCORE.RESTR>
0

>  <SCORE.RESTR.CAVITY>
0

>  <SCORE.RESTR.norm>
0

>  <SCORE.SYSTEM>
0

>  <SCORE.SYSTEM.CONST>
0

>  <SCORE.SYSTEM.DIHEDRAL>
0

>  <SCORE.SYSTEM.SOLV>
0

>  <SCORE.SYSTEM.norm>
0

>  <SCORE.heavy>
31

>  <SCORE.norm>
-0.314178

>  <RMSD>
8.112

$$$$
ligand
 OpenBabel11021811493D
libRbt.so/2013.1/901 2013/11/27
 31 33  0  0  0  0  0  0  0  0999 V2000
   -3.1402  -12.5470  -14.7268 C   0  0  2  0  0  0  0  0  0  0  0  0
   -4.5482  -12.8175  -14.6978 O   0  0  0  0  0  0  0  0  0  0  0  0
   -5.3349  -13.8532  -18.7760 C   0  0  2  0  0  0  0  0  0  0  0  0
   -5.9943  -14.3779  -19.9327 N   0  0  0  0  0  0  0  0  0  0  0  0
   -7.5462  -10.7463  -18.9139 C   0  0  2  0  0  0  0  0  0  0  0  0
   -2.7867  -11.8970  -13.3432 C   0  0  2  0  0  0  0  0  0  0  0  0
   -3.1658  -12.8012  -12.2631 N   0  0  0  0  0  0  0  0  0  0  0  0
   -5.0667  -15.0323  -17.7632 C   0  0  0  0  0  0  0  0  0  0  0  0
   -7.8938  -10.3391  -20.3791 C   0  0  2  0  0  0  0  0  0  0  0  0
   -8.2943  -11.4938  -21.0967 O   0  0  0  0  0  0  0  0  0  0  0  0
   -3.5245  -10.5205  -13.1992 C   0  0  0  0  0  0  0  0  0  0  0  0
   -4.3271  -14.4495  -16.4822 C   0  0  2  0  0  0  0  0  0  0  0  0
   -4.0712  -15.5487  -15.5222 N   0  0  0  0  0  0  0  0  0  0  0  0
   -6.5786   -9.7022  -21.0121 C   0  0  1  0  0  0  0  0  0  0  0  0
   -6.8156   -9.3094  -22.4428 N   0  0  0  0  0  0  0  0  0  0  0  0
   -3.3523   -9.6624  -14.4858 C   0  0  0  0  0  0  0  0  0  0  0  0
   -5.2353  -13.3272  -15.8082 C   0  0  2  0  0  0  0  0  0  0  0  0
   -6.1593   -8.3809  -20.1569 C   0  0  1  0  0  0  0  0  0  0  0  0
   -7.1735   -7.3949  -20.1699 O   0  0  0  0  0  0  0  0  0  0  0  0
   -3.0090  -10.2281  -15.6528 C   0  0  2  0  0  0  0  0  0  0  0  0
   -2.7734  -11.6385  -15.8081 O   0  0  0  0  0  0  0  0  0  0  0  0
   -5.5091  -12.1735  -16.8617 C   0  0  2  0  0  0  0  0  0  0  0  0
   -6.3458  -11.1688  -16.2748 O   0  0  0  0  0  0  0  0  0  0  0  0
   -5.9102   -8.7884  -18.6655 C   0  0  0  0  0  0  0  0  0  0  0  0
   -7.1191   -9.5345  -18.1263 O   0  0  0  0  0  0  0  0  0  0  0  0
   -2.8305   -9.3921  -16.9416 C   0  0  0  0  0  0  0  0  0  0  0  0
   -1.4658   -9.5348  -17.4290 N   0  0  0  0  0  0  0  0  0  0  0  0
   -6.2378  -12.7660  -18.1217 C   0  0  1  0  0  0  0  0  0  0  0  0
   -6.4581  -11.7163  -19.0330 O   0  0  0  0  0  0  0  0  0  0  0  0
   -4.8976   -7.6462  -20.6394 C   0  0  0  0  0  0  0  0  0  0  0  0
   -7.9884   -8.4526  -22.7008 C   0  0  0  0  0  0  0  0  0  0  0  0
  1  2  1  1  0  0  0
  1  6  1  0  0  0  0
  1 21  1  0  0  0  0
  3  4  1  6  0  0  0
  3  8  1  0  0  0  0
  3 28  1  0  0  0  0
  5  9  1  0  0  0  0
  5 25  1  0  0  0  0
  5 29  1  6  0  0  0
  6  7  1  1  0  0  0
  6 11  1  0  0  0  0
  8 12  1  0  0  0  0
  9 10  1  6  0  0  0
  9 14  1  0  0  0  0
 11 16  1  0  0  0  0
 12 13  1  1  0  0  0
 12 17  1  0  0  0  0
 14 15  1  6  0  0  0
 14 18  1  0  0  0  0
 15 31  1  0  0  0  0
 16 20  1  0  0  0  0
 17  2  1  1  0  0  0
 17 22  1  0  0  0  0
 18 19  1  6  0  0  0
 18 24  1  0  0  0  0
 18 30  1  0  0  0  0
 20 21  1  0  0  0  0
 20 26  1  1  0  0  0
 22 23  1  1  0  0  0
 22 28  1  0  0  0  0
 24 25  1  0  0  0  0
 26 27  1  0  0  0  0
 28 29  1  6  0  0  0
M  END
>  <CHROM.1>
175.92135192,-149.70762599,52.42540325,41.49523788,119.64567271,161.27135545
-5.24038870,-11.16728285,-17.68272539,-0.67586006,-0.95294946,-0.31929990

>  <Name>
ligand

>  <RI>
0

>  <Rbt.Current_Directory>
/home/itssahil/PROJECTS/Mol_Feturizer/New_Systems/rnas/4F8U

>  <Rbt.Executable>
rbdock ($Id: //depot/dev/client3/rdock/2013.1/src/exe/rbdock.cxx#4 $)

>  <Rbt.Library>
libRbt.so (2013.1, Build901 2013/11/27)

>  <Rbt.Parameter_File>
/export/apps/rDock/src/rDock_2013.1_src/data/scripts/dock_solv.prm

>  <Rbt.Receptor>
prm/pocket_docking_5.prm

>  <SCORE>
-9.02535

>  <SCORE.INTER>
-5.46053

>  <SCORE.INTER.CONST>
1

>  <SCORE.INTER.POLAR>
0

>  <SCORE.INTER.ROT>
6

>  <SCORE.INTER.SOLV>
12.2886

>  <SCORE.INTER.VDW>
-15.3365

>  <SCORE.INTER.norm>
-0.176146

>  <SCORE.INTRA>
-3.56482

>  <SCORE.INTRA.DIHEDRAL>
-10.1461

>  <SCORE.INTRA.DIHEDRAL.0>
18.77

>  <SCORE.INTRA.POLAR>
0

>  <SCORE.INTRA.POLAR.0>
0

>  <SCORE.INTRA.REPUL>
0

>  <SCORE.INTRA.REPUL.0>
0

>  <SCORE.INTRA.SOLV>
-1.25915

>  <SCORE.INTRA.SOLV.lig_0>
-77.2465

>  <SCORE.INTRA.VDW>
2.13779

>  <SCORE.INTRA.VDW.0>
-4.16072

>  <SCORE.INTRA.norm>
-0.114994

>  <SCORE.RESTR>
0

>  <SCORE.RESTR.CAVITY>
0

>  <SCORE.RESTR.norm>
0

>  <SCORE.SYSTEM>
0

>  <SCORE.SYSTEM.CONST>
0

>  <SCORE.SYSTEM.DIHEDRAL>
0

>  <SCORE.SYSTEM.SOLV>
0

>  <SCORE.SYSTEM.norm>
0

>  <SCORE.heavy>
31

>  <SCORE.norm>
-0.29114

>  <RMSD>
8.140

$$$$
ligand
 OpenBabel11021811493D
libRbt.so/2013.1/901 2013/11/27
 31 33  0  0  0  0  0  0  0  0999 V2000
   -3.5101  -12.4735  -12.4220 C   0  0  2  0  0  0  0  0  0  0  0  0
   -4.3874  -13.5439  -12.7977 O   0  0  0  0  0  0  0  0  0  0  0  0
   -3.9996  -13.5307  -17.0607 C   0  0  2  0  0  0  0  0  0  0  0  0
   -4.2431  -13.8268  -18.4395 N   0  0  0  0  0  0  0  0  0  0  0  0
   -6.6754  -10.7868  -16.8151 C   0  0  2  0  0  0  0  0  0  0  0  0
   -2.6938  -12.9854  -11.1836 C   0  0  2  0  0  0  0  0  0  0  0  0
   -1.9768  -14.2057  -11.5368 N   0  0  0  0  0  0  0  0  0  0  0  0
   -3.6646  -14.8726  -16.3024 C   0  0  0  0  0  0  0  0  0  0  0  0
   -7.6296  -10.8945  -18.0443 C   0  0  2  0  0  0  0  0  0  0  0  0
   -8.0331  -12.2444  -18.1987 O   0  0  0  0  0  0  0  0  0  0  0  0
   -3.6632  -13.2409   -9.9775 C   0  0  0  0  0  0  0  0  0  0  0  0
   -3.3865  -14.5414  -14.7726 C   0  0  2  0  0  0  0  0  0  0  0  0
   -3.0721  -15.7956  -14.0493 N   0  0  0  0  0  0  0  0  0  0  0  0
   -6.8120  -10.3949  -19.3164 C   0  0  1  0  0  0  0  0  0  0  0  0
   -7.6503  -10.4971  -20.5589 N   0  0  0  0  0  0  0  0  0  0  0  0
   -4.6312  -12.0385   -9.7805 C   0  0  0  0  0  0  0  0  0  0  0  0
   -4.6707  -13.8440  -14.1373 C   0  0  2  0  0  0  0  0  0  0  0  0
   -6.3725   -8.8425  -19.0935 C   0  0  1  0  0  0  0  0  0  0  0  0
   -7.4903   -7.9914  -18.9294 O   0  0  0  0  0  0  0  0  0  0  0  0
   -4.8579  -11.1643  -10.7724 C   0  0  2  0  0  0  0  0  0  0  0  0
   -4.2383  -11.2599  -12.0669 O   0  0  0  0  0  0  0  0  0  0  0  0
   -4.9958  -12.5158  -14.9409 C   0  0  2  0  0  0  0  0  0  0  0  0
   -6.1642  -11.8914  -14.3941 O   0  0  0  0  0  0  0  0  0  0  0  0
   -5.4971   -8.7340  -17.7996 C   0  0  0  0  0  0  0  0  0  0  0  0
   -6.2326   -9.3586  -16.6260 O   0  0  0  0  0  0  0  0  0  0  0  0
   -5.8141   -9.9618  -10.5953 C   0  0  0  0  0  0  0  0  0  0  0  0
   -7.0217  -10.1807  -11.3791 N   0  0  0  0  0  0  0  0  0  0  0  0
   -5.2657  -12.8600  -16.4503 C   0  0  1  0  0  0  0  0  0  0  0  0
   -5.5444  -11.6591  -17.1294 O   0  0  0  0  0  0  0  0  0  0  0  0
   -5.5653   -8.2065  -20.2375 C   0  0  0  0  0  0  0  0  0  0  0  0
   -7.4693  -11.7142  -21.3726 C   0  0  0  0  0  0  0  0  0  0  0  0
  1  2  1  1  0  0  0
  1  6  1  0  0  0  0
  1 21  1  0  0  0  0
  3  4  1  6  0  0  0
  3  8  1  0  0  0  0
  3 28  1  0  0  0  0
  5  9  1  0  0  0  0
  5 25  1  0  0  0  0
  5 29  1  6  0  0  0
  6  7  1  6  0  0  0
  6 11  1  0  0  0  0
  8 12  1  0  0  0  0
  9 10  1  6  0  0  0
  9 14  1  0  0  0  0
 11 16  1  0  0  0  0
 12 13  1  1  0  0  0
 12 17  1  0  0  0  0
 14 15  1  6  0  0  0
 14 18  1  0  0  0  0
 15 31  1  0  0  0  0
 16 20  1  0  0  0  0
 17  2  1  1  0  0  0
 17 22  1  0  0  0  0
 18 19  1  1  0  0  0
 18 24  1  0  0  0  0
 18 30  1  0  0  0  0
 20 21  1  0  0  0  0
 20 26  1  1  0  0  0
 22 23  1  1  0  0  0
 22 28  1  0  0  0  0
 24 25  1  0  0  0  0
 26 27  1  0  0  0  0
 28 29  1  6  0  0  0
M  END
>  <CHROM.1>
-141.98694180,-111.69273792,-96.03425073,73.48836540,-109.25291290,179.38967099
-5.29771082,-11.77788846,-15.41948604,0.85370005,-1.05259165,1.25018189

>  <Name>
ligand

>  <RI>
0

>  <Rbt.Current_Directory>
/home/itssahil/PROJECTS/Mol_Feturizer/New_Systems/rnas/4F8U

>  <Rbt.Executable>
rbdock ($Id: //depot/dev/client3/rdock/2013.1/src/exe/rbdock.cxx#4 $)

>  <Rbt.Library>
libRbt.so (2013.1, Build901 2013/11/27)

>  <Rbt.Parameter_File>
/export/apps/rDock/src/rDock_2013.1_src/data/scripts/dock_solv.prm

>  <Rbt.Receptor>
prm/pocket_docking_6.prm

>  <SCORE>
-9.73089

>  <SCORE.INTER>
-9.66376

>  <SCORE.INTER.CONST>
1

>  <SCORE.INTER.POLAR>
0

>  <SCORE.INTER.ROT>
6

>  <SCORE.INTER.SOLV>
12.8251

>  <SCORE.INTER.VDW>
-18.3175

>  <SCORE.INTER.norm>
-0.311734

>  <SCORE.INTRA>
-0.0671277

>  <SCORE.INTRA.DIHEDRAL>
-3.3607

>  <SCORE.INTRA.DIHEDRAL.0>
18.77

>  <SCORE.INTRA.POLAR>
0

>  <SCORE.INTRA.POLAR.0>
0

>  <SCORE.INTRA.REPUL>
0

>  <SCORE.INTRA.REPUL.0>
0

>  <SCORE.INTRA.SOLV>
0.701993

>  <SCORE.INTRA.SOLV.lig_0>
-77.2465

>  <SCORE.INTRA.VDW>
1.26223

>  <SCORE.INTRA.VDW.0>
-4.16072

>  <SCORE.INTRA.norm>
-0.00216541

>  <SCORE.RESTR>
0

>  <SCORE.RESTR.CAVITY>
0

>  <SCORE.RESTR.norm>
0

>  <SCORE.SYSTEM>
0

>  <SCORE.SYSTEM.CONST>
0

>  <SCORE.SYSTEM.DIHEDRAL>
0

>  <SCORE.SYSTEM.SOLV>
0

>  <SCORE.SYSTEM.norm>
0

>  <SCORE.heavy>
31

>  <SCORE.norm>
-0.3139

>  <RMSD>
8.164

$$$$
ligand
 OpenBabel11021811493D
libRbt.so/2013.1/901 2013/11/27
 31 33  0  0  0  0  0  0  0  0999 V2000
   -3.7882  -12.9237  -11.6029 C   0  0  2  0  0  0  0  0  0  0  0  0
   -4.0297  -12.3508  -10.3106 O   0  0  0  0  0  0  0  0  0  0  0  0
   -8.2992  -12.0434  -10.2820 C   0  0  2  0  0  0  0  0  0  0  0  0
   -9.6376  -11.8762   -9.8037 N   0  0  0  0  0  0  0  0  0  0  0  0
   -7.3433   -8.7817  -11.5608 C   0  0  2  0  0  0  0  0  0  0  0  0
   -2.2308  -13.0506  -11.7457 C   0  0  2  0  0  0  0  0  0  0  0  0
   -1.7014  -13.8665  -10.6585 N   0  0  0  0  0  0  0  0  0  0  0  0
   -7.6533  -13.2906   -9.5641 C   0  0  0  0  0  0  0  0  0  0  0  0
   -8.1998   -7.4810  -11.6498 C   0  0  2  0  0  0  0  0  0  0  0  0
   -8.3005   -6.9052  -10.3586 O   0  0  0  0  0  0  0  0  0  0  0  0
   -1.5788  -11.6242  -11.7371 C   0  0  0  0  0  0  0  0  0  0  0  0
   -6.1694  -13.4801  -10.1020 C   0  0  2  0  0  0  0  0  0  0  0  0
   -5.5515  -14.6488   -9.4330 N   0  0  0  0  0  0  0  0  0  0  0  0
   -9.6339   -7.9018  -12.1997 C   0  0  1  0  0  0  0  0  0  0  0  0
  -10.5401   -6.7066  -12.2860 N   0  0  0  0  0  0  0  0  0  0  0  0
   -2.3347  -10.6638  -12.7002 C   0  0  0  0  0  0  0  0  0  0  0  0
   -5.3237  -12.1626   -9.8056 C   0  0  2  0  0  0  0  0  0  0  0  0
   -9.4673   -8.5553  -13.6824 C   0  0  1  0  0  0  0  0  0  0  0  0
   -8.8945   -7.6467  -14.6029 O   0  0  0  0  0  0  0  0  0  0  0  0
   -3.5879  -10.9299  -13.0984 C   0  0  2  0  0  0  0  0  0  0  0  0
   -4.3180  -12.0972  -12.6824 O   0  0  0  0  0  0  0  0  0  0  0  0
   -6.0163  -10.9256  -10.5167 C   0  0  2  0  0  0  0  0  0  0  0  0
   -5.2782   -9.7293  -10.2373 O   0  0  0  0  0  0  0  0  0  0  0  0
   -8.5243   -9.8023  -13.5944 C   0  0  0  0  0  0  0  0  0  0  0  0
   -7.2177   -9.4140  -12.9231 O   0  0  0  0  0  0  0  0  0  0  0  0
   -4.3547   -9.9893  -14.0571 C   0  0  0  0  0  0  0  0  0  0  0  0
   -3.4179   -9.3714  -14.9850 N   0  0  0  0  0  0  0  0  0  0  0  0
   -7.4818  -10.7535   -9.9761 C   0  0  1  0  0  0  0  0  0  0  0  0
   -8.0634   -9.6527  -10.6325 O   0  0  0  0  0  0  0  0  0  0  0  0
  -10.7685   -9.0217  -14.3561 C   0  0  0  0  0  0  0  0  0  0  0  0
  -11.9609   -6.9376  -11.9630 C   0  0  0  0  0  0  0  0  0  0  0  0
  1  2  1  1  0  0  0
  1  6  1  0  0  0  0
  1 21  1  0  0  0  0
  3  4  1  1  0  0  0
  3  8  1  0  0  0  0
  3 28  1  0  0  0  0
  5  9  1  0  0  0  0
  5 25  1  0  0  0  0
  5 29  1  1  0  0  0
  6  7  1  1  0  0  0
  6 11  1  0  0  0  0
  8 12  1  0  0  0  0
  9 10  1  1  0  0  0
  9 14  1  0  0  0  0
 11 16  1  0  0  0  0
 12 13  1  1  0  0  0
 12 17  1  0  0  0  0
 14 15  1  6  0  0  0
 14 18  1  0  0  0  0
 15 31  1  0  0  0  0
 16 20  1  0  0  0  0
 17  2  1  6  0  0  0
 17 22  1  0  0  0  0
 18 19  1  6  0  0  0
 18 24  1  0  0  0  0
 18 30  1  0  0  0  0
 20 21  1  0  0  0  0
 20 26  1  6  0  0  0
 22 23  1  1  0  0  0
 22 28  1  0  0  0  0
 24 25  1  0  0  0  0
 26 27  1  0  0  0  0
 28 29  1  6  0  0  0
M  END
>  <CHROM.1>
-176.21167598,-161.49223572,-143.78139195,44.29869174,33.01748676,-124.10182791
-6.52479249,-10.43069617,-11.72423126,-0.53885058,0.34785561,-0.77007879

>  <Name>
ligand

>  <RI>
0

>  <Rbt.Current_Directory>
/home/itssahil/PROJECTS/Mol_Feturizer/New_Systems/rnas/4F8U

>  <Rbt.Executable>
rbdock ($Id: //depot/dev/client3/rdock/2013.1/src/exe/rbdock.cxx#4 $)

>  <Rbt.Library>
libRbt.so (2013.1, Build901 2013/11/27)

>  <Rbt.Parameter_File>
/export/apps/rDock/src/rDock_2013.1_src/data/scripts/dock_solv.prm

>  <Rbt.Receptor>
prm/blind_docking_40.prm

>  <SCORE>
22.8727

>  <SCORE.INTER>
7.66926

>  <SCORE.INTER.CONST>
1

>  <SCORE.INTER.POLAR>
0

>  <SCORE.INTER.ROT>
6

>  <SCORE.INTER.SOLV>
21.0799

>  <SCORE.INTER.VDW>
-9.51378

>  <SCORE.INTER.norm>
0.247396

>  <SCORE.INTRA>
0.0225952

>  <SCORE.INTRA.DIHEDRAL>
-5.28943

>  <SCORE.INTRA.DIHEDRAL.0>
18.77

>  <SCORE.INTRA.POLAR>
0

>  <SCORE.INTRA.POLAR.0>
0

>  <SCORE.INTRA.REPUL>
7.63507e-05

>  <SCORE.INTRA.REPUL.0>
0

>  <SCORE.INTRA.SOLV>
-1.39231

>  <SCORE.INTRA.SOLV.lig_0>
-77.2465

>  <SCORE.INTRA.VDW>
3.36308

>  <SCORE.INTRA.VDW.0>
-4.16072

>  <SCORE.INTRA.norm>
0.000728879

>  <SCORE.RESTR>
15.1809

>  <SCORE.RESTR.CAVITY>
15.1809

>  <SCORE.RESTR.norm>
0.489706

>  <SCORE.SYSTEM>
0

>  <SCORE.SYSTEM.CONST>
0

>  <SCORE.SYSTEM.DIHEDRAL>
0

>  <SCORE.SYSTEM.SOLV>
0

>  <SCORE.SYSTEM.norm>
0

>  <SCORE.heavy>
31

>  <SCORE.norm>
0.73783

>  <RMSD>
8.169

$$$$
ligand
 OpenBabel11021811493D
libRbt.so/2013.1/901 2013/11/27
 31 33  0  0  0  0  0  0  0  0999 V2000
   -2.5108  -13.8642  -14.1778 C   0  0  2  0  0  0  0  0  0  0  0  0
   -2.1349  -12.5531  -14.6210 O   0  0  0  0  0  0  0  0  0  0  0  0
   -4.0237  -10.0620  -17.5451 C   0  0  2  0  0  0  0  0  0  0  0  0
   -4.3990   -9.5150  -18.8132 N   0  0  0  0  0  0  0  0  0  0  0  0
   -6.5898  -11.1912  -18.8002 C   0  0  2  0  0  0  0  0  0  0  0  0
   -1.9590  -14.0114  -12.7163 C   0  0  2  0  0  0  0  0  0  0  0  0
   -2.5053  -12.9526  -11.8747 N   0  0  0  0  0  0  0  0  0  0  0  0
   -2.4611   -9.9305  -17.3753 C   0  0  0  0  0  0  0  0  0  0  0  0
   -8.0792  -11.5624  -18.5221 C   0  0  2  0  0  0  0  0  0  0  0  0
   -8.5051  -10.9077  -17.3394 O   0  0  0  0  0  0  0  0  0  0  0  0
   -0.3917  -13.9546  -12.7322 C   0  0  0  0  0  0  0  0  0  0  0  0
   -2.0464  -10.5313  -15.9631 C   0  0  2  0  0  0  0  0  0  0  0  0
   -0.5793  -10.4147  -15.7930 N   0  0  0  0  0  0  0  0  0  0  0  0
   -8.1430  -13.1446  -18.3524 C   0  0  1  0  0  0  0  0  0  0  0  0
   -9.5454  -13.5886  -18.0467 N   0  0  0  0  0  0  0  0  0  0  0  0
    0.1851  -14.8844  -13.8386 C   0  0  0  0  0  0  0  0  0  0  0  0
   -2.4925  -12.0589  -15.8830 C   0  0  2  0  0  0  0  0  0  0  0  0
   -7.6471  -13.8509  -19.7337 C   0  0  1  0  0  0  0  0  0  0  0  0
   -8.4606  -13.4953  -20.8349 O   0  0  0  0  0  0  0  0  0  0  0  0
   -0.5762  -15.2911  -14.8656 C   0  0  2  0  0  0  0  0  0  0  0  0
   -1.9553  -14.9150  -15.0243 O   0  0  0  0  0  0  0  0  0  0  0  0
   -4.0624  -12.1567  -16.0866 C   0  0  2  0  0  0  0  0  0  0  0  0
   -4.4732  -13.5289  -16.0411 O   0  0  0  0  0  0  0  0  0  0  0  0
   -6.1848  -13.3906  -20.0533 C   0  0  0  0  0  0  0  0  0  0  0  0
   -6.1114  -11.8730  -20.0563 O   0  0  0  0  0  0  0  0  0  0  0  0
   -0.0220  -16.2172  -15.9732 C   0  0  0  0  0  0  0  0  0  0  0  0
   -0.8790  -17.3873  -16.1030 N   0  0  0  0  0  0  0  0  0  0  0  0
   -4.4556  -11.5571  -17.4850 C   0  0  1  0  0  0  0  0  0  0  0  0
   -5.8525  -11.6567  -17.6262 O   0  0  0  0  0  0  0  0  0  0  0  0
   -7.6449  -15.3886  -19.7335 C   0  0  0  0  0  0  0  0  0  0  0  0
   -9.9013  -13.6971  -16.6192 C   0  0  0  0  0  0  0  0  0  0  0  0
  1  2  1  6  0  0  0
  1  6  1  0  0  0  0
  1 21  1  0  0  0  0
  3  4  1  6  0  0  0
  3  8  1  0  0  0  0
  3 28  1  0  0  0  0
  5  9  1  0  0  0  0
  5 25  1  0  0  0  0
  5 29  1  1  0  0  0
  6  7  1  1  0  0  0
  6 11  1  0  0  0  0
  8 12  1  0  0  0  0
  9 10  1  1  0  0  0
  9 14  1  0  0  0  0
 11 16  1  0  0  0  0
 12 13  1  6  0  0  0
 12 17  1  0  0  0  0
 14 15  1  6  0  0  0
 14 18  1  0  0  0  0
 15 31  1  0  0  0  0
 16 20  1  0  0  0  0
 17  2  1  1  0  0  0
 17 22  1  0  0  0  0
 18 19  1  6  0  0  0
 18 24  1  0  0  0  0
 18 30  1  0  0  0  0
 20 21  1  0  0  0  0
 20 26  1  1  0  0  0
 22 23  1  6  0  0  0
 22 28  1  0  0  0  0
 24 25  1  0  0  0  0
 26 27  1  0  0  0  0
 28 29  1  1  0  0  0
M  END
>  <CHROM.1>
-178.40113509,177.84330644,-92.00220349,173.88665182,125.90786118,60.33698825
-4.37964685,-12.90017000,-16.75132837,0.25913765,0.56364917,2.96426267

>  <Name>
ligand

>  <RI>
0

>  <Rbt.Current_Directory>
/home/itssahil/PROJECTS/Mol_Feturizer/New_Systems/rnas/4F8U

>  <Rbt.Executable>
rbdock ($Id: //depot/dev/client3/rdock/2013.1/src/exe/rbdock.cxx#4 $)

>  <Rbt.Library>
libRbt.so (2013.1, Build901 2013/11/27)

>  <Rbt.Parameter_File>
/export/apps/rDock/src/rDock_2013.1_src/data/scripts/dock_solv.prm

>  <Rbt.Receptor>
prm/pocket_docking_8.prm

>  <SCORE>
-10.6531

>  <SCORE.INTER>
-3.62295

>  <SCORE.INTER.CONST>
1

>  <SCORE.INTER.POLAR>
0

>  <SCORE.INTER.ROT>
6

>  <SCORE.INTER.SOLV>
13.9799

>  <SCORE.INTER.VDW>
-14.6753

>  <SCORE.INTER.norm>
-0.116869

>  <SCORE.INTRA>
-7.03016

>  <SCORE.INTRA.DIHEDRAL>
-16.1584

>  <SCORE.INTRA.DIHEDRAL.0>
18.77

>  <SCORE.INTRA.POLAR>
0

>  <SCORE.INTRA.POLAR.0>
0

>  <SCORE.INTRA.REPUL>
0

>  <SCORE.INTRA.REPUL.0>
0

>  <SCORE.INTRA.SOLV>
-1.66024

>  <SCORE.INTRA.SOLV.lig_0>
-77.2465

>  <SCORE.INTRA.VDW>
1.87917

>  <SCORE.INTRA.VDW.0>
-4.16072

>  <SCORE.INTRA.norm>
-0.226779

>  <SCORE.RESTR>
0

>  <SCORE.RESTR.CAVITY>
0

>  <SCORE.RESTR.norm>
0

>  <SCORE.SYSTEM>
0

>  <SCORE.SYSTEM.CONST>
0

>  <SCORE.SYSTEM.DIHEDRAL>
0

>  <SCORE.SYSTEM.SOLV>
0

>  <SCORE.SYSTEM.norm>
0

>  <SCORE.heavy>
31

>  <SCORE.norm>
-0.343649

>  <RMSD>
8.183

$$$$
ligand
 OpenBabel11021811493D
libRbt.so/2013.1/901 2013/11/27
 31 33  0  0  0  0  0  0  0  0999 V2000
    0.1467   -8.7140  -16.7296 C   0  0  2  0  0  0  0  0  0  0  0  0
    0.3592   -9.7985  -17.6435 O   0  0  0  0  0  0  0  0  0  0  0  0
   -2.1747  -12.9348  -19.0811 C   0  0  2  0  0  0  0  0  0  0  0  0
   -2.9678  -14.1258  -19.1051 N   0  0  0  0  0  0  0  0  0  0  0  0
   -5.0590  -10.9792  -17.5119 C   0  0  2  0  0  0  0  0  0  0  0  0
    1.3514   -7.7282  -16.9263 C   0  0  2  0  0  0  0  0  0  0  0  0
    1.4086   -7.2917  -18.3170 N   0  0  0  0  0  0  0  0  0  0  0  0
   -0.6951  -13.3152  -18.6886 C   0  0  0  0  0  0  0  0  0  0  0  0
   -6.4579  -11.3291  -18.1068 C   0  0  2  0  0  0  0  0  0  0  0  0
   -6.6045  -12.7383  -18.1440 O   0  0  0  0  0  0  0  0  0  0  0  0
    2.6888   -8.4344  -16.5110 C   0  0  0  0  0  0  0  0  0  0  0  0
    0.1866  -11.9924  -18.6700 C   0  0  2  0  0  0  0  0  0  0  0  0
    1.5793  -12.3374  -18.3006 N   0  0  0  0  0  0  0  0  0  0  0  0
   -6.5101  -10.7116  -19.5738 C   0  0  1  0  0  0  0  0  0  0  0  0
   -7.8194  -11.0319  -20.2374 N   0  0  0  0  0  0  0  0  0  0  0  0
    2.5342   -9.1499  -15.1378 C   0  0  0  0  0  0  0  0  0  0  0  0
   -0.4242  -10.9607  -17.6206 C   0  0  2  0  0  0  0  0  0  0  0  0
   -6.3395   -9.0945  -19.4796 C   0  0  1  0  0  0  0  0  0  0  0  0
   -7.3674   -8.4947  -18.7150 O   0  0  0  0  0  0  0  0  0  0  0  0
    1.3225   -9.4602  -14.6529 C   0  0  2  0  0  0  0  0  0  0  0  0
    0.0956   -9.1617  -15.3417 O   0  0  0  0  0  0  0  0  0  0  0  0
   -1.9194  -10.6234  -18.0283 C   0  0  2  0  0  0  0  0  0  0  0  0
   -2.4885   -9.7144  -17.0776 O   0  0  0  0  0  0  0  0  0  0  0  0
   -4.9745   -8.7584  -18.7896 C   0  0  0  0  0  0  0  0  0  0  0  0
   -4.8777   -9.4840  -17.4581 O   0  0  0  0  0  0  0  0  0  0  0  0
    1.1481  -10.1686  -13.2893 C   0  0  0  0  0  0  0  0  0  0  0  0
    0.5688  -11.4883  -13.4972 N   0  0  0  0  0  0  0  0  0  0  0  0
   -2.7763  -11.9406  -18.0442 C   0  0  1  0  0  0  0  0  0  0  0  0
   -4.0914  -11.6021  -18.4144 O   0  0  0  0  0  0  0  0  0  0  0  0
   -6.3634   -8.3417  -20.8202 C   0  0  0  0  0  0  0  0  0  0  0  0
   -7.8366  -12.2194  -21.1125 C   0  0  0  0  0  0  0  0  0  0  0  0
  1  2  1  6  0  0  0
  1  6  1  0  0  0  0
  1 21  1  0  0  0  0
  3  4  1  1  0  0  0
  3  8  1  0  0  0  0
  3 28  1  0  0  0  0
  5  9  1  0  0  0  0
  5 25  1  0  0  0  0
  5 29  1  6  0  0  0
  6  7  1  6  0  0  0
  6 11  1  0  0  0  0
  8 12  1  0  0  0  0
  9 10  1  6  0  0  0
  9 14  1  0  0  0  0
 11 16  1  0  0  0  0
 12 13  1  1  0  0  0
 12 17  1  0  0  0  0
 14 15  1  1  0  0  0
 14 18  1  0  0  0  0
 15 31  1  0  0  0  0
 16 20  1  0  0  0  0
 17  2  1  6  0  0  0
 17 22  1  0  0  0  0
 18 19  1  1  0  0  0
 18 24  1  0  0  0  0
 18 30  1  0  0  0  0
 20 21  1  0  0  0  0
 20 26  1  1  0  0  0
 22 23  1  1  0  0  0
 22 28  1  0  0  0  0
 24 25  1  0  0  0  0
 26 27  1  0  0  0  0
 28 29  1  6  0  0  0
M  END
>  <CHROM.1>
171.17091960,-157.15267402,-95.34498520,-174.49819194,-115.21624995,163.66228044
-2.44865476,-10.44558535,-17.77583287,0.19939358,-0.38243477,0.19184022

>  <Name>
ligand

>  <RI>
0

>  <Rbt.Current_Directory>
/home/itssahil/PROJECTS/Mol_Feturizer/New_Systems/rnas/4F8U

>  <Rbt.Executable>
rbdock ($Id: //depot/dev/client3/rdock/2013.1/src/exe/rbdock.cxx#4 $)

>  <Rbt.Library>
libRbt.so (2013.1, Build901 2013/11/27)

>  <Rbt.Parameter_File>
/export/apps/rDock/src/rDock_2013.1_src/data/scripts/dock_solv.prm

>  <Rbt.Receptor>
prm/pocket_docking_7.prm

>  <SCORE>
-14.2097

>  <SCORE.INTER>
-8.46853

>  <SCORE.INTER.CONST>
1

>  <SCORE.INTER.POLAR>
0

>  <SCORE.INTER.ROT>
6

>  <SCORE.INTER.SOLV>
19.1286

>  <SCORE.INTER.VDW>
-19.6219

>  <SCORE.INTER.norm>
-0.273179

>  <SCORE.INTRA>
-5.74113

>  <SCORE.INTRA.DIHEDRAL>
-12.2435

>  <SCORE.INTRA.DIHEDRAL.0>
18.77

>  <SCORE.INTRA.POLAR>
0

>  <SCORE.INTRA.POLAR.0>
0

>  <SCORE.INTRA.REPUL>
0

>  <SCORE.INTRA.REPUL.0>
0

>  <SCORE.INTRA.SOLV>
-2.37845

>  <SCORE.INTRA.SOLV.lig_0>
-77.2465

>  <SCORE.INTRA.VDW>
1.56984

>  <SCORE.INTRA.VDW.0>
-4.16072

>  <SCORE.INTRA.norm>
-0.185198

>  <SCORE.RESTR>
0

>  <SCORE.RESTR.CAVITY>
0

>  <SCORE.RESTR.norm>
0

>  <SCORE.SYSTEM>
0

>  <SCORE.SYSTEM.CONST>
0

>  <SCORE.SYSTEM.DIHEDRAL>
0

>  <SCORE.SYSTEM.SOLV>
0

>  <SCORE.SYSTEM.norm>
0

>  <SCORE.heavy>
31

>  <SCORE.norm>
-0.458376

>  <RMSD>
8.191

$$$$
ligand
 OpenBabel11021811493D
libRbt.so/2013.1/901 2013/11/27
 31 33  0  0  0  0  0  0  0  0999 V2000
   -5.0599  -12.0837  -12.2424 C   0  0  2  0  0  0  0  0  0  0  0  0
   -4.1339  -11.1043  -12.7320 O   0  0  0  0  0  0  0  0  0  0  0  0
   -3.2463   -9.7657  -16.6999 C   0  0  2  0  0  0  0  0  0  0  0  0
   -2.7360   -9.7495  -18.0368 N   0  0  0  0  0  0  0  0  0  0  0  0
   -6.4633   -9.9265  -17.1909 C   0  0  2  0  0  0  0  0  0  0  0  0
   -5.2540  -11.7832  -10.7147 C   0  0  2  0  0  0  0  0  0  0  0  0
   -5.7321  -10.4163  -10.5385 N   0  0  0  0  0  0  0  0  0  0  0  0
   -2.0399   -9.9193  -15.6954 C   0  0  0  0  0  0  0  0  0  0  0  0
   -7.5408  -10.3612  -18.2317 C   0  0  2  0  0  0  0  0  0  0  0  0
   -7.8608  -11.7259  -18.0224 O   0  0  0  0  0  0  0  0  0  0  0  0
   -3.8993  -11.9994   -9.9546 C   0  0  0  0  0  0  0  0  0  0  0  0
   -2.6073   -9.9292  -14.2104 C   0  0  2  0  0  0  0  0  0  0  0  0
   -1.4823  -10.0748  -13.2573 N   0  0  0  0  0  0  0  0  0  0  0  0
   -6.9112  -10.1385  -19.6775 C   0  0  1  0  0  0  0  0  0  0  0  0
   -7.8759  -10.5658  -20.7471 N   0  0  0  0  0  0  0  0  0  0  0  0
   -3.2425  -13.3488  -10.3661 C   0  0  0  0  0  0  0  0  0  0  0  0
   -3.6345  -11.1355  -14.0414 C   0  0  2  0  0  0  0  0  0  0  0  0
   -6.5623   -8.5594  -19.8713 C   0  0  1  0  0  0  0  0  0  0  0  0
   -7.7127   -7.7433  -19.7641 O   0  0  0  0  0  0  0  0  0  0  0  0
   -3.5868  -13.9654  -11.5068 C   0  0  2  0  0  0  0  0  0  0  0  0
   -4.5695  -13.4465  -12.4199 O   0  0  0  0  0  0  0  0  0  0  0  0
   -4.8171  -10.9655  -15.0845 C   0  0  2  0  0  0  0  0  0  0  0  0
   -5.7359  -12.0583  -14.9592 O   0  0  0  0  0  0  0  0  0  0  0  0
   -5.5556   -8.1123  -18.7583 C   0  0  0  0  0  0  0  0  0  0  0  0
   -6.1060   -8.4758  -17.3895 O   0  0  0  0  0  0  0  0  0  0  0  0
   -2.9475  -15.3079  -11.9316 C   0  0  0  0  0  0  0  0  0  0  0  0
   -1.9724  -15.0702  -12.9866 N   0  0  0  0  0  0  0  0  0  0  0  0
   -4.2397  -10.9553  -16.5461 C   0  0  1  0  0  0  0  0  0  0  0  0
   -5.3154  -10.7978  -17.4400 O   0  0  0  0  0  0  0  0  0  0  0  0
   -5.9385   -8.1748  -21.2231 C   0  0  0  0  0  0  0  0  0  0  0  0
   -7.8805  -12.0008  -21.0892 C   0  0  0  0  0  0  0  0  0  0  0  0
  1  2  1  1  0  0  0
  1  6  1  0  0  0  0
  1 21  1  0  0  0  0
  3  4  1  6  0  0  0
  3  8  1  0  0  0  0
  3 28  1  0  0  0  0
  5  9  1  0  0  0  0
  5 25  1  0  0  0  0
  5 29  1  6  0  0  0
  6  7  1  6  0  0  0
  6 11  1  0  0  0  0
  8 12  1  0  0  0  0
  9 10  1  1  0  0  0
  9 14  1  0  0  0  0
 11 16  1  0  0  0  0
 12 13  1  1  0  0  0
 12 17  1  0  0  0  0
 14 15  1  6  0  0  0
 14 18  1  0  0  0  0
 15 31  1  0  0  0  0
 16 20  1  0  0  0  0
 17  2  1  1  0  0  0
 17 22  1  0  0  0  0
 18 19  1  1  0  0  0
 18 24  1  0  0  0  0
 18 30  1  0  0  0  0
 20 21  1  0  0  0  0
 20 26  1  1  0  0  0
 22 23  1  6  0  0  0
 22 28  1  0  0  0  0
 24 25  1  0  0  0  0
 26 27  1  0  0  0  0
 28 29  1  6  0  0  0
M  END
>  <CHROM.1>
174.42666858,-165.20028792,-84.30239181,-178.27155851,-103.94813422,-80.62958021
-4.95960184,-10.95661602,-15.62581571,1.12798649,0.65261439,2.23133278

>  <Name>
ligand

>  <RI>
0

>  <Rbt.Current_Directory>
/home/itssahil/PROJECTS/Mol_Feturizer/New_Systems/rnas/4F8U

>  <Rbt.Executable>
rbdock ($Id: //depot/dev/client3/rdock/2013.1/src/exe/rbdock.cxx#4 $)

>  <Rbt.Library>
libRbt.so (2013.1, Build901 2013/11/27)

>  <Rbt.Parameter_File>
/export/apps/rDock/src/rDock_2013.1_src/data/scripts/dock_solv.prm

>  <Rbt.Receptor>
prm/pocket_docking_2.prm

>  <SCORE>
-13.5258

>  <SCORE.INTER>
-7.89538

>  <SCORE.INTER.CONST>
1

>  <SCORE.INTER.POLAR>
0

>  <SCORE.INTER.ROT>
6

>  <SCORE.INTER.SOLV>
19.6014

>  <SCORE.INTER.VDW>
-19.3974

>  <SCORE.INTER.norm>
-0.25469

>  <SCORE.INTRA>
-5.90797

>  <SCORE.INTRA.DIHEDRAL>
-13.2462

>  <SCORE.INTRA.DIHEDRAL.0>
18.77

>  <SCORE.INTRA.POLAR>
0

>  <SCORE.INTRA.POLAR.0>
0

>  <SCORE.INTRA.REPUL>
0

>  <SCORE.INTRA.REPUL.0>
0

>  <SCORE.INTRA.SOLV>
-1.44422

>  <SCORE.INTRA.SOLV.lig_0>
-77.2465

>  <SCORE.INTRA.VDW>
1.43726

>  <SCORE.INTRA.VDW.0>
-4.16072

>  <SCORE.INTRA.norm>
-0.19058

>  <SCORE.RESTR>
0.277553

>  <SCORE.RESTR.CAVITY>
0.277553

>  <SCORE.RESTR.norm>
0.00895333

>  <SCORE.SYSTEM>
0

>  <SCORE.SYSTEM.CONST>
0

>  <SCORE.SYSTEM.DIHEDRAL>
0

>  <SCORE.SYSTEM.SOLV>
0

>  <SCORE.SYSTEM.norm>
0

>  <SCORE.heavy>
31

>  <SCORE.norm>
-0.436316

>  <RMSD>
8.212

$$$$
ligand
 OpenBabel11021811493D
libRbt.so/2013.1/901 2013/11/27
 31 33  0  0  0  0  0  0  0  0999 V2000
   -4.7506  -11.6765  -11.7499 C   0  0  2  0  0  0  0  0  0  0  0  0
   -3.9359  -12.4701  -12.6234 O   0  0  0  0  0  0  0  0  0  0  0  0
   -3.6355  -12.6031  -16.8914 C   0  0  2  0  0  0  0  0  0  0  0  0
   -3.9585  -12.8688  -18.2599 N   0  0  0  0  0  0  0  0  0  0  0  0
   -5.8348   -9.4642  -16.7854 C   0  0  2  0  0  0  0  0  0  0  0  0
   -3.9475  -11.5287  -10.4100 C   0  0  2  0  0  0  0  0  0  0  0  0
   -2.6491  -10.9206  -10.6787 N   0  0  0  0  0  0  0  0  0  0  0  0
   -3.5534  -13.9719  -16.1118 C   0  0  0  0  0  0  0  0  0  0  0  0
   -7.1575  -10.1660  -17.2225 C   0  0  2  0  0  0  0  0  0  0  0  0
   -7.3676  -11.3051  -16.4056 O   0  0  0  0  0  0  0  0  0  0  0  0
   -3.7731  -12.9348   -9.7376 C   0  0  0  0  0  0  0  0  0  0  0  0
   -3.1866  -13.6760  -14.5935 C   0  0  2  0  0  0  0  0  0  0  0  0
   -3.1084  -14.9553  -13.8503 N   0  0  0  0  0  0  0  0  0  0  0  0
   -6.9829  -10.5839  -18.7493 C   0  0  1  0  0  0  0  0  0  0  0  0
   -8.2063  -11.3009  -19.2458 N   0  0  0  0  0  0  0  0  0  0  0  0
   -5.1238  -13.7069   -9.7098 C   0  0  0  0  0  0  0  0  0  0  0  0
   -4.2980  -12.7313  -13.9521 C   0  0  2  0  0  0  0  0  0  0  0  0
   -6.7462   -9.2452  -19.6463 C   0  0  1  0  0  0  0  0  0  0  0  0
   -7.8358   -8.3473  -19.5598 O   0  0  0  0  0  0  0  0  0  0  0  0
   -6.1282  -13.3721  -10.5337 C   0  0  2  0  0  0  0  0  0  0  0  0
   -6.0447  -12.2964  -11.4849 O   0  0  0  0  0  0  0  0  0  0  0  0
   -4.3740  -11.3786  -14.7768 C   0  0  2  0  0  0  0  0  0  0  0  0
   -5.3878  -10.5296  -14.2242 O   0  0  0  0  0  0  0  0  0  0  0  0
   -5.4704   -8.4972  -19.1314 C   0  0  0  0  0  0  0  0  0  0  0  0
   -5.5882   -8.2458  -17.6375 O   0  0  0  0  0  0  0  0  0  0  0  0
   -7.4787  -14.1254  -10.5193 C   0  0  0  0  0  0  0  0  0  0  0  0
   -7.3045  -15.4479  -11.1034 N   0  0  0  0  0  0  0  0  0  0  0  0
   -4.7348  -11.6885  -16.2746 C   0  0  1  0  0  0  0  0  0  0  0  0
   -4.7876  -10.4677  -16.9730 O   0  0  0  0  0  0  0  0  0  0  0  0
   -6.5537   -9.4776  -21.1541 C   0  0  0  0  0  0  0  0  0  0  0  0
   -7.9938  -12.6512  -19.8005 C   0  0  0  0  0  0  0  0  0  0  0  0
  1  2  1  6  0  0  0
  1  6  1  0  0  0  0
  1 21  1  0  0  0  0
  3  4  1  6  0  0  0
  3  8  1  0  0  0  0
  3 28  1  0  0  0  0
  5  9  1  0  0  0  0
  5 25  1  0  0  0  0
  5 29  1  6  0  0  0
  6  7  1  6  0  0  0
  6 11  1  0  0  0  0
  8 12  1  0  0  0  0
  9 10  1  1  0  0  0
  9 14  1  0  0  0  0
 11 16  1  0  0  0  0
 12 13  1  1  0  0  0
 12 17  1  0  0  0  0
 14 15  1  6  0  0  0
 14 18  1  0  0  0  0
 15 31  1  0  0  0  0
 16 20  1  0  0  0  0
 17  2  1  1  0  0  0
 17 22  1  0  0  0  0
 18 19  1  1  0  0  0
 18 24  1  0  0  0  0
 18 30  1  0  0  0  0
 20 21  1  0  0  0  0
 20 26  1  1  0  0  0
 22 23  1  1  0  0  0
 22 28  1  0  0  0  0
 24 25  1  0  0  0  0
 26 27  1  0  0  0  0
 28 29  1  6  0  0  0
M  END
>  <CHROM.1>
-175.51094387,-62.79880487,-123.26411738,-178.17260197,-72.12965342,170.53452790
-5.44274584,-11.66841352,-15.18239276,-1.34572319,-0.43977749,-1.09837768

>  <Name>
ligand

>  <RI>
0

>  <Rbt.Current_Directory>
/home/itssahil/PROJECTS/Mol_Feturizer/New_Systems/rnas/4F8U

>  <Rbt.Executable>
rbdock ($Id: //depot/dev/client3/rdock/2013.1/src/exe/rbdock.cxx#4 $)

>  <Rbt.Library>
libRbt.so (2013.1, Build901 2013/11/27)

>  <Rbt.Parameter_File>
/export/apps/rDock/src/rDock_2013.1_src/data/scripts/dock_solv.prm

>  <Rbt.Receptor>
prm/pocket_docking_4.prm

>  <SCORE>
-10.0291

>  <SCORE.INTER>
-4.18887

>  <SCORE.INTER.CONST>
1

>  <SCORE.INTER.POLAR>
0

>  <SCORE.INTER.ROT>
6

>  <SCORE.INTER.SOLV>
15.6256

>  <SCORE.INTER.VDW>
-15.6011

>  <SCORE.INTER.norm>
-0.135125

>  <SCORE.INTRA>
-5.84571

>  <SCORE.INTRA.DIHEDRAL>
-13.5755

>  <SCORE.INTRA.DIHEDRAL.0>
18.77

>  <SCORE.INTRA.POLAR>
0

>  <SCORE.INTRA.POLAR.0>
0

>  <SCORE.INTRA.REPUL>
0

>  <SCORE.INTRA.REPUL.0>
0

>  <SCORE.INTRA.SOLV>
-1.84523

>  <SCORE.INTRA.SOLV.lig_0>
-77.2465

>  <SCORE.INTRA.VDW>
1.86467

>  <SCORE.INTRA.VDW.0>
-4.16072

>  <SCORE.INTRA.norm>
-0.188571

>  <SCORE.RESTR>
0.00552033

>  <SCORE.RESTR.CAVITY>
0.00552033

>  <SCORE.RESTR.norm>
0.000178075

>  <SCORE.SYSTEM>
0

>  <SCORE.SYSTEM.CONST>
0

>  <SCORE.SYSTEM.DIHEDRAL>
0

>  <SCORE.SYSTEM.SOLV>
0

>  <SCORE.SYSTEM.norm>
0

>  <SCORE.heavy>
31

>  <SCORE.norm>
-0.323518

>  <RMSD>
8.239

$$$$
ligand
 OpenBabel11021811493D
libRbt.so/2013.1/901 2013/11/27
 31 33  0  0  0  0  0  0  0  0999 V2000
   -4.9253  -12.3161  -12.2633 C   0  0  2  0  0  0  0  0  0  0  0  0
   -4.1059  -11.2360  -12.7307 O   0  0  0  0  0  0  0  0  0  0  0  0
   -3.2615   -9.6983  -16.6353 C   0  0  2  0  0  0  0  0  0  0  0  0
   -2.7468   -9.6049  -17.9674 N   0  0  0  0  0  0  0  0  0  0  0  0
   -6.4372   -9.9299  -17.1785 C   0  0  2  0  0  0  0  0  0  0  0  0
   -5.2309  -12.0175  -10.7536 C   0  0  2  0  0  0  0  0  0  0  0  0
   -5.8842  -10.7190  -10.6308 N   0  0  0  0  0  0  0  0  0  0  0  0
   -2.0537   -9.8400  -15.6307 C   0  0  0  0  0  0  0  0  0  0  0  0
   -7.5073  -10.3690  -18.2251 C   0  0  2  0  0  0  0  0  0  0  0  0
   -7.8146  -11.7380  -18.0247 O   0  0  0  0  0  0  0  0  0  0  0  0
   -3.8990  -12.0488   -9.9259 C   0  0  0  0  0  0  0  0  0  0  0  0
   -2.6263   -9.9356  -14.1508 C   0  0  2  0  0  0  0  0  0  0  0  0
   -1.5000  -10.0708  -13.1977 N   0  0  0  0  0  0  0  0  0  0  0  0
   -6.8756  -10.1318  -19.6677 C   0  0  1  0  0  0  0  0  0  0  0  0
   -7.8328  -10.5622  -20.7427 N   0  0  0  0  0  0  0  0  0  0  0  0
   -3.0591  -13.3113  -10.2757 C   0  0  0  0  0  0  0  0  0  0  0  0
   -3.6002  -11.1916  -14.0373 C   0  0  2  0  0  0  0  0  0  0  0  0
   -6.5415   -8.5483  -19.8513 C   0  0  1  0  0  0  0  0  0  0  0  0
   -7.7001   -7.7440  -19.7428 O   0  0  0  0  0  0  0  0  0  0  0  0
   -3.2667  -13.9849  -11.4171 C   0  0  2  0  0  0  0  0  0  0  0  0
   -4.2602  -13.6090  -12.3869 O   0  0  0  0  0  0  0  0  0  0  0  0
   -4.7848  -11.0308  -15.0796 C   0  0  2  0  0  0  0  0  0  0  0  0
   -5.6551  -12.1670  -15.0044 O   0  0  0  0  0  0  0  0  0  0  0  0
   -5.5425   -8.0979  -18.7326 C   0  0  0  0  0  0  0  0  0  0  0  0
   -6.0934   -8.4748  -17.3676 O   0  0  0  0  0  0  0  0  0  0  0  0
   -2.4443  -15.2430  -11.7812 C   0  0  0  0  0  0  0  0  0  0  0  0
   -1.2949  -14.8565  -12.5873 N   0  0  0  0  0  0  0  0  0  0  0  0
   -4.2023  -10.9354  -16.5361 C   0  0  1  0  0  0  0  0  0  0  0  0
   -5.2801  -10.7886  -17.4292 O   0  0  0  0  0  0  0  0  0  0  0  0
   -5.9173   -8.1498  -21.1989 C   0  0  0  0  0  0  0  0  0  0  0  0
   -7.8232  -11.9954  -21.0924 C   0  0  0  0  0  0  0  0  0  0  0  0
  1  2  1  1  0  0  0
  1  6  1  0  0  0  0
  1 21  1  0  0  0  0
  3  4  1  6  0  0  0
  3  8  1  0  0  0  0
  3 28  1  0  0  0  0
  5  9  1  0  0  0  0
  5 25  1  0  0  0  0
  5 29  1  6  0  0  0
  6  7  1  6  0  0  0
  6 11  1  0  0  0  0
  8 12  1  0  0  0  0
  9 10  1  1  0  0  0
  9 14  1  0  0  0  0
 11 16  1  0  0  0  0
 12 13  1  1  0  0  0
 12 17  1  0  0  0  0
 14 15  1  6  0  0  0
 14 18  1  0  0  0  0
 15 31  1  0  0  0  0
 16 20  1  0  0  0  0
 17  2  1  1  0  0  0
 17 22  1  0  0  0  0
 18 19  1  1  0  0  0
 18 24  1  0  0  0  0
 18 30  1  0  0  0  0
 20 21  1  0  0  0  0
 20 26  1  1  0  0  0
 22 23  1  6  0  0  0
 22 28  1  0  0  0  0
 24 25  1  0  0  0  0
 26 27  1  0  0  0  0
 28 29  1  6  0  0  0
M  END
>  <CHROM.1>
177.85538856,-165.54903089,-84.25471349,-174.45982435,-92.83731228,-77.64132589
-4.87870260,-10.97917542,-15.59141685,1.13644898,0.55812784,2.20267123

>  <Name>
ligand

>  <RI>
0

>  <Rbt.Current_Directory>
/home/itssahil/PROJECTS/Mol_Feturizer/New_Systems/rnas/4F8U

>  <Rbt.Executable>
rbdock ($Id: //depot/dev/client3/rdock/2013.1/src/exe/rbdock.cxx#4 $)

>  <Rbt.Library>
libRbt.so (2013.1, Build901 2013/11/27)

>  <Rbt.Parameter_File>
/export/apps/rDock/src/rDock_2013.1_src/data/scripts/dock_solv.prm

>  <Rbt.Receptor>
prm/pocket_docking_2.prm

>  <SCORE>
-13.556

>  <SCORE.INTER>
-7.72396

>  <SCORE.INTER.CONST>
1

>  <SCORE.INTER.POLAR>
0

>  <SCORE.INTER.ROT>
6

>  <SCORE.INTER.SOLV>
20.1281

>  <SCORE.INTER.VDW>
-19.4587

>  <SCORE.INTER.norm>
-0.24916

>  <SCORE.INTRA>
-6.09754

>  <SCORE.INTRA.DIHEDRAL>
-13.2631

>  <SCORE.INTRA.DIHEDRAL.0>
18.77

>  <SCORE.INTRA.POLAR>
0

>  <SCORE.INTRA.POLAR.0>
0

>  <SCORE.INTRA.REPUL>
0

>  <SCORE.INTRA.REPUL.0>
0

>  <SCORE.INTRA.SOLV>
-1.4166

>  <SCORE.INTRA.SOLV.lig_0>
-77.2465

>  <SCORE.INTRA.VDW>
1.24232

>  <SCORE.INTRA.VDW.0>
-4.16072

>  <SCORE.INTRA.norm>
-0.196695

>  <SCORE.RESTR>
0.265482

>  <SCORE.RESTR.CAVITY>
0.265482

>  <SCORE.RESTR.norm>
0.00856395

>  <SCORE.SYSTEM>
0

>  <SCORE.SYSTEM.CONST>
0

>  <SCORE.SYSTEM.DIHEDRAL>
0

>  <SCORE.SYSTEM.SOLV>
0

>  <SCORE.SYSTEM.norm>
0

>  <SCORE.heavy>
31

>  <SCORE.norm>
-0.437291

>  <RMSD>
8.251

$$$$
ligand
 OpenBabel11021811493D
libRbt.so/2013.1/901 2013/11/27
 31 33  0  0  0  0  0  0  0  0999 V2000
   -4.9313  -12.2882  -12.2771 C   0  0  2  0  0  0  0  0  0  0  0  0
   -4.1198  -11.2132  -12.7693 O   0  0  0  0  0  0  0  0  0  0  0  0
   -3.2797   -9.7304  -16.6960 C   0  0  2  0  0  0  0  0  0  0  0  0
   -2.7729   -9.6590  -18.0324 N   0  0  0  0  0  0  0  0  0  0  0  0
   -6.4661   -9.9274  -17.2115 C   0  0  2  0  0  0  0  0  0  0  0  0
   -5.2333  -11.9607  -10.7726 C   0  0  2  0  0  0  0  0  0  0  0  0
   -5.8936  -10.6638  -10.6739 N   0  0  0  0  0  0  0  0  0  0  0  0
   -2.0673   -9.8790  -15.6981 C   0  0  0  0  0  0  0  0  0  0  0  0
   -7.5482  -10.3632  -18.2471 C   0  0  2  0  0  0  0  0  0  0  0  0
   -7.8676  -11.7276  -18.0346 O   0  0  0  0  0  0  0  0  0  0  0  0
   -3.8984  -11.9677   -9.9494 C   0  0  0  0  0  0  0  0  0  0  0  0
   -2.6310   -9.9502  -14.2133 C   0  0  2  0  0  0  0  0  0  0  0  0
   -1.5003  -10.0917  -13.2664 N   0  0  0  0  0  0  0  0  0  0  0  0
   -6.9248  -10.1427  -19.6959 C   0  0  1  0  0  0  0  0  0  0  0  0
   -7.8941  -10.5713  -20.7608 N   0  0  0  0  0  0  0  0  0  0  0  0
   -3.0524  -13.2322  -10.2765 C   0  0  0  0  0  0  0  0  0  0  0  0
   -3.6224  -11.1904  -14.0796 C   0  0  2  0  0  0  0  0  0  0  0  0
   -6.5763   -8.5640  -19.8935 C   0  0  1  0  0  0  0  0  0  0  0  0
   -7.7261   -7.7475  -19.7824 O   0  0  0  0  0  0  0  0  0  0  0  0
   -3.2602  -13.9300  -11.4033 C   0  0  2  0  0  0  0  0  0  0  0  0
   -4.2592  -13.5795  -12.3769 O   0  0  0  0  0  0  0  0  0  0  0  0
   -4.8117  -11.0234  -15.1157 C   0  0  2  0  0  0  0  0  0  0  0  0
   -5.6981  -12.1457  -15.0222 O   0  0  0  0  0  0  0  0  0  0  0  0
   -5.5648   -8.1156  -18.7853 C   0  0  0  0  0  0  0  0  0  0  0  0
   -6.1094   -8.4771  -17.4137 O   0  0  0  0  0  0  0  0  0  0  0  0
   -2.4319  -15.1906  -11.7447 C   0  0  0  0  0  0  0  0  0  0  0  0
   -1.3084  -14.8193  -12.5935 N   0  0  0  0  0  0  0  0  0  0  0  0
   -4.2379  -10.9524  -16.5769 C   0  0  1  0  0  0  0  0  0  0  0  0
   -5.3196  -10.7993  -17.4644 O   0  0  0  0  0  0  0  0  0  0  0  0
   -5.9582   -8.1814  -21.2484 C   0  0  0  0  0  0  0  0  0  0  0  0
   -7.9058  -12.0079  -21.0957 C   0  0  0  0  0  0  0  0  0  0  0  0
  1  2  1  1  0  0  0
  1  6  1  0  0  0  0
  1 21  1  0  0  0  0
  3  4  1  6  0  0  0
  3  8  1  0  0  0  0
  3 28  1  0  0  0  0
  5  9  1  0  0  0  0
  5 25  1  0  0  0  0
  5 29  1  6  0  0  0
  6  7  1  6  0  0  0
  6 11  1  0  0  0  0
  8 12  1  0  0  0  0
  9 10  1  1  0  0  0
  9 14  1  0  0  0  0
 11 16  1  0  0  0  0
 12 13  1  1  0  0  0
 12 17  1  0  0  0  0
 14 15  1  6  0  0  0
 14 18  1  0  0  0  0
 15 31  1  0  0  0  0
 16 20  1  0  0  0  0
 17  2  1  1  0  0  0
 17 22  1  0  0  0  0
 18 19  1  1  0  0  0
 18 24  1  0  0  0  0
 18 30  1  0  0  0  0
 20 21  1  0  0  0  0
 20 26  1  1  0  0  0
 22 23  1  6  0  0  0
 22 28  1  0  0  0  0
 24 25  1  0  0  0  0
 26 27  1  0  0  0  0
 28 29  1  6  0  0  0
M  END
>  <CHROM.1>
178.06273736,-165.42618949,-83.97807823,-173.27981805,-94.40596856,-78.03967665
-4.90173048,-10.97095429,-15.62102006,1.14046959,0.52297186,2.18023723

>  <Name>
ligand

>  <RI>
0

>  <Rbt.Current_Directory>
/home/itssahil/PROJECTS/Mol_Feturizer/New_Systems/rnas/4F8U

>  <Rbt.Executable>
rbdock ($Id: //depot/dev/client3/rdock/2013.1/src/exe/rbdock.cxx#4 $)

>  <Rbt.Library>
libRbt.so (2013.1, Build901 2013/11/27)

>  <Rbt.Parameter_File>
/export/apps/rDock/src/rDock_2013.1_src/data/scripts/dock_solv.prm

>  <Rbt.Receptor>
prm/pocket_docking_2.prm

>  <SCORE>
-13.6764

>  <SCORE.INTER>
-7.8911

>  <SCORE.INTER.CONST>
1

>  <SCORE.INTER.POLAR>
0

>  <SCORE.INTER.ROT>
6

>  <SCORE.INTER.SOLV>
19.9768

>  <SCORE.INTER.VDW>
-19.5197

>  <SCORE.INTER.norm>
-0.254552

>  <SCORE.INTRA>
-6.10259

>  <SCORE.INTRA.DIHEDRAL>
-13.2065

>  <SCORE.INTRA.DIHEDRAL.0>
18.77

>  <SCORE.INTRA.POLAR>
0

>  <SCORE.INTRA.POLAR.0>
0

>  <SCORE.INTRA.REPUL>
0

>  <SCORE.INTRA.REPUL.0>
0

>  <SCORE.INTRA.SOLV>
-1.40085

>  <SCORE.INTRA.SOLV.lig_0>
-77.2465

>  <SCORE.INTRA.VDW>
1.20109

>  <SCORE.INTRA.VDW.0>
-4.16072

>  <SCORE.INTRA.norm>
-0.196858

>  <SCORE.RESTR>
0.317297

>  <SCORE.RESTR.CAVITY>
0.317297

>  <SCORE.RESTR.norm>
0.0102354

>  <SCORE.SYSTEM>
0

>  <SCORE.SYSTEM.CONST>
0

>  <SCORE.SYSTEM.DIHEDRAL>
0

>  <SCORE.SYSTEM.SOLV>
0

>  <SCORE.SYSTEM.norm>
0

>  <SCORE.heavy>
31

>  <SCORE.norm>
-0.441174

>  <RMSD>
8.259

$$$$
ligand
 OpenBabel11021811493D
libRbt.so/2013.1/901 2013/11/27
 31 33  0  0  0  0  0  0  0  0999 V2000
   -4.9292  -12.3661  -12.2661 C   0  0  2  0  0  0  0  0  0  0  0  0
   -4.1626  -11.2521  -12.7435 O   0  0  0  0  0  0  0  0  0  0  0  0
   -3.3126   -9.6914  -16.6378 C   0  0  2  0  0  0  0  0  0  0  0  0
   -2.7938   -9.5890  -17.9676 N   0  0  0  0  0  0  0  0  0  0  0  0
   -6.4832   -9.9330  -17.1949 C   0  0  2  0  0  0  0  0  0  0  0  0
   -5.2595  -12.0630  -10.7625 C   0  0  2  0  0  0  0  0  0  0  0  0
   -5.9788  -10.7980  -10.6616 N   0  0  0  0  0  0  0  0  0  0  0  0
   -2.1075   -9.8319  -15.6297 C   0  0  0  0  0  0  0  0  0  0  0  0
   -7.5510  -10.3767  -18.2419 C   0  0  2  0  0  0  0  0  0  0  0  0
   -7.8538  -11.7466  -18.0404 O   0  0  0  0  0  0  0  0  0  0  0  0
   -3.9333  -12.0155   -9.9266 C   0  0  0  0  0  0  0  0  0  0  0  0
   -2.6847   -9.9375  -14.1522 C   0  0  2  0  0  0  0  0  0  0  0  0
   -1.5610  -10.0717  -13.1959 N   0  0  0  0  0  0  0  0  0  0  0  0
   -6.9190  -10.1388  -19.6842 C   0  0  1  0  0  0  0  0  0  0  0  0
   -7.8739  -10.5736  -20.7596 N   0  0  0  0  0  0  0  0  0  0  0  0
   -3.0281  -13.2381  -10.2539 C   0  0  0  0  0  0  0  0  0  0  0  0
   -3.6527  -11.1989  -14.0481 C   0  0  2  0  0  0  0  0  0  0  0  0
   -6.5901   -8.5543  -19.8692 C   0  0  1  0  0  0  0  0  0  0  0  0
   -7.7515   -7.7540  -19.7624 O   0  0  0  0  0  0  0  0  0  0  0  0
   -3.1936  -13.9367  -11.3871 C   0  0  2  0  0  0  0  0  0  0  0  0
   -4.1985  -13.6250  -12.3679 O   0  0  0  0  0  0  0  0  0  0  0  0
   -4.8345  -11.0390  -15.0937 C   0  0  2  0  0  0  0  0  0  0  0  0
   -5.6994  -12.1798  -15.0270 O   0  0  0  0  0  0  0  0  0  0  0  0
   -5.5936   -8.0995  -18.7501 C   0  0  0  0  0  0  0  0  0  0  0  0
   -6.1443   -8.4768  -17.3852 O   0  0  0  0  0  0  0  0  0  0  0  0
   -2.3060  -15.1562  -11.7289 C   0  0  0  0  0  0  0  0  0  0  0  0
   -1.2047  -14.7325  -12.5821 N   0  0  0  0  0  0  0  0  0  0  0  0
   -4.2475  -10.9337  -16.5477 C   0  0  1  0  0  0  0  0  0  0  0  0
   -5.3230  -10.7880  -17.4438 O   0  0  0  0  0  0  0  0  0  0  0  0
   -5.9663   -8.1551  -21.2167 C   0  0  0  0  0  0  0  0  0  0  0  0
   -7.8757  -12.0109  -21.0915 C   0  0  0  0  0  0  0  0  0  0  0  0
  1  2  1  1  0  0  0
  1  6  1  0  0  0  0
  1 21  1  0  0  0  0
  3  4  1  6  0  0  0
  3  8  1  0  0  0  0
  3 28  1  0  0  0  0
  5  9  1  0  0  0  0
  5 25  1  0  0  0  0
  5 29  1  6  0  0  0
  6  7  1  6  0  0  0
  6 11  1  0  0  0  0
  8 12  1  0  0  0  0
  9 10  1  1  0  0  0
  9 14  1  0  0  0  0
 11 16  1  0  0  0  0
 12 13  1  1  0  0  0
 12 17  1  0  0  0  0
 14 15  1  6  0  0  0
 14 18  1  0  0  0  0
 15 31  1  0  0  0  0
 16 20  1  0  0  0  0
 17  2  1  1  0  0  0
 17 22  1  0  0  0  0
 18 19  1  1  0  0  0
 18 24  1  0  0  0  0
 18 30  1  0  0  0  0
 20 21  1  0  0  0  0
 20 26  1  1  0  0  0
 22 23  1  6  0  0  0
 22 28  1  0  0  0  0
 24 25  1  0  0  0  0
 26 27  1  0  0  0  0
 28 29  1  6  0  0  0
M  END
>  <CHROM.1>
177.94081453,-165.32512502,-83.23401672,-171.66953607,-95.30571071,-77.43773874
-4.90606409,-10.97665876,-15.59717532,1.13891476,0.51932191,2.18286505

>  <Name>
ligand

>  <RI>
0

>  <Rbt.Current_Directory>
/home/itssahil/PROJECTS/Mol_Feturizer/New_Systems/rnas/4F8U

>  <Rbt.Executable>
rbdock ($Id: //depot/dev/client3/rdock/2013.1/src/exe/rbdock.cxx#4 $)

>  <Rbt.Library>
libRbt.so (2013.1, Build901 2013/11/27)

>  <Rbt.Parameter_File>
/export/apps/rDock/src/rDock_2013.1_src/data/scripts/dock_solv.prm

>  <Rbt.Receptor>
prm/pocket_docking_2.prm

>  <SCORE>
-13.7267

>  <SCORE.INTER>
-7.94427

>  <SCORE.INTER.CONST>
1

>  <SCORE.INTER.POLAR>
0

>  <SCORE.INTER.ROT>
6

>  <SCORE.INTER.SOLV>
19.8168

>  <SCORE.INTER.VDW>
-19.5018

>  <SCORE.INTER.norm>
-0.256267

>  <SCORE.INTRA>
-6.10978

>  <SCORE.INTRA.DIHEDRAL>
-13.2311

>  <SCORE.INTRA.DIHEDRAL.0>
18.77

>  <SCORE.INTRA.POLAR>
0

>  <SCORE.INTRA.POLAR.0>
0

>  <SCORE.INTRA.REPUL>
0

>  <SCORE.INTRA.REPUL.0>
0

>  <SCORE.INTRA.SOLV>
-1.30898

>  <SCORE.INTRA.SOLV.lig_0>
-77.2465

>  <SCORE.INTRA.VDW>
1.16025

>  <SCORE.INTRA.VDW.0>
-4.16072

>  <SCORE.INTRA.norm>
-0.19709

>  <SCORE.RESTR>
0.327345

>  <SCORE.RESTR.CAVITY>
0.327345

>  <SCORE.RESTR.norm>
0.0105595

>  <SCORE.SYSTEM>
0

>  <SCORE.SYSTEM.CONST>
0

>  <SCORE.SYSTEM.DIHEDRAL>
0

>  <SCORE.SYSTEM.SOLV>
0

>  <SCORE.SYSTEM.norm>
0

>  <SCORE.heavy>
31

>  <SCORE.norm>
-0.442797

>  <RMSD>
8.263

$$$$
ligand
 OpenBabel11021811493D
libRbt.so/2013.1/901 2013/11/27
 31 33  0  0  0  0  0  0  0  0999 V2000
   -2.0277  -11.5895  -12.5567 C   0  0  2  0  0  0  0  0  0  0  0  0
   -3.0446  -11.5665  -13.5677 O   0  0  0  0  0  0  0  0  0  0  0  0
   -3.0074   -9.6727  -17.4064 C   0  0  2  0  0  0  0  0  0  0  0  0
   -2.7128   -9.4181  -18.7835 N   0  0  0  0  0  0  0  0  0  0  0  0
   -6.1567  -10.3186  -17.5410 C   0  0  2  0  0  0  0  0  0  0  0  0
   -1.4000  -13.0270  -12.5942 C   0  0  2  0  0  0  0  0  0  0  0  0
   -0.8766  -13.3012  -13.9279 N   0  0  0  0  0  0  0  0  0  0  0  0
   -1.6569   -9.6958  -16.5918 C   0  0  0  0  0  0  0  0  0  0  0  0
   -7.2567  -10.6723  -18.5890 C   0  0  2  0  0  0  0  0  0  0  0  0
   -7.4265  -12.0790  -18.6233 O   0  0  0  0  0  0  0  0  0  0  0  0
   -2.4819  -14.0895  -12.1935 C   0  0  0  0  0  0  0  0  0  0  0  0
   -1.9861   -9.9708  -15.0610 C   0  0  2  0  0  0  0  0  0  0  0  0
   -0.7238   -9.9964  -14.2856 N   0  0  0  0  0  0  0  0  0  0  0  0
   -6.7544  -10.1242  -19.9974 C   0  0  1  0  0  0  0  0  0  0  0  0
   -7.7450  -10.4532  -21.0780 N   0  0  0  0  0  0  0  0  0  0  0  0
   -3.2439  -13.6476  -10.9108 C   0  0  0  0  0  0  0  0  0  0  0  0
   -2.7482  -11.3632  -14.9225 C   0  0  2  0  0  0  0  0  0  0  0  0
   -6.5758   -8.5077  -19.9093 C   0  0  1  0  0  0  0  0  0  0  0  0
   -7.7901   -7.8548  -19.5929 O   0  0  0  0  0  0  0  0  0  0  0  0
   -3.2482  -12.3652  -10.5170 C   0  0  2  0  0  0  0  0  0  0  0  0
   -2.5633  -11.3183  -11.2268 O   0  0  0  0  0  0  0  0  0  0  0  0
   -4.0842  -11.3154  -15.7759 C   0  0  2  0  0  0  0  0  0  0  0  0
   -4.7673  -12.5716  -15.6792 O   0  0  0  0  0  0  0  0  0  0  0  0
   -5.5423   -8.1627  -18.7845 C   0  0  0  0  0  0  0  0  0  0  0  0
   -5.9576   -8.8258  -17.4820 O   0  0  0  0  0  0  0  0  0  0  0  0
   -3.9972  -11.9069   -9.2439 C   0  0  0  0  0  0  0  0  0  0  0  0
   -5.0902  -11.0192   -9.6154 N   0  0  0  0  0  0  0  0  0  0  0  0
   -3.7419  -11.0406  -17.2849 C   0  0  1  0  0  0  0  0  0  0  0  0
   -4.9495  -11.0001  -18.0067 O   0  0  0  0  0  0  0  0  0  0  0  0
   -6.0884   -7.8190  -21.1948 C   0  0  0  0  0  0  0  0  0  0  0  0
   -7.5009  -11.6965  -21.8335 C   0  0  0  0  0  0  0  0  0  0  0  0
  1  2  1  6  0  0  0
  1  6  1  0  0  0  0
  1 21  1  0  0  0  0
  3  4  1  6  0  0  0
  3  8  1  0  0  0  0
  3 28  1  0  0  0  0
  5  9  1  0  0  0  0
  5 25  1  0  0  0  0
  5 29  1  6  0  0  0
  6  7  1  6  0  0  0
  6 11  1  0  0  0  0
  8 12  1  0  0  0  0
  9 10  1  6  0  0  0
  9 14  1  0  0  0  0
 11 16  1  0  0  0  0
 12 13  1  1  0  0  0
 12 17  1  0  0  0  0
 14 15  1  6  0  0  0
 14 18  1  0  0  0  0
 15 31  1  0  0  0  0
 16 20  1  0  0  0  0
 17  2  1  1  0  0  0
 17 22  1  0  0  0  0
 18 19  1  1  0  0  0
 18 24  1  0  0  0  0
 18 30  1  0  0  0  0
 20 21  1  0  0  0  0
 20 26  1  1  0  0  0
 22 23  1  6  0  0  0
 22 28  1  0  0  0  0
 24 25  1  0  0  0  0
 26 27  1  0  0  0  0
 28 29  1  6  0  0  0
M  END
>  <CHROM.1>
-81.13269507,-174.24385916,-94.00302542,-57.61201162,-114.66310869,-76.31286534
-4.33639836,-10.84885374,-15.98676301,-1.13153246,-0.23251289,-1.16056911

>  <Name>
ligand

>  <RI>
0

>  <Rbt.Current_Directory>
/home/itssahil/PROJECTS/Mol_Feturizer/New_Systems/rnas/4F8U

>  <Rbt.Executable>
rbdock ($Id: //depot/dev/client3/rdock/2013.1/src/exe/rbdock.cxx#4 $)

>  <Rbt.Library>
libRbt.so (2013.1, Build901 2013/11/27)

>  <Rbt.Parameter_File>
/export/apps/rDock/src/rDock_2013.1_src/data/scripts/dock_solv.prm

>  <Rbt.Receptor>
prm/pocket_docking_4.prm

>  <SCORE>
-14.1478

>  <SCORE.INTER>
-11.512

>  <SCORE.INTER.CONST>
1

>  <SCORE.INTER.POLAR>
0

>  <SCORE.INTER.ROT>
6

>  <SCORE.INTER.SOLV>
20.9334

>  <SCORE.INTER.VDW>
-22.2525

>  <SCORE.INTER.norm>
-0.371355

>  <SCORE.INTRA>
-2.63576

>  <SCORE.INTRA.DIHEDRAL>
-12.9107

>  <SCORE.INTRA.DIHEDRAL.0>
18.77

>  <SCORE.INTRA.POLAR>
0

>  <SCORE.INTRA.POLAR.0>
0

>  <SCORE.INTRA.REPUL>
0

>  <SCORE.INTRA.REPUL.0>
0

>  <SCORE.INTRA.SOLV>
3.53739

>  <SCORE.INTRA.SOLV.lig_0>
-77.2465

>  <SCORE.INTRA.VDW>
2.05089

>  <SCORE.INTRA.VDW.0>
-4.16072

>  <SCORE.INTRA.norm>
-0.0850246

>  <SCORE.RESTR>
0

>  <SCORE.RESTR.CAVITY>
0

>  <SCORE.RESTR.norm>
0

>  <SCORE.SYSTEM>
0

>  <SCORE.SYSTEM.CONST>
0

>  <SCORE.SYSTEM.DIHEDRAL>
0

>  <SCORE.SYSTEM.SOLV>
0

>  <SCORE.SYSTEM.norm>
0

>  <SCORE.heavy>
31

>  <SCORE.norm>
-0.456379

>  <RMSD>
8.277

$$$$
ligand
 OpenBabel11021811493D
libRbt.so/2013.1/901 2013/11/27
 31 33  0  0  0  0  0  0  0  0999 V2000
   -5.0871  -12.7233  -12.3554 C   0  0  2  0  0  0  0  0  0  0  0  0
   -4.4807  -11.5150  -12.8336 O   0  0  0  0  0  0  0  0  0  0  0  0
   -3.6812   -9.8920  -16.7131 C   0  0  2  0  0  0  0  0  0  0  0  0
   -3.1303   -9.7381  -18.0249 N   0  0  0  0  0  0  0  0  0  0  0  0
   -6.7623  -10.4819  -17.3964 C   0  0  2  0  0  0  0  0  0  0  0  0
   -5.4123  -12.4842  -10.8391 C   0  0  2  0  0  0  0  0  0  0  0  0
   -6.2827  -11.3220  -10.6995 N   0  0  0  0  0  0  0  0  0  0  0  0
   -2.5055   -9.8806  -15.6617 C   0  0  0  0  0  0  0  0  0  0  0  0
   -7.6227  -10.8126  -18.6549 C   0  0  2  0  0  0  0  0  0  0  0  0
   -7.8477  -12.2110  -18.7059 O   0  0  0  0  0  0  0  0  0  0  0  0
   -4.0806  -12.2797  -10.0362 C   0  0  0  0  0  0  0  0  0  0  0  0
   -3.1193  -10.0437  -14.2043 C   0  0  2  0  0  0  0  0  0  0  0  0
   -2.0232  -10.0360  -13.2076 N   0  0  0  0  0  0  0  0  0  0  0  0
   -6.7998  -10.3208  -19.9265 C   0  0  1  0  0  0  0  0  0  0  0  0
   -7.5453  -10.6323  -21.1932 N   0  0  0  0  0  0  0  0  0  0  0  0
   -3.0373  -13.3733  -10.4062 C   0  0  0  0  0  0  0  0  0  0  0  0
   -3.9336  -11.4107  -14.1200 C   0  0  2  0  0  0  0  0  0  0  0  0
   -6.5680   -8.7119  -19.8239 C   0  0  1  0  0  0  0  0  0  0  0  0
   -7.7895   -7.9994  -19.7903 O   0  0  0  0  0  0  0  0  0  0  0  0
   -3.1438  -14.0725  -11.5461 C   0  0  2  0  0  0  0  0  0  0  0  0
   -4.2061  -13.8780  -12.4961 O   0  0  0  0  0  0  0  0  0  0  0  0
   -5.0872  -11.4003  -15.2084 C   0  0  2  0  0  0  0  0  0  0  0  0
   -5.8122  -12.6356  -15.1591 O   0  0  0  0  0  0  0  0  0  0  0  0
   -5.7895   -8.3851  -18.5050 C   0  0  0  0  0  0  0  0  0  0  0  0
   -6.5100   -8.9982  -17.3160 O   0  0  0  0  0  0  0  0  0  0  0  0
   -2.1187  -15.1650  -11.9300 C   0  0  0  0  0  0  0  0  0  0  0  0
   -1.4471  -14.7892  -13.1662 N   0  0  0  0  0  0  0  0  0  0  0  0
   -4.4645  -11.2362  -16.6418 C   0  0  1  0  0  0  0  0  0  0  0  0
   -5.5164  -11.2262  -17.5769 O   0  0  0  0  0  0  0  0  0  0  0  0
   -5.7797   -8.0760  -20.9810 C   0  0  0  0  0  0  0  0  0  0  0  0
   -7.2130  -11.9102  -21.8511 C   0  0  0  0  0  0  0  0  0  0  0  0
  1  2  1  1  0  0  0
  1  6  1  0  0  0  0
  1 21  1  0  0  0  0
  3  4  1  6  0  0  0
  3  8  1  0  0  0  0
  3 28  1  0  0  0  0
  5  9  1  0  0  0  0
  5 25  1  0  0  0  0
  5 29  1  6  0  0  0
  6  7  1  6  0  0  0
  6 11  1  0  0  0  0
  8 12  1  0  0  0  0
  9 10  1  6  0  0  0
  9 14  1  0  0  0  0
 11 16  1  0  0  0  0
 12 13  1  1  0  0  0
 12 17  1  0  0  0  0
 14 15  1  6  0  0  0
 14 18  1  0  0  0  0
 15 31  1  0  0  0  0
 16 20  1  0  0  0  0
 17  2  1  1  0  0  0
 17 22  1  0  0  0  0
 18 19  1  1  0  0  0
 18 24  1  0  0  0  0
 18 30  1  0  0  0  0
 20 21  1  0  0  0  0
 20 26  1  1  0  0  0
 22 23  1  6  0  0  0
 22 28  1  0  0  0  0
 24 25  1  0  0  0  0
 26 27  1  0  0  0  0
 28 29  1  6  0  0  0
M  END
>  <CHROM.1>
173.41822740,-178.24295959,-93.31228683,-169.56954631,-117.84715924,-75.55908728
-5.02542563,-11.21644455,-15.74578881,1.10005474,0.72599573,2.27284365

>  <Name>
ligand

>  <RI>
0

>  <Rbt.Current_Directory>
/home/itssahil/PROJECTS/Mol_Feturizer/New_Systems/rnas/4F8U

>  <Rbt.Executable>
rbdock ($Id: //depot/dev/client3/rdock/2013.1/src/exe/rbdock.cxx#4 $)

>  <Rbt.Library>
libRbt.so (2013.1, Build901 2013/11/27)

>  <Rbt.Parameter_File>
/export/apps/rDock/src/rDock_2013.1_src/data/scripts/dock_solv.prm

>  <Rbt.Receptor>
prm/pocket_docking_4.prm

>  <SCORE>
-16.8721

>  <SCORE.INTER>
-10.66

>  <SCORE.INTER.CONST>
1

>  <SCORE.INTER.POLAR>
0

>  <SCORE.INTER.ROT>
6

>  <SCORE.INTER.SOLV>
16.6678

>  <SCORE.INTER.VDW>
-20.2626

>  <SCORE.INTER.norm>
-0.34387

>  <SCORE.INTRA>
-6.2121

>  <SCORE.INTRA.DIHEDRAL>
-14.4959

>  <SCORE.INTRA.DIHEDRAL.0>
18.77

>  <SCORE.INTRA.POLAR>
0

>  <SCORE.INTRA.POLAR.0>
0

>  <SCORE.INTRA.REPUL>
0

>  <SCORE.INTRA.REPUL.0>
0

>  <SCORE.INTRA.SOLV>
-0.146064

>  <SCORE.INTRA.SOLV.lig_0>
-77.2465

>  <SCORE.INTRA.VDW>
1.10889

>  <SCORE.INTRA.VDW.0>
-4.16072

>  <SCORE.INTRA.norm>
-0.20039

>  <SCORE.RESTR>
0

>  <SCORE.RESTR.CAVITY>
0

>  <SCORE.RESTR.norm>
0

>  <SCORE.SYSTEM>
0

>  <SCORE.SYSTEM.CONST>
0

>  <SCORE.SYSTEM.DIHEDRAL>
0

>  <SCORE.SYSTEM.SOLV>
0

>  <SCORE.SYSTEM.norm>
0

>  <SCORE.heavy>
31

>  <SCORE.norm>
-0.54426

>  <RMSD>
8.279

$$$$
ligand
 OpenBabel11021811493D
libRbt.so/2013.1/901 2013/11/27
 31 33  0  0  0  0  0  0  0  0999 V2000
   -5.2906  -11.6500  -12.4868 C   0  0  2  0  0  0  0  0  0  0  0  0
   -4.0361  -11.5033  -13.1660 O   0  0  0  0  0  0  0  0  0  0  0  0
   -2.7216  -11.9005  -17.2204 C   0  0  2  0  0  0  0  0  0  0  0  0
   -2.4270  -12.4848  -18.4931 N   0  0  0  0  0  0  0  0  0  0  0  0
   -6.4086  -11.0726  -17.8672 C   0  0  2  0  0  0  0  0  0  0  0  0
   -5.0882  -11.0506  -11.0509 C   0  0  2  0  0  0  0  0  0  0  0  0
   -4.6610   -9.6596  -11.1537 N   0  0  0  0  0  0  0  0  0  0  0  0
   -1.8958  -12.6560  -16.1090 C   0  0  0  0  0  0  0  0  0  0  0  0
   -6.9011  -11.1007  -19.3470 C   0  0  2  0  0  0  0  0  0  0  0  0
   -6.6236  -12.3750  -19.9019 O   0  0  0  0  0  0  0  0  0  0  0  0
   -4.0290  -11.8997  -10.2655 C   0  0  0  0  0  0  0  0  0  0  0  0
   -2.2179  -12.0009  -14.6967 C   0  0  2  0  0  0  0  0  0  0  0  0
   -1.4484  -12.7041  -13.6438 N   0  0  0  0  0  0  0  0  0  0  0  0
   -6.1120   -9.9564  -20.1243 C   0  0  1  0  0  0  0  0  0  0  0  0
   -6.5033   -9.9343  -21.5748 N   0  0  0  0  0  0  0  0  0  0  0  0
   -4.3304  -13.4207  -10.3972 C   0  0  0  0  0  0  0  0  0  0  0  0
   -3.7805  -12.1083  -14.4043 C   0  0  2  0  0  0  0  0  0  0  0  0
   -6.4630   -8.5143  -19.4534 C   0  0  1  0  0  0  0  0  0  0  0  0
   -7.8445   -8.2179  -19.5218 O   0  0  0  0  0  0  0  0  0  0  0  0
   -5.1030  -13.8886  -11.3890 C   0  0  2  0  0  0  0  0  0  0  0  0
   -5.7056  -13.0453  -12.3862 O   0  0  0  0  0  0  0  0  0  0  0  0
   -4.5802  -11.3646  -15.5546 C   0  0  2  0  0  0  0  0  0  0  0  0
   -5.9890  -11.4751  -15.3159 O   0  0  0  0  0  0  0  0  0  0  0  0
   -6.0545   -8.5347  -17.9418 C   0  0  0  0  0  0  0  0  0  0  0  0
   -6.6944   -9.7272  -17.2510 O   0  0  0  0  0  0  0  0  0  0  0  0
   -5.4162  -15.3960  -11.5351 C   0  0  0  0  0  0  0  0  0  0  0  0
   -6.8513  -15.6091  -11.4101 N   0  0  0  0  0  0  0  0  0  0  0  0
   -4.2493  -12.0221  -16.9430 C   0  0  1  0  0  0  0  0  0  0  0  0
   -4.9713  -11.3337  -17.9359 O   0  0  0  0  0  0  0  0  0  0  0  0
   -5.7729   -7.2965  -20.0897 C   0  0  0  0  0  0  0  0  0  0  0  0
   -7.9499   -9.9515  -21.8630 C   0  0  0  0  0  0  0  0  0  0  0  0
  1  2  1  6  0  0  0
  1  6  1  0  0  0  0
  1 21  1  0  0  0  0
  3  4  1  6  0  0  0
  3  8  1  0  0  0  0
  3 28  1  0  0  0  0
  5  9  1  0  0  0  0
  5 25  1  0  0  0  0
  5 29  1  6  0  0  0
  6  7  1  6  0  0  0
  6 11  1  0  0  0  0
  8 12  1  0  0  0  0
  9 10  1  6  0  0  0
  9 14  1  0  0  0  0
 11 16  1  0  0  0  0
 12 13  1  1  0  0  0
 12 17  1  0  0  0  0
 14 15  1  6  0  0  0
 14 18  1  0  0  0  0
 15 31  1  0  0  0  0
 16 20  1  0  0  0  0
 17  2  1  1  0  0  0
 17 22  1  0  0  0  0
 18 19  1  6  0  0  0
 18 24  1  0  0  0  0
 18 30  1  0  0  0  0
 20 21  1  0  0  0  0
 20 26  1  1  0  0  0
 22 23  1  1  0  0  0
 22 28  1  0  0  0  0
 24 25  1  0  0  0  0
 26 27  1  0  0  0  0
 28 29  1  6  0  0  0
M  END
>  <CHROM.1>
170.17672539,-147.58680538,48.51418928,-167.77328844,118.24579167,-170.20048068
-5.13885548,-11.39908528,-15.85762696,1.32130545,-0.52825781,1.81798519

>  <Name>
ligand

>  <RI>
0

>  <Rbt.Current_Directory>
/home/itssahil/PROJECTS/Mol_Feturizer/New_Systems/rnas/4F8U

>  <Rbt.Executable>
rbdock ($Id: //depot/dev/client3/rdock/2013.1/src/exe/rbdock.cxx#4 $)

>  <Rbt.Library>
libRbt.so (2013.1, Build901 2013/11/27)

>  <Rbt.Parameter_File>
/export/apps/rDock/src/rDock_2013.1_src/data/scripts/dock_solv.prm

>  <Rbt.Receptor>
prm/pocket_docking_3.prm

>  <SCORE>
-4.61264

>  <SCORE.INTER>
-1.55593

>  <SCORE.INTER.CONST>
1

>  <SCORE.INTER.POLAR>
0

>  <SCORE.INTER.ROT>
6

>  <SCORE.INTER.SOLV>
15.2455

>  <SCORE.INTER.VDW>
-13.7191

>  <SCORE.INTER.norm>
-0.0501913

>  <SCORE.INTRA>
-3.08911

>  <SCORE.INTRA.DIHEDRAL>
-11.2819

>  <SCORE.INTRA.DIHEDRAL.0>
18.77

>  <SCORE.INTRA.POLAR>
0

>  <SCORE.INTRA.POLAR.0>
0

>  <SCORE.INTRA.REPUL>
0

>  <SCORE.INTRA.REPUL.0>
0

>  <SCORE.INTRA.SOLV>
-2.6167

>  <SCORE.INTRA.SOLV.lig_0>
-77.2465

>  <SCORE.INTRA.VDW>
3.86021

>  <SCORE.INTRA.VDW.0>
-4.16072

>  <SCORE.INTRA.norm>
-0.0996487

>  <SCORE.RESTR>
0.0324018

>  <SCORE.RESTR.CAVITY>
0.0324018

>  <SCORE.RESTR.norm>
0.00104522

>  <SCORE.SYSTEM>
0

>  <SCORE.SYSTEM.CONST>
0

>  <SCORE.SYSTEM.DIHEDRAL>
0

>  <SCORE.SYSTEM.SOLV>
0

>  <SCORE.SYSTEM.norm>
0

>  <SCORE.heavy>
31

>  <SCORE.norm>
-0.148795

>  <RMSD>
8.284

$$$$
ligand
 OpenBabel11021811493D
libRbt.so/2013.1/901 2013/11/27
 31 33  0  0  0  0  0  0  0  0999 V2000
   -5.1012  -12.7783  -12.4397 C   0  0  2  0  0  0  0  0  0  0  0  0
   -4.5117  -11.5472  -12.8796 O   0  0  0  0  0  0  0  0  0  0  0  0
   -3.7048   -9.8160  -16.7105 C   0  0  2  0  0  0  0  0  0  0  0  0
   -3.1418   -9.6185  -18.0113 N   0  0  0  0  0  0  0  0  0  0  0  0
   -6.7481  -10.4367  -17.4615 C   0  0  2  0  0  0  0  0  0  0  0  0
   -5.5337  -12.5528  -10.9484 C   0  0  2  0  0  0  0  0  0  0  0  0
   -6.4554  -11.4250  -10.8681 N   0  0  0  0  0  0  0  0  0  0  0  0
   -2.5426   -9.8005  -15.6441 C   0  0  0  0  0  0  0  0  0  0  0  0
   -7.5991  -10.7852  -18.7215 C   0  0  2  0  0  0  0  0  0  0  0  0
   -7.8141  -12.1856  -18.7605 O   0  0  0  0  0  0  0  0  0  0  0  0
   -4.2662  -12.2976  -10.0606 C   0  0  0  0  0  0  0  0  0  0  0  0
   -3.1701  -10.0121  -14.1988 C   0  0  2  0  0  0  0  0  0  0  0  0
   -2.0867  -10.0010  -13.1882 N   0  0  0  0  0  0  0  0  0  0  0  0
   -6.7725  -10.2997  -19.9932 C   0  0  1  0  0  0  0  0  0  0  0  0
   -7.5087  -10.6284  -21.2609 N   0  0  0  0  0  0  0  0  0  0  0  0
   -3.1596  -13.3500  -10.3595 C   0  0  0  0  0  0  0  0  0  0  0  0
   -3.9516  -11.4000  -14.1561 C   0  0  2  0  0  0  0  0  0  0  0  0
   -6.5524   -8.6883  -19.9045 C   0  0  1  0  0  0  0  0  0  0  0  0
   -7.7791   -7.9841  -19.8845 O   0  0  0  0  0  0  0  0  0  0  0  0
   -3.1644  -14.0521  -11.5026 C   0  0  2  0  0  0  0  0  0  0  0  0
   -4.1691  -13.8981  -12.5203 O   0  0  0  0  0  0  0  0  0  0  0  0
   -5.0918  -11.3924  -15.2587 C   0  0  2  0  0  0  0  0  0  0  0  0
   -5.7868  -12.6456  -15.2469 O   0  0  0  0  0  0  0  0  0  0  0  0
   -5.7837   -8.3437  -18.5845 C   0  0  0  0  0  0  0  0  0  0  0  0
   -6.5066   -8.9506  -17.3937 O   0  0  0  0  0  0  0  0  0  0  0  0
   -2.0752  -15.1041  -11.8167 C   0  0  0  0  0  0  0  0  0  0  0  0
   -1.4196  -14.7659  -13.0722 N   0  0  0  0  0  0  0  0  0  0  0  0
   -4.4557  -11.1801  -16.6800 C   0  0  1  0  0  0  0  0  0  0  0  0
   -5.4961  -11.1739  -17.6279 O   0  0  0  0  0  0  0  0  0  0  0  0
   -5.7621   -8.0579  -21.0632 C   0  0  0  0  0  0  0  0  0  0  0  0
   -7.1969  -11.9304  -21.8804 C   0  0  0  0  0  0  0  0  0  0  0  0
  1  2  1  1  0  0  0
  1  6  1  0  0  0  0
  1 21  1  0  0  0  0
  3  4  1  6  0  0  0
  3  8  1  0  0  0  0
  3 28  1  0  0  0  0
  5  9  1  0  0  0  0
  5 25  1  0  0  0  0
  5 29  1  6  0  0  0
  6  7  1  6  0  0  0
  6 11  1  0  0  0  0
  8 12  1  0  0  0  0
  9 10  1  6  0  0  0
  9 14  1  0  0  0  0
 11 16  1  0  0  0  0
 12 13  1  1  0  0  0
 12 17  1  0  0  0  0
 14 15  1  6  0  0  0
 14 18  1  0  0  0  0
 15 31  1  0  0  0  0
 16 20  1  0  0  0  0
 17  2  1  1  0  0  0
 17 22  1  0  0  0  0
 18 19  1  1  0  0  0
 18 24  1  0  0  0  0
 18 30  1  0  0  0  0
 20 21  1  0  0  0  0
 20 26  1  1  0  0  0
 22 23  1  6  0  0  0
 22 28  1  0  0  0  0
 24 25  1  0  0  0  0
 26 27  1  0  0  0  0
 28 29  1  6  0  0  0
M  END
>  <CHROM.1>
177.01999742,-177.47821146,-91.32712407,-169.94154445,-122.93077456,-73.93490799
-5.04090051,-11.19931012,-15.78273362,1.12128878,0.70497643,2.25374501

>  <Name>
ligand

>  <RI>
0

>  <Rbt.Current_Directory>
/home/itssahil/PROJECTS/Mol_Feturizer/New_Systems/rnas/4F8U

>  <Rbt.Executable>
rbdock ($Id: //depot/dev/client3/rdock/2013.1/src/exe/rbdock.cxx#4 $)

>  <Rbt.Library>
libRbt.so (2013.1, Build901 2013/11/27)

>  <Rbt.Parameter_File>
/export/apps/rDock/src/rDock_2013.1_src/data/scripts/dock_solv.prm

>  <Rbt.Receptor>
prm/pocket_docking_5.prm

>  <SCORE>
-16.9796

>  <SCORE.INTER>
-10.5644

>  <SCORE.INTER.CONST>
1

>  <SCORE.INTER.POLAR>
0

>  <SCORE.INTER.ROT>
6

>  <SCORE.INTER.SOLV>
16.9966

>  <SCORE.INTER.VDW>
-20.3085

>  <SCORE.INTER.norm>
-0.340789

>  <SCORE.INTRA>
-6.41518

>  <SCORE.INTRA.DIHEDRAL>
-14.9532

>  <SCORE.INTRA.DIHEDRAL.0>
18.77

>  <SCORE.INTRA.POLAR>
0

>  <SCORE.INTRA.POLAR.0>
0

>  <SCORE.INTRA.REPUL>
0

>  <SCORE.INTRA.REPUL.0>
0

>  <SCORE.INTRA.SOLV>
-0.171192

>  <SCORE.INTRA.SOLV.lig_0>
-77.2465

>  <SCORE.INTRA.VDW>
1.14701

>  <SCORE.INTRA.VDW.0>
-4.16072

>  <SCORE.INTRA.norm>
-0.206941

>  <SCORE.RESTR>
0

>  <SCORE.RESTR.CAVITY>
0

>  <SCORE.RESTR.norm>
0

>  <SCORE.SYSTEM>
0

>  <SCORE.SYSTEM.CONST>
0

>  <SCORE.SYSTEM.DIHEDRAL>
0

>  <SCORE.SYSTEM.SOLV>
0

>  <SCORE.SYSTEM.norm>
0

>  <SCORE.heavy>
31

>  <SCORE.norm>
-0.54773

>  <RMSD>
8.294

$$$$
ligand
 OpenBabel11021811493D
libRbt.so/2013.1/901 2013/11/27
 31 33  0  0  0  0  0  0  0  0999 V2000
   -4.9846  -12.8083  -12.4525 C   0  0  2  0  0  0  0  0  0  0  0  0
   -4.3822  -11.5905  -12.9112 O   0  0  0  0  0  0  0  0  0  0  0  0
   -3.6482   -9.8897  -16.7703 C   0  0  2  0  0  0  0  0  0  0  0  0
   -3.1159   -9.7067  -18.0860 N   0  0  0  0  0  0  0  0  0  0  0  0
   -6.7258  -10.4828  -17.4321 C   0  0  2  0  0  0  0  0  0  0  0  0
   -5.3822  -12.5672  -10.9539 C   0  0  2  0  0  0  0  0  0  0  0  0
   -6.2816  -11.4225  -10.8611 N   0  0  0  0  0  0  0  0  0  0  0  0
   -2.4591   -9.8863  -15.7340 C   0  0  0  0  0  0  0  0  0  0  0  0
   -7.6094  -10.8174  -18.6733 C   0  0  2  0  0  0  0  0  0  0  0  0
   -7.8327  -12.2163  -18.7174 O   0  0  0  0  0  0  0  0  0  0  0  0
   -4.0923  -12.3305  -10.0937 C   0  0  0  0  0  0  0  0  0  0  0  0
   -3.0524  -10.0817  -14.2721 C   0  0  2  0  0  0  0  0  0  0  0  0
   -1.9434  -10.0819  -13.2896 N   0  0  0  0  0  0  0  0  0  0  0  0
   -6.8116  -10.3266  -19.9613 C   0  0  1  0  0  0  0  0  0  0  0  0
   -7.5805  -10.6419  -21.2130 N   0  0  0  0  0  0  0  0  0  0  0  0
   -3.0113  -13.4044  -10.4093 C   0  0  0  0  0  0  0  0  0  0  0  0
   -3.8529  -11.4577  -14.2024 C   0  0  2  0  0  0  0  0  0  0  0  0
   -6.5808   -8.7171  -19.8662 C   0  0  1  0  0  0  0  0  0  0  0  0
   -7.8028   -8.0068  -19.8107 O   0  0  0  0  0  0  0  0  0  0  0  0
   -3.0523  -14.1122  -11.5482 C   0  0  2  0  0  0  0  0  0  0  0  0
   -4.0747  -13.9453  -12.5459 O   0  0  0  0  0  0  0  0  0  0  0  0
   -5.0206  -11.4384  -15.2755 C   0  0  2  0  0  0  0  0  0  0  0  0
   -5.7335  -12.6811  -15.2396 O   0  0  0  0  0  0  0  0  0  0  0  0
   -5.7780   -8.3864  -18.5629 C   0  0  0  0  0  0  0  0  0  0  0  0
   -6.4747   -8.9985  -17.3593 O   0  0  0  0  0  0  0  0  0  0  0  0
   -1.9889  -15.1855  -11.8785 C   0  0  0  0  0  0  0  0  0  0  0  0
   -1.3269  -14.8454  -13.1301 N   0  0  0  0  0  0  0  0  0  0  0  0
   -4.4181  -11.2423  -16.7136 C   0  0  1  0  0  0  0  0  0  0  0  0
   -5.4822  -11.2252  -17.6347 O   0  0  0  0  0  0  0  0  0  0  0  0
   -5.8158   -8.0821  -21.0392 C   0  0  0  0  0  0  0  0  0  0  0  0
   -7.2768  -11.9322  -21.8604 C   0  0  0  0  0  0  0  0  0  0  0  0
  1  2  1  1  0  0  0
  1  6  1  0  0  0  0
  1 21  1  0  0  0  0
  3  4  1  6  0  0  0
  3  8  1  0  0  0  0
  3 28  1  0  0  0  0
  5  9  1  0  0  0  0
  5 25  1  0  0  0  0
  5 29  1  6  0  0  0
  6  7  1  6  0  0  0
  6 11  1  0  0  0  0
  8 12  1  0  0  0  0
  9 10  1  6  0  0  0
  9 14  1  0  0  0  0
 11 16  1  0  0  0  0
 12 13  1  1  0  0  0
 12 17  1  0  0  0  0
 14 15  1  6  0  0  0
 14 18  1  0  0  0  0
 15 31  1  0  0  0  0
 16 20  1  0  0  0  0
 17  2  1  1  0  0  0
 17 22  1  0  0  0  0
 18 19  1  1  0  0  0
 18 24  1  0  0  0  0
 18 30  1  0  0  0  0
 20 21  1  0  0  0  0
 20 26  1  1  0  0  0
 22 23  1  6  0  0  0
 22 28  1  0  0  0  0
 24 25  1  0  0  0  0
 26 27  1  0  0  0  0
 28 29  1  6  0  0  0
M  END
>  <CHROM.1>
177.39803343,-177.57561780,-92.18467277,-170.27901115,-121.32722964,-74.77545403
-4.98653757,-11.24447826,-15.79475942,1.10932044,0.67196924,2.25631740

>  <Name>
ligand

>  <RI>
0

>  <Rbt.Current_Directory>
/home/itssahil/PROJECTS/Mol_Feturizer/New_Systems/rnas/4F8U

>  <Rbt.Executable>
rbdock ($Id: //depot/dev/client3/rdock/2013.1/src/exe/rbdock.cxx#4 $)

>  <Rbt.Library>
libRbt.so (2013.1, Build901 2013/11/27)

>  <Rbt.Parameter_File>
/export/apps/rDock/src/rDock_2013.1_src/data/scripts/dock_solv.prm

>  <Rbt.Receptor>
prm/pocket_docking_6.prm

>  <SCORE>
-16.9032

>  <SCORE.INTER>
-10.4712

>  <SCORE.INTER.CONST>
1

>  <SCORE.INTER.POLAR>
0

>  <SCORE.INTER.ROT>
6

>  <SCORE.INTER.SOLV>
16.6596

>  <SCORE.INTER.VDW>
-20.134

>  <SCORE.INTER.norm>
-0.33778

>  <SCORE.INTRA>
-6.432

>  <SCORE.INTRA.DIHEDRAL>
-14.8716

>  <SCORE.INTRA.DIHEDRAL.0>
18.77

>  <SCORE.INTRA.POLAR>
0

>  <SCORE.INTRA.POLAR.0>
0

>  <SCORE.INTRA.REPUL>
0

>  <SCORE.INTRA.REPUL.0>
0

>  <SCORE.INTRA.SOLV>
-0.243989

>  <SCORE.INTRA.SOLV.lig_0>
-77.2465

>  <SCORE.INTRA.VDW>
1.12578

>  <SCORE.INTRA.VDW.0>
-4.16072

>  <SCORE.INTRA.norm>
-0.207484

>  <SCORE.RESTR>
0

>  <SCORE.RESTR.CAVITY>
0

>  <SCORE.RESTR.norm>
0

>  <SCORE.SYSTEM>
0

>  <SCORE.SYSTEM.CONST>
0

>  <SCORE.SYSTEM.DIHEDRAL>
0

>  <SCORE.SYSTEM.SOLV>
0

>  <SCORE.SYSTEM.norm>
0

>  <SCORE.heavy>
31

>  <SCORE.norm>
-0.545264

>  <RMSD>
8.294

$$$$
ligand
 OpenBabel11021811493D
libRbt.so/2013.1/901 2013/11/27
 31 33  0  0  0  0  0  0  0  0999 V2000
   -4.7802  -12.9179  -12.4837 C   0  0  2  0  0  0  0  0  0  0  0  0
   -4.1831  -11.6914  -12.9259 O   0  0  0  0  0  0  0  0  0  0  0  0
   -3.5090   -9.8535  -16.7327 C   0  0  2  0  0  0  0  0  0  0  0  0
   -3.0157   -9.6355  -18.0583 N   0  0  0  0  0  0  0  0  0  0  0  0
   -6.6123  -10.2437  -17.3241 C   0  0  2  0  0  0  0  0  0  0  0  0
   -5.1811  -12.6980  -10.9828 C   0  0  2  0  0  0  0  0  0  0  0  0
   -6.0862  -11.5590  -10.8766 N   0  0  0  0  0  0  0  0  0  0  0  0
   -2.2849   -9.9492  -15.7424 C   0  0  0  0  0  0  0  0  0  0  0  0
   -7.6035  -10.5710  -18.4833 C   0  0  2  0  0  0  0  0  0  0  0  0
   -7.9091  -11.9547  -18.4526 O   0  0  0  0  0  0  0  0  0  0  0  0
   -3.8936  -12.4661  -10.1177 C   0  0  0  0  0  0  0  0  0  0  0  0
   -2.8345  -10.1835  -14.2692 C   0  0  2  0  0  0  0  0  0  0  0  0
   -1.6926  -10.2767  -13.3297 N   0  0  0  0  0  0  0  0  0  0  0  0
   -6.8773  -10.1776  -19.8449 C   0  0  1  0  0  0  0  0  0  0  0  0
   -7.7540  -10.4929  -21.0235 N   0  0  0  0  0  0  0  0  0  0  0  0
   -2.8069  -13.5306  -10.4454 C   0  0  0  0  0  0  0  0  0  0  0  0
   -3.6942  -11.5244  -14.2290 C   0  0  2  0  0  0  0  0  0  0  0  0
   -6.5485   -8.5824  -19.8340 C   0  0  1  0  0  0  0  0  0  0  0  0
   -7.7204   -7.7984  -19.7203 O   0  0  0  0  0  0  0  0  0  0  0  0
   -2.8428  -14.2239  -11.5933 C   0  0  2  0  0  0  0  0  0  0  0  0
   -3.8646  -14.0492  -12.5904 O   0  0  0  0  0  0  0  0  0  0  0  0
   -4.8971  -11.4054  -15.2559 C   0  0  2  0  0  0  0  0  0  0  0  0
   -5.6645  -12.6157  -15.2470 O   0  0  0  0  0  0  0  0  0  0  0  0
   -5.6333   -8.2519  -18.6071 C   0  0  0  0  0  0  0  0  0  0  0  0
   -6.2722   -8.7755  -17.3318 O   0  0  0  0  0  0  0  0  0  0  0  0
   -1.7737  -15.2876  -11.9358 C   0  0  0  0  0  0  0  0  0  0  0  0
   -0.9419  -14.8067  -13.0300 N   0  0  0  0  0  0  0  0  0  0  0  0
   -4.3376  -11.1719  -16.7057 C   0  0  1  0  0  0  0  0  0  0  0  0
   -5.4316  -11.0665  -17.5848 O   0  0  0  0  0  0  0  0  0  0  0  0
   -5.8380   -8.0389  -21.0847 C   0  0  0  0  0  0  0  0  0  0  0  0
   -7.5274  -11.7952  -21.6783 C   0  0  0  0  0  0  0  0  0  0  0  0
  1  2  1  1  0  0  0
  1  6  1  0  0  0  0
  1 21  1  0  0  0  0
  3  4  1  6  0  0  0
  3  8  1  0  0  0  0
  3 28  1  0  0  0  0
  5  9  1  0  0  0  0
  5 25  1  0  0  0  0
  5 29  1  6  0  0  0
  6  7  1  6  0  0  0
  6 11  1  0  0  0  0
  8 12  1  0  0  0  0
  9 10  1  6  0  0  0
  9 14  1  0  0  0  0
 11 16  1  0  0  0  0
 12 13  1  1  0  0  0
 12 17  1  0  0  0  0
 14 15  1  6  0  0  0
 14 18  1  0  0  0  0
 15 31  1  0  0  0  0
 16 20  1  0  0  0  0
 17  2  1  1  0  0  0
 17 22  1  0  0  0  0
 18 19  1  1  0  0  0
 18 24  1  0  0  0  0
 18 30  1  0  0  0  0
 20 21  1  0  0  0  0
 20 26  1  1  0  0  0
 22 23  1  6  0  0  0
 22 28  1  0  0  0  0
 24 25  1  0  0  0  0
 26 27  1  0  0  0  0
 28 29  1  6  0  0  0
M  END
>  <CHROM.1>
179.65282014,-173.78720355,-95.12506276,-167.95197492,-110.53043632,-72.61978600
-4.87239593,-11.21266791,-15.76243523,1.13182412,0.49635496,2.21392859

>  <Name>
ligand

>  <RI>
0

>  <Rbt.Current_Directory>
/home/itssahil/PROJECTS/Mol_Feturizer/New_Systems/rnas/4F8U

>  <Rbt.Executable>
rbdock ($Id: //depot/dev/client3/rdock/2013.1/src/exe/rbdock.cxx#4 $)

>  <Rbt.Library>
libRbt.so (2013.1, Build901 2013/11/27)

>  <Rbt.Parameter_File>
/export/apps/rDock/src/rDock_2013.1_src/data/scripts/dock_solv.prm

>  <Rbt.Receptor>
prm/pocket_docking_3.prm

>  <SCORE>
-16.6422

>  <SCORE.INTER>
-10.0597

>  <SCORE.INTER.CONST>
1

>  <SCORE.INTER.POLAR>
0

>  <SCORE.INTER.ROT>
6

>  <SCORE.INTER.SOLV>
17.2431

>  <SCORE.INTER.VDW>
-20.0542

>  <SCORE.INTER.norm>
-0.324506

>  <SCORE.INTRA>
-6.58255

>  <SCORE.INTRA.DIHEDRAL>
-14.572

>  <SCORE.INTRA.DIHEDRAL.0>
18.77

>  <SCORE.INTRA.POLAR>
0

>  <SCORE.INTRA.POLAR.0>
0

>  <SCORE.INTRA.REPUL>
0

>  <SCORE.INTRA.REPUL.0>
0

>  <SCORE.INTRA.SOLV>
-0.3794

>  <SCORE.INTRA.SOLV.lig_0>
-77.2465

>  <SCORE.INTRA.VDW>
0.893153

>  <SCORE.INTRA.VDW.0>
-4.16072

>  <SCORE.INTRA.norm>
-0.21234

>  <SCORE.RESTR>
0

>  <SCORE.RESTR.CAVITY>
0

>  <SCORE.RESTR.norm>
0

>  <SCORE.SYSTEM>
0

>  <SCORE.SYSTEM.CONST>
0

>  <SCORE.SYSTEM.DIHEDRAL>
0

>  <SCORE.SYSTEM.SOLV>
0

>  <SCORE.SYSTEM.norm>
0

>  <SCORE.heavy>
31

>  <SCORE.norm>
-0.536847

>  <RMSD>
8.310

$$$$
ligand
 OpenBabel11021811493D
libRbt.so/2013.1/901 2013/11/27
 31 33  0  0  0  0  0  0  0  0999 V2000
   -8.3730  -11.0204  -10.9357 C   0  0  2  0  0  0  0  0  0  0  0  0
   -8.8877   -9.8886  -11.6504 O   0  0  0  0  0  0  0  0  0  0  0  0
  -10.1549  -11.7078  -15.3121 C   0  0  2  0  0  0  0  0  0  0  0  0
  -10.7744  -11.8796  -16.5907 N   0  0  0  0  0  0  0  0  0  0  0  0
   -7.0712   -9.9736  -16.7953 C   0  0  2  0  0  0  0  0  0  0  0  0
   -8.0773  -10.5243   -9.4768 C   0  0  2  0  0  0  0  0  0  0  0  0
   -9.2967   -9.9879   -8.8824 N   0  0  0  0  0  0  0  0  0  0  0  0
  -11.2666  -11.3562  -14.2499 C   0  0  0  0  0  0  0  0  0  0  0  0
   -6.8121  -10.3457  -18.2878 C   0  0  2  0  0  0  0  0  0  0  0  0
   -8.0139  -10.1792  -19.0206 O   0  0  0  0  0  0  0  0  0  0  0  0
   -6.9484   -9.4359   -9.5046 C   0  0  0  0  0  0  0  0  0  0  0  0
  -10.5783  -11.1733  -12.8286 C   0  0  2  0  0  0  0  0  0  0  0  0
  -11.6135  -10.8409  -11.8222 N   0  0  0  0  0  0  0  0  0  0  0  0
   -6.3335  -11.8644  -18.3150 C   0  0  1  0  0  0  0  0  0  0  0  0
   -6.0917  -12.3187  -19.7265 N   0  0  0  0  0  0  0  0  0  0  0  0
   -5.7526   -9.9005  -10.3853 C   0  0  0  0  0  0  0  0  0  0  0  0
   -9.4921  -10.0103  -12.9093 C   0  0  2  0  0  0  0  0  0  0  0  0
   -4.9522  -12.0050  -17.4635 C   0  0  1  0  0  0  0  0  0  0  0  0
   -3.9133  -11.2087  -17.9997 O   0  0  0  0  0  0  0  0  0  0  0  0
   -5.9041  -10.8694  -11.3008 C   0  0  2  0  0  0  0  0  0  0  0  0
   -7.1515  -11.5456  -11.5366 O   0  0  0  0  0  0  0  0  0  0  0  0
   -8.4079  -10.3823  -14.0055 C   0  0  2  0  0  0  0  0  0  0  0  0
   -7.4380   -9.3319  -14.1050 O   0  0  0  0  0  0  0  0  0  0  0  0
   -5.2025  -11.5335  -15.9914 C   0  0  0  0  0  0  0  0  0  0  0  0
   -5.8065  -10.1392  -15.9925 O   0  0  0  0  0  0  0  0  0  0  0  0
   -4.7274  -11.3467  -12.1836 C   0  0  0  0  0  0  0  0  0  0  0  0
   -4.3864  -12.7198  -11.8390 N   0  0  0  0  0  0  0  0  0  0  0  0
   -9.1043  -10.5617  -15.4028 C   0  0  1  0  0  0  0  0  0  0  0  0
   -8.1137  -10.8953  -16.3453 O   0  0  0  0  0  0  0  0  0  0  0  0
   -4.3563  -13.4205  -17.3874 C   0  0  0  0  0  0  0  0  0  0  0  0
   -7.2497  -12.8944  -20.4364 C   0  0  0  0  0  0  0  0  0  0  0  0
  1  2  1  6  0  0  0
  1  6  1  0  0  0  0
  1 21  1  0  0  0  0
  3  4  1  6  0  0  0
  3  8  1  0  0  0  0
  3 28  1  0  0  0  0
  5  9  1  0  0  0  0
  5 25  1  0  0  0  0
  5 29  1  1  0  0  0
  6  7  1  6  0  0  0
  6 11  1  0  0  0  0
  8 12  1  0  0  0  0
  9 10  1  6  0  0  0
  9 14  1  0  0  0  0
 11 16  1  0  0  0  0
 12 13  1  1  0  0  0
 12 17  1  0  0  0  0
 14 15  1  6  0  0  0
 14 18  1  0  0  0  0
 15 31  1  0  0  0  0
 16 20  1  0  0  0  0
 17  2  1  1  0  0  0
 17 22  1  0  0  0  0
 18 19  1  6  0  0  0
 18 24  1  0  0  0  0
 18 30  1  0  0  0  0
 20 21  1  0  0  0  0
 20 26  1  1  0  0  0
 22 23  1  6  0  0  0
 22 28  1  0  0  0  0
 24 25  1  0  0  0  0
 26 27  1  0  0  0  0
 28 29  1  6  0  0  0
M  END
>  <CHROM.1>
-167.92799345,-146.51358440,-89.17496130,49.37591551,113.31341708,172.16643083
-7.46341794,-11.00228423,-14.51292242,-1.81167769,0.10363936,-1.70115185

>  <Name>
ligand

>  <RI>
0

>  <Rbt.Current_Directory>
/home/itssahil/PROJECTS/Mol_Feturizer/New_Systems/rnas/4F8U

>  <Rbt.Executable>
rbdock ($Id: //depot/dev/client3/rdock/2013.1/src/exe/rbdock.cxx#4 $)

>  <Rbt.Library>
libRbt.so (2013.1, Build901 2013/11/27)

>  <Rbt.Parameter_File>
/export/apps/rDock/src/rDock_2013.1_src/data/scripts/dock_solv.prm

>  <Rbt.Receptor>
prm/pocket_docking_7.prm

>  <SCORE>
-6.30938

>  <SCORE.INTER>
-1.41114

>  <SCORE.INTER.CONST>
1

>  <SCORE.INTER.POLAR>
0

>  <SCORE.INTER.ROT>
6

>  <SCORE.INTER.SOLV>
11.5924

>  <SCORE.INTER.VDW>
-12.4049

>  <SCORE.INTER.norm>
-0.0455205

>  <SCORE.INTRA>
-4.91176

>  <SCORE.INTRA.DIHEDRAL>
-10.6639

>  <SCORE.INTRA.DIHEDRAL.0>
18.77

>  <SCORE.INTRA.POLAR>
0

>  <SCORE.INTRA.POLAR.0>
0

>  <SCORE.INTRA.REPUL>
0

>  <SCORE.INTRA.REPUL.0>
0

>  <SCORE.INTRA.SOLV>
-0.807934

>  <SCORE.INTRA.SOLV.lig_0>
-77.2465

>  <SCORE.INTRA.VDW>
0.824159

>  <SCORE.INTRA.VDW.0>
-4.16072

>  <SCORE.INTRA.norm>
-0.158444

>  <SCORE.RESTR>
0.0135177

>  <SCORE.RESTR.CAVITY>
0.0135177

>  <SCORE.RESTR.norm>
0.000436054

>  <SCORE.SYSTEM>
0

>  <SCORE.SYSTEM.CONST>
0

>  <SCORE.SYSTEM.DIHEDRAL>
0

>  <SCORE.SYSTEM.SOLV>
0

>  <SCORE.SYSTEM.norm>
0

>  <SCORE.heavy>
31

>  <SCORE.norm>
-0.203528

>  <RMSD>
8.324

$$$$
ligand
 OpenBabel11021811493D
libRbt.so/2013.1/901 2013/11/27
 31 33  0  0  0  0  0  0  0  0999 V2000
   -3.6262  -10.7257  -13.2715 C   0  0  2  0  0  0  0  0  0  0  0  0
   -3.2932  -11.9850  -13.8714 O   0  0  0  0  0  0  0  0  0  0  0  0
   -4.9316  -13.8625  -17.3520 C   0  0  2  0  0  0  0  0  0  0  0  0
   -5.8213  -14.6007  -18.1954 N   0  0  0  0  0  0  0  0  0  0  0  0
   -7.1545  -10.7882  -17.7279 C   0  0  2  0  0  0  0  0  0  0  0  0
   -2.4185  -10.3448  -12.3450 C   0  0  2  0  0  0  0  0  0  0  0  0
   -1.1922  -10.2882  -13.1328 N   0  0  0  0  0  0  0  0  0  0  0  0
   -4.4470  -14.7986  -16.1786 C   0  0  0  0  0  0  0  0  0  0  0  0
   -7.7694  -10.6770  -19.1571 C   0  0  2  0  0  0  0  0  0  0  0  0
   -8.2787  -11.9429  -19.5405 O   0  0  0  0  0  0  0  0  0  0  0  0
   -2.2861  -11.3941  -11.1869 C   0  0  0  0  0  0  0  0  0  0  0  0
   -3.4525  -13.9798  -15.2469 C   0  0  2  0  0  0  0  0  0  0  0  0
   -2.9917  -14.8492  -14.1392 N   0  0  0  0  0  0  0  0  0  0  0  0
   -6.6006  -10.2131  -20.1343 C   0  0  1  0  0  0  0  0  0  0  0  0
   -7.1002  -10.1118  -21.5476 N   0  0  0  0  0  0  0  0  0  0  0  0
   -3.6683  -11.6677  -10.5266 C   0  0  0  0  0  0  0  0  0  0  0  0
   -4.2001  -12.6971  -14.6684 C   0  0  2  0  0  0  0  0  0  0  0  0
   -6.0499   -8.7568  -19.6558 C   0  0  1  0  0  0  0  0  0  0  0  0
   -7.0625   -7.7695  -19.6843 O   0  0  0  0  0  0  0  0  0  0  0  0
   -4.8101  -11.3752  -11.1671 C   0  0  2  0  0  0  0  0  0  0  0  0
   -4.8518  -10.7953  -12.4827 O   0  0  0  0  0  0  0  0  0  0  0  0
   -4.6988  -11.7946  -15.8736 C   0  0  2  0  0  0  0  0  0  0  0  0
   -5.3948  -10.6489  -15.3665 O   0  0  0  0  0  0  0  0  0  0  0  0
   -5.5271   -8.8605  -18.1833 C   0  0  0  0  0  0  0  0  0  0  0  0
   -6.6070   -9.4529  -17.2936 O   0  0  0  0  0  0  0  0  0  0  0  0
   -6.1932  -11.6371  -10.5267 C   0  0  0  0  0  0  0  0  0  0  0  0
   -6.9308  -12.5962  -11.3369 N   0  0  0  0  0  0  0  0  0  0  0  0
   -5.6781  -12.6186  -16.7854 C   0  0  1  0  0  0  0  0  0  0  0  0
   -6.0936  -11.7882  -17.8431 O   0  0  0  0  0  0  0  0  0  0  0  0
   -4.9076   -8.1655  -20.4983 C   0  0  0  0  0  0  0  0  0  0  0  0
   -7.2088  -11.3785  -22.2960 C   0  0  0  0  0  0  0  0  0  0  0  0
  1  2  1  1  0  0  0
  1  6  1  0  0  0  0
  1 21  1  0  0  0  0
  3  4  1  6  0  0  0
  3  8  1  0  0  0  0
  3 28  1  0  0  0  0
  5  9  1  0  0  0  0
  5 25  1  0  0  0  0
  5 29  1  6  0  0  0
  6  7  1  6  0  0  0
  6 11  1  0  0  0  0
  8 12  1  0  0  0  0
  9 10  1  6  0  0  0
  9 14  1  0  0  0  0
 11 16  1  0  0  0  0
 12 13  1  1  0  0  0
 12 17  1  0  0  0  0
 14 15  1  6  0  0  0
 14 18  1  0  0  0  0
 15 31  1  0  0  0  0
 16 20  1  0  0  0  0
 17  2  1  1  0  0  0
 17 22  1  0  0  0  0
 18 19  1  6  0  0  0
 18 24  1  0  0  0  0
 18 30  1  0  0  0  0
 20 21  1  0  0  0  0
 20 26  1  1  0  0  0
 22 23  1  1  0  0  0
 22 28  1  0  0  0  0
 24 25  1  0  0  0  0
 26 27  1  0  0  0  0
 28 29  1  6  0  0  0
M  END
>  <CHROM.1>
173.86917171,-151.04029735,-79.73292385,175.75639318,-118.08831472,159.93822215
-5.22926047,-11.34472042,-16.07071832,-0.10832512,-1.21870499,0.08579538

>  <Name>
ligand

>  <RI>
0

>  <Rbt.Current_Directory>
/home/itssahil/PROJECTS/Mol_Feturizer/New_Systems/rnas/4F8U

>  <Rbt.Executable>
rbdock ($Id: //depot/dev/client3/rdock/2013.1/src/exe/rbdock.cxx#4 $)

>  <Rbt.Library>
libRbt.so (2013.1, Build901 2013/11/27)

>  <Rbt.Parameter_File>
/export/apps/rDock/src/rDock_2013.1_src/data/scripts/dock_solv.prm

>  <Rbt.Receptor>
prm/pocket_docking_6.prm

>  <SCORE>
-13.3511

>  <SCORE.INTER>
-8.2238

>  <SCORE.INTER.CONST>
1

>  <SCORE.INTER.POLAR>
0

>  <SCORE.INTER.ROT>
6

>  <SCORE.INTER.SOLV>
12.7718

>  <SCORE.INTER.VDW>
-17.3398

>  <SCORE.INTER.norm>
-0.265284

>  <SCORE.INTRA>
-5.12728

>  <SCORE.INTRA.DIHEDRAL>
-11.3037

>  <SCORE.INTRA.DIHEDRAL.0>
18.77

>  <SCORE.INTRA.POLAR>
0

>  <SCORE.INTRA.POLAR.0>
0

>  <SCORE.INTRA.REPUL>
0

>  <SCORE.INTRA.REPUL.0>
0

>  <SCORE.INTRA.SOLV>
-2.34132

>  <SCORE.INTRA.SOLV.lig_0>
-77.2465

>  <SCORE.INTRA.VDW>
1.69523

>  <SCORE.INTRA.VDW.0>
-4.16072

>  <SCORE.INTRA.norm>
-0.165396

>  <SCORE.RESTR>
0

>  <SCORE.RESTR.CAVITY>
0

>  <SCORE.RESTR.norm>
0

>  <SCORE.SYSTEM>
0

>  <SCORE.SYSTEM.CONST>
0

>  <SCORE.SYSTEM.DIHEDRAL>
0

>  <SCORE.SYSTEM.SOLV>
0

>  <SCORE.SYSTEM.norm>
0

>  <SCORE.heavy>
31

>  <SCORE.norm>
-0.43068

>  <RMSD>
8.329

$$$$
ligand
 OpenBabel11021811493D
libRbt.so/2013.1/901 2013/11/27
 31 33  0  0  0  0  0  0  0  0999 V2000
   -4.9129  -12.8541  -12.5050 C   0  0  2  0  0  0  0  0  0  0  0  0
   -4.3343  -11.6202  -12.9513 O   0  0  0  0  0  0  0  0  0  0  0  0
   -3.5680   -9.8001  -16.7492 C   0  0  2  0  0  0  0  0  0  0  0  0
   -3.0454   -9.5899  -18.0647 N   0  0  0  0  0  0  0  0  0  0  0  0
   -6.6564  -10.1657  -17.4090 C   0  0  2  0  0  0  0  0  0  0  0  0
   -5.4429  -12.5931  -11.0514 C   0  0  2  0  0  0  0  0  0  0  0  0
   -6.4009  -11.4931  -11.0666 N   0  0  0  0  0  0  0  0  0  0  0  0
   -2.3659   -9.9001  -15.7329 C   0  0  0  0  0  0  0  0  0  0  0  0
   -7.6320  -10.5015  -18.5789 C   0  0  2  0  0  0  0  0  0  0  0  0
   -7.9518  -11.8814  -18.5318 O   0  0  0  0  0  0  0  0  0  0  0  0
   -4.2406  -12.2686  -10.0980 C   0  0  0  0  0  0  0  0  0  0  0  0
   -2.9479  -10.1256  -14.2708 C   0  0  2  0  0  0  0  0  0  0  0  0
   -1.8268  -10.2227  -13.3070 N   0  0  0  0  0  0  0  0  0  0  0  0
   -6.8800  -10.1365  -19.9345 C   0  0  1  0  0  0  0  0  0  0  0  0
   -7.7407  -10.4617  -21.1222 N   0  0  0  0  0  0  0  0  0  0  0  0
   -3.0870  -13.2947  -10.2923 C   0  0  0  0  0  0  0  0  0  0  0  0
   -3.8169  -11.4609  -14.2443 C   0  0  2  0  0  0  0  0  0  0  0  0
   -6.5355   -8.5446  -19.9430 C   0  0  1  0  0  0  0  0  0  0  0  0
   -7.7012   -7.7476  -19.8605 O   0  0  0  0  0  0  0  0  0  0  0  0
   -3.0006  -14.0341  -11.4084 C   0  0  2  0  0  0  0  0  0  0  0  0
   -3.9448  -13.9458  -12.4897 O   0  0  0  0  0  0  0  0  0  0  0  0
   -4.9970  -11.3379  -15.2968 C   0  0  2  0  0  0  0  0  0  0  0  0
   -5.7722  -12.5434  -15.3000 O   0  0  0  0  0  0  0  0  0  0  0  0
   -5.6369   -8.2039  -18.7066 C   0  0  0  0  0  0  0  0  0  0  0  0
   -6.3015   -8.7012  -17.4339 O   0  0  0  0  0  0  0  0  0  0  0  0
   -1.8634  -15.0608  -11.6189 C   0  0  0  0  0  0  0  0  0  0  0  0
   -0.9949  -14.6106  -12.6975 N   0  0  0  0  0  0  0  0  0  0  0  0
   -4.4054  -11.1132  -16.7352 C   0  0  1  0  0  0  0  0  0  0  0  0
   -5.4799  -11.0039  -17.6377 O   0  0  0  0  0  0  0  0  0  0  0  0
   -5.7995   -8.0277  -21.1902 C   0  0  0  0  0  0  0  0  0  0  0  0
   -7.5486  -11.7944  -21.7248 C   0  0  0  0  0  0  0  0  0  0  0  0
  1  2  1  1  0  0  0
  1  6  1  0  0  0  0
  1 21  1  0  0  0  0
  3  4  1  6  0  0  0
  3  8  1  0  0  0  0
  3 28  1  0  0  0  0
  5  9  1  0  0  0  0
  5 25  1  0  0  0  0
  5 29  1  6  0  0  0
  6  7  1  6  0  0  0
  6 11  1  0  0  0  0
  8 12  1  0  0  0  0
  9 10  1  6  0  0  0
  9 14  1  0  0  0  0
 11 16  1  0  0  0  0
 12 13  1  1  0  0  0
 12 17  1  0  0  0  0
 14 15  1  6  0  0  0
 14 18  1  0  0  0  0
 15 31  1  0  0  0  0
 16 20  1  0  0  0  0
 17  2  1  1  0  0  0
 17 22  1  0  0  0  0
 18 19  1  1  0  0  0
 18 24  1  0  0  0  0
 18 30  1  0  0  0  0
 20 21  1  0  0  0  0
 20 26  1  1  0  0  0
 22 23  1  6  0  0  0
 22 28  1  0  0  0  0
 24 25  1  0  0  0  0
 26 27  1  0  0  0  0
 28 29  1  6  0  0  0
M  END
>  <CHROM.1>
-176.66315122,-173.34453139,-93.11863486,-166.07316500,-112.62978875,-72.18349350
-4.96229168,-11.13054493,-15.77707579,1.16665568,0.44485341,2.15865120

>  <Name>
ligand

>  <RI>
0

>  <Rbt.Current_Directory>
/home/itssahil/PROJECTS/Mol_Feturizer/New_Systems/rnas/4F8U

>  <Rbt.Executable>
rbdock ($Id: //depot/dev/client3/rdock/2013.1/src/exe/rbdock.cxx#4 $)

>  <Rbt.Library>
libRbt.so (2013.1, Build901 2013/11/27)

>  <Rbt.Parameter_File>
/export/apps/rDock/src/rDock_2013.1_src/data/scripts/dock_solv.prm

>  <Rbt.Receptor>
prm/pocket_docking_3.prm

>  <SCORE>
-16.6344

>  <SCORE.INTER>
-10.1406

>  <SCORE.INTER.CONST>
1

>  <SCORE.INTER.POLAR>
0

>  <SCORE.INTER.ROT>
6

>  <SCORE.INTER.SOLV>
17.6757

>  <SCORE.INTER.VDW>
-20.2523

>  <SCORE.INTER.norm>
-0.327117

>  <SCORE.INTRA>
-6.51321

>  <SCORE.INTRA.DIHEDRAL>
-14.4238

>  <SCORE.INTRA.DIHEDRAL.0>
18.77

>  <SCORE.INTRA.POLAR>
0

>  <SCORE.INTRA.POLAR.0>
0

>  <SCORE.INTRA.REPUL>
0

>  <SCORE.INTRA.REPUL.0>
0

>  <SCORE.INTRA.SOLV>
-0.347193

>  <SCORE.INTRA.SOLV.lig_0>
-77.2465

>  <SCORE.INTRA.VDW>
0.872263

>  <SCORE.INTRA.VDW.0>
-4.16072

>  <SCORE.INTRA.norm>
-0.210104

>  <SCORE.RESTR>
0.019492

>  <SCORE.RESTR.CAVITY>
0.019492

>  <SCORE.RESTR.norm>
0.000628773

>  <SCORE.SYSTEM>
0

>  <SCORE.SYSTEM.CONST>
0

>  <SCORE.SYSTEM.DIHEDRAL>
0

>  <SCORE.SYSTEM.SOLV>
0

>  <SCORE.SYSTEM.norm>
0

>  <SCORE.heavy>
31

>  <SCORE.norm>
-0.536592

>  <RMSD>
8.331

$$$$
ligand
 OpenBabel11021811493D
libRbt.so/2013.1/901 2013/11/27
 31 33  0  0  0  0  0  0  0  0999 V2000
   -4.9064  -12.8464  -12.5041 C   0  0  2  0  0  0  0  0  0  0  0  0
   -4.3387  -11.6116  -12.9619 O   0  0  0  0  0  0  0  0  0  0  0  0
   -3.5799   -9.8045  -16.7674 C   0  0  2  0  0  0  0  0  0  0  0  0
   -3.0626   -9.6004  -18.0860 N   0  0  0  0  0  0  0  0  0  0  0  0
   -6.6842  -10.1689  -17.4007 C   0  0  2  0  0  0  0  0  0  0  0  0
   -5.4174  -12.5833  -11.0441 C   0  0  2  0  0  0  0  0  0  0  0  0
   -6.3797  -11.4870  -11.0493 N   0  0  0  0  0  0  0  0  0  0  0  0
   -2.3733   -9.9100  -15.7570 C   0  0  0  0  0  0  0  0  0  0  0  0
   -7.6530  -10.4791  -18.5832 C   0  0  2  0  0  0  0  0  0  0  0  0
   -7.9687  -11.8608  -18.5712 O   0  0  0  0  0  0  0  0  0  0  0  0
   -4.2033  -12.2514  -10.1083 C   0  0  0  0  0  0  0  0  0  0  0  0
   -2.9494  -10.1288  -14.2915 C   0  0  2  0  0  0  0  0  0  0  0  0
   -1.8241  -10.2312  -13.3332 N   0  0  0  0  0  0  0  0  0  0  0  0
   -6.8955  -10.0791  -19.9258 C   0  0  1  0  0  0  0  0  0  0  0  0
   -7.7494  -10.3779  -21.1253 N   0  0  0  0  0  0  0  0  0  0  0  0
   -3.0485  -13.2736  -10.3156 C   0  0  0  0  0  0  0  0  0  0  0  0
   -3.8268  -11.4584  -14.2578 C   0  0  2  0  0  0  0  0  0  0  0  0
   -6.5560   -8.4864  -19.8939 C   0  0  1  0  0  0  0  0  0  0  0  0
   -7.7246   -7.6952  -19.7979 O   0  0  0  0  0  0  0  0  0  0  0  0
   -2.9746  -14.0159  -11.4306 C   0  0  2  0  0  0  0  0  0  0  0  0
   -3.9339  -13.9344  -12.4991 O   0  0  0  0  0  0  0  0  0  0  0  0
   -5.0114  -11.3300  -15.3046 C   0  0  2  0  0  0  0  0  0  0  0  0
   -5.7944  -12.5304  -15.3014 O   0  0  0  0  0  0  0  0  0  0  0  0
   -5.6646   -8.1730  -18.6452 C   0  0  0  0  0  0  0  0  0  0  0  0
   -6.3339   -8.7031  -17.3882 O   0  0  0  0  0  0  0  0  0  0  0  0
   -1.8364  -15.0388  -11.6537 C   0  0  0  0  0  0  0  0  0  0  0  0
   -0.9703  -14.5762  -12.7290 N   0  0  0  0  0  0  0  0  0  0  0  0
   -4.4257  -11.1120  -16.7465 C   0  0  1  0  0  0  0  0  0  0  0  0
   -5.5040  -10.9977  -17.6437 O   0  0  0  0  0  0  0  0  0  0  0  0
   -5.8156   -7.9371  -21.1246 C   0  0  0  0  0  0  0  0  0  0  0  0
   -7.4756  -11.6481  -21.8237 C   0  0  0  0  0  0  0  0  0  0  0  0
  1  2  1  1  0  0  0
  1  6  1  0  0  0  0
  1 21  1  0  0  0  0
  3  4  1  6  0  0  0
  3  8  1  0  0  0  0
  3 28  1  0  0  0  0
  5  9  1  0  0  0  0
  5 25  1  0  0  0  0
  5 29  1  6  0  0  0
  6  7  1  6  0  0  0
  6 11  1  0  0  0  0
  8 12  1  0  0  0  0
  9 10  1  6  0  0  0
  9 14  1  0  0  0  0
 11 16  1  0  0  0  0
 12 13  1  1  0  0  0
 12 17  1  0  0  0  0
 14 15  1  6  0  0  0
 14 18  1  0  0  0  0
 15 31  1  0  0  0  0
 16 20  1  0  0  0  0
 17  2  1  1  0  0  0
 17 22  1  0  0  0  0
 18 19  1  1  0  0  0
 18 24  1  0  0  0  0
 18 30  1  0  0  0  0
 20 21  1  0  0  0  0
 20 26  1  1  0  0  0
 22 23  1  6  0  0  0
 22 28  1  0  0  0  0
 24 25  1  0  0  0  0
 26 27  1  0  0  0  0
 28 29  1  6  0  0  0
M  END
>  <CHROM.1>
-177.35545523,-174.19945133,-97.85204856,-165.19616829,-111.58740038,-73.25737804
-4.96403985,-11.10733218,-15.78060349,1.16910576,0.41294986,2.14990922

>  <Name>
ligand

>  <RI>
0

>  <Rbt.Current_Directory>
/home/itssahil/PROJECTS/Mol_Feturizer/New_Systems/rnas/4F8U

>  <Rbt.Executable>
rbdock ($Id: //depot/dev/client3/rdock/2013.1/src/exe/rbdock.cxx#4 $)

>  <Rbt.Library>
libRbt.so (2013.1, Build901 2013/11/27)

>  <Rbt.Parameter_File>
/export/apps/rDock/src/rDock_2013.1_src/data/scripts/dock_solv.prm

>  <Rbt.Receptor>
prm/pocket_docking_3.prm

>  <SCORE>
-16.6382

>  <SCORE.INTER>
-10.2583

>  <SCORE.INTER.CONST>
1

>  <SCORE.INTER.POLAR>
0

>  <SCORE.INTER.ROT>
6

>  <SCORE.INTER.SOLV>
17.5933

>  <SCORE.INTER.VDW>
-20.3033

>  <SCORE.INTER.norm>
-0.330913

>  <SCORE.INTRA>
-6.38692

>  <SCORE.INTRA.DIHEDRAL>
-14.0946

>  <SCORE.INTRA.DIHEDRAL.0>
18.77

>  <SCORE.INTRA.POLAR>
0

>  <SCORE.INTRA.POLAR.0>
0

>  <SCORE.INTRA.REPUL>
0

>  <SCORE.INTRA.REPUL.0>
0

>  <SCORE.INTRA.SOLV>
-0.327414

>  <SCORE.INTRA.SOLV.lig_0>
-77.2465

>  <SCORE.INTRA.VDW>
0.824103

>  <SCORE.INTRA.VDW.0>
-4.16072

>  <SCORE.INTRA.norm>
-0.20603

>  <SCORE.RESTR>
0.00704513

>  <SCORE.RESTR.CAVITY>
0.00704513

>  <SCORE.RESTR.norm>
0.000227262

>  <SCORE.SYSTEM>
0

>  <SCORE.SYSTEM.CONST>
0

>  <SCORE.SYSTEM.DIHEDRAL>
0

>  <SCORE.SYSTEM.SOLV>
0

>  <SCORE.SYSTEM.norm>
0

>  <SCORE.heavy>
31

>  <SCORE.norm>
-0.536716

>  <RMSD>
8.331

$$$$
ligand
 OpenBabel11021811493D
libRbt.so/2013.1/901 2013/11/27
 31 33  0  0  0  0  0  0  0  0999 V2000
   -4.9016  -12.8414  -12.5126 C   0  0  2  0  0  0  0  0  0  0  0  0
   -4.3028  -11.6247  -12.9789 O   0  0  0  0  0  0  0  0  0  0  0  0
   -3.5470   -9.8552  -16.8027 C   0  0  2  0  0  0  0  0  0  0  0  0
   -3.0385   -9.6688  -18.1274 N   0  0  0  0  0  0  0  0  0  0  0  0
   -6.6699  -10.1769  -17.3981 C   0  0  2  0  0  0  0  0  0  0  0  0
   -5.3892  -12.5606  -11.0479 C   0  0  2  0  0  0  0  0  0  0  0  0
   -6.3189  -11.4366  -11.0454 N   0  0  0  0  0  0  0  0  0  0  0  0
   -2.3330   -9.9769  -15.8030 C   0  0  0  0  0  0  0  0  0  0  0  0
   -7.6551  -10.4786  -18.5693 C   0  0  2  0  0  0  0  0  0  0  0  0
   -7.9847  -11.8570  -18.5519 O   0  0  0  0  0  0  0  0  0  0  0  0
   -4.1561  -12.2629  -10.1256 C   0  0  0  0  0  0  0  0  0  0  0  0
   -2.8991  -10.1760  -14.3309 C   0  0  2  0  0  0  0  0  0  0  0  0
   -1.7668  -10.2933  -13.3825 N   0  0  0  0  0  0  0  0  0  0  0  0
   -6.9088  -10.0879  -19.9208 C   0  0  1  0  0  0  0  0  0  0  0  0
   -7.7791  -10.3795  -21.1102 N   0  0  0  0  0  0  0  0  0  0  0  0
   -3.0341  -13.3190  -10.3427 C   0  0  0  0  0  0  0  0  0  0  0  0
   -3.8005  -11.4889  -14.2805 C   0  0  2  0  0  0  0  0  0  0  0  0
   -6.5527   -8.4988  -19.8949 C   0  0  1  0  0  0  0  0  0  0  0  0
   -7.7120   -7.6955  -19.7868 O   0  0  0  0  0  0  0  0  0  0  0  0
   -2.9938  -14.0652  -11.4569 C   0  0  2  0  0  0  0  0  0  0  0  0
   -3.9616  -13.9575  -12.5154 O   0  0  0  0  0  0  0  0  0  0  0  0
   -4.9924  -11.3450  -15.3170 C   0  0  2  0  0  0  0  0  0  0  0  0
   -5.7973  -12.5307  -15.2989 O   0  0  0  0  0  0  0  0  0  0  0  0
   -5.6441   -8.1930  -18.6567 C   0  0  0  0  0  0  0  0  0  0  0  0
   -6.3044   -8.7147  -17.3916 O   0  0  0  0  0  0  0  0  0  0  0  0
   -1.8886  -15.1216  -11.6898 C   0  0  0  0  0  0  0  0  0  0  0  0
   -1.0380  -14.7005  -12.7941 N   0  0  0  0  0  0  0  0  0  0  0  0
   -4.4165  -11.1468  -16.7656 C   0  0  1  0  0  0  0  0  0  0  0  0
   -5.5010  -11.0180  -17.6534 O   0  0  0  0  0  0  0  0  0  0  0  0
   -5.8206   -7.9586  -21.1346 C   0  0  0  0  0  0  0  0  0  0  0  0
   -7.4727  -11.6130  -21.8591 C   0  0  0  0  0  0  0  0  0  0  0  0
  1  2  1  1  0  0  0
  1  6  1  0  0  0  0
  1 21  1  0  0  0  0
  3  4  1  6  0  0  0
  3  8  1  0  0  0  0
  3 28  1  0  0  0  0
  5  9  1  0  0  0  0
  5 25  1  0  0  0  0
  5 29  1  6  0  0  0
  6  7  1  6  0  0  0
  6 11  1  0  0  0  0
  8 12  1  0  0  0  0
  9 10  1  6  0  0  0
  9 14  1  0  0  0  0
 11 16  1  0  0  0  0
 12 13  1  1  0  0  0
 12 17  1  0  0  0  0
 14 15  1  6  0  0  0
 14 18  1  0  0  0  0
 15 31  1  0  0  0  0
 16 20  1  0  0  0  0
 17  2  1  1  0  0  0
 17 22  1  0  0  0  0
 18 19  1  1  0  0  0
 18 24  1  0  0  0  0
 18 30  1  0  0  0  0
 20 21  1  0  0  0  0
 20 26  1  1  0  0  0
 22 23  1  6  0  0  0
 22 28  1  0  0  0  0
 24 25  1  0  0  0  0
 26 27  1  0  0  0  0
 28 29  1  6  0  0  0
M  END
>  <CHROM.1>
-177.34558473,-173.91215468,-101.45061435,-165.87510150,-112.80690207,-73.92668565
-4.95460638,-11.12987891,-15.79582980,1.17190062,0.39546108,2.14591063

>  <Name>
ligand

>  <RI>
0

>  <Rbt.Current_Directory>
/home/itssahil/PROJECTS/Mol_Feturizer/New_Systems/rnas/4F8U

>  <Rbt.Executable>
rbdock ($Id: //depot/dev/client3/rdock/2013.1/src/exe/rbdock.cxx#4 $)

>  <Rbt.Library>
libRbt.so (2013.1, Build901 2013/11/27)

>  <Rbt.Parameter_File>
/export/apps/rDock/src/rDock_2013.1_src/data/scripts/dock_solv.prm

>  <Rbt.Receptor>
prm/pocket_docking_3.prm

>  <SCORE>
-16.6085

>  <SCORE.INTER>
-10.1775

>  <SCORE.INTER.CONST>
1

>  <SCORE.INTER.POLAR>
0

>  <SCORE.INTER.ROT>
6

>  <SCORE.INTER.SOLV>
17.3954

>  <SCORE.INTER.VDW>
-20.1835

>  <SCORE.INTER.norm>
-0.328308

>  <SCORE.INTRA>
-6.43092

>  <SCORE.INTRA.DIHEDRAL>
-14.0088

>  <SCORE.INTRA.DIHEDRAL.0>
18.77

>  <SCORE.INTRA.POLAR>
0

>  <SCORE.INTRA.POLAR.0>
0

>  <SCORE.INTRA.REPUL>
0

>  <SCORE.INTRA.REPUL.0>
0

>  <SCORE.INTRA.SOLV>
-0.397315

>  <SCORE.INTRA.SOLV.lig_0>
-77.2465

>  <SCORE.INTRA.VDW>
0.772135

>  <SCORE.INTRA.VDW.0>
-4.16072

>  <SCORE.INTRA.norm>
-0.207449

>  <SCORE.RESTR>
0

>  <SCORE.RESTR.CAVITY>
0

>  <SCORE.RESTR.norm>
0

>  <SCORE.SYSTEM>
0

>  <SCORE.SYSTEM.CONST>
0

>  <SCORE.SYSTEM.DIHEDRAL>
0

>  <SCORE.SYSTEM.SOLV>
0

>  <SCORE.SYSTEM.norm>
0

>  <SCORE.heavy>
31

>  <SCORE.norm>
-0.535757

>  <RMSD>
8.331

$$$$
ligand
 OpenBabel11021811493D
libRbt.so/2013.1/901 2013/11/27
 31 33  0  0  0  0  0  0  0  0999 V2000
   -5.2267  -12.6073  -12.3913 C   0  0  2  0  0  0  0  0  0  0  0  0
   -4.8108  -11.3574  -12.9581 O   0  0  0  0  0  0  0  0  0  0  0  0
   -3.8237   -9.7915  -16.8178 C   0  0  2  0  0  0  0  0  0  0  0  0
   -3.2108   -9.6574  -18.1040 N   0  0  0  0  0  0  0  0  0  0  0  0
   -6.8783  -10.3978  -17.6302 C   0  0  2  0  0  0  0  0  0  0  0  0
   -5.8990  -12.2664  -11.0152 C   0  0  2  0  0  0  0  0  0  0  0  0
   -7.0095  -11.3441  -11.2247 N   0  0  0  0  0  0  0  0  0  0  0  0
   -2.6990   -9.7679  -15.7121 C   0  0  0  0  0  0  0  0  0  0  0  0
   -7.6657  -10.7200  -18.9377 C   0  0  2  0  0  0  0  0  0  0  0  0
   -7.8792  -12.1190  -19.0152 O   0  0  0  0  0  0  0  0  0  0  0  0
   -4.8359  -11.6435  -10.0447 C   0  0  0  0  0  0  0  0  0  0  0  0
   -3.3817   -9.9089  -14.2833 C   0  0  2  0  0  0  0  0  0  0  0  0
   -2.3339   -9.8896  -13.2359 N   0  0  0  0  0  0  0  0  0  0  0  0
   -6.7765  -10.2107  -20.1567 C   0  0  1  0  0  0  0  0  0  0  0  0
   -7.4488  -10.5131  -21.4659 N   0  0  0  0  0  0  0  0  0  0  0  0
   -3.5280  -12.4865  -10.0411 C   0  0  0  0  0  0  0  0  0  0  0  0
   -4.2031  -11.2727  -14.2184 C   0  0  2  0  0  0  0  0  0  0  0  0
   -6.5602   -8.6017  -20.0253 C   0  0  1  0  0  0  0  0  0  0  0  0
   -7.7859   -7.8962  -20.0524 O   0  0  0  0  0  0  0  0  0  0  0  0
   -3.2455  -13.3280  -11.0469 C   0  0  2  0  0  0  0  0  0  0  0  0
   -4.1074  -13.5199  -12.1823 O   0  0  0  0  0  0  0  0  0  0  0  0
   -5.3039  -11.2750  -15.3603 C   0  0  2  0  0  0  0  0  0  0  0  0
   -6.0341  -12.5078  -15.3281 O   0  0  0  0  0  0  0  0  0  0  0  0
   -5.8580   -8.2845  -18.6620 C   0  0  0  0  0  0  0  0  0  0  0  0
   -6.6396   -8.9137  -17.5211 O   0  0  0  0  0  0  0  0  0  0  0  0
   -1.9524  -14.1762  -11.0601 C   0  0  0  0  0  0  0  0  0  0  0  0
   -1.1005  -13.7474  -12.1606 N   0  0  0  0  0  0  0  0  0  0  0  0
   -4.6135  -11.1327  -16.7648 C   0  0  1  0  0  0  0  0  0  0  0  0
   -5.6199  -11.1335  -17.7487 O   0  0  0  0  0  0  0  0  0  0  0  0
   -5.7127   -7.9498  -21.1304 C   0  0  0  0  0  0  0  0  0  0  0  0
   -7.1687  -11.8360  -22.0555 C   0  0  0  0  0  0  0  0  0  0  0  0
  1  2  1  1  0  0  0
  1  6  1  0  0  0  0
  1 21  1  0  0  0  0
  3  4  1  6  0  0  0
  3  8  1  0  0  0  0
  3 28  1  0  0  0  0
  5  9  1  0  0  0  0
  5 25  1  0  0  0  0
  5 29  1  6  0  0  0
  6  7  1  6  0  0  0
  6 11  1  0  0  0  0
  8 12  1  0  0  0  0
  9 10  1  6  0  0  0
  9 14  1  0  0  0  0
 11 16  1  0  0  0  0
 12 13  1  1  0  0  0
 12 17  1  0  0  0  0
 14 15  1  6  0  0  0
 14 18  1  0  0  0  0
 15 31  1  0  0  0  0
 16 20  1  0  0  0  0
 17  2  1  1  0  0  0
 17 22  1  0  0  0  0
 18 19  1  1  0  0  0
 18 24  1  0  0  0  0
 18 30  1  0  0  0  0
 20 21  1  0  0  0  0
 20 26  1  1  0  0  0
 22 23  1  6  0  0  0
 22 28  1  0  0  0  0
 24 25  1  0  0  0  0
 26 27  1  0  0  0  0
 28 29  1  6  0  0  0
M  END
>  <CHROM.1>
-177.95831324,-179.15595654,-87.85766723,-158.03676962,-114.25755970,-76.39333422
-5.16879874,-10.97971718,-15.79178441,1.22181608,0.39227239,2.02498353

>  <Name>
ligand

>  <RI>
0

>  <Rbt.Current_Directory>
/home/itssahil/PROJECTS/Mol_Feturizer/New_Systems/rnas/4F8U

>  <Rbt.Executable>
rbdock ($Id: //depot/dev/client3/rdock/2013.1/src/exe/rbdock.cxx#4 $)

>  <Rbt.Library>
libRbt.so (2013.1, Build901 2013/11/27)

>  <Rbt.Parameter_File>
/export/apps/rDock/src/rDock_2013.1_src/data/scripts/dock_solv.prm

>  <Rbt.Receptor>
prm/pocket_docking_4.prm

>  <SCORE>
-16.9542

>  <SCORE.INTER>
-11.6034

>  <SCORE.INTER.CONST>
1

>  <SCORE.INTER.POLAR>
0

>  <SCORE.INTER.ROT>
6

>  <SCORE.INTER.SOLV>
17.9716

>  <SCORE.INTER.VDW>
-21.3262

>  <SCORE.INTER.norm>
-0.374304

>  <SCORE.INTRA>
-5.35077

>  <SCORE.INTRA.DIHEDRAL>
-13.1109

>  <SCORE.INTRA.DIHEDRAL.0>
18.77

>  <SCORE.INTRA.POLAR>
0

>  <SCORE.INTRA.POLAR.0>
0

>  <SCORE.INTRA.REPUL>
0

>  <SCORE.INTRA.REPUL.0>
0

>  <SCORE.INTRA.SOLV>
0.466964

>  <SCORE.INTRA.SOLV.lig_0>
-77.2465

>  <SCORE.INTRA.VDW>
0.971185

>  <SCORE.INTRA.VDW.0>
-4.16072

>  <SCORE.INTRA.norm>
-0.172605

>  <SCORE.RESTR>
0

>  <SCORE.RESTR.CAVITY>
0

>  <SCORE.RESTR.norm>
0

>  <SCORE.SYSTEM>
0

>  <SCORE.SYSTEM.CONST>
0

>  <SCORE.SYSTEM.DIHEDRAL>
0

>  <SCORE.SYSTEM.SOLV>
0

>  <SCORE.SYSTEM.norm>
0

>  <SCORE.heavy>
31

>  <SCORE.norm>
-0.54691

>  <RMSD>
8.334

$$$$
ligand
 OpenBabel11021811493D
libRbt.so/2013.1/901 2013/11/27
 31 33  0  0  0  0  0  0  0  0999 V2000
   -4.9040  -12.8298  -12.5130 C   0  0  2  0  0  0  0  0  0  0  0  0
   -4.2961  -11.6110  -12.9620 O   0  0  0  0  0  0  0  0  0  0  0  0
   -3.5753   -9.7961  -16.7712 C   0  0  2  0  0  0  0  0  0  0  0  0
   -3.0748   -9.5915  -18.0962 N   0  0  0  0  0  0  0  0  0  0  0  0
   -6.6712  -10.0988  -17.3821 C   0  0  2  0  0  0  0  0  0  0  0  0
   -5.3770  -12.5708  -11.0395 C   0  0  2  0  0  0  0  0  0  0  0  0
   -6.2948  -11.4374  -11.0089 N   0  0  0  0  0  0  0  0  0  0  0  0
   -2.3556   -9.9158  -15.7782 C   0  0  0  0  0  0  0  0  0  0  0  0
   -7.6843  -10.4313  -18.5206 C   0  0  2  0  0  0  0  0  0  0  0  0
   -8.0361  -11.8019  -18.4398 O   0  0  0  0  0  0  0  0  0  0  0  0
   -4.1335  -12.3027  -10.1220 C   0  0  0  0  0  0  0  0  0  0  0  0
   -2.9130  -10.1351  -14.3056 C   0  0  2  0  0  0  0  0  0  0  0  0
   -1.7753  -10.2506  -13.3635 N   0  0  0  0  0  0  0  0  0  0  0  0
   -6.9588  -10.1094  -19.9012 C   0  0  1  0  0  0  0  0  0  0  0  0
   -7.8573  -10.4345  -21.0606 N   0  0  0  0  0  0  0  0  0  0  0  0
   -3.0244  -13.3662  -10.3675 C   0  0  0  0  0  0  0  0  0  0  0  0
   -3.8012  -11.4573  -14.2644 C   0  0  2  0  0  0  0  0  0  0  0  0
   -6.5762   -8.5269  -19.9479 C   0  0  1  0  0  0  0  0  0  0  0  0
   -7.7198   -7.7000  -19.8509 O   0  0  0  0  0  0  0  0  0  0  0  0
   -3.0008  -14.0923  -11.4953 C   0  0  2  0  0  0  0  0  0  0  0  0
   -3.9758  -13.9553  -12.5438 O   0  0  0  0  0  0  0  0  0  0  0  0
   -4.9992  -11.3149  -15.2940 C   0  0  2  0  0  0  0  0  0  0  0  0
   -5.7923  -12.5086  -15.2842 O   0  0  0  0  0  0  0  0  0  0  0  0
   -5.6382   -8.1862  -18.7411 C   0  0  0  0  0  0  0  0  0  0  0  0
   -6.2817   -8.6441  -17.4431 O   0  0  0  0  0  0  0  0  0  0  0  0
   -1.9086  -15.1557  -11.7563 C   0  0  0  0  0  0  0  0  0  0  0  0
   -1.1295  -14.7758  -12.9264 N   0  0  0  0  0  0  0  0  0  0  0  0
   -4.4318  -11.0965  -16.7431 C   0  0  1  0  0  0  0  0  0  0  0  0
   -5.5216  -10.9697  -17.6247 O   0  0  0  0  0  0  0  0  0  0  0  0
   -5.8602   -8.0507  -21.2227 C   0  0  0  0  0  0  0  0  0  0  0  0
   -7.4298  -11.5485  -21.9280 C   0  0  0  0  0  0  0  0  0  0  0  0
  1  2  1  1  0  0  0
  1  6  1  0  0  0  0
  1 21  1  0  0  0  0
  3  4  1  6  0  0  0
  3  8  1  0  0  0  0
  3 28  1  0  0  0  0
  5  9  1  0  0  0  0
  5 25  1  0  0  0  0
  5 29  1  6  0  0  0
  6  7  1  6  0  0  0
  6 11  1  0  0  0  0
  8 12  1  0  0  0  0
  9 10  1  6  0  0  0
  9 14  1  0  0  0  0
 11 16  1  0  0  0  0
 12 13  1  1  0  0  0
 12 17  1  0  0  0  0
 14 15  1  6  0  0  0
 14 18  1  0  0  0  0
 15 31  1  0  0  0  0
 16 20  1  0  0  0  0
 17  2  1  1  0  0  0
 17 22  1  0  0  0  0
 18 19  1  1  0  0  0
 18 24  1  0  0  0  0
 18 30  1  0  0  0  0
 20 21  1  0  0  0  0
 20 26  1  1  0  0  0
 22 23  1  6  0  0  0
 22 28  1  0  0  0  0
 24 25  1  0  0  0  0
 26 27  1  0  0  0  0
 28 29  1  6  0  0  0
M  END
>  <CHROM.1>
-177.43619094,-172.86015432,-113.36740848,-167.09587205,-117.32522871,-71.20722921
-4.96779574,-11.11743202,-15.80110457,1.16853408,0.41726474,2.15820678

>  <Name>
ligand

>  <RI>
0

>  <Rbt.Current_Directory>
/home/itssahil/PROJECTS/Mol_Feturizer/New_Systems/rnas/4F8U

>  <Rbt.Executable>
rbdock ($Id: //depot/dev/client3/rdock/2013.1/src/exe/rbdock.cxx#4 $)

>  <Rbt.Library>
libRbt.so (2013.1, Build901 2013/11/27)

>  <Rbt.Parameter_File>
/export/apps/rDock/src/rDock_2013.1_src/data/scripts/dock_solv.prm

>  <Rbt.Receptor>
prm/pocket_docking_3.prm

>  <SCORE>
-16.6423

>  <SCORE.INTER>
-10.0992

>  <SCORE.INTER.CONST>
1

>  <SCORE.INTER.POLAR>
0

>  <SCORE.INTER.ROT>
6

>  <SCORE.INTER.SOLV>
17.6129

>  <SCORE.INTER.VDW>
-20.2038

>  <SCORE.INTER.norm>
-0.325781

>  <SCORE.INTRA>
-6.54308

>  <SCORE.INTRA.DIHEDRAL>
-14.2383

>  <SCORE.INTRA.DIHEDRAL.0>
18.77

>  <SCORE.INTRA.POLAR>
0

>  <SCORE.INTRA.POLAR.0>
0

>  <SCORE.INTRA.REPUL>
0

>  <SCORE.INTRA.REPUL.0>
0

>  <SCORE.INTRA.SOLV>
-0.358419

>  <SCORE.INTRA.SOLV.lig_0>
-77.2465

>  <SCORE.INTRA.VDW>
0.755265

>  <SCORE.INTRA.VDW.0>
-4.16072

>  <SCORE.INTRA.norm>
-0.211067

>  <SCORE.RESTR>
0

>  <SCORE.RESTR.CAVITY>
0

>  <SCORE.RESTR.norm>
0

>  <SCORE.SYSTEM>
0

>  <SCORE.SYSTEM.CONST>
0

>  <SCORE.SYSTEM.DIHEDRAL>
0

>  <SCORE.SYSTEM.SOLV>
0

>  <SCORE.SYSTEM.norm>
0

>  <SCORE.heavy>
31

>  <SCORE.norm>
-0.536848

>  <RMSD>
8.336

$$$$
ligand
 OpenBabel11021811493D
libRbt.so/2013.1/901 2013/11/27
 31 33  0  0  0  0  0  0  0  0999 V2000
   -6.2864  -13.3831  -19.1152 C   0  0  2  0  0  0  0  0  0  0  0  0
   -4.9484  -12.8674  -19.0975 O   0  0  0  0  0  0  0  0  0  0  0  0
   -5.4696   -9.1234  -17.0889 C   0  0  2  0  0  0  0  0  0  0  0  0
   -5.1969   -7.8117  -16.5859 N   0  0  0  0  0  0  0  0  0  0  0  0
   -6.0957   -6.7910  -19.4057 C   0  0  2  0  0  0  0  0  0  0  0  0
   -6.2619  -14.6430  -20.0501 C   0  0  2  0  0  0  0  0  0  0  0  0
   -5.2909  -15.6093  -19.5488 N   0  0  0  0  0  0  0  0  0  0  0  0
   -4.4089  -10.1282  -16.4943 C   0  0  0  0  0  0  0  0  0  0  0  0
   -7.2615   -6.3215  -20.3296 C   0  0  2  0  0  0  0  0  0  0  0  0
   -8.4933   -6.5278  -19.6596 O   0  0  0  0  0  0  0  0  0  0  0  0
   -5.9080  -14.2100  -21.5155 C   0  0  0  0  0  0  0  0  0  0  0  0
   -4.7177  -11.5863  -17.0475 C   0  0  2  0  0  0  0  0  0  0  0  0
   -3.7259  -12.5392  -16.4967 N   0  0  0  0  0  0  0  0  0  0  0  0
   -7.1836   -7.1926  -21.6605 C   0  0  1  0  0  0  0  0  0  0  0  0
   -8.2980   -6.8267  -22.5994 N   0  0  0  0  0  0  0  0  0  0  0  0
   -6.7582  -12.9816  -21.9507 C   0  0  0  0  0  0  0  0  0  0  0  0
   -4.6499  -11.5767  -18.6394 C   0  0  2  0  0  0  0  0  0  0  0  0
   -5.7549   -6.9215  -22.3941 C   0  0  1  0  0  0  0  0  0  0  0  0
   -5.5890   -5.5625  -22.7498 O   0  0  0  0  0  0  0  0  0  0  0  0
   -7.3470  -12.1913  -21.0405 C   0  0  2  0  0  0  0  0  0  0  0  0
   -7.2479  -12.4097  -19.6223 O   0  0  0  0  0  0  0  0  0  0  0  0
   -5.7068  -10.5363  -19.2016 C   0  0  2  0  0  0  0  0  0  0  0  0
   -5.6388  -10.5004  -20.6328 O   0  0  0  0  0  0  0  0  0  0  0  0
   -4.5920   -7.3039  -21.4176 C   0  0  0  0  0  0  0  0  0  0  0  0
   -4.7716   -6.5798  -20.0939 O   0  0  0  0  0  0  0  0  0  0  0  0
   -8.1979  -10.9676  -21.4532 C   0  0  0  0  0  0  0  0  0  0  0  0
   -7.5973  -10.3268  -22.6147 N   0  0  0  0  0  0  0  0  0  0  0  0
   -5.3894   -9.1017  -18.6440 C   0  0  1  0  0  0  0  0  0  0  0  0
   -6.3488   -8.2102  -19.1594 O   0  0  0  0  0  0  0  0  0  0  0  0
   -5.5182   -7.6964  -23.7010 C   0  0  0  0  0  0  0  0  0  0  0  0
   -8.7024   -7.8613  -23.5702 C   0  0  0  0  0  0  0  0  0  0  0  0
  1  2  1  6  0  0  0
  1  6  1  0  0  0  0
  1 21  1  0  0  0  0
  3  4  1  1  0  0  0
  3  8  1  0  0  0  0
  3 28  1  0  0  0  0
  5  9  1  0  0  0  0
  5 25  1  0  0  0  0
  5 29  1  6  0  0  0
  6  7  1  1  0  0  0
  6 11  1  0  0  0  0
  8 12  1  0  0  0  0
  9 10  1  1  0  0  0
  9 14  1  0  0  0  0
 11 16  1  0  0  0  0
 12 13  1  1  0  0  0
 12 17  1  0  0  0  0
 14 15  1  6  0  0  0
 14 18  1  0  0  0  0
 15 31  1  0  0  0  0
 16 20  1  0  0  0  0
 17  2  1  6  0  0  0
 17 22  1  0  0  0  0
 18 19  1  6  0  0  0
 18 24  1  0  0  0  0
 18 30  1  0  0  0  0
 20 21  1  0  0  0  0
 20 26  1  6  0  0  0
 22 23  1  6  0  0  0
 22 28  1  0  0  0  0
 24 25  1  0  0  0  0
 26 27  1  0  0  0  0
 28 29  1  6  0  0  0
M  END
>  <CHROM.1>
164.12673247,164.25169410,-155.59309231,75.88453361,-37.12744937,90.08601786
-6.11770195,-9.84606591,-20.14312213,1.17220317,1.13327615,3.12957081

>  <Name>
ligand

>  <RI>
0

>  <Rbt.Current_Directory>
/home/itssahil/PROJECTS/Mol_Feturizer/New_Systems/rnas/4F8U

>  <Rbt.Executable>
rbdock ($Id: //depot/dev/client3/rdock/2013.1/src/exe/rbdock.cxx#4 $)

>  <Rbt.Library>
libRbt.so (2013.1, Build901 2013/11/27)

>  <Rbt.Parameter_File>
/export/apps/rDock/src/rDock_2013.1_src/data/scripts/dock_solv.prm

>  <Rbt.Receptor>
prm/blind_docking_60.prm

>  <SCORE>
72.3991

>  <SCORE.INTER>
47.7931

>  <SCORE.INTER.CONST>
1

>  <SCORE.INTER.POLAR>
0

>  <SCORE.INTER.ROT>
6

>  <SCORE.INTER.SOLV>
26.6816

>  <SCORE.INTER.VDW>
15.3682

>  <SCORE.INTER.norm>
1.54171

>  <SCORE.INTRA>
6.38675

>  <SCORE.INTRA.DIHEDRAL>
-8.22906

>  <SCORE.INTRA.DIHEDRAL.0>
18.77

>  <SCORE.INTRA.POLAR>
0

>  <SCORE.INTRA.POLAR.0>
0

>  <SCORE.INTRA.REPUL>
0

>  <SCORE.INTRA.REPUL.0>
0

>  <SCORE.INTRA.SOLV>
4.58095

>  <SCORE.INTRA.SOLV.lig_0>
-77.2465

>  <SCORE.INTRA.VDW>
8.21081

>  <SCORE.INTRA.VDW.0>
-4.16072

>  <SCORE.INTRA.norm>
0.206024

>  <SCORE.RESTR>
18.2192

>  <SCORE.RESTR.CAVITY>
18.2192

>  <SCORE.RESTR.norm>
0.587717

>  <SCORE.SYSTEM>
0

>  <SCORE.SYSTEM.CONST>
0

>  <SCORE.SYSTEM.DIHEDRAL>
0

>  <SCORE.SYSTEM.SOLV>
0

>  <SCORE.SYSTEM.norm>
0

>  <SCORE.heavy>
31

>  <SCORE.norm>
2.33545

>  <RMSD>
8.341

$$$$
ligand
 OpenBabel11021811493D
libRbt.so/2013.1/901 2013/11/27
 31 33  0  0  0  0  0  0  0  0999 V2000
   -3.4670  -12.5498  -12.1526 C   0  0  2  0  0  0  0  0  0  0  0  0
   -4.2836  -12.1413  -13.2584 O   0  0  0  0  0  0  0  0  0  0  0  0
   -3.5125   -9.6732  -16.6698 C   0  0  2  0  0  0  0  0  0  0  0  0
   -2.9622   -9.2173  -17.9097 N   0  0  0  0  0  0  0  0  0  0  0  0
   -6.5007  -10.0106  -17.5463 C   0  0  2  0  0  0  0  0  0  0  0  0
   -2.7520  -13.8740  -12.5969 C   0  0  2  0  0  0  0  0  0  0  0  0
   -1.9795  -13.6331  -13.8106 N   0  0  0  0  0  0  0  0  0  0  0  0
   -2.3397   -9.8721  -15.6338 C   0  0  0  0  0  0  0  0  0  0  0  0
   -7.5105  -10.3609  -18.6824 C   0  0  2  0  0  0  0  0  0  0  0  0
   -7.7967  -11.7482  -18.6342 O   0  0  0  0  0  0  0  0  0  0  0  0
   -3.8182  -15.0000  -12.8320 C   0  0  0  0  0  0  0  0  0  0  0  0
   -2.9531  -10.3709  -14.2546 C   0  0  2  0  0  0  0  0  0  0  0  0
   -1.8597  -10.5629  -13.2734 N   0  0  0  0  0  0  0  0  0  0  0  0
   -6.8172   -9.9694  -20.0616 C   0  0  1  0  0  0  0  0  0  0  0  0
   -7.7131  -10.3064  -21.2197 N   0  0  0  0  0  0  0  0  0  0  0  0
   -4.8264  -15.0642  -11.6485 C   0  0  0  0  0  0  0  0  0  0  0  0
   -3.7360  -11.7396  -14.4846 C   0  0  2  0  0  0  0  0  0  0  0  0
   -6.5098   -8.3699  -20.0705 C   0  0  1  0  0  0  0  0  0  0  0  0
   -7.6897   -7.6007  -19.9395 O   0  0  0  0  0  0  0  0  0  0  0  0
   -4.9841  -14.0226  -10.8179 C   0  0  2  0  0  0  0  0  0  0  0  0
   -4.2506  -12.7919  -10.9457 O   0  0  0  0  0  0  0  0  0  0  0  0
   -4.8870  -11.5107  -15.5516 C   0  0  2  0  0  0  0  0  0  0  0  0
   -5.5836  -12.7412  -15.7856 O   0  0  0  0  0  0  0  0  0  0  0  0
   -5.5747   -8.0168  -18.8651 C   0  0  0  0  0  0  0  0  0  0  0  0
   -6.1807   -8.5380  -17.5729 O   0  0  0  0  0  0  0  0  0  0  0  0
   -5.9788  -14.0681   -9.6346 C   0  0  0  0  0  0  0  0  0  0  0  0
   -7.1224  -13.2155   -9.9272 N   0  0  0  0  0  0  0  0  0  0  0  0
   -4.2649  -11.0160  -16.9072 C   0  0  1  0  0  0  0  0  0  0  0  0
   -5.3145  -10.8197  -17.8241 O   0  0  0  0  0  0  0  0  0  0  0  0
   -5.8321   -7.8276  -21.3398 C   0  0  0  0  0  0  0  0  0  0  0  0
   -7.4594  -11.5956  -21.8902 C   0  0  0  0  0  0  0  0  0  0  0  0
  1  2  1  6  0  0  0
  1  6  1  0  0  0  0
  1 21  1  0  0  0  0
  3  4  1  6  0  0  0
  3  8  1  0  0  0  0
  3 28  1  0  0  0  0
  5  9  1  0  0  0  0
  5 25  1  0  0  0  0
  5 29  1  6  0  0  0
  6  7  1  6  0  0  0
  6 11  1  0  0  0  0
  8 12  1  0  0  0  0
  9 10  1  6  0  0  0
  9 14  1  0  0  0  0
 11 16  1  0  0  0  0
 12 13  1  1  0  0  0
 12 17  1  0  0  0  0
 14 15  1  6  0  0  0
 14 18  1  0  0  0  0
 15 31  1  0  0  0  0
 16 20  1  0  0  0  0
 17  2  1  1  0  0  0
 17 22  1  0  0  0  0
 18 19  1  1  0  0  0
 18 24  1  0  0  0  0
 18 30  1  0  0  0  0
 20 21  1  0  0  0  0
 20 26  1  1  0  0  0
 22 23  1  6  0  0  0
 22 28  1  0  0  0  0
 24 25  1  0  0  0  0
 26 27  1  0  0  0  0
 28 29  1  6  0  0  0
M  END
>  <CHROM.1>
-65.68751754,-166.79899142,-96.65248385,-67.08218235,-107.92251207,-67.10585159
-5.08344848,-11.22563440,-15.89402694,-1.29226622,-0.45376267,-0.98427352

>  <Name>
ligand

>  <RI>
0

>  <Rbt.Current_Directory>
/home/itssahil/PROJECTS/Mol_Feturizer/New_Systems/rnas/4F8U

>  <Rbt.Executable>
rbdock ($Id: //depot/dev/client3/rdock/2013.1/src/exe/rbdock.cxx#4 $)

>  <Rbt.Library>
libRbt.so (2013.1, Build901 2013/11/27)

>  <Rbt.Parameter_File>
/export/apps/rDock/src/rDock_2013.1_src/data/scripts/dock_solv.prm

>  <Rbt.Receptor>
prm/pocket_docking_3.prm

>  <SCORE>
-9.53563

>  <SCORE.INTER>
-6.39003

>  <SCORE.INTER.CONST>
1

>  <SCORE.INTER.POLAR>
0

>  <SCORE.INTER.ROT>
6

>  <SCORE.INTER.SOLV>
16.3708

>  <SCORE.INTER.VDW>
-17.3169

>  <SCORE.INTER.norm>
-0.20613

>  <SCORE.INTRA>
-3.14584

>  <SCORE.INTRA.DIHEDRAL>
-14.6206

>  <SCORE.INTRA.DIHEDRAL.0>
18.77

>  <SCORE.INTRA.POLAR>
0

>  <SCORE.INTRA.POLAR.0>
0

>  <SCORE.INTRA.REPUL>
0

>  <SCORE.INTRA.REPUL.0>
0

>  <SCORE.INTRA.SOLV>
4.24008

>  <SCORE.INTRA.SOLV.lig_0>
-77.2465

>  <SCORE.INTRA.VDW>
2.04442

>  <SCORE.INTRA.VDW.0>
-4.16072

>  <SCORE.INTRA.norm>
-0.101479

>  <SCORE.RESTR>
0.000236815

>  <SCORE.RESTR.CAVITY>
0.000236815

>  <SCORE.RESTR.norm>
7.63919e-06

>  <SCORE.SYSTEM>
0

>  <SCORE.SYSTEM.CONST>
0

>  <SCORE.SYSTEM.DIHEDRAL>
0

>  <SCORE.SYSTEM.SOLV>
0

>  <SCORE.SYSTEM.norm>
0

>  <SCORE.heavy>
31

>  <SCORE.norm>
-0.307601

>  <RMSD>
8.342

$$$$
ligand
 OpenBabel11021811493D
libRbt.so/2013.1/901 2013/11/27
 31 33  0  0  0  0  0  0  0  0999 V2000
   -1.3752   -9.7798  -15.8233 C   0  0  2  0  0  0  0  0  0  0  0  0
   -1.2366  -10.9940  -16.5738 O   0  0  0  0  0  0  0  0  0  0  0  0
   -4.1040  -13.1781  -18.8828 C   0  0  2  0  0  0  0  0  0  0  0  0
   -5.1984  -14.0394  -19.2119 N   0  0  0  0  0  0  0  0  0  0  0  0
   -6.7157  -10.5643  -18.1312 C   0  0  2  0  0  0  0  0  0  0  0  0
    0.0662   -9.1733  -15.6944 C   0  0  2  0  0  0  0  0  0  0  0  0
    0.6293   -8.9552  -17.0222 N   0  0  0  0  0  0  0  0  0  0  0  0
   -3.0227  -14.0080  -18.0892 C   0  0  0  0  0  0  0  0  0  0  0  0
   -7.7173  -10.3084  -19.2993 C   0  0  2  0  0  0  0  0  0  0  0  0
   -8.1008  -11.5525  -19.8597 O   0  0  0  0  0  0  0  0  0  0  0  0
    0.9758  -10.1390  -14.8578 C   0  0  0  0  0  0  0  0  0  0  0  0
   -1.8039  -13.0521  -17.7310 C   0  0  2  0  0  0  0  0  0  0  0  0
   -0.7818  -13.8210  -16.9833 N   0  0  0  0  0  0  0  0  0  0  0  0
   -6.9623   -9.4076  -20.3740 C   0  0  1  0  0  0  0  0  0  0  0  0
   -7.8488   -9.1386  -21.5568 N   0  0  0  0  0  0  0  0  0  0  0  0
    0.2484  -10.6013  -13.5621 C   0  0  0  0  0  0  0  0  0  0  0  0
   -2.3270  -11.8292  -16.8536 C   0  0  2  0  0  0  0  0  0  0  0  0
   -6.5438   -7.9919  -19.6858 C   0  0  1  0  0  0  0  0  0  0  0  0
   -7.6702   -7.2714  -19.2241 O   0  0  0  0  0  0  0  0  0  0  0  0
   -1.0863  -10.5212  -13.4529 C   0  0  2  0  0  0  0  0  0  0  0  0
   -1.9352  -10.0106  -14.4958 O   0  0  0  0  0  0  0  0  0  0  0  0
   -3.4319  -11.0354  -17.6689 C   0  0  2  0  0  0  0  0  0  0  0  0
   -3.9283   -9.9465  -16.8803 O   0  0  0  0  0  0  0  0  0  0  0  0
   -5.6184   -8.2700  -18.4536 C   0  0  0  0  0  0  0  0  0  0  0  0
   -6.2930   -9.2557  -17.5145 O   0  0  0  0  0  0  0  0  0  0  0  0
   -1.8271  -10.9729  -12.1727 C   0  0  0  0  0  0  0  0  0  0  0  0
   -2.7147  -12.0828  -12.4902 N   0  0  0  0  0  0  0  0  0  0  0  0
   -4.6275  -11.9942  -18.0168 C   0  0  1  0  0  0  0  0  0  0  0  0
   -5.5820  -11.2571  -18.7424 O   0  0  0  0  0  0  0  0  0  0  0  0
   -5.7967   -7.0027  -20.5956 C   0  0  0  0  0  0  0  0  0  0  0  0
   -7.5727   -9.9248  -22.7741 C   0  0  0  0  0  0  0  0  0  0  0  0
  1  2  1  1  0  0  0
  1  6  1  0  0  0  0
  1 21  1  0  0  0  0
  3  4  1  1  0  0  0
  3  8  1  0  0  0  0
  3 28  1  0  0  0  0
  5  9  1  0  0  0  0
  5 25  1  0  0  0  0
  5 29  1  6  0  0  0
  6  7  1  6  0  0  0
  6 11  1  0  0  0  0
  8 12  1  0  0  0  0
  9 10  1  6  0  0  0
  9 14  1  0  0  0  0
 11 16  1  0  0  0  0
 12 13  1  1  0  0  0
 12 17  1  0  0  0  0
 14 15  1  6  0  0  0
 14 18  1  0  0  0  0
 15 31  1  0  0  0  0
 16 20  1  0  0  0  0
 17  2  1  6  0  0  0
 17 22  1  0  0  0  0
 18 19  1  1  0  0  0
 18 24  1  0  0  0  0
 18 30  1  0  0  0  0
 20 21  1  0  0  0  0
 20 26  1  1  0  0  0
 22 23  1  1  0  0  0
 22 28  1  0  0  0  0
 24 25  1  0  0  0  0
 26 27  1  0  0  0  0
 28 29  1  6  0  0  0
M  END
>  <CHROM.1>
178.21963209,-161.90441372,-102.92614463,178.55605550,-117.27662986,148.24766088
-3.90890082,-10.55781693,-17.51968752,-0.02902729,-0.72880398,0.20151499

>  <Name>
ligand

>  <RI>
0

>  <Rbt.Current_Directory>
/home/itssahil/PROJECTS/Mol_Feturizer/New_Systems/rnas/4F8U

>  <Rbt.Executable>
rbdock ($Id: //depot/dev/client3/rdock/2013.1/src/exe/rbdock.cxx#4 $)

>  <Rbt.Library>
libRbt.so (2013.1, Build901 2013/11/27)

>  <Rbt.Parameter_File>
/export/apps/rDock/src/rDock_2013.1_src/data/scripts/dock_solv.prm

>  <Rbt.Receptor>
prm/pocket_docking_5.prm

>  <SCORE>
-15.2356

>  <SCORE.INTER>
-10.0882

>  <SCORE.INTER.CONST>
1

>  <SCORE.INTER.POLAR>
0

>  <SCORE.INTER.ROT>
6

>  <SCORE.INTER.SOLV>
14.0598

>  <SCORE.INTER.VDW>
-19.0121

>  <SCORE.INTER.norm>
-0.325425

>  <SCORE.INTRA>
-5.14744

>  <SCORE.INTRA.DIHEDRAL>
-10.6483

>  <SCORE.INTRA.DIHEDRAL.0>
18.77

>  <SCORE.INTRA.POLAR>
0

>  <SCORE.INTRA.POLAR.0>
0

>  <SCORE.INTRA.REPUL>
0

>  <SCORE.INTRA.REPUL.0>
0

>  <SCORE.INTRA.SOLV>
-2.40402

>  <SCORE.INTRA.SOLV.lig_0>
-77.2465

>  <SCORE.INTRA.VDW>
1.37872

>  <SCORE.INTRA.VDW.0>
-4.16072

>  <SCORE.INTRA.norm>
-0.166047

>  <SCORE.RESTR>
0

>  <SCORE.RESTR.CAVITY>
0

>  <SCORE.RESTR.norm>
0

>  <SCORE.SYSTEM>
0

>  <SCORE.SYSTEM.CONST>
0

>  <SCORE.SYSTEM.DIHEDRAL>
0

>  <SCORE.SYSTEM.SOLV>
0

>  <SCORE.SYSTEM.norm>
0

>  <SCORE.heavy>
31

>  <SCORE.norm>
-0.491471

>  <RMSD>
8.342

$$$$
ligand
 OpenBabel11021811493D
libRbt.so/2013.1/901 2013/11/27
 31 33  0  0  0  0  0  0  0  0999 V2000
   -4.9641  -12.6043  -12.4066 C   0  0  2  0  0  0  0  0  0  0  0  0
   -4.2677  -11.4450  -12.8838 O   0  0  0  0  0  0  0  0  0  0  0  0
   -3.5080   -9.8174  -16.7693 C   0  0  2  0  0  0  0  0  0  0  0  0
   -3.0001   -9.6809  -18.1003 N   0  0  0  0  0  0  0  0  0  0  0  0
   -6.6365  -10.1518  -17.3464 C   0  0  2  0  0  0  0  0  0  0  0  0
   -5.2848  -12.3355  -10.8944 C   0  0  2  0  0  0  0  0  0  0  0  0
   -6.0703  -11.1129  -10.7673 N   0  0  0  0  0  0  0  0  0  0  0  0
   -2.2935   -9.9086  -15.7670 C   0  0  0  0  0  0  0  0  0  0  0  0
   -7.6107  -10.4691  -18.5226 C   0  0  2  0  0  0  0  0  0  0  0  0
   -7.9455  -11.8459  -18.4862 O   0  0  0  0  0  0  0  0  0  0  0  0
   -3.9492  -12.2241  -10.0799 C   0  0  0  0  0  0  0  0  0  0  0  0
   -2.8589  -10.0521  -14.2881 C   0  0  2  0  0  0  0  0  0  0  0  0
   -1.7262  -10.1405  -13.3372 N   0  0  0  0  0  0  0  0  0  0  0  0
   -6.8492  -10.1030  -19.8725 C   0  0  1  0  0  0  0  0  0  0  0  0
   -7.7085  -10.4108  -21.0659 N   0  0  0  0  0  0  0  0  0  0  0  0
   -2.9842  -13.3918  -10.4359 C   0  0  0  0  0  0  0  0  0  0  0  0
   -3.7662  -11.3583  -14.1899 C   0  0  2  0  0  0  0  0  0  0  0  0
   -6.4877   -8.5149  -19.8687 C   0  0  1  0  0  0  0  0  0  0  0  0
   -7.6452   -7.7060  -19.7854 O   0  0  0  0  0  0  0  0  0  0  0  0
   -3.1306  -14.0865  -11.5742 C   0  0  2  0  0  0  0  0  0  0  0  0
   -4.1675  -13.8201  -12.5347 O   0  0  0  0  0  0  0  0  0  0  0  0
   -4.9586  -11.2463  -15.2298 C   0  0  2  0  0  0  0  0  0  0  0  0
   -5.7688  -12.4269  -15.1684 O   0  0  0  0  0  0  0  0  0  0  0  0
   -5.5907   -8.1922  -18.6263 C   0  0  0  0  0  0  0  0  0  0  0  0
   -6.2658   -8.6911  -17.3598 O   0  0  0  0  0  0  0  0  0  0  0  0
   -2.1837  -15.2519  -11.9443 C   0  0  0  0  0  0  0  0  0  0  0  0
   -2.9706  -16.4287  -12.2854 N   0  0  0  0  0  0  0  0  0  0  0  0
   -4.3832  -11.1028  -16.6851 C   0  0  1  0  0  0  0  0  0  0  0  0
   -5.4681  -11.0011  -17.5760 O   0  0  0  0  0  0  0  0  0  0  0  0
   -5.7411   -7.9974  -21.1093 C   0  0  0  0  0  0  0  0  0  0  0  0
   -7.5723  -11.7632  -21.6394 C   0  0  0  0  0  0  0  0  0  0  0  0
  1  2  1  1  0  0  0
  1  6  1  0  0  0  0
  1 21  1  0  0  0  0
  3  4  1  6  0  0  0
  3  8  1  0  0  0  0
  3 28  1  0  0  0  0
  5  9  1  0  0  0  0
  5 25  1  0  0  0  0
  5 29  1  6  0  0  0
  6  7  1  6  0  0  0
  6 11  1  0  0  0  0
  8 12  1  0  0  0  0
  9 10  1  6  0  0  0
  9 14  1  0  0  0  0
 11 16  1  0  0  0  0
 12 13  1  1  0  0  0
 12 17  1  0  0  0  0
 14 15  1  6  0  0  0
 14 18  1  0  0  0  0
 15 31  1  0  0  0  0
 16 20  1  0  0  0  0
 17  2  1  1  0  0  0
 17 22  1  0  0  0  0
 18 19  1  1  0  0  0
 18 24  1  0  0  0  0
 18 30  1  0  0  0  0
 20 21  1  0  0  0  0
 20 26  1  1  0  0  0
 22 23  1  6  0  0  0
 22 28  1  0  0  0  0
 24 25  1  0  0  0  0
 26 27  1  0  0  0  0
 28 29  1  6  0  0  0
M  END
>  <CHROM.1>
176.96896751,-174.97120075,-90.43312752,-170.84091436,128.63647754,-74.29379968
-4.99295994,-11.13777607,-15.73277751,1.06571933,0.82277584,2.38119830

>  <Name>
ligand

>  <RI>
0

>  <Rbt.Current_Directory>
/home/itssahil/PROJECTS/Mol_Feturizer/New_Systems/rnas/4F8U

>  <Rbt.Executable>
rbdock ($Id: //depot/dev/client3/rdock/2013.1/src/exe/rbdock.cxx#4 $)

>  <Rbt.Library>
libRbt.so (2013.1, Build901 2013/11/27)

>  <Rbt.Parameter_File>
/export/apps/rDock/src/rDock_2013.1_src/data/scripts/dock_solv.prm

>  <Rbt.Receptor>
prm/pocket_docking_3.prm

>  <SCORE>
-16.339

>  <SCORE.INTER>
-9.75678

>  <SCORE.INTER.CONST>
1

>  <SCORE.INTER.POLAR>
0

>  <SCORE.INTER.ROT>
6

>  <SCORE.INTER.SOLV>
19.0072

>  <SCORE.INTER.VDW>
-20.4403

>  <SCORE.INTER.norm>
-0.314735

>  <SCORE.INTRA>
-6.5822

>  <SCORE.INTRA.DIHEDRAL>
-14.839

>  <SCORE.INTRA.DIHEDRAL.0>
18.77

>  <SCORE.INTRA.POLAR>
0

>  <SCORE.INTRA.POLAR.0>
0

>  <SCORE.INTRA.REPUL>
0

>  <SCORE.INTRA.REPUL.0>
0

>  <SCORE.INTRA.SOLV>
-0.575936

>  <SCORE.INTRA.SOLV.lig_0>
-77.2465

>  <SCORE.INTRA.VDW>
1.12529

>  <SCORE.INTRA.VDW.0>
-4.16072

>  <SCORE.INTRA.norm>
-0.212329

>  <SCORE.RESTR>
0

>  <SCORE.RESTR.CAVITY>
0

>  <SCORE.RESTR.norm>
0

>  <SCORE.SYSTEM>
0

>  <SCORE.SYSTEM.CONST>
0

>  <SCORE.SYSTEM.DIHEDRAL>
0

>  <SCORE.SYSTEM.SOLV>
0

>  <SCORE.SYSTEM.norm>
0

>  <SCORE.heavy>
31

>  <SCORE.norm>
-0.527064

>  <RMSD>
8.344

$$$$
ligand
 OpenBabel11021811493D
libRbt.so/2013.1/901 2013/11/27
 31 33  0  0  0  0  0  0  0  0999 V2000
   -6.8015  -12.8757  -19.6291 C   0  0  2  0  0  0  0  0  0  0  0  0
   -5.4093  -12.5739  -19.4634 O   0  0  0  0  0  0  0  0  0  0  0  0
   -5.5669   -9.0415  -17.0508 C   0  0  2  0  0  0  0  0  0  0  0  0
   -5.1524   -7.8588  -16.3599 N   0  0  0  0  0  0  0  0  0  0  0  0
   -5.4451   -6.5513  -19.6053 C   0  0  2  0  0  0  0  0  0  0  0  0
   -6.8947  -13.8885  -20.8239 C   0  0  2  0  0  0  0  0  0  0  0  0
   -6.0917  -15.0706  -20.5312 N   0  0  0  0  0  0  0  0  0  0  0  0
   -4.7531  -10.2711  -16.4907 C   0  0  0  0  0  0  0  0  0  0  0  0
   -6.5982   -5.8319  -20.3708 C   0  0  2  0  0  0  0  0  0  0  0  0
   -7.6454   -5.5413  -19.4610 O   0  0  0  0  0  0  0  0  0  0  0  0
   -6.4053  -13.1983  -22.1445 C   0  0  0  0  0  0  0  0  0  0  0  0
   -5.2201  -11.5854  -17.2535 C   0  0  2  0  0  0  0  0  0  0  0  0
   -4.4606  -12.7477  -16.7365 N   0  0  0  0  0  0  0  0  0  0  0  0
   -7.0938   -6.8262  -21.5118 C   0  0  1  0  0  0  0  0  0  0  0  0
   -8.2337   -6.2227  -22.2824 N   0  0  0  0  0  0  0  0  0  0  0  0
   -7.0573  -11.7952  -22.3107 C   0  0  0  0  0  0  0  0  0  0  0  0
   -4.9675  -11.4112  -18.8170 C   0  0  2  0  0  0  0  0  0  0  0  0
   -5.8597   -7.1285  -22.5308 C   0  0  1  0  0  0  0  0  0  0  0  0
   -5.3827   -5.9510  -23.1527 O   0  0  0  0  0  0  0  0  0  0  0  0
   -7.5841  -11.1491  -21.2596 C   0  0  2  0  0  0  0  0  0  0  0  0
   -7.5939  -11.6868  -19.9256 O   0  0  0  0  0  0  0  0  0  0  0  0
   -5.7759  -10.1510  -19.3403 C   0  0  2  0  0  0  0  0  0  0  0  0
   -5.5375   -9.9689  -20.7417 O   0  0  0  0  0  0  0  0  0  0  0  0
   -4.6710   -7.7592  -21.7298 C   0  0  0  0  0  0  0  0  0  0  0  0
   -4.3151   -6.8700  -20.5503 O   0  0  0  0  0  0  0  0  0  0  0  0
   -8.2387   -9.7555  -21.4050 C   0  0  0  0  0  0  0  0  0  0  0  0
   -8.5551   -9.5103  -22.8050 N   0  0  0  0  0  0  0  0  0  0  0  0
   -5.3045   -8.8617  -18.5754 C   0  0  1  0  0  0  0  0  0  0  0  0
   -6.0460   -7.7689  -19.0621 O   0  0  0  0  0  0  0  0  0  0  0  0
   -6.1740   -8.0824  -23.6952 C   0  0  0  0  0  0  0  0  0  0  0  0
   -8.0520   -4.8314  -22.7380 C   0  0  0  0  0  0  0  0  0  0  0  0
  1  2  1  6  0  0  0
  1  6  1  0  0  0  0
  1 21  1  0  0  0  0
  3  4  1  1  0  0  0
  3  8  1  0  0  0  0
  3 28  1  0  0  0  0
  5  9  1  0  0  0  0
  5 25  1  0  0  0  0
  5 29  1  6  0  0  0
  6  7  1  1  0  0  0
  6 11  1  0  0  0  0
  8 12  1  0  0  0  0
  9 10  1  1  0  0  0
  9 14  1  0  0  0  0
 11 16  1  0  0  0  0
 12 13  1  1  0  0  0
 12 17  1  0  0  0  0
 14 15  1  6  0  0  0
 14 18  1  0  0  0  0
 15 31  1  0  0  0  0
 16 20  1  0  0  0  0
 17  2  1  6  0  0  0
 17 22  1  0  0  0  0
 18 19  1  6  0  0  0
 18 24  1  0  0  0  0
 18 30  1  0  0  0  0
 20 21  1  0  0  0  0
 20 26  1  6  0  0  0
 22 23  1  6  0  0  0
 22 28  1  0  0  0  0
 24 25  1  0  0  0  0
 26 27  1  0  0  0  0
 28 29  1  6  0  0  0
M  END
>  <CHROM.1>
158.50775375,164.31545596,47.87234332,73.36839664,17.83614946,115.78967637
-6.22328755,-9.40496582,-20.29499774,1.27712418,1.18088413,3.05466000

>  <Name>
ligand

>  <RI>
0

>  <Rbt.Current_Directory>
/home/itssahil/PROJECTS/Mol_Feturizer/New_Systems/rnas/4F8U

>  <Rbt.Executable>
rbdock ($Id: //depot/dev/client3/rdock/2013.1/src/exe/rbdock.cxx#4 $)

>  <Rbt.Library>
libRbt.so (2013.1, Build901 2013/11/27)

>  <Rbt.Parameter_File>
/export/apps/rDock/src/rDock_2013.1_src/data/scripts/dock_solv.prm

>  <Rbt.Receptor>
prm/blind_docking_60.prm

>  <SCORE>
79.6696

>  <SCORE.INTER>
52.8923

>  <SCORE.INTER.CONST>
1

>  <SCORE.INTER.POLAR>
0

>  <SCORE.INTER.ROT>
6

>  <SCORE.INTER.SOLV>
30.7437

>  <SCORE.INTER.VDW>
17.4136

>  <SCORE.INTER.norm>
1.7062

>  <SCORE.INTRA>
11.4041

>  <SCORE.INTRA.DIHEDRAL>
-5.42976

>  <SCORE.INTRA.DIHEDRAL.0>
18.77

>  <SCORE.INTRA.POLAR>
0

>  <SCORE.INTRA.POLAR.0>
0

>  <SCORE.INTRA.REPUL>
0

>  <SCORE.INTRA.REPUL.0>
0

>  <SCORE.INTRA.SOLV>
3.7243

>  <SCORE.INTRA.SOLV.lig_0>
-77.2465

>  <SCORE.INTRA.VDW>
12.2568

>  <SCORE.INTRA.VDW.0>
-4.16072

>  <SCORE.INTRA.norm>
0.367875

>  <SCORE.RESTR>
15.3733

>  <SCORE.RESTR.CAVITY>
15.3733

>  <SCORE.RESTR.norm>
0.495911

>  <SCORE.SYSTEM>
0

>  <SCORE.SYSTEM.CONST>
0

>  <SCORE.SYSTEM.DIHEDRAL>
0

>  <SCORE.SYSTEM.SOLV>
0

>  <SCORE.SYSTEM.norm>
0

>  <SCORE.heavy>
31

>  <SCORE.norm>
2.56999

>  <RMSD>
8.346

$$$$
ligand
 OpenBabel11021811493D
libRbt.so/2013.1/901 2013/11/27
 31 33  0  0  0  0  0  0  0  0999 V2000
   -1.4050   -9.8269  -15.7090 C   0  0  2  0  0  0  0  0  0  0  0  0
   -1.2620  -11.0337  -16.4703 O   0  0  0  0  0  0  0  0  0  0  0  0
   -4.0925  -13.2311  -18.8120 C   0  0  2  0  0  0  0  0  0  0  0  0
   -5.1840  -14.0914  -19.1535 N   0  0  0  0  0  0  0  0  0  0  0  0
   -6.7205  -10.6182  -18.1449 C   0  0  2  0  0  0  0  0  0  0  0  0
    0.0340   -9.2156  -15.5757 C   0  0  2  0  0  0  0  0  0  0  0  0
    0.5952   -8.9835  -16.9020 N   0  0  0  0  0  0  0  0  0  0  0  0
   -3.0310  -14.0568  -17.9877 C   0  0  0  0  0  0  0  0  0  0  0  0
   -7.6855  -10.3617  -19.3433 C   0  0  2  0  0  0  0  0  0  0  0  0
   -8.0444  -11.6050  -19.9214 O   0  0  0  0  0  0  0  0  0  0  0  0
    0.9481  -10.1850  -14.7484 C   0  0  0  0  0  0  0  0  0  0  0  0
   -1.8154  -13.1022  -17.6158 C   0  0  2  0  0  0  0  0  0  0  0  0
   -0.8119  -13.8671  -16.8392 N   0  0  0  0  0  0  0  0  0  0  0  0
   -6.9012   -9.4520  -20.3890 C   0  0  1  0  0  0  0  0  0  0  0  0
   -7.7508   -9.1818  -21.5983 N   0  0  0  0  0  0  0  0  0  0  0  0
    0.2237  -10.6617  -13.4564 C   0  0  0  0  0  0  0  0  0  0  0  0
   -2.3503  -11.8673  -16.7627 C   0  0  2  0  0  0  0  0  0  0  0  0
   -6.5123   -8.0375  -19.6812 C   0  0  1  0  0  0  0  0  0  0  0  0
   -7.6566   -7.3250  -19.2524 O   0  0  0  0  0  0  0  0  0  0  0  0
   -1.1112  -10.5880  -13.3455 C   0  0  2  0  0  0  0  0  0  0  0  0
   -1.9630  -10.0717  -14.3831 O   0  0  0  0  0  0  0  0  0  0  0  0
   -3.4351  -11.0779  -17.6087 C   0  0  2  0  0  0  0  0  0  0  0  0
   -3.9422   -9.9781  -16.8424 O   0  0  0  0  0  0  0  0  0  0  0  0
   -5.6253   -8.3169  -18.4213 C   0  0  0  0  0  0  0  0  0  0  0  0
   -6.3246   -9.3105  -17.5088 O   0  0  0  0  0  0  0  0  0  0  0  0
   -1.8492  -11.0541  -12.0688 C   0  0  0  0  0  0  0  0  0  0  0  0
   -2.7183  -12.1770  -12.3918 N   0  0  0  0  0  0  0  0  0  0  0  0
   -4.6278  -12.0354  -17.9699 C   0  0  1  0  0  0  0  0  0  0  0  0
   -5.5642  -11.3024  -18.7227 O   0  0  0  0  0  0  0  0  0  0  0  0
   -5.7416   -7.0402  -20.5619 C   0  0  0  0  0  0  0  0  0  0  0  0
   -7.5683  -10.0935  -22.7436 C   0  0  0  0  0  0  0  0  0  0  0  0
  1  2  1  6  0  0  0
  1  6  1  0  0  0  0
  1 21  1  0  0  0  0
  3  4  1  1  0  0  0
  3  8  1  0  0  0  0
  3 28  1  0  0  0  0
  5  9  1  0  0  0  0
  5 25  1  0  0  0  0
  5 29  1  6  0  0  0
  6  7  1  6  0  0  0
  6 11  1  0  0  0  0
  8 12  1  0  0  0  0
  9 10  1  6  0  0  0
  9 14  1  0  0  0  0
 11 16  1  0  0  0  0
 12 13  1  1  0  0  0
 12 17  1  0  0  0  0
 14 15  1  6  0  0  0
 14 18  1  0  0  0  0
 15 31  1  0  0  0  0
 16 20  1  0  0  0  0
 17  2  1  6  0  0  0
 17 22  1  0  0  0  0
 18 19  1  1  0  0  0
 18 24  1  0  0  0  0
 18 30  1  0  0  0  0
 20 21  1  0  0  0  0
 20 26  1  1  0  0  0
 22 23  1  1  0  0  0
 22 28  1  0  0  0  0
 24 25  1  0  0  0  0
 26 27  1  0  0  0  0
 28 29  1  6  0  0  0
M  END
>  <CHROM.1>
178.56153528,-162.06474140,-94.17744291,-179.92673710,-116.48082358,147.08045942
-3.90859730,-10.61191918,-17.46435894,-0.03715803,-0.74430146,0.18361019

>  <Name>
ligand

>  <RI>
0

>  <Rbt.Current_Directory>
/home/itssahil/PROJECTS/Mol_Feturizer/New_Systems/rnas/4F8U

>  <Rbt.Executable>
rbdock ($Id: //depot/dev/client3/rdock/2013.1/src/exe/rbdock.cxx#4 $)

>  <Rbt.Library>
libRbt.so (2013.1, Build901 2013/11/27)

>  <Rbt.Parameter_File>
/export/apps/rDock/src/rDock_2013.1_src/data/scripts/dock_solv.prm

>  <Rbt.Receptor>
prm/pocket_docking_5.prm

>  <SCORE>
-15.1973

>  <SCORE.INTER>
-10.0251

>  <SCORE.INTER.CONST>
1

>  <SCORE.INTER.POLAR>
0

>  <SCORE.INTER.ROT>
6

>  <SCORE.INTER.SOLV>
13.6087

>  <SCORE.INTER.VDW>
-18.8196

>  <SCORE.INTER.norm>
-0.323391

>  <SCORE.INTRA>
-5.17215

>  <SCORE.INTRA.DIHEDRAL>
-10.7094

>  <SCORE.INTRA.DIHEDRAL.0>
18.77

>  <SCORE.INTRA.POLAR>
0

>  <SCORE.INTRA.POLAR.0>
0

>  <SCORE.INTRA.REPUL>
0

>  <SCORE.INTRA.REPUL.0>
0

>  <SCORE.INTRA.SOLV>
-2.37273

>  <SCORE.INTRA.SOLV.lig_0>
-77.2465

>  <SCORE.INTRA.VDW>
1.3689

>  <SCORE.INTRA.VDW.0>
-4.16072

>  <SCORE.INTRA.norm>
-0.166843

>  <SCORE.RESTR>
0

>  <SCORE.RESTR.CAVITY>
0

>  <SCORE.RESTR.norm>
0

>  <SCORE.SYSTEM>
0

>  <SCORE.SYSTEM.CONST>
0

>  <SCORE.SYSTEM.DIHEDRAL>
0

>  <SCORE.SYSTEM.SOLV>
0

>  <SCORE.SYSTEM.norm>
0

>  <SCORE.heavy>
31

>  <SCORE.norm>
-0.490234

>  <RMSD>
8.347

$$$$
ligand
 OpenBabel11021811493D
libRbt.so/2013.1/901 2013/11/27
 31 33  0  0  0  0  0  0  0  0999 V2000
   -1.3832   -9.6576  -15.8574 C   0  0  2  0  0  0  0  0  0  0  0  0
   -1.2351  -10.8649  -16.6170 O   0  0  0  0  0  0  0  0  0  0  0  0
   -4.0692  -13.1547  -18.8639 C   0  0  2  0  0  0  0  0  0  0  0  0
   -5.1499  -14.0419  -19.1687 N   0  0  0  0  0  0  0  0  0  0  0  0
   -6.7204  -10.5620  -18.1776 C   0  0  2  0  0  0  0  0  0  0  0  0
    0.0503   -9.0304  -15.7408 C   0  0  2  0  0  0  0  0  0  0  0  0
    0.5951   -8.7958  -17.0734 N   0  0  0  0  0  0  0  0  0  0  0  0
   -2.9739  -13.9460  -18.0501 C   0  0  0  0  0  0  0  0  0  0  0  0
   -7.7169  -10.3307  -19.3552 C   0  0  2  0  0  0  0  0  0  0  0  0
   -8.0874  -11.5857  -19.8998 O   0  0  0  0  0  0  0  0  0  0  0  0
    0.9835   -9.9875  -14.9205 C   0  0  0  0  0  0  0  0  0  0  0  0
   -1.7704  -12.9616  -17.7189 C   0  0  2  0  0  0  0  0  0  0  0  0
   -0.7353  -13.6940  -16.9526 N   0  0  0  0  0  0  0  0  0  0  0  0
   -6.9624   -9.4397  -20.4383 C   0  0  1  0  0  0  0  0  0  0  0  0
   -7.8439   -9.1946  -21.6300 N   0  0  0  0  0  0  0  0  0  0  0  0
    0.2777  -10.4685  -13.6197 C   0  0  0  0  0  0  0  0  0  0  0  0
   -2.3122  -11.7246  -16.8733 C   0  0  2  0  0  0  0  0  0  0  0  0
   -6.5591   -8.0110  -19.7681 C   0  0  1  0  0  0  0  0  0  0  0  0
   -7.6937   -7.2927  -19.3235 O   0  0  0  0  0  0  0  0  0  0  0  0
   -1.0567  -10.4090  -13.4951 C   0  0  2  0  0  0  0  0  0  0  0  0
   -1.9247   -9.9048  -14.5252 O   0  0  0  0  0  0  0  0  0  0  0  0
   -3.4304  -10.9703  -17.7077 C   0  0  2  0  0  0  0  0  0  0  0  0
   -3.9436   -9.8691  -16.9474 O   0  0  0  0  0  0  0  0  0  0  0  0
   -5.6389   -8.2641  -18.5266 C   0  0  0  0  0  0  0  0  0  0  0  0
   -6.3115   -9.2414  -17.5773 O   0  0  0  0  0  0  0  0  0  0  0  0
   -1.7762  -10.8796  -12.2096 C   0  0  0  0  0  0  0  0  0  0  0  0
   -2.6519  -11.9997  -12.5244 N   0  0  0  0  0  0  0  0  0  0  0  0
   -4.6108  -11.9570  -18.0286 C   0  0  1  0  0  0  0  0  0  0  0  0
   -5.5777  -11.2547  -18.7721 O   0  0  0  0  0  0  0  0  0  0  0  0
   -5.8142   -7.0291  -20.6876 C   0  0  0  0  0  0  0  0  0  0  0  0
   -7.5677  -10.0107  -22.8275 C   0  0  0  0  0  0  0  0  0  0  0  0
  1  2  1  6  0  0  0
  1  6  1  0  0  0  0
  1 21  1  0  0  0  0
  3  4  1  1  0  0  0
  3  8  1  0  0  0  0
  3 28  1  0  0  0  0
  5  9  1  0  0  0  0
  5 25  1  0  0  0  0
  5 29  1  6  0  0  0
  6  7  1  6  0  0  0
  6 11  1  0  0  0  0
  8 12  1  0  0  0  0
  9 10  1  6  0  0  0
  9 14  1  0  0  0  0
 11 16  1  0  0  0  0
 12 13  1  1  0  0  0
 12 17  1  0  0  0  0
 14 15  1  6  0  0  0
 14 18  1  0  0  0  0
 15 31  1  0  0  0  0
 16 20  1  0  0  0  0
 17  2  1  6  0  0  0
 17 22  1  0  0  0  0
 18 19  1  1  0  0  0
 18 24  1  0  0  0  0
 18 30  1  0  0  0  0
 20 21  1  0  0  0  0
 20 26  1  1  0  0  0
 22 23  1  1  0  0  0
 22 28  1  0  0  0  0
 24 25  1  0  0  0  0
 26 27  1  0  0  0  0
 28 29  1  6  0  0  0
M  END
>  <CHROM.1>
177.26541320,-162.89394736,-102.02192376,-179.15677930,-117.33805905,148.37297149
-3.89986382,-10.50868869,-17.55916804,-0.03259193,-0.72644748,0.16853865

>  <Name>
ligand

>  <RI>
0

>  <Rbt.Current_Directory>
/home/itssahil/PROJECTS/Mol_Feturizer/New_Systems/rnas/4F8U

>  <Rbt.Executable>
rbdock ($Id: //depot/dev/client3/rdock/2013.1/src/exe/rbdock.cxx#4 $)

>  <Rbt.Library>
libRbt.so (2013.1, Build901 2013/11/27)

>  <Rbt.Parameter_File>
/export/apps/rDock/src/rDock_2013.1_src/data/scripts/dock_solv.prm

>  <Rbt.Receptor>
prm/pocket_docking_6.prm

>  <SCORE>
-15.2833

>  <SCORE.INTER>
-10.112

>  <SCORE.INTER.CONST>
1

>  <SCORE.INTER.POLAR>
0

>  <SCORE.INTER.ROT>
6

>  <SCORE.INTER.SOLV>
14.4746

>  <SCORE.INTER.VDW>
-19.1662

>  <SCORE.INTER.norm>
-0.326192

>  <SCORE.INTRA>
-5.17133

>  <SCORE.INTRA.DIHEDRAL>
-10.8289

>  <SCORE.INTRA.DIHEDRAL.0>
18.77

>  <SCORE.INTRA.POLAR>
0

>  <SCORE.INTRA.POLAR.0>
0

>  <SCORE.INTRA.REPUL>
0

>  <SCORE.INTRA.REPUL.0>
0

>  <SCORE.INTRA.SOLV>
-2.38723

>  <SCORE.INTRA.SOLV.lig_0>
-77.2465

>  <SCORE.INTRA.VDW>
1.43672

>  <SCORE.INTRA.VDW.0>
-4.16072

>  <SCORE.INTRA.norm>
-0.166817

>  <SCORE.RESTR>
0

>  <SCORE.RESTR.CAVITY>
0

>  <SCORE.RESTR.norm>
0

>  <SCORE.SYSTEM>
0

>  <SCORE.SYSTEM.CONST>
0

>  <SCORE.SYSTEM.DIHEDRAL>
0

>  <SCORE.SYSTEM.SOLV>
0

>  <SCORE.SYSTEM.norm>
0

>  <SCORE.heavy>
31

>  <SCORE.norm>
-0.493009

>  <RMSD>
8.349

$$$$
ligand
 OpenBabel11021811493D
libRbt.so/2013.1/901 2013/11/27
 31 33  0  0  0  0  0  0  0  0999 V2000
   -5.0082  -12.5952  -12.3805 C   0  0  2  0  0  0  0  0  0  0  0  0
   -4.2925  -11.4559  -12.8768 O   0  0  0  0  0  0  0  0  0  0  0  0
   -3.4589   -9.9019  -16.7773 C   0  0  2  0  0  0  0  0  0  0  0  0
   -2.9412   -9.7993  -18.1075 N   0  0  0  0  0  0  0  0  0  0  0  0
   -6.6219  -10.1722  -17.3383 C   0  0  2  0  0  0  0  0  0  0  0  0
   -5.2412  -12.3382  -10.8503 C   0  0  2  0  0  0  0  0  0  0  0  0
   -5.9712  -11.0888  -10.6663 N   0  0  0  0  0  0  0  0  0  0  0  0
   -2.2526  -10.0252  -15.7686 C   0  0  0  0  0  0  0  0  0  0  0  0
   -7.5923  -10.4609  -18.5250 C   0  0  2  0  0  0  0  0  0  0  0  0
   -7.9350  -11.8361  -18.5172 O   0  0  0  0  0  0  0  0  0  0  0  0
   -3.8626  -12.2905  -10.1039 C   0  0  0  0  0  0  0  0  0  0  0  0
   -2.8287  -10.1310  -14.2907 C   0  0  2  0  0  0  0  0  0  0  0  0
   -1.7038  -10.2491  -13.3338 N   0  0  0  0  0  0  0  0  0  0  0  0
   -6.8223  -10.0729  -19.8639 C   0  0  1  0  0  0  0  0  0  0  0  0
   -7.6775  -10.3523  -21.0671 N   0  0  0  0  0  0  0  0  0  0  0  0
   -2.9630  -13.4883  -10.5249 C   0  0  0  0  0  0  0  0  0  0  0  0
   -3.7829  -11.4024  -14.1815 C   0  0  2  0  0  0  0  0  0  0  0  0
   -6.4518   -8.4872  -19.8273 C   0  0  1  0  0  0  0  0  0  0  0  0
   -7.6050   -7.6735  -19.7337 O   0  0  0  0  0  0  0  0  0  0  0  0
   -3.1937  -14.1590  -11.6636 C   0  0  2  0  0  0  0  0  0  0  0  0
   -4.2668  -13.8382  -12.5660 O   0  0  0  0  0  0  0  0  0  0  0  0
   -4.9663  -11.2596  -15.2279 C   0  0  2  0  0  0  0  0  0  0  0  0
   -5.8188  -12.4095  -15.1566 O   0  0  0  0  0  0  0  0  0  0  0  0
   -5.5589   -8.1940  -18.5747 C   0  0  0  0  0  0  0  0  0  0  0  0
   -6.2429   -8.7136  -17.3213 O   0  0  0  0  0  0  0  0  0  0  0  0
   -2.3126  -15.3535  -12.0978 C   0  0  0  0  0  0  0  0  0  0  0  0
   -1.0412  -15.3030  -11.3898 N   0  0  0  0  0  0  0  0  0  0  0  0
   -4.3804  -11.1539  -16.6822 C   0  0  1  0  0  0  0  0  0  0  0  0
   -5.4573  -11.0235  -17.5790 O   0  0  0  0  0  0  0  0  0  0  0  0
   -5.6963   -7.9499  -21.0541 C   0  0  0  0  0  0  0  0  0  0  0  0
   -7.5021  -11.6719  -21.7028 C   0  0  0  0  0  0  0  0  0  0  0  0
  1  2  1  1  0  0  0
  1  6  1  0  0  0  0
  1 21  1  0  0  0  0
  3  4  1  6  0  0  0
  3  8  1  0  0  0  0
  3 28  1  0  0  0  0
  5  9  1  0  0  0  0
  5 25  1  0  0  0  0
  5 29  1  6  0  0  0
  6  7  1  6  0  0  0
  6 11  1  0  0  0  0
  8 12  1  0  0  0  0
  9 10  1  6  0  0  0
  9 14  1  0  0  0  0
 11 16  1  0  0  0  0
 12 13  1  1  0  0  0
 12 17  1  0  0  0  0
 14 15  1  6  0  0  0
 14 18  1  0  0  0  0
 15 31  1  0  0  0  0
 16 20  1  0  0  0  0
 17  2  1  1  0  0  0
 17 22  1  0  0  0  0
 18 19  1  1  0  0  0
 18 24  1  0  0  0  0
 18 30  1  0  0  0  0
 20 21  1  0  0  0  0
 20 26  1  1  0  0  0
 22 23  1  6  0  0  0
 22 28  1  0  0  0  0
 24 25  1  0  0  0  0
 26 27  1  0  0  0  0
 28 29  1  6  0  0  0
M  END
>  <CHROM.1>
172.93940946,-174.64726356,-93.09313615,-169.51819587,-19.32993023,-76.95014705
-4.91949260,-11.12315890,-15.70557014,1.14104813,0.57555449,2.23220692

>  <Name>
ligand

>  <RI>
0

>  <Rbt.Current_Directory>
/home/itssahil/PROJECTS/Mol_Feturizer/New_Systems/rnas/4F8U

>  <Rbt.Executable>
rbdock ($Id: //depot/dev/client3/rdock/2013.1/src/exe/rbdock.cxx#4 $)

>  <Rbt.Library>
libRbt.so (2013.1, Build901 2013/11/27)

>  <Rbt.Parameter_File>
/export/apps/rDock/src/rDock_2013.1_src/data/scripts/dock_solv.prm

>  <Rbt.Receptor>
prm/pocket_docking_3.prm

>  <SCORE>
-14.654

>  <SCORE.INTER>
-9.31451

>  <SCORE.INTER.CONST>
1

>  <SCORE.INTER.POLAR>
0

>  <SCORE.INTER.ROT>
6

>  <SCORE.INTER.SOLV>
21.4495

>  <SCORE.INTER.VDW>
-20.9595

>  <SCORE.INTER.norm>
-0.300468

>  <SCORE.INTRA>
-5.3395

>  <SCORE.INTRA.DIHEDRAL>
-13.6972

>  <SCORE.INTRA.DIHEDRAL.0>
18.77

>  <SCORE.INTRA.POLAR>
0

>  <SCORE.INTRA.POLAR.0>
0

>  <SCORE.INTRA.REPUL>
0

>  <SCORE.INTRA.REPUL.0>
0

>  <SCORE.INTRA.SOLV>
-0.534622

>  <SCORE.INTRA.SOLV.lig_0>
-77.2465

>  <SCORE.INTRA.VDW>
1.77642

>  <SCORE.INTRA.VDW.0>
-4.16072

>  <SCORE.INTRA.norm>
-0.172242

>  <SCORE.RESTR>
0

>  <SCORE.RESTR.CAVITY>
0

>  <SCORE.RESTR.norm>
0

>  <SCORE.SYSTEM>
0

>  <SCORE.SYSTEM.CONST>
0

>  <SCORE.SYSTEM.DIHEDRAL>
0

>  <SCORE.SYSTEM.SOLV>
0

>  <SCORE.SYSTEM.norm>
0

>  <SCORE.heavy>
31

>  <SCORE.norm>
-0.47271

>  <RMSD>
8.350

$$$$
ligand
 OpenBabel11021811493D
libRbt.so/2013.1/901 2013/11/27
 31 33  0  0  0  0  0  0  0  0999 V2000
   -1.3784   -9.7949  -15.7447 C   0  0  2  0  0  0  0  0  0  0  0  0
   -1.2430  -11.0056  -16.5012 O   0  0  0  0  0  0  0  0  0  0  0  0
   -4.0901  -13.1956  -18.8297 C   0  0  2  0  0  0  0  0  0  0  0  0
   -5.1867  -14.0513  -19.1661 N   0  0  0  0  0  0  0  0  0  0  0  0
   -6.6983  -10.5601  -18.1633 C   0  0  2  0  0  0  0  0  0  0  0  0
    0.0673   -9.2040  -15.5944 C   0  0  2  0  0  0  0  0  0  0  0  0
    0.6488   -8.9833  -16.9139 N   0  0  0  0  0  0  0  0  0  0  0  0
   -3.0309  -14.0242  -18.0054 C   0  0  0  0  0  0  0  0  0  0  0  0
   -7.6705  -10.3084  -19.3569 C   0  0  2  0  0  0  0  0  0  0  0  0
   -8.0434  -11.5547  -19.9194 O   0  0  0  0  0  0  0  0  0  0  0  0
    0.9568  -10.1842  -14.7530 C   0  0  0  0  0  0  0  0  0  0  0  0
   -1.8096  -13.0747  -17.6392 C   0  0  2  0  0  0  0  0  0  0  0  0
   -0.8081  -13.8423  -16.8627 N   0  0  0  0  0  0  0  0  0  0  0  0
   -6.8872   -9.4156  -20.4179 C   0  0  1  0  0  0  0  0  0  0  0  0
   -7.7439   -9.1512  -21.6235 N   0  0  0  0  0  0  0  0  0  0  0  0
    0.2090  -10.6472  -13.4693 C   0  0  0  0  0  0  0  0  0  0  0  0
   -2.3363  -11.8346  -16.7886 C   0  0  2  0  0  0  0  0  0  0  0  0
   -6.4820   -7.9970  -19.7278 C   0  0  1  0  0  0  0  0  0  0  0  0
   -7.6174   -7.2712  -19.2978 O   0  0  0  0  0  0  0  0  0  0  0  0
   -1.1260  -10.5541  -13.3757 C   0  0  2  0  0  0  0  0  0  0  0  0
   -1.9569  -10.0283  -14.4255 O   0  0  0  0  0  0  0  0  0  0  0  0
   -3.4190  -11.0422  -17.6344 C   0  0  2  0  0  0  0  0  0  0  0  0
   -3.9188   -9.9376  -16.8702 O   0  0  0  0  0  0  0  0  0  0  0  0
   -5.5875   -8.2703  -18.4718 C   0  0  0  0  0  0  0  0  0  0  0  0
   -6.2874   -9.2490  -17.5438 O   0  0  0  0  0  0  0  0  0  0  0  0
   -1.8870  -11.0062  -12.1076 C   0  0  0  0  0  0  0  0  0  0  0  0
   -2.7495  -12.1332  -12.4336 N   0  0  0  0  0  0  0  0  0  0  0  0
   -4.6173  -11.9946  -17.9900 C   0  0  1  0  0  0  0  0  0  0  0  0
   -5.5518  -11.2591  -18.7428 O   0  0  0  0  0  0  0  0  0  0  0  0
   -5.7104   -7.0148  -20.6246 C   0  0  0  0  0  0  0  0  0  0  0  0
   -7.5809  -10.0790  -22.7587 C   0  0  0  0  0  0  0  0  0  0  0  0
  1  2  1  1  0  0  0
  1  6  1  0  0  0  0
  1 21  1  0  0  0  0
  3  4  1  1  0  0  0
  3  8  1  0  0  0  0
  3 28  1  0  0  0  0
  5  9  1  0  0  0  0
  5 25  1  0  0  0  0
  5 29  1  6  0  0  0
  6  7  1  6  0  0  0
  6 11  1  0  0  0  0
  8 12  1  0  0  0  0
  9 10  1  6  0  0  0
  9 14  1  0  0  0  0
 11 16  1  0  0  0  0
 12 13  1  1  0  0  0
 12 17  1  0  0  0  0
 14 15  1  6  0  0  0
 14 18  1  0  0  0  0
 15 31  1  0  0  0  0
 16 20  1  0  0  0  0
 17  2  1  6  0  0  0
 17 22  1  0  0  0  0
 18 19  1  1  0  0  0
 18 24  1  0  0  0  0
 18 30  1  0  0  0  0
 20 21  1  0  0  0  0
 20 26  1  1  0  0  0
 22 23  1  1  0  0  0
 22 28  1  0  0  0  0
 24 25  1  0  0  0  0
 26 27  1  0  0  0  0
 28 29  1  6  0  0  0
M  END
>  <CHROM.1>
177.58818311,-161.88664495,-93.96306634,179.98874812,-115.43976277,147.50179039
-3.89696259,-10.57684652,-17.49097216,-0.04344258,-0.74472438,0.17701283

>  <Name>
ligand

>  <RI>
0

>  <Rbt.Current_Directory>
/home/itssahil/PROJECTS/Mol_Feturizer/New_Systems/rnas/4F8U

>  <Rbt.Executable>
rbdock ($Id: //depot/dev/client3/rdock/2013.1/src/exe/rbdock.cxx#4 $)

>  <Rbt.Library>
libRbt.so (2013.1, Build901 2013/11/27)

>  <Rbt.Parameter_File>
/export/apps/rDock/src/rDock_2013.1_src/data/scripts/dock_solv.prm

>  <Rbt.Receptor>
prm/pocket_docking_6.prm

>  <SCORE>
-15.1942

>  <SCORE.INTER>
-10.0101

>  <SCORE.INTER.CONST>
1

>  <SCORE.INTER.POLAR>
0

>  <SCORE.INTER.ROT>
6

>  <SCORE.INTER.SOLV>
13.6064

>  <SCORE.INTER.VDW>
-18.8089

>  <SCORE.INTER.norm>
-0.322908

>  <SCORE.INTRA>
-5.18402

>  <SCORE.INTRA.DIHEDRAL>
-10.738

>  <SCORE.INTRA.DIHEDRAL.0>
18.77

>  <SCORE.INTRA.POLAR>
0

>  <SCORE.INTRA.POLAR.0>
0

>  <SCORE.INTRA.REPUL>
0

>  <SCORE.INTRA.REPUL.0>
0

>  <SCORE.INTRA.SOLV>
-2.36844

>  <SCORE.INTRA.SOLV.lig_0>
-77.2465

>  <SCORE.INTRA.VDW>
1.36922

>  <SCORE.INTRA.VDW.0>
-4.16072

>  <SCORE.INTRA.norm>
-0.167227

>  <SCORE.RESTR>
0

>  <SCORE.RESTR.CAVITY>
0

>  <SCORE.RESTR.norm>
0

>  <SCORE.SYSTEM>
0

>  <SCORE.SYSTEM.CONST>
0

>  <SCORE.SYSTEM.DIHEDRAL>
0

>  <SCORE.SYSTEM.SOLV>
0

>  <SCORE.SYSTEM.norm>
0

>  <SCORE.heavy>
31

>  <SCORE.norm>
-0.490134

>  <RMSD>
8.355

$$$$
ligand
 OpenBabel11021811493D
libRbt.so/2013.1/901 2013/11/27
 31 33  0  0  0  0  0  0  0  0999 V2000
   -7.4326  -14.0359  -19.6394 C   0  0  2  0  0  0  0  0  0  0  0  0
   -6.4164  -13.5940  -18.7291 O   0  0  0  0  0  0  0  0  0  0  0  0
   -8.1669   -9.9908  -17.2204 C   0  0  2  0  0  0  0  0  0  0  0  0
   -8.3390   -8.7852  -16.4688 N   0  0  0  0  0  0  0  0  0  0  0  0
   -6.5855   -7.4259  -18.7637 C   0  0  2  0  0  0  0  0  0  0  0  0
   -6.7055  -14.9043  -20.7253 C   0  0  2  0  0  0  0  0  0  0  0  0
   -6.0035  -16.0098  -20.0828 N   0  0  0  0  0  0  0  0  0  0  0  0
   -8.0049  -11.1978  -16.2180 C   0  0  0  0  0  0  0  0  0  0  0  0
   -7.2570   -6.5411  -19.8589 C   0  0  2  0  0  0  0  0  0  0  0  0
   -8.6652   -6.6319  -19.7265 O   0  0  0  0  0  0  0  0  0  0  0  0
   -5.7060  -14.0101  -21.5384 C   0  0  0  0  0  0  0  0  0  0  0  0
   -7.8217  -12.5375  -17.0540 C   0  0  2  0  0  0  0  0  0  0  0  0
   -7.6668  -13.6789  -16.1222 N   0  0  0  0  0  0  0  0  0  0  0  0
   -6.7798   -7.1021  -21.2709 C   0  0  1  0  0  0  0  0  0  0  0  0
   -7.4097   -6.3234  -22.3908 N   0  0  0  0  0  0  0  0  0  0  0  0
   -6.3865  -12.6838  -21.9849 C   0  0  0  0  0  0  0  0  0  0  0  0
   -6.5382  -12.4095  -17.9895 C   0  0  2  0  0  0  0  0  0  0  0  0
   -5.1594   -6.9758  -21.3766 C   0  0  1  0  0  0  0  0  0  0  0  0
   -4.7220   -5.6350  -21.2674 O   0  0  0  0  0  0  0  0  0  0  0  0
   -7.4909  -12.2331  -21.3710 C   0  0  2  0  0  0  0  0  0  0  0  0
   -8.1249  -12.9221  -20.2791 O   0  0  0  0  0  0  0  0  0  0  0  0
   -6.7217  -11.1707  -18.9627 C   0  0  2  0  0  0  0  0  0  0  0  0
   -5.5623  -11.0299  -19.7933 O   0  0  0  0  0  0  0  0  0  0  0  0
   -4.5008   -7.7881  -20.2110 C   0  0  0  0  0  0  0  0  0  0  0  0
   -5.0850   -7.3454  -18.8800 O   0  0  0  0  0  0  0  0  0  0  0  0
   -8.1831  -10.9190  -21.8018 C   0  0  0  0  0  0  0  0  0  0  0  0
   -7.2719  -10.1362  -22.6247 N   0  0  0  0  0  0  0  0  0  0  0  0
   -6.9037   -9.8559  -18.1213 C   0  0  1  0  0  0  0  0  0  0  0  0
   -7.0685   -8.7829  -19.0172 O   0  0  0  0  0  0  0  0  0  0  0  0
   -4.5345   -7.4822  -22.6871 C   0  0  0  0  0  0  0  0  0  0  0  0
   -8.2143   -7.0977  -23.3549 C   0  0  0  0  0  0  0  0  0  0  0  0
  1  2  1  1  0  0  0
  1  6  1  0  0  0  0
  1 21  1  0  0  0  0
  3  4  1  1  0  0  0
  3  8  1  0  0  0  0
  3 28  1  0  0  0  0
  5  9  1  0  0  0  0
  5 25  1  0  0  0  0
  5 29  1  6  0  0  0
  6  7  1  1  0  0  0
  6 11  1  0  0  0  0
  8 12  1  0  0  0  0
  9 10  1  6  0  0  0
  9 14  1  0  0  0  0
 11 16  1  0  0  0  0
 12 13  1  1  0  0  0
 12 17  1  0  0  0  0
 14 15  1  6  0  0  0
 14 18  1  0  0  0  0
 15 31  1  0  0  0  0
 16 20  1  0  0  0  0
 17  2  1  6  0  0  0
 17 22  1  0  0  0  0
 18 19  1  1  0  0  0
 18 24  1  0  0  0  0
 18 30  1  0  0  0  0
 20 21  1  0  0  0  0
 20 26  1  6  0  0  0
 22 23  1  6  0  0  0
 22 28  1  0  0  0  0
 24 25  1  0  0  0  0
 26 27  1  0  0  0  0
 28 29  1  6  0  0  0
M  END
>  <CHROM.1>
152.97610810,-168.04290775,-121.99899553,61.01318711,-16.30422157,94.29505568
-6.80849814,-10.19602547,-19.87479239,-1.96338952,1.33790476,0.11244940

>  <Name>
ligand

>  <RI>
0

>  <Rbt.Current_Directory>
/home/itssahil/PROJECTS/Mol_Feturizer/New_Systems/rnas/4F8U

>  <Rbt.Executable>
rbdock ($Id: //depot/dev/client3/rdock/2013.1/src/exe/rbdock.cxx#4 $)

>  <Rbt.Library>
libRbt.so (2013.1, Build901 2013/11/27)

>  <Rbt.Parameter_File>
/export/apps/rDock/src/rDock_2013.1_src/data/scripts/dock_solv.prm

>  <Rbt.Receptor>
prm/blind_docking_60.prm

>  <SCORE>
46.9039

>  <SCORE.INTER>
23.3321

>  <SCORE.INTER.CONST>
1

>  <SCORE.INTER.POLAR>
0

>  <SCORE.INTER.ROT>
6

>  <SCORE.INTER.SOLV>
23.8138

>  <SCORE.INTER.VDW>
0.0167584

>  <SCORE.INTER.norm>
0.752647

>  <SCORE.INTRA>
1.18621

>  <SCORE.INTRA.DIHEDRAL>
-7.42888

>  <SCORE.INTRA.DIHEDRAL.0>
18.77

>  <SCORE.INTRA.POLAR>
0

>  <SCORE.INTRA.POLAR.0>
0

>  <SCORE.INTRA.REPUL>
0

>  <SCORE.INTRA.REPUL.0>
0

>  <SCORE.INTRA.SOLV>
4.0447

>  <SCORE.INTRA.SOLV.lig_0>
-77.2465

>  <SCORE.INTRA.VDW>
2.8783

>  <SCORE.INTRA.VDW.0>
-4.16072

>  <SCORE.INTRA.norm>
0.0382648

>  <SCORE.RESTR>
22.3856

>  <SCORE.RESTR.CAVITY>
22.3856

>  <SCORE.RESTR.norm>
0.722116

>  <SCORE.SYSTEM>
0

>  <SCORE.SYSTEM.CONST>
0

>  <SCORE.SYSTEM.DIHEDRAL>
0

>  <SCORE.SYSTEM.SOLV>
0

>  <SCORE.SYSTEM.norm>
0

>  <SCORE.heavy>
31

>  <SCORE.norm>
1.51303

>  <RMSD>
8.356

$$$$
ligand
 OpenBabel11021811493D
libRbt.so/2013.1/901 2013/11/27
 31 33  0  0  0  0  0  0  0  0999 V2000
   -5.0593  -12.8064  -12.5132 C   0  0  2  0  0  0  0  0  0  0  0  0
   -4.5221  -11.5500  -12.9484 O   0  0  0  0  0  0  0  0  0  0  0  0
   -3.6016   -9.7592  -16.7259 C   0  0  2  0  0  0  0  0  0  0  0  0
   -3.0042   -9.5445  -18.0085 N   0  0  0  0  0  0  0  0  0  0  0  0
   -6.6396  -10.3494  -17.5556 C   0  0  2  0  0  0  0  0  0  0  0  0
   -5.5658  -12.5853  -11.0447 C   0  0  2  0  0  0  0  0  0  0  0  0
   -6.5519  -11.5107  -11.0204 N   0  0  0  0  0  0  0  0  0  0  0  0
   -2.4665   -9.7752  -15.6309 C   0  0  0  0  0  0  0  0  0  0  0  0
   -7.4693  -10.6819  -18.8340 C   0  0  2  0  0  0  0  0  0  0  0  0
   -7.6800  -12.0821  -18.8963 O   0  0  0  0  0  0  0  0  0  0  0  0
   -4.3528  -12.2464  -10.1100 C   0  0  0  0  0  0  0  0  0  0  0  0
   -3.1322  -10.0059  -14.2057 C   0  0  2  0  0  0  0  0  0  0  0  0
   -2.0745  -10.0245  -13.1684 N   0  0  0  0  0  0  0  0  0  0  0  0
   -6.6235  -10.1765  -20.0851 C   0  0  1  0  0  0  0  0  0  0  0  0
   -7.3383  -10.4888  -21.3692 N   0  0  0  0  0  0  0  0  0  0  0  0
   -3.1773  -13.2383  -10.3464 C   0  0  0  0  0  0  0  0  0  0  0  0
   -3.9287  -11.3860  -14.2077 C   0  0  2  0  0  0  0  0  0  0  0  0
   -6.4090   -8.5660  -19.9701 C   0  0  1  0  0  0  0  0  0  0  0  0
   -7.6376   -7.8650  -19.9599 O   0  0  0  0  0  0  0  0  0  0  0  0
   -3.0949  -13.9552  -11.4773 C   0  0  2  0  0  0  0  0  0  0  0  0
   -4.0633  -13.8725  -12.5376 O   0  0  0  0  0  0  0  0  0  0  0  0
   -5.0407  -11.3464  -15.3380 C   0  0  2  0  0  0  0  0  0  0  0  0
   -5.7486  -12.5922  -15.3663 O   0  0  0  0  0  0  0  0  0  0  0  0
   -5.6625   -8.2384  -18.6330 C   0  0  0  0  0  0  0  0  0  0  0  0
   -6.4030   -8.8638  -17.4629 O   0  0  0  0  0  0  0  0  0  0  0  0
   -1.9362  -14.9479  -11.7295 C   0  0  0  0  0  0  0  0  0  0  0  0
   -2.4765  -16.2207  -12.1861 N   0  0  0  0  0  0  0  0  0  0  0  0
   -4.3670  -11.1155  -16.7389 C   0  0  1  0  0  0  0  0  0  0  0  0
   -5.3831  -11.0812  -17.7122 O   0  0  0  0  0  0  0  0  0  0  0  0
   -5.6016   -7.9174  -21.1067 C   0  0  0  0  0  0  0  0  0  0  0  0
   -7.1921  -11.8642  -21.8821 C   0  0  0  0  0  0  0  0  0  0  0  0
  1  2  1  1  0  0  0
  1  6  1  0  0  0  0
  1 21  1  0  0  0  0
  3  4  1  6  0  0  0
  3  8  1  0  0  0  0
  3 28  1  0  0  0  0
  5  9  1  0  0  0  0
  5 25  1  0  0  0  0
  5 29  1  6  0  0  0
  6  7  1  6  0  0  0
  6 11  1  0  0  0  0
  8 12  1  0  0  0  0
  9 10  1  6  0  0  0
  9 14  1  0  0  0  0
 11 16  1  0  0  0  0
 12 13  1  1  0  0  0
 12 17  1  0  0  0  0
 14 15  1  6  0  0  0
 14 18  1  0  0  0  0
 15 31  1  0  0  0  0
 16 20  1  0  0  0  0
 17  2  1  1  0  0  0
 17 22  1  0  0  0  0
 18 19  1  1  0  0  0
 18 24  1  0  0  0  0
 18 30  1  0  0  0  0
 20 21  1  0  0  0  0
 20 26  1  1  0  0  0
 22 23  1  6  0  0  0
 22 28  1  0  0  0  0
 24 25  1  0  0  0  0
 26 27  1  0  0  0  0
 28 29  1  6  0  0  0
M  END
>  <CHROM.1>
177.58421162,-176.44228164,-81.30876518,-165.88959416,131.66680540,-74.85085317
-5.00470680,-11.18418582,-15.80519524,1.06977324,0.88115178,2.37708932

>  <Name>
ligand

>  <RI>
0

>  <Rbt.Current_Directory>
/home/itssahil/PROJECTS/Mol_Feturizer/New_Systems/rnas/4F8U

>  <Rbt.Executable>
rbdock ($Id: //depot/dev/client3/rdock/2013.1/src/exe/rbdock.cxx#4 $)

>  <Rbt.Library>
libRbt.so (2013.1, Build901 2013/11/27)

>  <Rbt.Parameter_File>
/export/apps/rDock/src/rDock_2013.1_src/data/scripts/dock_solv.prm

>  <Rbt.Receptor>
prm/pocket_docking_4.prm

>  <SCORE>
-16.4607

>  <SCORE.INTER>
-10.3852

>  <SCORE.INTER.CONST>
1

>  <SCORE.INTER.POLAR>
0

>  <SCORE.INTER.ROT>
6

>  <SCORE.INTER.SOLV>
18.9975

>  <SCORE.INTER.VDW>
-20.856

>  <SCORE.INTER.norm>
-0.335007

>  <SCORE.INTRA>
-6.0755

>  <SCORE.INTRA.DIHEDRAL>
-14.5128

>  <SCORE.INTRA.DIHEDRAL.0>
18.77

>  <SCORE.INTRA.POLAR>
0

>  <SCORE.INTRA.POLAR.0>
0

>  <SCORE.INTRA.REPUL>
0

>  <SCORE.INTRA.REPUL.0>
0

>  <SCORE.INTRA.SOLV>
-0.277205

>  <SCORE.INTRA.SOLV.lig_0>
-77.2465

>  <SCORE.INTRA.VDW>
1.31952

>  <SCORE.INTRA.VDW.0>
-4.16072

>  <SCORE.INTRA.norm>
-0.195984

>  <SCORE.RESTR>
0

>  <SCORE.RESTR.CAVITY>
0

>  <SCORE.RESTR.norm>
0

>  <SCORE.SYSTEM>
0

>  <SCORE.SYSTEM.CONST>
0

>  <SCORE.SYSTEM.DIHEDRAL>
0

>  <SCORE.SYSTEM.SOLV>
0

>  <SCORE.SYSTEM.norm>
0

>  <SCORE.heavy>
31

>  <SCORE.norm>
-0.530991

>  <RMSD>
8.361

$$$$
ligand
 OpenBabel11021811493D
libRbt.so/2013.1/901 2013/11/27
 31 33  0  0  0  0  0  0  0  0999 V2000
   -5.0699  -12.7947  -12.5121 C   0  0  2  0  0  0  0  0  0  0  0  0
   -4.5157  -11.5482  -12.9543 O   0  0  0  0  0  0  0  0  0  0  0  0
   -3.6496   -9.7830  -16.7566 C   0  0  2  0  0  0  0  0  0  0  0  0
   -3.0714   -9.5774  -18.0494 N   0  0  0  0  0  0  0  0  0  0  0  0
   -6.7034  -10.3781  -17.5338 C   0  0  2  0  0  0  0  0  0  0  0  0
   -5.5454  -12.5671  -11.0342 C   0  0  2  0  0  0  0  0  0  0  0  0
   -6.5093  -11.4732  -10.9900 N   0  0  0  0  0  0  0  0  0  0  0  0
   -2.4981   -9.7940  -15.6788 C   0  0  0  0  0  0  0  0  0  0  0  0
   -7.5471  -10.7065  -18.8040 C   0  0  2  0  0  0  0  0  0  0  0  0
   -7.7572  -12.1067  -18.8694 O   0  0  0  0  0  0  0  0  0  0  0  0
   -4.3092  -12.2546  -10.1209 C   0  0  0  0  0  0  0  0  0  0  0  0
   -3.1424  -10.0146  -14.2423 C   0  0  2  0  0  0  0  0  0  0  0  0
   -2.0691  -10.0284  -13.2211 N   0  0  0  0  0  0  0  0  0  0  0  0
   -6.7160  -10.1954  -20.0626 C   0  0  1  0  0  0  0  0  0  0  0  0
   -7.4450  -10.5035  -21.3397 N   0  0  0  0  0  0  0  0  0  0  0  0
   -3.1582  -13.2691  -10.3804 C   0  0  0  0  0  0  0  0  0  0  0  0
   -3.9411  -11.3932  -14.2235 C   0  0  2  0  0  0  0  0  0  0  0  0
   -6.5018   -8.5852  -19.9438 C   0  0  1  0  0  0  0  0  0  0  0  0
   -7.7308   -7.8855  -19.9170 O   0  0  0  0  0  0  0  0  0  0  0  0
   -3.1104  -13.9848  -11.5141 C   0  0  2  0  0  0  0  0  0  0  0  0
   -4.0958  -13.8803  -12.5566 O   0  0  0  0  0  0  0  0  0  0  0  0
   -5.0701  -11.3588  -15.3370 C   0  0  2  0  0  0  0  0  0  0  0  0
   -5.7804  -12.6035  -15.3467 O   0  0  0  0  0  0  0  0  0  0  0  0
   -5.7405   -8.2620  -18.6140 C   0  0  0  0  0  0  0  0  0  0  0  0
   -6.4672   -8.8927  -17.4380 O   0  0  0  0  0  0  0  0  0  0  0  0
   -1.9763  -14.9997  -11.7891 C   0  0  0  0  0  0  0  0  0  0  0  0
   -2.5492  -16.2558  -12.2521 N   0  0  0  0  0  0  0  0  0  0  0  0
   -4.4174  -11.1380  -16.7494 C   0  0  1  0  0  0  0  0  0  0  0  0
   -5.4480  -11.1081  -17.7074 O   0  0  0  0  0  0  0  0  0  0  0  0
   -5.7079   -7.9313  -21.0870 C   0  0  0  0  0  0  0  0  0  0  0  0
   -7.1910  -11.8291  -21.9351 C   0  0  0  0  0  0  0  0  0  0  0  0
  1  2  1  1  0  0  0
  1  6  1  0  0  0  0
  1 21  1  0  0  0  0
  3  4  1  6  0  0  0
  3  8  1  0  0  0  0
  3 28  1  0  0  0  0
  5  9  1  0  0  0  0
  5 25  1  0  0  0  0
  5 29  1  6  0  0  0
  6  7  1  6  0  0  0
  6 11  1  0  0  0  0
  8 12  1  0  0  0  0
  9 10  1  6  0  0  0
  9 14  1  0  0  0  0
 11 16  1  0  0  0  0
 12 13  1  1  0  0  0
 12 17  1  0  0  0  0
 14 15  1  6  0  0  0
 14 18  1  0  0  0  0
 15 31  1  0  0  0  0
 16 20  1  0  0  0  0
 17  2  1  1  0  0  0
 17 22  1  0  0  0  0
 18 19  1  1  0  0  0
 18 24  1  0  0  0  0
 18 30  1  0  0  0  0
 20 21  1  0  0  0  0
 20 26  1  1  0  0  0
 22 23  1  6  0  0  0
 22 28  1  0  0  0  0
 24 25  1  0  0  0  0
 26 27  1  0  0  0  0
 28 29  1  6  0  0  0
M  END
>  <CHROM.1>
177.54671082,-176.87204995,-87.53217335,-167.03032128,132.26610385,-75.14623904
-5.04470947,-11.19849536,-15.81093544,1.04709712,0.89398384,2.40114118

>  <Name>
ligand

>  <RI>
0

>  <Rbt.Current_Directory>
/home/itssahil/PROJECTS/Mol_Feturizer/New_Systems/rnas/4F8U

>  <Rbt.Executable>
rbdock ($Id: //depot/dev/client3/rdock/2013.1/src/exe/rbdock.cxx#4 $)

>  <Rbt.Library>
libRbt.so (2013.1, Build901 2013/11/27)

>  <Rbt.Parameter_File>
/export/apps/rDock/src/rDock_2013.1_src/data/scripts/dock_solv.prm

>  <Rbt.Receptor>
prm/pocket_docking_8.prm

>  <SCORE>
-16.6281

>  <SCORE.INTER>
-10.4219

>  <SCORE.INTER.CONST>
1

>  <SCORE.INTER.POLAR>
0

>  <SCORE.INTER.ROT>
6

>  <SCORE.INTER.SOLV>
18.9045

>  <SCORE.INTER.VDW>
-20.8494

>  <SCORE.INTER.norm>
-0.336191

>  <SCORE.INTRA>
-6.20623

>  <SCORE.INTRA.DIHEDRAL>
-14.4226

>  <SCORE.INTRA.DIHEDRAL.0>
18.77

>  <SCORE.INTRA.POLAR>
0

>  <SCORE.INTRA.POLAR.0>
0

>  <SCORE.INTRA.REPUL>
0

>  <SCORE.INTRA.REPUL.0>
0

>  <SCORE.INTRA.SOLV>
-0.332855

>  <SCORE.INTRA.SOLV.lig_0>
-77.2465

>  <SCORE.INTRA.VDW>
1.17149

>  <SCORE.INTRA.VDW.0>
-4.16072

>  <SCORE.INTRA.norm>
-0.200201

>  <SCORE.RESTR>
0

>  <SCORE.RESTR.CAVITY>
0

>  <SCORE.RESTR.norm>
0

>  <SCORE.SYSTEM>
0

>  <SCORE.SYSTEM.CONST>
0

>  <SCORE.SYSTEM.DIHEDRAL>
0

>  <SCORE.SYSTEM.SOLV>
0

>  <SCORE.SYSTEM.norm>
0

>  <SCORE.heavy>
31

>  <SCORE.norm>
-0.536392

>  <RMSD>
8.361

$$$$
ligand
 OpenBabel11021811493D
libRbt.so/2013.1/901 2013/11/27
 31 33  0  0  0  0  0  0  0  0999 V2000
   -4.9187  -12.6296  -12.5319 C   0  0  2  0  0  0  0  0  0  0  0  0
   -4.2492  -11.4466  -12.9888 O   0  0  0  0  0  0  0  0  0  0  0  0
   -3.4409   -9.7217  -16.8222 C   0  0  2  0  0  0  0  0  0  0  0  0
   -2.9229   -9.5556  -18.1459 N   0  0  0  0  0  0  0  0  0  0  0  0
   -6.5687   -9.9881  -17.4279 C   0  0  2  0  0  0  0  0  0  0  0  0
   -5.3515  -12.3478  -11.0502 C   0  0  2  0  0  0  0  0  0  0  0  0
   -6.2018  -11.1636  -11.0023 N   0  0  0  0  0  0  0  0  0  0  0  0
   -2.2341   -9.8601  -15.8160 C   0  0  0  0  0  0  0  0  0  0  0  0
   -7.5951  -10.3496  -18.5456 C   0  0  2  0  0  0  0  0  0  0  0  0
   -7.9317  -11.7220  -18.4370 O   0  0  0  0  0  0  0  0  0  0  0  0
   -4.0796  -12.1544  -10.1532 C   0  0  0  0  0  0  0  0  0  0  0  0
   -2.8106  -10.0366  -14.3450 C   0  0  2  0  0  0  0  0  0  0  0  0
   -1.6852  -10.1694  -13.3906 N   0  0  0  0  0  0  0  0  0  0  0  0
   -6.8931  -10.0436  -19.9420 C   0  0  1  0  0  0  0  0  0  0  0  0
   -7.8052  -10.3968  -21.0824 N   0  0  0  0  0  0  0  0  0  0  0  0
   -3.0379  -13.2794  -10.4191 C   0  0  0  0  0  0  0  0  0  0  0  0
   -3.7385  -11.3308  -14.2890 C   0  0  2  0  0  0  0  0  0  0  0  0
   -6.5273   -8.4584  -20.0206 C   0  0  1  0  0  0  0  0  0  0  0  0
   -7.6777   -7.6413  -19.9202 O   0  0  0  0  0  0  0  0  0  0  0  0
   -3.0749  -14.0025  -11.5484 C   0  0  2  0  0  0  0  0  0  0  0  0
   -4.0576  -13.8066  -12.5803 O   0  0  0  0  0  0  0  0  0  0  0  0
   -4.9226  -11.1709  -15.3320 C   0  0  2  0  0  0  0  0  0  0  0  0
   -5.7512  -12.3400  -15.3087 O   0  0  0  0  0  0  0  0  0  0  0  0
   -5.5752   -8.0884  -18.8336 C   0  0  0  0  0  0  0  0  0  0  0  0
   -6.1950   -8.5309  -17.5187 O   0  0  0  0  0  0  0  0  0  0  0  0
   -2.0503  -15.1262  -11.8297 C   0  0  0  0  0  0  0  0  0  0  0  0
   -2.7538  -16.3378  -12.2266 N   0  0  0  0  0  0  0  0  0  0  0  0
   -4.3363  -10.9952  -16.7794 C   0  0  1  0  0  0  0  0  0  0  0  0
   -5.4141  -10.8515  -17.6732 O   0  0  0  0  0  0  0  0  0  0  0  0
   -5.8349   -7.9965  -21.3135 C   0  0  0  0  0  0  0  0  0  0  0  0
   -7.4638  -11.6154  -21.8405 C   0  0  0  0  0  0  0  0  0  0  0  0
  1  2  1  1  0  0  0
  1  6  1  0  0  0  0
  1 21  1  0  0  0  0
  3  4  1  6  0  0  0
  3  8  1  0  0  0  0
  3 28  1  0  0  0  0
  5  9  1  0  0  0  0
  5 25  1  0  0  0  0
  5 29  1  6  0  0  0
  6  7  1  6  0  0  0
  6 11  1  0  0  0  0
  8 12  1  0  0  0  0
  9 10  1  6  0  0  0
  9 14  1  0  0  0  0
 11 16  1  0  0  0  0
 12 13  1  1  0  0  0
 12 17  1  0  0  0  0
 14 15  1  6  0  0  0
 14 18  1  0  0  0  0
 15 31  1  0  0  0  0
 16 20  1  0  0  0  0
 17  2  1  1  0  0  0
 17 22  1  0  0  0  0
 18 19  1  1  0  0  0
 18 24  1  0  0  0  0
 18 30  1  0  0  0  0
 20 21  1  0  0  0  0
 20 26  1  1  0  0  0
 22 23  1  6  0  0  0
 22 28  1  0  0  0  0
 24 25  1  0  0  0  0
 26 27  1  0  0  0  0
 28 29  1  6  0  0  0
M  END
>  <CHROM.1>
-179.05818694,-170.09583448,-106.44124275,-168.25500775,130.02791683,-74.10553174
-4.97120857,-11.06855434,-15.81453775,1.10933150,0.73247564,2.32151341

>  <Name>
ligand

>  <RI>
0

>  <Rbt.Current_Directory>
/home/itssahil/PROJECTS/Mol_Feturizer/New_Systems/rnas/4F8U

>  <Rbt.Executable>
rbdock ($Id: //depot/dev/client3/rdock/2013.1/src/exe/rbdock.cxx#4 $)

>  <Rbt.Library>
libRbt.so (2013.1, Build901 2013/11/27)

>  <Rbt.Parameter_File>
/export/apps/rDock/src/rDock_2013.1_src/data/scripts/dock_solv.prm

>  <Rbt.Receptor>
prm/pocket_docking_3.prm

>  <SCORE>
-16.2432

>  <SCORE.INTER>
-9.74109

>  <SCORE.INTER.CONST>
1

>  <SCORE.INTER.POLAR>
0

>  <SCORE.INTER.ROT>
6

>  <SCORE.INTER.SOLV>
19.5999

>  <SCORE.INTER.VDW>
-20.6273

>  <SCORE.INTER.norm>
-0.314229

>  <SCORE.INTRA>
-6.50209

>  <SCORE.INTRA.DIHEDRAL>
-13.8273

>  <SCORE.INTRA.DIHEDRAL.0>
18.77

>  <SCORE.INTRA.POLAR>
0

>  <SCORE.INTRA.POLAR.0>
0

>  <SCORE.INTRA.REPUL>
0

>  <SCORE.INTRA.REPUL.0>
0

>  <SCORE.INTRA.SOLV>
-0.760456

>  <SCORE.INTRA.SOLV.lig_0>
-77.2465

>  <SCORE.INTRA.VDW>
0.791806

>  <SCORE.INTRA.VDW.0>
-4.16072

>  <SCORE.INTRA.norm>
-0.209745

>  <SCORE.RESTR>
0

>  <SCORE.RESTR.CAVITY>
0

>  <SCORE.RESTR.norm>
0

>  <SCORE.SYSTEM>
0

>  <SCORE.SYSTEM.CONST>
0

>  <SCORE.SYSTEM.DIHEDRAL>
0

>  <SCORE.SYSTEM.SOLV>
0

>  <SCORE.SYSTEM.norm>
0

>  <SCORE.heavy>
31

>  <SCORE.norm>
-0.523973

>  <RMSD>
8.369

$$$$
ligand
 OpenBabel11021811493D
libRbt.so/2013.1/901 2013/11/27
 31 33  0  0  0  0  0  0  0  0999 V2000
   -5.0181  -12.7880  -12.4765 C   0  0  2  0  0  0  0  0  0  0  0  0
   -4.4481  -11.5515  -12.9269 O   0  0  0  0  0  0  0  0  0  0  0  0
   -3.6087   -9.7996  -16.7413 C   0  0  2  0  0  0  0  0  0  0  0  0
   -3.0469   -9.6038  -18.0428 N   0  0  0  0  0  0  0  0  0  0  0  0
   -6.6834  -10.3340  -17.4722 C   0  0  2  0  0  0  0  0  0  0  0  0
   -5.4747  -12.5498  -10.9943 C   0  0  2  0  0  0  0  0  0  0  0  0
   -6.4201  -11.4402  -10.9425 N   0  0  0  0  0  0  0  0  0  0  0  0
   -2.4408   -9.8332  -15.6816 C   0  0  0  0  0  0  0  0  0  0  0  0
   -7.5807  -10.6994  -18.6948 C   0  0  2  0  0  0  0  0  0  0  0  0
   -7.8130  -12.0976  -18.6956 O   0  0  0  0  0  0  0  0  0  0  0  0
   -4.2244  -12.2559  -10.0942 C   0  0  0  0  0  0  0  0  0  0  0  0
   -3.0666  -10.0428  -14.2353 C   0  0  2  0  0  0  0  0  0  0  0  0
   -1.9779  -10.0776  -13.2310 N   0  0  0  0  0  0  0  0  0  0  0  0
   -6.7922  -10.2518  -20.0041 C   0  0  1  0  0  0  0  0  0  0  0  0
   -7.5749  -10.5989  -21.2387 N   0  0  0  0  0  0  0  0  0  0  0  0
   -3.0928  -13.2896  -10.3633 C   0  0  0  0  0  0  0  0  0  0  0  0
   -3.8906  -11.4062  -14.2048 C   0  0  2  0  0  0  0  0  0  0  0  0
   -6.5507   -8.6417  -19.9586 C   0  0  1  0  0  0  0  0  0  0  0  0
   -7.7678   -7.9223  -19.9128 O   0  0  0  0  0  0  0  0  0  0  0  0
   -3.0683  -14.0081  -11.4959 C   0  0  2  0  0  0  0  0  0  0  0  0
   -4.0624  -13.8894  -12.5286 O   0  0  0  0  0  0  0  0  0  0  0  0
   -5.0360  -11.3498  -15.3004 C   0  0  2  0  0  0  0  0  0  0  0  0
   -5.7697  -12.5809  -15.2997 O   0  0  0  0  0  0  0  0  0  0  0  0
   -5.7336   -8.2779  -18.6732 C   0  0  0  0  0  0  0  0  0  0  0  0
   -6.4226   -8.8499  -17.4456 O   0  0  0  0  0  0  0  0  0  0  0  0
   -1.9538  -15.0419  -11.7804 C   0  0  0  0  0  0  0  0  0  0  0  0
   -2.5547  -16.3144  -12.1547 N   0  0  0  0  0  0  0  0  0  0  0  0
   -4.4015  -11.1400  -16.7228 C   0  0  1  0  0  0  0  0  0  0  0  0
   -5.4463  -11.0900  -17.6645 O   0  0  0  0  0  0  0  0  0  0  0  0
   -5.7930   -8.0464  -21.1569 C   0  0  0  0  0  0  0  0  0  0  0  0
   -7.2401  -11.8809  -21.8872 C   0  0  0  0  0  0  0  0  0  0  0  0
  1  2  1  1  0  0  0
  1  6  1  0  0  0  0
  1 21  1  0  0  0  0
  3  4  1  6  0  0  0
  3  8  1  0  0  0  0
  3 28  1  0  0  0  0
  5  9  1  0  0  0  0
  5 25  1  0  0  0  0
  5 29  1  6  0  0  0
  6  7  1  6  0  0  0
  6 11  1  0  0  0  0
  8 12  1  0  0  0  0
  9 10  1  6  0  0  0
  9 14  1  0  0  0  0
 11 16  1  0  0  0  0
 12 13  1  1  0  0  0
 12 17  1  0  0  0  0
 14 15  1  6  0  0  0
 14 18  1  0  0  0  0
 15 31  1  0  0  0  0
 16 20  1  0  0  0  0
 17  2  1  1  0  0  0
 17 22  1  0  0  0  0
 18 19  1  1  0  0  0
 18 24  1  0  0  0  0
 18 30  1  0  0  0  0
 20 21  1  0  0  0  0
 20 26  1  1  0  0  0
 22 23  1  6  0  0  0
 22 28  1  0  0  0  0
 24 25  1  0  0  0  0
 26 27  1  0  0  0  0
 28 29  1  6  0  0  0
M  END
>  <CHROM.1>
177.90689586,-174.27031868,-94.99102246,-167.00390211,128.75132366,-74.98715367
-5.02975244,-11.21595872,-15.78036716,1.05469639,0.85721582,2.38222526

>  <Name>
ligand

>  <RI>
0

>  <Rbt.Current_Directory>
/home/itssahil/PROJECTS/Mol_Feturizer/New_Systems/rnas/4F8U

>  <Rbt.Executable>
rbdock ($Id: //depot/dev/client3/rdock/2013.1/src/exe/rbdock.cxx#4 $)

>  <Rbt.Library>
libRbt.so (2013.1, Build901 2013/11/27)

>  <Rbt.Parameter_File>
/export/apps/rDock/src/rDock_2013.1_src/data/scripts/dock_solv.prm

>  <Rbt.Receptor>
prm/pocket_docking_4.prm

>  <SCORE>
-16.5663

>  <SCORE.INTER>
-10.1444

>  <SCORE.INTER.CONST>
1

>  <SCORE.INTER.POLAR>
0

>  <SCORE.INTER.ROT>
6

>  <SCORE.INTER.SOLV>
19.3128

>  <SCORE.INTER.VDW>
-20.8005

>  <SCORE.INTER.norm>
-0.327237

>  <SCORE.INTRA>
-6.42196

>  <SCORE.INTRA.DIHEDRAL>
-14.1959

>  <SCORE.INTRA.DIHEDRAL.0>
18.77

>  <SCORE.INTRA.POLAR>
0

>  <SCORE.INTRA.POLAR.0>
0

>  <SCORE.INTRA.REPUL>
0

>  <SCORE.INTRA.REPUL.0>
0

>  <SCORE.INTRA.SOLV>
-0.497792

>  <SCORE.INTRA.SOLV.lig_0>
-77.2465

>  <SCORE.INTRA.VDW>
0.924866

>  <SCORE.INTRA.VDW.0>
-4.16072

>  <SCORE.INTRA.norm>
-0.20716

>  <SCORE.RESTR>
0

>  <SCORE.RESTR.CAVITY>
0

>  <SCORE.RESTR.norm>
0

>  <SCORE.SYSTEM>
0

>  <SCORE.SYSTEM.CONST>
0

>  <SCORE.SYSTEM.DIHEDRAL>
0

>  <SCORE.SYSTEM.SOLV>
0

>  <SCORE.SYSTEM.norm>
0

>  <SCORE.heavy>
31

>  <SCORE.norm>
-0.534397

>  <RMSD>
8.369

$$$$
ligand
 OpenBabel11021811493D
libRbt.so/2013.1/901 2013/11/27
 31 33  0  0  0  0  0  0  0  0999 V2000
   -2.4422  -11.3133  -13.6641 C   0  0  2  0  0  0  0  0  0  0  0  0
   -2.0298  -12.1996  -14.7134 O   0  0  0  0  0  0  0  0  0  0  0  0
   -3.9919  -13.4911  -18.2919 C   0  0  2  0  0  0  0  0  0  0  0  0
   -4.9001  -14.1725  -19.1630 N   0  0  0  0  0  0  0  0  0  0  0  0
   -6.6152  -10.8306  -17.4619 C   0  0  2  0  0  0  0  0  0  0  0  0
   -1.1415  -10.9255  -12.8768 C   0  0  2  0  0  0  0  0  0  0  0  0
   -0.1790  -10.3142  -13.7866 N   0  0  0  0  0  0  0  0  0  0  0  0
   -3.1495  -14.5609  -17.4957 C   0  0  0  0  0  0  0  0  0  0  0  0
   -7.6255  -10.6084  -18.6295 C   0  0  2  0  0  0  0  0  0  0  0  0
   -8.0936  -11.8678  -19.0809 O   0  0  0  0  0  0  0  0  0  0  0  0
   -0.5311  -12.2012  -12.1986 C   0  0  0  0  0  0  0  0  0  0  0  0
   -2.1355  -13.8028  -16.5342 C   0  0  2  0  0  0  0  0  0  0  0  0
   -1.3393  -14.7984  -15.7793 N   0  0  0  0  0  0  0  0  0  0  0  0
   -6.8428   -9.8432  -19.7862 C   0  0  1  0  0  0  0  0  0  0  0  0
   -7.7378   -9.6161  -20.9713 N   0  0  0  0  0  0  0  0  0  0  0  0
   -1.6311  -13.0141  -11.4565 C   0  0  0  0  0  0  0  0  0  0  0  0
   -2.9498  -12.8706  -15.5308 C   0  0  2  0  0  0  0  0  0  0  0  0
   -6.3269   -8.4050  -19.2219 C   0  0  1  0  0  0  0  0  0  0  0  0
   -7.3985   -7.5835  -18.8004 O   0  0  0  0  0  0  0  0  0  0  0  0
   -2.9290  -12.8533  -11.7553 C   0  0  2  0  0  0  0  0  0  0  0  0
   -3.4013  -11.9367  -12.7581 O   0  0  0  0  0  0  0  0  0  0  0  0
   -3.8066  -11.8280  -16.3642 C   0  0  2  0  0  0  0  0  0  0  0  0
   -4.5632  -10.9989  -15.4730 O   0  0  0  0  0  0  0  0  0  0  0  0
   -5.3924   -8.6395  -17.9874 C   0  0  0  0  0  0  0  0  0  0  0  0
   -6.1029   -9.5049  -16.9602 O   0  0  0  0  0  0  0  0  0  0  0  0
   -4.0369  -13.6497  -11.0273 C   0  0  0  0  0  0  0  0  0  0  0  0
   -4.9372  -12.7254  -10.3525 N   0  0  0  0  0  0  0  0  0  0  0  0
   -4.8013  -12.5928  -17.3104 C   0  0  1  0  0  0  0  0  0  0  0  0
   -5.5379  -11.6369  -18.0348 O   0  0  0  0  0  0  0  0  0  0  0  0
   -5.5432   -7.5381  -20.2212 C   0  0  0  0  0  0  0  0  0  0  0  0
   -7.5469  -10.5229  -22.1192 C   0  0  0  0  0  0  0  0  0  0  0  0
  1  2  1  6  0  0  0
  1  6  1  0  0  0  0
  1 21  1  0  0  0  0
  3  4  1  6  0  0  0
  3  8  1  0  0  0  0
  3 28  1  0  0  0  0
  5  9  1  0  0  0  0
  5 25  1  0  0  0  0
  5 29  1  6  0  0  0
  6  7  1  6  0  0  0
  6 11  1  0  0  0  0
  8 12  1  0  0  0  0
  9 10  1  6  0  0  0
  9 14  1  0  0  0  0
 11 16  1  0  0  0  0
 12 13  1  1  0  0  0
 12 17  1  0  0  0  0
 14 15  1  6  0  0  0
 14 18  1  0  0  0  0
 15 31  1  0  0  0  0
 16 20  1  0  0  0  0
 17  2  1  1  0  0  0
 17 22  1  0  0  0  0
 18 19  1  1  0  0  0
 18 24  1  0  0  0  0
 18 30  1  0  0  0  0
 20 21  1  0  0  0  0
 20 26  1  1  0  0  0
 22 23  1  1  0  0  0
 22 28  1  0  0  0  0
 24 25  1  0  0  0  0
 26 27  1  0  0  0  0
 28 29  1  6  0  0  0
M  END
>  <CHROM.1>
172.63259642,-147.39016347,-102.17656374,-177.73489735,119.54533496,166.31638033
-4.41312888,-11.48198512,-16.33556119,0.36221463,-0.97373461,0.80700842

>  <Name>
ligand

>  <RI>
0

>  <Rbt.Current_Directory>
/home/itssahil/PROJECTS/Mol_Feturizer/New_Systems/rnas/4F8U

>  <Rbt.Executable>
rbdock ($Id: //depot/dev/client3/rdock/2013.1/src/exe/rbdock.cxx#4 $)

>  <Rbt.Library>
libRbt.so (2013.1, Build901 2013/11/27)

>  <Rbt.Parameter_File>
/export/apps/rDock/src/rDock_2013.1_src/data/scripts/dock_solv.prm

>  <Rbt.Receptor>
prm/pocket_docking_5.prm

>  <SCORE>
-13.7462

>  <SCORE.INTER>
-8.06628

>  <SCORE.INTER.CONST>
1

>  <SCORE.INTER.POLAR>
0

>  <SCORE.INTER.ROT>
6

>  <SCORE.INTER.SOLV>
13.0423

>  <SCORE.INTER.VDW>
-17.325

>  <SCORE.INTER.norm>
-0.260202

>  <SCORE.INTRA>
-5.67988

>  <SCORE.INTRA.DIHEDRAL>
-10.8645

>  <SCORE.INTRA.DIHEDRAL.0>
18.77

>  <SCORE.INTRA.POLAR>
0

>  <SCORE.INTRA.POLAR.0>
0

>  <SCORE.INTRA.REPUL>
0

>  <SCORE.INTRA.REPUL.0>
0

>  <SCORE.INTRA.SOLV>
-2.77583

>  <SCORE.INTRA.SOLV.lig_0>
-77.2465

>  <SCORE.INTRA.VDW>
1.1403

>  <SCORE.INTRA.VDW.0>
-4.16072

>  <SCORE.INTRA.norm>
-0.183222

>  <SCORE.RESTR>
0

>  <SCORE.RESTR.CAVITY>
0

>  <SCORE.RESTR.norm>
0

>  <SCORE.SYSTEM>
0

>  <SCORE.SYSTEM.CONST>
0

>  <SCORE.SYSTEM.DIHEDRAL>
0

>  <SCORE.SYSTEM.SOLV>
0

>  <SCORE.SYSTEM.norm>
0

>  <SCORE.heavy>
31

>  <SCORE.norm>
-0.443424

>  <RMSD>
8.381

$$$$
ligand
 OpenBabel11021811493D
libRbt.so/2013.1/901 2013/11/27
 31 33  0  0  0  0  0  0  0  0999 V2000
   -5.4135  -16.9551  -13.3105 C   0  0  2  0  0  0  0  0  0  0  0  0
   -5.9948  -16.0718  -12.3418 O   0  0  0  0  0  0  0  0  0  0  0  0
   -4.6125  -12.5996  -10.2547 C   0  0  2  0  0  0  0  0  0  0  0  0
   -3.8521  -11.7683   -9.3721 N   0  0  0  0  0  0  0  0  0  0  0  0
   -1.9665  -11.3642  -11.5544 C   0  0  2  0  0  0  0  0  0  0  0  0
   -6.6103  -17.6060  -14.0890 C   0  0  2  0  0  0  0  0  0  0  0  0
   -7.4288  -16.5623  -14.6960 N   0  0  0  0  0  0  0  0  0  0  0  0
   -5.3270  -13.7225   -9.4083 C   0  0  0  0  0  0  0  0  0  0  0  0
   -1.7704  -10.2644  -12.6432 C   0  0  2  0  0  0  0  0  0  0  0  0
   -2.9845   -9.5508  -12.8027 O   0  0  0  0  0  0  0  0  0  0  0  0
   -7.4660  -18.4833  -13.1102 C   0  0  0  0  0  0  0  0  0  0  0  0
   -6.1776  -14.6404  -10.3887 C   0  0  2  0  0  0  0  0  0  0  0  0
   -6.8526  -15.7008   -9.6044 N   0  0  0  0  0  0  0  0  0  0  0  0
   -1.3649  -11.0082  -13.9917 C   0  0  1  0  0  0  0  0  0  0  0  0
   -1.1875  -10.0200  -15.1094 N   0  0  0  0  0  0  0  0  0  0  0  0
   -6.5532  -19.4049  -12.2506 C   0  0  0  0  0  0  0  0  0  0  0  0
   -5.2145  -15.2885  -11.4802 C   0  0  2  0  0  0  0  0  0  0  0  0
    0.0333  -11.8109  -13.7601 C   0  0  1  0  0  0  0  0  0  0  0  0
    1.0919  -10.9432  -13.4030 O   0  0  0  0  0  0  0  0  0  0  0  0
   -5.2492  -19.1325  -12.0925 C   0  0  2  0  0  0  0  0  0  0  0  0
   -4.6007  -17.9972  -12.6920 O   0  0  0  0  0  0  0  0  0  0  0  0
   -4.4916  -14.1333  -12.2917 C   0  0  2  0  0  0  0  0  0  0  0  0
   -3.6033  -14.7036  -13.2610 O   0  0  0  0  0  0  0  0  0  0  0  0
   -0.1499  -12.8427  -12.5964 C   0  0  0  0  0  0  0  0  0  0  0  0
   -0.6874  -12.1377  -11.3624 O   0  0  0  0  0  0  0  0  0  0  0  0
   -4.3253  -20.0375  -11.2445 C   0  0  0  0  0  0  0  0  0  0  0  0
   -4.1632  -19.4602   -9.9175 N   0  0  0  0  0  0  0  0  0  0  0  0
   -3.6577  -13.2345  -11.3086 C   0  0  1  0  0  0  0  0  0  0  0  0
   -3.0372  -12.2209  -12.0628 O   0  0  0  0  0  0  0  0  0  0  0  0
    0.5639  -12.5913  -14.9741 C   0  0  0  0  0  0  0  0  0  0  0  0
   -2.3954   -9.6900  -15.8894 C   0  0  0  0  0  0  0  0  0  0  0  0
  1  2  1  1  0  0  0
  1  6  1  0  0  0  0
  1 21  1  0  0  0  0
  3  4  1  1  0  0  0
  3  8  1  0  0  0  0
  3 28  1  0  0  0  0
  5  9  1  0  0  0  0
  5 25  1  0  0  0  0
  5 29  1  6  0  0  0
  6  7  1  1  0  0  0
  6 11  1  0  0  0  0
  8 12  1  0  0  0  0
  9 10  1  6  0  0  0
  9 14  1  0  0  0  0
 11 16  1  0  0  0  0
 12 13  1  1  0  0  0
 12 17  1  0  0  0  0
 14 15  1  6  0  0  0
 14 18  1  0  0  0  0
 15 31  1  0  0  0  0
 16 20  1  0  0  0  0
 17  2  1  6  0  0  0
 17 22  1  0  0  0  0
 18 19  1  1  0  0  0
 18 24  1  0  0  0  0
 18 30  1  0  0  0  0
 20 21  1  0  0  0  0
 20 26  1  6  0  0  0
 22 23  1  6  0  0  0
 22 28  1  0  0  0  0
 24 25  1  0  0  0  0
 26 27  1  0  0  0  0
 28 29  1  6  0  0  0
M  END
>  <CHROM.1>
-178.42321339,-170.94557782,-88.51437792,-170.22549613,-98.62822935,74.03040552
-3.68727285,-14.22669594,-12.38340851,-2.57351108,0.84953535,0.67600267

>  <Name>
ligand

>  <RI>
0

>  <Rbt.Current_Directory>
/home/itssahil/PROJECTS/Mol_Feturizer/New_Systems/rnas/4F8U

>  <Rbt.Executable>
rbdock ($Id: //depot/dev/client3/rdock/2013.1/src/exe/rbdock.cxx#4 $)

>  <Rbt.Library>
libRbt.so (2013.1, Build901 2013/11/27)

>  <Rbt.Parameter_File>
/export/apps/rDock/src/rDock_2013.1_src/data/scripts/dock_solv.prm

>  <Rbt.Receptor>
prm/pocket_docking_8.prm

>  <SCORE>
-9.16171

>  <SCORE.INTER>
-1.9343

>  <SCORE.INTER.CONST>
1

>  <SCORE.INTER.POLAR>
0

>  <SCORE.INTER.ROT>
6

>  <SCORE.INTER.SOLV>
17.238

>  <SCORE.INTER.VDW>
-14.6355

>  <SCORE.INTER.norm>
-0.0623966

>  <SCORE.INTRA>
-7.22741

>  <SCORE.INTRA.DIHEDRAL>
-14.1943

>  <SCORE.INTRA.DIHEDRAL.0>
18.77

>  <SCORE.INTRA.POLAR>
0

>  <SCORE.INTRA.POLAR.0>
0

>  <SCORE.INTRA.REPUL>
0

>  <SCORE.INTRA.REPUL.0>
0

>  <SCORE.INTRA.SOLV>
-1.9148

>  <SCORE.INTRA.SOLV.lig_0>
-77.2465

>  <SCORE.INTRA.VDW>
0.827121

>  <SCORE.INTRA.VDW.0>
-4.16072

>  <SCORE.INTRA.norm>
-0.233142

>  <SCORE.RESTR>
0

>  <SCORE.RESTR.CAVITY>
0

>  <SCORE.RESTR.norm>
0

>  <SCORE.SYSTEM>
0

>  <SCORE.SYSTEM.CONST>
0

>  <SCORE.SYSTEM.DIHEDRAL>
0

>  <SCORE.SYSTEM.SOLV>
0

>  <SCORE.SYSTEM.norm>
0

>  <SCORE.heavy>
31

>  <SCORE.norm>
-0.295539

>  <RMSD>
8.382

$$$$
ligand
 OpenBabel11021811493D
libRbt.so/2013.1/901 2013/11/27
 31 33  0  0  0  0  0  0  0  0999 V2000
   -5.1602  -12.7250  -12.5288 C   0  0  2  0  0  0  0  0  0  0  0  0
   -4.6132  -11.4839  -12.9948 O   0  0  0  0  0  0  0  0  0  0  0  0
   -3.7257   -9.7655  -16.8136 C   0  0  2  0  0  0  0  0  0  0  0  0
   -3.1475   -9.5810  -18.1096 N   0  0  0  0  0  0  0  0  0  0  0  0
   -6.7934  -10.3119  -17.5762 C   0  0  2  0  0  0  0  0  0  0  0  0
   -5.6401  -12.4711  -11.0567 C   0  0  2  0  0  0  0  0  0  0  0  0
   -6.6113  -11.3829  -11.0362 N   0  0  0  0  0  0  0  0  0  0  0  0
   -2.5714   -9.7894  -15.7390 C   0  0  0  0  0  0  0  0  0  0  0  0
   -7.6608  -10.6618  -18.8246 C   0  0  2  0  0  0  0  0  0  0  0  0
   -7.8916  -12.0600  -18.8492 O   0  0  0  0  0  0  0  0  0  0  0  0
   -4.4079  -12.1323  -10.1474 C   0  0  0  0  0  0  0  0  0  0  0  0
   -3.2155   -9.9864  -14.2989 C   0  0  2  0  0  0  0  0  0  0  0  0
   -2.1396  -10.0122  -13.2806 N   0  0  0  0  0  0  0  0  0  0  0  0
   -6.8417  -10.1965  -20.1086 C   0  0  1  0  0  0  0  0  0  0  0  0
   -7.5942  -10.5279  -21.3661 N   0  0  0  0  0  0  0  0  0  0  0  0
   -3.2497  -13.1442  -10.3845 C   0  0  0  0  0  0  0  0  0  0  0  0
   -4.0397  -11.3497  -14.2668 C   0  0  2  0  0  0  0  0  0  0  0  0
   -6.6030   -8.5870  -20.0363 C   0  0  1  0  0  0  0  0  0  0  0  0
   -7.8216   -7.8691  -20.0102 O   0  0  0  0  0  0  0  0  0  0  0  0
   -3.1950  -13.8820  -11.5035 C   0  0  2  0  0  0  0  0  0  0  0  0
   -4.1790  -13.8048  -12.5498 O   0  0  0  0  0  0  0  0  0  0  0  0
   -5.1710  -11.3032  -15.3774 C   0  0  2  0  0  0  0  0  0  0  0  0
   -5.9045  -12.5345  -15.3751 O   0  0  0  0  0  0  0  0  0  0  0  0
   -5.8173   -8.2395  -18.7270 C   0  0  0  0  0  0  0  0  0  0  0  0
   -6.5349   -8.8280  -17.5239 O   0  0  0  0  0  0  0  0  0  0  0  0
   -2.0538  -14.8947  -11.7561 C   0  0  0  0  0  0  0  0  0  0  0  0
   -2.6207  -16.1867  -12.1161 N   0  0  0  0  0  0  0  0  0  0  0  0
   -4.5185  -11.1058  -16.7933 C   0  0  1  0  0  0  0  0  0  0  0  0
   -5.5513  -11.0644  -17.7486 O   0  0  0  0  0  0  0  0  0  0  0  0
   -5.8174   -7.9754  -21.2082 C   0  0  0  0  0  0  0  0  0  0  0  0
   -7.1746  -11.7504  -22.0772 C   0  0  0  0  0  0  0  0  0  0  0  0
  1  2  1  1  0  0  0
  1  6  1  0  0  0  0
  1 21  1  0  0  0  0
  3  4  1  6  0  0  0
  3  8  1  0  0  0  0
  3 28  1  0  0  0  0
  5  9  1  0  0  0  0
  5 25  1  0  0  0  0
  5 29  1  6  0  0  0
  6  7  1  6  0  0  0
  6 11  1  0  0  0  0
  8 12  1  0  0  0  0
  9 10  1  6  0  0  0
  9 14  1  0  0  0  0
 11 16  1  0  0  0  0
 12 13  1  1  0  0  0
 12 17  1  0  0  0  0
 14 15  1  6  0  0  0
 14 18  1  0  0  0  0
 15 31  1  0  0  0  0
 16 20  1  0  0  0  0
 17  2  1  1  0  0  0
 17 22  1  0  0  0  0
 18 19  1  1  0  0  0
 18 24  1  0  0  0  0
 18 30  1  0  0  0  0
 20 21  1  0  0  0  0
 20 26  1  1  0  0  0
 22 23  1  6  0  0  0
 22 28  1  0  0  0  0
 24 25  1  0  0  0  0
 26 27  1  0  0  0  0
 28 29  1  6  0  0  0
M  END
>  <CHROM.1>
177.68341779,-175.50436182,-99.35264598,-165.48677771,128.82645354,-75.27282075
-5.13596410,-11.15003799,-15.85065205,1.07268609,0.85717234,2.35818272

>  <Name>
ligand

>  <RI>
0

>  <Rbt.Current_Directory>
/home/itssahil/PROJECTS/Mol_Feturizer/New_Systems/rnas/4F8U

>  <Rbt.Executable>
rbdock ($Id: //depot/dev/client3/rdock/2013.1/src/exe/rbdock.cxx#4 $)

>  <Rbt.Library>
libRbt.so (2013.1, Build901 2013/11/27)

>  <Rbt.Parameter_File>
/export/apps/rDock/src/rDock_2013.1_src/data/scripts/dock_solv.prm

>  <Rbt.Receptor>
prm/pocket_docking_5.prm

>  <SCORE>
-16.5421

>  <SCORE.INTER>
-10.2948

>  <SCORE.INTER.CONST>
1

>  <SCORE.INTER.POLAR>
0

>  <SCORE.INTER.ROT>
6

>  <SCORE.INTER.SOLV>
19.2109

>  <SCORE.INTER.VDW>
-20.8668

>  <SCORE.INTER.norm>
-0.33209

>  <SCORE.INTRA>
-6.24734

>  <SCORE.INTRA.DIHEDRAL>
-13.8968

>  <SCORE.INTRA.DIHEDRAL.0>
18.77

>  <SCORE.INTRA.POLAR>
0

>  <SCORE.INTRA.POLAR.0>
0

>  <SCORE.INTRA.REPUL>
0

>  <SCORE.INTRA.REPUL.0>
0

>  <SCORE.INTRA.SOLV>
-0.395783

>  <SCORE.INTRA.SOLV.lig_0>
-77.2465

>  <SCORE.INTRA.VDW>
0.898963

>  <SCORE.INTRA.VDW.0>
-4.16072

>  <SCORE.INTRA.norm>
-0.201527

>  <SCORE.RESTR>
0

>  <SCORE.RESTR.CAVITY>
0

>  <SCORE.RESTR.norm>
0

>  <SCORE.SYSTEM>
0

>  <SCORE.SYSTEM.CONST>
0

>  <SCORE.SYSTEM.DIHEDRAL>
0

>  <SCORE.SYSTEM.SOLV>
0

>  <SCORE.SYSTEM.norm>
0

>  <SCORE.heavy>
31

>  <SCORE.norm>
-0.533617

>  <RMSD>
8.383

$$$$
ligand
 OpenBabel11021811493D
libRbt.so/2013.1/901 2013/11/27
 31 33  0  0  0  0  0  0  0  0999 V2000
   -7.1767  -12.9512  -19.7271 C   0  0  2  0  0  0  0  0  0  0  0  0
   -5.8397  -12.6683  -19.2925 O   0  0  0  0  0  0  0  0  0  0  0  0
   -6.4286   -9.0869  -17.0229 C   0  0  2  0  0  0  0  0  0  0  0  0
   -6.1448   -7.9142  -16.2534 N   0  0  0  0  0  0  0  0  0  0  0  0
   -5.4977   -6.6777  -19.5137 C   0  0  2  0  0  0  0  0  0  0  0  0
   -7.0495  -13.9740  -20.9101 C   0  0  2  0  0  0  0  0  0  0  0  0
   -6.3391  -15.1648  -20.4573 N   0  0  0  0  0  0  0  0  0  0  0  0
   -5.8577  -10.3459  -16.2632 C   0  0  0  0  0  0  0  0  0  0  0  0
   -6.4684   -5.7905  -20.3527 C   0  0  2  0  0  0  0  0  0  0  0  0
   -7.5626   -5.4055  -19.5381 O   0  0  0  0  0  0  0  0  0  0  0  0
   -6.2987  -13.3039  -22.1131 C   0  0  0  0  0  0  0  0  0  0  0  0
   -6.1805  -11.6487  -17.1151 C   0  0  2  0  0  0  0  0  0  0  0  0
   -5.6471  -12.8385  -16.4114 N   0  0  0  0  0  0  0  0  0  0  0  0
   -6.9580   -6.6703  -21.5865 C   0  0  1  0  0  0  0  0  0  0  0  0
   -7.9291   -5.8994  -22.4350 N   0  0  0  0  0  0  0  0  0  0  0  0
   -6.8824  -11.8931  -22.4136 C   0  0  0  0  0  0  0  0  0  0  0  0
   -5.5192  -11.5177  -18.5588 C   0  0  2  0  0  0  0  0  0  0  0  0
   -5.6693   -7.0862  -22.4915 C   0  0  1  0  0  0  0  0  0  0  0  0
   -4.9905   -5.9550  -23.0021 O   0  0  0  0  0  0  0  0  0  0  0  0
   -7.5952  -11.2293  -21.4911 C   0  0  2  0  0  0  0  0  0  0  0  0
   -7.8760  -11.7539  -20.1816 O   0  0  0  0  0  0  0  0  0  0  0  0
   -6.0927  -10.2277  -19.2817 C   0  0  2  0  0  0  0  0  0  0  0  0
   -5.4870  -10.0850  -20.5727 O   0  0  0  0  0  0  0  0  0  0  0  0
   -4.6566   -7.8913  -21.6093 C   0  0  0  0  0  0  0  0  0  0  0  0
   -4.3216   -7.0995  -20.3565 O   0  0  0  0  0  0  0  0  0  0  0  0
   -8.1857   -9.8277  -21.7717 C   0  0  0  0  0  0  0  0  0  0  0  0
   -8.2932   -9.0862  -20.5231 N   0  0  0  0  0  0  0  0  0  0  0  0
   -5.7676   -8.9501  -18.4264 C   0  0  1  0  0  0  0  0  0  0  0  0
   -6.2954   -7.8301  -19.0957 O   0  0  0  0  0  0  0  0  0  0  0  0
   -5.9725   -7.9478  -23.7285 C   0  0  0  0  0  0  0  0  0  0  0  0
   -8.6540   -6.6690  -23.4638 C   0  0  0  0  0  0  0  0  0  0  0  0
  1  2  1  6  0  0  0
  1  6  1  0  0  0  0
  1 21  1  0  0  0  0
  3  4  1  1  0  0  0
  3  8  1  0  0  0  0
  3 28  1  0  0  0  0
  5  9  1  0  0  0  0
  5 25  1  0  0  0  0
  5 29  1  6  0  0  0
  6  7  1  1  0  0  0
  6 11  1  0  0  0  0
  8 12  1  0  0  0  0
  9 10  1  1  0  0  0
  9 14  1  0  0  0  0
 11 16  1  0  0  0  0
 12 13  1  1  0  0  0
 12 17  1  0  0  0  0
 14 15  1  6  0  0  0
 14 18  1  0  0  0  0
 15 31  1  0  0  0  0
 16 20  1  0  0  0  0
 17  2  1  6  0  0  0
 17 22  1  0  0  0  0
 18 19  1  6  0  0  0
 18 24  1  0  0  0  0
 18 30  1  0  0  0  0
 20 21  1  0  0  0  0
 20 26  1  6  0  0  0
 22 23  1  6  0  0  0
 22 28  1  0  0  0  0
 24 25  1  0  0  0  0
 26 27  1  0  0  0  0
 28 29  1  6  0  0  0
M  END
>  <CHROM.1>
159.67614054,173.38527987,-168.97698744,68.45370085,-151.61055896,118.20557240
-6.43541530,-9.49392904,-20.21943977,1.50397673,1.37469003,2.84081165

>  <Name>
ligand

>  <RI>
0

>  <Rbt.Current_Directory>
/home/itssahil/PROJECTS/Mol_Feturizer/New_Systems/rnas/4F8U

>  <Rbt.Executable>
rbdock ($Id: //depot/dev/client3/rdock/2013.1/src/exe/rbdock.cxx#4 $)

>  <Rbt.Library>
libRbt.so (2013.1, Build901 2013/11/27)

>  <Rbt.Parameter_File>
/export/apps/rDock/src/rDock_2013.1_src/data/scripts/dock_solv.prm

>  <Rbt.Receptor>
prm/blind_docking_60.prm

>  <SCORE>
88.187

>  <SCORE.INTER>
62.9834

>  <SCORE.INTER.CONST>
1

>  <SCORE.INTER.POLAR>
0

>  <SCORE.INTER.ROT>
6

>  <SCORE.INTER.SOLV>
28.2247

>  <SCORE.INTER.VDW>
24.9807

>  <SCORE.INTER.norm>
2.03172

>  <SCORE.INTRA>
9.2939

>  <SCORE.INTRA.DIHEDRAL>
-6.35169

>  <SCORE.INTRA.DIHEDRAL.0>
18.77

>  <SCORE.INTRA.POLAR>
0

>  <SCORE.INTRA.POLAR.0>
0

>  <SCORE.INTRA.REPUL>
0.23511

>  <SCORE.INTRA.REPUL.0>
0

>  <SCORE.INTRA.SOLV>
7.02418

>  <SCORE.INTRA.SOLV.lig_0>
-77.2465

>  <SCORE.INTRA.VDW>
7.7821

>  <SCORE.INTRA.VDW.0>
-4.16072

>  <SCORE.INTRA.norm>
0.299803

>  <SCORE.RESTR>
15.9097

>  <SCORE.RESTR.CAVITY>
15.9097

>  <SCORE.RESTR.norm>
0.513216

>  <SCORE.SYSTEM>
0

>  <SCORE.SYSTEM.CONST>
0

>  <SCORE.SYSTEM.DIHEDRAL>
0

>  <SCORE.SYSTEM.SOLV>
0

>  <SCORE.SYSTEM.norm>
0

>  <SCORE.heavy>
31

>  <SCORE.norm>
2.84474

>  <RMSD>
8.386

$$$$
ligand
 OpenBabel11021811493D
libRbt.so/2013.1/901 2013/11/27
 31 33  0  0  0  0  0  0  0  0999 V2000
   -7.9768  -14.3047  -19.9952 C   0  0  2  0  0  0  0  0  0  0  0  0
   -7.1496  -14.0819  -18.8451 O   0  0  0  0  0  0  0  0  0  0  0  0
   -8.0216   -9.9809  -17.9817 C   0  0  2  0  0  0  0  0  0  0  0  0
   -8.0100   -8.7060  -17.3316 N   0  0  0  0  0  0  0  0  0  0  0  0
   -5.4276   -8.1325  -18.9842 C   0  0  2  0  0  0  0  0  0  0  0  0
   -7.1648  -15.2524  -20.9463 C   0  0  2  0  0  0  0  0  0  0  0  0
   -6.8304  -16.4862  -20.2437 N   0  0  0  0  0  0  0  0  0  0  0  0
   -8.5448  -11.0671  -16.9648 C   0  0  0  0  0  0  0  0  0  0  0  0
   -6.3022   -6.9651  -19.5372 C   0  0  2  0  0  0  0  0  0  0  0  0
   -7.5915   -7.0374  -18.9531 O   0  0  0  0  0  0  0  0  0  0  0  0
   -5.8656  -14.5246  -21.4385 C   0  0  0  0  0  0  0  0  0  0  0  0
   -8.5647  -12.4815  -17.6905 C   0  0  2  0  0  0  0  0  0  0  0  0
   -9.0534  -13.5109  -16.7436 N   0  0  0  0  0  0  0  0  0  0  0  0
   -6.3811   -7.1476  -21.1173 C   0  0  1  0  0  0  0  0  0  0  0  0
   -7.2378   -6.0775  -21.7323 N   0  0  0  0  0  0  0  0  0  0  0  0
   -6.1899  -13.0840  -21.9294 C   0  0  0  0  0  0  0  0  0  0  0  0
   -7.0958  -12.8434  -18.1908 C   0  0  2  0  0  0  0  0  0  0  0  0
   -4.8796   -7.0558  -21.7418 C   0  0  1  0  0  0  0  0  0  0  0  0
   -4.2677   -5.8087  -21.4748 O   0  0  0  0  0  0  0  0  0  0  0  0
   -7.3189  -12.4639  -21.5543 C   0  0  2  0  0  0  0  0  0  0  0  0
   -8.3012  -13.0644  -20.6922 O   0  0  0  0  0  0  0  0  0  0  0  0
   -6.5903  -11.7174  -19.1868 C   0  0  2  0  0  0  0  0  0  0  0  0
   -5.2596  -12.0190  -19.6254 O   0  0  0  0  0  0  0  0  0  0  0  0
   -3.9853   -8.1715  -21.1032 C   0  0  0  0  0  0  0  0  0  0  0  0
   -4.0478   -8.0776  -19.5879 O   0  0  0  0  0  0  0  0  0  0  0  0
   -7.6602  -11.0337  -22.0336 C   0  0  0  0  0  0  0  0  0  0  0  0
   -8.1482  -10.2473  -20.9094 N   0  0  0  0  0  0  0  0  0  0  0  0
   -6.5788  -10.3265  -18.4555 C   0  0  1  0  0  0  0  0  0  0  0  0
   -6.1310   -9.3552  -19.3704 O   0  0  0  0  0  0  0  0  0  0  0  0
   -4.7803   -7.2180  -23.2676 C   0  0  0  0  0  0  0  0  0  0  0  0
   -6.8309   -4.6834  -21.4728 C   0  0  0  0  0  0  0  0  0  0  0  0
  1  2  1  1  0  0  0
  1  6  1  0  0  0  0
  1 21  1  0  0  0  0
  3  4  1  1  0  0  0
  3  8  1  0  0  0  0
  3 28  1  0  0  0  0
  5  9  1  0  0  0  0
  5 25  1  0  0  0  0
  5 29  1  6  0  0  0
  6  7  1  1  0  0  0
  6 11  1  0  0  0  0
  8 12  1  0  0  0  0
  9 10  1  1  0  0  0
  9 14  1  0  0  0  0
 11 16  1  0  0  0  0
 12 13  1  1  0  0  0
 12 17  1  0  0  0  0
 14 15  1  6  0  0  0
 14 18  1  0  0  0  0
 15 31  1  0  0  0  0
 16 20  1  0  0  0  0
 17  2  1  6  0  0  0
 17 22  1  0  0  0  0
 18 19  1  1  0  0  0
 18 24  1  0  0  0  0
 18 30  1  0  0  0  0
 20 21  1  0  0  0  0
 20 26  1  6  0  0  0
 22 23  1  1  0  0  0
 22 28  1  0  0  0  0
 24 25  1  0  0  0  0
 26 27  1  0  0  0  0
 28 29  1  6  0  0  0
M  END
>  <CHROM.1>
142.81871228,-121.80808168,57.29872904,59.22644114,-135.50642903,89.28098656
-6.69232549,-10.37986586,-19.98231214,-2.03720014,1.04683664,0.22917382

>  <Name>
ligand

>  <RI>
0

>  <Rbt.Current_Directory>
/home/itssahil/PROJECTS/Mol_Feturizer/New_Systems/rnas/4F8U

>  <Rbt.Executable>
rbdock ($Id: //depot/dev/client3/rdock/2013.1/src/exe/rbdock.cxx#4 $)

>  <Rbt.Library>
libRbt.so (2013.1, Build901 2013/11/27)

>  <Rbt.Parameter_File>
/export/apps/rDock/src/rDock_2013.1_src/data/scripts/dock_solv.prm

>  <Rbt.Receptor>
prm/blind_docking_60.prm

>  <SCORE>
42.607

>  <SCORE.INTER>
6.96431

>  <SCORE.INTER.CONST>
1

>  <SCORE.INTER.POLAR>
0

>  <SCORE.INTER.ROT>
6

>  <SCORE.INTER.SOLV>
24.7915

>  <SCORE.INTER.VDW>
-11.2209

>  <SCORE.INTER.norm>
0.224655

>  <SCORE.INTRA>
13.3944

>  <SCORE.INTRA.DIHEDRAL>
-1.21022

>  <SCORE.INTRA.DIHEDRAL.0>
18.77

>  <SCORE.INTRA.POLAR>
0

>  <SCORE.INTRA.POLAR.0>
0

>  <SCORE.INTRA.REPUL>
0

>  <SCORE.INTRA.REPUL.0>
0

>  <SCORE.INTRA.SOLV>
8.98842

>  <SCORE.INTRA.SOLV.lig_0>
-77.2465

>  <SCORE.INTRA.VDW>
9.5053

>  <SCORE.INTRA.VDW.0>
-4.16072

>  <SCORE.INTRA.norm>
0.432077

>  <SCORE.RESTR>
22.2483

>  <SCORE.RESTR.CAVITY>
22.2483

>  <SCORE.RESTR.norm>
0.717686

>  <SCORE.SYSTEM>
0

>  <SCORE.SYSTEM.CONST>
0

>  <SCORE.SYSTEM.DIHEDRAL>
0

>  <SCORE.SYSTEM.SOLV>
0

>  <SCORE.SYSTEM.norm>
0

>  <SCORE.heavy>
31

>  <SCORE.norm>
1.37442

>  <RMSD>
8.390

$$$$
ligand
 OpenBabel11021811493D
libRbt.so/2013.1/901 2013/11/27
 31 33  0  0  0  0  0  0  0  0999 V2000
   -1.2020  -10.3245  -16.1742 C   0  0  2  0  0  0  0  0  0  0  0  0
   -0.4873  -11.0600  -17.1766 O   0  0  0  0  0  0  0  0  0  0  0  0
   -1.9030  -13.8969  -20.0527 C   0  0  2  0  0  0  0  0  0  0  0  0
   -2.3689  -15.1244  -20.6220 N   0  0  0  0  0  0  0  0  0  0  0  0
   -5.4218  -13.3644  -18.7606 C   0  0  2  0  0  0  0  0  0  0  0  0
   -0.3889   -9.0049  -15.9309 C   0  0  2  0  0  0  0  0  0  0  0  0
   -0.2567   -8.2697  -17.1838 N   0  0  0  0  0  0  0  0  0  0  0  0
   -0.4658  -14.1295  -19.4457 C   0  0  0  0  0  0  0  0  0  0  0  0
   -6.5334  -13.4755  -19.8493 C   0  0  2  0  0  0  0  0  0  0  0  0
   -6.2729  -14.6075  -20.6614 O   0  0  0  0  0  0  0  0  0  0  0  0
    1.0218   -9.3518  -15.3396 C   0  0  0  0  0  0  0  0  0  0  0  0
    0.0540  -12.7633  -18.8206 C   0  0  2  0  0  0  0  0  0  0  0  0
    1.4036  -12.9701  -18.2455 N   0  0  0  0  0  0  0  0  0  0  0  0
   -6.4835  -12.1348  -20.7073 C   0  0  1  0  0  0  0  0  0  0  0  0
   -7.5062  -12.1711  -21.8074 N   0  0  0  0  0  0  0  0  0  0  0  0
    0.8970  -10.3709  -14.1703 C   0  0  0  0  0  0  0  0  0  0  0  0
   -0.9591  -12.2753  -17.6917 C   0  0  2  0  0  0  0  0  0  0  0  0
   -6.7895  -10.8653  -19.7339 C   0  0  1  0  0  0  0  0  0  0  0  0
   -8.0664  -10.9525  -19.1314 O   0  0  0  0  0  0  0  0  0  0  0  0
   -0.1993  -11.1313  -14.0305 C   0  0  2  0  0  0  0  0  0  0  0  0
   -1.3243  -11.0676  -14.9244 O   0  0  0  0  0  0  0  0  0  0  0  0
   -2.3982  -12.0800  -18.3293 C   0  0  2  0  0  0  0  0  0  0  0  0
   -3.3248  -11.6643  -17.3181 O   0  0  0  0  0  0  0  0  0  0  0  0
   -5.7236  -10.8246  -18.5874 C   0  0  0  0  0  0  0  0  0  0  0  0
   -5.6765  -12.1683  -17.8797 O   0  0  0  0  0  0  0  0  0  0  0  0
   -0.3433  -12.1477  -12.8738 C   0  0  0  0  0  0  0  0  0  0  0  0
   -0.5191  -13.4857  -13.4208 N   0  0  0  0  0  0  0  0  0  0  0  0
   -2.8961  -13.4378  -18.9443 C   0  0  1  0  0  0  0  0  0  0  0  0
   -4.1699  -13.2234  -19.5033 O   0  0  0  0  0  0  0  0  0  0  0  0
   -6.7739   -9.4853  -20.4120 C   0  0  0  0  0  0  0  0  0  0  0  0
   -7.0654  -11.6820  -23.1275 C   0  0  0  0  0  0  0  0  0  0  0  0
  1  2  1  6  0  0  0
  1  6  1  0  0  0  0
  1 21  1  0  0  0  0
  3  4  1  1  0  0  0
  3  8  1  0  0  0  0
  3 28  1  0  0  0  0
  5  9  1  0  0  0  0
  5 25  1  0  0  0  0
  5 29  1  6  0  0  0
  6  7  1  6  0  0  0
  6 11  1  0  0  0  0
  8 12  1  0  0  0  0
  9 10  1  6  0  0  0
  9 14  1  0  0  0  0
 11 16  1  0  0  0  0
 12 13  1  1  0  0  0
 12 17  1  0  0  0  0
 14 15  1  6  0  0  0
 14 18  1  0  0  0  0
 15 31  1  0  0  0  0
 16 20  1  0  0  0  0
 17  2  1  6  0  0  0
 17 22  1  0  0  0  0
 18 19  1  1  0  0  0
 18 24  1  0  0  0  0
 18 30  1  0  0  0  0
 20 21  1  0  0  0  0
 20 26  1  1  0  0  0
 22 23  1  1  0  0  0
 22 28  1  0  0  0  0
 24 25  1  0  0  0  0
 26 27  1  0  0  0  0
 28 29  1  6  0  0  0
M  END
>  <CHROM.1>
-177.05734671,-162.80440468,-137.08115392,177.51732309,-120.31911355,152.05501481
-3.02169075,-11.91778718,-18.10062008,0.54328715,-0.43816083,0.74278670

>  <Name>
ligand

>  <RI>
0

>  <Rbt.Current_Directory>
/home/itssahil/PROJECTS/Mol_Feturizer/New_Systems/rnas/4F8U

>  <Rbt.Executable>
rbdock ($Id: //depot/dev/client3/rdock/2013.1/src/exe/rbdock.cxx#4 $)

>  <Rbt.Library>
libRbt.so (2013.1, Build901 2013/11/27)

>  <Rbt.Parameter_File>
/export/apps/rDock/src/rDock_2013.1_src/data/scripts/dock_solv.prm

>  <Rbt.Receptor>
prm/pocket_docking_7.prm

>  <SCORE>
-11.4621

>  <SCORE.INTER>
-6.38638

>  <SCORE.INTER.CONST>
1

>  <SCORE.INTER.POLAR>
0

>  <SCORE.INTER.ROT>
6

>  <SCORE.INTER.SOLV>
16.9879

>  <SCORE.INTER.VDW>
-17.5202

>  <SCORE.INTER.norm>
-0.206012

>  <SCORE.INTRA>
-5.07571

>  <SCORE.INTRA.DIHEDRAL>
-11.4621

>  <SCORE.INTRA.DIHEDRAL.0>
18.77

>  <SCORE.INTRA.POLAR>
0

>  <SCORE.INTRA.POLAR.0>
0

>  <SCORE.INTRA.REPUL>
0

>  <SCORE.INTRA.REPUL.0>
0

>  <SCORE.INTRA.SOLV>
-2.55555

>  <SCORE.INTRA.SOLV.lig_0>
-77.2465

>  <SCORE.INTRA.VDW>
1.93311

>  <SCORE.INTRA.VDW.0>
-4.16072

>  <SCORE.INTRA.norm>
-0.163732

>  <SCORE.RESTR>
0

>  <SCORE.RESTR.CAVITY>
0

>  <SCORE.RESTR.norm>
0

>  <SCORE.SYSTEM>
0

>  <SCORE.SYSTEM.CONST>
0

>  <SCORE.SYSTEM.DIHEDRAL>
0

>  <SCORE.SYSTEM.SOLV>
0

>  <SCORE.SYSTEM.norm>
0

>  <SCORE.heavy>
31

>  <SCORE.norm>
-0.369745

>  <RMSD>
8.392

$$$$
ligand
 OpenBabel11021811493D
libRbt.so/2013.1/901 2013/11/27
 31 33  0  0  0  0  0  0  0  0999 V2000
   -1.9766  -11.0006  -14.1641 C   0  0  2  0  0  0  0  0  0  0  0  0
   -1.6709  -11.9586  -15.1866 O   0  0  0  0  0  0  0  0  0  0  0  0
   -3.9668  -13.5304  -18.4395 C   0  0  2  0  0  0  0  0  0  0  0  0
   -4.9563  -14.2728  -19.1590 N   0  0  0  0  0  0  0  0  0  0  0  0
   -6.5846  -10.8814  -17.6340 C   0  0  2  0  0  0  0  0  0  0  0  0
   -0.6023  -10.4225  -13.6752 C   0  0  2  0  0  0  0  0  0  0  0  0
    0.1141   -9.8360  -14.8024 N   0  0  0  0  0  0  0  0  0  0  0  0
   -3.0592  -14.5380  -17.6339 C   0  0  0  0  0  0  0  0  0  0  0  0
   -7.5571  -10.6228  -18.8259 C   0  0  2  0  0  0  0  0  0  0  0  0
   -7.9838  -11.8677  -19.3522 O   0  0  0  0  0  0  0  0  0  0  0  0
    0.2465  -11.5614  -13.0103 C   0  0  0  0  0  0  0  0  0  0  0  0
   -1.9555  -13.7128  -16.8414 C   0  0  2  0  0  0  0  0  0  0  0  0
   -1.0973  -14.6495  -16.0790 N   0  0  0  0  0  0  0  0  0  0  0  0
   -6.7492   -9.7897  -19.9165 C   0  0  1  0  0  0  0  0  0  0  0  0
   -7.6059   -9.5232  -21.1216 N   0  0  0  0  0  0  0  0  0  0  0  0
   -0.6140  -12.3773  -12.0027 C   0  0  0  0  0  0  0  0  0  0  0  0
   -2.6670  -12.6857  -15.8527 C   0  0  2  0  0  0  0  0  0  0  0  0
   -6.2824   -8.3706  -19.2675 C   0  0  1  0  0  0  0  0  0  0  0  0
   -7.3844   -7.5895  -18.8475 O   0  0  0  0  0  0  0  0  0  0  0  0
   -1.9540  -12.3586  -12.0647 C   0  0  2  0  0  0  0  0  0  0  0  0
   -2.6892  -11.5992  -13.0402 O   0  0  0  0  0  0  0  0  0  0  0  0
   -3.5926  -11.7083  -16.6914 C   0  0  2  0  0  0  0  0  0  0  0  0
   -4.2578  -10.7944  -15.8102 O   0  0  0  0  0  0  0  0  0  0  0  0
   -5.3878   -8.6461  -18.0120 C   0  0  0  0  0  0  0  0  0  0  0  0
   -6.1170   -9.5718  -17.0528 O   0  0  0  0  0  0  0  0  0  0  0  0
   -2.8264  -13.1603  -11.0709 C   0  0  0  0  0  0  0  0  0  0  0  0
   -3.5797  -14.1753  -11.7939 N   0  0  0  0  0  0  0  0  0  0  0  0
   -4.6758  -12.5391  -17.4700 C   0  0  1  0  0  0  0  0  0  0  0  0
   -5.4719  -11.6400  -18.2041 O   0  0  0  0  0  0  0  0  0  0  0  0
   -5.4811   -7.4434  -20.1962 C   0  0  0  0  0  0  0  0  0  0  0  0
   -7.5614  -10.5359  -22.1934 C   0  0  0  0  0  0  0  0  0  0  0  0
  1  2  1  6  0  0  0
  1  6  1  0  0  0  0
  1 21  1  0  0  0  0
  3  4  1  1  0  0  0
  3  8  1  0  0  0  0
  3 28  1  0  0  0  0
  5  9  1  0  0  0  0
  5 25  1  0  0  0  0
  5 29  1  6  0  0  0
  6  7  1  6  0  0  0
  6 11  1  0  0  0  0
  8 12  1  0  0  0  0
  9 10  1  6  0  0  0
  9 14  1  0  0  0  0
 11 16  1  0  0  0  0
 12 13  1  1  0  0  0
 12 17  1  0  0  0  0
 14 15  1  6  0  0  0
 14 18  1  0  0  0  0
 15 31  1  0  0  0  0
 16 20  1  0  0  0  0
 17  2  1  6  0  0  0
 17 22  1  0  0  0  0
 18 19  1  1  0  0  0
 18 24  1  0  0  0  0
 18 30  1  0  0  0  0
 20 21  1  0  0  0  0
 20 26  1  1  0  0  0
 22 23  1  1  0  0  0
 22 28  1  0  0  0  0
 24 25  1  0  0  0  0
 26 27  1  0  0  0  0
 28 29  1  6  0  0  0
M  END
>  <CHROM.1>
179.69721935,-152.57230165,-89.80452081,-176.27836144,-116.21989830,159.25987234
-4.10180071,-11.37098781,-16.64311370,-0.08604298,-0.91366212,0.26530985

>  <Name>
ligand

>  <RI>
0

>  <Rbt.Current_Directory>
/home/itssahil/PROJECTS/Mol_Feturizer/New_Systems/rnas/4F8U

>  <Rbt.Executable>
rbdock ($Id: //depot/dev/client3/rdock/2013.1/src/exe/rbdock.cxx#4 $)

>  <Rbt.Library>
libRbt.so (2013.1, Build901 2013/11/27)

>  <Rbt.Parameter_File>
/export/apps/rDock/src/rDock_2013.1_src/data/scripts/dock_solv.prm

>  <Rbt.Receptor>
prm/pocket_docking_6.prm

>  <SCORE>
-14.0837

>  <SCORE.INTER>
-8.29435

>  <SCORE.INTER.CONST>
1

>  <SCORE.INTER.POLAR>
0

>  <SCORE.INTER.ROT>
6

>  <SCORE.INTER.SOLV>
12.6809

>  <SCORE.INTER.VDW>
-17.3565

>  <SCORE.INTER.norm>
-0.26756

>  <SCORE.INTRA>
-5.78937

>  <SCORE.INTRA.DIHEDRAL>
-11.3679

>  <SCORE.INTRA.DIHEDRAL.0>
18.77

>  <SCORE.INTRA.POLAR>
0

>  <SCORE.INTRA.POLAR.0>
0

>  <SCORE.INTRA.REPUL>
0

>  <SCORE.INTRA.REPUL.0>
0

>  <SCORE.INTRA.SOLV>
-2.45735

>  <SCORE.INTRA.SOLV.lig_0>
-77.2465

>  <SCORE.INTRA.VDW>
1.12328

>  <SCORE.INTRA.VDW.0>
-4.16072

>  <SCORE.INTRA.norm>
-0.186754

>  <SCORE.RESTR>
0

>  <SCORE.RESTR.CAVITY>
0

>  <SCORE.RESTR.norm>
0

>  <SCORE.SYSTEM>
0

>  <SCORE.SYSTEM.CONST>
0

>  <SCORE.SYSTEM.DIHEDRAL>
0

>  <SCORE.SYSTEM.SOLV>
0

>  <SCORE.SYSTEM.norm>
0

>  <SCORE.heavy>
31

>  <SCORE.norm>
-0.454314

>  <RMSD>
8.396

$$$$
ligand
 OpenBabel11021811493D
libRbt.so/2013.1/901 2013/11/27
 31 33  0  0  0  0  0  0  0  0999 V2000
   -2.0401  -11.1120  -13.9213 C   0  0  2  0  0  0  0  0  0  0  0  0
   -1.7890  -12.0927  -14.9371 O   0  0  0  0  0  0  0  0  0  0  0  0
   -4.1744  -13.6054  -18.1535 C   0  0  2  0  0  0  0  0  0  0  0  0
   -5.2039  -14.3085  -18.8561 N   0  0  0  0  0  0  0  0  0  0  0  0
   -6.6188  -10.7772  -17.3881 C   0  0  2  0  0  0  0  0  0  0  0  0
   -0.6352  -10.6389  -13.4071 C   0  0  2  0  0  0  0  0  0  0  0  0
    0.1447  -10.1111  -14.5211 N   0  0  0  0  0  0  0  0  0  0  0  0
   -3.3190  -14.6434  -17.3296 C   0  0  0  0  0  0  0  0  0  0  0  0
   -7.6362  -10.5503  -18.5486 C   0  0  2  0  0  0  0  0  0  0  0  0
   -8.1521  -11.8039  -18.9621 O   0  0  0  0  0  0  0  0  0  0  0  0
    0.1120  -11.8375  -12.7254 C   0  0  0  0  0  0  0  0  0  0  0  0
   -2.1708  -13.8621  -16.5558 C   0  0  2  0  0  0  0  0  0  0  0  0
   -1.3611  -14.8275  -15.7764 N   0  0  0  0  0  0  0  0  0  0  0  0
   -6.8432   -9.8412  -19.7338 C   0  0  1  0  0  0  0  0  0  0  0  0
   -7.7454   -9.6137  -20.9135 N   0  0  0  0  0  0  0  0  0  0  0  0
   -0.8268  -12.5834  -11.7335 C   0  0  0  0  0  0  0  0  0  0  0  0
   -2.8242  -12.7793  -15.5866 C   0  0  2  0  0  0  0  0  0  0  0  0
   -6.2721   -8.4077  -19.2125 C   0  0  1  0  0  0  0  0  0  0  0  0
   -7.3101   -7.5400  -18.7992 O   0  0  0  0  0  0  0  0  0  0  0  0
   -2.1601  -12.4630  -11.8208 C   0  0  2  0  0  0  0  0  0  0  0  0
   -2.8171  -11.6522  -12.8106 O   0  0  0  0  0  0  0  0  0  0  0  0
   -3.6993  -11.7711  -16.4429 C   0  0  2  0  0  0  0  0  0  0  0  0
   -4.3126  -10.8059  -15.5791 O   0  0  0  0  0  0  0  0  0  0  0  0
   -5.3301   -8.6427  -17.9839 C   0  0  0  0  0  0  0  0  0  0  0  0
   -6.0559   -9.4576  -16.9265 O   0  0  0  0  0  0  0  0  0  0  0  0
   -3.1094  -13.1939  -10.8429 C   0  0  0  0  0  0  0  0  0  0  0  0
   -3.9521  -12.2199  -10.1635 N   0  0  0  0  0  0  0  0  0  0  0  0
   -4.8271  -12.5588  -17.2027 C   0  0  1  0  0  0  0  0  0  0  0  0
   -5.5767  -11.6337  -17.9532 O   0  0  0  0  0  0  0  0  0  0  0  0
   -5.4728   -7.5931  -20.2431 C   0  0  0  0  0  0  0  0  0  0  0  0
   -7.5725  -10.5302  -22.0563 C   0  0  0  0  0  0  0  0  0  0  0  0
  1  2  1  6  0  0  0
  1  6  1  0  0  0  0
  1 21  1  0  0  0  0
  3  4  1  1  0  0  0
  3  8  1  0  0  0  0
  3 28  1  0  0  0  0
  5  9  1  0  0  0  0
  5 25  1  0  0  0  0
  5 29  1  6  0  0  0
  6  7  1  6  0  0  0
  6 11  1  0  0  0  0
  8 12  1  0  0  0  0
  9 10  1  6  0  0  0
  9 14  1  0  0  0  0
 11 16  1  0  0  0  0
 12 13  1  1  0  0  0
 12 17  1  0  0  0  0
 14 15  1  6  0  0  0
 14 18  1  0  0  0  0
 15 31  1  0  0  0  0
 16 20  1  0  0  0  0
 17  2  1  6  0  0  0
 17 22  1  0  0  0  0
 18 19  1  1  0  0  0
 18 24  1  0  0  0  0
 18 30  1  0  0  0  0
 20 21  1  0  0  0  0
 20 26  1  1  0  0  0
 22 23  1  1  0  0  0
 22 28  1  0  0  0  0
 24 25  1  0  0  0  0
 26 27  1  0  0  0  0
 28 29  1  6  0  0  0
M  END
>  <CHROM.1>
177.29245498,-149.98170739,-103.92044655,-175.46429334,122.35685509,161.17160137
-4.21623324,-11.37246433,-16.37594280,0.10202964,-0.94225491,0.47496608

>  <Name>
ligand

>  <RI>
0

>  <Rbt.Current_Directory>
/home/itssahil/PROJECTS/Mol_Feturizer/New_Systems/rnas/4F8U

>  <Rbt.Executable>
rbdock ($Id: //depot/dev/client3/rdock/2013.1/src/exe/rbdock.cxx#4 $)

>  <Rbt.Library>
libRbt.so (2013.1, Build901 2013/11/27)

>  <Rbt.Parameter_File>
/export/apps/rDock/src/rDock_2013.1_src/data/scripts/dock_solv.prm

>  <Rbt.Receptor>
prm/pocket_docking_8.prm

>  <SCORE>
-14.0367

>  <SCORE.INTER>
-8.27284

>  <SCORE.INTER.CONST>
1

>  <SCORE.INTER.POLAR>
0

>  <SCORE.INTER.ROT>
6

>  <SCORE.INTER.SOLV>
14.5286

>  <SCORE.INTER.VDW>
-17.9581

>  <SCORE.INTER.norm>
-0.266866

>  <SCORE.INTRA>
-5.76388

>  <SCORE.INTRA.DIHEDRAL>
-10.728

>  <SCORE.INTRA.DIHEDRAL.0>
18.77

>  <SCORE.INTRA.POLAR>
0

>  <SCORE.INTRA.POLAR.0>
0

>  <SCORE.INTRA.REPUL>
0

>  <SCORE.INTRA.REPUL.0>
0

>  <SCORE.INTRA.SOLV>
-2.66776

>  <SCORE.INTRA.SOLV.lig_0>
-77.2465

>  <SCORE.INTRA.VDW>
0.934008

>  <SCORE.INTRA.VDW.0>
-4.16072

>  <SCORE.INTRA.norm>
-0.185932

>  <SCORE.RESTR>
0

>  <SCORE.RESTR.CAVITY>
0

>  <SCORE.RESTR.norm>
0

>  <SCORE.SYSTEM>
0

>  <SCORE.SYSTEM.CONST>
0

>  <SCORE.SYSTEM.DIHEDRAL>
0

>  <SCORE.SYSTEM.SOLV>
0

>  <SCORE.SYSTEM.norm>
0

>  <SCORE.heavy>
31

>  <SCORE.norm>
-0.452797

>  <RMSD>
8.396

$$$$
ligand
 OpenBabel11021811493D
libRbt.so/2013.1/901 2013/11/27
 31 33  0  0  0  0  0  0  0  0999 V2000
   -1.9954  -10.9862  -14.0691 C   0  0  2  0  0  0  0  0  0  0  0  0
   -1.7113  -11.9409  -15.1007 O   0  0  0  0  0  0  0  0  0  0  0  0
   -4.0483  -13.5067  -18.3272 C   0  0  2  0  0  0  0  0  0  0  0  0
   -5.0529  -14.2403  -19.0348 N   0  0  0  0  0  0  0  0  0  0  0  0
   -6.5854  -10.7706  -17.5216 C   0  0  2  0  0  0  0  0  0  0  0  0
   -0.6086  -10.4410  -13.5777 C   0  0  2  0  0  0  0  0  0  0  0  0
    0.1179   -9.8593  -14.7009 N   0  0  0  0  0  0  0  0  0  0  0  0
   -3.1521  -14.5209  -17.5171 C   0  0  0  0  0  0  0  0  0  0  0  0
   -7.6015  -10.5368  -18.6818 C   0  0  2  0  0  0  0  0  0  0  0  0
   -8.0891  -11.7904  -19.1283 O   0  0  0  0  0  0  0  0  0  0  0  0
    0.2176  -11.6032  -12.9246 C   0  0  0  0  0  0  0  0  0  0  0  0
   -2.0316  -13.7056  -16.7378 C   0  0  2  0  0  0  0  0  0  0  0  0
   -1.1839  -14.6484  -15.9713 N   0  0  0  0  0  0  0  0  0  0  0  0
   -6.8177   -9.7828  -19.8451 C   0  0  1  0  0  0  0  0  0  0  0  0
   -7.7186   -9.5455  -21.0239 N   0  0  0  0  0  0  0  0  0  0  0  0
   -0.6578  -12.4102  -11.9227 C   0  0  0  0  0  0  0  0  0  0  0  0
   -2.7221  -12.6587  -15.7549 C   0  0  2  0  0  0  0  0  0  0  0  0
   -6.2792   -8.3508  -19.2863 C   0  0  1  0  0  0  0  0  0  0  0  0
   -7.3371   -7.5152  -18.8578 O   0  0  0  0  0  0  0  0  0  0  0  0
   -1.9972  -12.3632  -11.9821 C   0  0  2  0  0  0  0  0  0  0  0  0
   -2.7183  -11.5800  -12.9493 O   0  0  0  0  0  0  0  0  0  0  0  0
   -3.6369  -11.6747  -16.5978 C   0  0  2  0  0  0  0  0  0  0  0  0
   -4.2833  -10.7427  -15.7217 O   0  0  0  0  0  0  0  0  0  0  0  0
   -5.3386   -8.5960  -18.0585 C   0  0  0  0  0  0  0  0  0  0  0  0
   -6.0525   -9.4512  -17.0251 O   0  0  0  0  0  0  0  0  0  0  0  0
   -2.8844  -13.1557  -10.9938 C   0  0  0  0  0  0  0  0  0  0  0  0
   -3.6541  -14.1535  -11.7235 N   0  0  0  0  0  0  0  0  0  0  0  0
   -4.7368  -12.4958  -17.3632 C   0  0  1  0  0  0  0  0  0  0  0  0
   -5.5228  -11.5913  -18.1015 O   0  0  0  0  0  0  0  0  0  0  0  0
   -5.4920   -7.4950  -20.2924 C   0  0  0  0  0  0  0  0  0  0  0  0
   -7.5684  -10.4743  -22.1601 C   0  0  0  0  0  0  0  0  0  0  0  0
  1  2  1  6  0  0  0
  1  6  1  0  0  0  0
  1 21  1  0  0  0  0
  3  4  1  1  0  0  0
  3  8  1  0  0  0  0
  3 28  1  0  0  0  0
  5  9  1  0  0  0  0
  5 25  1  0  0  0  0
  5 29  1  6  0  0  0
  6  7  1  6  0  0  0
  6 11  1  0  0  0  0
  8 12  1  0  0  0  0
  9 10  1  6  0  0  0
  9 14  1  0  0  0  0
 11 16  1  0  0  0  0
 12 13  1  1  0  0  0
 12 17  1  0  0  0  0
 14 15  1  6  0  0  0
 14 18  1  0  0  0  0
 15 31  1  0  0  0  0
 16 20  1  0  0  0  0
 17  2  1  6  0  0  0
 17 22  1  0  0  0  0
 18 19  1  1  0  0  0
 18 24  1  0  0  0  0
 18 30  1  0  0  0  0
 20 21  1  0  0  0  0
 20 26  1  1  0  0  0
 22 23  1  1  0  0  0
 22 28  1  0  0  0  0
 24 25  1  0  0  0  0
 26 27  1  0  0  0  0
 28 29  1  6  0  0  0
M  END
>  <CHROM.1>
178.53865230,-151.53418405,-100.86752282,-175.15668208,-115.89761691,161.82683267
-4.13963257,-11.34507303,-16.56415760,-0.14034903,-0.91425277,0.20336289

>  <Name>
ligand

>  <RI>
0

>  <Rbt.Current_Directory>
/home/itssahil/PROJECTS/Mol_Feturizer/New_Systems/rnas/4F8U

>  <Rbt.Executable>
rbdock ($Id: //depot/dev/client3/rdock/2013.1/src/exe/rbdock.cxx#4 $)

>  <Rbt.Library>
libRbt.so (2013.1, Build901 2013/11/27)

>  <Rbt.Parameter_File>
/export/apps/rDock/src/rDock_2013.1_src/data/scripts/dock_solv.prm

>  <Rbt.Receptor>
prm/pocket_docking_7.prm

>  <SCORE>
-14.0753

>  <SCORE.INTER>
-8.21311

>  <SCORE.INTER.CONST>
1

>  <SCORE.INTER.POLAR>
0

>  <SCORE.INTER.ROT>
6

>  <SCORE.INTER.SOLV>
13.1546

>  <SCORE.INTER.VDW>
-17.4603

>  <SCORE.INTER.norm>
-0.264939

>  <SCORE.INTRA>
-5.8622

>  <SCORE.INTRA.DIHEDRAL>
-11.1952

>  <SCORE.INTRA.DIHEDRAL.0>
18.77

>  <SCORE.INTRA.POLAR>
0

>  <SCORE.INTRA.POLAR.0>
0

>  <SCORE.INTRA.REPUL>
0

>  <SCORE.INTRA.REPUL.0>
0

>  <SCORE.INTRA.SOLV>
-2.49634

>  <SCORE.INTRA.SOLV.lig_0>
-77.2465

>  <SCORE.INTRA.VDW>
0.983554

>  <SCORE.INTRA.VDW.0>
-4.16072

>  <SCORE.INTRA.norm>
-0.189103

>  <SCORE.RESTR>
0

>  <SCORE.RESTR.CAVITY>
0

>  <SCORE.RESTR.norm>
0

>  <SCORE.SYSTEM>
0

>  <SCORE.SYSTEM.CONST>
0

>  <SCORE.SYSTEM.DIHEDRAL>
0

>  <SCORE.SYSTEM.SOLV>
0

>  <SCORE.SYSTEM.norm>
0

>  <SCORE.heavy>
31

>  <SCORE.norm>
-0.454042

>  <RMSD>
8.397

$$$$
ligand
 OpenBabel11021811493D
libRbt.so/2013.1/901 2013/11/27
 31 33  0  0  0  0  0  0  0  0999 V2000
   -5.1569  -12.7280  -12.5916 C   0  0  2  0  0  0  0  0  0  0  0  0
   -4.7380  -11.4494  -13.0877 O   0  0  0  0  0  0  0  0  0  0  0  0
   -3.7654   -9.6894  -16.8666 C   0  0  2  0  0  0  0  0  0  0  0  0
   -3.1511   -9.4856  -18.1430 N   0  0  0  0  0  0  0  0  0  0  0  0
   -6.7957  -10.2834  -17.7287 C   0  0  2  0  0  0  0  0  0  0  0  0
   -5.8374  -12.4616  -11.2031 C   0  0  2  0  0  0  0  0  0  0  0  0
   -6.9469  -11.5292  -11.3692 N   0  0  0  0  0  0  0  0  0  0  0  0
   -2.6444   -9.6993  -15.7570 C   0  0  0  0  0  0  0  0  0  0  0  0
   -7.6134  -10.6320  -19.0105 C   0  0  2  0  0  0  0  0  0  0  0  0
   -7.8218  -12.0332  -19.0584 O   0  0  0  0  0  0  0  0  0  0  0  0
   -4.7803  -11.8919  -10.1942 C   0  0  0  0  0  0  0  0  0  0  0  0
   -3.3288   -9.9178  -14.3388 C   0  0  2  0  0  0  0  0  0  0  0  0
   -2.2845   -9.9305  -13.2879 N   0  0  0  0  0  0  0  0  0  0  0  0
   -6.7571  -10.1401  -20.2599 C   0  0  1  0  0  0  0  0  0  0  0  0
   -7.4600  -10.4684  -21.5465 N   0  0  0  0  0  0  0  0  0  0  0  0
   -3.4722  -12.7340  -10.2281 C   0  0  0  0  0  0  0  0  0  0  0  0
   -4.1281  -11.2961  -14.3405 C   0  0  2  0  0  0  0  0  0  0  0  0
   -6.5457   -8.5280  -20.1618 C   0  0  1  0  0  0  0  0  0  0  0  0
   -7.7753   -7.8287  -20.1708 O   0  0  0  0  0  0  0  0  0  0  0  0
   -3.1836  -13.5201  -11.2762 C   0  0  2  0  0  0  0  0  0  0  0  0
   -4.0387  -13.6506  -12.4253 O   0  0  0  0  0  0  0  0  0  0  0  0
   -5.2255  -11.2630  -15.4852 C   0  0  2  0  0  0  0  0  0  0  0  0
   -5.9356  -12.5075  -15.5131 O   0  0  0  0  0  0  0  0  0  0  0  0
   -5.8117   -8.1838  -18.8221 C   0  0  0  0  0  0  0  0  0  0  0  0
   -6.5618   -8.7965  -17.6513 O   0  0  0  0  0  0  0  0  0  0  0  0
   -1.8902  -14.3665  -11.3273 C   0  0  0  0  0  0  0  0  0  0  0  0
   -2.1897  -15.6799  -11.8802 N   0  0  0  0  0  0  0  0  0  0  0  0
   -4.5335  -11.0442  -16.8791 C   0  0  1  0  0  0  0  0  0  0  0  0
   -5.5369  -11.0153  -17.8656 O   0  0  0  0  0  0  0  0  0  0  0  0
   -5.7291   -7.8916  -21.2987 C   0  0  0  0  0  0  0  0  0  0  0  0
   -7.1663  -11.7891  -22.1345 C   0  0  0  0  0  0  0  0  0  0  0  0
  1  2  1  1  0  0  0
  1  6  1  0  0  0  0
  1 21  1  0  0  0  0
  3  4  1  6  0  0  0
  3  8  1  0  0  0  0
  3 28  1  0  0  0  0
  5  9  1  0  0  0  0
  5 25  1  0  0  0  0
  5 29  1  6  0  0  0
  6  7  1  6  0  0  0
  6 11  1  0  0  0  0
  8 12  1  0  0  0  0
  9 10  1  6  0  0  0
  9 14  1  0  0  0  0
 11 16  1  0  0  0  0
 12 13  1  1  0  0  0
 12 17  1  0  0  0  0
 14 15  1  6  0  0  0
 14 18  1  0  0  0  0
 15 31  1  0  0  0  0
 16 20  1  0  0  0  0
 17  2  1  1  0  0  0
 17 22  1  0  0  0  0
 18 19  1  1  0  0  0
 18 24  1  0  0  0  0
 18 30  1  0  0  0  0
 20 21  1  0  0  0  0
 20 26  1  1  0  0  0
 22 23  1  6  0  0  0
 22 28  1  0  0  0  0
 24 25  1  0  0  0  0
 26 27  1  0  0  0  0
 28 29  1  6  0  0  0
M  END
>  <CHROM.1>
-177.67078086,-175.99100742,-89.08450445,-159.18501945,139.02431317,-75.06706394
-5.15207867,-11.04866899,-15.90685965,1.15799146,0.71035193,2.21959998

>  <Name>
ligand

>  <RI>
0

>  <Rbt.Current_Directory>
/home/itssahil/PROJECTS/Mol_Feturizer/New_Systems/rnas/4F8U

>  <Rbt.Executable>
rbdock ($Id: //depot/dev/client3/rdock/2013.1/src/exe/rbdock.cxx#4 $)

>  <Rbt.Library>
libRbt.so (2013.1, Build901 2013/11/27)

>  <Rbt.Parameter_File>
/export/apps/rDock/src/rDock_2013.1_src/data/scripts/dock_solv.prm

>  <Rbt.Receptor>
prm/pocket_docking_4.prm

>  <SCORE>
-16.5675

>  <SCORE.INTER>
-11.0959

>  <SCORE.INTER.CONST>
1

>  <SCORE.INTER.POLAR>
0

>  <SCORE.INTER.ROT>
6

>  <SCORE.INTER.SOLV>
19.2363

>  <SCORE.INTER.VDW>
-21.4094

>  <SCORE.INTER.norm>
-0.357933

>  <SCORE.INTRA>
-5.4716

>  <SCORE.INTRA.DIHEDRAL>
-12.9747

>  <SCORE.INTRA.DIHEDRAL.0>
18.77

>  <SCORE.INTRA.POLAR>
0

>  <SCORE.INTRA.POLAR.0>
0

>  <SCORE.INTRA.REPUL>
0

>  <SCORE.INTRA.REPUL.0>
0

>  <SCORE.INTRA.SOLV>
0.0287067

>  <SCORE.INTRA.SOLV.lig_0>
-77.2465

>  <SCORE.INTRA.VDW>
1.00141

>  <SCORE.INTRA.VDW.0>
-4.16072

>  <SCORE.INTRA.norm>
-0.176503

>  <SCORE.RESTR>
0

>  <SCORE.RESTR.CAVITY>
0

>  <SCORE.RESTR.norm>
0

>  <SCORE.SYSTEM>
0

>  <SCORE.SYSTEM.CONST>
0

>  <SCORE.SYSTEM.DIHEDRAL>
0

>  <SCORE.SYSTEM.SOLV>
0

>  <SCORE.SYSTEM.norm>
0

>  <SCORE.heavy>
31

>  <SCORE.norm>
-0.534436

>  <RMSD>
8.401

$$$$
ligand
 OpenBabel11021811493D
libRbt.so/2013.1/901 2013/11/27
 31 33  0  0  0  0  0  0  0  0999 V2000
   -3.9273  -10.6224  -13.0259 C   0  0  2  0  0  0  0  0  0  0  0  0
   -3.8038  -11.9296  -13.6027 O   0  0  0  0  0  0  0  0  0  0  0  0
   -5.6757  -13.7043  -17.0188 C   0  0  2  0  0  0  0  0  0  0  0  0
   -6.6716  -14.3045  -17.8531 N   0  0  0  0  0  0  0  0  0  0  0  0
   -7.2998  -10.3809  -17.8068 C   0  0  2  0  0  0  0  0  0  0  0  0
   -2.6787  -10.4306  -12.0952 C   0  0  2  0  0  0  0  0  0  0  0  0
   -1.4553  -10.5912  -12.8732 N   0  0  0  0  0  0  0  0  0  0  0  0
   -5.4529  -14.6182  -15.7526 C   0  0  0  0  0  0  0  0  0  0  0  0
   -7.7573  -10.3411  -19.2976 C   0  0  2  0  0  0  0  0  0  0  0  0
   -8.3498  -11.5844  -19.6320 O   0  0  0  0  0  0  0  0  0  0  0  0
   -2.7286  -11.4673  -10.9193 C   0  0  0  0  0  0  0  0  0  0  0  0
   -4.3408  -13.9546  -14.8306 C   0  0  2  0  0  0  0  0  0  0  0  0
   -4.1240  -14.8041  -13.6363 N   0  0  0  0  0  0  0  0  0  0  0  0
   -6.4580  -10.0734  -20.1786 C   0  0  1  0  0  0  0  0  0  0  0  0
   -6.8040  -10.0526  -21.6405 N   0  0  0  0  0  0  0  0  0  0  0  0
   -4.1409  -11.4971  -10.2667 C   0  0  0  0  0  0  0  0  0  0  0  0
   -4.8125  -12.4967  -14.3937 C   0  0  2  0  0  0  0  0  0  0  0  0
   -5.8150   -8.6366  -19.7604 C   0  0  1  0  0  0  0  0  0  0  0  0
   -6.7167   -7.5679  -19.9738 O   0  0  0  0  0  0  0  0  0  0  0  0
   -5.2148  -11.0309  -10.9218 C   0  0  2  0  0  0  0  0  0  0  0  0
   -5.1522  -10.4748  -12.2468 O   0  0  0  0  0  0  0  0  0  0  0  0
   -5.0551  -11.6151  -15.6897 C   0  0  2  0  0  0  0  0  0  0  0  0
   -5.5036  -10.3078  -15.3106 O   0  0  0  0  0  0  0  0  0  0  0  0
   -5.4521   -8.6568  -18.2372 C   0  0  0  0  0  0  0  0  0  0  0  0
   -6.6676   -9.0676  -17.4232 O   0  0  0  0  0  0  0  0  0  0  0  0
   -6.6259  -11.0494  -10.2892 C   0  0  0  0  0  0  0  0  0  0  0  0
   -7.4149  -12.1151  -10.8910 N   0  0  0  0  0  0  0  0  0  0  0  0
   -6.1544  -12.2855  -16.5907 C   0  0  1  0  0  0  0  0  0  0  0  0
   -6.3373  -11.4793  -17.7298 O   0  0  0  0  0  0  0  0  0  0  0  0
   -4.5424   -8.2282  -20.5208 C   0  0  0  0  0  0  0  0  0  0  0  0
   -7.1139  -11.3557  -22.2586 C   0  0  0  0  0  0  0  0  0  0  0  0
  1  2  1  1  0  0  0
  1  6  1  0  0  0  0
  1 21  1  0  0  0  0
  3  4  1  6  0  0  0
  3  8  1  0  0  0  0
  3 28  1  0  0  0  0
  5  9  1  0  0  0  0
  5 25  1  0  0  0  0
  5 29  1  6  0  0  0
  6  7  1  6  0  0  0
  6 11  1  0  0  0  0
  8 12  1  0  0  0  0
  9 10  1  6  0  0  0
  9 14  1  0  0  0  0
 11 16  1  0  0  0  0
 12 13  1  1  0  0  0
 12 17  1  0  0  0  0
 14 15  1  6  0  0  0
 14 18  1  0  0  0  0
 15 31  1  0  0  0  0
 16 20  1  0  0  0  0
 17  2  1  1  0  0  0
 17 22  1  0  0  0  0
 18 19  1  6  0  0  0
 18 24  1  0  0  0  0
 18 30  1  0  0  0  0
 20 21  1  0  0  0  0
 20 26  1  1  0  0  0
 22 23  1  1  0  0  0
 22 28  1  0  0  0  0
 24 25  1  0  0  0  0
 26 27  1  0  0  0  0
 28 29  1  6  0  0  0
M  END
>  <CHROM.1>
173.73144283,-148.10047224,-73.03670254,-178.87402717,-104.84402823,151.00921499
-5.51276509,-11.15416404,-15.92802799,-0.75964635,-1.19627641,-0.59838587

>  <Name>
ligand

>  <RI>
0

>  <Rbt.Current_Directory>
/home/itssahil/PROJECTS/Mol_Feturizer/New_Systems/rnas/4F8U

>  <Rbt.Executable>
rbdock ($Id: //depot/dev/client3/rdock/2013.1/src/exe/rbdock.cxx#4 $)

>  <Rbt.Library>
libRbt.so (2013.1, Build901 2013/11/27)

>  <Rbt.Parameter_File>
/export/apps/rDock/src/rDock_2013.1_src/data/scripts/dock_solv.prm

>  <Rbt.Receptor>
prm/pocket_docking_4.prm

>  <SCORE>
-11.8122

>  <SCORE.INTER>
-7.60701

>  <SCORE.INTER.CONST>
1

>  <SCORE.INTER.POLAR>
0

>  <SCORE.INTER.ROT>
6

>  <SCORE.INTER.SOLV>
13.5821

>  <SCORE.INTER.VDW>
-17.1987

>  <SCORE.INTER.norm>
-0.245387

>  <SCORE.INTRA>
-4.20522

>  <SCORE.INTRA.DIHEDRAL>
-9.10306

>  <SCORE.INTRA.DIHEDRAL.0>
18.77

>  <SCORE.INTRA.POLAR>
0

>  <SCORE.INTRA.POLAR.0>
0

>  <SCORE.INTRA.REPUL>
0

>  <SCORE.INTRA.REPUL.0>
0

>  <SCORE.INTRA.SOLV>
-2.19929

>  <SCORE.INTRA.SOLV.lig_0>
-77.2465

>  <SCORE.INTRA.VDW>
1.44595

>  <SCORE.INTRA.VDW.0>
-4.16072

>  <SCORE.INTRA.norm>
-0.135652

>  <SCORE.RESTR>
0

>  <SCORE.RESTR.CAVITY>
0

>  <SCORE.RESTR.norm>
0

>  <SCORE.SYSTEM>
0

>  <SCORE.SYSTEM.CONST>
0

>  <SCORE.SYSTEM.DIHEDRAL>
0

>  <SCORE.SYSTEM.SOLV>
0

>  <SCORE.SYSTEM.norm>
0

>  <SCORE.heavy>
31

>  <SCORE.norm>
-0.38104

>  <RMSD>
8.417

$$$$
ligand
 OpenBabel11021811493D
libRbt.so/2013.1/901 2013/11/27
 31 33  0  0  0  0  0  0  0  0999 V2000
   -1.4519   -9.8362  -15.7406 C   0  0  2  0  0  0  0  0  0  0  0  0
   -1.3563  -11.0627  -16.4776 O   0  0  0  0  0  0  0  0  0  0  0  0
   -4.2369  -13.1885  -18.8242 C   0  0  2  0  0  0  0  0  0  0  0  0
   -5.3633  -14.0017  -19.1676 N   0  0  0  0  0  0  0  0  0  0  0  0
   -6.7719  -10.4664  -18.3255 C   0  0  2  0  0  0  0  0  0  0  0  0
    0.0079   -9.2714  -15.6316 C   0  0  2  0  0  0  0  0  0  0  0  0
    0.5650   -9.0857  -16.9669 N   0  0  0  0  0  0  0  0  0  0  0  0
   -3.2430  -14.0396  -17.9434 C   0  0  0  0  0  0  0  0  0  0  0  0
   -7.6693  -10.1957  -19.5723 C   0  0  2  0  0  0  0  0  0  0  0  0
   -8.0299  -11.4344  -20.1593 O   0  0  0  0  0  0  0  0  0  0  0  0
    0.8960  -10.2538  -14.7915 C   0  0  0  0  0  0  0  0  0  0  0  0
   -1.9886  -13.1376  -17.5692 C   0  0  2  0  0  0  0  0  0  0  0  0
   -1.0480  -13.9267  -16.7398 N   0  0  0  0  0  0  0  0  0  0  0  0
   -6.8113   -9.3140  -20.5836 C   0  0  1  0  0  0  0  0  0  0  0  0
   -7.5926   -9.0325  -21.8356 N   0  0  0  0  0  0  0  0  0  0  0  0
    0.1671  -10.6790  -13.4840 C   0  0  0  0  0  0  0  0  0  0  0  0
   -2.4793  -11.8478  -16.7728 C   0  0  2  0  0  0  0  0  0  0  0  0
   -6.4230   -7.9039  -19.8667 C   0  0  1  0  0  0  0  0  0  0  0  0
   -7.5690   -7.1600  -19.5005 O   0  0  0  0  0  0  0  0  0  0  0  0
   -1.1635  -10.5579  -13.3641 C   0  0  2  0  0  0  0  0  0  0  0  0
   -2.0064  -10.0346  -14.4055 O   0  0  0  0  0  0  0  0  0  0  0  0
   -3.4978  -11.0324  -17.6748 C   0  0  2  0  0  0  0  0  0  0  0  0
   -3.9658   -9.8818  -16.9598 O   0  0  0  0  0  0  0  0  0  0  0  0
   -5.6071   -8.1951  -18.5622 C   0  0  0  0  0  0  0  0  0  0  0  0
   -6.3755   -9.1639  -17.6792 O   0  0  0  0  0  0  0  0  0  0  0  0
   -1.9057  -10.9723  -12.0721 C   0  0  0  0  0  0  0  0  0  0  0  0
   -2.7405  -12.1345  -12.3421 N   0  0  0  0  0  0  0  0  0  0  0  0
   -4.7298  -11.9380  -18.0375 C   0  0  1  0  0  0  0  0  0  0  0  0
   -5.6058  -11.1835  -18.8402 O   0  0  0  0  0  0  0  0  0  0  0  0
   -5.5846   -6.9329  -20.7145 C   0  0  0  0  0  0  0  0  0  0  0  0
   -7.5261  -10.0585  -22.8935 C   0  0  0  0  0  0  0  0  0  0  0  0
  1  2  1  1  0  0  0
  1  6  1  0  0  0  0
  1 21  1  0  0  0  0
  3  4  1  1  0  0  0
  3  8  1  0  0  0  0
  3 28  1  0  0  0  0
  5  9  1  0  0  0  0
  5 25  1  0  0  0  0
  5 29  1  6  0  0  0
  6  7  1  6  0  0  0
  6 11  1  0  0  0  0
  8 12  1  0  0  0  0
  9 10  1  6  0  0  0
  9 14  1  0  0  0  0
 11 16  1  0  0  0  0
 12 13  1  1  0  0  0
 12 17  1  0  0  0  0
 14 15  1  6  0  0  0
 14 18  1  0  0  0  0
 15 31  1  0  0  0  0
 16 20  1  0  0  0  0
 17  2  1  6  0  0  0
 17 22  1  0  0  0  0
 18 19  1  1  0  0  0
 18 24  1  0  0  0  0
 18 30  1  0  0  0  0
 20 21  1  0  0  0  0
 20 26  1  1  0  0  0
 22 23  1  1  0  0  0
 22 28  1  0  0  0  0
 24 25  1  0  0  0  0
 26 27  1  0  0  0  0
 28 29  1  6  0  0  0
M  END
>  <CHROM.1>
-179.79673451,-161.78207402,-85.75818050,-178.80652129,-112.30459406,144.37343870
-3.94657069,-10.55183403,-17.54875693,-0.10341637,-0.76968546,0.10646736

>  <Name>
ligand

>  <RI>
0

>  <Rbt.Current_Directory>
/home/itssahil/PROJECTS/Mol_Feturizer/New_Systems/rnas/4F8U

>  <Rbt.Executable>
rbdock ($Id: //depot/dev/client3/rdock/2013.1/src/exe/rbdock.cxx#4 $)

>  <Rbt.Library>
libRbt.so (2013.1, Build901 2013/11/27)

>  <Rbt.Parameter_File>
/export/apps/rDock/src/rDock_2013.1_src/data/scripts/dock_solv.prm

>  <Rbt.Receptor>
prm/pocket_docking_5.prm

>  <SCORE>
-15.0629

>  <SCORE.INTER>
-10.0543

>  <SCORE.INTER.CONST>
1

>  <SCORE.INTER.POLAR>
0

>  <SCORE.INTER.ROT>
6

>  <SCORE.INTER.SOLV>
13.3383

>  <SCORE.INTER.VDW>
-18.749

>  <SCORE.INTER.norm>
-0.324332

>  <SCORE.INTRA>
-5.00858

>  <SCORE.INTRA.DIHEDRAL>
-10.3744

>  <SCORE.INTRA.DIHEDRAL.0>
18.77

>  <SCORE.INTRA.POLAR>
0

>  <SCORE.INTRA.POLAR.0>
0

>  <SCORE.INTRA.REPUL>
0

>  <SCORE.INTRA.REPUL.0>
0

>  <SCORE.INTRA.SOLV>
-2.34765

>  <SCORE.INTRA.SOLV.lig_0>
-77.2465

>  <SCORE.INTRA.VDW>
1.35245

>  <SCORE.INTRA.VDW.0>
-4.16072

>  <SCORE.INTRA.norm>
-0.161567

>  <SCORE.RESTR>
0

>  <SCORE.RESTR.CAVITY>
0

>  <SCORE.RESTR.norm>
0

>  <SCORE.SYSTEM>
0

>  <SCORE.SYSTEM.CONST>
0

>  <SCORE.SYSTEM.DIHEDRAL>
0

>  <SCORE.SYSTEM.SOLV>
0

>  <SCORE.SYSTEM.norm>
0

>  <SCORE.heavy>
31

>  <SCORE.norm>
-0.4859

>  <RMSD>
8.417

$$$$
ligand
 OpenBabel11021811493D
libRbt.so/2013.1/901 2013/11/27
 31 33  0  0  0  0  0  0  0  0999 V2000
   -5.1194  -13.3811  -11.7862 C   0  0  2  0  0  0  0  0  0  0  0  0
   -5.2162  -12.7498  -13.0701 O   0  0  0  0  0  0  0  0  0  0  0  0
   -8.1659  -12.9209  -16.1674 C   0  0  2  0  0  0  0  0  0  0  0  0
   -9.4090  -12.7614  -16.8583 N   0  0  0  0  0  0  0  0  0  0  0  0
   -7.0939  -11.3156  -18.2427 C   0  0  2  0  0  0  0  0  0  0  0  0
   -5.3493  -12.2526  -10.7206 C   0  0  2  0  0  0  0  0  0  0  0  0
   -6.6456  -11.6217  -10.9433 N   0  0  0  0  0  0  0  0  0  0  0  0
   -8.4065  -13.8031  -14.8822 C   0  0  0  0  0  0  0  0  0  0  0  0
   -5.5514  -11.1562  -18.4119 C   0  0  2  0  0  0  0  0  0  0  0  0
   -4.8973  -11.8609  -17.3705 O   0  0  0  0  0  0  0  0  0  0  0  0
   -4.1948  -11.1948  -10.8098 C   0  0  0  0  0  0  0  0  0  0  0  0
   -7.0235  -13.9862  -14.1198 C   0  0  2  0  0  0  0  0  0  0  0  0
   -7.2375  -14.8125  -12.9088 N   0  0  0  0  0  0  0  0  0  0  0  0
   -5.2309   -9.5981  -18.3348 C   0  0  1  0  0  0  0  0  0  0  0  0
   -3.7534   -9.3543  -18.4563 N   0  0  0  0  0  0  0  0  0  0  0  0
   -2.8055  -11.8940  -10.8597 C   0  0  0  0  0  0  0  0  0  0  0  0
   -6.4439  -12.5572  -13.7186 C   0  0  2  0  0  0  0  0  0  0  0  0
   -6.0012   -8.8331  -19.5490 C   0  0  1  0  0  0  0  0  0  0  0  0
   -5.5908   -9.3024  -20.8187 O   0  0  0  0  0  0  0  0  0  0  0  0
   -2.6926  -13.1819  -11.2178 C   0  0  2  0  0  0  0  0  0  0  0  0
   -3.8176  -14.0049  -11.5728 O   0  0  0  0  0  0  0  0  0  0  0  0
   -6.2422  -11.6877  -15.0296 C   0  0  2  0  0  0  0  0  0  0  0  0
   -5.7439  -10.3903  -14.6798 O   0  0  0  0  0  0  0  0  0  0  0  0
   -7.5417   -9.0846  -19.4233 C   0  0  0  0  0  0  0  0  0  0  0  0
   -7.8151  -10.5770  -19.3407 O   0  0  0  0  0  0  0  0  0  0  0  0
   -1.3214  -13.8951  -11.2709 C   0  0  0  0  0  0  0  0  0  0  0  0
   -1.0100  -14.2490  -12.6486 N   0  0  0  0  0  0  0  0  0  0  0  0
   -7.6169  -11.5182  -15.7720 C   0  0  1  0  0  0  0  0  0  0  0  0
   -7.3966  -10.7479  -16.9293 O   0  0  0  0  0  0  0  0  0  0  0  0
   -5.7977   -7.3103  -19.6138 C   0  0  0  0  0  0  0  0  0  0  0  0
   -2.9632   -9.4918  -17.2182 C   0  0  0  0  0  0  0  0  0  0  0  0
  1  2  1  6  0  0  0
  1  6  1  0  0  0  0
  1 21  1  0  0  0  0
  3  4  1  1  0  0  0
  3  8  1  0  0  0  0
  3 28  1  0  0  0  0
  5  9  1  0  0  0  0
  5 25  1  0  0  0  0
  5 29  1  1  0  0  0
  6  7  1  6  0  0  0
  6 11  1  0  0  0  0
  8 12  1  0  0  0  0
  9 10  1  1  0  0  0
  9 14  1  0  0  0  0
 11 16  1  0  0  0  0
 12 13  1  1  0  0  0
 12 17  1  0  0  0  0
 14 15  1  6  0  0  0
 14 18  1  0  0  0  0
 15 31  1  0  0  0  0
 16 20  1  0  0  0  0
 17  2  1  6  0  0  0
 17 22  1  0  0  0  0
 18 19  1  6  0  0  0
 18 24  1  0  0  0  0
 18 30  1  0  0  0  0
 20 21  1  0  0  0  0
 20 26  1  1  0  0  0
 22 23  1  1  0  0  0
 22 28  1  0  0  0  0
 24 25  1  0  0  0  0
 26 27  1  0  0  0  0
 28 29  1  6  0  0  0
M  END
>  <CHROM.1>
-85.52847257,-101.04331500,-83.19963393,-67.20636170,-114.15701898,-27.19887083
-5.60280166,-11.63774717,-15.28630603,1.28049805,0.32085876,2.09480267

>  <Name>
ligand

>  <RI>
0

>  <Rbt.Current_Directory>
/home/itssahil/PROJECTS/Mol_Feturizer/New_Systems/rnas/4F8U

>  <Rbt.Executable>
rbdock ($Id: //depot/dev/client3/rdock/2013.1/src/exe/rbdock.cxx#4 $)

>  <Rbt.Library>
libRbt.so (2013.1, Build901 2013/11/27)

>  <Rbt.Parameter_File>
/export/apps/rDock/src/rDock_2013.1_src/data/scripts/dock_solv.prm

>  <Rbt.Receptor>
prm/pocket_docking_4.prm

>  <SCORE>
-4.45184

>  <SCORE.INTER>
-5.90251

>  <SCORE.INTER.CONST>
1

>  <SCORE.INTER.POLAR>
0

>  <SCORE.INTER.ROT>
6

>  <SCORE.INTER.SOLV>
11.1772

>  <SCORE.INTER.VDW>
-15.2607

>  <SCORE.INTER.norm>
-0.190403

>  <SCORE.INTRA>
1.40698

>  <SCORE.INTRA.DIHEDRAL>
-3.94328

>  <SCORE.INTRA.DIHEDRAL.0>
18.77

>  <SCORE.INTRA.POLAR>
0

>  <SCORE.INTRA.POLAR.0>
0

>  <SCORE.INTRA.REPUL>
0

>  <SCORE.INTRA.REPUL.0>
0

>  <SCORE.INTRA.SOLV>
2.32073

>  <SCORE.INTRA.SOLV.lig_0>
-77.2465

>  <SCORE.INTRA.VDW>
2.21825

>  <SCORE.INTRA.VDW.0>
-4.16072

>  <SCORE.INTRA.norm>
0.0453863

>  <SCORE.RESTR>
0.0436914

>  <SCORE.RESTR.CAVITY>
0.0436914

>  <SCORE.RESTR.norm>
0.0014094

>  <SCORE.SYSTEM>
0

>  <SCORE.SYSTEM.CONST>
0

>  <SCORE.SYSTEM.DIHEDRAL>
0

>  <SCORE.SYSTEM.SOLV>
0

>  <SCORE.SYSTEM.norm>
0

>  <SCORE.heavy>
31

>  <SCORE.norm>
-0.143608

>  <RMSD>
8.418

$$$$
ligand
 OpenBabel11021811493D
libRbt.so/2013.1/901 2013/11/27
 31 33  0  0  0  0  0  0  0  0999 V2000
   -2.0415  -11.1854  -13.9484 C   0  0  2  0  0  0  0  0  0  0  0  0
   -1.8002  -12.1878  -14.9451 O   0  0  0  0  0  0  0  0  0  0  0  0
   -4.1964  -13.7181  -18.1452 C   0  0  2  0  0  0  0  0  0  0  0  0
   -5.2330  -14.4184  -18.8401 N   0  0  0  0  0  0  0  0  0  0  0  0
   -6.5288  -10.7729  -17.4141 C   0  0  2  0  0  0  0  0  0  0  0  0
   -0.6317  -10.6979  -13.4619 C   0  0  2  0  0  0  0  0  0  0  0  0
    0.1335  -10.1933  -14.5966 N   0  0  0  0  0  0  0  0  0  0  0  0
   -3.3567  -14.7544  -17.3033 C   0  0  0  0  0  0  0  0  0  0  0  0
   -7.5720  -10.5196  -18.5458 C   0  0  2  0  0  0  0  0  0  0  0  0
   -8.1922  -11.7479  -18.8855 O   0  0  0  0  0  0  0  0  0  0  0  0
    0.1265  -11.8795  -12.7627 C   0  0  0  0  0  0  0  0  0  0  0  0
   -2.2006  -13.9764  -16.5381 C   0  0  2  0  0  0  0  0  0  0  0  0
   -1.4055  -14.9403  -15.7419 N   0  0  0  0  0  0  0  0  0  0  0  0
   -6.7774   -9.9193  -19.7886 C   0  0  1  0  0  0  0  0  0  0  0  0
   -7.7066   -9.6746  -20.9436 N   0  0  0  0  0  0  0  0  0  0  0  0
   -0.7985  -12.6051  -11.7432 C   0  0  0  0  0  0  0  0  0  0  0  0
   -2.8425  -12.8707  -15.5871 C   0  0  2  0  0  0  0  0  0  0  0  0
   -6.0851   -8.5114  -19.3511 C   0  0  1  0  0  0  0  0  0  0  0  0
   -7.0412   -7.5540  -18.9386 O   0  0  0  0  0  0  0  0  0  0  0  0
   -2.1330  -12.4896  -11.8171 C   0  0  2  0  0  0  0  0  0  0  0  0
   -2.8038  -11.7023  -12.8167 O   0  0  0  0  0  0  0  0  0  0  0  0
   -3.7022  -11.8644  -16.4611 C   0  0  2  0  0  0  0  0  0  0  0  0
   -4.3053  -10.8785  -15.6137 O   0  0  0  0  0  0  0  0  0  0  0  0
   -5.1148   -8.7645  -18.1483 C   0  0  0  0  0  0  0  0  0  0  0  0
   -5.8551   -9.4803  -17.0310 O   0  0  0  0  0  0  0  0  0  0  0  0
   -3.0687  -13.2006  -10.8119 C   0  0  0  0  0  0  0  0  0  0  0  0
   -3.8928  -12.2117  -10.1311 N   0  0  0  0  0  0  0  0  0  0  0  0
   -4.8381  -12.6489  -17.2122 C   0  0  1  0  0  0  0  0  0  0  0  0
   -5.5736  -11.7257  -17.9787 O   0  0  0  0  0  0  0  0  0  0  0  0
   -5.2705   -7.8002  -20.4443 C   0  0  0  0  0  0  0  0  0  0  0  0
   -7.5710  -10.5842  -22.0970 C   0  0  0  0  0  0  0  0  0  0  0  0
  1  2  1  6  0  0  0
  1  6  1  0  0  0  0
  1 21  1  0  0  0  0
  3  4  1  1  0  0  0
  3  8  1  0  0  0  0
  3 28  1  0  0  0  0
  5  9  1  0  0  0  0
  5 25  1  0  0  0  0
  5 29  1  6  0  0  0
  6  7  1  6  0  0  0
  6 11  1  0  0  0  0
  8 12  1  0  0  0  0
  9 10  1  6  0  0  0
  9 14  1  0  0  0  0
 11 16  1  0  0  0  0
 12 13  1  1  0  0  0
 12 17  1  0  0  0  0
 14 15  1  6  0  0  0
 14 18  1  0  0  0  0
 15 31  1  0  0  0  0
 16 20  1  0  0  0  0
 17  2  1  6  0  0  0
 17 22  1  0  0  0  0
 18 19  1  1  0  0  0
 18 24  1  0  0  0  0
 18 30  1  0  0  0  0
 20 21  1  0  0  0  0
 20 26  1  1  0  0  0
 22 23  1  1  0  0  0
 22 28  1  0  0  0  0
 24 25  1  0  0  0  0
 26 27  1  0  0  0  0
 28 29  1  6  0  0  0
M  END
>  <CHROM.1>
178.68264805,-151.66815442,-108.56895571,-175.69366321,121.59407010,166.29788701
-4.17420612,-11.43703078,-16.40727566,0.03343255,-0.95952702,0.38465993

>  <Name>
ligand

>  <RI>
0

>  <Rbt.Current_Directory>
/home/itssahil/PROJECTS/Mol_Feturizer/New_Systems/rnas/4F8U

>  <Rbt.Executable>
rbdock ($Id: //depot/dev/client3/rdock/2013.1/src/exe/rbdock.cxx#4 $)

>  <Rbt.Library>
libRbt.so (2013.1, Build901 2013/11/27)

>  <Rbt.Parameter_File>
/export/apps/rDock/src/rDock_2013.1_src/data/scripts/dock_solv.prm

>  <Rbt.Receptor>
prm/pocket_docking_5.prm

>  <SCORE>
-14.0786

>  <SCORE.INTER>
-8.03935

>  <SCORE.INTER.CONST>
1

>  <SCORE.INTER.POLAR>
0

>  <SCORE.INTER.ROT>
6

>  <SCORE.INTER.SOLV>
13.9889

>  <SCORE.INTER.VDW>
-17.6225

>  <SCORE.INTER.norm>
-0.259334

>  <SCORE.INTRA>
-6.03929

>  <SCORE.INTRA.DIHEDRAL>
-11.7151

>  <SCORE.INTRA.DIHEDRAL.0>
18.77

>  <SCORE.INTRA.POLAR>
0

>  <SCORE.INTRA.POLAR.0>
0

>  <SCORE.INTRA.REPUL>
0

>  <SCORE.INTRA.REPUL.0>
0

>  <SCORE.INTRA.SOLV>
-2.82949

>  <SCORE.INTRA.SOLV.lig_0>
-77.2465

>  <SCORE.INTRA.VDW>
1.23299

>  <SCORE.INTRA.VDW.0>
-4.16072

>  <SCORE.INTRA.norm>
-0.194816

>  <SCORE.RESTR>
0

>  <SCORE.RESTR.CAVITY>
0

>  <SCORE.RESTR.norm>
0

>  <SCORE.SYSTEM>
0

>  <SCORE.SYSTEM.CONST>
0

>  <SCORE.SYSTEM.DIHEDRAL>
0

>  <SCORE.SYSTEM.SOLV>
0

>  <SCORE.SYSTEM.norm>
0

>  <SCORE.heavy>
31

>  <SCORE.norm>
-0.45415

>  <RMSD>
8.420

$$$$
ligand
 OpenBabel11021811493D
libRbt.so/2013.1/901 2013/11/27
 31 33  0  0  0  0  0  0  0  0999 V2000
   -1.2339  -10.6913  -14.0943 C   0  0  2  0  0  0  0  0  0  0  0  0
   -1.3545  -11.7619  -15.0408 O   0  0  0  0  0  0  0  0  0  0  0  0
   -4.0689  -12.2734  -18.3110 C   0  0  2  0  0  0  0  0  0  0  0  0
   -5.2672  -12.5605  -19.0388 N   0  0  0  0  0  0  0  0  0  0  0  0
   -5.8197   -9.0689  -17.6763 C   0  0  2  0  0  0  0  0  0  0  0  0
    0.2397  -10.7403  -13.5575 C   0  0  2  0  0  0  0  0  0  0  0  0
    1.1738  -10.6174  -14.6712 N   0  0  0  0  0  0  0  0  0  0  0  0
   -3.6328  -13.5645  -17.5168 C   0  0  0  0  0  0  0  0  0  0  0  0
   -7.0918   -9.7230  -18.2986 C   0  0  2  0  0  0  0  0  0  0  0  0
   -7.2482  -11.0270  -17.7657 O   0  0  0  0  0  0  0  0  0  0  0  0
    0.4771  -12.0812  -12.7796 C   0  0  0  0  0  0  0  0  0  0  0  0
   -2.2973  -13.2467  -16.7151 C   0  0  2  0  0  0  0  0  0  0  0  0
   -1.8787  -14.4528  -15.9632 N   0  0  0  0  0  0  0  0  0  0  0  0
   -6.8680   -9.7744  -19.8745 C   0  0  1  0  0  0  0  0  0  0  0  0
   -8.0391  -10.4244  -20.5552 N   0  0  0  0  0  0  0  0  0  0  0  0
   -0.6842  -12.3553  -11.7807 C   0  0  0  0  0  0  0  0  0  0  0  0
   -2.5532  -12.0330  -15.7149 C   0  0  2  0  0  0  0  0  0  0  0  0
   -6.6953   -8.2566  -20.4398 C   0  0  1  0  0  0  0  0  0  0  0  0
   -7.8368   -7.4610  -20.1852 O   0  0  0  0  0  0  0  0  0  0  0  0
   -1.8750  -11.7543  -11.9239 C   0  0  2  0  0  0  0  0  0  0  0  0
   -2.1697  -10.8269  -12.9831 O   0  0  0  0  0  0  0  0  0  0  0  0
   -3.0175  -10.7622  -16.5426 C   0  0  2  0  0  0  0  0  0  0  0  0
   -3.2746   -9.6697  -15.6513 O   0  0  0  0  0  0  0  0  0  0  0  0
   -5.4741   -7.5778  -19.7328 C   0  0  0  0  0  0  0  0  0  0  0  0
   -5.6308   -7.6779  -18.2247 O   0  0  0  0  0  0  0  0  0  0  0  0
   -3.0404  -12.0115  -10.9403 C   0  0  0  0  0  0  0  0  0  0  0  0
   -4.1471  -12.6371  -11.6502 N   0  0  0  0  0  0  0  0  0  0  0  0
   -4.3363  -11.0934  -17.3304 C   0  0  1  0  0  0  0  0  0  0  0  0
   -4.7127   -9.9466  -18.0545 O   0  0  0  0  0  0  0  0  0  0  0  0
   -6.4650   -8.1310  -21.9550 C   0  0  0  0  0  0  0  0  0  0  0  0
   -7.7912  -11.7437  -21.1670 C   0  0  0  0  0  0  0  0  0  0  0  0
  1  2  1  6  0  0  0
  1  6  1  0  0  0  0
  1 21  1  0  0  0  0
  3  4  1  1  0  0  0
  3  8  1  0  0  0  0
  3 28  1  0  0  0  0
  5  9  1  0  0  0  0
  5 25  1  0  0  0  0
  5 29  1  6  0  0  0
  6  7  1  6  0  0  0
  6 11  1  0  0  0  0
  8 12  1  0  0  0  0
  9 10  1  1  0  0  0
  9 14  1  0  0  0  0
 11 16  1  0  0  0  0
 12 13  1  1  0  0  0
 12 17  1  0  0  0  0
 14 15  1  6  0  0  0
 14 18  1  0  0  0  0
 15 31  1  0  0  0  0
 16 20  1  0  0  0  0
 17  2  1  6  0  0  0
 17 22  1  0  0  0  0
 18 19  1  1  0  0  0
 18 24  1  0  0  0  0
 18 30  1  0  0  0  0
 20 21  1  0  0  0  0
 20 26  1  1  0  0  0
 22 23  1  1  0  0  0
 22 28  1  0  0  0  0
 24 25  1  0  0  0  0
 26 27  1  0  0  0  0
 28 29  1  6  0  0  0
M  END
>  <CHROM.1>
179.15960077,-85.35041521,-111.42230013,177.95993117,-116.56040653,135.65233409
-3.98838991,-10.80612503,-16.66803205,-0.18582997,-0.90237592,0.12058533

>  <Name>
ligand

>  <RI>
0

>  <Rbt.Current_Directory>
/home/itssahil/PROJECTS/Mol_Feturizer/New_Systems/rnas/4F8U

>  <Rbt.Executable>
rbdock ($Id: //depot/dev/client3/rdock/2013.1/src/exe/rbdock.cxx#4 $)

>  <Rbt.Library>
libRbt.so (2013.1, Build901 2013/11/27)

>  <Rbt.Parameter_File>
/export/apps/rDock/src/rDock_2013.1_src/data/scripts/dock_solv.prm

>  <Rbt.Receptor>
prm/pocket_docking_5.prm

>  <SCORE>
-12.529

>  <SCORE.INTER>
-9.75111

>  <SCORE.INTER.CONST>
1

>  <SCORE.INTER.POLAR>
0

>  <SCORE.INTER.ROT>
6

>  <SCORE.INTER.SOLV>
13.9009

>  <SCORE.INTER.VDW>
-18.7344

>  <SCORE.INTER.norm>
-0.314552

>  <SCORE.INTRA>
-2.77788

>  <SCORE.INTRA.DIHEDRAL>
-7.12054

>  <SCORE.INTRA.DIHEDRAL.0>
18.77

>  <SCORE.INTRA.POLAR>
0

>  <SCORE.INTRA.POLAR.0>
0

>  <SCORE.INTRA.REPUL>
0

>  <SCORE.INTRA.REPUL.0>
0

>  <SCORE.INTRA.SOLV>
0.69283

>  <SCORE.INTRA.SOLV.lig_0>
-77.2465

>  <SCORE.INTRA.VDW>
0.435969

>  <SCORE.INTRA.VDW.0>
-4.16072

>  <SCORE.INTRA.norm>
-0.0896092

>  <SCORE.RESTR>
0

>  <SCORE.RESTR.CAVITY>
0

>  <SCORE.RESTR.norm>
0

>  <SCORE.SYSTEM>
0

>  <SCORE.SYSTEM.CONST>
0

>  <SCORE.SYSTEM.DIHEDRAL>
0

>  <SCORE.SYSTEM.SOLV>
0

>  <SCORE.SYSTEM.norm>
0

>  <SCORE.heavy>
31

>  <SCORE.norm>
-0.404161

>  <RMSD>
8.446

$$$$
ligand
 OpenBabel11021811493D
libRbt.so/2013.1/901 2013/11/27
 31 33  0  0  0  0  0  0  0  0999 V2000
   -3.5089  -10.7095  -13.6635 C   0  0  2  0  0  0  0  0  0  0  0  0
   -3.4688  -12.0687  -14.1188 O   0  0  0  0  0  0  0  0  0  0  0  0
   -5.8023  -14.2112  -16.9978 C   0  0  2  0  0  0  0  0  0  0  0  0
   -6.9091  -14.8806  -17.6099 N   0  0  0  0  0  0  0  0  0  0  0  0
   -7.6704  -11.2030  -18.0882 C   0  0  2  0  0  0  0  0  0  0  0  0
   -2.0813  -10.3916  -13.0955 C   0  0  2  0  0  0  0  0  0  0  0  0
   -1.0788  -10.6104  -14.1323 N   0  0  0  0  0  0  0  0  0  0  0  0
   -5.4324  -14.9575  -15.6583 C   0  0  0  0  0  0  0  0  0  0  0  0
   -7.9003  -11.1312  -19.6294 C   0  0  2  0  0  0  0  0  0  0  0  0
   -8.1475  -12.4375  -20.1208 O   0  0  0  0  0  0  0  0  0  0  0  0
   -1.7936  -11.2950  -11.8461 C   0  0  0  0  0  0  0  0  0  0  0  0
   -4.1977  -14.2177  -14.9834 C   0  0  2  0  0  0  0  0  0  0  0  0
   -3.8420  -14.9095  -13.7224 N   0  0  0  0  0  0  0  0  0  0  0  0
   -6.5769  -10.5214  -20.2719 C   0  0  1  0  0  0  0  0  0  0  0  0
   -6.6994  -10.4471  -21.7675 N   0  0  0  0  0  0  0  0  0  0  0  0
   -3.0007  -11.2830  -10.8642 C   0  0  0  0  0  0  0  0  0  0  0  0
   -4.5822  -12.6993  -14.6913 C   0  0  2  0  0  0  0  0  0  0  0  0
   -6.3362   -9.0234  -19.6796 C   0  0  1  0  0  0  0  0  0  0  0  0
   -7.4102   -8.1534  -19.9805 O   0  0  0  0  0  0  0  0  0  0  0  0
   -4.2228  -10.9132  -11.2759 C   0  0  2  0  0  0  0  0  0  0  0  0
   -4.5119  -10.5034  -12.6240 O   0  0  0  0  0  0  0  0  0  0  0  0
   -4.9761  -11.9883  -16.0532 C   0  0  2  0  0  0  0  0  0  0  0  0
   -5.3479  -10.6274  -15.8005 O   0  0  0  0  0  0  0  0  0  0  0  0
   -6.2065   -9.0988  -18.1208 C   0  0  0  0  0  0  0  0  0  0  0  0
   -7.4077   -9.8246  -17.5384 O   0  0  0  0  0  0  0  0  0  0  0  0
   -5.4341  -10.8922  -10.3147 C   0  0  0  0  0  0  0  0  0  0  0  0
   -6.4004  -11.9002  -10.7276 N   0  0  0  0  0  0  0  0  0  0  0  0
   -6.1955  -12.7323  -16.7083 C   0  0  1  0  0  0  0  0  0  0  0  0
   -6.5112  -12.0774  -17.9134 O   0  0  0  0  0  0  0  0  0  0  0  0
   -5.0874   -8.2926  -20.2001 C   0  0  0  0  0  0  0  0  0  0  0  0
   -7.8942   -9.7600  -22.2932 C   0  0  0  0  0  0  0  0  0  0  0  0
  1  2  1  1  0  0  0
  1  6  1  0  0  0  0
  1 21  1  0  0  0  0
  3  4  1  1  0  0  0
  3  8  1  0  0  0  0
  3 28  1  0  0  0  0
  5  9  1  0  0  0  0
  5 25  1  0  0  0  0
  5 29  1  6  0  0  0
  6  7  1  6  0  0  0
  6 11  1  0  0  0  0
  8 12  1  0  0  0  0
  9 10  1  6  0  0  0
  9 14  1  0  0  0  0
 11 16  1  0  0  0  0
 12 13  1  1  0  0  0
 12 17  1  0  0  0  0
 14 15  1  6  0  0  0
 14 18  1  0  0  0  0
 15 31  1  0  0  0  0
 16 20  1  0  0  0  0
 17  2  1  6  0  0  0
 17 22  1  0  0  0  0
 18 19  1  6  0  0  0
 18 24  1  0  0  0  0
 18 30  1  0  0  0  0
 20 21  1  0  0  0  0
 20 26  1  1  0  0  0
 22 23  1  1  0  0  0
 22 28  1  0  0  0  0
 24 25  1  0  0  0  0
 26 27  1  0  0  0  0
 28 29  1  6  0  0  0
M  END
>  <CHROM.1>
179.89809339,-160.34817169,52.75037510,-176.29177403,-113.91336340,135.44982209
-5.40270909,-11.38056572,-16.18008063,-0.57709706,-1.07918216,-0.46364886

>  <Name>
ligand

>  <RI>
0

>  <Rbt.Current_Directory>
/home/itssahil/PROJECTS/Mol_Feturizer/New_Systems/rnas/4F8U

>  <Rbt.Executable>
rbdock ($Id: //depot/dev/client3/rdock/2013.1/src/exe/rbdock.cxx#4 $)

>  <Rbt.Library>
libRbt.so (2013.1, Build901 2013/11/27)

>  <Rbt.Parameter_File>
/export/apps/rDock/src/rDock_2013.1_src/data/scripts/dock_solv.prm

>  <Rbt.Receptor>
prm/pocket_docking_8.prm

>  <SCORE>
-11.8656

>  <SCORE.INTER>
-8.83217

>  <SCORE.INTER.CONST>
1

>  <SCORE.INTER.POLAR>
0

>  <SCORE.INTER.ROT>
6

>  <SCORE.INTER.SOLV>
11.5249

>  <SCORE.INTER.VDW>
-17.3297

>  <SCORE.INTER.norm>
-0.284909

>  <SCORE.INTRA>
-3.03345

>  <SCORE.INTRA.DIHEDRAL>
-9.10262

>  <SCORE.INTRA.DIHEDRAL.0>
18.77

>  <SCORE.INTRA.POLAR>
0

>  <SCORE.INTRA.POLAR.0>
0

>  <SCORE.INTRA.REPUL>
0

>  <SCORE.INTRA.REPUL.0>
0

>  <SCORE.INTRA.SOLV>
-2.00666

>  <SCORE.INTRA.SOLV.lig_0>
-77.2465

>  <SCORE.INTRA.VDW>
2.52119

>  <SCORE.INTRA.VDW.0>
-4.16072

>  <SCORE.INTRA.norm>
-0.0978532

>  <SCORE.RESTR>
0

>  <SCORE.RESTR.CAVITY>
0

>  <SCORE.RESTR.norm>
0

>  <SCORE.SYSTEM>
0

>  <SCORE.SYSTEM.CONST>
0

>  <SCORE.SYSTEM.DIHEDRAL>
0

>  <SCORE.SYSTEM.SOLV>
0

>  <SCORE.SYSTEM.norm>
0

>  <SCORE.heavy>
31

>  <SCORE.norm>
-0.382762

>  <RMSD>
8.451

$$$$
ligand
 OpenBabel11021811493D
libRbt.so/2013.1/901 2013/11/27
 31 33  0  0  0  0  0  0  0  0999 V2000
   -5.4112  -13.3150  -12.3146 C   0  0  2  0  0  0  0  0  0  0  0  0
   -5.9691  -12.4731  -13.3327 O   0  0  0  0  0  0  0  0  0  0  0  0
   -4.5001  -12.5257  -17.3531 C   0  0  2  0  0  0  0  0  0  0  0  0
   -4.3800  -12.8467  -18.7425 N   0  0  0  0  0  0  0  0  0  0  0  0
   -7.2182   -9.8962  -17.9900 C   0  0  2  0  0  0  0  0  0  0  0  0
   -6.1998  -12.9956  -10.9963 C   0  0  2  0  0  0  0  0  0  0  0  0
   -7.6242  -13.2304  -11.2053 N   0  0  0  0  0  0  0  0  0  0  0  0
   -4.3638  -13.8517  -16.5097 C   0  0  0  0  0  0  0  0  0  0  0  0
   -7.8110  -10.3160  -19.3704 C   0  0  2  0  0  0  0  0  0  0  0  0
   -8.0641  -11.7105  -19.3594 O   0  0  0  0  0  0  0  0  0  0  0  0
   -5.9394  -11.5093  -10.5686 C   0  0  0  0  0  0  0  0  0  0  0  0
   -4.4895  -13.4927  -14.9661 C   0  0  2  0  0  0  0  0  0  0  0  0
   -4.3645  -14.7318  -14.1635 N   0  0  0  0  0  0  0  0  0  0  0  0
   -6.7291   -9.9418  -20.4775 C   0  0  1  0  0  0  0  0  0  0  0  0
   -7.2074  -10.3448  -21.8435 N   0  0  0  0  0  0  0  0  0  0  0  0
   -4.4205  -11.1754  -10.6221 C   0  0  0  0  0  0  0  0  0  0  0  0
   -5.8974  -12.7978  -14.6944 C   0  0  2  0  0  0  0  0  0  0  0  0
   -6.4734   -8.3334  -20.4530 C   0  0  1  0  0  0  0  0  0  0  0  0
   -7.6529   -7.6029  -20.7287 O   0  0  0  0  0  0  0  0  0  0  0  0
   -3.5738  -11.9228  -11.3462 C   0  0  2  0  0  0  0  0  0  0  0  0
   -3.9874  -13.0684  -12.1113 O   0  0  0  0  0  0  0  0  0  0  0  0
   -6.0125  -11.4862  -15.5787 C   0  0  2  0  0  0  0  0  0  0  0  0
   -7.2854  -10.8645  -15.3615 O   0  0  0  0  0  0  0  0  0  0  0  0
   -5.9732   -7.9114  -19.0303 C   0  0  0  0  0  0  0  0  0  0  0  0
   -6.9417   -8.4148  -17.9733 O   0  0  0  0  0  0  0  0  0  0  0  0
   -2.0609  -11.6087  -11.4099 C   0  0  0  0  0  0  0  0  0  0  0  0
   -1.7405  -11.0178  -12.7016 N   0  0  0  0  0  0  0  0  0  0  0  0
   -5.8840  -11.8576  -17.1003 C   0  0  1  0  0  0  0  0  0  0  0  0
   -5.9855  -10.6708  -17.8500 O   0  0  0  0  0  0  0  0  0  0  0  0
   -5.4444   -7.8057  -21.4666 C   0  0  0  0  0  0  0  0  0  0  0  0
   -7.1382  -11.7833  -22.1634 C   0  0  0  0  0  0  0  0  0  0  0  0
  1  2  1  6  0  0  0
  1  6  1  0  0  0  0
  1 21  1  0  0  0  0
  3  4  1  6  0  0  0
  3  8  1  0  0  0  0
  3 28  1  0  0  0  0
  5  9  1  0  0  0  0
  5 25  1  0  0  0  0
  5 29  1  6  0  0  0
  6  7  1  6  0  0  0
  6 11  1  0  0  0  0
  8 12  1  0  0  0  0
  9 10  1  1  0  0  0
  9 14  1  0  0  0  0
 11 16  1  0  0  0  0
 12 13  1  1  0  0  0
 12 17  1  0  0  0  0
 14 15  1  6  0  0  0
 14 18  1  0  0  0  0
 15 31  1  0  0  0  0
 16 20  1  0  0  0  0
 17  2  1  1  0  0  0
 17 22  1  0  0  0  0
 18 19  1  6  0  0  0
 18 24  1  0  0  0  0
 18 30  1  0  0  0  0
 20 21  1  0  0  0  0
 20 26  1  1  0  0  0
 22 23  1  6  0  0  0
 22 28  1  0  0  0  0
 24 25  1  0  0  0  0
 26 27  1  0  0  0  0
 28 29  1  6  0  0  0
M  END
>  <CHROM.1>
-155.58031926,-99.00866793,-75.98056024,-36.58077438,-105.61487164,171.17099277
-5.72532523,-11.31127186,-16.15774514,-0.32792192,1.31875771,-2.47097924

>  <Name>
ligand

>  <RI>
0

>  <Rbt.Current_Directory>
/home/itssahil/PROJECTS/Mol_Feturizer/New_Systems/rnas/4F8U

>  <Rbt.Executable>
rbdock ($Id: //depot/dev/client3/rdock/2013.1/src/exe/rbdock.cxx#4 $)

>  <Rbt.Library>
libRbt.so (2013.1, Build901 2013/11/27)

>  <Rbt.Parameter_File>
/export/apps/rDock/src/rDock_2013.1_src/data/scripts/dock_solv.prm

>  <Rbt.Receptor>
prm/pocket_docking_4.prm

>  <SCORE>
-5.77287

>  <SCORE.INTER>
-7.11504

>  <SCORE.INTER.CONST>
1

>  <SCORE.INTER.POLAR>
0

>  <SCORE.INTER.ROT>
6

>  <SCORE.INTER.SOLV>
12.4611

>  <SCORE.INTER.VDW>
-16.4971

>  <SCORE.INTER.norm>
-0.229517

>  <SCORE.INTRA>
1.34217

>  <SCORE.INTRA.DIHEDRAL>
-6.07118

>  <SCORE.INTRA.DIHEDRAL.0>
18.77

>  <SCORE.INTRA.POLAR>
0

>  <SCORE.INTRA.POLAR.0>
0

>  <SCORE.INTRA.REPUL>
0

>  <SCORE.INTRA.REPUL.0>
0

>  <SCORE.INTRA.SOLV>
0.477553

>  <SCORE.INTRA.SOLV.lig_0>
-77.2465

>  <SCORE.INTRA.VDW>
4.13898

>  <SCORE.INTRA.VDW.0>
-4.16072

>  <SCORE.INTRA.norm>
0.0432958

>  <SCORE.RESTR>
0

>  <SCORE.RESTR.CAVITY>
0

>  <SCORE.RESTR.norm>
0

>  <SCORE.SYSTEM>
0

>  <SCORE.SYSTEM.CONST>
0

>  <SCORE.SYSTEM.DIHEDRAL>
0

>  <SCORE.SYSTEM.SOLV>
0

>  <SCORE.SYSTEM.norm>
0

>  <SCORE.heavy>
31

>  <SCORE.norm>
-0.186222

>  <RMSD>
8.455

$$$$
ligand
 OpenBabel11021811493D
libRbt.so/2013.1/901 2013/11/27
 31 33  0  0  0  0  0  0  0  0999 V2000
   -8.3164  -13.5734  -19.8949 C   0  0  2  0  0  0  0  0  0  0  0  0
   -7.6831  -12.9820  -18.7523 O   0  0  0  0  0  0  0  0  0  0  0  0
   -5.0827   -9.7327  -17.7505 C   0  0  2  0  0  0  0  0  0  0  0  0
   -4.0062   -8.7927  -17.8247 N   0  0  0  0  0  0  0  0  0  0  0  0
   -5.7551   -7.0714  -19.3705 C   0  0  2  0  0  0  0  0  0  0  0  0
   -7.4793  -14.8517  -20.2517 C   0  0  2  0  0  0  0  0  0  0  0  0
   -7.4365  -15.7489  -19.1023 N   0  0  0  0  0  0  0  0  0  0  0  0
   -4.4835  -11.1906  -17.6920 C   0  0  0  0  0  0  0  0  0  0  0  0
   -6.7497   -6.1382  -20.1276 C   0  0  2  0  0  0  0  0  0  0  0  0
   -7.8396   -5.8352  -19.2737 O   0  0  0  0  0  0  0  0  0  0  0  0
   -6.0306  -14.4341  -20.6839 C   0  0  0  0  0  0  0  0  0  0  0  0
   -5.6800  -12.2335  -17.6016 C   0  0  2  0  0  0  0  0  0  0  0  0
   -5.1289  -13.6077  -17.5477 N   0  0  0  0  0  0  0  0  0  0  0  0
   -7.2407   -6.9282  -21.4202 C   0  0  1  0  0  0  0  0  0  0  0  0
   -8.2339   -6.1101  -22.1959 N   0  0  0  0  0  0  0  0  0  0  0  0
   -6.0740  -13.2668  -21.7119 C   0  0  0  0  0  0  0  0  0  0  0  0
   -6.6276  -12.0674  -18.8717 C   0  0  2  0  0  0  0  0  0  0  0  0
   -5.9568   -7.2518  -22.3689 C   0  0  1  0  0  0  0  0  0  0  0  0
   -5.3021   -6.0736  -22.7980 O   0  0  0  0  0  0  0  0  0  0  0  0
   -7.1615  -12.4901  -21.8300 C   0  0  2  0  0  0  0  0  0  0  0  0
   -8.3497  -12.6688  -21.0394 O   0  0  0  0  0  0  0  0  0  0  0  0
   -7.1882  -10.5843  -18.9156 C   0  0  2  0  0  0  0  0  0  0  0  0
   -8.0233  -10.4149  -20.0680 O   0  0  0  0  0  0  0  0  0  0  0  0
   -4.9210   -8.1058  -21.5628 C   0  0  0  0  0  0  0  0  0  0  0  0
   -4.5830   -7.4076  -20.2563 O   0  0  0  0  0  0  0  0  0  0  0  0
   -7.2249  -11.3272  -22.8474 C   0  0  0  0  0  0  0  0  0  0  0  0
   -6.9984  -11.8427  -24.1903 N   0  0  0  0  0  0  0  0  0  0  0  0
   -5.9939   -9.5667  -19.0025 C   0  0  1  0  0  0  0  0  0  0  0  0
   -6.5297   -8.2655  -19.0341 O   0  0  0  0  0  0  0  0  0  0  0  0
   -6.2618   -8.0203  -23.6654 C   0  0  0  0  0  0  0  0  0  0  0  0
   -7.8260   -4.7335  -22.5345 C   0  0  0  0  0  0  0  0  0  0  0  0
  1  2  1  1  0  0  0
  1  6  1  0  0  0  0
  1 21  1  0  0  0  0
  3  4  1  6  0  0  0
  3  8  1  0  0  0  0
  3 28  1  0  0  0  0
  5  9  1  0  0  0  0
  5 25  1  0  0  0  0
  5 29  1  6  0  0  0
  6  7  1  1  0  0  0
  6 11  1  0  0  0  0
  8 12  1  0  0  0  0
  9 10  1  1  0  0  0
  9 14  1  0  0  0  0
 11 16  1  0  0  0  0
 12 13  1  6  0  0  0
 12 17  1  0  0  0  0
 14 15  1  6  0  0  0
 14 18  1  0  0  0  0
 15 31  1  0  0  0  0
 16 20  1  0  0  0  0
 17  2  1  1  0  0  0
 17 22  1  0  0  0  0
 18 19  1  6  0  0  0
 18 24  1  0  0  0  0
 18 30  1  0  0  0  0
 20 21  1  0  0  0  0
 20 26  1  6  0  0  0
 22 23  1  6  0  0  0
 22 28  1  0  0  0  0
 24 25  1  0  0  0  0
 26 27  1  0  0  0  0
 28 29  1  1  0  0  0
M  END
>  <CHROM.1>
87.18973084,145.55041420,51.81063534,-148.95317071,57.90233711,73.06222962
-6.53504854,-10.06133964,-20.34689525,1.67948251,1.19337127,2.80478667

>  <Name>
ligand

>  <RI>
0

>  <Rbt.Current_Directory>
/home/itssahil/PROJECTS/Mol_Feturizer/New_Systems/rnas/4F8U

>  <Rbt.Executable>
rbdock ($Id: //depot/dev/client3/rdock/2013.1/src/exe/rbdock.cxx#4 $)

>  <Rbt.Library>
libRbt.so (2013.1, Build901 2013/11/27)

>  <Rbt.Parameter_File>
/export/apps/rDock/src/rDock_2013.1_src/data/scripts/dock_solv.prm

>  <Rbt.Receptor>
prm/blind_docking_60.prm

>  <SCORE>
30.13

>  <SCORE.INTER>
6.95783

>  <SCORE.INTER.CONST>
1

>  <SCORE.INTER.POLAR>
0

>  <SCORE.INTER.ROT>
6

>  <SCORE.INTER.SOLV>
28.8718

>  <SCORE.INTER.VDW>
-12.5854

>  <SCORE.INTER.norm>
0.224446

>  <SCORE.INTRA>
3.38965

>  <SCORE.INTRA.DIHEDRAL>
-3.01049

>  <SCORE.INTRA.DIHEDRAL.0>
18.77

>  <SCORE.INTRA.POLAR>
0

>  <SCORE.INTRA.POLAR.0>
0

>  <SCORE.INTRA.REPUL>
0

>  <SCORE.INTRA.REPUL.0>
0

>  <SCORE.INTRA.SOLV>
3.64224

>  <SCORE.INTRA.SOLV.lig_0>
-77.2465

>  <SCORE.INTRA.VDW>
3.07377

>  <SCORE.INTRA.VDW.0>
-4.16072

>  <SCORE.INTRA.norm>
0.109343

>  <SCORE.RESTR>
19.7825

>  <SCORE.RESTR.CAVITY>
19.7825

>  <SCORE.RESTR.norm>
0.638146

>  <SCORE.SYSTEM>
0

>  <SCORE.SYSTEM.CONST>
0

>  <SCORE.SYSTEM.DIHEDRAL>
0

>  <SCORE.SYSTEM.SOLV>
0

>  <SCORE.SYSTEM.norm>
0

>  <SCORE.heavy>
31

>  <SCORE.norm>
0.971936

>  <RMSD>
8.458

$$$$
ligand
 OpenBabel11021811493D
libRbt.so/2013.1/901 2013/11/27
 31 33  0  0  0  0  0  0  0  0999 V2000
   -2.9086  -14.5089  -14.0013 C   0  0  2  0  0  0  0  0  0  0  0  0
   -4.1992  -14.4604  -13.3779 O   0  0  0  0  0  0  0  0  0  0  0  0
   -7.8420  -12.4299  -14.3426 C   0  0  2  0  0  0  0  0  0  0  0  0
   -8.7868  -11.3738  -14.5432 N   0  0  0  0  0  0  0  0  0  0  0  0
   -8.1494  -11.4224  -17.1502 C   0  0  2  0  0  0  0  0  0  0  0  0
   -2.1638  -15.7420  -13.3794 C   0  0  2  0  0  0  0  0  0  0  0  0
   -2.9449  -16.9534  -13.6034 N   0  0  0  0  0  0  0  0  0  0  0  0
   -7.3799  -12.4210  -12.8345 C   0  0  0  0  0  0  0  0  0  0  0  0
   -8.1766  -11.7054  -18.6840 C   0  0  2  0  0  0  0  0  0  0  0  0
   -8.3995  -13.0892  -18.8943 O   0  0  0  0  0  0  0  0  0  0  0  0
   -1.9340  -15.5055  -11.8460 C   0  0  0  0  0  0  0  0  0  0  0  0
   -6.3364  -13.5995  -12.6112 C   0  0  2  0  0  0  0  0  0  0  0  0
   -5.8936  -13.6000  -11.1973 N   0  0  0  0  0  0  0  0  0  0  0  0
   -6.7628  -11.2607  -19.2669 C   0  0  1  0  0  0  0  0  0  0  0  0
   -6.6893  -11.5309  -20.7429 N   0  0  0  0  0  0  0  0  0  0  0  0
   -1.3579  -14.0838  -11.5850 C   0  0  0  0  0  0  0  0  0  0  0  0
   -5.0887  -13.3962  -13.5811 C   0  0  2  0  0  0  0  0  0  0  0  0
   -6.5532   -9.6670  -19.0035 C   0  0  1  0  0  0  0  0  0  0  0  0
   -7.5516   -8.8879  -19.6337 O   0  0  0  0  0  0  0  0  0  0  0  0
   -1.4807  -13.1099  -12.4993 C   0  0  2  0  0  0  0  0  0  0  0  0
   -2.1348  -13.2941  -13.7670 O   0  0  0  0  0  0  0  0  0  0  0  0
   -5.5923  -13.3807  -15.0850 C   0  0  2  0  0  0  0  0  0  0  0  0
   -4.4816  -13.1740  -15.9668 O   0  0  0  0  0  0  0  0  0  0  0  0
   -6.6279   -9.3834  -17.4652 C   0  0  0  0  0  0  0  0  0  0  0  0
   -7.9163   -9.9550  -16.8978 O   0  0  0  0  0  0  0  0  0  0  0  0
   -0.9126  -11.6916  -12.2596 C   0  0  0  0  0  0  0  0  0  0  0  0
   -1.9420  -10.7010  -12.5419 N   0  0  0  0  0  0  0  0  0  0  0  0
   -6.6238  -12.2127  -15.2883 C   0  0  1  0  0  0  0  0  0  0  0  0
   -7.0504  -12.2348  -16.6294 O   0  0  0  0  0  0  0  0  0  0  0  0
   -5.2254   -9.0765  -19.5061 C   0  0  0  0  0  0  0  0  0  0  0  0
   -6.4320  -12.9280  -21.1407 C   0  0  0  0  0  0  0  0  0  0  0  0
  1  2  1  1  0  0  0
  1  6  1  0  0  0  0
  1 21  1  0  0  0  0
  3  4  1  1  0  0  0
  3  8  1  0  0  0  0
  3 28  1  0  0  0  0
  5  9  1  0  0  0  0
  5 25  1  0  0  0  0
  5 29  1  1  0  0  0
  6  7  1  1  0  0  0
  6 11  1  0  0  0  0
  8 12  1  0  0  0  0
  9 10  1  1  0  0  0
  9 14  1  0  0  0  0
 11 16  1  0  0  0  0
 12 13  1  1  0  0  0
 12 17  1  0  0  0  0
 14 15  1  6  0  0  0
 14 18  1  0  0  0  0
 15 31  1  0  0  0  0
 16 20  1  0  0  0  0
 17  2  1  6  0  0  0
 17 22  1  0  0  0  0
 18 19  1  6  0  0  0
 18 24  1  0  0  0  0
 18 30  1  0  0  0  0
 20 21  1  0  0  0  0
 20 26  1  6  0  0  0
 22 23  1  6  0  0  0
 22 28  1  0  0  0  0
 24 25  1  0  0  0  0
 26 27  1  0  0  0  0
 28 29  1  6  0  0  0
M  END
>  <CHROM.1>
172.77911540,175.88044548,-78.47872122,-173.65720082,-129.97003915,51.71417477
-5.35076452,-12.45998974,-15.50933206,-0.99077997,0.14072608,-1.19168877

>  <Name>
ligand

>  <RI>
0

>  <Rbt.Current_Directory>
/home/itssahil/PROJECTS/Mol_Feturizer/New_Systems/rnas/4F8U

>  <Rbt.Executable>
rbdock ($Id: //depot/dev/client3/rdock/2013.1/src/exe/rbdock.cxx#4 $)

>  <Rbt.Library>
libRbt.so (2013.1, Build901 2013/11/27)

>  <Rbt.Parameter_File>
/export/apps/rDock/src/rDock_2013.1_src/data/scripts/dock_solv.prm

>  <Rbt.Receptor>
prm/pocket_docking_4.prm

>  <SCORE>
-10.8331

>  <SCORE.INTER>
-4.70935

>  <SCORE.INTER.CONST>
1

>  <SCORE.INTER.POLAR>
0

>  <SCORE.INTER.ROT>
6

>  <SCORE.INTER.SOLV>
12.4611

>  <SCORE.INTER.VDW>
-14.8933

>  <SCORE.INTER.norm>
-0.151915

>  <SCORE.INTRA>
-6.1237

>  <SCORE.INTRA.DIHEDRAL>
-15.8291

>  <SCORE.INTRA.DIHEDRAL.0>
18.77

>  <SCORE.INTRA.POLAR>
0

>  <SCORE.INTRA.POLAR.0>
0

>  <SCORE.INTRA.REPUL>
0

>  <SCORE.INTRA.REPUL.0>
0

>  <SCORE.INTRA.SOLV>
-0.73935

>  <SCORE.INTRA.SOLV.lig_0>
-77.2465

>  <SCORE.INTRA.VDW>
2.16055

>  <SCORE.INTRA.VDW.0>
-4.16072

>  <SCORE.INTRA.norm>
-0.197539

>  <SCORE.RESTR>
0

>  <SCORE.RESTR.CAVITY>
0

>  <SCORE.RESTR.norm>
0

>  <SCORE.SYSTEM>
0

>  <SCORE.SYSTEM.CONST>
0

>  <SCORE.SYSTEM.DIHEDRAL>
0

>  <SCORE.SYSTEM.SOLV>
0

>  <SCORE.SYSTEM.norm>
0

>  <SCORE.heavy>
31

>  <SCORE.norm>
-0.349453

>  <RMSD>
8.469

$$$$
ligand
 OpenBabel11021811493D
libRbt.so/2013.1/901 2013/11/27
 31 33  0  0  0  0  0  0  0  0999 V2000
   -4.2478  -13.3693  -12.0650 C   0  0  2  0  0  0  0  0  0  0  0  0
   -4.7211  -12.7058  -13.2449 O   0  0  0  0  0  0  0  0  0  0  0  0
   -4.4522  -13.8902  -17.3496 C   0  0  2  0  0  0  0  0  0  0  0  0
   -4.7059  -14.5885  -18.5728 N   0  0  0  0  0  0  0  0  0  0  0  0
   -7.3630  -11.4198  -17.7654 C   0  0  2  0  0  0  0  0  0  0  0  0
   -4.7405  -12.5105  -10.8477 C   0  0  2  0  0  0  0  0  0  0  0  0
   -6.1939  -12.3924  -10.8845 N   0  0  0  0  0  0  0  0  0  0  0  0
   -3.9789  -14.9270  -16.2592 C   0  0  0  0  0  0  0  0  0  0  0  0
   -7.8916  -11.2833  -19.2266 C   0  0  2  0  0  0  0  0  0  0  0  0
   -8.1782  -12.5743  -19.7364 O   0  0  0  0  0  0  0  0  0  0  0  0
   -4.0675  -11.0945  -10.8898 C   0  0  0  0  0  0  0  0  0  0  0  0
   -3.6898  -14.1491  -14.9033 C   0  0  2  0  0  0  0  0  0  0  0  0
   -3.2457  -15.1138  -13.8703 N   0  0  0  0  0  0  0  0  0  0  0  0
   -6.7438  -10.5771  -20.0752 C   0  0  1  0  0  0  0  0  0  0  0  0
   -7.1583  -10.4351  -21.5123 N   0  0  0  0  0  0  0  0  0  0  0  0
   -2.5362  -11.2161  -11.1386 C   0  0  0  0  0  0  0  0  0  0  0  0
   -5.0130  -13.3997  -14.4274 C   0  0  2  0  0  0  0  0  0  0  0  0
   -6.4513   -9.1001  -19.4541 C   0  0  1  0  0  0  0  0  0  0  0  0
   -7.5967   -8.2710  -19.4914 O   0  0  0  0  0  0  0  0  0  0  0  0
   -2.0085  -12.3301  -11.6680 C   0  0  2  0  0  0  0  0  0  0  0  0
   -2.7929  -13.4779  -12.0370 O   0  0  0  0  0  0  0  0  0  0  0  0
   -5.4766  -12.3882  -15.5577 C   0  0  2  0  0  0  0  0  0  0  0  0
   -6.6805  -11.7251  -15.1517 O   0  0  0  0  0  0  0  0  0  0  0  0
   -6.0175   -9.2461  -17.9565 C   0  0  0  0  0  0  0  0  0  0  0  0
   -7.0525  -10.0589  -17.1970 O   0  0  0  0  0  0  0  0  0  0  0  0
   -0.4893  -12.4711  -11.9203 C   0  0  0  0  0  0  0  0  0  0  0  0
   -0.2425  -12.5893  -13.3505 N   0  0  0  0  0  0  0  0  0  0  0  0
   -5.7558  -13.1721  -16.8908 C   0  0  1  0  0  0  0  0  0  0  0  0
   -6.1584  -12.2428  -17.8682 O   0  0  0  0  0  0  0  0  0  0  0  0
   -5.3577   -8.2831  -20.1618 C   0  0  0  0  0  0  0  0  0  0  0  0
   -7.1349  -11.6659  -22.3252 C   0  0  0  0  0  0  0  0  0  0  0  0
  1  2  1  6  0  0  0
  1  6  1  0  0  0  0
  1 21  1  0  0  0  0
  3  4  1  6  0  0  0
  3  8  1  0  0  0  0
  3 28  1  0  0  0  0
  5  9  1  0  0  0  0
  5 25  1  0  0  0  0
  5 29  1  6  0  0  0
  6  7  1  6  0  0  0
  6 11  1  0  0  0  0
  8 12  1  0  0  0  0
  9 10  1  6  0  0  0
  9 14  1  0  0  0  0
 11 16  1  0  0  0  0
 12 13  1  1  0  0  0
 12 17  1  0  0  0  0
 14 15  1  6  0  0  0
 14 18  1  0  0  0  0
 15 31  1  0  0  0  0
 16 20  1  0  0  0  0
 17  2  1  1  0  0  0
 17 22  1  0  0  0  0
 18 19  1  6  0  0  0
 18 24  1  0  0  0  0
 18 30  1  0  0  0  0
 20 21  1  0  0  0  0
 20 26  1  1  0  0  0
 22 23  1  1  0  0  0
 22 28  1  0  0  0  0
 24 25  1  0  0  0  0
 26 27  1  0  0  0  0
 28 29  1  6  0  0  0
M  END
>  <CHROM.1>
-151.00659283,-145.36465084,-74.68660189,-59.12044694,-115.56235951,178.54110393
-5.13137815,-11.99699320,-15.96209602,0.52678990,-1.05034317,0.86545290

>  <Name>
ligand

>  <RI>
0

>  <Rbt.Current_Directory>
/home/itssahil/PROJECTS/Mol_Feturizer/New_Systems/rnas/4F8U

>  <Rbt.Executable>
rbdock ($Id: //depot/dev/client3/rdock/2013.1/src/exe/rbdock.cxx#4 $)

>  <Rbt.Library>
libRbt.so (2013.1, Build901 2013/11/27)

>  <Rbt.Parameter_File>
/export/apps/rDock/src/rDock_2013.1_src/data/scripts/dock_solv.prm

>  <Rbt.Receptor>
prm/pocket_docking_5.prm

>  <SCORE>
-9.94365

>  <SCORE.INTER>
-8.96187

>  <SCORE.INTER.CONST>
1

>  <SCORE.INTER.POLAR>
0

>  <SCORE.INTER.ROT>
6

>  <SCORE.INTER.SOLV>
10.389

>  <SCORE.INTER.VDW>
-17.0376

>  <SCORE.INTER.norm>
-0.289093

>  <SCORE.INTRA>
-0.981784

>  <SCORE.INTRA.DIHEDRAL>
-9.00301

>  <SCORE.INTRA.DIHEDRAL.0>
18.77

>  <SCORE.INTRA.POLAR>
0

>  <SCORE.INTRA.POLAR.0>
0

>  <SCORE.INTRA.REPUL>
0

>  <SCORE.INTRA.REPUL.0>
0

>  <SCORE.INTRA.SOLV>
0.767834

>  <SCORE.INTRA.SOLV.lig_0>
-77.2465

>  <SCORE.INTRA.VDW>
3.1358

>  <SCORE.INTRA.VDW.0>
-4.16072

>  <SCORE.INTRA.norm>
-0.0316705

>  <SCORE.RESTR>
0

>  <SCORE.RESTR.CAVITY>
0

>  <SCORE.RESTR.norm>
0

>  <SCORE.SYSTEM>
0

>  <SCORE.SYSTEM.CONST>
0

>  <SCORE.SYSTEM.DIHEDRAL>
0

>  <SCORE.SYSTEM.SOLV>
0

>  <SCORE.SYSTEM.norm>
0

>  <SCORE.heavy>
31

>  <SCORE.norm>
-0.320763

>  <RMSD>
8.470

$$$$
ligand
 OpenBabel11021811493D
libRbt.so/2013.1/901 2013/11/27
 31 33  0  0  0  0  0  0  0  0999 V2000
   -3.6516  -12.8400  -12.2599 C   0  0  2  0  0  0  0  0  0  0  0  0
   -4.4892  -13.9959  -12.3964 O   0  0  0  0  0  0  0  0  0  0  0  0
   -6.0153  -16.2788  -15.6802 C   0  0  2  0  0  0  0  0  0  0  0  0
   -6.7269  -16.6157  -16.8752 N   0  0  0  0  0  0  0  0  0  0  0  0
   -4.3342  -15.6709  -18.3958 C   0  0  2  0  0  0  0  0  0  0  0  0
   -2.7750  -13.0782  -10.9805 C   0  0  2  0  0  0  0  0  0  0  0  0
   -2.0132  -14.3134  -11.1286 N   0  0  0  0  0  0  0  0  0  0  0  0
   -7.0471  -15.7834  -14.5948 C   0  0  0  0  0  0  0  0  0  0  0  0
   -3.0526  -16.2874  -19.0366 C   0  0  2  0  0  0  0  0  0  0  0  0
   -2.8425  -17.5806  -18.4961 O   0  0  0  0  0  0  0  0  0  0  0  0
   -3.6942  -13.1421   -9.7114 C   0  0  0  0  0  0  0  0  0  0  0  0
   -6.2563  -15.4170  -13.2652 C   0  0  2  0  0  0  0  0  0  0  0  0
   -7.2159  -14.9483  -12.2382 N   0  0  0  0  0  0  0  0  0  0  0  0
   -1.8399  -15.3177  -18.6827 C   0  0  1  0  0  0  0  0  0  0  0  0
   -0.5514  -15.8565  -19.2367 N   0  0  0  0  0  0  0  0  0  0  0  0
   -4.7105  -11.9637   -9.7037 C   0  0  0  0  0  0  0  0  0  0  0  0
   -5.1845  -14.2806  -13.5797 C   0  0  2  0  0  0  0  0  0  0  0  0
   -2.1254  -13.8482  -19.3245 C   0  0  1  0  0  0  0  0  0  0  0  0
   -2.2500  -13.8978  -20.7327 O   0  0  0  0  0  0  0  0  0  0  0  0
   -5.0078  -11.3002  -10.8311 C   0  0  2  0  0  0  0  0  0  0  0  0
   -4.4241  -11.6114  -12.1083 O   0  0  0  0  0  0  0  0  0  0  0  0
   -4.1826  -14.8006  -14.6939 C   0  0  2  0  0  0  0  0  0  0  0  0
   -3.2276  -13.7778  -15.0035 O   0  0  0  0  0  0  0  0  0  0  0  0
   -3.4672  -13.2841  -18.7471 C   0  0  0  0  0  0  0  0  0  0  0  0
   -4.5831  -14.2940  -18.9559 O   0  0  0  0  0  0  0  0  0  0  0  0
   -6.0129  -10.1249  -10.8433 C   0  0  0  0  0  0  0  0  0  0  0  0
   -7.2128  -10.5184  -11.5685 N   0  0  0  0  0  0  0  0  0  0  0  0
   -4.9796  -15.1604  -15.9997 C   0  0  1  0  0  0  0  0  0  0  0  0
   -4.0599  -15.6215  -16.9601 O   0  0  0  0  0  0  0  0  0  0  0  0
   -1.0434  -12.7862  -19.0679 C   0  0  0  0  0  0  0  0  0  0  0  0
    0.2325  -16.7282  -18.3413 C   0  0  0  0  0  0  0  0  0  0  0  0
  1  2  1  1  0  0  0
  1  6  1  0  0  0  0
  1 21  1  0  0  0  0
  3  4  1  6  0  0  0
  3  8  1  0  0  0  0
  3 28  1  0  0  0  0
  5  9  1  0  0  0  0
  5 25  1  0  0  0  0
  5 29  1  1  0  0  0
  6  7  1  6  0  0  0
  6 11  1  0  0  0  0
  8 12  1  0  0  0  0
  9 10  1  1  0  0  0
  9 14  1  0  0  0  0
 11 16  1  0  0  0  0
 12 13  1  1  0  0  0
 12 17  1  0  0  0  0
 14 15  1  6  0  0  0
 14 18  1  0  0  0  0
 15 31  1  0  0  0  0
 16 20  1  0  0  0  0
 17  2  1  1  0  0  0
 17 22  1  0  0  0  0
 18 19  1  6  0  0  0
 18 24  1  0  0  0  0
 18 30  1  0  0  0  0
 20 21  1  0  0  0  0
 20 26  1  1  0  0  0
 22 23  1  6  0  0  0
 22 28  1  0  0  0  0
 24 25  1  0  0  0  0
 26 27  1  0  0  0  0
 28 29  1  6  0  0  0
M  END
>  <CHROM.1>
-165.16104177,-178.24164623,-91.58611366,-166.89218742,-111.33520430,79.88306008
-3.99863454,-14.23021797,-15.18688800,-1.90561885,-0.44764991,-2.06908628

>  <Name>
ligand

>  <RI>
0

>  <Rbt.Current_Directory>
/home/itssahil/PROJECTS/Mol_Feturizer/New_Systems/rnas/4F8U

>  <Rbt.Executable>
rbdock ($Id: //depot/dev/client3/rdock/2013.1/src/exe/rbdock.cxx#4 $)

>  <Rbt.Library>
libRbt.so (2013.1, Build901 2013/11/27)

>  <Rbt.Parameter_File>
/export/apps/rDock/src/rDock_2013.1_src/data/scripts/dock_solv.prm

>  <Rbt.Receptor>
prm/pocket_docking_8.prm

>  <SCORE>
-6.10794

>  <SCORE.INTER>
0.660952

>  <SCORE.INTER.CONST>
1

>  <SCORE.INTER.POLAR>
0

>  <SCORE.INTER.ROT>
6

>  <SCORE.INTER.SOLV>
8.65343

>  <SCORE.INTER.VDW>
-10.0438

>  <SCORE.INTER.norm>
0.021321

>  <SCORE.INTRA>
-6.76889

>  <SCORE.INTRA.DIHEDRAL>
-12.6959

>  <SCORE.INTRA.DIHEDRAL.0>
18.77

>  <SCORE.INTRA.POLAR>
0

>  <SCORE.INTRA.POLAR.0>
0

>  <SCORE.INTRA.REPUL>
0

>  <SCORE.INTRA.REPUL.0>
0

>  <SCORE.INTRA.SOLV>
-1.82138

>  <SCORE.INTRA.SOLV.lig_0>
-77.2465

>  <SCORE.INTRA.VDW>
0.489763

>  <SCORE.INTRA.VDW.0>
-4.16072

>  <SCORE.INTRA.norm>
-0.218351

>  <SCORE.RESTR>
0

>  <SCORE.RESTR.CAVITY>
0

>  <SCORE.RESTR.norm>
0

>  <SCORE.SYSTEM>
0

>  <SCORE.SYSTEM.CONST>
0

>  <SCORE.SYSTEM.DIHEDRAL>
0

>  <SCORE.SYSTEM.SOLV>
0

>  <SCORE.SYSTEM.norm>
0

>  <SCORE.heavy>
31

>  <SCORE.norm>
-0.19703

>  <RMSD>
8.471

$$$$
ligand
 OpenBabel11021811493D
libRbt.so/2013.1/901 2013/11/27
 31 33  0  0  0  0  0  0  0  0999 V2000
   -8.4005  -13.4914  -20.0310 C   0  0  2  0  0  0  0  0  0  0  0  0
   -7.8449  -12.8332  -18.8844 O   0  0  0  0  0  0  0  0  0  0  0  0
   -5.1318   -9.7018  -17.8088 C   0  0  2  0  0  0  0  0  0  0  0  0
   -4.0187   -8.8037  -17.8580 N   0  0  0  0  0  0  0  0  0  0  0  0
   -5.6921   -6.9995  -19.4425 C   0  0  2  0  0  0  0  0  0  0  0  0
   -7.5628  -14.8020  -20.2370 C   0  0  2  0  0  0  0  0  0  0  0  0
   -7.6243  -15.6205  -19.0312 N   0  0  0  0  0  0  0  0  0  0  0  0
   -4.5905  -11.1827  -17.7638 C   0  0  0  0  0  0  0  0  0  0  0  0
   -6.6557   -6.0455  -20.2136 C   0  0  2  0  0  0  0  0  0  0  0  0
   -7.7346   -5.6938  -19.3643 O   0  0  0  0  0  0  0  0  0  0  0  0
   -6.0779  -14.4342  -20.5828 C   0  0  0  0  0  0  0  0  0  0  0  0
   -5.8278  -12.1791  -17.7012 C   0  0  2  0  0  0  0  0  0  0  0  0
   -5.3312  -13.5744  -17.6603 N   0  0  0  0  0  0  0  0  0  0  0  0
   -7.1733   -6.8384  -21.4941 C   0  0  1  0  0  0  0  0  0  0  0  0
   -8.1394   -5.9998  -22.2820 N   0  0  0  0  0  0  0  0  0  0  0  0
   -6.0211  -13.3381  -21.6859 C   0  0  0  0  0  0  0  0  0  0  0  0
   -6.7533  -11.9590  -18.9794 C   0  0  2  0  0  0  0  0  0  0  0  0
   -5.9014   -7.2185  -22.4378 C   0  0  1  0  0  0  0  0  0  0  0  0
   -5.2083   -6.0692  -22.8848 O   0  0  0  0  0  0  0  0  0  0  0  0
   -7.0817  -12.5564  -21.9384 C   0  0  2  0  0  0  0  0  0  0  0  0
   -8.3297  -12.6653  -21.2317 O   0  0  0  0  0  0  0  0  0  0  0  0
   -7.2552  -10.4548  -19.0090 C   0  0  2  0  0  0  0  0  0  0  0  0
   -8.0695  -10.2374  -20.1682 O   0  0  0  0  0  0  0  0  0  0  0  0
   -4.8939   -8.0940  -21.6190 C   0  0  0  0  0  0  0  0  0  0  0  0
   -4.5323   -7.3876  -20.3232 O   0  0  0  0  0  0  0  0  0  0  0  0
   -7.0458  -11.4636  -23.0322 C   0  0  0  0  0  0  0  0  0  0  0  0
   -7.8307  -10.3160  -22.5994 N   0  0  0  0  0  0  0  0  0  0  0  0
   -6.0212   -9.4835  -19.0685 C   0  0  1  0  0  0  0  0  0  0  0  0
   -6.5055   -8.1621  -19.0880 O   0  0  0  0  0  0  0  0  0  0  0  0
   -6.2324   -7.9961  -23.7225 C   0  0  0  0  0  0  0  0  0  0  0  0
   -7.7152   -4.6189  -22.5809 C   0  0  0  0  0  0  0  0  0  0  0  0
  1  2  1  1  0  0  0
  1  6  1  0  0  0  0
  1 21  1  0  0  0  0
  3  4  1  6  0  0  0
  3  8  1  0  0  0  0
  3 28  1  0  0  0  0
  5  9  1  0  0  0  0
  5 25  1  0  0  0  0
  5 29  1  6  0  0  0
  6  7  1  1  0  0  0
  6 11  1  0  0  0  0
  8 12  1  0  0  0  0
  9 10  1  1  0  0  0
  9 14  1  0  0  0  0
 11 16  1  0  0  0  0
 12 13  1  6  0  0  0
 12 17  1  0  0  0  0
 14 15  1  6  0  0  0
 14 18  1  0  0  0  0
 15 31  1  0  0  0  0
 16 20  1  0  0  0  0
 17  2  1  1  0  0  0
 17 22  1  0  0  0  0
 18 19  1  6  0  0  0
 18 24  1  0  0  0  0
 18 30  1  0  0  0  0
 20 21  1  0  0  0  0
 20 26  1  6  0  0  0
 22 23  1  6  0  0  0
 22 28  1  0  0  0  0
 24 25  1  0  0  0  0
 26 27  1  0  0  0  0
 28 29  1  1  0  0  0
M  END
>  <CHROM.1>
86.18123968,143.92887583,48.72776431,-142.40148346,-144.64474988,75.18631096
-6.56707123,-9.96093061,-20.36533847,1.70687699,1.12656887,2.77011547

>  <Name>
ligand

>  <RI>
0

>  <Rbt.Current_Directory>
/home/itssahil/PROJECTS/Mol_Feturizer/New_Systems/rnas/4F8U

>  <Rbt.Executable>
rbdock ($Id: //depot/dev/client3/rdock/2013.1/src/exe/rbdock.cxx#4 $)

>  <Rbt.Library>
libRbt.so (2013.1, Build901 2013/11/27)

>  <Rbt.Parameter_File>
/export/apps/rDock/src/rDock_2013.1_src/data/scripts/dock_solv.prm

>  <Rbt.Receptor>
prm/blind_docking_60.prm

>  <SCORE>
30.6279

>  <SCORE.INTER>
5.90472

>  <SCORE.INTER.CONST>
1

>  <SCORE.INTER.POLAR>
0

>  <SCORE.INTER.ROT>
6

>  <SCORE.INTER.SOLV>
24.231

>  <SCORE.INTER.VDW>
-11.7405

>  <SCORE.INTER.norm>
0.190475

>  <SCORE.INTRA>
5.81558

>  <SCORE.INTRA.DIHEDRAL>
-2.60759

>  <SCORE.INTRA.DIHEDRAL.0>
18.77

>  <SCORE.INTRA.POLAR>
0

>  <SCORE.INTRA.POLAR.0>
0

>  <SCORE.INTRA.REPUL>
0

>  <SCORE.INTRA.REPUL.0>
0

>  <SCORE.INTRA.SOLV>
8.8442

>  <SCORE.INTRA.SOLV.lig_0>
-77.2465

>  <SCORE.INTRA.VDW>
2.69727

>  <SCORE.INTRA.VDW.0>
-4.16072

>  <SCORE.INTRA.norm>
0.187599

>  <SCORE.RESTR>
18.9076

>  <SCORE.RESTR.CAVITY>
18.9076

>  <SCORE.RESTR.norm>
0.609922

>  <SCORE.SYSTEM>
0

>  <SCORE.SYSTEM.CONST>
0

>  <SCORE.SYSTEM.DIHEDRAL>
0

>  <SCORE.SYSTEM.SOLV>
0

>  <SCORE.SYSTEM.norm>
0

>  <SCORE.heavy>
31

>  <SCORE.norm>
0.987996

>  <RMSD>
8.474

$$$$
ligand
 OpenBabel11021811493D
libRbt.so/2013.1/901 2013/11/27
 31 33  0  0  0  0  0  0  0  0999 V2000
   -4.6197  -11.3467  -12.7329 C   0  0  2  0  0  0  0  0  0  0  0  0
   -3.7880  -12.1486  -13.5825 O   0  0  0  0  0  0  0  0  0  0  0  0
   -4.3151  -13.8162  -17.4895 C   0  0  2  0  0  0  0  0  0  0  0  0
   -4.8128  -14.6361  -18.5517 N   0  0  0  0  0  0  0  0  0  0  0  0
   -7.2262  -11.3268  -17.7232 C   0  0  2  0  0  0  0  0  0  0  0  0
   -3.6543  -10.4042  -11.9319 C   0  0  2  0  0  0  0  0  0  0  0  0
   -2.8612   -9.6070  -12.8611 N   0  0  0  0  0  0  0  0  0  0  0  0
   -3.6891  -14.7450  -16.3789 C   0  0  0  0  0  0  0  0  0  0  0  0
   -7.8500  -11.2009  -19.1473 C   0  0  2  0  0  0  0  0  0  0  0  0
   -8.1615  -12.4962  -19.6312 O   0  0  0  0  0  0  0  0  0  0  0  0
   -2.7252  -11.2611  -11.0031 C   0  0  0  0  0  0  0  0  0  0  0  0
   -3.1295  -13.8327  -15.2033 C   0  0  2  0  0  0  0  0  0  0  0  0
   -2.5401  -14.6950  -14.1525 N   0  0  0  0  0  0  0  0  0  0  0  0
   -6.7644  -10.4926  -20.0725 C   0  0  1  0  0  0  0  0  0  0  0  0
   -7.2728  -10.3603  -21.4801 N   0  0  0  0  0  0  0  0  0  0  0  0
   -3.5525  -12.3168  -10.2142 C   0  0  0  0  0  0  0  0  0  0  0  0
   -4.3156  -12.9571  -14.5987 C   0  0  2  0  0  0  0  0  0  0  0  0
   -6.4409   -9.0108  -19.4789 C   0  0  1  0  0  0  0  0  0  0  0  0
   -7.5913   -8.1884  -19.4452 O   0  0  0  0  0  0  0  0  0  0  0  0
   -4.7729  -12.6889  -10.6288 C   0  0  2  0  0  0  0  0  0  0  0  0
   -5.4048  -12.1542  -11.8051 O   0  0  0  0  0  0  0  0  0  0  0  0
   -4.9402  -12.0587  -15.7469 C   0  0  2  0  0  0  0  0  0  0  0  0
   -6.0249  -11.2836  -15.2210 O   0  0  0  0  0  0  0  0  0  0  0  0
   -5.9092   -9.1465  -18.0122 C   0  0  0  0  0  0  0  0  0  0  0  0
   -6.8874   -9.9613  -17.1828 O   0  0  0  0  0  0  0  0  0  0  0  0
   -5.6115  -13.7343   -9.8571 C   0  0  0  0  0  0  0  0  0  0  0  0
   -5.9618  -14.8311  -10.7485 N   0  0  0  0  0  0  0  0  0  0  0  0
   -5.4861  -12.9746  -16.9013 C   0  0  1  0  0  0  0  0  0  0  0  0
   -6.0259  -12.1434  -17.9006 O   0  0  0  0  0  0  0  0  0  0  0  0
   -5.4008   -8.1911  -20.2605 C   0  0  0  0  0  0  0  0  0  0  0  0
   -7.1944  -11.5699  -22.3210 C   0  0  0  0  0  0  0  0  0  0  0  0
  1  2  1  6  0  0  0
  1  6  1  0  0  0  0
  1 21  1  0  0  0  0
  3  4  1  6  0  0  0
  3  8  1  0  0  0  0
  3 28  1  0  0  0  0
  5  9  1  0  0  0  0
  5 25  1  0  0  0  0
  5 29  1  6  0  0  0
  6  7  1  6  0  0  0
  6 11  1  0  0  0  0
  8 12  1  0  0  0  0
  9 10  1  6  0  0  0
  9 14  1  0  0  0  0
 11 16  1  0  0  0  0
 12 13  1  1  0  0  0
 12 17  1  0  0  0  0
 14 15  1  6  0  0  0
 14 18  1  0  0  0  0
 15 31  1  0  0  0  0
 16 20  1  0  0  0  0
 17  2  1  1  0  0  0
 17 22  1  0  0  0  0
 18 19  1  1  0  0  0
 18 24  1  0  0  0  0
 18 30  1  0  0  0  0
 20 21  1  0  0  0  0
 20 26  1  1  0  0  0
 22 23  1  1  0  0  0
 22 28  1  0  0  0  0
 24 25  1  0  0  0  0
 26 27  1  0  0  0  0
 28 29  1  6  0  0  0
M  END
>  <CHROM.1>
-169.53004408,-151.38681517,-79.42707593,-172.88879796,-123.40050029,173.36200030
-5.35311298,-11.77006092,-15.90997003,0.29892538,-1.24980132,0.56532404

>  <Name>
ligand

>  <RI>
0

>  <Rbt.Current_Directory>
/home/itssahil/PROJECTS/Mol_Feturizer/New_Systems/rnas/4F8U

>  <Rbt.Executable>
rbdock ($Id: //depot/dev/client3/rdock/2013.1/src/exe/rbdock.cxx#4 $)

>  <Rbt.Library>
libRbt.so (2013.1, Build901 2013/11/27)

>  <Rbt.Parameter_File>
/export/apps/rDock/src/rDock_2013.1_src/data/scripts/dock_solv.prm

>  <Rbt.Receptor>
prm/pocket_docking_5.prm

>  <SCORE>
-14.4156

>  <SCORE.INTER>
-8.78522

>  <SCORE.INTER.CONST>
1

>  <SCORE.INTER.POLAR>
0

>  <SCORE.INTER.ROT>
6

>  <SCORE.INTER.SOLV>
14.8759

>  <SCORE.INTER.VDW>
-18.4154

>  <SCORE.INTER.norm>
-0.283394

>  <SCORE.INTRA>
-5.63036

>  <SCORE.INTRA.DIHEDRAL>
-12.4584

>  <SCORE.INTRA.DIHEDRAL.0>
18.77

>  <SCORE.INTRA.POLAR>
0

>  <SCORE.INTRA.POLAR.0>
0

>  <SCORE.INTRA.REPUL>
0

>  <SCORE.INTRA.REPUL.0>
0

>  <SCORE.INTRA.SOLV>
-2.69874

>  <SCORE.INTRA.SOLV.lig_0>
-77.2465

>  <SCORE.INTRA.VDW>
1.94821

>  <SCORE.INTRA.VDW.0>
-4.16072

>  <SCORE.INTRA.norm>
-0.181625

>  <SCORE.RESTR>
0

>  <SCORE.RESTR.CAVITY>
0

>  <SCORE.RESTR.norm>
0

>  <SCORE.SYSTEM>
0

>  <SCORE.SYSTEM.CONST>
0

>  <SCORE.SYSTEM.DIHEDRAL>
0

>  <SCORE.SYSTEM.SOLV>
0

>  <SCORE.SYSTEM.norm>
0

>  <SCORE.heavy>
31

>  <SCORE.norm>
-0.465019

>  <RMSD>
8.479

$$$$
ligand
 OpenBabel11021811493D
libRbt.so/2013.1/901 2013/11/27
 31 33  0  0  0  0  0  0  0  0999 V2000
   -2.8575  -14.2666  -13.6798 C   0  0  2  0  0  0  0  0  0  0  0  0
   -3.9777  -13.6096  -13.0714 O   0  0  0  0  0  0  0  0  0  0  0  0
   -7.4775  -11.6542  -14.5718 C   0  0  2  0  0  0  0  0  0  0  0  0
   -8.3094  -10.7036  -15.2443 N   0  0  0  0  0  0  0  0  0  0  0  0
   -8.1942  -12.3288  -17.5149 C   0  0  2  0  0  0  0  0  0  0  0  0
   -2.3604  -15.3388  -12.6477 C   0  0  2  0  0  0  0  0  0  0  0  0
   -3.4483  -16.2567  -12.3285 N   0  0  0  0  0  0  0  0  0  0  0  0
   -6.6450  -10.9068  -13.4599 C   0  0  0  0  0  0  0  0  0  0  0  0
   -8.8528  -13.4775  -18.3396 C   0  0  2  0  0  0  0  0  0  0  0  0
   -9.5448  -14.3425  -17.4556 O   0  0  0  0  0  0  0  0  0  0  0  0
   -1.8375  -14.6263  -11.3520 C   0  0  0  0  0  0  0  0  0  0  0  0
   -5.7272  -11.9652  -12.7084 C   0  0  2  0  0  0  0  0  0  0  0  0
   -4.9386  -11.2737  -11.6619 N   0  0  0  0  0  0  0  0  0  0  0  0
   -7.6777  -14.2488  -19.0884 C   0  0  1  0  0  0  0  0  0  0  0  0
   -8.2229  -15.3996  -19.8856 N   0  0  0  0  0  0  0  0  0  0  0  0
   -0.8861  -13.4491  -11.7128 C   0  0  0  0  0  0  0  0  0  0  0  0
   -4.7562  -12.6679  -13.7583 C   0  0  2  0  0  0  0  0  0  0  0  0
   -6.9148  -13.2168  -20.0913 C   0  0  1  0  0  0  0  0  0  0  0  0
   -7.7854  -12.6866  -21.0720 O   0  0  0  0  0  0  0  0  0  0  0  0
   -0.9018  -12.8979  -12.9358 C   0  0  2  0  0  0  0  0  0  0  0  0
   -1.7742  -13.3398  -13.9905 O   0  0  0  0  0  0  0  0  0  0  0  0
   -5.6246  -13.3835  -14.8761 C   0  0  2  0  0  0  0  0  0  0  0  0
   -4.7619  -13.9992  -15.8408 O   0  0  0  0  0  0  0  0  0  0  0  0
   -6.3443  -12.0172  -19.2620 C   0  0  0  0  0  0  0  0  0  0  0  0
   -7.4527  -11.3910  -18.4324 O   0  0  0  0  0  0  0  0  0  0  0  0
    0.0377  -11.7292  -13.3143 C   0  0  0  0  0  0  0  0  0  0  0  0
   -0.7543  -10.5990  -13.7787 N   0  0  0  0  0  0  0  0  0  0  0  0
   -6.5270  -12.3249  -15.6073 C   0  0  1  0  0  0  0  0  0  0  0  0
   -7.2840  -12.9968  -16.5853 O   0  0  0  0  0  0  0  0  0  0  0  0
   -5.7426  -13.8081  -20.8919 C   0  0  0  0  0  0  0  0  0  0  0  0
   -7.5467  -16.6985  -19.7067 C   0  0  0  0  0  0  0  0  0  0  0  0
  1  2  1  1  0  0  0
  1  6  1  0  0  0  0
  1 21  1  0  0  0  0
  3  4  1  6  0  0  0
  3  8  1  0  0  0  0
  3 28  1  0  0  0  0
  5  9  1  0  0  0  0
  5 25  1  0  0  0  0
  5 29  1  1  0  0  0
  6  7  1  1  0  0  0
  6 11  1  0  0  0  0
  8 12  1  0  0  0  0
  9 10  1  1  0  0  0
  9 14  1  0  0  0  0
 11 16  1  0  0  0  0
 12 13  1  1  0  0  0
 12 17  1  0  0  0  0
 14 15  1  6  0  0  0
 14 18  1  0  0  0  0
 15 31  1  0  0  0  0
 16 20  1  0  0  0  0
 17  2  1  1  0  0  0
 17 22  1  0  0  0  0
 18 19  1  6  0  0  0
 18 24  1  0  0  0  0
 18 30  1  0  0  0  0
 20 21  1  0  0  0  0
 20 26  1  6  0  0  0
 22 23  1  6  0  0  0
 22 28  1  0  0  0  0
 24 25  1  0  0  0  0
 26 27  1  0  0  0  0
 28 29  1  6  0  0  0
M  END
>  <CHROM.1>
-174.10483896,-177.00450612,-131.08029249,-169.93980867,-123.31082022,63.89256410
-5.34273714,-13.15963307,-15.68800986,-0.72538087,0.51159997,-2.13302122

>  <Name>
ligand

>  <RI>
0

>  <Rbt.Current_Directory>
/home/itssahil/PROJECTS/Mol_Feturizer/New_Systems/rnas/4F8U

>  <Rbt.Executable>
rbdock ($Id: //depot/dev/client3/rdock/2013.1/src/exe/rbdock.cxx#4 $)

>  <Rbt.Library>
libRbt.so (2013.1, Build901 2013/11/27)

>  <Rbt.Parameter_File>
/export/apps/rDock/src/rDock_2013.1_src/data/scripts/dock_solv.prm

>  <Rbt.Receptor>
prm/pocket_docking_6.prm

>  <SCORE>
-11.8666

>  <SCORE.INTER>
-4.44563

>  <SCORE.INTER.CONST>
1

>  <SCORE.INTER.POLAR>
0

>  <SCORE.INTER.ROT>
6

>  <SCORE.INTER.SOLV>
11.9583

>  <SCORE.INTER.VDW>
-14.5499

>  <SCORE.INTER.norm>
-0.143408

>  <SCORE.INTRA>
-7.42099

>  <SCORE.INTRA.DIHEDRAL>
-15.192

>  <SCORE.INTRA.DIHEDRAL.0>
18.77

>  <SCORE.INTRA.POLAR>
0

>  <SCORE.INTRA.POLAR.0>
0

>  <SCORE.INTRA.REPUL>
0

>  <SCORE.INTRA.REPUL.0>
0

>  <SCORE.INTRA.SOLV>
-1.6356

>  <SCORE.INTRA.SOLV.lig_0>
-77.2465

>  <SCORE.INTRA.VDW>
0.992805

>  <SCORE.INTRA.VDW.0>
-4.16072

>  <SCORE.INTRA.norm>
-0.239387

>  <SCORE.RESTR>
0

>  <SCORE.RESTR.CAVITY>
0

>  <SCORE.RESTR.norm>
0

>  <SCORE.SYSTEM>
0

>  <SCORE.SYSTEM.CONST>
0

>  <SCORE.SYSTEM.DIHEDRAL>
0

>  <SCORE.SYSTEM.SOLV>
0

>  <SCORE.SYSTEM.norm>
0

>  <SCORE.heavy>
31

>  <SCORE.norm>
-0.382794

>  <RMSD>
8.480

$$$$
ligand
 OpenBabel11021811493D
libRbt.so/2013.1/901 2013/11/27
 31 33  0  0  0  0  0  0  0  0999 V2000
   -3.4421  -10.5699  -13.7040 C   0  0  2  0  0  0  0  0  0  0  0  0
   -3.4249  -11.8966  -14.2482 O   0  0  0  0  0  0  0  0  0  0  0  0
   -5.8110  -13.8697  -17.2041 C   0  0  2  0  0  0  0  0  0  0  0  0
   -6.9346  -14.4864  -17.8406 N   0  0  0  0  0  0  0  0  0  0  0  0
   -7.5217  -10.6852  -18.1508 C   0  0  2  0  0  0  0  0  0  0  0  0
   -2.0063  -10.3108  -13.1266 C   0  0  2  0  0  0  0  0  0  0  0  0
   -1.0137  -10.4750  -14.1828 N   0  0  0  0  0  0  0  0  0  0  0  0
   -5.4634  -14.6737  -15.8923 C   0  0  0  0  0  0  0  0  0  0  0  0
   -7.8490  -10.5991  -19.6736 C   0  0  2  0  0  0  0  0  0  0  0  0
   -8.2776  -11.8719  -20.1264 O   0  0  0  0  0  0  0  0  0  0  0  0
   -1.7242  -11.2988  -11.9416 C   0  0  0  0  0  0  0  0  0  0  0  0
   -4.2102  -13.9925  -15.1903 C   0  0  2  0  0  0  0  0  0  0  0  0
   -3.8752  -14.7388  -13.9550 N   0  0  0  0  0  0  0  0  0  0  0  0
   -6.5126  -10.1507  -20.4146 C   0  0  1  0  0  0  0  0  0  0  0  0
   -6.7299  -10.0741  -21.8993 N   0  0  0  0  0  0  0  0  0  0  0  0
   -2.9248  -11.3344  -10.9523 C   0  0  0  0  0  0  0  0  0  0  0  0
   -4.5540  -12.4757  -14.8437 C   0  0  2  0  0  0  0  0  0  0  0  0
   -6.0614   -8.6858  -19.8636 C   0  0  1  0  0  0  0  0  0  0  0  0
   -7.0473   -7.7003  -20.1038 O   0  0  0  0  0  0  0  0  0  0  0  0
   -4.1438  -10.9207  -11.3299 C   0  0  2  0  0  0  0  0  0  0  0  0
   -4.4354  -10.4186  -12.6458 O   0  0  0  0  0  0  0  0  0  0  0  0
   -4.9266  -11.7055  -16.1792 C   0  0  2  0  0  0  0  0  0  0  0  0
   -5.2619  -10.3451  -15.8776 O   0  0  0  0  0  0  0  0  0  0  0  0
   -5.8327   -8.7638  -18.3164 C   0  0  0  0  0  0  0  0  0  0  0  0
   -7.0653   -9.3420  -17.6418 O   0  0  0  0  0  0  0  0  0  0  0  0
   -5.3487  -10.9458  -10.3606 C   0  0  0  0  0  0  0  0  0  0  0  0
   -6.3604  -11.8632  -10.8657 N   0  0  0  0  0  0  0  0  0  0  0  0
   -6.1646  -12.3922  -16.8614 C   0  0  1  0  0  0  0  0  0  0  0  0
   -6.4607  -11.6858  -18.0422 O   0  0  0  0  0  0  0  0  0  0  0  0
   -4.7766   -8.1077  -20.4798 C   0  0  0  0  0  0  0  0  0  0  0  0
   -7.8719   -9.2576  -22.3525 C   0  0  0  0  0  0  0  0  0  0  0  0
  1  2  1  1  0  0  0
  1  6  1  0  0  0  0
  1 21  1  0  0  0  0
  3  4  1  1  0  0  0
  3  8  1  0  0  0  0
  3 28  1  0  0  0  0
  5  9  1  0  0  0  0
  5 25  1  0  0  0  0
  5 29  1  6  0  0  0
  6  7  1  6  0  0  0
  6 11  1  0  0  0  0
  8 12  1  0  0  0  0
  9 10  1  6  0  0  0
  9 14  1  0  0  0  0
 11 16  1  0  0  0  0
 12 13  1  1  0  0  0
 12 17  1  0  0  0  0
 14 15  1  6  0  0  0
 14 18  1  0  0  0  0
 15 31  1  0  0  0  0
 16 20  1  0  0  0  0
 17  2  1  6  0  0  0
 17 22  1  0  0  0  0
 18 19  1  6  0  0  0
 18 24  1  0  0  0  0
 18 30  1  0  0  0  0
 20 21  1  0  0  0  0
 20 26  1  1  0  0  0
 22 23  1  1  0  0  0
 22 28  1  0  0  0  0
 24 25  1  0  0  0  0
 26 27  1  0  0  0  0
 28 29  1  6  0  0  0
M  END
>  <CHROM.1>
179.39347837,-158.38796473,52.77136832,-174.16586472,-116.59926137,141.18245296
-5.31735349,-11.11613945,-16.30086718,-0.71608705,-1.03948370,-0.57225433

>  <Name>
ligand

>  <RI>
0

>  <Rbt.Current_Directory>
/home/itssahil/PROJECTS/Mol_Feturizer/New_Systems/rnas/4F8U

>  <Rbt.Executable>
rbdock ($Id: //depot/dev/client3/rdock/2013.1/src/exe/rbdock.cxx#4 $)

>  <Rbt.Library>
libRbt.so (2013.1, Build901 2013/11/27)

>  <Rbt.Parameter_File>
/export/apps/rDock/src/rDock_2013.1_src/data/scripts/dock_solv.prm

>  <Rbt.Receptor>
prm/pocket_docking_4.prm

>  <SCORE>
-11.7491

>  <SCORE.INTER>
-8.41676

>  <SCORE.INTER.CONST>
1

>  <SCORE.INTER.POLAR>
0

>  <SCORE.INTER.ROT>
6

>  <SCORE.INTER.SOLV>
12.0739

>  <SCORE.INTER.VDW>
-17.2358

>  <SCORE.INTER.norm>
-0.271508

>  <SCORE.INTRA>
-3.33229

>  <SCORE.INTRA.DIHEDRAL>
-9.59018

>  <SCORE.INTRA.DIHEDRAL.0>
18.77

>  <SCORE.INTRA.POLAR>
0

>  <SCORE.INTRA.POLAR.0>
0

>  <SCORE.INTRA.REPUL>
0

>  <SCORE.INTRA.REPUL.0>
0

>  <SCORE.INTRA.SOLV>
-1.97717

>  <SCORE.INTRA.SOLV.lig_0>
-77.2465

>  <SCORE.INTRA.VDW>
2.45138

>  <SCORE.INTRA.VDW.0>
-4.16072

>  <SCORE.INTRA.norm>
-0.107493

>  <SCORE.RESTR>
0

>  <SCORE.RESTR.CAVITY>
0

>  <SCORE.RESTR.norm>
0

>  <SCORE.SYSTEM>
0

>  <SCORE.SYSTEM.CONST>
0

>  <SCORE.SYSTEM.DIHEDRAL>
0

>  <SCORE.SYSTEM.SOLV>
0

>  <SCORE.SYSTEM.norm>
0

>  <SCORE.heavy>
31

>  <SCORE.norm>
-0.379002

>  <RMSD>
8.481

$$$$
ligand
 OpenBabel11021811493D
libRbt.so/2013.1/901 2013/11/27
 31 33  0  0  0  0  0  0  0  0999 V2000
   -5.3753  -11.7447  -12.0306 C   0  0  2  0  0  0  0  0  0  0  0  0
   -4.2947  -12.2519  -12.8253 O   0  0  0  0  0  0  0  0  0  0  0  0
   -3.8186  -12.9622  -17.0196 C   0  0  2  0  0  0  0  0  0  0  0  0
   -3.9845  -13.5394  -18.3186 N   0  0  0  0  0  0  0  0  0  0  0  0
   -6.8710  -10.6439  -17.2599 C   0  0  2  0  0  0  0  0  0  0  0  0
   -4.7194  -10.9204  -10.8677 C   0  0  2  0  0  0  0  0  0  0  0  0
   -3.8831   -9.8629  -11.4244 N   0  0  0  0  0  0  0  0  0  0  0  0
   -3.3038  -14.0761  -16.0286 C   0  0  0  0  0  0  0  0  0  0  0  0
   -7.6740  -10.8954  -18.5734 C   0  0  2  0  0  0  0  0  0  0  0  0
   -7.9072  -12.2865  -18.7128 O   0  0  0  0  0  0  0  0  0  0  0  0
   -3.8735  -11.8732   -9.9531 C   0  0  0  0  0  0  0  0  0  0  0  0
   -3.1124  -13.4319  -14.5879 C   0  0  2  0  0  0  0  0  0  0  0  0
   -2.6302  -14.4701  -13.6473 N   0  0  0  0  0  0  0  0  0  0  0  0
   -6.7885  -10.3425  -19.7761 C   0  0  1  0  0  0  0  0  0  0  0  0
   -7.4762  -10.5757  -21.0914 N   0  0  0  0  0  0  0  0  0  0  0  0
   -4.6807  -13.1530   -9.5897 C   0  0  0  0  0  0  0  0  0  0  0  0
   -4.5001  -12.8318  -14.0848 C   0  0  2  0  0  0  0  0  0  0  0  0
   -6.5493   -8.7443  -19.5733 C   0  0  1  0  0  0  0  0  0  0  0  0
   -7.7655   -8.0222  -19.5567 O   0  0  0  0  0  0  0  0  0  0  0  0
   -5.7367  -13.5354  -10.3234 C   0  0  2  0  0  0  0  0  0  0  0  0
   -6.2022  -12.8111  -11.4756 O   0  0  0  0  0  0  0  0  0  0  0  0
   -5.0021  -11.7380  -15.1178 C   0  0  2  0  0  0  0  0  0  0  0  0
   -6.2626  -11.2075  -14.6889 O   0  0  0  0  0  0  0  0  0  0  0  0
   -5.8310   -8.4991  -18.2035 C   0  0  0  0  0  0  0  0  0  0  0  0
   -6.6113   -9.1696  -17.0853 O   0  0  0  0  0  0  0  0  0  0  0  0
   -6.5531  -14.8023   -9.9769 C   0  0  0  0  0  0  0  0  0  0  0  0
   -6.5814  -15.6930  -11.1286 N   0  0  0  0  0  0  0  0  0  0  0  0
   -5.1839  -12.3898  -16.5361 C   0  0  1  0  0  0  0  0  0  0  0  0
   -5.6238  -11.3899  -17.4236 O   0  0  0  0  0  0  0  0  0  0  0  0
   -5.7026   -8.0536  -20.6553 C   0  0  0  0  0  0  0  0  0  0  0  0
   -7.2147  -11.8715  -21.7463 C   0  0  0  0  0  0  0  0  0  0  0  0
  1  2  1  6  0  0  0
  1  6  1  0  0  0  0
  1 21  1  0  0  0  0
  3  4  1  6  0  0  0
  3  8  1  0  0  0  0
  3 28  1  0  0  0  0
  5  9  1  0  0  0  0
  5 25  1  0  0  0  0
  5 29  1  6  0  0  0
  6  7  1  6  0  0  0
  6 11  1  0  0  0  0
  8 12  1  0  0  0  0
  9 10  1  6  0  0  0
  9 14  1  0  0  0  0
 11 16  1  0  0  0  0
 12 13  1  1  0  0  0
 12 17  1  0  0  0  0
 14 15  1  6  0  0  0
 14 18  1  0  0  0  0
 15 31  1  0  0  0  0
 16 20  1  0  0  0  0
 17  2  1  1  0  0  0
 17 22  1  0  0  0  0
 18 19  1  1  0  0  0
 18 24  1  0  0  0  0
 18 30  1  0  0  0  0
 20 21  1  0  0  0  0
 20 26  1  1  0  0  0
 22 23  1  1  0  0  0
 22 28  1  0  0  0  0
 24 25  1  0  0  0  0
 26 27  1  0  0  0  0
 28 29  1  6  0  0  0
M  END
>  <CHROM.1>
-168.20336531,-122.54928670,-88.10954860,-173.30737348,-123.84253135,-179.80837723
-5.57039675,-11.71248578,-15.49325544,0.90798984,-1.24398106,1.27644703

>  <Name>
ligand

>  <RI>
0

>  <Rbt.Current_Directory>
/home/itssahil/PROJECTS/Mol_Feturizer/New_Systems/rnas/4F8U

>  <Rbt.Executable>
rbdock ($Id: //depot/dev/client3/rdock/2013.1/src/exe/rbdock.cxx#4 $)

>  <Rbt.Library>
libRbt.so (2013.1, Build901 2013/11/27)

>  <Rbt.Parameter_File>
/export/apps/rDock/src/rDock_2013.1_src/data/scripts/dock_solv.prm

>  <Rbt.Receptor>
prm/pocket_docking_4.prm

>  <SCORE>
-12.4691

>  <SCORE.INTER>
-8.44464

>  <SCORE.INTER.CONST>
1

>  <SCORE.INTER.POLAR>
0

>  <SCORE.INTER.ROT>
6

>  <SCORE.INTER.SOLV>
15.473

>  <SCORE.INTER.VDW>
-18.3874

>  <SCORE.INTER.norm>
-0.272408

>  <SCORE.INTRA>
-4.02658

>  <SCORE.INTRA.DIHEDRAL>
-8.47573

>  <SCORE.INTRA.DIHEDRAL.0>
18.77

>  <SCORE.INTRA.POLAR>
0

>  <SCORE.INTRA.POLAR.0>
0

>  <SCORE.INTRA.REPUL>
0

>  <SCORE.INTRA.REPUL.0>
0

>  <SCORE.INTRA.SOLV>
-2.81345

>  <SCORE.INTRA.SOLV.lig_0>
-77.2465

>  <SCORE.INTRA.VDW>
1.61801

>  <SCORE.INTRA.VDW.0>
-4.16072

>  <SCORE.INTRA.norm>
-0.12989

>  <SCORE.RESTR>
0.00212703

>  <SCORE.RESTR.CAVITY>
0.00212703

>  <SCORE.RESTR.norm>
6.86139e-05

>  <SCORE.SYSTEM>
0

>  <SCORE.SYSTEM.CONST>
0

>  <SCORE.SYSTEM.DIHEDRAL>
0

>  <SCORE.SYSTEM.SOLV>
0

>  <SCORE.SYSTEM.norm>
0

>  <SCORE.heavy>
31

>  <SCORE.norm>
-0.402229

>  <RMSD>
8.496

$$$$
ligand
 OpenBabel11021811493D
libRbt.so/2013.1/901 2013/11/27
 31 33  0  0  0  0  0  0  0  0999 V2000
   -7.1957  -13.0979  -19.4067 C   0  0  2  0  0  0  0  0  0  0  0  0
   -6.1279  -12.3571  -18.8003 O   0  0  0  0  0  0  0  0  0  0  0  0
   -8.0689   -8.7387  -17.5909 C   0  0  2  0  0  0  0  0  0  0  0  0
   -8.2592   -7.3835  -17.1722 N   0  0  0  0  0  0  0  0  0  0  0  0
   -7.9133   -6.7453  -20.4317 C   0  0  2  0  0  0  0  0  0  0  0  0
   -6.6418  -14.5439  -19.6602 C   0  0  2  0  0  0  0  0  0  0  0  0
   -6.1939  -15.1275  -18.4006 N   0  0  0  0  0  0  0  0  0  0  0  0
   -7.1827   -9.4836  -16.5197 C   0  0  0  0  0  0  0  0  0  0  0  0
   -7.5386   -6.9349  -21.9339 C   0  0  2  0  0  0  0  0  0  0  0  0
   -8.6263   -7.5446  -22.6078 O   0  0  0  0  0  0  0  0  0  0  0  0
   -5.4648  -14.4878  -20.6953 C   0  0  0  0  0  0  0  0  0  0  0  0
   -6.9786  -10.9910  -16.9819 C   0  0  2  0  0  0  0  0  0  0  0  0
   -6.1455  -11.7008  -15.9833 N   0  0  0  0  0  0  0  0  0  0  0  0
   -6.2462   -7.8644  -21.9799 C   0  0  1  0  0  0  0  0  0  0  0  0
   -5.8330   -8.1276  -23.4002 N   0  0  0  0  0  0  0  0  0  0  0  0
   -5.8501  -13.6163  -21.9255 C   0  0  0  0  0  0  0  0  0  0  0  0
   -6.2731  -11.0186  -18.4103 C   0  0  2  0  0  0  0  0  0  0  0  0
   -5.0261   -7.1228  -21.1963 C   0  0  1  0  0  0  0  0  0  0  0  0
   -4.6931   -5.8803  -21.7847 O   0  0  0  0  0  0  0  0  0  0  0  0
   -6.8500  -12.7247  -21.8548 C   0  0  2  0  0  0  0  0  0  0  0  0
   -7.6325  -12.5075  -20.6676 O   0  0  0  0  0  0  0  0  0  0  0  0
   -7.1755  -10.2370  -19.4545 C   0  0  2  0  0  0  0  0  0  0  0  0
   -6.5395  -10.2336  -20.7389 O   0  0  0  0  0  0  0  0  0  0  0  0
   -5.4542   -6.8490  -19.7150 C   0  0  0  0  0  0  0  0  0  0  0  0
   -6.7732   -6.0951  -19.6909 O   0  0  0  0  0  0  0  0  0  0  0  0
   -7.2495  -11.8515  -23.0670 C   0  0  0  0  0  0  0  0  0  0  0  0
   -7.9815  -10.6811  -22.6034 N   0  0  0  0  0  0  0  0  0  0  0  0
   -7.3693   -8.7507  -18.9822 C   0  0  1  0  0  0  0  0  0  0  0  0
   -8.1771   -8.0930  -19.9288 O   0  0  0  0  0  0  0  0  0  0  0  0
   -3.6980   -7.8962  -21.1451 C   0  0  0  0  0  0  0  0  0  0  0  0
   -6.8412   -8.7654  -24.2679 C   0  0  0  0  0  0  0  0  0  0  0  0
  1  2  1  6  0  0  0
  1  6  1  0  0  0  0
  1 21  1  0  0  0  0
  3  4  1  1  0  0  0
  3  8  1  0  0  0  0
  3 28  1  0  0  0  0
  5  9  1  0  0  0  0
  5 25  1  0  0  0  0
  5 29  1  1  0  0  0
  6  7  1  1  0  0  0
  6 11  1  0  0  0  0
  8 12  1  0  0  0  0
  9 10  1  6  0  0  0
  9 14  1  0  0  0  0
 11 16  1  0  0  0  0
 12 13  1  1  0  0  0
 12 17  1  0  0  0  0
 14 15  1  6  0  0  0
 14 18  1  0  0  0  0
 15 31  1  0  0  0  0
 16 20  1  0  0  0  0
 17  2  1  6  0  0  0
 17 22  1  0  0  0  0
 18 19  1  6  0  0  0
 18 24  1  0  0  0  0
 18 30  1  0  0  0  0
 20 21  1  0  0  0  0
 20 26  1  6  0  0  0
 22 23  1  6  0  0  0
 22 28  1  0  0  0  0
 24 25  1  0  0  0  0
 26 27  1  0  0  0  0
 28 29  1  6  0  0  0
M  END
>  <CHROM.1>
-178.86935276,112.50611960,-58.19623959,82.26388116,-159.32179576,104.21499547
-6.70775485,-9.88703522,-20.25810335,-1.55050085,1.47316573,-0.30440047

>  <Name>
ligand

>  <RI>
0

>  <Rbt.Current_Directory>
/home/itssahil/PROJECTS/Mol_Feturizer/New_Systems/rnas/4F8U

>  <Rbt.Executable>
rbdock ($Id: //depot/dev/client3/rdock/2013.1/src/exe/rbdock.cxx#4 $)

>  <Rbt.Library>
libRbt.so (2013.1, Build901 2013/11/27)

>  <Rbt.Parameter_File>
/export/apps/rDock/src/rDock_2013.1_src/data/scripts/dock_solv.prm

>  <Rbt.Receptor>
prm/blind_docking_60.prm

>  <SCORE>
79.8862

>  <SCORE.INTER>
50.9458

>  <SCORE.INTER.CONST>
1

>  <SCORE.INTER.POLAR>
0

>  <SCORE.INTER.ROT>
6

>  <SCORE.INTER.SOLV>
28.0151

>  <SCORE.INTER.VDW>
17.0255

>  <SCORE.INTER.norm>
1.64341

>  <SCORE.INTRA>
11.7616

>  <SCORE.INTRA.DIHEDRAL>
-0.52505

>  <SCORE.INTRA.DIHEDRAL.0>
18.77

>  <SCORE.INTRA.POLAR>
0

>  <SCORE.INTRA.POLAR.0>
0

>  <SCORE.INTRA.REPUL>
0.0765644

>  <SCORE.INTRA.REPUL.0>
0

>  <SCORE.INTRA.SOLV>
7.62277

>  <SCORE.INTRA.SOLV.lig_0>
-77.2465

>  <SCORE.INTRA.VDW>
7.82988

>  <SCORE.INTRA.VDW.0>
-4.16072

>  <SCORE.INTRA.norm>
0.379405

>  <SCORE.RESTR>
17.1788

>  <SCORE.RESTR.CAVITY>
17.1788

>  <SCORE.RESTR.norm>
0.554156

>  <SCORE.SYSTEM>
0

>  <SCORE.SYSTEM.CONST>
0

>  <SCORE.SYSTEM.DIHEDRAL>
0

>  <SCORE.SYSTEM.SOLV>
0

>  <SCORE.SYSTEM.norm>
0

>  <SCORE.heavy>
31

>  <SCORE.norm>
2.57697

>  <RMSD>
8.530

$$$$
ligand
 OpenBabel11021811493D
libRbt.so/2013.1/901 2013/11/27
 31 33  0  0  0  0  0  0  0  0999 V2000
   -5.4092  -11.7698  -11.9842 C   0  0  2  0  0  0  0  0  0  0  0  0
   -4.3296  -12.2294  -12.8087 O   0  0  0  0  0  0  0  0  0  0  0  0
   -3.8517  -12.9950  -16.9931 C   0  0  2  0  0  0  0  0  0  0  0  0
   -4.0261  -13.5811  -18.2869 N   0  0  0  0  0  0  0  0  0  0  0  0
   -6.8443  -10.6045  -17.2752 C   0  0  2  0  0  0  0  0  0  0  0  0
   -4.7579  -10.9222  -10.8356 C   0  0  2  0  0  0  0  0  0  0  0  0
   -3.9812   -9.8292  -11.4099 N   0  0  0  0  0  0  0  0  0  0  0  0
   -3.3707  -14.1115  -15.9881 C   0  0  0  0  0  0  0  0  0  0  0  0
   -7.6292  -10.8255  -18.6050 C   0  0  2  0  0  0  0  0  0  0  0  0
   -7.8951  -12.2090  -18.7597 O   0  0  0  0  0  0  0  0  0  0  0  0
   -3.8494  -11.8414   -9.9470 C   0  0  0  0  0  0  0  0  0  0  0  0
   -3.1697  -13.4576  -14.5531 C   0  0  2  0  0  0  0  0  0  0  0  0
   -2.7192  -14.4982  -13.5995 N   0  0  0  0  0  0  0  0  0  0  0  0
   -6.7082  -10.2863  -19.7870 C   0  0  1  0  0  0  0  0  0  0  0  0
   -7.3775  -10.4918  -21.1163 N   0  0  0  0  0  0  0  0  0  0  0  0
   -4.5929  -13.1547   -9.5677 C   0  0  0  0  0  0  0  0  0  0  0  0
   -4.5438  -12.8167  -14.0632 C   0  0  2  0  0  0  0  0  0  0  0  0
   -6.4321   -8.6962  -19.5670 C   0  0  1  0  0  0  0  0  0  0  0  0
   -7.6297   -7.9434  -19.5666 O   0  0  0  0  0  0  0  0  0  0  0  0
   -5.6510  -13.5787  -10.2751 C   0  0  2  0  0  0  0  0  0  0  0  0
   -6.1762  -12.8714  -11.4119 O   0  0  0  0  0  0  0  0  0  0  0  0
   -5.0124  -11.7211  -15.1099 C   0  0  2  0  0  0  0  0  0  0  0  0
   -6.2607  -11.1538  -14.6929 O   0  0  0  0  0  0  0  0  0  0  0  0
   -5.7330   -8.4799  -18.1825 C   0  0  0  0  0  0  0  0  0  0  0  0
   -6.5504   -9.1387  -17.0840 O   0  0  0  0  0  0  0  0  0  0  0  0
   -6.4046  -14.8796   -9.9122 C   0  0  0  0  0  0  0  0  0  0  0  0
   -7.7451  -14.5518   -9.4475 N   0  0  0  0  0  0  0  0  0  0  0  0
   -5.2041  -12.3826  -16.5225 C   0  0  1  0  0  0  0  0  0  0  0  0
   -5.6136  -11.3808  -17.4223 O   0  0  0  0  0  0  0  0  0  0  0  0
   -5.5486   -8.0192  -20.6279 C   0  0  0  0  0  0  0  0  0  0  0  0
   -7.1578  -11.7985  -21.7648 C   0  0  0  0  0  0  0  0  0  0  0  0
  1  2  1  6  0  0  0
  1  6  1  0  0  0  0
  1 21  1  0  0  0  0
  3  4  1  6  0  0  0
  3  8  1  0  0  0  0
  3 28  1  0  0  0  0
  5  9  1  0  0  0  0
  5 25  1  0  0  0  0
  5 29  1  6  0  0  0
  6  7  1  6  0  0  0
  6 11  1  0  0  0  0
  8 12  1  0  0  0  0
  9 10  1  6  0  0  0
  9 14  1  0  0  0  0
 11 16  1  0  0  0  0
 12 13  1  1  0  0  0
 12 17  1  0  0  0  0
 14 15  1  6  0  0  0
 14 18  1  0  0  0  0
 15 31  1  0  0  0  0
 16 20  1  0  0  0  0
 17  2  1  1  0  0  0
 17 22  1  0  0  0  0
 18 19  1  1  0  0  0
 18 24  1  0  0  0  0
 18 30  1  0  0  0  0
 20 21  1  0  0  0  0
 20 26  1  1  0  0  0
 22 23  1  1  0  0  0
 22 28  1  0  0  0  0
 24 25  1  0  0  0  0
 26 27  1  0  0  0  0
 28 29  1  6  0  0  0
M  END
>  <CHROM.1>
-168.35804376,-123.69227342,-86.98647586,-168.89689158,112.81622960,179.96725127
-5.58424402,-11.66141867,-15.42581874,1.15226874,-1.15004348,1.51472970

>  <Name>
ligand

>  <RI>
0

>  <Rbt.Current_Directory>
/home/itssahil/PROJECTS/Mol_Feturizer/New_Systems/rnas/4F8U

>  <Rbt.Executable>
rbdock ($Id: //depot/dev/client3/rdock/2013.1/src/exe/rbdock.cxx#4 $)

>  <Rbt.Library>
libRbt.so (2013.1, Build901 2013/11/27)

>  <Rbt.Parameter_File>
/export/apps/rDock/src/rDock_2013.1_src/data/scripts/dock_solv.prm

>  <Rbt.Receptor>
prm/pocket_docking_4.prm

>  <SCORE>
-12.7488

>  <SCORE.INTER>
-8.81533

>  <SCORE.INTER.CONST>
1

>  <SCORE.INTER.POLAR>
0

>  <SCORE.INTER.ROT>
6

>  <SCORE.INTER.SOLV>
15.4488

>  <SCORE.INTER.VDW>
-18.6265

>  <SCORE.INTER.norm>
-0.284365

>  <SCORE.INTRA>
-3.94498

>  <SCORE.INTRA.DIHEDRAL>
-8.14216

>  <SCORE.INTRA.DIHEDRAL.0>
18.77

>  <SCORE.INTRA.POLAR>
0

>  <SCORE.INTRA.POLAR.0>
0

>  <SCORE.INTRA.REPUL>
0

>  <SCORE.INTRA.REPUL.0>
0

>  <SCORE.INTRA.SOLV>
-2.83469

>  <SCORE.INTRA.SOLV.lig_0>
-77.2465

>  <SCORE.INTRA.VDW>
1.54344

>  <SCORE.INTRA.VDW.0>
-4.16072

>  <SCORE.INTRA.norm>
-0.127258

>  <SCORE.RESTR>
0.0115431

>  <SCORE.RESTR.CAVITY>
0.0115431

>  <SCORE.RESTR.norm>
0.000372358

>  <SCORE.SYSTEM>
0

>  <SCORE.SYSTEM.CONST>
0

>  <SCORE.SYSTEM.DIHEDRAL>
0

>  <SCORE.SYSTEM.SOLV>
0

>  <SCORE.SYSTEM.norm>
0

>  <SCORE.heavy>
31

>  <SCORE.norm>
-0.411251

>  <RMSD>
8.545

$$$$
ligand
 OpenBabel11021811493D
libRbt.so/2013.1/901 2013/11/27
 31 33  0  0  0  0  0  0  0  0999 V2000
   -6.7253  -11.5074  -13.0798 C   0  0  2  0  0  0  0  0  0  0  0  0
   -6.3754  -10.4201  -13.9469 O   0  0  0  0  0  0  0  0  0  0  0  0
   -3.8860   -9.6430  -17.3414 C   0  0  2  0  0  0  0  0  0  0  0  0
   -3.2197   -9.8190  -18.5956 N   0  0  0  0  0  0  0  0  0  0  0  0
   -7.1938   -8.2797  -18.7248 C   0  0  2  0  0  0  0  0  0  0  0  0
   -7.8638  -10.9748  -12.1408 C   0  0  2  0  0  0  0  0  0  0  0  0
   -8.9883  -10.5097  -12.9451 N   0  0  0  0  0  0  0  0  0  0  0  0
   -3.4445  -10.7987  -16.3629 C   0  0  0  0  0  0  0  0  0  0  0  0
   -7.7072   -9.3866  -19.6967 C   0  0  2  0  0  0  0  0  0  0  0  0
   -7.6104  -10.6463  -19.0543 O   0  0  0  0  0  0  0  0  0  0  0  0
   -7.3103   -9.8170  -11.2390 C   0  0  0  0  0  0  0  0  0  0  0  0
   -4.1791  -10.5976  -14.9675 C   0  0  2  0  0  0  0  0  0  0  0  0
   -3.7730  -11.6793  -14.0400 N   0  0  0  0  0  0  0  0  0  0  0  0
   -6.7839   -9.3356  -20.9933 C   0  0  1  0  0  0  0  0  0  0  0  0
   -7.1899  -10.3979  -21.9752 N   0  0  0  0  0  0  0  0  0  0  0  0
   -5.9489  -10.2158  -10.5994 C   0  0  0  0  0  0  0  0  0  0  0  0
   -5.7569  -10.6223  -15.1884 C   0  0  2  0  0  0  0  0  0  0  0  0
   -6.9295   -7.8735  -21.6962 C   0  0  1  0  0  0  0  0  0  0  0  0
   -8.2598   -7.6049  -22.0948 O   0  0  0  0  0  0  0  0  0  0  0  0
   -5.2047  -11.2040  -11.1183 C   0  0  2  0  0  0  0  0  0  0  0  0
   -5.5943  -11.9614  -12.2774 O   0  0  0  0  0  0  0  0  0  0  0  0
   -6.1617   -9.4682  -16.1983 C   0  0  2  0  0  0  0  0  0  0  0  0
   -7.5766   -9.4953  -16.4245 O   0  0  0  0  0  0  0  0  0  0  0  0
   -6.5052   -6.7648  -20.6749 C   0  0  0  0  0  0  0  0  0  0  0  0
   -7.2884   -6.9272  -19.3830 O   0  0  0  0  0  0  0  0  0  0  0  0
   -3.8506  -11.6166  -10.4955 C   0  0  0  0  0  0  0  0  0  0  0  0
   -3.9778  -12.9308   -9.8815 N   0  0  0  0  0  0  0  0  0  0  0  0
   -5.4259   -9.6801  -17.5706 C   0  0  1  0  0  0  0  0  0  0  0  0
   -5.8053   -8.6367  -18.4357 O   0  0  0  0  0  0  0  0  0  0  0  0
   -6.0923   -7.6580  -22.9679 C   0  0  0  0  0  0  0  0  0  0  0  0
   -6.9402  -11.7941  -21.5697 C   0  0  0  0  0  0  0  0  0  0  0  0
  1  2  1  6  0  0  0
  1  6  1  0  0  0  0
  1 21  1  0  0  0  0
  3  4  1  6  0  0  0
  3  8  1  0  0  0  0
  3 28  1  0  0  0  0
  5  9  1  0  0  0  0
  5 25  1  0  0  0  0
  5 29  1  6  0  0  0
  6  7  1  6  0  0  0
  6 11  1  0  0  0  0
  8 12  1  0  0  0  0
  9 10  1  1  0  0  0
  9 14  1  0  0  0  0
 11 16  1  0  0  0  0
 12 13  1  1  0  0  0
 12 17  1  0  0  0  0
 14 15  1  6  0  0  0
 14 18  1  0  0  0  0
 15 31  1  0  0  0  0
 16 20  1  0  0  0  0
 17  2  1  1  0  0  0
 17 22  1  0  0  0  0
 18 19  1  6  0  0  0
 18 24  1  0  0  0  0
 18 30  1  0  0  0  0
 20 21  1  0  0  0  0
 20 26  1  1  0  0  0
 22 23  1  6  0  0  0
 22 28  1  0  0  0  0
 24 25  1  0  0  0  0
 26 27  1  0  0  0  0
 28 29  1  6  0  0  0
M  END
>  <CHROM.1>
-157.37985801,-75.46125728,-68.11705363,-90.21492300,110.24949212,-171.90070504
-6.13996985,-9.93166017,-16.54653062,1.42812596,-0.34730693,1.79664122

>  <Name>
ligand

>  <RI>
0

>  <Rbt.Current_Directory>
/home/itssahil/PROJECTS/Mol_Feturizer/New_Systems/rnas/4F8U

>  <Rbt.Executable>
rbdock ($Id: //depot/dev/client3/rdock/2013.1/src/exe/rbdock.cxx#4 $)

>  <Rbt.Library>
libRbt.so (2013.1, Build901 2013/11/27)

>  <Rbt.Parameter_File>
/export/apps/rDock/src/rDock_2013.1_src/data/scripts/dock_solv.prm

>  <Rbt.Receptor>
prm/pocket_docking_4.prm

>  <SCORE>
-10.7684

>  <SCORE.INTER>
-9.57153

>  <SCORE.INTER.CONST>
1

>  <SCORE.INTER.POLAR>
0

>  <SCORE.INTER.ROT>
6

>  <SCORE.INTER.SOLV>
19.3116

>  <SCORE.INTER.VDW>
-20.4182

>  <SCORE.INTER.norm>
-0.308759

>  <SCORE.INTRA>
-1.19686

>  <SCORE.INTRA.DIHEDRAL>
-9.59096

>  <SCORE.INTRA.DIHEDRAL.0>
18.77

>  <SCORE.INTRA.POLAR>
0

>  <SCORE.INTRA.POLAR.0>
0

>  <SCORE.INTRA.REPUL>
0

>  <SCORE.INTRA.REPUL.0>
0

>  <SCORE.INTRA.SOLV>
1.08549

>  <SCORE.INTRA.SOLV.lig_0>
-77.2465

>  <SCORE.INTRA.VDW>
3.05587

>  <SCORE.INTRA.VDW.0>
-4.16072

>  <SCORE.INTRA.norm>
-0.0386085

>  <SCORE.RESTR>
0

>  <SCORE.RESTR.CAVITY>
0

>  <SCORE.RESTR.norm>
0

>  <SCORE.SYSTEM>
0

>  <SCORE.SYSTEM.CONST>
0

>  <SCORE.SYSTEM.DIHEDRAL>
0

>  <SCORE.SYSTEM.SOLV>
0

>  <SCORE.SYSTEM.norm>
0

>  <SCORE.heavy>
31

>  <SCORE.norm>
-0.347368

>  <RMSD>
8.546

$$$$
ligand
 OpenBabel11021811493D
libRbt.so/2013.1/901 2013/11/27
 31 33  0  0  0  0  0  0  0  0999 V2000
   -5.4549  -14.1281  -12.2392 C   0  0  2  0  0  0  0  0  0  0  0  0
   -6.3128  -12.9874  -12.3781 O   0  0  0  0  0  0  0  0  0  0  0  0
   -7.8611  -10.8574  -15.7530 C   0  0  2  0  0  0  0  0  0  0  0  0
   -7.9124  -10.0336  -16.9220 N   0  0  0  0  0  0  0  0  0  0  0  0
   -7.7108  -12.3113  -18.4402 C   0  0  2  0  0  0  0  0  0  0  0  0
   -5.7132  -14.7026  -10.8021 C   0  0  2  0  0  0  0  0  0  0  0  0
   -7.1253  -15.0363  -10.6517 N   0  0  0  0  0  0  0  0  0  0  0  0
   -7.2880  -10.0070  -14.5545 C   0  0  0  0  0  0  0  0  0  0  0  0
   -8.2748  -13.5101  -19.2636 C   0  0  2  0  0  0  0  0  0  0  0  0
   -9.4768  -13.9590  -18.6614 O   0  0  0  0  0  0  0  0  0  0  0  0
   -5.2733  -13.6525   -9.7235 C   0  0  0  0  0  0  0  0  0  0  0  0
   -7.2390  -10.9208  -13.2546 C   0  0  2  0  0  0  0  0  0  0  0  0
   -6.7003  -10.1324  -12.1218 N   0  0  0  0  0  0  0  0  0  0  0  0
   -7.1662  -14.6533  -19.2447 C   0  0  1  0  0  0  0  0  0  0  0  0
   -7.6431  -15.8665  -19.9917 N   0  0  0  0  0  0  0  0  0  0  0  0
   -3.8634  -13.0806  -10.0498 C   0  0  0  0  0  0  0  0  0  0  0  0
   -6.3178  -12.1910  -13.5317 C   0  0  2  0  0  0  0  0  0  0  0  0
   -5.8077  -14.0924  -19.9467 C   0  0  1  0  0  0  0  0  0  0  0  0
   -6.0221  -13.7123  -21.2922 O   0  0  0  0  0  0  0  0  0  0  0  0
   -3.3524  -13.1664  -11.2872 C   0  0  2  0  0  0  0  0  0  0  0  0
   -4.0452  -13.7817  -12.3873 O   0  0  0  0  0  0  0  0  0  0  0  0
   -6.9056  -13.0057  -14.7590 C   0  0  2  0  0  0  0  0  0  0  0  0
   -6.0715  -14.1383  -15.0340 O   0  0  0  0  0  0  0  0  0  0  0  0
   -5.3080  -12.8287  -19.1686 C   0  0  0  0  0  0  0  0  0  0  0  0
   -6.4318  -11.8117  -19.0614 O   0  0  0  0  0  0  0  0  0  0  0  0
   -1.9522  -12.6066  -11.6305 C   0  0  0  0  0  0  0  0  0  0  0  0
   -2.0667  -11.6408  -12.7143 N   0  0  0  0  0  0  0  0  0  0  0  0
   -6.9494  -12.0883  -16.0342 C   0  0  1  0  0  0  0  0  0  0  0  0
   -7.4800  -12.8427  -17.0974 O   0  0  0  0  0  0  0  0  0  0  0  0
   -4.6302  -15.0796  -20.0053 C   0  0  0  0  0  0  0  0  0  0  0  0
   -7.7458  -17.1158  -19.2139 C   0  0  0  0  0  0  0  0  0  0  0  0
  1  2  1  1  0  0  0
  1  6  1  0  0  0  0
  1 21  1  0  0  0  0
  3  4  1  6  0  0  0
  3  8  1  0  0  0  0
  3 28  1  0  0  0  0
  5  9  1  0  0  0  0
  5 25  1  0  0  0  0
  5 29  1  1  0  0  0
  6  7  1  6  0  0  0
  6 11  1  0  0  0  0
  8 12  1  0  0  0  0
  9 10  1  1  0  0  0
  9 14  1  0  0  0  0
 11 16  1  0  0  0  0
 12 13  1  1  0  0  0
 12 17  1  0  0  0  0
 14 15  1  6  0  0  0
 14 18  1  0  0  0  0
 15 31  1  0  0  0  0
 16 20  1  0  0  0  0
 17  2  1  1  0  0  0
 17 22  1  0  0  0  0
 18 19  1  6  0  0  0
 18 24  1  0  0  0  0
 18 30  1  0  0  0  0
 20 21  1  0  0  0  0
 20 26  1  1  0  0  0
 22 23  1  6  0  0  0
 22 28  1  0  0  0  0
 24 25  1  0  0  0  0
 26 27  1  0  0  0  0
 28 29  1  6  0  0  0
M  END
>  <CHROM.1>
177.89334097,178.98498249,-119.20247727,-172.55561575,-123.15849835,58.88834375
-6.19865473,-13.11709283,-15.44037088,-1.08426364,0.96435825,-2.10381852

>  <Name>
ligand

>  <RI>
0

>  <Rbt.Current_Directory>
/home/itssahil/PROJECTS/Mol_Feturizer/New_Systems/rnas/4F8U

>  <Rbt.Executable>
rbdock ($Id: //depot/dev/client3/rdock/2013.1/src/exe/rbdock.cxx#4 $)

>  <Rbt.Library>
libRbt.so (2013.1, Build901 2013/11/27)

>  <Rbt.Parameter_File>
/export/apps/rDock/src/rDock_2013.1_src/data/scripts/dock_solv.prm

>  <Rbt.Receptor>
prm/pocket_docking_8.prm

>  <SCORE>
-10.6663

>  <SCORE.INTER>
-3.3965

>  <SCORE.INTER.CONST>
1

>  <SCORE.INTER.POLAR>
0

>  <SCORE.INTER.ROT>
6

>  <SCORE.INTER.SOLV>
13.2524

>  <SCORE.INTER.VDW>
-14.2818

>  <SCORE.INTER.norm>
-0.109565

>  <SCORE.INTRA>
-7.26976

>  <SCORE.INTRA.DIHEDRAL>
-15.5693

>  <SCORE.INTRA.DIHEDRAL.0>
18.77

>  <SCORE.INTRA.POLAR>
0

>  <SCORE.INTRA.POLAR.0>
0

>  <SCORE.INTRA.REPUL>
0

>  <SCORE.INTRA.REPUL.0>
0

>  <SCORE.INTRA.SOLV>
-1.32972

>  <SCORE.INTRA.SOLV.lig_0>
-77.2465

>  <SCORE.INTRA.VDW>
1.17973

>  <SCORE.INTRA.VDW.0>
-4.16072

>  <SCORE.INTRA.norm>
-0.234508

>  <SCORE.RESTR>
0

>  <SCORE.RESTR.CAVITY>
0

>  <SCORE.RESTR.norm>
0

>  <SCORE.SYSTEM>
0

>  <SCORE.SYSTEM.CONST>
0

>  <SCORE.SYSTEM.DIHEDRAL>
0

>  <SCORE.SYSTEM.SOLV>
0

>  <SCORE.SYSTEM.norm>
0

>  <SCORE.heavy>
31

>  <SCORE.norm>
-0.344073

>  <RMSD>
8.557

$$$$
ligand
 OpenBabel11021811493D
libRbt.so/2013.1/901 2013/11/27
 31 33  0  0  0  0  0  0  0  0999 V2000
   -8.5930  -13.3553  -20.2710 C   0  0  2  0  0  0  0  0  0  0  0  0
   -8.1892  -12.5967  -19.1230 O   0  0  0  0  0  0  0  0  0  0  0  0
   -5.3998   -9.5917  -17.8930 C   0  0  2  0  0  0  0  0  0  0  0  0
   -4.2117   -8.7962  -17.8321 N   0  0  0  0  0  0  0  0  0  0  0  0
   -5.4221   -6.9983  -19.5312 C   0  0  2  0  0  0  0  0  0  0  0  0
   -7.6986  -14.6445  -20.2853 C   0  0  2  0  0  0  0  0  0  0  0  0
   -7.8704  -15.3769  -19.0355 N   0  0  0  0  0  0  0  0  0  0  0  0
   -5.0206  -11.0969  -17.6127 C   0  0  0  0  0  0  0  0  0  0  0  0
   -6.0803   -5.8756  -20.3912 C   0  0  2  0  0  0  0  0  0  0  0  0
   -7.3105   -5.4996  -19.7963 O   0  0  0  0  0  0  0  0  0  0  0  0
   -6.1960  -14.2460  -20.4928 C   0  0  0  0  0  0  0  0  0  0  0  0
   -6.3422  -11.9783  -17.6727 C   0  0  2  0  0  0  0  0  0  0  0  0
   -5.9978  -13.3956  -17.4124 N   0  0  0  0  0  0  0  0  0  0  0  0
   -6.3116   -6.4769  -21.8476 C   0  0  1  0  0  0  0  0  0  0  0  0
   -6.9767   -5.4665  -22.7387 N   0  0  0  0  0  0  0  0  0  0  0  0
   -6.0487  -13.2298  -21.6620 C   0  0  0  0  0  0  0  0  0  0  0  0
   -7.0170  -11.8282  -19.1084 C   0  0  2  0  0  0  0  0  0  0  0  0
   -4.8733   -6.8919  -22.4894 C   0  0  1  0  0  0  0  0  0  0  0  0
   -4.0032   -5.7828  -22.6066 O   0  0  0  0  0  0  0  0  0  0  0  0
   -7.0972  -12.5088  -22.0870 C   0  0  2  0  0  0  0  0  0  0  0  0
   -8.4127  -12.6146  -21.5152 O   0  0  0  0  0  0  0  0  0  0  0  0
   -7.3579  -10.3013  -19.3690 C   0  0  2  0  0  0  0  0  0  0  0  0
   -7.9435  -10.1495  -20.6682 O   0  0  0  0  0  0  0  0  0  0  0  0
   -4.1790   -7.9463  -21.5630 C   0  0  0  0  0  0  0  0  0  0  0  0
   -4.1085   -7.4156  -20.1409 O   0  0  0  0  0  0  0  0  0  0  0  0
   -6.9716  -11.4960  -23.2490 C   0  0  0  0  0  0  0  0  0  0  0  0
   -7.7786  -10.3193  -22.9582 N   0  0  0  0  0  0  0  0  0  0  0  0
   -6.0423   -9.4441  -19.3039 C   0  0  1  0  0  0  0  0  0  0  0  0
   -6.3854   -8.0986  -19.5341 O   0  0  0  0  0  0  0  0  0  0  0  0
   -4.9226   -7.4973  -23.9021 C   0  0  0  0  0  0  0  0  0  0  0  0
   -8.4515   -5.4401  -22.7118 C   0  0  0  0  0  0  0  0  0  0  0  0
  1  2  1  1  0  0  0
  1  6  1  0  0  0  0
  1 21  1  0  0  0  0
  3  4  1  6  0  0  0
  3  8  1  0  0  0  0
  3 28  1  0  0  0  0
  5  9  1  0  0  0  0
  5 25  1  0  0  0  0
  5 29  1  6  0  0  0
  6  7  1  1  0  0  0
  6 11  1  0  0  0  0
  8 12  1  0  0  0  0
  9 10  1  1  0  0  0
  9 14  1  0  0  0  0
 11 16  1  0  0  0  0
 12 13  1  6  0  0  0
 12 17  1  0  0  0  0
 14 15  1  6  0  0  0
 14 18  1  0  0  0  0
 15 31  1  0  0  0  0
 16 20  1  0  0  0  0
 17  2  1  1  0  0  0
 17 22  1  0  0  0  0
 18 19  1  6  0  0  0
 18 24  1  0  0  0  0
 18 30  1  0  0  0  0
 20 21  1  0  0  0  0
 20 26  1  6  0  0  0
 22 23  1  6  0  0  0
 22 28  1  0  0  0  0
 24 25  1  0  0  0  0
 26 27  1  0  0  0  0
 28 29  1  1  0  0  0
M  END
>  <CHROM.1>
77.44303361,156.56590741,-87.62377709,-140.97747390,-141.62589115,59.86918473
-6.43458465,-9.83886762,-20.49888604,2.02355739,1.11736646,2.46706003

>  <Name>
ligand

>  <RI>
0

>  <Rbt.Current_Directory>
/home/itssahil/PROJECTS/Mol_Feturizer/New_Systems/rnas/4F8U

>  <Rbt.Executable>
rbdock ($Id: //depot/dev/client3/rdock/2013.1/src/exe/rbdock.cxx#4 $)

>  <Rbt.Library>
libRbt.so (2013.1, Build901 2013/11/27)

>  <Rbt.Parameter_File>
/export/apps/rDock/src/rDock_2013.1_src/data/scripts/dock_solv.prm

>  <Rbt.Receptor>
prm/blind_docking_60.prm

>  <SCORE>
28.7483

>  <SCORE.INTER>
5.21821

>  <SCORE.INTER.CONST>
1

>  <SCORE.INTER.POLAR>
0

>  <SCORE.INTER.ROT>
6

>  <SCORE.INTER.SOLV>
23.5116

>  <SCORE.INTER.VDW>
-11.9584

>  <SCORE.INTER.norm>
0.168329

>  <SCORE.INTRA>
3.96277

>  <SCORE.INTRA.DIHEDRAL>
-6.98356

>  <SCORE.INTRA.DIHEDRAL.0>
18.77

>  <SCORE.INTRA.POLAR>
0

>  <SCORE.INTRA.POLAR.0>
0

>  <SCORE.INTRA.REPUL>
0

>  <SCORE.INTRA.REPUL.0>
0

>  <SCORE.INTRA.SOLV>
7.47109

>  <SCORE.INTRA.SOLV.lig_0>
-77.2465

>  <SCORE.INTRA.VDW>
3.719

>  <SCORE.INTRA.VDW.0>
-4.16072

>  <SCORE.INTRA.norm>
0.127831

>  <SCORE.RESTR>
19.5673

>  <SCORE.RESTR.CAVITY>
19.5673

>  <SCORE.RESTR.norm>
0.631204

>  <SCORE.SYSTEM>
0

>  <SCORE.SYSTEM.CONST>
0

>  <SCORE.SYSTEM.DIHEDRAL>
0

>  <SCORE.SYSTEM.SOLV>
0

>  <SCORE.SYSTEM.norm>
0

>  <SCORE.heavy>
31

>  <SCORE.norm>
0.927364

>  <RMSD>
8.566

$$$$
ligand
 OpenBabel11021811493D
libRbt.so/2013.1/901 2013/11/27
 31 33  0  0  0  0  0  0  0  0999 V2000
   -3.1373  -13.2120  -13.5745 C   0  0  2  0  0  0  0  0  0  0  0  0
   -2.3904  -13.3492  -14.7909 O   0  0  0  0  0  0  0  0  0  0  0  0
   -3.3879  -13.5145  -18.9504 C   0  0  2  0  0  0  0  0  0  0  0  0
   -3.9483  -13.9655  -20.1875 N   0  0  0  0  0  0  0  0  0  0  0  0
   -6.5650  -11.7076  -17.7711 C   0  0  2  0  0  0  0  0  0  0  0  0
   -2.1358  -12.6579  -12.5012 C   0  0  2  0  0  0  0  0  0  0  0  0
   -1.5695  -11.3949  -12.9617 N   0  0  0  0  0  0  0  0  0  0  0  0
   -2.4327  -14.6350  -18.3847 C   0  0  0  0  0  0  0  0  0  0  0  0
   -7.5603  -11.3191  -18.9076 C   0  0  2  0  0  0  0  0  0  0  0  0
   -7.8477  -12.4701  -19.6831 O   0  0  0  0  0  0  0  0  0  0  0  0
   -1.0032  -13.7106  -12.2384 C   0  0  0  0  0  0  0  0  0  0  0  0
   -1.8046  -14.1296  -17.0146 C   0  0  2  0  0  0  0  0  0  0  0  0
   -0.9060  -15.1755  -16.4725 N   0  0  0  0  0  0  0  0  0  0  0  0
   -6.8493  -10.2002  -19.7899 C   0  0  1  0  0  0  0  0  0  0  0  0
   -7.7305   -9.7889  -20.9351 N   0  0  0  0  0  0  0  0  0  0  0  0
   -1.6046  -15.1301  -12.0268 C   0  0  0  0  0  0  0  0  0  0  0  0
   -2.9729  -13.8134  -15.9783 C   0  0  2  0  0  0  0  0  0  0  0  0
   -6.5411   -8.9003  -18.8582 C   0  0  1  0  0  0  0  0  0  0  0  0
   -7.7222   -8.3439  -18.3138 O   0  0  0  0  0  0  0  0  0  0  0  0
   -2.8414  -15.4272  -12.4533 C   0  0  2  0  0  0  0  0  0  0  0  0
   -3.6952  -14.4819  -13.1213 O   0  0  0  0  0  0  0  0  0  0  0  0
   -3.9293  -12.7060  -16.5904 C   0  0  2  0  0  0  0  0  0  0  0  0
   -4.9991  -12.4300  -15.6775 O   0  0  0  0  0  0  0  0  0  0  0  0
   -5.6212   -9.3265  -17.6646 C   0  0  0  0  0  0  0  0  0  0  0  0
   -6.2439  -10.5005  -16.9279 O   0  0  0  0  0  0  0  0  0  0  0  0
   -3.4575  -16.8310  -12.2499 C   0  0  0  0  0  0  0  0  0  0  0  0
   -3.8781  -17.3687  -13.5362 N   0  0  0  0  0  0  0  0  0  0  0  0
   -4.5396  -13.2198  -17.9444 C   0  0  1  0  0  0  0  0  0  0  0  0
   -5.3757  -12.2106  -18.4578 O   0  0  0  0  0  0  0  0  0  0  0  0
   -5.8469   -7.7232  -19.5632 C   0  0  0  0  0  0  0  0  0  0  0  0
   -7.5483  -10.5271  -22.1993 C   0  0  0  0  0  0  0  0  0  0  0  0
  1  2  1  6  0  0  0
  1  6  1  0  0  0  0
  1 21  1  0  0  0  0
  3  4  1  6  0  0  0
  3  8  1  0  0  0  0
  3 28  1  0  0  0  0
  5  9  1  0  0  0  0
  5 25  1  0  0  0  0
  5 29  1  6  0  0  0
  6  7  1  6  0  0  0
  6 11  1  0  0  0  0
  8 12  1  0  0  0  0
  9 10  1  6  0  0  0
  9 14  1  0  0  0  0
 11 16  1  0  0  0  0
 12 13  1  1  0  0  0
 12 17  1  0  0  0  0
 14 15  1  6  0  0  0
 14 18  1  0  0  0  0
 15 31  1  0  0  0  0
 16 20  1  0  0  0  0
 17  2  1  1  0  0  0
 17 22  1  0  0  0  0
 18 19  1  1  0  0  0
 18 24  1  0  0  0  0
 18 30  1  0  0  0  0
 20 21  1  0  0  0  0
 20 26  1  1  0  0  0
 22 23  1  1  0  0  0
 22 28  1  0  0  0  0
 24 25  1  0  0  0  0
 26 27  1  0  0  0  0
 28 29  1  6  0  0  0
M  END
>  <CHROM.1>
-179.46739748,-147.72645941,-91.48744932,-168.07337736,-124.41987224,179.13333396
-4.43070291,-12.55953129,-16.65144773,0.25251933,-1.02801173,0.91779771

>  <Name>
ligand

>  <RI>
0

>  <Rbt.Current_Directory>
/home/itssahil/PROJECTS/Mol_Feturizer/New_Systems/rnas/4F8U

>  <Rbt.Executable>
rbdock ($Id: //depot/dev/client3/rdock/2013.1/src/exe/rbdock.cxx#4 $)

>  <Rbt.Library>
libRbt.so (2013.1, Build901 2013/11/27)

>  <Rbt.Parameter_File>
/export/apps/rDock/src/rDock_2013.1_src/data/scripts/dock_solv.prm

>  <Rbt.Receptor>
prm/pocket_docking_7.prm

>  <SCORE>
-13.0207

>  <SCORE.INTER>
-7.41273

>  <SCORE.INTER.CONST>
1

>  <SCORE.INTER.POLAR>
0

>  <SCORE.INTER.ROT>
6

>  <SCORE.INTER.SOLV>
12.6053

>  <SCORE.INTER.VDW>
-16.7436

>  <SCORE.INTER.norm>
-0.23912

>  <SCORE.INTRA>
-5.608

>  <SCORE.INTRA.DIHEDRAL>
-11.7023

>  <SCORE.INTRA.DIHEDRAL.0>
18.77

>  <SCORE.INTRA.POLAR>
0

>  <SCORE.INTRA.POLAR.0>
0

>  <SCORE.INTRA.REPUL>
0

>  <SCORE.INTRA.REPUL.0>
0

>  <SCORE.INTRA.SOLV>
-2.53869

>  <SCORE.INTRA.SOLV.lig_0>
-77.2465

>  <SCORE.INTRA.VDW>
1.51249

>  <SCORE.INTRA.VDW.0>
-4.16072

>  <SCORE.INTRA.norm>
-0.180903

>  <SCORE.RESTR>
0

>  <SCORE.RESTR.CAVITY>
0

>  <SCORE.RESTR.norm>
0

>  <SCORE.SYSTEM>
0

>  <SCORE.SYSTEM.CONST>
0

>  <SCORE.SYSTEM.DIHEDRAL>
0

>  <SCORE.SYSTEM.SOLV>
0

>  <SCORE.SYSTEM.norm>
0

>  <SCORE.heavy>
31

>  <SCORE.norm>
-0.420024

>  <RMSD>
8.576

$$$$
ligand
 OpenBabel11021811493D
libRbt.so/2013.1/901 2013/11/27
 31 33  0  0  0  0  0  0  0  0999 V2000
   -8.0871   -4.0809  -23.3763 C   0  0  2  0  0  0  0  0  0  0  0  0
   -7.7109   -5.4648  -23.3797 O   0  0  0  0  0  0  0  0  0  0  0  0
   -5.2307   -7.9079  -20.8890 C   0  0  2  0  0  0  0  0  0  0  0  0
   -4.7240   -8.5779  -19.7305 N   0  0  0  0  0  0  0  0  0  0  0  0
   -7.8264  -10.6641  -21.2583 C   0  0  2  0  0  0  0  0  0  0  0  0
   -9.1568   -3.9113  -24.5116 C   0  0  2  0  0  0  0  0  0  0  0  0
  -10.2839   -4.8034  -24.2635 N   0  0  0  0  0  0  0  0  0  0  0  0
   -5.2256   -6.3533  -20.6220 C   0  0  0  0  0  0  0  0  0  0  0  0
   -7.8123  -11.0835  -19.7559 C   0  0  2  0  0  0  0  0  0  0  0  0
   -7.9061   -9.9206  -18.9510 O   0  0  0  0  0  0  0  0  0  0  0  0
   -8.5048   -4.2153  -25.9053 C   0  0  0  0  0  0  0  0  0  0  0  0
   -5.7813   -5.6096  -21.9126 C   0  0  2  0  0  0  0  0  0  0  0  0
   -5.7827   -4.1476  -21.6727 N   0  0  0  0  0  0  0  0  0  0  0  0
   -6.4391  -11.8472  -19.4963 C   0  0  1  0  0  0  0  0  0  0  0  0
   -6.3264  -12.2604  -18.0562 N   0  0  0  0  0  0  0  0  0  0  0  0
   -7.1441   -3.4751  -26.0535 C   0  0  0  0  0  0  0  0  0  0  0  0
   -7.2578   -6.1198  -22.2262 C   0  0  2  0  0  0  0  0  0  0  0  0
   -6.3782  -13.1734  -20.4399 C   0  0  1  0  0  0  0  0  0  0  0  0
   -7.4370  -14.0705  -20.1657 O   0  0  0  0  0  0  0  0  0  0  0  0
   -6.4770   -3.0332  -24.9768 C   0  0  2  0  0  0  0  0  0  0  0  0
   -6.9529   -3.1985  -23.6296 O   0  0  0  0  0  0  0  0  0  0  0  0
   -7.2306   -7.6883  -22.4601 C   0  0  2  0  0  0  0  0  0  0  0  0
   -8.5576   -8.1636  -22.7193 O   0  0  0  0  0  0  0  0  0  0  0  0
   -6.4938  -12.7448  -21.9416 C   0  0  0  0  0  0  0  0  0  0  0  0
   -7.7305  -11.8841  -22.1381 O   0  0  0  0  0  0  0  0  0  0  0  0
   -5.1249   -2.2932  -25.1037 C   0  0  0  0  0  0  0  0  0  0  0  0
   -5.2639   -0.9354  -24.5964 N   0  0  0  0  0  0  0  0  0  0  0  0
   -6.6772   -8.4078  -21.1772 C   0  0  1  0  0  0  0  0  0  0  0  0
   -6.6634   -9.7932  -21.4247 O   0  0  0  0  0  0  0  0  0  0  0  0
   -5.1046  -14.0256  -20.3120 C   0  0  0  0  0  0  0  0  0  0  0  0
   -5.7652  -11.2589  -17.1298 C   0  0  0  0  0  0  0  0  0  0  0  0
  1  2  1  6  0  0  0
  1  6  1  0  0  0  0
  1 21  1  0  0  0  0
  3  4  1  1  0  0  0
  3  8  1  0  0  0  0
  3 28  1  0  0  0  0
  5  9  1  0  0  0  0
  5 25  1  0  0  0  0
  5 29  1  1  0  0  0
  6  7  1  1  0  0  0
  6 11  1  0  0  0  0
  8 12  1  0  0  0  0
  9 10  1  1  0  0  0
  9 14  1  0  0  0  0
 11 16  1  0  0  0  0
 12 13  1  1  0  0  0
 12 17  1  0  0  0  0
 14 15  1  1  0  0  0
 14 18  1  0  0  0  0
 15 31  1  0  0  0  0
 16 20  1  0  0  0  0
 17  2  1  6  0  0  0
 17 22  1  0  0  0  0
 18 19  1  1  0  0  0
 18 24  1  0  0  0  0
 18 30  1  0  0  0  0
 20 21  1  0  0  0  0
 20 26  1  6  0  0  0
 22 23  1  1  0  0  0
 22 28  1  0  0  0  0
 24 25  1  0  0  0  0
 26 27  1  0  0  0  0
 28 29  1  6  0  0  0
M  END
>  <CHROM.1>
-151.93769635,-86.33343412,-86.46526065,-73.15661942,116.97025475,157.17459010
-6.88494140,-7.82406496,-21.92958376,1.63776173,-0.77304475,-0.42984291

>  <Name>
ligand

>  <RI>
0

>  <Rbt.Current_Directory>
/home/itssahil/PROJECTS/Mol_Feturizer/New_Systems/rnas/4F8U

>  <Rbt.Executable>
rbdock ($Id: //depot/dev/client3/rdock/2013.1/src/exe/rbdock.cxx#4 $)

>  <Rbt.Library>
libRbt.so (2013.1, Build901 2013/11/27)

>  <Rbt.Parameter_File>
/export/apps/rDock/src/rDock_2013.1_src/data/scripts/dock_solv.prm

>  <Rbt.Receptor>
prm/pocket_docking_8.prm

>  <SCORE>
-9.62384

>  <SCORE.INTER>
-8.16954

>  <SCORE.INTER.CONST>
1

>  <SCORE.INTER.POLAR>
0

>  <SCORE.INTER.ROT>
6

>  <SCORE.INTER.SOLV>
14.8129

>  <SCORE.INTER.VDW>
-17.984

>  <SCORE.INTER.norm>
-0.263533

>  <SCORE.INTRA>
-1.45431

>  <SCORE.INTRA.DIHEDRAL>
-7.33736

>  <SCORE.INTRA.DIHEDRAL.0>
18.77

>  <SCORE.INTRA.POLAR>
0

>  <SCORE.INTRA.POLAR.0>
0

>  <SCORE.INTRA.REPUL>
0

>  <SCORE.INTRA.REPUL.0>
0

>  <SCORE.INTRA.SOLV>
2.05666

>  <SCORE.INTRA.SOLV.lig_0>
-77.2465

>  <SCORE.INTRA.VDW>
1.18604

>  <SCORE.INTRA.VDW.0>
-4.16072

>  <SCORE.INTRA.norm>
-0.0469131

>  <SCORE.RESTR>
0

>  <SCORE.RESTR.CAVITY>
0

>  <SCORE.RESTR.norm>
0

>  <SCORE.SYSTEM>
0

>  <SCORE.SYSTEM.CONST>
0

>  <SCORE.SYSTEM.DIHEDRAL>
0

>  <SCORE.SYSTEM.SOLV>
0

>  <SCORE.SYSTEM.norm>
0

>  <SCORE.heavy>
31

>  <SCORE.norm>
-0.310447

>  <RMSD>
8.579

$$$$
ligand
 OpenBabel11021811493D
libRbt.so/2013.1/901 2013/11/27
 31 33  0  0  0  0  0  0  0  0999 V2000
   -3.2157  -13.2284  -13.5781 C   0  0  2  0  0  0  0  0  0  0  0  0
   -2.5059  -13.3922  -14.8134 O   0  0  0  0  0  0  0  0  0  0  0  0
   -3.5852  -13.5442  -18.9529 C   0  0  2  0  0  0  0  0  0  0  0  0
   -4.1928  -13.9752  -20.1748 N   0  0  0  0  0  0  0  0  0  0  0  0
   -6.6586  -11.5742  -17.7622 C   0  0  2  0  0  0  0  0  0  0  0  0
   -2.1707  -12.6967  -12.5354 C   0  0  2  0  0  0  0  0  0  0  0  0
   -1.5828  -11.4520  -13.0182 N   0  0  0  0  0  0  0  0  0  0  0  0
   -2.6866  -14.7122  -18.3905 C   0  0  0  0  0  0  0  0  0  0  0  0
   -7.6512  -11.1919  -18.9031 C   0  0  2  0  0  0  0  0  0  0  0  0
   -7.9693  -12.3553  -19.6475 O   0  0  0  0  0  0  0  0  0  0  0  0
   -1.0606  -13.7787  -12.2971 C   0  0  0  0  0  0  0  0  0  0  0  0
   -2.0060  -14.2294  -17.0374 C   0  0  2  0  0  0  0  0  0  0  0  0
   -1.1601  -15.3198  -16.4985 N   0  0  0  0  0  0  0  0  0  0  0  0
   -6.9197  -10.1124  -19.8173 C   0  0  1  0  0  0  0  0  0  0  0  0
   -7.7978   -9.7102  -20.9682 N   0  0  0  0  0  0  0  0  0  0  0  0
   -1.6946  -15.1801  -12.0612 C   0  0  0  0  0  0  0  0  0  0  0  0
   -3.1354  -13.8345  -15.9851 C   0  0  2  0  0  0  0  0  0  0  0  0
   -6.5766   -8.7967  -18.9207 C   0  0  1  0  0  0  0  0  0  0  0  0
   -7.7416   -8.1996  -18.3847 O   0  0  0  0  0  0  0  0  0  0  0  0
   -2.9501  -15.4452  -12.4526 C   0  0  2  0  0  0  0  0  0  0  0  0
   -3.7955  -14.4802  -13.1028 O   0  0  0  0  0  0  0  0  0  0  0  0
   -4.0368  -12.6801  -16.5938 C   0  0  2  0  0  0  0  0  0  0  0  0
   -5.0724  -12.3325  -15.6660 O   0  0  0  0  0  0  0  0  0  0  0  0
   -5.6601   -9.2134  -17.7213 C   0  0  0  0  0  0  0  0  0  0  0  0
   -6.3052  -10.3537  -16.9517 O   0  0  0  0  0  0  0  0  0  0  0  0
   -3.5986  -16.8306  -12.2247 C   0  0  0  0  0  0  0  0  0  0  0  0
   -3.9839  -17.4042  -13.5064 N   0  0  0  0  0  0  0  0  0  0  0  0
   -4.6999  -13.1721  -17.9309 C   0  0  1  0  0  0  0  0  0  0  0  0
   -5.4850  -12.1217  -18.4418 O   0  0  0  0  0  0  0  0  0  0  0  0
   -5.8597   -7.6542  -19.6591 C   0  0  0  0  0  0  0  0  0  0  0  0
   -7.5714  -10.4175  -22.2428 C   0  0  0  0  0  0  0  0  0  0  0  0
  1  2  1  6  0  0  0
  1  6  1  0  0  0  0
  1 21  1  0  0  0  0
  3  4  1  6  0  0  0
  3  8  1  0  0  0  0
  3 28  1  0  0  0  0
  5  9  1  0  0  0  0
  5 25  1  0  0  0  0
  5 29  1  6  0  0  0
  6  7  1  6  0  0  0
  6 11  1  0  0  0  0
  8 12  1  0  0  0  0
  9 10  1  6  0  0  0
  9 14  1  0  0  0  0
 11 16  1  0  0  0  0
 12 13  1  1  0  0  0
 12 17  1  0  0  0  0
 14 15  1  6  0  0  0
 14 18  1  0  0  0  0
 15 31  1  0  0  0  0
 16 20  1  0  0  0  0
 17  2  1  1  0  0  0
 17 22  1  0  0  0  0
 18 19  1  1  0  0  0
 18 24  1  0  0  0  0
 18 30  1  0  0  0  0
 20 21  1  0  0  0  0
 20 26  1  1  0  0  0
 22 23  1  1  0  0  0
 22 28  1  0  0  0  0
 24 25  1  0  0  0  0
 26 27  1  0  0  0  0
 28 29  1  6  0  0  0
M  END
>  <CHROM.1>
-178.87318400,-145.14303048,-95.81622264,-166.58606007,-120.47352233,176.91685564
-4.53430742,-12.53249012,-16.66795525,0.16952370,-1.04982888,0.83586375

>  <Name>
ligand

>  <RI>
0

>  <Rbt.Current_Directory>
/home/itssahil/PROJECTS/Mol_Feturizer/New_Systems/rnas/4F8U

>  <Rbt.Executable>
rbdock ($Id: //depot/dev/client3/rdock/2013.1/src/exe/rbdock.cxx#4 $)

>  <Rbt.Library>
libRbt.so (2013.1, Build901 2013/11/27)

>  <Rbt.Parameter_File>
/export/apps/rDock/src/rDock_2013.1_src/data/scripts/dock_solv.prm

>  <Rbt.Receptor>
prm/pocket_docking_8.prm

>  <SCORE>
-13.126

>  <SCORE.INTER>
-7.6077

>  <SCORE.INTER.CONST>
1

>  <SCORE.INTER.POLAR>
0

>  <SCORE.INTER.ROT>
6

>  <SCORE.INTER.SOLV>
12.4552

>  <SCORE.INTER.VDW>
-16.8235

>  <SCORE.INTER.norm>
-0.24541

>  <SCORE.INTRA>
-5.51826

>  <SCORE.INTRA.DIHEDRAL>
-10.8963

>  <SCORE.INTRA.DIHEDRAL.0>
18.77

>  <SCORE.INTRA.POLAR>
0

>  <SCORE.INTRA.POLAR.0>
0

>  <SCORE.INTRA.REPUL>
0

>  <SCORE.INTRA.REPUL.0>
0

>  <SCORE.INTRA.SOLV>
-2.49784

>  <SCORE.INTRA.SOLV.lig_0>
-77.2465

>  <SCORE.INTRA.VDW>
1.17882

>  <SCORE.INTRA.VDW.0>
-4.16072

>  <SCORE.INTRA.norm>
-0.178008

>  <SCORE.RESTR>
0

>  <SCORE.RESTR.CAVITY>
0

>  <SCORE.RESTR.norm>
0

>  <SCORE.SYSTEM>
0

>  <SCORE.SYSTEM.CONST>
0

>  <SCORE.SYSTEM.DIHEDRAL>
0

>  <SCORE.SYSTEM.SOLV>
0

>  <SCORE.SYSTEM.norm>
0

>  <SCORE.heavy>
31

>  <SCORE.norm>
-0.423418

>  <RMSD>
8.605

$$$$
ligand
 OpenBabel11021811493D
libRbt.so/2013.1/901 2013/11/27
 31 33  0  0  0  0  0  0  0  0999 V2000
   -7.6205  -13.0178  -19.7178 C   0  0  2  0  0  0  0  0  0  0  0  0
   -6.5171  -12.5586  -18.9253 O   0  0  0  0  0  0  0  0  0  0  0  0
   -8.0123   -8.8065  -17.5075 C   0  0  2  0  0  0  0  0  0  0  0  0
   -8.1069   -7.5806  -16.7752 N   0  0  0  0  0  0  0  0  0  0  0  0
   -5.6754   -6.7761  -19.5118 C   0  0  2  0  0  0  0  0  0  0  0  0
   -7.0599  -14.1605  -20.6354 C   0  0  2  0  0  0  0  0  0  0  0  0
   -6.4799  -15.2145  -19.8105 N   0  0  0  0  0  0  0  0  0  0  0  0
   -7.9738  -10.0085  -16.4868 C   0  0  0  0  0  0  0  0  0  0  0  0
   -6.2736   -5.6545  -20.4160 C   0  0  2  0  0  0  0  0  0  0  0  0
   -7.3581   -5.0440  -19.7378 O   0  0  0  0  0  0  0  0  0  0  0  0
   -5.9891  -13.5739  -21.6198 C   0  0  0  0  0  0  0  0  0  0  0  0
   -7.8767  -11.3701  -17.3017 C   0  0  2  0  0  0  0  0  0  0  0  0
   -7.8382  -12.5071  -16.3526 N   0  0  0  0  0  0  0  0  0  0  0  0
   -6.7623   -6.3502  -21.7626 C   0  0  1  0  0  0  0  0  0  0  0  0
   -7.3865   -5.3411  -22.6842 N   0  0  0  0  0  0  0  0  0  0  0  0
   -6.5106  -12.2719  -22.2938 C   0  0  0  0  0  0  0  0  0  0  0  0
   -6.5629  -11.3580  -18.2033 C   0  0  2  0  0  0  0  0  0  0  0  0
   -5.4844   -7.0347  -22.5051 C   0  0  1  0  0  0  0  0  0  0  0  0
   -4.4911   -6.0843  -22.8386 O   0  0  0  0  0  0  0  0  0  0  0  0
   -7.5196  -11.5711  -21.7547 C   0  0  2  0  0  0  0  0  0  0  0  0
   -8.1897  -11.9564  -20.5417 O   0  0  0  0  0  0  0  0  0  0  0  0
   -6.6211  -10.1221  -19.1957 C   0  0  2  0  0  0  0  0  0  0  0  0
   -5.4327  -10.0859  -19.9960 O   0  0  0  0  0  0  0  0  0  0  0  0
   -4.8332   -8.0881  -21.5468 C   0  0  0  0  0  0  0  0  0  0  0  0
   -4.5165   -7.4412  -20.2089 O   0  0  0  0  0  0  0  0  0  0  0  0
   -8.0537  -10.2766  -22.4109 C   0  0  0  0  0  0  0  0  0  0  0  0
   -7.7538   -9.1376  -21.5546 N   0  0  0  0  0  0  0  0  0  0  0  0
   -6.7192   -8.7854  -18.3752 C   0  0  1  0  0  0  0  0  0  0  0  0
   -6.7739   -7.7153  -19.2879 O   0  0  0  0  0  0  0  0  0  0  0  0
   -5.7894   -7.7574  -23.8277 C   0  0  0  0  0  0  0  0  0  0  0  0
   -6.7074   -4.0352  -22.7815 C   0  0  0  0  0  0  0  0  0  0  0  0
  1  2  1  6  0  0  0
  1  6  1  0  0  0  0
  1 21  1  0  0  0  0
  3  4  1  1  0  0  0
  3  8  1  0  0  0  0
  3 28  1  0  0  0  0
  5  9  1  0  0  0  0
  5 25  1  0  0  0  0
  5 29  1  6  0  0  0
  6  7  1  1  0  0  0
  6 11  1  0  0  0  0
  8 12  1  0  0  0  0
  9 10  1  1  0  0  0
  9 14  1  0  0  0  0
 11 16  1  0  0  0  0
 12 13  1  1  0  0  0
 12 17  1  0  0  0  0
 14 15  1  6  0  0  0
 14 18  1  0  0  0  0
 15 31  1  0  0  0  0
 16 20  1  0  0  0  0
 17  2  1  6  0  0  0
 17 22  1  0  0  0  0
 18 19  1  6  0  0  0
 18 24  1  0  0  0  0
 18 30  1  0  0  0  0
 20 21  1  0  0  0  0
 20 26  1  6  0  0  0
 22 23  1  1  0  0  0
 22 28  1  0  0  0  0
 24 25  1  0  0  0  0
 26 27  1  0  0  0  0
 28 29  1  6  0  0  0
M  END
>  <CHROM.1>
165.73583600,-171.08681778,41.42132497,52.36906503,-113.07500826,132.59415228
-6.71822277,-9.37106970,-20.23426012,-2.11107737,1.31328991,0.19429410

>  <Name>
ligand

>  <RI>
0

>  <Rbt.Current_Directory>
/home/itssahil/PROJECTS/Mol_Feturizer/New_Systems/rnas/4F8U

>  <Rbt.Executable>
rbdock ($Id: //depot/dev/client3/rdock/2013.1/src/exe/rbdock.cxx#4 $)

>  <Rbt.Library>
libRbt.so (2013.1, Build901 2013/11/27)

>  <Rbt.Parameter_File>
/export/apps/rDock/src/rDock_2013.1_src/data/scripts/dock_solv.prm

>  <Rbt.Receptor>
prm/blind_docking_60.prm

>  <SCORE>
72.2309

>  <SCORE.INTER>
49.7949

>  <SCORE.INTER.CONST>
1

>  <SCORE.INTER.POLAR>
0

>  <SCORE.INTER.ROT>
6

>  <SCORE.INTER.SOLV>
25.2894

>  <SCORE.INTER.VDW>
17.1668

>  <SCORE.INTER.norm>
1.60629

>  <SCORE.INTRA>
3.82449

>  <SCORE.INTRA.DIHEDRAL>
-8.6929

>  <SCORE.INTRA.DIHEDRAL.0>
18.77

>  <SCORE.INTRA.POLAR>
0

>  <SCORE.INTRA.POLAR.0>
0

>  <SCORE.INTRA.REPUL>
0.35483

>  <SCORE.INTRA.REPUL.0>
0

>  <SCORE.INTRA.SOLV>
7.17711

>  <SCORE.INTRA.SOLV.lig_0>
-77.2465

>  <SCORE.INTRA.VDW>
2.80823

>  <SCORE.INTRA.VDW.0>
-4.16072

>  <SCORE.INTRA.norm>
0.123371

>  <SCORE.RESTR>
18.6115

>  <SCORE.RESTR.CAVITY>
18.6115

>  <SCORE.RESTR.norm>
0.60037

>  <SCORE.SYSTEM>
0

>  <SCORE.SYSTEM.CONST>
0

>  <SCORE.SYSTEM.DIHEDRAL>
0

>  <SCORE.SYSTEM.SOLV>
0

>  <SCORE.SYSTEM.norm>
0

>  <SCORE.heavy>
31

>  <SCORE.norm>
2.33003

>  <RMSD>
8.649

$$$$
ligand
 OpenBabel11021811493D
libRbt.so/2013.1/901 2013/11/27
 31 33  0  0  0  0  0  0  0  0999 V2000
   -3.3393  -11.1316  -11.0276 C   0  0  2  0  0  0  0  0  0  0  0  0
   -4.6835  -11.4969  -11.3687 O   0  0  0  0  0  0  0  0  0  0  0  0
   -8.6589  -11.5053   -9.7815 C   0  0  2  0  0  0  0  0  0  0  0  0
   -9.7381  -11.5669   -8.8436 N   0  0  0  0  0  0  0  0  0  0  0  0
   -9.7455   -8.9668  -10.2462 C   0  0  2  0  0  0  0  0  0  0  0  0
   -2.6380  -10.7239  -12.3707 C   0  0  2  0  0  0  0  0  0  0  0  0
   -3.3764   -9.6351  -13.0010 N   0  0  0  0  0  0  0  0  0  0  0  0
   -7.8416  -12.8523   -9.7074 C   0  0  0  0  0  0  0  0  0  0  0  0
   -9.3361   -8.8522  -11.7471 C   0  0  2  0  0  0  0  0  0  0  0  0
   -8.6283  -10.0211  -12.1232 O   0  0  0  0  0  0  0  0  0  0  0  0
   -2.5573  -11.9654  -13.3258 C   0  0  0  0  0  0  0  0  0  0  0  0
   -6.6479  -12.7860  -10.7553 C   0  0  2  0  0  0  0  0  0  0  0  0
   -5.8714  -14.0463  -10.6935 N   0  0  0  0  0  0  0  0  0  0  0  0
   -8.4156   -7.5598  -11.8835 C   0  0  1  0  0  0  0  0  0  0  0  0
   -7.9458   -7.3908  -13.3005 N   0  0  0  0  0  0  0  0  0  0  0  0
   -2.0297  -13.2161  -12.5650 C   0  0  0  0  0  0  0  0  0  0  0  0
   -5.7110  -11.5424  -10.4164 C   0  0  2  0  0  0  0  0  0  0  0  0
   -9.2707   -6.2454  -11.4429 C   0  0  1  0  0  0  0  0  0  0  0  0
  -10.4133   -6.0571  -12.2554 O   0  0  0  0  0  0  0  0  0  0  0  0
   -2.0804  -13.2828  -11.2261 C   0  0  2  0  0  0  0  0  0  0  0  0
   -2.6094  -12.2293  -10.4020 O   0  0  0  0  0  0  0  0  0  0  0  0
   -6.5701  -10.2102  -10.4711 C   0  0  2  0  0  0  0  0  0  0  0  0
   -5.7437   -9.0859  -10.1440 O   0  0  0  0  0  0  0  0  0  0  0  0
   -9.7601   -6.4187   -9.9655 C   0  0  0  0  0  0  0  0  0  0  0  0
  -10.5035   -7.7358   -9.8201 O   0  0  0  0  0  0  0  0  0  0  0  0
   -1.5587  -14.5158  -10.4519 C   0  0  0  0  0  0  0  0  0  0  0  0
   -1.2447  -15.5831  -11.3914 N   0  0  0  0  0  0  0  0  0  0  0  0
   -7.7462  -10.2928   -9.4321 C   0  0  1  0  0  0  0  0  0  0  0  0
   -8.4864   -9.0985   -9.5139 O   0  0  0  0  0  0  0  0  0  0  0  0
   -8.5193   -4.9057  -11.5138 C   0  0  0  0  0  0  0  0  0  0  0  0
   -7.4933   -8.6138  -13.9904 C   0  0  0  0  0  0  0  0  0  0  0  0
  1  2  1  6  0  0  0
  1  6  1  0  0  0  0
  1 21  1  0  0  0  0
  3  4  1  1  0  0  0
  3  8  1  0  0  0  0
  3 28  1  0  0  0  0
  5  9  1  0  0  0  0
  5 25  1  0  0  0  0
  5 29  1  1  0  0  0
  6  7  1  6  0  0  0
  6 11  1  0  0  0  0
  8 12  1  0  0  0  0
  9 10  1  1  0  0  0
  9 14  1  0  0  0  0
 11 16  1  0  0  0  0
 12 13  1  1  0  0  0
 12 17  1  0  0  0  0
 14 15  1  6  0  0  0
 14 18  1  0  0  0  0
 15 31  1  0  0  0  0
 16 20  1  0  0  0  0
 17  2  1  6  0  0  0
 17 22  1  0  0  0  0
 18 19  1  6  0  0  0
 18 24  1  0  0  0  0
 18 30  1  0  0  0  0
 20 21  1  0  0  0  0
 20 26  1  1  0  0  0
 22 23  1  1  0  0  0
 22 28  1  0  0  0  0
 24 25  1  0  0  0  0
 26 27  1  0  0  0  0
 28 29  1  6  0  0  0
M  END
>  <CHROM.1>
-161.03304270,-78.01066951,-43.12986960,-142.09774354,-8.94746597,-19.36520326
-6.44599079,-10.27261655,-11.13747143,-0.58231666,0.42516128,-0.50654045

>  <Name>
ligand

>  <RI>
0

>  <Rbt.Current_Directory>
/home/itssahil/PROJECTS/Mol_Feturizer/New_Systems/rnas/4F8U

>  <Rbt.Executable>
rbdock ($Id: //depot/dev/client3/rdock/2013.1/src/exe/rbdock.cxx#4 $)

>  <Rbt.Library>
libRbt.so (2013.1, Build901 2013/11/27)

>  <Rbt.Parameter_File>
/export/apps/rDock/src/rDock_2013.1_src/data/scripts/dock_solv.prm

>  <Rbt.Receptor>
prm/blind_docking_40.prm

>  <SCORE>
20.909

>  <SCORE.INTER>
3.43771

>  <SCORE.INTER.CONST>
1

>  <SCORE.INTER.POLAR>
0

>  <SCORE.INTER.ROT>
6

>  <SCORE.INTER.SOLV>
21.988

>  <SCORE.INTER.VDW>
-12.6375

>  <SCORE.INTER.norm>
0.110894

>  <SCORE.INTRA>
6.6356

>  <SCORE.INTRA.DIHEDRAL>
-3.0972

>  <SCORE.INTRA.DIHEDRAL.0>
18.77

>  <SCORE.INTRA.POLAR>
0

>  <SCORE.INTRA.POLAR.0>
0

>  <SCORE.INTRA.REPUL>
0

>  <SCORE.INTRA.REPUL.0>
0

>  <SCORE.INTRA.SOLV>
1.90685

>  <SCORE.INTRA.SOLV.lig_0>
-77.2465

>  <SCORE.INTRA.VDW>
7.23078

>  <SCORE.INTRA.VDW.0>
-4.16072

>  <SCORE.INTRA.norm>
0.214052

>  <SCORE.RESTR>
10.8357

>  <SCORE.RESTR.CAVITY>
10.8357

>  <SCORE.RESTR.norm>
0.349538

>  <SCORE.SYSTEM>
0

>  <SCORE.SYSTEM.CONST>
0

>  <SCORE.SYSTEM.DIHEDRAL>
0

>  <SCORE.SYSTEM.SOLV>
0

>  <SCORE.SYSTEM.norm>
0

>  <SCORE.heavy>
31

>  <SCORE.norm>
0.674484

>  <RMSD>
8.664

$$$$
ligand
 OpenBabel11021811493D
libRbt.so/2013.1/901 2013/11/27
 31 33  0  0  0  0  0  0  0  0999 V2000
   -6.9081  -10.9750  -11.4373 C   0  0  2  0  0  0  0  0  0  0  0  0
   -6.6899   -9.6048  -11.8000 O   0  0  0  0  0  0  0  0  0  0  0  0
   -9.2250   -9.2367  -15.2295 C   0  0  2  0  0  0  0  0  0  0  0  0
   -9.8781   -8.6733  -16.3715 N   0  0  0  0  0  0  0  0  0  0  0  0
   -6.1728   -9.8361  -17.4086 C   0  0  2  0  0  0  0  0  0  0  0  0
   -6.6798  -11.0633   -9.8875 C   0  0  2  0  0  0  0  0  0  0  0  0
   -7.5853  -10.1470   -9.2033 N   0  0  0  0  0  0  0  0  0  0  0  0
   -9.5890   -8.3768  -13.9582 C   0  0  0  0  0  0  0  0  0  0  0  0
   -6.6463   -9.0652  -18.6794 C   0  0  2  0  0  0  0  0  0  0  0  0
   -7.2046   -7.8236  -18.2849 O   0  0  0  0  0  0  0  0  0  0  0  0
   -5.1864  -10.7225   -9.5505 C   0  0  0  0  0  0  0  0  0  0  0  0
   -8.8695   -9.0082  -12.6890 C   0  0  2  0  0  0  0  0  0  0  0  0
   -9.2030   -8.2072  -11.4880 N   0  0  0  0  0  0  0  0  0  0  0  0
   -7.7353   -9.9764  -19.4006 C   0  0  1  0  0  0  0  0  0  0  0  0
   -8.2729   -9.2912  -20.6248 N   0  0  0  0  0  0  0  0  0  0  0  0
   -4.2161  -11.4986  -10.4873 C   0  0  0  0  0  0  0  0  0  0  0  0
   -7.2935   -9.0229  -12.9234 C   0  0  2  0  0  0  0  0  0  0  0  0
   -7.0483  -11.3877  -19.8355 C   0  0  1  0  0  0  0  0  0  0  0  0
   -5.9703  -11.2006  -20.7321 O   0  0  0  0  0  0  0  0  0  0  0  0
   -4.6405  -12.0058  -11.6545 C   0  0  2  0  0  0  0  0  0  0  0  0
   -5.9943  -11.8817  -12.1243 O   0  0  0  0  0  0  0  0  0  0  0  0
   -6.9660   -9.8701  -14.2236 C   0  0  2  0  0  0  0  0  0  0  0  0
   -5.5524   -9.8707  -14.4594 O   0  0  0  0  0  0  0  0  0  0  0  0
   -6.4886  -12.1044  -18.5606 C   0  0  0  0  0  0  0  0  0  0  0  0
   -5.5714  -11.1614  -17.8002 O   0  0  0  0  0  0  0  0  0  0  0  0
   -3.6923  -12.7824  -12.5977 C   0  0  0  0  0  0  0  0  0  0  0  0
   -2.3485  -12.7916  -12.0369 N   0  0  0  0  0  0  0  0  0  0  0  0
   -7.6860   -9.2348  -15.4677 C   0  0  1  0  0  0  0  0  0  0  0  0
   -7.3765  -10.0150  -16.5974 O   0  0  0  0  0  0  0  0  0  0  0  0
   -7.9739  -12.3898  -20.5452 C   0  0  0  0  0  0  0  0  0  0  0  0
   -7.2735   -8.8006  -21.5926 C   0  0  0  0  0  0  0  0  0  0  0  0
  1  2  1  6  0  0  0
  1  6  1  0  0  0  0
  1 21  1  0  0  0  0
  3  4  1  6  0  0  0
  3  8  1  0  0  0  0
  3 28  1  0  0  0  0
  5  9  1  0  0  0  0
  5 25  1  0  0  0  0
  5 29  1  1  0  0  0
  6  7  1  1  0  0  0
  6 11  1  0  0  0  0
  8 12  1  0  0  0  0
  9 10  1  1  0  0  0
  9 14  1  0  0  0  0
 11 16  1  0  0  0  0
 12 13  1  1  0  0  0
 12 17  1  0  0  0  0
 14 15  1  6  0  0  0
 14 18  1  0  0  0  0
 15 31  1  0  0  0  0
 16 20  1  0  0  0  0
 17  2  1  1  0  0  0
 17 22  1  0  0  0  0
 18 19  1  6  0  0  0
 18 24  1  0  0  0  0
 18 30  1  0  0  0  0
 20 21  1  0  0  0  0
 20 26  1  1  0  0  0
 22 23  1  6  0  0  0
 22 28  1  0  0  0  0
 24 25  1  0  0  0  0
 26 27  1  0  0  0  0
 28 29  1  6  0  0  0
M  END
>  <CHROM.1>
-153.68949304,-102.01668672,52.28644628,64.53855513,-2.52514455,155.27887626
-6.81511384,-10.26236634,-15.13542428,1.38017095,-0.66988713,1.53023105

>  <Name>
ligand

>  <RI>
0

>  <Rbt.Current_Directory>
/home/itssahil/PROJECTS/Mol_Feturizer/New_Systems/rnas/4F8U

>  <Rbt.Executable>
rbdock ($Id: //depot/dev/client3/rdock/2013.1/src/exe/rbdock.cxx#4 $)

>  <Rbt.Library>
libRbt.so (2013.1, Build901 2013/11/27)

>  <Rbt.Parameter_File>
/export/apps/rDock/src/rDock_2013.1_src/data/scripts/dock_solv.prm

>  <Rbt.Receptor>
prm/blind_docking_40.prm

>  <SCORE>
47.2032

>  <SCORE.INTER>
33.0695

>  <SCORE.INTER.CONST>
1

>  <SCORE.INTER.POLAR>
0

>  <SCORE.INTER.ROT>
6

>  <SCORE.INTER.SOLV>
23.7124

>  <SCORE.INTER.VDW>
6.54221

>  <SCORE.INTER.norm>
1.06676

>  <SCORE.INTRA>
0.937274

>  <SCORE.INTRA.DIHEDRAL>
-5.68599

>  <SCORE.INTRA.DIHEDRAL.0>
18.77

>  <SCORE.INTRA.POLAR>
0

>  <SCORE.INTRA.POLAR.0>
0

>  <SCORE.INTRA.REPUL>
0

>  <SCORE.INTRA.REPUL.0>
0

>  <SCORE.INTRA.SOLV>
1.14074

>  <SCORE.INTRA.SOLV.lig_0>
-77.2465

>  <SCORE.INTRA.VDW>
3.2099

>  <SCORE.INTRA.VDW.0>
-4.16072

>  <SCORE.INTRA.norm>
0.0302347

>  <SCORE.RESTR>
13.1965

>  <SCORE.RESTR.CAVITY>
13.1965

>  <SCORE.RESTR.norm>
0.425693

>  <SCORE.SYSTEM>
0

>  <SCORE.SYSTEM.CONST>
0

>  <SCORE.SYSTEM.DIHEDRAL>
0

>  <SCORE.SYSTEM.SOLV>
0

>  <SCORE.SYSTEM.norm>
0

>  <SCORE.heavy>
31

>  <SCORE.norm>
1.52269

>  <RMSD>
8.664

$$$$
ligand
 OpenBabel11021811493D
libRbt.so/2013.1/901 2013/11/27
 31 33  0  0  0  0  0  0  0  0999 V2000
   -2.6921  -12.5998  -13.5245 C   0  0  2  0  0  0  0  0  0  0  0  0
   -2.9811  -13.8140  -14.2307 O   0  0  0  0  0  0  0  0  0  0  0  0
   -6.1376  -15.1014  -16.8196 C   0  0  2  0  0  0  0  0  0  0  0  0
   -7.4424  -15.4693  -17.2782 N   0  0  0  0  0  0  0  0  0  0  0  0
   -7.6898  -11.8851  -17.3647 C   0  0  2  0  0  0  0  0  0  0  0  0
   -1.1582  -12.6341  -13.1961 C   0  0  2  0  0  0  0  0  0  0  0  0
   -0.3930  -12.7648  -14.4312 N   0  0  0  0  0  0  0  0  0  0  0  0
   -5.7193  -16.0667  -15.6443 C   0  0  0  0  0  0  0  0  0  0  0  0
   -8.0732  -11.6684  -18.8612 C   0  0  2  0  0  0  0  0  0  0  0  0
   -8.3839  -12.9223  -19.4444 O   0  0  0  0  0  0  0  0  0  0  0  0
   -0.8499  -13.8254  -12.2237 C   0  0  0  0  0  0  0  0  0  0  0  0
   -4.2666  -15.6621  -15.1411 C   0  0  2  0  0  0  0  0  0  0  0  0
   -3.8633  -16.5617  -14.0351 N   0  0  0  0  0  0  0  0  0  0  0  0
   -6.8142  -11.0039  -19.5751 C   0  0  1  0  0  0  0  0  0  0  0  0
   -7.0861  -10.7893  -21.0370 N   0  0  0  0  0  0  0  0  0  0  0  0
   -1.8609  -13.8510  -11.0411 C   0  0  0  0  0  0  0  0  0  0  0  0
   -4.2777  -14.1477  -14.6457 C   0  0  2  0  0  0  0  0  0  0  0  0
   -6.4975   -9.5686  -18.8733 C   0  0  1  0  0  0  0  0  0  0  0  0
   -7.5861   -8.6719  -18.9813 O   0  0  0  0  0  0  0  0  0  0  0  0
   -3.0415  -13.2198  -11.1275 C   0  0  2  0  0  0  0  0  0  0  0  0
   -3.4598  -12.4819  -12.2892 O   0  0  0  0  0  0  0  0  0  0  0  0
   -4.7302  -13.2095  -15.8417 C   0  0  2  0  0  0  0  0  0  0  0  0
   -4.7679  -11.8461  -15.4017 O   0  0  0  0  0  0  0  0  0  0  0  0
   -6.2122   -9.7903  -17.3496 C   0  0  0  0  0  0  0  0  0  0  0  0
   -7.3568  -10.5649  -16.7184 O   0  0  0  0  0  0  0  0  0  0  0  0
   -4.0583  -13.2314   -9.9623 C   0  0  0  0  0  0  0  0  0  0  0  0
   -4.3540  -11.8633   -9.5609 N   0  0  0  0  0  0  0  0  0  0  0  0
   -6.1658  -13.6237  -16.3287 C   0  0  1  0  0  0  0  0  0  0  0  0
   -6.5291  -12.7745  -17.3907 O   0  0  0  0  0  0  0  0  0  0  0  0
   -5.2991   -8.7949  -19.4477 C   0  0  0  0  0  0  0  0  0  0  0  0
   -7.0342  -11.9879  -21.8955 C   0  0  0  0  0  0  0  0  0  0  0  0
  1  2  1  1  0  0  0
  1  6  1  0  0  0  0
  1 21  1  0  0  0  0
  3  4  1  1  0  0  0
  3  8  1  0  0  0  0
  3 28  1  0  0  0  0
  5  9  1  0  0  0  0
  5 25  1  0  0  0  0
  5 29  1  6  0  0  0
  6  7  1  6  0  0  0
  6 11  1  0  0  0  0
  8 12  1  0  0  0  0
  9 10  1  6  0  0  0
  9 14  1  0  0  0  0
 11 16  1  0  0  0  0
 12 13  1  1  0  0  0
 12 17  1  0  0  0  0
 14 15  1  6  0  0  0
 14 18  1  0  0  0  0
 15 31  1  0  0  0  0
 16 20  1  0  0  0  0
 17  2  1  6  0  0  0
 17 22  1  0  0  0  0
 18 19  1  6  0  0  0
 18 24  1  0  0  0  0
 18 30  1  0  0  0  0
 20 21  1  0  0  0  0
 20 26  1  1  0  0  0
 22 23  1  1  0  0  0
 22 28  1  0  0  0  0
 24 25  1  0  0  0  0
 26 27  1  0  0  0  0
 28 29  1  6  0  0  0
M  END
>  <CHROM.1>
177.73415990,-154.83551294,-75.71636372,-169.47974305,122.20768457,121.48136944
-5.08293613,-12.62386301,-15.82454435,-0.45519822,-0.97521776,-0.20524291

>  <Name>
ligand

>  <RI>
0

>  <Rbt.Current_Directory>
/home/itssahil/PROJECTS/Mol_Feturizer/New_Systems/rnas/4F8U

>  <Rbt.Executable>
rbdock ($Id: //depot/dev/client3/rdock/2013.1/src/exe/rbdock.cxx#4 $)

>  <Rbt.Library>
libRbt.so (2013.1, Build901 2013/11/27)

>  <Rbt.Parameter_File>
/export/apps/rDock/src/rDock_2013.1_src/data/scripts/dock_solv.prm

>  <Rbt.Receptor>
prm/pocket_docking_6.prm

>  <SCORE>
-10.631

>  <SCORE.INTER>
-7.41615

>  <SCORE.INTER.CONST>
1

>  <SCORE.INTER.POLAR>
0

>  <SCORE.INTER.ROT>
6

>  <SCORE.INTER.SOLV>
12.312

>  <SCORE.INTER.VDW>
-16.6481

>  <SCORE.INTER.norm>
-0.239231

>  <SCORE.INTRA>
-3.2149

>  <SCORE.INTRA.DIHEDRAL>
-6.447

>  <SCORE.INTRA.DIHEDRAL.0>
18.77

>  <SCORE.INTRA.POLAR>
0

>  <SCORE.INTRA.POLAR.0>
0

>  <SCORE.INTRA.REPUL>
0

>  <SCORE.INTRA.REPUL.0>
0

>  <SCORE.INTRA.SOLV>
-1.75861

>  <SCORE.INTRA.SOLV.lig_0>
-77.2465

>  <SCORE.INTRA.VDW>
0.88791

>  <SCORE.INTRA.VDW.0>
-4.16072

>  <SCORE.INTRA.norm>
-0.103706

>  <SCORE.RESTR>
0

>  <SCORE.RESTR.CAVITY>
0

>  <SCORE.RESTR.norm>
0

>  <SCORE.SYSTEM>
0

>  <SCORE.SYSTEM.CONST>
0

>  <SCORE.SYSTEM.DIHEDRAL>
0

>  <SCORE.SYSTEM.SOLV>
0

>  <SCORE.SYSTEM.norm>
0

>  <SCORE.heavy>
31

>  <SCORE.norm>
-0.342937

>  <RMSD>
8.669

$$$$
ligand
 OpenBabel11021811493D
libRbt.so/2013.1/901 2013/11/27
 31 33  0  0  0  0  0  0  0  0999 V2000
   -2.3959   -9.8105  -15.8684 C   0  0  2  0  0  0  0  0  0  0  0  0
   -2.4459  -11.1072  -16.4788 O   0  0  0  0  0  0  0  0  0  0  0  0
   -5.2955  -13.0763  -18.9939 C   0  0  2  0  0  0  0  0  0  0  0  0
   -6.5034  -13.7096  -19.4274 N   0  0  0  0  0  0  0  0  0  0  0  0
   -7.4789  -10.2990  -19.6435 C   0  0  2  0  0  0  0  0  0  0  0  0
   -0.8761   -9.4713  -15.6757 C   0  0  2  0  0  0  0  0  0  0  0  0
   -0.1944   -9.5154  -16.9646 N   0  0  0  0  0  0  0  0  0  0  0  0
   -4.6895  -13.9014  -17.7939 C   0  0  0  0  0  0  0  0  0  0  0  0
   -7.7165   -9.8526  -21.1191 C   0  0  2  0  0  0  0  0  0  0  0  0
   -7.6379  -10.9882  -21.9635 O   0  0  0  0  0  0  0  0  0  0  0  0
   -0.2287  -10.4866  -14.6707 C   0  0  0  0  0  0  0  0  0  0  0  0
   -3.3436  -13.2014  -17.3185 C   0  0  2  0  0  0  0  0  0  0  0  0
   -2.7657  -13.9673  -16.1895 N   0  0  0  0  0  0  0  0  0  0  0  0
   -6.5796   -8.7964  -21.4771 C   0  0  1  0  0  0  0  0  0  0  0  0
   -6.7136   -8.3354  -22.9008 N   0  0  0  0  0  0  0  0  0  0  0  0
   -1.1164  -10.6541  -13.4036 C   0  0  0  0  0  0  0  0  0  0  0  0
   -3.6524  -11.7040  -16.8699 C   0  0  2  0  0  0  0  0  0  0  0  0
   -6.7112   -7.5120  -20.4841 C   0  0  1  0  0  0  0  0  0  0  0  0
   -7.9638   -6.8673  -20.6114 O   0  0  0  0  0  0  0  0  0  0  0  0
   -2.4144  -10.3156  -13.4197 C   0  0  2  0  0  0  0  0  0  0  0  0
   -3.0770   -9.7794  -14.5783 O   0  0  0  0  0  0  0  0  0  0  0  0
   -4.2866  -10.9129  -18.0895 C   0  0  2  0  0  0  0  0  0  0  0  0
   -4.5918   -9.5704  -17.6913 O   0  0  0  0  0  0  0  0  0  0  0  0
   -6.5701   -7.9900  -18.9996 C   0  0  0  0  0  0  0  0  0  0  0  0
   -7.5600   -9.1089  -18.7223 O   0  0  0  0  0  0  0  0  0  0  0  0
   -3.3122  -10.4721  -12.1702 C   0  0  0  0  0  0  0  0  0  0  0  0
   -4.1848  -11.6255  -12.3393 N   0  0  0  0  0  0  0  0  0  0  0  0
   -5.6138  -11.6183  -18.5486 C   0  0  1  0  0  0  0  0  0  0  0  0
   -6.1423  -10.8925  -19.6324 O   0  0  0  0  0  0  0  0  0  0  0  0
   -5.6763   -6.3948  -20.6974 C   0  0  0  0  0  0  0  0  0  0  0  0
   -8.0633   -7.9246  -23.3316 C   0  0  0  0  0  0  0  0  0  0  0  0
  1  2  1  1  0  0  0
  1  6  1  0  0  0  0
  1 21  1  0  0  0  0
  3  4  1  1  0  0  0
  3  8  1  0  0  0  0
  3 28  1  0  0  0  0
  5  9  1  0  0  0  0
  5 25  1  0  0  0  0
  5 29  1  6  0  0  0
  6  7  1  6  0  0  0
  6 11  1  0  0  0  0
  8 12  1  0  0  0  0
  9 10  1  6  0  0  0
  9 14  1  0  0  0  0
 11 16  1  0  0  0  0
 12 13  1  1  0  0  0
 12 17  1  0  0  0  0
 14 15  1  6  0  0  0
 14 18  1  0  0  0  0
 15 31  1  0  0  0  0
 16 20  1  0  0  0  0
 17  2  1  6  0  0  0
 17 22  1  0  0  0  0
 18 19  1  6  0  0  0
 18 24  1  0  0  0  0
 18 30  1  0  0  0  0
 20 21  1  0  0  0  0
 20 26  1  1  0  0  0
 22 23  1  1  0  0  0
 22 28  1  0  0  0  0
 24 25  1  0  0  0  0
 26 27  1  0  0  0  0
 28 29  1  6  0  0  0
M  END
>  <CHROM.1>
-176.31897945,-169.33892179,48.15624456,-172.38506013,-104.85162253,118.72496859
-4.73824888,-10.28576281,-17.96425317,-0.35177083,-0.90071069,-0.13036416

>  <Name>
ligand

>  <RI>
0

>  <Rbt.Current_Directory>
/home/itssahil/PROJECTS/Mol_Feturizer/New_Systems/rnas/4F8U

>  <Rbt.Executable>
rbdock ($Id: //depot/dev/client3/rdock/2013.1/src/exe/rbdock.cxx#4 $)

>  <Rbt.Library>
libRbt.so (2013.1, Build901 2013/11/27)

>  <Rbt.Parameter_File>
/export/apps/rDock/src/rDock_2013.1_src/data/scripts/dock_solv.prm

>  <Rbt.Receptor>
prm/pocket_docking_5.prm

>  <SCORE>
-13.1295

>  <SCORE.INTER>
-10.2403

>  <SCORE.INTER.CONST>
1

>  <SCORE.INTER.POLAR>
0

>  <SCORE.INTER.ROT>
6

>  <SCORE.INTER.SOLV>
12.9986

>  <SCORE.INTER.VDW>
-18.7597

>  <SCORE.INTER.norm>
-0.330332

>  <SCORE.INTRA>
-2.88919

>  <SCORE.INTRA.DIHEDRAL>
-8.60499

>  <SCORE.INTRA.DIHEDRAL.0>
18.77

>  <SCORE.INTRA.POLAR>
0

>  <SCORE.INTRA.POLAR.0>
0

>  <SCORE.INTRA.REPUL>
0

>  <SCORE.INTRA.REPUL.0>
0

>  <SCORE.INTRA.SOLV>
-2.07366

>  <SCORE.INTRA.SOLV.lig_0>
-77.2465

>  <SCORE.INTRA.VDW>
2.45013

>  <SCORE.INTRA.VDW.0>
-4.16072

>  <SCORE.INTRA.norm>
-0.0931997

>  <SCORE.RESTR>
0

>  <SCORE.RESTR.CAVITY>
0

>  <SCORE.RESTR.norm>
0

>  <SCORE.SYSTEM>
0

>  <SCORE.SYSTEM.CONST>
0

>  <SCORE.SYSTEM.DIHEDRAL>
0

>  <SCORE.SYSTEM.SOLV>
0

>  <SCORE.SYSTEM.norm>
0

>  <SCORE.heavy>
31

>  <SCORE.norm>
-0.423532

>  <RMSD>
8.704

$$$$
ligand
 OpenBabel11021811493D
libRbt.so/2013.1/901 2013/11/27
 31 33  0  0  0  0  0  0  0  0999 V2000
   -6.0920  -10.5673  -25.2885 C   0  0  2  0  0  0  0  0  0  0  0  0
   -7.0281  -10.0295  -24.3446 O   0  0  0  0  0  0  0  0  0  0  0  0
   -8.1712  -10.8557  -20.3031 C   0  0  2  0  0  0  0  0  0  0  0  0
   -8.0779  -11.0853  -18.8936 N   0  0  0  0  0  0  0  0  0  0  0  0
   -7.9166   -7.5868  -18.9043 C   0  0  2  0  0  0  0  0  0  0  0  0
   -5.8891   -9.4650  -26.3865 C   0  0  2  0  0  0  0  0  0  0  0  0
   -5.4192   -8.2317  -25.7653 N   0  0  0  0  0  0  0  0  0  0  0  0
   -7.3131  -11.9447  -21.0550 C   0  0  0  0  0  0  0  0  0  0  0  0
   -6.6406   -6.9226  -19.5076 C   0  0  2  0  0  0  0  0  0  0  0  0
   -7.0033   -6.1975  -20.6701 O   0  0  0  0  0  0  0  0  0  0  0  0
   -7.2370   -9.2226  -27.1510 C   0  0  0  0  0  0  0  0  0  0  0  0
   -7.4240  -11.6935  -22.6209 C   0  0  2  0  0  0  0  0  0  0  0  0
   -6.6198  -12.7103  -23.3382 N   0  0  0  0  0  0  0  0  0  0  0  0
   -5.6250   -8.0969  -19.8619 C   0  0  1  0  0  0  0  0  0  0  0  0
   -4.3731   -7.5455  -20.4832 N   0  0  0  0  0  0  0  0  0  0  0  0
   -7.8875  -10.5730  -27.5689 C   0  0  0  0  0  0  0  0  0  0  0  0
   -6.8967  -10.2295  -22.9635 C   0  0  2  0  0  0  0  0  0  0  0  0
   -5.2373   -8.8983  -18.4980 C   0  0  1  0  0  0  0  0  0  0  0  0
   -4.6184   -8.0568  -17.5442 O   0  0  0  0  0  0  0  0  0  0  0  0
   -7.5471  -11.7206  -26.9632 C   0  0  2  0  0  0  0  0  0  0  0  0
   -6.5743  -11.7981  -25.9065 O   0  0  0  0  0  0  0  0  0  0  0  0
   -7.7613   -9.1630  -22.1693 C   0  0  2  0  0  0  0  0  0  0  0  0
   -7.2808   -7.8423  -22.4502 O   0  0  0  0  0  0  0  0  0  0  0  0
   -6.5407   -9.4754  -17.8496 C   0  0  0  0  0  0  0  0  0  0  0  0
   -7.5593   -8.3634  -17.6630 O   0  0  0  0  0  0  0  0  0  0  0  0
   -8.1802  -13.0729  -27.3661 C   0  0  0  0  0  0  0  0  0  0  0  0
   -7.1272  -14.0329  -27.6660 N   0  0  0  0  0  0  0  0  0  0  0  0
   -7.6428   -9.4264  -20.6246 C   0  0  1  0  0  0  0  0  0  0  0  0
   -8.4254   -8.4663  -19.9561 O   0  0  0  0  0  0  0  0  0  0  0  0
   -4.2614  -10.0742  -18.6693 C   0  0  0  0  0  0  0  0  0  0  0  0
   -4.4601   -7.1678  -21.9066 C   0  0  0  0  0  0  0  0  0  0  0  0
  1  2  1  1  0  0  0
  1  6  1  0  0  0  0
  1 21  1  0  0  0  0
  3  4  1  1  0  0  0
  3  8  1  0  0  0  0
  3 28  1  0  0  0  0
  5  9  1  0  0  0  0
  5 25  1  0  0  0  0
  5 29  1  6  0  0  0
  6  7  1  1  0  0  0
  6 11  1  0  0  0  0
  8 12  1  0  0  0  0
  9 10  1  6  0  0  0
  9 14  1  0  0  0  0
 11 16  1  0  0  0  0
 12 13  1  6  0  0  0
 12 17  1  0  0  0  0
 14 15  1  1  0  0  0
 14 18  1  0  0  0  0
 15 31  1  0  0  0  0
 16 20  1  0  0  0  0
 17  2  1  6  0  0  0
 17 22  1  0  0  0  0
 18 19  1  1  0  0  0
 18 24  1  0  0  0  0
 18 30  1  0  0  0  0
 20 21  1  0  0  0  0
 20 26  1  6  0  0  0
 22 23  1  1  0  0  0
 22 28  1  0  0  0  0
 24 25  1  0  0  0  0
 26 27  1  0  0  0  0
 28 29  1  1  0  0  0
M  END
>  <CHROM.1>
-140.63828492,51.84310831,-78.41938817,-78.98353227,126.67309530,115.17801792
-6.73045981,-9.66259537,-22.24241328,-1.84592237,1.21498225,1.45111857

>  <Name>
ligand

>  <RI>
0

>  <Rbt.Current_Directory>
/home/itssahil/PROJECTS/Mol_Feturizer/New_Systems/rnas/4F8U

>  <Rbt.Executable>
rbdock ($Id: //depot/dev/client3/rdock/2013.1/src/exe/rbdock.cxx#4 $)

>  <Rbt.Library>
libRbt.so (2013.1, Build901 2013/11/27)

>  <Rbt.Parameter_File>
/export/apps/rDock/src/rDock_2013.1_src/data/scripts/dock_solv.prm

>  <Rbt.Receptor>
prm/blind_docking_100.prm

>  <SCORE>
34.136

>  <SCORE.INTER>
10.9967

>  <SCORE.INTER.CONST>
1

>  <SCORE.INTER.POLAR>
0

>  <SCORE.INTER.ROT>
6

>  <SCORE.INTER.SOLV>
37.1279

>  <SCORE.INTER.VDW>
-12.6448

>  <SCORE.INTER.norm>
0.354732

>  <SCORE.INTRA>
12.4845

>  <SCORE.INTRA.DIHEDRAL>
-2.43349

>  <SCORE.INTRA.DIHEDRAL.0>
18.77

>  <SCORE.INTRA.POLAR>
0

>  <SCORE.INTRA.POLAR.0>
0

>  <SCORE.INTRA.REPUL>
0

>  <SCORE.INTRA.REPUL.0>
0

>  <SCORE.INTRA.SOLV>
5.78129

>  <SCORE.INTRA.SOLV.lig_0>
-77.2465

>  <SCORE.INTRA.VDW>
10.8106

>  <SCORE.INTRA.VDW.0>
-4.16072

>  <SCORE.INTRA.norm>
0.402727

>  <SCORE.RESTR>
10.6548

>  <SCORE.RESTR.CAVITY>
10.6548

>  <SCORE.RESTR.norm>
0.343703

>  <SCORE.SYSTEM>
0

>  <SCORE.SYSTEM.CONST>
0

>  <SCORE.SYSTEM.DIHEDRAL>
0

>  <SCORE.SYSTEM.SOLV>
0

>  <SCORE.SYSTEM.norm>
0

>  <SCORE.heavy>
31

>  <SCORE.norm>
1.10116

>  <RMSD>
8.719

$$$$
ligand
 OpenBabel11021811493D
libRbt.so/2013.1/901 2013/11/27
 31 33  0  0  0  0  0  0  0  0999 V2000
   -8.1324  -13.4879  -19.4437 C   0  0  2  0  0  0  0  0  0  0  0  0
   -7.1548  -13.1751  -18.4422 O   0  0  0  0  0  0  0  0  0  0  0  0
   -7.8563   -8.9902  -17.8781 C   0  0  2  0  0  0  0  0  0  0  0  0
   -7.7308   -7.6558  -17.3766 N   0  0  0  0  0  0  0  0  0  0  0  0
   -5.9677   -7.1180  -19.4756 C   0  0  2  0  0  0  0  0  0  0  0  0
   -7.5762  -14.7247  -20.2328 C   0  0  2  0  0  0  0  0  0  0  0  0
   -7.3381  -15.8302  -19.3115 N   0  0  0  0  0  0  0  0  0  0  0  0
   -8.2009   -9.9553  -16.6789 C   0  0  0  0  0  0  0  0  0  0  0  0
   -7.1304   -6.4079  -20.2353 C   0  0  2  0  0  0  0  0  0  0  0  0
   -8.3637   -6.7820  -19.6455 O   0  0  0  0  0  0  0  0  0  0  0  0
   -6.2539  -14.3286  -20.9776 C   0  0  0  0  0  0  0  0  0  0  0  0
   -8.3479  -11.4360  -17.2385 C   0  0  2  0  0  0  0  0  0  0  0  0
   -8.6702  -12.3525  -16.1198 N   0  0  0  0  0  0  0  0  0  0  0  0
   -7.0569   -6.8838  -21.7533 C   0  0  1  0  0  0  0  0  0  0  0  0
   -8.1687   -6.2696  -22.5558 N   0  0  0  0  0  0  0  0  0  0  0  0
   -6.4287  -12.9825  -21.7384 C   0  0  0  0  0  0  0  0  0  0  0  0
   -6.9870  -11.8772  -17.9399 C   0  0  2  0  0  0  0  0  0  0  0  0
   -5.6263   -6.4312  -22.3869 C   0  0  1  0  0  0  0  0  0  0  0  0
   -5.4523   -5.0277  -22.3589 O   0  0  0  0  0  0  0  0  0  0  0  0
   -7.4091  -12.1267  -21.4124 C   0  0  2  0  0  0  0  0  0  0  0  0
   -8.3591  -12.3767  -20.3618 O   0  0  0  0  0  0  0  0  0  0  0  0
   -6.6562  -10.8702  -19.1198 C   0  0  2  0  0  0  0  0  0  0  0  0
   -5.4207  -11.2422  -19.7436 O   0  0  0  0  0  0  0  0  0  0  0  0
   -4.4660   -7.0718  -21.5528 C   0  0  0  0  0  0  0  0  0  0  0  0
   -4.6421   -6.7349  -20.0817 O   0  0  0  0  0  0  0  0  0  0  0  0
   -7.6007  -10.7856  -22.1583 C   0  0  0  0  0  0  0  0  0  0  0  0
   -8.1154   -9.7843  -21.2347 N   0  0  0  0  0  0  0  0  0  0  0  0
   -6.5165   -9.4119  -18.5508 C   0  0  1  0  0  0  0  0  0  0  0  0
   -6.2292   -8.5492  -19.6251 O   0  0  0  0  0  0  0  0  0  0  0  0
   -5.3934   -6.8219  -23.8558 C   0  0  0  0  0  0  0  0  0  0  0  0
   -8.1910   -4.7961  -22.6226 C   0  0  0  0  0  0  0  0  0  0  0  0
  1  2  1  1  0  0  0
  1  6  1  0  0  0  0
  1 21  1  0  0  0  0
  3  4  1  1  0  0  0
  3  8  1  0  0  0  0
  3 28  1  0  0  0  0
  5  9  1  0  0  0  0
  5 25  1  0  0  0  0
  5 29  1  6  0  0  0
  6  7  1  1  0  0  0
  6 11  1  0  0  0  0
  8 12  1  0  0  0  0
  9 10  1  1  0  0  0
  9 14  1  0  0  0  0
 11 16  1  0  0  0  0
 12 13  1  1  0  0  0
 12 17  1  0  0  0  0
 14 15  1  6  0  0  0
 14 18  1  0  0  0  0
 15 31  1  0  0  0  0
 16 20  1  0  0  0  0
 17  2  1  6  0  0  0
 17 22  1  0  0  0  0
 18 19  1  1  0  0  0
 18 24  1  0  0  0  0
 18 30  1  0  0  0  0
 20 21  1  0  0  0  0
 20 26  1  6  0  0  0
 22 23  1  1  0  0  0
 22 28  1  0  0  0  0
 24 25  1  0  0  0  0
 26 27  1  0  0  0  0
 28 29  1  6  0  0  0
M  END
>  <CHROM.1>
152.14058054,-116.08988758,60.52636649,61.69882848,-147.41019303,63.78114085
-6.99802462,-9.71450184,-20.08835291,-2.08040815,1.28484797,0.15311329

>  <Name>
ligand

>  <RI>
0

>  <Rbt.Current_Directory>
/home/itssahil/PROJECTS/Mol_Feturizer/New_Systems/rnas/4F8U

>  <Rbt.Executable>
rbdock ($Id: //depot/dev/client3/rdock/2013.1/src/exe/rbdock.cxx#4 $)

>  <Rbt.Library>
libRbt.so (2013.1, Build901 2013/11/27)

>  <Rbt.Parameter_File>
/export/apps/rDock/src/rDock_2013.1_src/data/scripts/dock_solv.prm

>  <Rbt.Receptor>
prm/blind_docking_60.prm

>  <SCORE>
61.9315

>  <SCORE.INTER>
33.128

>  <SCORE.INTER.CONST>
1

>  <SCORE.INTER.POLAR>
0

>  <SCORE.INTER.ROT>
6

>  <SCORE.INTER.SOLV>
25.8428

>  <SCORE.INTER.VDW>
5.87108

>  <SCORE.INTER.norm>
1.06865

>  <SCORE.INTRA>
8.10864

>  <SCORE.INTRA.DIHEDRAL>
-5.84949

>  <SCORE.INTRA.DIHEDRAL.0>
18.77

>  <SCORE.INTRA.POLAR>
0

>  <SCORE.INTRA.POLAR.0>
0

>  <SCORE.INTRA.REPUL>
0

>  <SCORE.INTRA.REPUL.0>
0

>  <SCORE.INTRA.SOLV>
8.89403

>  <SCORE.INTRA.SOLV.lig_0>
-77.2465

>  <SCORE.INTRA.VDW>
6.58637

>  <SCORE.INTRA.VDW.0>
-4.16072

>  <SCORE.INTRA.norm>
0.261569

>  <SCORE.RESTR>
20.6948

>  <SCORE.RESTR.CAVITY>
20.6948

>  <SCORE.RESTR.norm>
0.667575

>  <SCORE.SYSTEM>
0

>  <SCORE.SYSTEM.CONST>
0

>  <SCORE.SYSTEM.DIHEDRAL>
0

>  <SCORE.SYSTEM.SOLV>
0

>  <SCORE.SYSTEM.norm>
0

>  <SCORE.heavy>
31

>  <SCORE.norm>
1.99779

>  <RMSD>
8.727

$$$$
ligand
 OpenBabel11021811493D
libRbt.so/2013.1/901 2013/11/27
 31 33  0  0  0  0  0  0  0  0999 V2000
   -2.2652   -9.7257  -15.6190 C   0  0  2  0  0  0  0  0  0  0  0  0
   -2.4218  -10.9776  -16.3008 O   0  0  0  0  0  0  0  0  0  0  0  0
   -5.4847  -12.6377  -18.7880 C   0  0  2  0  0  0  0  0  0  0  0  0
   -6.7469  -13.1704  -19.2018 N   0  0  0  0  0  0  0  0  0  0  0  0
   -7.2759   -9.3963  -19.1038 C   0  0  2  0  0  0  0  0  0  0  0  0
   -0.7230   -9.4412  -15.5665 C   0  0  2  0  0  0  0  0  0  0  0  0
   -0.1801   -9.4188  -16.9202 N   0  0  0  0  0  0  0  0  0  0  0  0
   -4.8920  -13.5558  -17.6505 C   0  0  0  0  0  0  0  0  0  0  0  0
   -7.8463   -9.1290  -20.5308 C   0  0  2  0  0  0  0  0  0  0  0  0
   -8.3372  -10.3456  -21.0672 O   0  0  0  0  0  0  0  0  0  0  0  0
   -0.0100  -10.5376  -14.7009 C   0  0  0  0  0  0  0  0  0  0  0  0
   -3.4863  -12.9676  -17.1973 C   0  0  2  0  0  0  0  0  0  0  0  0
   -2.9202  -13.8215  -16.1270 N   0  0  0  0  0  0  0  0  0  0  0  0
   -6.6497   -8.5585  -21.4135 C   0  0  1  0  0  0  0  0  0  0  0  0
   -7.1053   -8.3027  -22.8221 N   0  0  0  0  0  0  0  0  0  0  0  0
   -0.7671  -10.7641  -13.3604 C   0  0  0  0  0  0  0  0  0  0  0  0
   -3.6786  -11.4761  -16.6706 C   0  0  2  0  0  0  0  0  0  0  0  0
   -6.1213   -7.1632  -20.7603 C   0  0  1  0  0  0  0  0  0  0  0  0
   -7.1373   -6.1802  -20.7119 O   0  0  0  0  0  0  0  0  0  0  0  0
   -2.0477  -10.3903  -13.2184 C   0  0  2  0  0  0  0  0  0  0  0  0
   -2.8079   -9.7613  -14.2649 O   0  0  0  0  0  0  0  0  0  0  0  0
   -4.3024  -10.5891  -17.8281 C   0  0  2  0  0  0  0  0  0  0  0  0
   -4.5031   -9.2498  -17.3588 O   0  0  0  0  0  0  0  0  0  0  0  0
   -5.6443   -7.4280  -19.2924 C   0  0  0  0  0  0  0  0  0  0  0  0
   -6.7487   -8.1163  -18.5079 O   0  0  0  0  0  0  0  0  0  0  0  0
   -2.8163  -10.6043  -11.8936 C   0  0  0  0  0  0  0  0  0  0  0  0
   -3.8187  -11.6448  -12.0753 N   0  0  0  0  0  0  0  0  0  0  0  0
   -5.6892  -11.1847  -18.2659 C   0  0  1  0  0  0  0  0  0  0  0  0
   -6.2071  -10.3760  -19.2949 O   0  0  0  0  0  0  0  0  0  0  0  0
   -4.9560   -6.4810  -21.4959 C   0  0  0  0  0  0  0  0  0  0  0  0
   -7.5101   -9.4862  -23.6044 C   0  0  0  0  0  0  0  0  0  0  0  0
  1  2  1  1  0  0  0
  1  6  1  0  0  0  0
  1 21  1  0  0  0  0
  3  4  1  1  0  0  0
  3  8  1  0  0  0  0
  3 28  1  0  0  0  0
  5  9  1  0  0  0  0
  5 25  1  0  0  0  0
  5 29  1  6  0  0  0
  6  7  1  6  0  0  0
  6 11  1  0  0  0  0
  8 12  1  0  0  0  0
  9 10  1  6  0  0  0
  9 14  1  0  0  0  0
 11 16  1  0  0  0  0
 12 13  1  1  0  0  0
 12 17  1  0  0  0  0
 14 15  1  6  0  0  0
 14 18  1  0  0  0  0
 15 31  1  0  0  0  0
 16 20  1  0  0  0  0
 17  2  1  6  0  0  0
 17 22  1  0  0  0  0
 18 19  1  1  0  0  0
 18 24  1  0  0  0  0
 18 30  1  0  0  0  0
 20 21  1  0  0  0  0
 20 26  1  1  0  0  0
 22 23  1  1  0  0  0
 22 28  1  0  0  0  0
 24 25  1  0  0  0  0
 26 27  1  0  0  0  0
 28 29  1  6  0  0  0
M  END
>  <CHROM.1>
-172.39397313,-160.63900286,-64.86557395,-171.49792385,-109.60772276,137.49138126
-4.58208377,-10.06069160,-17.81912856,-0.56503570,-0.83413107,-0.38856753

>  <Name>
ligand

>  <RI>
0

>  <Rbt.Current_Directory>
/home/itssahil/PROJECTS/Mol_Feturizer/New_Systems/rnas/4F8U

>  <Rbt.Executable>
rbdock ($Id: //depot/dev/client3/rdock/2013.1/src/exe/rbdock.cxx#4 $)

>  <Rbt.Library>
libRbt.so (2013.1, Build901 2013/11/27)

>  <Rbt.Parameter_File>
/export/apps/rDock/src/rDock_2013.1_src/data/scripts/dock_solv.prm

>  <Rbt.Receptor>
prm/pocket_docking_4.prm

>  <SCORE>
-12.1078

>  <SCORE.INTER>
-8.69391

>  <SCORE.INTER.CONST>
1

>  <SCORE.INTER.POLAR>
0

>  <SCORE.INTER.ROT>
6

>  <SCORE.INTER.SOLV>
12.5759

>  <SCORE.INTER.VDW>
-17.5879

>  <SCORE.INTER.norm>
-0.280449

>  <SCORE.INTRA>
-3.45085

>  <SCORE.INTRA.DIHEDRAL>
-8.8099

>  <SCORE.INTRA.DIHEDRAL.0>
18.77

>  <SCORE.INTRA.POLAR>
0

>  <SCORE.INTRA.POLAR.0>
0

>  <SCORE.INTRA.REPUL>
0

>  <SCORE.INTRA.REPUL.0>
0

>  <SCORE.INTRA.SOLV>
-2.16009

>  <SCORE.INTRA.SOLV.lig_0>
-77.2465

>  <SCORE.INTRA.VDW>
2.03414

>  <SCORE.INTRA.VDW.0>
-4.16072

>  <SCORE.INTRA.norm>
-0.111318

>  <SCORE.RESTR>
0.0369615

>  <SCORE.RESTR.CAVITY>
0.0369615

>  <SCORE.RESTR.norm>
0.00119231

>  <SCORE.SYSTEM>
0

>  <SCORE.SYSTEM.CONST>
0

>  <SCORE.SYSTEM.DIHEDRAL>
0

>  <SCORE.SYSTEM.SOLV>
0

>  <SCORE.SYSTEM.norm>
0

>  <SCORE.heavy>
31

>  <SCORE.norm>
-0.390574

>  <RMSD>
8.737

$$$$
ligand
 OpenBabel11021811493D
libRbt.so/2013.1/901 2013/11/27
 31 33  0  0  0  0  0  0  0  0999 V2000
   -6.4647  -13.0728  -18.2387 C   0  0  2  0  0  0  0  0  0  0  0  0
   -5.5113  -12.0626  -17.8824 O   0  0  0  0  0  0  0  0  0  0  0  0
   -7.3695   -8.2843  -18.6539 C   0  0  2  0  0  0  0  0  0  0  0  0
   -7.7806   -6.9233  -18.4899 N   0  0  0  0  0  0  0  0  0  0  0  0
   -5.2310   -8.1167  -21.1599 C   0  0  2  0  0  0  0  0  0  0  0  0
   -5.6415  -14.2624  -18.8464 C   0  0  2  0  0  0  0  0  0  0  0  0
   -4.6603  -14.7299  -17.8734 N   0  0  0  0  0  0  0  0  0  0  0  0
   -7.9170   -9.1319  -17.4416 C   0  0  0  0  0  0  0  0  0  0  0  0
   -4.7220   -6.9172  -22.0174 C   0  0  2  0  0  0  0  0  0  0  0  0
   -3.4683   -6.4888  -21.5139 O   0  0  0  0  0  0  0  0  0  0  0  0
   -4.9352  -13.7990  -20.1678 C   0  0  0  0  0  0  0  0  0  0  0  0
   -7.4666  -10.6449  -17.6289 C   0  0  2  0  0  0  0  0  0  0  0  0
   -7.9742  -11.4511  -16.4942 N   0  0  0  0  0  0  0  0  0  0  0  0
   -5.8102   -5.7607  -21.8964 C   0  0  1  0  0  0  0  0  0  0  0  0
   -5.3815   -4.5464  -22.6703 N   0  0  0  0  0  0  0  0  0  0  0  0
   -5.9312  -13.0399  -21.0915 C   0  0  0  0  0  0  0  0  0  0  0  0
   -5.8764  -10.7223  -17.6943 C   0  0  2  0  0  0  0  0  0  0  0  0
   -7.2297   -6.2982  -22.4873 C   0  0  1  0  0  0  0  0  0  0  0  0
   -7.1331   -6.6681  -23.8492 O   0  0  0  0  0  0  0  0  0  0  0  0
   -7.0606  -12.5079  -20.6004 C   0  0  2  0  0  0  0  0  0  0  0  0
   -7.4381  -12.5954  -19.2153 O   0  0  0  0  0  0  0  0  0  0  0  0
   -5.3590   -9.8370  -18.9043 C   0  0  2  0  0  0  0  0  0  0  0  0
   -3.9274   -9.8788  -18.9590 O   0  0  0  0  0  0  0  0  0  0  0  0
   -7.6792   -7.5630  -21.6808 C   0  0  0  0  0  0  0  0  0  0  0  0
   -6.5637   -8.5947  -21.6764 O   0  0  0  0  0  0  0  0  0  0  0  0
   -8.0641  -11.7524  -21.5026 C   0  0  0  0  0  0  0  0  0  0  0  0
   -8.2514  -10.4001  -20.9959 N   0  0  0  0  0  0  0  0  0  0  0  0
   -5.8142   -8.3462  -18.7052 C   0  0  1  0  0  0  0  0  0  0  0  0
   -5.3422   -7.5953  -19.7981 O   0  0  0  0  0  0  0  0  0  0  0  0
   -8.3950   -5.2961  -22.4390 C   0  0  0  0  0  0  0  0  0  0  0  0
   -4.2559   -3.7758  -22.1086 C   0  0  0  0  0  0  0  0  0  0  0  0
  1  2  1  6  0  0  0
  1  6  1  0  0  0  0
  1 21  1  0  0  0  0
  3  4  1  1  0  0  0
  3  8  1  0  0  0  0
  3 28  1  0  0  0  0
  5  9  1  0  0  0  0
  5 25  1  0  0  0  0
  5 29  1  1  0  0  0
  6  7  1  1  0  0  0
  6 11  1  0  0  0  0
  8 12  1  0  0  0  0
  9 10  1  1  0  0  0
  9 14  1  0  0  0  0
 11 16  1  0  0  0  0
 12 13  1  1  0  0  0
 12 17  1  0  0  0  0
 14 15  1  6  0  0  0
 14 18  1  0  0  0  0
 15 31  1  0  0  0  0
 16 20  1  0  0  0  0
 17  2  1  6  0  0  0
 17 22  1  0  0  0  0
 18 19  1  6  0  0  0
 18 24  1  0  0  0  0
 18 30  1  0  0  0  0
 20 21  1  0  0  0  0
 20 26  1  6  0  0  0
 22 23  1  1  0  0  0
 22 28  1  0  0  0  0
 24 25  1  0  0  0  0
 26 27  1  0  0  0  0
 28 29  1  6  0  0  0
M  END
>  <CHROM.1>
160.15117537,177.82464884,-71.24379472,12.12965706,-122.28612613,-84.95019967
-6.25949349,-9.36070138,-20.11128758,1.70278585,-1.33572603,2.81636409

>  <Name>
ligand

>  <RI>
0

>  <Rbt.Current_Directory>
/home/itssahil/PROJECTS/Mol_Feturizer/New_Systems/rnas/4F8U

>  <Rbt.Executable>
rbdock ($Id: //depot/dev/client3/rdock/2013.1/src/exe/rbdock.cxx#4 $)

>  <Rbt.Library>
libRbt.so (2013.1, Build901 2013/11/27)

>  <Rbt.Parameter_File>
/export/apps/rDock/src/rDock_2013.1_src/data/scripts/dock_solv.prm

>  <Rbt.Receptor>
prm/blind_docking_60.prm

>  <SCORE>
36.6064

>  <SCORE.INTER>
8.2246

>  <SCORE.INTER.CONST>
1

>  <SCORE.INTER.POLAR>
0

>  <SCORE.INTER.ROT>
6

>  <SCORE.INTER.SOLV>
24.5551

>  <SCORE.INTER.VDW>
-10.302

>  <SCORE.INTER.norm>
0.26531

>  <SCORE.INTRA>
5.38561

>  <SCORE.INTRA.DIHEDRAL>
-6.02461

>  <SCORE.INTRA.DIHEDRAL.0>
18.77

>  <SCORE.INTRA.POLAR>
0

>  <SCORE.INTRA.POLAR.0>
0

>  <SCORE.INTRA.REPUL>
0

>  <SCORE.INTRA.REPUL.0>
0

>  <SCORE.INTRA.SOLV>
7.34609

>  <SCORE.INTRA.SOLV.lig_0>
-77.2465

>  <SCORE.INTRA.VDW>
4.72487

>  <SCORE.INTRA.VDW.0>
-4.16072

>  <SCORE.INTRA.norm>
0.173729

>  <SCORE.RESTR>
22.9962

>  <SCORE.RESTR.CAVITY>
22.9962

>  <SCORE.RESTR.norm>
0.741813

>  <SCORE.SYSTEM>
0

>  <SCORE.SYSTEM.CONST>
0

>  <SCORE.SYSTEM.DIHEDRAL>
0

>  <SCORE.SYSTEM.SOLV>
0

>  <SCORE.SYSTEM.norm>
0

>  <SCORE.heavy>
31

>  <SCORE.norm>
1.18085

>  <RMSD>
8.766

$$$$
ligand
 OpenBabel11021811493D
libRbt.so/2013.1/901 2013/11/27
 31 33  0  0  0  0  0  0  0  0999 V2000
   -5.7944  -13.2208  -21.5170 C   0  0  2  0  0  0  0  0  0  0  0  0
   -7.1241  -13.1608  -22.0507 O   0  0  0  0  0  0  0  0  0  0  0  0
   -7.5903   -8.9484  -22.6525 C   0  0  2  0  0  0  0  0  0  0  0  0
   -8.1825   -7.6903  -22.9905 N   0  0  0  0  0  0  0  0  0  0  0  0
   -7.3638   -8.8398  -19.3272 C   0  0  2  0  0  0  0  0  0  0  0  0
   -5.5661  -14.7062  -21.0660 C   0  0  2  0  0  0  0  0  0  0  0  0
   -5.7595  -15.6010  -22.2017 N   0  0  0  0  0  0  0  0  0  0  0  0
   -7.5899   -9.8719  -23.9313 C   0  0  0  0  0  0  0  0  0  0  0  0
   -6.9362   -7.3594  -19.0846 C   0  0  2  0  0  0  0  0  0  0  0  0
   -8.0667   -6.6153  -18.6638 O   0  0  0  0  0  0  0  0  0  0  0  0
   -6.5539  -15.0656  -19.9020 C   0  0  0  0  0  0  0  0  0  0  0  0
   -6.9246  -11.2662  -23.5566 C   0  0  2  0  0  0  0  0  0  0  0  0
   -6.9203  -12.1433  -24.7507 N   0  0  0  0  0  0  0  0  0  0  0  0
   -6.3698   -6.8039  -20.4655 C   0  0  1  0  0  0  0  0  0  0  0  0
   -5.9627   -5.3640  -20.3304 N   0  0  0  0  0  0  0  0  0  0  0  0
   -6.5556  -13.9533  -18.8137 C   0  0  0  0  0  0  0  0  0  0  0  0
   -7.7467  -11.9472  -22.3736 C   0  0  2  0  0  0  0  0  0  0  0  0
   -5.0743   -7.6872  -20.9062 C   0  0  1  0  0  0  0  0  0  0  0  0
   -4.0353   -7.6220  -19.9486 O   0  0  0  0  0  0  0  0  0  0  0  0
   -6.1153  -12.7164  -19.0891 C   0  0  2  0  0  0  0  0  0  0  0  0
   -5.6138  -12.3252  -20.3792 O   0  0  0  0  0  0  0  0  0  0  0  0
   -7.7514  -10.9806  -21.1161 C   0  0  2  0  0  0  0  0  0  0  0  0
   -8.5089  -11.5715  -20.0525 O   0  0  0  0  0  0  0  0  0  0  0  0
   -5.4969   -9.1883  -21.0492 C   0  0  0  0  0  0  0  0  0  0  0  0
   -6.1779   -9.6556  -19.7737 O   0  0  0  0  0  0  0  0  0  0  0  0
   -6.1066  -11.5985  -18.0206 C   0  0  0  0  0  0  0  0  0  0  0  0
   -7.4724  -11.3129  -17.6040 N   0  0  0  0  0  0  0  0  0  0  0  0
   -8.4096   -9.6072  -21.5034 C   0  0  1  0  0  0  0  0  0  0  0  0
   -8.3906   -8.7773  -20.3668 O   0  0  0  0  0  0  0  0  0  0  0  0
   -4.4077   -7.2794  -22.2305 C   0  0  0  0  0  0  0  0  0  0  0  0
   -6.2244   -4.4976  -21.4954 C   0  0  0  0  0  0  0  0  0  0  0  0
  1  2  1  1  0  0  0
  1  6  1  0  0  0  0
  1 21  1  0  0  0  0
  3  4  1  6  0  0  0
  3  8  1  0  0  0  0
  3 28  1  0  0  0  0
  5  9  1  0  0  0  0
  5 25  1  0  0  0  0
  5 29  1  6  0  0  0
  6  7  1  6  0  0  0
  6 11  1  0  0  0  0
  8 12  1  0  0  0  0
  9 10  1  6  0  0  0
  9 14  1  0  0  0  0
 11 16  1  0  0  0  0
 12 13  1  6  0  0  0
 12 17  1  0  0  0  0
 14 15  1  1  0  0  0
 14 18  1  0  0  0  0
 15 31  1  0  0  0  0
 16 20  1  0  0  0  0
 17  2  1  1  0  0  0
 17 22  1  0  0  0  0
 18 19  1  1  0  0  0
 18 24  1  0  0  0  0
 18 30  1  0  0  0  0
 20 21  1  0  0  0  0
 20 26  1  1  0  0  0
 22 23  1  1  0  0  0
 22 28  1  0  0  0  0
 24 25  1  0  0  0  0
 26 27  1  0  0  0  0
 28 29  1  1  0  0  0
M  END
>  <CHROM.1>
170.47893687,132.64285625,-143.03311014,64.12404587,-63.17321418,-88.80456125
-6.66994112,-10.21219487,-20.85512519,1.67240564,1.49027797,3.08021420

>  <Name>
ligand

>  <RI>
0

>  <Rbt.Current_Directory>
/home/itssahil/PROJECTS/Mol_Feturizer/New_Systems/rnas/4F8U

>  <Rbt.Executable>
rbdock ($Id: //depot/dev/client3/rdock/2013.1/src/exe/rbdock.cxx#4 $)

>  <Rbt.Library>
libRbt.so (2013.1, Build901 2013/11/27)

>  <Rbt.Parameter_File>
/export/apps/rDock/src/rDock_2013.1_src/data/scripts/dock_solv.prm

>  <Rbt.Receptor>
prm/blind_docking_60.prm

>  <SCORE>
49.7344

>  <SCORE.INTER>
20.5807

>  <SCORE.INTER.CONST>
1

>  <SCORE.INTER.POLAR>
0

>  <SCORE.INTER.ROT>
6

>  <SCORE.INTER.SOLV>
23.6991

>  <SCORE.INTER.VDW>
-1.77919

>  <SCORE.INTER.norm>
0.663895

>  <SCORE.INTRA>
13.514

>  <SCORE.INTRA.DIHEDRAL>
-4.03345

>  <SCORE.INTRA.DIHEDRAL.0>
18.77

>  <SCORE.INTRA.POLAR>
0

>  <SCORE.INTRA.POLAR.0>
0

>  <SCORE.INTRA.REPUL>
0.280887

>  <SCORE.INTRA.REPUL.0>
0

>  <SCORE.INTRA.SOLV>
6.68179

>  <SCORE.INTRA.SOLV.lig_0>
-77.2465

>  <SCORE.INTRA.VDW>
10.7854

>  <SCORE.INTRA.VDW.0>
-4.16072

>  <SCORE.INTRA.norm>
0.435935

>  <SCORE.RESTR>
15.6397

>  <SCORE.RESTR.CAVITY>
15.6397

>  <SCORE.RESTR.norm>
0.504505

>  <SCORE.SYSTEM>
0

>  <SCORE.SYSTEM.CONST>
0

>  <SCORE.SYSTEM.DIHEDRAL>
0

>  <SCORE.SYSTEM.SOLV>
0

>  <SCORE.SYSTEM.norm>
0

>  <SCORE.heavy>
31

>  <SCORE.norm>
1.60434

>  <RMSD>
8.786

$$$$
ligand
 OpenBabel11021811493D
libRbt.so/2013.1/901 2013/11/27
 31 33  0  0  0  0  0  0  0  0999 V2000
   -2.1793  -10.9274  -12.9030 C   0  0  2  0  0  0  0  0  0  0  0  0
   -3.0711  -11.3698  -13.9351 O   0  0  0  0  0  0  0  0  0  0  0  0
   -6.5438  -10.2576  -16.1771 C   0  0  2  0  0  0  0  0  0  0  0  0
   -7.7088   -9.5382  -16.5936 N   0  0  0  0  0  0  0  0  0  0  0  0
   -5.1851   -9.7490  -18.7418 C   0  0  2  0  0  0  0  0  0  0  0  0
   -1.0102  -11.9727  -12.8513 C   0  0  2  0  0  0  0  0  0  0  0  0
   -0.3657  -12.0556  -14.1573 N   0  0  0  0  0  0  0  0  0  0  0  0
   -6.7623  -10.7717  -14.7020 C   0  0  0  0  0  0  0  0  0  0  0  0
   -4.4641   -8.9653  -19.8816 C   0  0  2  0  0  0  0  0  0  0  0  0
   -3.1259   -8.7094  -19.4911 O   0  0  0  0  0  0  0  0  0  0  0  0
   -1.5687  -13.3729  -12.4184 C   0  0  0  0  0  0  0  0  0  0  0  0
   -5.4708  -11.5774  -14.2434 C   0  0  2  0  0  0  0  0  0  0  0  0
   -5.6640  -12.0642  -12.8574 N   0  0  0  0  0  0  0  0  0  0  0  0
   -5.2658   -7.6057  -20.0941 C   0  0  1  0  0  0  0  0  0  0  0  0
   -4.6161   -6.7682  -21.1589 N   0  0  0  0  0  0  0  0  0  0  0  0
   -2.4976  -13.2391  -11.1772 C   0  0  0  0  0  0  0  0  0  0  0  0
   -4.1947  -10.6266  -14.3224 C   0  0  2  0  0  0  0  0  0  0  0  0
   -6.7934   -7.9502  -20.5422 C   0  0  1  0  0  0  0  0  0  0  0  0
   -6.8409   -8.6805  -21.7527 O   0  0  0  0  0  0  0  0  0  0  0  0
   -3.0504  -12.0609  -10.8516 C   0  0  2  0  0  0  0  0  0  0  0  0
   -2.8335  -10.8524  -11.6008 O   0  0  0  0  0  0  0  0  0  0  0  0
   -4.0222  -10.1053  -15.8104 C   0  0  2  0  0  0  0  0  0  0  0  0
   -2.8910   -9.2289  -15.8898 O   0  0  0  0  0  0  0  0  0  0  0  0
   -7.4731   -8.8219  -19.4329 C   0  0  0  0  0  0  0  0  0  0  0  0
   -6.6118  -10.0371  -19.1327 O   0  0  0  0  0  0  0  0  0  0  0  0
   -3.9740  -11.9072   -9.6207 C   0  0  0  0  0  0  0  0  0  0  0  0
   -4.5703  -13.1954   -9.2959 N   0  0  0  0  0  0  0  0  0  0  0  0
   -5.3071   -9.3138  -16.2489 C   0  0  1  0  0  0  0  0  0  0  0  0
   -5.1187   -8.8732  -17.5723 O   0  0  0  0  0  0  0  0  0  0  0  0
   -7.7073   -6.7376  -20.7846 C   0  0  0  0  0  0  0  0  0  0  0  0
   -4.9547   -5.3324  -21.1599 C   0  0  0  0  0  0  0  0  0  0  0  0
  1  2  1  6  0  0  0
  1  6  1  0  0  0  0
  1 21  1  0  0  0  0
  3  4  1  1  0  0  0
  3  8  1  0  0  0  0
  3 28  1  0  0  0  0
  5  9  1  0  0  0  0
  5 25  1  0  0  0  0
  5 29  1  1  0  0  0
  6  7  1  6  0  0  0
  6 11  1  0  0  0  0
  8 12  1  0  0  0  0
  9 10  1  1  0  0  0
  9 14  1  0  0  0  0
 11 16  1  0  0  0  0
 12 13  1  1  0  0  0
 12 17  1  0  0  0  0
 14 15  1  6  0  0  0
 14 18  1  0  0  0  0
 15 31  1  0  0  0  0
 16 20  1  0  0  0  0
 17  2  1  6  0  0  0
 17 22  1  0  0  0  0
 18 19  1  6  0  0  0
 18 24  1  0  0  0  0
 18 30  1  0  0  0  0
 20 21  1  0  0  0  0
 20 26  1  1  0  0  0
 22 23  1  1  0  0  0
 22 28  1  0  0  0  0
 24 25  1  0  0  0  0
 26 27  1  0  0  0  0
 28 29  1  6  0  0  0
M  END
>  <CHROM.1>
-175.83221127,-161.61280411,-160.41330437,-126.68671888,-24.36099192,-45.02871192
-4.57487961,-10.05912072,-16.02524037,-1.27412098,-0.01117801,-1.10226825

>  <Name>
ligand

>  <RI>
0

>  <Rbt.Current_Directory>
/home/itssahil/PROJECTS/Mol_Feturizer/New_Systems/rnas/4F8U

>  <Rbt.Executable>
rbdock ($Id: //depot/dev/client3/rdock/2013.1/src/exe/rbdock.cxx#4 $)

>  <Rbt.Library>
libRbt.so (2013.1, Build901 2013/11/27)

>  <Rbt.Parameter_File>
/export/apps/rDock/src/rDock_2013.1_src/data/scripts/dock_solv.prm

>  <Rbt.Receptor>
prm/pocket_docking_3.prm

>  <SCORE>
-7.89227

>  <SCORE.INTER>
-8.70007

>  <SCORE.INTER.CONST>
1

>  <SCORE.INTER.POLAR>
0

>  <SCORE.INTER.ROT>
6

>  <SCORE.INTER.SOLV>
19.9342

>  <SCORE.INTER.VDW>
-20.0448

>  <SCORE.INTER.norm>
-0.280647

>  <SCORE.INTRA>
0.807796

>  <SCORE.INTRA.DIHEDRAL>
-6.45647

>  <SCORE.INTRA.DIHEDRAL.0>
18.77

>  <SCORE.INTRA.POLAR>
0

>  <SCORE.INTRA.POLAR.0>
0

>  <SCORE.INTRA.REPUL>
0

>  <SCORE.INTRA.REPUL.0>
0

>  <SCORE.INTRA.SOLV>
2.99574

>  <SCORE.INTRA.SOLV.lig_0>
-77.2465

>  <SCORE.INTRA.VDW>
2.53816

>  <SCORE.INTRA.VDW.0>
-4.16072

>  <SCORE.INTRA.norm>
0.0260579

>  <SCORE.RESTR>
0

>  <SCORE.RESTR.CAVITY>
0

>  <SCORE.RESTR.norm>
0

>  <SCORE.SYSTEM>
0

>  <SCORE.SYSTEM.CONST>
0

>  <SCORE.SYSTEM.DIHEDRAL>
0

>  <SCORE.SYSTEM.SOLV>
0

>  <SCORE.SYSTEM.norm>
0

>  <SCORE.heavy>
31

>  <SCORE.norm>
-0.25459

>  <RMSD>
8.804

$$$$
ligand
 OpenBabel11021811493D
libRbt.so/2013.1/901 2013/11/27
 31 33  0  0  0  0  0  0  0  0999 V2000
   -4.8240  -12.8916  -18.5007 C   0  0  2  0  0  0  0  0  0  0  0  0
   -6.2424  -13.0271  -18.6629 O   0  0  0  0  0  0  0  0  0  0  0  0
   -6.9144  -10.6315  -22.1462 C   0  0  2  0  0  0  0  0  0  0  0  0
   -7.5787  -10.0191  -23.2561 N   0  0  0  0  0  0  0  0  0  0  0  0
   -6.6300   -8.1189  -19.7653 C   0  0  2  0  0  0  0  0  0  0  0  0
   -4.4854  -13.4628  -17.0791 C   0  0  2  0  0  0  0  0  0  0  0  0
   -4.9348  -14.8474  -16.9849 N   0  0  0  0  0  0  0  0  0  0  0  0
   -6.9768  -12.1985  -22.3160 C   0  0  0  0  0  0  0  0  0  0  0  0
   -7.0526   -6.6178  -19.8042 C   0  0  2  0  0  0  0  0  0  0  0  0
   -8.4014   -6.5068  -19.3833 O   0  0  0  0  0  0  0  0  0  0  0  0
   -5.1686  -12.5815  -15.9762 C   0  0  0  0  0  0  0  0  0  0  0  0
   -6.2318  -12.8774  -21.0866 C   0  0  2  0  0  0  0  0  0  0  0  0
   -6.2854  -14.3506  -21.2345 N   0  0  0  0  0  0  0  0  0  0  0  0
   -6.8821   -6.1227  -21.3082 C   0  0  1  0  0  0  0  0  0  0  0  0
   -7.3017   -4.6864  -21.4441 N   0  0  0  0  0  0  0  0  0  0  0  0
   -4.9216  -11.0687  -16.2443 C   0  0  0  0  0  0  0  0  0  0  0  0
   -6.9340  -12.4324  -19.7273 C   0  0  2  0  0  0  0  0  0  0  0  0
   -5.3197   -6.2674  -21.7450 C   0  0  1  0  0  0  0  0  0  0  0  0
   -4.4649   -5.4905  -20.9285 O   0  0  0  0  0  0  0  0  0  0  0  0
   -4.5673  -10.6317  -17.4621 C   0  0  2  0  0  0  0  0  0  0  0  0
   -4.3867  -11.5025  -18.5925 O   0  0  0  0  0  0  0  0  0  0  0  0
   -6.8792  -10.8522  -19.6033 C   0  0  2  0  0  0  0  0  0  0  0  0
   -7.5297  -10.4372  -18.3956 O   0  0  0  0  0  0  0  0  0  0  0  0
   -4.8808   -7.7641  -21.6056 C   0  0  0  0  0  0  0  0  0  0  0  0
   -5.1963   -8.2655  -20.2064 O   0  0  0  0  0  0  0  0  0  0  0  0
   -4.3148   -9.1329  -17.7477 C   0  0  0  0  0  0  0  0  0  0  0  0
   -3.3171   -8.9994  -18.7999 N   0  0  0  0  0  0  0  0  0  0  0  0
   -7.6174  -10.1969  -20.8262 C   0  0  1  0  0  0  0  0  0  0  0  0
   -7.5430   -8.7986  -20.6835 O   0  0  0  0  0  0  0  0  0  0  0  0
   -4.9852   -5.8323  -23.1814 C   0  0  0  0  0  0  0  0  0  0  0  0
   -6.7158   -3.7389  -20.4770 C   0  0  0  0  0  0  0  0  0  0  0  0
  1  2  1  1  0  0  0
  1  6  1  0  0  0  0
  1 21  1  0  0  0  0
  3  4  1  6  0  0  0
  3  8  1  0  0  0  0
  3 28  1  0  0  0  0
  5  9  1  0  0  0  0
  5 25  1  0  0  0  0
  5 29  1  6  0  0  0
  6  7  1  6  0  0  0
  6 11  1  0  0  0  0
  8 12  1  0  0  0  0
  9 10  1  6  0  0  0
  9 14  1  0  0  0  0
 11 16  1  0  0  0  0
 12 13  1  6  0  0  0
 12 17  1  0  0  0  0
 14 15  1  1  0  0  0
 14 18  1  0  0  0  0
 15 31  1  0  0  0  0
 16 20  1  0  0  0  0
 17  2  1  1  0  0  0
 17 22  1  0  0  0  0
 18 19  1  1  0  0  0
 18 24  1  0  0  0  0
 18 30  1  0  0  0  0
 20 21  1  0  0  0  0
 20 26  1  1  0  0  0
 22 23  1  1  0  0  0
 22 28  1  0  0  0  0
 24 25  1  0  0  0  0
 26 27  1  0  0  0  0
 28 29  1  1  0  0  0
M  END
>  <CHROM.1>
169.81470989,-171.92897448,50.49231298,53.36176964,149.56102743,-104.13860357
-5.98692269,-9.64558160,-19.83760103,-1.31446773,-1.10573409,-0.16509491

>  <Name>
ligand

>  <RI>
0

>  <Rbt.Current_Directory>
/home/itssahil/PROJECTS/Mol_Feturizer/New_Systems/rnas/4F8U

>  <Rbt.Executable>
rbdock ($Id: //depot/dev/client3/rdock/2013.1/src/exe/rbdock.cxx#4 $)

>  <Rbt.Library>
libRbt.so (2013.1, Build901 2013/11/27)

>  <Rbt.Parameter_File>
/export/apps/rDock/src/rDock_2013.1_src/data/scripts/dock_solv.prm

>  <Rbt.Receptor>
prm/blind_docking_60.prm

>  <SCORE>
20.9212

>  <SCORE.INTER>
-0.385438

>  <SCORE.INTER.CONST>
1

>  <SCORE.INTER.POLAR>
0

>  <SCORE.INTER.ROT>
6

>  <SCORE.INTER.SOLV>
25.9858

>  <SCORE.INTER.VDW>
-16.5189

>  <SCORE.INTER.norm>
-0.0124335

>  <SCORE.INTRA>
1.38455

>  <SCORE.INTRA.DIHEDRAL>
-9.01968

>  <SCORE.INTRA.DIHEDRAL.0>
18.77

>  <SCORE.INTRA.POLAR>
0

>  <SCORE.INTRA.POLAR.0>
0

>  <SCORE.INTRA.REPUL>
0.0977922

>  <SCORE.INTRA.REPUL.0>
0

>  <SCORE.INTRA.SOLV>
2.45502

>  <SCORE.INTRA.SOLV.lig_0>
-77.2465

>  <SCORE.INTRA.VDW>
4.17792

>  <SCORE.INTRA.VDW.0>
-4.16072

>  <SCORE.INTRA.norm>
0.0446631

>  <SCORE.RESTR>
19.922

>  <SCORE.RESTR.CAVITY>
19.922

>  <SCORE.RESTR.norm>
0.642647

>  <SCORE.SYSTEM>
0

>  <SCORE.SYSTEM.CONST>
0

>  <SCORE.SYSTEM.DIHEDRAL>
0

>  <SCORE.SYSTEM.SOLV>
0

>  <SCORE.SYSTEM.norm>
0

>  <SCORE.heavy>
31

>  <SCORE.norm>
0.674876

>  <RMSD>
8.805

$$$$
ligand
 OpenBabel11021811493D
libRbt.so/2013.1/901 2013/11/27
 31 33  0  0  0  0  0  0  0  0999 V2000
   -7.7736  -14.3345  -15.6383 C   0  0  2  0  0  0  0  0  0  0  0  0
   -7.2438  -13.0661  -15.2297 O   0  0  0  0  0  0  0  0  0  0  0  0
   -5.2981   -9.8626  -17.2976 C   0  0  2  0  0  0  0  0  0  0  0  0
   -4.3117   -9.1334  -18.0346 N   0  0  0  0  0  0  0  0  0  0  0  0
   -7.6175   -9.9394  -19.4358 C   0  0  2  0  0  0  0  0  0  0  0  0
   -8.9093  -14.6890  -14.6153 C   0  0  2  0  0  0  0  0  0  0  0  0
   -9.9149  -13.6322  -14.6102 N   0  0  0  0  0  0  0  0  0  0  0  0
   -4.6657  -10.3406  -15.9339 C   0  0  0  0  0  0  0  0  0  0  0  0
   -7.9205   -9.8296  -20.9621 C   0  0  2  0  0  0  0  0  0  0  0  0
   -7.9976  -11.1335  -21.5124 O   0  0  0  0  0  0  0  0  0  0  0  0
   -8.2953  -14.8776  -13.1845 C   0  0  0  0  0  0  0  0  0  0  0  0
   -5.7648  -11.1437  -15.1127 C   0  0  2  0  0  0  0  0  0  0  0  0
   -5.1811  -11.5995  -13.8294 N   0  0  0  0  0  0  0  0  0  0  0  0
   -6.7270   -9.0038  -21.6177 C   0  0  1  0  0  0  0  0  0  0  0  0
   -6.9222   -8.8781  -23.1021 N   0  0  0  0  0  0  0  0  0  0  0  0
   -7.0359  -15.7899  -13.2380 C   0  0  0  0  0  0  0  0  0  0  0  0
   -6.2612  -12.3926  -15.9686 C   0  0  2  0  0  0  0  0  0  0  0  0
   -6.6795   -7.5161  -20.9563 C   0  0  1  0  0  0  0  0  0  0  0  0
   -7.8794   -6.7990  -21.1731 O   0  0  0  0  0  0  0  0  0  0  0  0
   -6.3718  -15.9843  -14.3874 C   0  0  2  0  0  0  0  0  0  0  0  0
   -6.7602  -15.3844  -15.6356 O   0  0  0  0  0  0  0  0  0  0  0  0
   -6.8634  -11.8786  -17.3429 C   0  0  2  0  0  0  0  0  0  0  0  0
   -7.2916  -12.9950  -18.1331 O   0  0  0  0  0  0  0  0  0  0  0  0
   -6.4744   -7.6449  -19.4092 C   0  0  0  0  0  0  0  0  0  0  0  0
   -7.5328   -8.5647  -18.8238 O   0  0  0  0  0  0  0  0  0  0  0  0
   -5.1199  -16.8893  -14.4614 C   0  0  0  0  0  0  0  0  0  0  0  0
   -3.9544  -16.0815  -14.7923 N   0  0  0  0  0  0  0  0  0  0  0  0
   -5.7661  -11.0855  -18.1408 C   0  0  1  0  0  0  0  0  0  0  0  0
   -6.3381  -10.6424  -19.3480 O   0  0  0  0  0  0  0  0  0  0  0  0
   -5.5721   -6.5874  -21.4813 C   0  0  0  0  0  0  0  0  0  0  0  0
   -8.2533   -8.4281  -23.5516 C   0  0  0  0  0  0  0  0  0  0  0  0
  1  2  1  1  0  0  0
  1  6  1  0  0  0  0
  1 21  1  0  0  0  0
  3  4  1  6  0  0  0
  3  8  1  0  0  0  0
  3 28  1  0  0  0  0
  5  9  1  0  0  0  0
  5 25  1  0  0  0  0
  5 29  1  6  0  0  0
  6  7  1  1  0  0  0
  6 11  1  0  0  0  0
  8 12  1  0  0  0  0
  9 10  1  6  0  0  0
  9 14  1  0  0  0  0
 11 16  1  0  0  0  0
 12 13  1  1  0  0  0
 12 17  1  0  0  0  0
 14 15  1  6  0  0  0
 14 18  1  0  0  0  0
 15 31  1  0  0  0  0
 16 20  1  0  0  0  0
 17  2  1  1  0  0  0
 17 22  1  0  0  0  0
 18 19  1  6  0  0  0
 18 24  1  0  0  0  0
 18 30  1  0  0  0  0
 20 21  1  0  0  0  0
 20 26  1  6  0  0  0
 22 23  1  6  0  0  0
 22 28  1  0  0  0  0
 24 25  1  0  0  0  0
 26 27  1  0  0  0  0
 28 29  1  6  0  0  0
M  END
>  <CHROM.1>
-175.83629511,-172.56029335,49.08969700,-171.66620542,-114.68298507,-69.63233839
-6.74825837,-11.47089842,-17.68806602,1.53253567,0.74325550,2.36414982

>  <Name>
ligand

>  <RI>
0

>  <Rbt.Current_Directory>
/home/itssahil/PROJECTS/Mol_Feturizer/New_Systems/rnas/4F8U

>  <Rbt.Executable>
rbdock ($Id: //depot/dev/client3/rdock/2013.1/src/exe/rbdock.cxx#4 $)

>  <Rbt.Library>
libRbt.so (2013.1, Build901 2013/11/27)

>  <Rbt.Parameter_File>
/export/apps/rDock/src/rDock_2013.1_src/data/scripts/dock_solv.prm

>  <Rbt.Receptor>
prm/pocket_docking_5.prm

>  <SCORE>
-9.34151

>  <SCORE.INTER>
-4.11112

>  <SCORE.INTER.CONST>
1

>  <SCORE.INTER.POLAR>
0

>  <SCORE.INTER.ROT>
6

>  <SCORE.INTER.SOLV>
10.6554

>  <SCORE.INTER.VDW>
-13.8925

>  <SCORE.INTER.norm>
-0.132617

>  <SCORE.INTRA>
-5.23039

>  <SCORE.INTRA.DIHEDRAL>
-15.8133

>  <SCORE.INTRA.DIHEDRAL.0>
18.77

>  <SCORE.INTRA.POLAR>
0

>  <SCORE.INTRA.POLAR.0>
0

>  <SCORE.INTRA.REPUL>
0

>  <SCORE.INTRA.REPUL.0>
0

>  <SCORE.INTRA.SOLV>
-0.325065

>  <SCORE.INTRA.SOLV.lig_0>
-77.2465

>  <SCORE.INTRA.VDW>
2.83882

>  <SCORE.INTRA.VDW.0>
-4.16072

>  <SCORE.INTRA.norm>
-0.168722

>  <SCORE.RESTR>
0

>  <SCORE.RESTR.CAVITY>
0

>  <SCORE.RESTR.norm>
0

>  <SCORE.SYSTEM>
0

>  <SCORE.SYSTEM.CONST>
0

>  <SCORE.SYSTEM.DIHEDRAL>
0

>  <SCORE.SYSTEM.SOLV>
0

>  <SCORE.SYSTEM.norm>
0

>  <SCORE.heavy>
31

>  <SCORE.norm>
-0.301339

>  <RMSD>
8.812

$$$$
ligand
 OpenBabel11021811493D
libRbt.so/2013.1/901 2013/11/27
 31 33  0  0  0  0  0  0  0  0999 V2000
   -3.3489  -10.6412  -11.5636 C   0  0  2  0  0  0  0  0  0  0  0  0
   -4.7367  -10.8336  -11.8694 O   0  0  0  0  0  0  0  0  0  0  0  0
   -8.5583   -9.7666  -10.2630 C   0  0  2  0  0  0  0  0  0  0  0  0
   -9.6071   -8.9892   -9.6769 N   0  0  0  0  0  0  0  0  0  0  0  0
   -9.3069   -8.2914  -13.7090 C   0  0  2  0  0  0  0  0  0  0  0  0
   -2.6126  -10.4739  -12.9391 C   0  0  2  0  0  0  0  0  0  0  0  0
   -3.1896   -9.3533  -13.6734 N   0  0  0  0  0  0  0  0  0  0  0  0
   -7.3341   -9.8030   -9.2690 C   0  0  0  0  0  0  0  0  0  0  0  0
   -8.8152   -6.8762  -13.2746 C   0  0  2  0  0  0  0  0  0  0  0  0
   -7.4907   -6.9790  -12.7808 O   0  0  0  0  0  0  0  0  0  0  0  0
   -2.7292  -11.7998  -13.7686 C   0  0  0  0  0  0  0  0  0  0  0  0
   -6.1727  -10.6735   -9.9177 C   0  0  2  0  0  0  0  0  0  0  0  0
   -5.0159  -10.7135   -8.9929 N   0  0  0  0  0  0  0  0  0  0  0  0
   -9.8084   -6.3638  -12.1400 C   0  0  1  0  0  0  0  0  0  0  0  0
   -9.3866   -5.0123  -11.6372 N   0  0  0  0  0  0  0  0  0  0  0  0
   -2.3829  -13.0358  -12.8889 C   0  0  0  0  0  0  0  0  0  0  0  0
   -5.7436  -10.0332  -11.3123 C   0  0  2  0  0  0  0  0  0  0  0  0
  -11.3136   -6.2606  -12.7537 C   0  0  1  0  0  0  0  0  0  0  0  0
  -11.3847   -5.3564  -13.8392 O   0  0  0  0  0  0  0  0  0  0  0  0
   -2.4253  -12.9647  -11.5500 C   0  0  2  0  0  0  0  0  0  0  0  0
   -2.7815  -11.7698  -10.8331 O   0  0  0  0  0  0  0  0  0  0  0  0
   -7.0029   -9.9852  -12.2753 C   0  0  2  0  0  0  0  0  0  0  0  0
   -6.6355   -9.3885  -13.5255 O   0  0  0  0  0  0  0  0  0  0  0  0
  -11.7559   -7.6687  -13.2769 C   0  0  0  0  0  0  0  0  0  0  0  0
  -10.7145   -8.2104  -14.2416 O   0  0  0  0  0  0  0  0  0  0  0  0
   -2.0821  -14.1811  -10.6587 C   0  0  0  0  0  0  0  0  0  0  0  0
   -1.4748  -15.2247  -11.4726 N   0  0  0  0  0  0  0  0  0  0  0  0
   -8.1417   -9.1237  -11.6190 C   0  0  1  0  0  0  0  0  0  0  0  0
   -9.2406   -9.1092  -12.4983 O   0  0  0  0  0  0  0  0  0  0  0  0
  -12.4009   -5.7814  -11.7776 C   0  0  0  0  0  0  0  0  0  0  0  0
   -8.6159   -4.9930  -10.3795 C   0  0  0  0  0  0  0  0  0  0  0  0
  1  2  1  6  0  0  0
  1  6  1  0  0  0  0
  1 21  1  0  0  0  0
  3  4  1  1  0  0  0
  3  8  1  0  0  0  0
  3 28  1  0  0  0  0
  5  9  1  0  0  0  0
  5 25  1  0  0  0  0
  5 29  1  1  0  0  0
  6  7  1  6  0  0  0
  6 11  1  0  0  0  0
  8 12  1  0  0  0  0
  9 10  1  1  0  0  0
  9 14  1  0  0  0  0
 11 16  1  0  0  0  0
 12 13  1  1  0  0  0
 12 17  1  0  0  0  0
 14 15  1  6  0  0  0
 14 18  1  0  0  0  0
 15 31  1  0  0  0  0
 16 20  1  0  0  0  0
 17  2  1  6  0  0  0
 17 22  1  0  0  0  0
 18 19  1  6  0  0  0
 18 24  1  0  0  0  0
 18 30  1  0  0  0  0
 20 21  1  0  0  0  0
 20 26  1  1  0  0  0
 22 23  1  6  0  0  0
 22 28  1  0  0  0  0
 24 25  1  0  0  0  0
 26 27  1  0  0  0  0
 28 29  1  6  0  0  0
M  END
>  <CHROM.1>
-125.77145082,-45.88739096,-98.86542055,-87.24873341,11.58465418,163.95087777
-6.87260748,-9.31711565,-11.96897819,-0.26649716,0.60566285,-1.25647093

>  <Name>
ligand

>  <RI>
0

>  <Rbt.Current_Directory>
/home/itssahil/PROJECTS/Mol_Feturizer/New_Systems/rnas/4F8U

>  <Rbt.Executable>
rbdock ($Id: //depot/dev/client3/rdock/2013.1/src/exe/rbdock.cxx#4 $)

>  <Rbt.Library>
libRbt.so (2013.1, Build901 2013/11/27)

>  <Rbt.Parameter_File>
/export/apps/rDock/src/rDock_2013.1_src/data/scripts/dock_solv.prm

>  <Rbt.Receptor>
prm/blind_docking_40.prm

>  <SCORE>
18.53

>  <SCORE.INTER>
4.73024

>  <SCORE.INTER.CONST>
1

>  <SCORE.INTER.POLAR>
0

>  <SCORE.INTER.ROT>
6

>  <SCORE.INTER.SOLV>
27.0269

>  <SCORE.INTER.VDW>
-13.4555

>  <SCORE.INTER.norm>
0.152588

>  <SCORE.INTRA>
2.38462

>  <SCORE.INTRA.DIHEDRAL>
-3.79141

>  <SCORE.INTRA.DIHEDRAL.0>
18.77

>  <SCORE.INTRA.POLAR>
0

>  <SCORE.INTRA.POLAR.0>
0

>  <SCORE.INTRA.REPUL>
0

>  <SCORE.INTRA.REPUL.0>
0

>  <SCORE.INTRA.SOLV>
1.82426

>  <SCORE.INTRA.SOLV.lig_0>
-77.2465

>  <SCORE.INTRA.VDW>
3.3682

>  <SCORE.INTRA.VDW.0>
-4.16072

>  <SCORE.INTRA.norm>
0.0769233

>  <SCORE.RESTR>
11.4151

>  <SCORE.RESTR.CAVITY>
11.4151

>  <SCORE.RESTR.norm>
0.36823

>  <SCORE.SYSTEM>
0

>  <SCORE.SYSTEM.CONST>
0

>  <SCORE.SYSTEM.DIHEDRAL>
0

>  <SCORE.SYSTEM.SOLV>
0

>  <SCORE.SYSTEM.norm>
0

>  <SCORE.heavy>
31

>  <SCORE.norm>
0.597742

>  <RMSD>
8.815

$$$$
ligand
 OpenBabel11021811493D
libRbt.so/2013.1/901 2013/11/27
 31 33  0  0  0  0  0  0  0  0999 V2000
   -7.8955   -9.3798  -14.7086 C   0  0  2  0  0  0  0  0  0  0  0  0
   -7.8708   -9.0785  -16.1105 O   0  0  0  0  0  0  0  0  0  0  0  0
   -4.1627   -9.0301  -18.2484 C   0  0  2  0  0  0  0  0  0  0  0  0
   -3.0814   -9.4516  -19.0859 N   0  0  0  0  0  0  0  0  0  0  0  0
   -6.1086   -8.1795  -21.3949 C   0  0  2  0  0  0  0  0  0  0  0  0
   -9.0325  -10.4418  -14.5051 C   0  0  2  0  0  0  0  0  0  0  0  0
   -8.7644  -11.6145  -15.3301 N   0  0  0  0  0  0  0  0  0  0  0  0
   -4.2951  -10.0367  -17.0413 C   0  0  0  0  0  0  0  0  0  0  0  0
   -5.3286   -7.2932  -22.4143 C   0  0  2  0  0  0  0  0  0  0  0  0
   -4.0161   -7.8072  -22.5634 O   0  0  0  0  0  0  0  0  0  0  0  0
  -10.4205   -9.8106  -14.8723 C   0  0  0  0  0  0  0  0  0  0  0  0
   -5.4913   -9.5630  -16.1075 C   0  0  2  0  0  0  0  0  0  0  0  0
   -5.6264  -10.5028  -14.9701 N   0  0  0  0  0  0  0  0  0  0  0  0
   -5.2981   -5.8153  -21.8218 C   0  0  1  0  0  0  0  0  0  0  0  0
   -4.5323   -4.8958  -22.7302 N   0  0  0  0  0  0  0  0  0  0  0  0
  -10.5861   -8.4125  -14.2096 C   0  0  0  0  0  0  0  0  0  0  0  0
   -6.8413   -9.5206  -16.9528 C   0  0  2  0  0  0  0  0  0  0  0  0
   -6.8249   -5.2684  -21.6704 C   0  0  1  0  0  0  0  0  0  0  0  0
   -7.5014   -5.2287  -22.9120 O   0  0  0  0  0  0  0  0  0  0  0  0
   -9.5197   -7.7198  -13.7821 C   0  0  2  0  0  0  0  0  0  0  0  0
   -8.1686   -8.2005  -13.8938 O   0  0  0  0  0  0  0  0  0  0  0  0
   -6.6634   -8.5231  -18.1730 C   0  0  2  0  0  0  0  0  0  0  0  0
   -7.8636   -8.4945  -18.9557 O   0  0  0  0  0  0  0  0  0  0  0  0
   -7.6245   -6.2246  -20.7225 C   0  0  0  0  0  0  0  0  0  0  0  0
   -7.5110   -7.6560  -21.2194 O   0  0  0  0  0  0  0  0  0  0  0  0
   -9.6638   -6.3303  -13.1186 C   0  0  0  0  0  0  0  0  0  0  0  0
   -9.0420   -6.3529  -11.8021 N   0  0  0  0  0  0  0  0  0  0  0  0
   -5.4766   -9.0037  -19.0841 C   0  0  1  0  0  0  0  0  0  0  0  0
   -5.3469   -8.0931  -20.1495 O   0  0  0  0  0  0  0  0  0  0  0  0
   -6.9713   -3.8467  -21.1031 C   0  0  0  0  0  0  0  0  0  0  0  0
   -3.0662   -5.0590  -22.7422 C   0  0  0  0  0  0  0  0  0  0  0  0
  1  2  1  6  0  0  0
  1  6  1  0  0  0  0
  1 21  1  0  0  0  0
  3  4  1  6  0  0  0
  3  8  1  0  0  0  0
  3 28  1  0  0  0  0
  5  9  1  0  0  0  0
  5 25  1  0  0  0  0
  5 29  1  1  0  0  0
  6  7  1  6  0  0  0
  6 11  1  0  0  0  0
  8 12  1  0  0  0  0
  9 10  1  1  0  0  0
  9 14  1  0  0  0  0
 11 16  1  0  0  0  0
 12 13  1  1  0  0  0
 12 17  1  0  0  0  0
 14 15  1  6  0  0  0
 14 18  1  0  0  0  0
 15 31  1  0  0  0  0
 16 20  1  0  0  0  0
 17  2  1  1  0  0  0
 17 22  1  0  0  0  0
 18 19  1  6  0  0  0
 18 24  1  0  0  0  0
 18 30  1  0  0  0  0
 20 21  1  0  0  0  0
 20 26  1  1  0  0  0
 22 23  1  6  0  0  0
 22 28  1  0  0  0  0
 24 25  1  0  0  0  0
 26 27  1  0  0  0  0
 28 29  1  6  0  0  0
M  END
>  <CHROM.1>
-107.67748312,-162.10878851,-73.13547246,-32.70821299,123.61504935,154.77015374
-6.79518762,-7.93733636,-18.18845627,-2.09251725,0.68833711,-0.90115877

>  <Name>
ligand

>  <RI>
0

>  <Rbt.Current_Directory>
/home/itssahil/PROJECTS/Mol_Feturizer/New_Systems/rnas/4F8U

>  <Rbt.Executable>
rbdock ($Id: //depot/dev/client3/rdock/2013.1/src/exe/rbdock.cxx#4 $)

>  <Rbt.Library>
libRbt.so (2013.1, Build901 2013/11/27)

>  <Rbt.Parameter_File>
/export/apps/rDock/src/rDock_2013.1_src/data/scripts/dock_solv.prm

>  <Rbt.Receptor>
prm/blind_docking_80.prm

>  <SCORE>
17.2318

>  <SCORE.INTER>
0.816927

>  <SCORE.INTER.CONST>
1

>  <SCORE.INTER.POLAR>
0

>  <SCORE.INTER.ROT>
6

>  <SCORE.INTER.SOLV>
22.6712

>  <SCORE.INTER.VDW>
-14.6124

>  <SCORE.INTER.norm>
0.0263525

>  <SCORE.INTRA>
4.20458

>  <SCORE.INTRA.DIHEDRAL>
-3.18994

>  <SCORE.INTRA.DIHEDRAL.0>
18.77

>  <SCORE.INTRA.POLAR>
0

>  <SCORE.INTRA.POLAR.0>
0

>  <SCORE.INTRA.REPUL>
0

>  <SCORE.INTRA.REPUL.0>
0

>  <SCORE.INTRA.SOLV>
1.40338

>  <SCORE.INTRA.SOLV.lig_0>
-77.2465

>  <SCORE.INTRA.VDW>
5.09786

>  <SCORE.INTRA.VDW.0>
-4.16072

>  <SCORE.INTRA.norm>
0.135632

>  <SCORE.RESTR>
12.2103

>  <SCORE.RESTR.CAVITY>
12.2103

>  <SCORE.RESTR.norm>
0.393881

>  <SCORE.SYSTEM>
0

>  <SCORE.SYSTEM.CONST>
0

>  <SCORE.SYSTEM.DIHEDRAL>
0

>  <SCORE.SYSTEM.SOLV>
0

>  <SCORE.SYSTEM.norm>
0

>  <SCORE.heavy>
31

>  <SCORE.norm>
0.555865

>  <RMSD>
8.820

$$$$
ligand
 OpenBabel11021811493D
libRbt.so/2013.1/901 2013/11/27
 31 33  0  0  0  0  0  0  0  0999 V2000
   -3.7690  -11.5169  -10.8020 C   0  0  2  0  0  0  0  0  0  0  0  0
   -5.0744  -12.0691  -11.0199 O   0  0  0  0  0  0  0  0  0  0  0  0
   -9.0534  -11.5520   -9.5286 C   0  0  2  0  0  0  0  0  0  0  0  0
  -10.1454  -11.4174   -8.6135 N   0  0  0  0  0  0  0  0  0  0  0  0
   -9.9486   -8.9989  -10.1851 C   0  0  2  0  0  0  0  0  0  0  0  0
   -3.2509  -11.0412  -12.2046 C   0  0  2  0  0  0  0  0  0  0  0  0
   -4.1848  -10.0754  -12.7729 N   0  0  0  0  0  0  0  0  0  0  0  0
   -8.3648  -12.9523   -9.2984 C   0  0  0  0  0  0  0  0  0  0  0  0
   -9.6018   -8.9124  -11.7035 C   0  0  2  0  0  0  0  0  0  0  0  0
   -8.9419  -10.1041  -12.0950 O   0  0  0  0  0  0  0  0  0  0  0  0
   -3.0832  -12.2768  -13.1558 C   0  0  0  0  0  0  0  0  0  0  0  0
   -7.1570  -13.1040  -10.3208 C   0  0  2  0  0  0  0  0  0  0  0  0
   -6.5010  -14.4161  -10.1127 N   0  0  0  0  0  0  0  0  0  0  0  0
   -8.6544   -7.6468  -11.8956 C   0  0  1  0  0  0  0  0  0  0  0  0
   -8.2422   -7.5067  -13.3335 N   0  0  0  0  0  0  0  0  0  0  0  0
   -2.3234  -13.4295  -12.4379 C   0  0  0  0  0  0  0  0  0  0  0  0
   -6.1137  -11.9218  -10.0909 C   0  0  2  0  0  0  0  0  0  0  0  0
   -9.4548   -6.3050  -11.4352 C   0  0  1  0  0  0  0  0  0  0  0  0
  -10.6262   -6.0955  -12.2000 O   0  0  0  0  0  0  0  0  0  0  0  0
   -2.2471  -13.4784  -11.0994 C   0  0  2  0  0  0  0  0  0  0  0  0
   -2.8425  -12.4928  -10.2375 O   0  0  0  0  0  0  0  0  0  0  0  0
   -6.8453  -10.5304  -10.3013 C   0  0  2  0  0  0  0  0  0  0  0  0
   -5.9229   -9.4575  -10.0732 O   0  0  0  0  0  0  0  0  0  0  0  0
   -9.8840   -6.4483   -9.9360 C   0  0  0  0  0  0  0  0  0  0  0  0
  -10.6548   -7.7433   -9.7422 O   0  0  0  0  0  0  0  0  0  0  0  0
   -1.4945  -14.6141  -10.3677 C   0  0  0  0  0  0  0  0  0  0  0  0
   -0.9680  -15.5571  -11.3444 N   0  0  0  0  0  0  0  0  0  0  0  0
   -8.0371  -10.3973   -9.2855 C   0  0  1  0  0  0  0  0  0  0  0  0
   -8.6628   -9.1560   -9.5060 O   0  0  0  0  0  0  0  0  0  0  0  0
   -8.6721   -4.9868  -11.5551 C   0  0  0  0  0  0  0  0  0  0  0  0
   -7.5202   -8.6506  -13.9221 C   0  0  0  0  0  0  0  0  0  0  0  0
  1  2  1  6  0  0  0
  1  6  1  0  0  0  0
  1 21  1  0  0  0  0
  3  4  1  1  0  0  0
  3  8  1  0  0  0  0
  3 28  1  0  0  0  0
  5  9  1  0  0  0  0
  5 25  1  0  0  0  0
  5 29  1  1  0  0  0
  6  7  1  6  0  0  0
  6 11  1  0  0  0  0
  8 12  1  0  0  0  0
  9 10  1  1  0  0  0
  9 14  1  0  0  0  0
 11 16  1  0  0  0  0
 12 13  1  1  0  0  0
 12 17  1  0  0  0  0
 14 15  1  6  0  0  0
 14 18  1  0  0  0  0
 15 31  1  0  0  0  0
 16 20  1  0  0  0  0
 17  2  1  6  0  0  0
 17 22  1  0  0  0  0
 18 19  1  6  0  0  0
 18 24  1  0  0  0  0
 18 30  1  0  0  0  0
 20 21  1  0  0  0  0
 20 26  1  6  0  0  0
 22 23  1  1  0  0  0
 22 28  1  0  0  0  0
 24 25  1  0  0  0  0
 26 27  1  0  0  0  0
 28 29  1  6  0  0  0
M  END
>  <CHROM.1>
-143.83944529,-86.85014840,-58.86311842,-156.55888413,-1.58959341,-14.36603011
-6.73529908,-10.44428832,-10.99103093,-0.59032872,0.44500107,-0.54926125

>  <Name>
ligand

>  <RI>
0

>  <Rbt.Current_Directory>
/home/itssahil/PROJECTS/Mol_Feturizer/New_Systems/rnas/4F8U

>  <Rbt.Executable>
rbdock ($Id: //depot/dev/client3/rdock/2013.1/src/exe/rbdock.cxx#4 $)

>  <Rbt.Library>
libRbt.so (2013.1, Build901 2013/11/27)

>  <Rbt.Parameter_File>
/export/apps/rDock/src/rDock_2013.1_src/data/scripts/dock_solv.prm

>  <Rbt.Receptor>
prm/blind_docking_20.prm

>  <SCORE>
15.787

>  <SCORE.INTER>
1.7178

>  <SCORE.INTER.CONST>
1

>  <SCORE.INTER.POLAR>
0

>  <SCORE.INTER.ROT>
6

>  <SCORE.INTER.SOLV>
20.3258

>  <SCORE.INTER.VDW>
-13.2301

>  <SCORE.INTER.norm>
0.0554129

>  <SCORE.INTRA>
4.64101

>  <SCORE.INTRA.DIHEDRAL>
-0.719416

>  <SCORE.INTRA.DIHEDRAL.0>
18.77

>  <SCORE.INTRA.POLAR>
0

>  <SCORE.INTRA.POLAR.0>
0

>  <SCORE.INTRA.REPUL>
0

>  <SCORE.INTRA.REPUL.0>
0

>  <SCORE.INTRA.SOLV>
1.52813

>  <SCORE.INTRA.SOLV.lig_0>
-77.2465

>  <SCORE.INTRA.VDW>
4.23665

>  <SCORE.INTRA.VDW.0>
-4.16072

>  <SCORE.INTRA.norm>
0.14971

>  <SCORE.RESTR>
9.42819

>  <SCORE.RESTR.CAVITY>
9.42819

>  <SCORE.RESTR.norm>
0.304135

>  <SCORE.SYSTEM>
0

>  <SCORE.SYSTEM.CONST>
0

>  <SCORE.SYSTEM.DIHEDRAL>
0

>  <SCORE.SYSTEM.SOLV>
0

>  <SCORE.SYSTEM.norm>
0

>  <SCORE.heavy>
31

>  <SCORE.norm>
0.509258

>  <RMSD>
8.862

$$$$
ligand
 OpenBabel11021811493D
libRbt.so/2013.1/901 2013/11/27
 31 33  0  0  0  0  0  0  0  0999 V2000
   -3.9676   -9.7235  -16.6250 C   0  0  2  0  0  0  0  0  0  0  0  0
   -3.8037  -10.8273  -17.5256 O   0  0  0  0  0  0  0  0  0  0  0  0
   -6.0210  -12.4254  -20.8201 C   0  0  2  0  0  0  0  0  0  0  0  0
   -7.0887  -13.0113  -21.5716 N   0  0  0  0  0  0  0  0  0  0  0  0
   -8.1359   -9.4637  -21.2922 C   0  0  2  0  0  0  0  0  0  0  0  0
   -3.5683  -10.2512  -15.2023 C   0  0  2  0  0  0  0  0  0  0  0  0
   -2.2009  -10.7583  -15.2311 N   0  0  0  0  0  0  0  0  0  0  0  0
   -5.5956  -13.4234  -19.6751 C   0  0  0  0  0  0  0  0  0  0  0  0
   -8.1141   -8.6828  -22.6424 C   0  0  2  0  0  0  0  0  0  0  0  0
   -8.0014   -9.6088  -23.7096 O   0  0  0  0  0  0  0  0  0  0  0  0
   -4.5670  -11.3738  -14.7527 C   0  0  0  0  0  0  0  0  0  0  0  0
   -4.4043  -12.7748  -18.8461 C   0  0  2  0  0  0  0  0  0  0  0  0
   -3.9970  -13.7034  -17.7658 N   0  0  0  0  0  0  0  0  0  0  0  0
   -6.8558   -7.7077  -22.5986 C   0  0  1  0  0  0  0  0  0  0  0  0
   -6.7385   -6.9356  -23.8821 N   0  0  0  0  0  0  0  0  0  0  0  0
   -6.0401  -10.9332  -14.9924 C   0  0  0  0  0  0  0  0  0  0  0  0
   -4.8800  -11.3846  -18.2298 C   0  0  2  0  0  0  0  0  0  0  0  0
   -7.0310   -6.6640  -21.3604 C   0  0  1  0  0  0  0  0  0  0  0  0
   -8.1950   -5.8714  -21.4934 O   0  0  0  0  0  0  0  0  0  0  0  0
   -6.3349   -9.9460  -15.8516 C   0  0  2  0  0  0  0  0  0  0  0  0
   -5.3397   -9.2275  -16.6013 O   0  0  0  0  0  0  0  0  0  0  0  0
   -5.3274  -10.4175  -19.4046 C   0  0  2  0  0  0  0  0  0  0  0  0
   -5.7810   -9.1712  -18.8614 O   0  0  0  0  0  0  0  0  0  0  0  0
   -7.1517   -7.4667  -20.0213 C   0  0  0  0  0  0  0  0  0  0  0  0
   -8.2582   -8.5015  -20.1387 O   0  0  0  0  0  0  0  0  0  0  0  0
   -7.7921   -9.4921  -16.1013 C   0  0  0  0  0  0  0  0  0  0  0  0
   -8.2464  -10.0007  -17.3879 N   0  0  0  0  0  0  0  0  0  0  0  0
   -6.5031  -11.0737  -20.2151 C   0  0  1  0  0  0  0  0  0  0  0  0
   -6.8677  -10.1907  -21.2488 O   0  0  0  0  0  0  0  0  0  0  0  0
   -5.8900   -5.6499  -21.1758 C   0  0  0  0  0  0  0  0  0  0  0  0
   -5.3722   -6.7242  -24.3965 C   0  0  0  0  0  0  0  0  0  0  0  0
  1  2  1  6  0  0  0
  1  6  1  0  0  0  0
  1 21  1  0  0  0  0
  3  4  1  1  0  0  0
  3  8  1  0  0  0  0
  3 28  1  0  0  0  0
  5  9  1  0  0  0  0
  5 25  1  0  0  0  0
  5 29  1  1  0  0  0
  6  7  1  6  0  0  0
  6 11  1  0  0  0  0
  8 12  1  0  0  0  0
  9 10  1  6  0  0  0
  9 14  1  0  0  0  0
 11 16  1  0  0  0  0
 12 13  1  1  0  0  0
 12 17  1  0  0  0  0
 14 15  1  6  0  0  0
 14 18  1  0  0  0  0
 15 31  1  0  0  0  0
 16 20  1  0  0  0  0
 17  2  1  6  0  0  0
 17 22  1  0  0  0  0
 18 19  1  6  0  0  0
 18 24  1  0  0  0  0
 18 30  1  0  0  0  0
 20 21  1  0  0  0  0
 20 26  1  1  0  0  0
 22 23  1  1  0  0  0
 22 28  1  0  0  0  0
 24 25  1  0  0  0  0
 26 27  1  0  0  0  0
 28 29  1  6  0  0  0
M  END
>  <CHROM.1>
116.88815713,-177.16470888,-141.19308037,-166.77937588,-104.56337094,129.73775571
-6.08351892,-9.74687784,-19.37046952,0.09215978,-1.22225205,0.60551784

>  <Name>
ligand

>  <RI>
0

>  <Rbt.Current_Directory>
/home/itssahil/PROJECTS/Mol_Feturizer/New_Systems/rnas/4F8U

>  <Rbt.Executable>
rbdock ($Id: //depot/dev/client3/rdock/2013.1/src/exe/rbdock.cxx#4 $)

>  <Rbt.Library>
libRbt.so (2013.1, Build901 2013/11/27)

>  <Rbt.Parameter_File>
/export/apps/rDock/src/rDock_2013.1_src/data/scripts/dock_solv.prm

>  <Rbt.Receptor>
prm/blind_docking_60.prm

>  <SCORE>
35.3274

>  <SCORE.INTER>
6.04545

>  <SCORE.INTER.CONST>
1

>  <SCORE.INTER.POLAR>
0

>  <SCORE.INTER.ROT>
6

>  <SCORE.INTER.SOLV>
21.4346

>  <SCORE.INTER.VDW>
-10.7146

>  <SCORE.INTER.norm>
0.195015

>  <SCORE.INTRA>
6.4259

>  <SCORE.INTRA.DIHEDRAL>
-1.16402

>  <SCORE.INTRA.DIHEDRAL.0>
18.77

>  <SCORE.INTRA.POLAR>
0

>  <SCORE.INTRA.POLAR.0>
0

>  <SCORE.INTRA.REPUL>
0.0483726

>  <SCORE.INTRA.REPUL.0>
0

>  <SCORE.INTRA.SOLV>
3.67601

>  <SCORE.INTRA.SOLV.lig_0>
-77.2465

>  <SCORE.INTRA.VDW>
4.92805

>  <SCORE.INTRA.VDW.0>
-4.16072

>  <SCORE.INTRA.norm>
0.207287

>  <SCORE.RESTR>
22.8561

>  <SCORE.RESTR.CAVITY>
22.8561

>  <SCORE.RESTR.norm>
0.737292

>  <SCORE.SYSTEM>
0

>  <SCORE.SYSTEM.CONST>
0

>  <SCORE.SYSTEM.DIHEDRAL>
0

>  <SCORE.SYSTEM.SOLV>
0

>  <SCORE.SYSTEM.norm>
0

>  <SCORE.heavy>
31

>  <SCORE.norm>
1.13959

>  <RMSD>
8.877

$$$$
ligand
 OpenBabel11021811493D
libRbt.so/2013.1/901 2013/11/27
 31 33  0  0  0  0  0  0  0  0999 V2000
   -6.5879  -12.2293  -17.5542 C   0  0  2  0  0  0  0  0  0  0  0  0
   -7.8664  -11.8637  -18.0909 O   0  0  0  0  0  0  0  0  0  0  0  0
   -6.8094  -10.7562  -22.0884 C   0  0  2  0  0  0  0  0  0  0  0  0
   -6.9359  -10.3727  -23.4613 N   0  0  0  0  0  0  0  0  0  0  0  0
   -5.6716   -7.9896  -20.5930 C   0  0  2  0  0  0  0  0  0  0  0  0
   -6.6856  -12.0245  -16.0016 C   0  0  2  0  0  0  0  0  0  0  0  0
   -7.7751  -12.8332  -15.4659 N   0  0  0  0  0  0  0  0  0  0  0  0
   -7.5168  -12.1507  -21.8812 C   0  0  0  0  0  0  0  0  0  0  0  0
   -6.1113   -6.6370  -19.9525 C   0  0  2  0  0  0  0  0  0  0  0  0
   -7.2496   -6.8601  -19.1381 O   0  0  0  0  0  0  0  0  0  0  0  0
   -6.9113  -10.5063  -15.6794 C   0  0  0  0  0  0  0  0  0  0  0  0
   -7.3688  -12.5793  -20.3574 C   0  0  2  0  0  0  0  0  0  0  0  0
   -8.0315  -13.8881  -20.1503 N   0  0  0  0  0  0  0  0  0  0  0  0
   -6.4522   -5.6421  -21.1485 C   0  0  1  0  0  0  0  0  0  0  0  0
   -6.9196   -4.3164  -20.6183 N   0  0  0  0  0  0  0  0  0  0  0  0
   -5.9193   -9.6162  -16.4826 C   0  0  0  0  0  0  0  0  0  0  0  0
   -8.0327  -11.4700  -19.4259 C   0  0  2  0  0  0  0  0  0  0  0  0
   -5.1168   -5.4160  -22.0531 C   0  0  1  0  0  0  0  0  0  0  0  0
   -4.0561   -4.8540  -21.3047 O   0  0  0  0  0  0  0  0  0  0  0  0
   -5.3066  -10.0823  -17.5812 C   0  0  2  0  0  0  0  0  0  0  0  0
   -5.5067  -11.4113  -18.0938 O   0  0  0  0  0  0  0  0  0  0  0  0
   -7.3183  -10.0771  -19.6808 C   0  0  2  0  0  0  0  0  0  0  0  0
   -7.9231   -9.0650  -18.8660 O   0  0  0  0  0  0  0  0  0  0  0  0
   -4.6289   -6.7966  -22.6082 C   0  0  0  0  0  0  0  0  0  0  0  0
   -4.4591   -7.7813  -21.4635 O   0  0  0  0  0  0  0  0  0  0  0  0
   -4.3156   -9.2142  -18.3912 C   0  0  0  0  0  0  0  0  0  0  0  0
   -3.0354   -9.9010  -18.4900 N   0  0  0  0  0  0  0  0  0  0  0  0
   -7.4716   -9.6693  -21.1908 C   0  0  1  0  0  0  0  0  0  0  0  0
   -6.8224   -8.4346  -21.3782 O   0  0  0  0  0  0  0  0  0  0  0  0
   -5.2795   -4.4777  -23.2604 C   0  0  0  0  0  0  0  0  0  0  0  0
   -6.1038   -3.7157  -19.5459 C   0  0  0  0  0  0  0  0  0  0  0  0
  1  2  1  6  0  0  0
  1  6  1  0  0  0  0
  1 21  1  0  0  0  0
  3  4  1  6  0  0  0
  3  8  1  0  0  0  0
  3 28  1  0  0  0  0
  5  9  1  0  0  0  0
  5 25  1  0  0  0  0
  5 29  1  6  0  0  0
  6  7  1  6  0  0  0
  6 11  1  0  0  0  0
  8 12  1  0  0  0  0
  9 10  1  1  0  0  0
  9 14  1  0  0  0  0
 11 16  1  0  0  0  0
 12 13  1  6  0  0  0
 12 17  1  0  0  0  0
 14 15  1  1  0  0  0
 14 18  1  0  0  0  0
 15 31  1  0  0  0  0
 16 20  1  0  0  0  0
 17  2  1  1  0  0  0
 17 22  1  0  0  0  0
 18 19  1  1  0  0  0
 18 24  1  0  0  0  0
 18 30  1  0  0  0  0
 20 21  1  0  0  0  0
 20 26  1  1  0  0  0
 22 23  1  1  0  0  0
 22 28  1  0  0  0  0
 24 25  1  0  0  0  0
 26 27  1  0  0  0  0
 28 29  1  1  0  0  0
M  END
>  <CHROM.1>
157.21218087,-122.44507976,47.50101062,51.82031221,123.74653955,-89.83540901
-6.31972001,-9.07436251,-19.74317182,-2.30771735,-1.26275507,-1.21290843

>  <Name>
ligand

>  <RI>
0

>  <Rbt.Current_Directory>
/home/itssahil/PROJECTS/Mol_Feturizer/New_Systems/rnas/4F8U

>  <Rbt.Executable>
rbdock ($Id: //depot/dev/client3/rdock/2013.1/src/exe/rbdock.cxx#4 $)

>  <Rbt.Library>
libRbt.so (2013.1, Build901 2013/11/27)

>  <Rbt.Parameter_File>
/export/apps/rDock/src/rDock_2013.1_src/data/scripts/dock_solv.prm

>  <Rbt.Receptor>
prm/blind_docking_60.prm

>  <SCORE>
16.4874

>  <SCORE.INTER>
-7.18044

>  <SCORE.INTER.CONST>
1

>  <SCORE.INTER.POLAR>
0

>  <SCORE.INTER.ROT>
6

>  <SCORE.INTER.SOLV>
22.9841

>  <SCORE.INTER.VDW>
-20.0483

>  <SCORE.INTER.norm>
-0.231627

>  <SCORE.INTRA>
4.48585

>  <SCORE.INTRA.DIHEDRAL>
-3.61095

>  <SCORE.INTRA.DIHEDRAL.0>
18.77

>  <SCORE.INTRA.POLAR>
0

>  <SCORE.INTRA.POLAR.0>
0

>  <SCORE.INTRA.REPUL>
0

>  <SCORE.INTRA.REPUL.0>
0

>  <SCORE.INTRA.SOLV>
0.666381

>  <SCORE.INTRA.SOLV.lig_0>
-77.2465

>  <SCORE.INTRA.VDW>
5.95814

>  <SCORE.INTRA.VDW.0>
-4.16072

>  <SCORE.INTRA.norm>
0.144705

>  <SCORE.RESTR>
19.182

>  <SCORE.RESTR.CAVITY>
19.182

>  <SCORE.RESTR.norm>
0.618773

>  <SCORE.SYSTEM>
0

>  <SCORE.SYSTEM.CONST>
0

>  <SCORE.SYSTEM.DIHEDRAL>
0

>  <SCORE.SYSTEM.SOLV>
0

>  <SCORE.SYSTEM.norm>
0

>  <SCORE.heavy>
31

>  <SCORE.norm>
0.531851

>  <RMSD>
8.883

$$$$
ligand
 OpenBabel11021811493D
libRbt.so/2013.1/901 2013/11/27
 31 33  0  0  0  0  0  0  0  0999 V2000
  -10.3855   -7.4137  -12.5966 C   0  0  2  0  0  0  0  0  0  0  0  0
   -9.1670   -8.1697  -12.5815 O   0  0  0  0  0  0  0  0  0  0  0  0
   -7.0636  -10.9892  -15.0207 C   0  0  2  0  0  0  0  0  0  0  0  0
   -6.8050  -12.1138  -15.8671 N   0  0  0  0  0  0  0  0  0  0  0  0
   -6.3657  -10.1740  -17.5908 C   0  0  2  0  0  0  0  0  0  0  0  0
   -9.9848   -5.9370  -12.9439 C   0  0  2  0  0  0  0  0  0  0  0  0
   -9.2843   -5.9046  -14.2230 N   0  0  0  0  0  0  0  0  0  0  0  0
   -7.6523  -11.5060  -13.6516 C   0  0  0  0  0  0  0  0  0  0  0  0
   -5.6412   -8.9875  -18.2982 C   0  0  2  0  0  0  0  0  0  0  0  0
   -5.2678   -8.0278  -17.3243 O   0  0  0  0  0  0  0  0  0  0  0  0
   -9.0837   -5.3489  -11.8028 C   0  0  0  0  0  0  0  0  0  0  0  0
   -7.9317  -10.2565  -12.7094 C   0  0  2  0  0  0  0  0  0  0  0  0
   -8.4869  -10.7300  -11.4199 N   0  0  0  0  0  0  0  0  0  0  0  0
   -6.6700   -8.3678  -19.3440 C   0  0  1  0  0  0  0  0  0  0  0  0
   -6.0619   -7.1902  -20.0516 N   0  0  0  0  0  0  0  0  0  0  0  0
   -9.7013   -5.6391  -10.4043 C   0  0  0  0  0  0  0  0  0  0  0  0
   -8.9587   -9.2701  -13.4244 C   0  0  2  0  0  0  0  0  0  0  0  0
   -7.0674   -9.5044  -20.4409 C   0  0  1  0  0  0  0  0  0  0  0  0
   -5.9400   -9.9688  -21.1580 O   0  0  0  0  0  0  0  0  0  0  0  0
  -10.6073   -6.6143  -10.2379 C   0  0  2  0  0  0  0  0  0  0  0  0
  -11.0752   -7.4497  -11.3112 O   0  0  0  0  0  0  0  0  0  0  0  0
   -8.3487   -8.7938  -14.8089 C   0  0  2  0  0  0  0  0  0  0  0  0
   -9.2742   -7.9245  -15.4737 O   0  0  0  0  0  0  0  0  0  0  0  0
   -7.7030  -10.7322  -19.7055 C   0  0  0  0  0  0  0  0  0  0  0  0
   -6.7719  -11.2123  -18.6049 O   0  0  0  0  0  0  0  0  0  0  0  0
  -11.2344   -6.9161   -8.8568 C   0  0  0  0  0  0  0  0  0  0  0  0
  -12.4081   -6.0768   -8.6615 N   0  0  0  0  0  0  0  0  0  0  0  0
   -8.0763  -10.0398  -15.7269 C   0  0  1  0  0  0  0  0  0  0  0  0
   -7.5322   -9.5784  -16.9401 O   0  0  0  0  0  0  0  0  0  0  0  0
   -8.0638   -9.0649  -21.5265 C   0  0  0  0  0  0  0  0  0  0  0  0
   -6.9878   -6.1086  -20.4376 C   0  0  0  0  0  0  0  0  0  0  0  0
  1  2  1  1  0  0  0
  1  6  1  0  0  0  0
  1 21  1  0  0  0  0
  3  4  1  6  0  0  0
  3  8  1  0  0  0  0
  3 28  1  0  0  0  0
  5  9  1  0  0  0  0
  5 25  1  0  0  0  0
  5 29  1  6  0  0  0
  6  7  1  6  0  0  0
  6 11  1  0  0  0  0
  8 12  1  0  0  0  0
  9 10  1  1  0  0  0
  9 14  1  0  0  0  0
 11 16  1  0  0  0  0
 12 13  1  1  0  0  0
 12 17  1  0  0  0  0
 14 15  1  6  0  0  0
 14 18  1  0  0  0  0
 15 31  1  0  0  0  0
 16 20  1  0  0  0  0
 17  2  1  1  0  0  0
 17 22  1  0  0  0  0
 18 19  1  6  0  0  0
 18 24  1  0  0  0  0
 18 30  1  0  0  0  0
 20 21  1  0  0  0  0
 20 26  1  6  0  0  0
 22 23  1  6  0  0  0
 22 28  1  0  0  0  0
 24 25  1  0  0  0  0
 26 27  1  0  0  0  0
 28 29  1  6  0  0  0
M  END
>  <CHROM.1>
-120.96576368,-147.25621079,-147.35389349,-152.43656119,87.57765773,14.75842656
-8.23666108,-8.57675497,-15.30702093,2.70634190,-1.14020971,2.41497582

>  <Name>
ligand

>  <RI>
0

>  <Rbt.Current_Directory>
/home/itssahil/PROJECTS/Mol_Feturizer/New_Systems/rnas/4F8U

>  <Rbt.Executable>
rbdock ($Id: //depot/dev/client3/rdock/2013.1/src/exe/rbdock.cxx#4 $)

>  <Rbt.Library>
libRbt.so (2013.1, Build901 2013/11/27)

>  <Rbt.Parameter_File>
/export/apps/rDock/src/rDock_2013.1_src/data/scripts/dock_solv.prm

>  <Rbt.Receptor>
prm/blind_docking_80.prm

>  <SCORE>
29.6725

>  <SCORE.INTER>
6.91979

>  <SCORE.INTER.CONST>
1

>  <SCORE.INTER.POLAR>
0

>  <SCORE.INTER.ROT>
6

>  <SCORE.INTER.SOLV>
21.0405

>  <SCORE.INTER.VDW>
-10.0003

>  <SCORE.INTER.norm>
0.223219

>  <SCORE.INTRA>
7.66816

>  <SCORE.INTRA.DIHEDRAL>
5.30484

>  <SCORE.INTRA.DIHEDRAL.0>
18.77

>  <SCORE.INTRA.POLAR>
0

>  <SCORE.INTRA.POLAR.0>
0

>  <SCORE.INTRA.REPUL>
0

>  <SCORE.INTRA.REPUL.0>
0

>  <SCORE.INTRA.SOLV>
1.30989

>  <SCORE.INTRA.SOLV.lig_0>
-77.2465

>  <SCORE.INTRA.VDW>
4.3608

>  <SCORE.INTRA.VDW.0>
-4.16072

>  <SCORE.INTRA.norm>
0.24736

>  <SCORE.RESTR>
15.0845

>  <SCORE.RESTR.CAVITY>
15.0845

>  <SCORE.RESTR.norm>
0.486597

>  <SCORE.SYSTEM>
0

>  <SCORE.SYSTEM.CONST>
0

>  <SCORE.SYSTEM.DIHEDRAL>
0

>  <SCORE.SYSTEM.SOLV>
0

>  <SCORE.SYSTEM.norm>
0

>  <SCORE.heavy>
31

>  <SCORE.norm>
0.957177

>  <RMSD>
8.900

$$$$
ligand
 OpenBabel11021811493D
libRbt.so/2013.1/901 2013/11/27
 31 33  0  0  0  0  0  0  0  0999 V2000
   -8.6192  -13.3708  -20.4217 C   0  0  2  0  0  0  0  0  0  0  0  0
   -8.5296  -12.4974  -19.2877 O   0  0  0  0  0  0  0  0  0  0  0  0
   -6.5242   -8.9119  -18.0854 C   0  0  2  0  0  0  0  0  0  0  0  0
   -5.4885   -7.9423  -17.8975 N   0  0  0  0  0  0  0  0  0  0  0  0
   -6.4648   -6.6512  -20.0015 C   0  0  2  0  0  0  0  0  0  0  0  0
   -7.5948  -14.5317  -20.1672 C   0  0  2  0  0  0  0  0  0  0  0  0
   -7.9126  -15.2024  -18.9114 N   0  0  0  0  0  0  0  0  0  0  0  0
   -6.0971  -10.2571  -17.3812 C   0  0  0  0  0  0  0  0  0  0  0  0
   -6.7608   -5.8097  -21.2811 C   0  0  2  0  0  0  0  0  0  0  0  0
   -8.1630   -5.6556  -21.4183 O   0  0  0  0  0  0  0  0  0  0  0  0
   -6.1365  -13.9554  -20.1349 C   0  0  0  0  0  0  0  0  0  0  0  0
   -7.2518  -11.3309  -17.5838 C   0  0  2  0  0  0  0  0  0  0  0  0
   -6.8608  -12.6003  -16.9274 N   0  0  0  0  0  0  0  0  0  0  0  0
   -6.1514   -6.6079  -22.5172 C   0  0  1  0  0  0  0  0  0  0  0  0
   -6.4219   -5.8801  -23.8034 N   0  0  0  0  0  0  0  0  0  0  0  0
   -5.8907  -13.0021  -21.3399 C   0  0  0  0  0  0  0  0  0  0  0  0
   -7.4929  -11.5654  -19.1413 C   0  0  2  0  0  0  0  0  0  0  0  0
   -4.5421   -6.7581  -22.3156 C   0  0  1  0  0  0  0  0  0  0  0  0
   -3.8955   -5.5021  -22.2434 O   0  0  0  0  0  0  0  0  0  0  0  0
   -6.9169  -12.4503  -22.0049 C   0  0  2  0  0  0  0  0  0  0  0  0
   -8.2953  -12.6904  -21.6712 O   0  0  0  0  0  0  0  0  0  0  0  0
   -7.8913  -10.1893  -19.8219 C   0  0  2  0  0  0  0  0  0  0  0  0
   -8.0872  -10.3821  -21.2284 O   0  0  0  0  0  0  0  0  0  0  0  0
   -4.2579   -7.5179  -20.9762 C   0  0  0  0  0  0  0  0  0  0  0  0
   -4.9781   -6.8282  -19.8297 O   0  0  0  0  0  0  0  0  0  0  0  0
   -6.6932  -11.5027  -23.2065 C   0  0  0  0  0  0  0  0  0  0  0  0
   -7.3122  -12.0707  -24.3959 N   0  0  0  0  0  0  0  0  0  0  0  0
   -6.7415   -9.1390  -19.6107 C   0  0  1  0  0  0  0  0  0  0  0  0
   -7.1330   -7.9333  -20.2221 O   0  0  0  0  0  0  0  0  0  0  0  0
   -3.7978   -7.5143  -23.4286 C   0  0  0  0  0  0  0  0  0  0  0  0
   -7.7604   -6.0698  -24.3939 C   0  0  0  0  0  0  0  0  0  0  0  0
  1  2  1  1  0  0  0
  1  6  1  0  0  0  0
  1 21  1  0  0  0  0
  3  4  1  6  0  0  0
  3  8  1  0  0  0  0
  3 28  1  0  0  0  0
  5  9  1  0  0  0  0
  5 25  1  0  0  0  0
  5 29  1  6  0  0  0
  6  7  1  1  0  0  0
  6 11  1  0  0  0  0
  8 12  1  0  0  0  0
  9 10  1  6  0  0  0
  9 14  1  0  0  0  0
 11 16  1  0  0  0  0
 12 13  1  1  0  0  0
 12 17  1  0  0  0  0
 14 15  1  6  0  0  0
 14 18  1  0  0  0  0
 15 31  1  0  0  0  0
 16 20  1  0  0  0  0
 17  2  1  1  0  0  0
 17 22  1  0  0  0  0
 18 19  1  1  0  0  0
 18 24  1  0  0  0  0
 18 30  1  0  0  0  0
 20 21  1  0  0  0  0
 20 26  1  6  0  0  0
 22 23  1  6  0  0  0
 22 28  1  0  0  0  0
 24 25  1  0  0  0  0
 26 27  1  0  0  0  0
 28 29  1  6  0  0  0
M  END
>  <CHROM.1>
78.76411674,154.87097699,-81.17450219,-151.41552604,119.42686269,47.33802370
-6.67141419,-9.71407537,-20.72660470,2.63054224,1.30589401,1.77161938

>  <Name>
ligand

>  <RI>
0

>  <Rbt.Current_Directory>
/home/itssahil/PROJECTS/Mol_Feturizer/New_Systems/rnas/4F8U

>  <Rbt.Executable>
rbdock ($Id: //depot/dev/client3/rdock/2013.1/src/exe/rbdock.cxx#4 $)

>  <Rbt.Library>
libRbt.so (2013.1, Build901 2013/11/27)

>  <Rbt.Parameter_File>
/export/apps/rDock/src/rDock_2013.1_src/data/scripts/dock_solv.prm

>  <Rbt.Receptor>
prm/blind_docking_60.prm

>  <SCORE>
34.6699

>  <SCORE.INTER>
5.54774

>  <SCORE.INTER.CONST>
1

>  <SCORE.INTER.POLAR>
0

>  <SCORE.INTER.ROT>
6

>  <SCORE.INTER.SOLV>
30.293

>  <SCORE.INTER.VDW>
-13.9992

>  <SCORE.INTER.norm>
0.178959

>  <SCORE.INTRA>
7.54412

>  <SCORE.INTRA.DIHEDRAL>
-8.36479

>  <SCORE.INTRA.DIHEDRAL.0>
18.77

>  <SCORE.INTRA.POLAR>
0

>  <SCORE.INTRA.POLAR.0>
0

>  <SCORE.INTRA.REPUL>
0

>  <SCORE.INTRA.REPUL.0>
0

>  <SCORE.INTRA.SOLV>
4.24027

>  <SCORE.INTRA.SOLV.lig_0>
-77.2465

>  <SCORE.INTRA.VDW>
9.60638

>  <SCORE.INTRA.VDW.0>
-4.16072

>  <SCORE.INTRA.norm>
0.243359

>  <SCORE.RESTR>
21.5781

>  <SCORE.RESTR.CAVITY>
21.5781

>  <SCORE.RESTR.norm>
0.696067

>  <SCORE.SYSTEM>
0

>  <SCORE.SYSTEM.CONST>
0

>  <SCORE.SYSTEM.DIHEDRAL>
0

>  <SCORE.SYSTEM.SOLV>
0

>  <SCORE.SYSTEM.norm>
0

>  <SCORE.heavy>
31

>  <SCORE.norm>
1.11839

>  <RMSD>
8.921

$$$$
ligand
 OpenBabel11021811493D
libRbt.so/2013.1/901 2013/11/27
 31 33  0  0  0  0  0  0  0  0999 V2000
   -4.5769  -13.7835  -10.6680 C   0  0  2  0  0  0  0  0  0  0  0  0
   -5.6664  -12.8946  -10.9500 O   0  0  0  0  0  0  0  0  0  0  0  0
   -9.3207  -11.6110   -9.1273 C   0  0  2  0  0  0  0  0  0  0  0  0
  -10.2519  -11.1697   -8.1343 N   0  0  0  0  0  0  0  0  0  0  0  0
   -9.9861   -9.1551  -10.3144 C   0  0  2  0  0  0  0  0  0  0  0  0
   -3.6046  -13.0024   -9.7160 C   0  0  2  0  0  0  0  0  0  0  0  0
   -4.3199  -12.5871   -8.5145 N   0  0  0  0  0  0  0  0  0  0  0  0
   -8.7473  -13.0168   -8.6998 C   0  0  0  0  0  0  0  0  0  0  0  0
   -9.6453   -9.0325  -11.8317 C   0  0  2  0  0  0  0  0  0  0  0  0
   -8.9819  -10.2122  -12.2527 O   0  0  0  0  0  0  0  0  0  0  0  0
   -3.0117  -11.7592  -10.4663 C   0  0  0  0  0  0  0  0  0  0  0  0
   -7.7190  -13.5096   -9.8075 C   0  0  2  0  0  0  0  0  0  0  0  0
   -7.1722  -14.8296   -9.4155 N   0  0  0  0  0  0  0  0  0  0  0  0
   -8.7039   -7.7588  -11.9982 C   0  0  1  0  0  0  0  0  0  0  0  0
   -8.2976   -7.5842  -13.4341 N   0  0  0  0  0  0  0  0  0  0  0  0
   -2.5010  -12.1578  -11.8811 C   0  0  0  0  0  0  0  0  0  0  0  0
   -6.5425  -12.4449   -9.9524 C   0  0  2  0  0  0  0  0  0  0  0  0
   -9.5081   -6.4313  -11.5045 C   0  0  1  0  0  0  0  0  0  0  0  0
  -10.6832   -6.2094  -12.2601 O   0  0  0  0  0  0  0  0  0  0  0  0
   -2.9278  -13.2803  -12.4789 C   0  0  2  0  0  0  0  0  0  0  0  0
   -3.8663  -14.1886  -11.8764 O   0  0  0  0  0  0  0  0  0  0  0  0
   -7.1563  -11.0385  -10.3537 C   0  0  2  0  0  0  0  0  0  0  0  0
   -6.1097  -10.0656  -10.4634 O   0  0  0  0  0  0  0  0  0  0  0  0
   -9.9312   -6.6106  -10.0074 C   0  0  0  0  0  0  0  0  0  0  0  0
  -10.6959   -7.9129   -9.8404 O   0  0  0  0  0  0  0  0  0  0  0  0
   -2.4300  -13.6948  -13.8832 C   0  0  0  0  0  0  0  0  0  0  0  0
   -1.6409  -14.9142  -13.7793 N   0  0  0  0  0  0  0  0  0  0  0  0
   -8.1715  -10.5671   -9.2506 C   0  0  1  0  0  0  0  0  0  0  0  0
   -8.6972   -9.3221   -9.6437 O   0  0  0  0  0  0  0  0  0  0  0  0
   -8.7314   -5.1074  -11.5972 C   0  0  0  0  0  0  0  0  0  0  0  0
   -7.5120   -8.6814  -14.0302 C   0  0  0  0  0  0  0  0  0  0  0  0
  1  2  1  6  0  0  0
  1  6  1  0  0  0  0
  1 21  1  0  0  0  0
  3  4  1  1  0  0  0
  3  8  1  0  0  0  0
  3 28  1  0  0  0  0
  5  9  1  0  0  0  0
  5 25  1  0  0  0  0
  5 29  1  1  0  0  0
  6  7  1  1  0  0  0
  6 11  1  0  0  0  0
  8 12  1  0  0  0  0
  9 10  1  1  0  0  0
  9 14  1  0  0  0  0
 11 16  1  0  0  0  0
 12 13  1  1  0  0  0
 12 17  1  0  0  0  0
 14 15  1  6  0  0  0
 14 18  1  0  0  0  0
 15 31  1  0  0  0  0
 16 20  1  0  0  0  0
 17  2  1  6  0  0  0
 17 22  1  0  0  0  0
 18 19  1  6  0  0  0
 18 24  1  0  0  0  0
 18 30  1  0  0  0  0
 20 21  1  0  0  0  0
 20 26  1  1  0  0  0
 22 23  1  1  0  0  0
 22 28  1  0  0  0  0
 24 25  1  0  0  0  0
 26 27  1  0  0  0  0
 28 29  1  6  0  0  0
M  END
>  <CHROM.1>
-64.09967223,-98.11564496,-61.94859631,-87.31913004,113.58175574,-21.33608959
-7.01988500,-10.75692362,-10.92814649,0.55406261,-0.58016288,2.48258266

>  <Name>
ligand

>  <RI>
0

>  <Rbt.Current_Directory>
/home/itssahil/PROJECTS/Mol_Feturizer/New_Systems/rnas/4F8U

>  <Rbt.Executable>
rbdock ($Id: //depot/dev/client3/rdock/2013.1/src/exe/rbdock.cxx#4 $)

>  <Rbt.Library>
libRbt.so (2013.1, Build901 2013/11/27)

>  <Rbt.Parameter_File>
/export/apps/rDock/src/rDock_2013.1_src/data/scripts/dock_solv.prm

>  <Rbt.Receptor>
prm/blind_docking_20.prm

>  <SCORE>
15.3137

>  <SCORE.INTER>
2.23888

>  <SCORE.INTER.CONST>
1

>  <SCORE.INTER.POLAR>
0

>  <SCORE.INTER.ROT>
6

>  <SCORE.INTER.SOLV>
17.8633

>  <SCORE.INTER.VDW>
-12.0619

>  <SCORE.INTER.norm>
0.0722218

>  <SCORE.INTRA>
3.67524

>  <SCORE.INTRA.DIHEDRAL>
-3.59293

>  <SCORE.INTRA.DIHEDRAL.0>
18.77

>  <SCORE.INTRA.POLAR>
0

>  <SCORE.INTRA.POLAR.0>
0

>  <SCORE.INTRA.REPUL>
0

>  <SCORE.INTRA.REPUL.0>
0

>  <SCORE.INTRA.SOLV>
3.04928

>  <SCORE.INTRA.SOLV.lig_0>
-77.2465

>  <SCORE.INTRA.VDW>
3.94706

>  <SCORE.INTRA.VDW.0>
-4.16072

>  <SCORE.INTRA.norm>
0.118556

>  <SCORE.RESTR>
9.39954

>  <SCORE.RESTR.CAVITY>
9.39954

>  <SCORE.RESTR.norm>
0.303211

>  <SCORE.SYSTEM>
0

>  <SCORE.SYSTEM.CONST>
0

>  <SCORE.SYSTEM.DIHEDRAL>
0

>  <SCORE.SYSTEM.SOLV>
0

>  <SCORE.SYSTEM.norm>
0

>  <SCORE.heavy>
31

>  <SCORE.norm>
0.493989

>  <RMSD>
8.938

$$$$
ligand
 OpenBabel11021811493D
libRbt.so/2013.1/901 2013/11/27
 31 33  0  0  0  0  0  0  0  0999 V2000
   -7.9251  -10.4309  -25.2176 C   0  0  2  0  0  0  0  0  0  0  0  0
   -6.8742  -11.0051  -24.4286 O   0  0  0  0  0  0  0  0  0  0  0  0
   -8.1026  -10.7093  -20.3388 C   0  0  2  0  0  0  0  0  0  0  0  0
   -8.0427  -10.5224  -18.9212 N   0  0  0  0  0  0  0  0  0  0  0  0
   -8.0658   -7.1919  -19.8882 C   0  0  2  0  0  0  0  0  0  0  0  0
   -7.9117  -11.1901  -26.5907 C   0  0  2  0  0  0  0  0  0  0  0  0
   -8.0921  -12.6198  -26.3647 N   0  0  0  0  0  0  0  0  0  0  0  0
   -7.1684  -11.9173  -20.7338 C   0  0  0  0  0  0  0  0  0  0  0  0
   -6.9353   -6.5030  -20.7132 C   0  0  2  0  0  0  0  0  0  0  0  0
   -7.4585   -6.1014  -21.9678 O   0  0  0  0  0  0  0  0  0  0  0  0
   -6.5610  -10.9125  -27.3379 C   0  0  0  0  0  0  0  0  0  0  0  0
   -7.2420  -12.1290  -22.3077 C   0  0  2  0  0  0  0  0  0  0  0  0
   -6.3664  -13.2610  -22.6910 N   0  0  0  0  0  0  0  0  0  0  0  0
   -5.7715   -7.5743  -20.8975 C   0  0  1  0  0  0  0  0  0  0  0  0
   -4.6486   -7.0017  -21.7150 N   0  0  0  0  0  0  0  0  0  0  0  0
   -6.2248   -9.3932  -27.3286 C   0  0  0  0  0  0  0  0  0  0  0  0
   -6.7768  -10.7958  -23.0460 C   0  0  2  0  0  0  0  0  0  0  0  0
   -5.2025   -8.0030  -19.4328 C   0  0  1  0  0  0  0  0  0  0  0  0
   -4.6736   -6.8993  -18.7236 O   0  0  0  0  0  0  0  0  0  0  0  0
   -6.7895   -8.5660  -26.4361 C   0  0  2  0  0  0  0  0  0  0  0  0
   -7.7320   -9.0019  -25.4408 O   0  0  0  0  0  0  0  0  0  0  0  0
   -7.7176   -9.5977  -22.6043 C   0  0  2  0  0  0  0  0  0  0  0  0
   -7.2940   -8.3868  -23.2433 O   0  0  0  0  0  0  0  0  0  0  0  0
   -6.3712   -8.6018  -18.5796 C   0  0  0  0  0  0  0  0  0  0  0  0
   -7.5364   -7.6272  -18.5459 O   0  0  0  0  0  0  0  0  0  0  0  0
   -6.4704   -7.0530  -26.4126 C   0  0  0  0  0  0  0  0  0  0  0  0
   -7.1115   -6.4028  -27.5469 N   0  0  0  0  0  0  0  0  0  0  0  0
   -7.6353   -9.4033  -21.0470 C   0  0  1  0  0  0  0  0  0  0  0  0
   -8.4849   -8.3383  -20.6939 O   0  0  0  0  0  0  0  0  0  0  0  0
   -4.0689   -9.0420  -19.4351 C   0  0  0  0  0  0  0  0  0  0  0  0
   -4.4160   -5.5509  -21.5825 C   0  0  0  0  0  0  0  0  0  0  0  0
  1  2  1  1  0  0  0
  1  6  1  0  0  0  0
  1 21  1  0  0  0  0
  3  4  1  1  0  0  0
  3  8  1  0  0  0  0
  3 28  1  0  0  0  0
  5  9  1  0  0  0  0
  5 25  1  0  0  0  0
  5 29  1  6  0  0  0
  6  7  1  1  0  0  0
  6 11  1  0  0  0  0
  8 12  1  0  0  0  0
  9 10  1  6  0  0  0
  9 14  1  0  0  0  0
 11 16  1  0  0  0  0
 12 13  1  1  0  0  0
 12 17  1  0  0  0  0
 14 15  1  6  0  0  0
 14 18  1  0  0  0  0
 15 31  1  0  0  0  0
 16 20  1  0  0  0  0
 17  2  1  6  0  0  0
 17 22  1  0  0  0  0
 18 19  1  1  0  0  0
 18 24  1  0  0  0  0
 18 30  1  0  0  0  0
 20 21  1  0  0  0  0
 20 26  1  6  0  0  0
 22 23  1  6  0  0  0
 22 28  1  0  0  0  0
 24 25  1  0  0  0  0
 26 27  1  0  0  0  0
 28 29  1  1  0  0  0
M  END
>  <CHROM.1>
-165.21292880,61.45602235,31.72010019,105.11657689,73.05203842,112.86819699
-6.82057528,-9.04698336,-22.56796646,2.06934049,-1.30912366,-1.39078174

>  <Name>
ligand

>  <RI>
0

>  <Rbt.Current_Directory>
/home/itssahil/PROJECTS/Mol_Feturizer/New_Systems/rnas/4F8U

>  <Rbt.Executable>
rbdock ($Id: //depot/dev/client3/rdock/2013.1/src/exe/rbdock.cxx#4 $)

>  <Rbt.Library>
libRbt.so (2013.1, Build901 2013/11/27)

>  <Rbt.Parameter_File>
/export/apps/rDock/src/rDock_2013.1_src/data/scripts/dock_solv.prm

>  <Rbt.Receptor>
prm/blind_docking_100.prm

>  <SCORE>
65.3975

>  <SCORE.INTER>
41.3973

>  <SCORE.INTER.CONST>
1

>  <SCORE.INTER.POLAR>
0

>  <SCORE.INTER.ROT>
6

>  <SCORE.INTER.SOLV>
36.1161

>  <SCORE.INTER.VDW>
7.95948

>  <SCORE.INTER.norm>
1.3354

>  <SCORE.INTRA>
13.2627

>  <SCORE.INTRA.DIHEDRAL>
-0.690009

>  <SCORE.INTRA.DIHEDRAL.0>
18.77

>  <SCORE.INTRA.POLAR>
0

>  <SCORE.INTRA.POLAR.0>
0

>  <SCORE.INTRA.REPUL>
0

>  <SCORE.INTRA.REPUL.0>
0

>  <SCORE.INTRA.SOLV>
2.93573

>  <SCORE.INTRA.SOLV.lig_0>
-77.2465

>  <SCORE.INTRA.VDW>
12.1399

>  <SCORE.INTRA.VDW.0>
-4.16072

>  <SCORE.INTRA.norm>
0.42783

>  <SCORE.RESTR>
10.7375

>  <SCORE.RESTR.CAVITY>
10.7375

>  <SCORE.RESTR.norm>
0.346372

>  <SCORE.SYSTEM>
0

>  <SCORE.SYSTEM.CONST>
0

>  <SCORE.SYSTEM.DIHEDRAL>
0

>  <SCORE.SYSTEM.SOLV>
0

>  <SCORE.SYSTEM.norm>
0

>  <SCORE.heavy>
31

>  <SCORE.norm>
2.1096

>  <RMSD>
8.940

$$$$
ligand
 OpenBabel11021811493D
libRbt.so/2013.1/901 2013/11/27
 31 33  0  0  0  0  0  0  0  0999 V2000
   -7.6179  -12.9731  -19.7329 C   0  0  2  0  0  0  0  0  0  0  0  0
   -6.5297  -12.4532  -18.9571 O   0  0  0  0  0  0  0  0  0  0  0  0
   -8.0251   -8.5764  -17.9285 C   0  0  2  0  0  0  0  0  0  0  0  0
   -8.1008   -7.2663  -17.3577 N   0  0  0  0  0  0  0  0  0  0  0  0
   -6.0017   -7.5308  -21.0206 C   0  0  2  0  0  0  0  0  0  0  0  0
   -7.0103  -14.0885  -20.6542 C   0  0  2  0  0  0  0  0  0  0  0  0
   -6.3646  -15.1071  -19.8337 N   0  0  0  0  0  0  0  0  0  0  0  0
   -7.8734   -9.6313  -16.7657 C   0  0  0  0  0  0  0  0  0  0  0  0
   -5.5670   -6.0345  -20.9468 C   0  0  2  0  0  0  0  0  0  0  0  0
   -4.9746   -5.7875  -19.6831 O   0  0  0  0  0  0  0  0  0  0  0  0
   -5.9853  -13.4503  -21.6551 C   0  0  0  0  0  0  0  0  0  0  0  0
   -7.7974  -11.0868  -17.4006 C   0  0  2  0  0  0  0  0  0  0  0  0
   -7.6531  -12.0868  -16.3169 N   0  0  0  0  0  0  0  0  0  0  0  0
   -6.8807   -5.1556  -21.1421 C   0  0  1  0  0  0  0  0  0  0  0  0
   -6.5571   -3.6913  -21.0513 N   0  0  0  0  0  0  0  0  0  0  0  0
   -6.5838  -12.1804  -22.3263 C   0  0  0  0  0  0  0  0  0  0  0  0
   -6.5567  -11.1685  -18.3969 C   0  0  2  0  0  0  0  0  0  0  0  0
   -7.5232   -5.4720  -22.6050 C   0  0  1  0  0  0  0  0  0  0  0  0
   -6.6291   -5.1632  -23.6567 O   0  0  0  0  0  0  0  0  0  0  0  0
   -7.6209  -11.5315  -21.7759 C   0  0  2  0  0  0  0  0  0  0  0  0
   -8.2533  -11.9465  -20.5525 O   0  0  0  0  0  0  0  0  0  0  0  0
   -6.7269  -10.0767  -19.5347 C   0  0  2  0  0  0  0  0  0  0  0  0
   -5.6042  -10.1236  -20.4243 O   0  0  0  0  0  0  0  0  0  0  0  0
   -7.8628   -6.9977  -22.7010 C   0  0  0  0  0  0  0  0  0  0  0  0
   -6.6334   -7.8219  -22.3576 O   0  0  0  0  0  0  0  0  0  0  0  0
   -8.2312  -10.2695  -22.4290 C   0  0  0  0  0  0  0  0  0  0  0  0
   -7.6182  -10.0511  -23.7317 N   0  0  0  0  0  0  0  0  0  0  0  0
   -6.8027   -8.6451  -18.8910 C   0  0  1  0  0  0  0  0  0  0  0  0
   -6.9584   -7.7069  -19.9285 O   0  0  0  0  0  0  0  0  0  0  0  0
   -8.8088   -4.7023  -22.9499 C   0  0  0  0  0  0  0  0  0  0  0  0
   -6.2772   -3.1651  -19.7019 C   0  0  0  0  0  0  0  0  0  0  0  0
  1  2  1  6  0  0  0
  1  6  1  0  0  0  0
  1 21  1  0  0  0  0
  3  4  1  1  0  0  0
  3  8  1  0  0  0  0
  3 28  1  0  0  0  0
  5  9  1  0  0  0  0
  5 25  1  0  0  0  0
  5 29  1  1  0  0  0
  6  7  1  1  0  0  0
  6 11  1  0  0  0  0
  8 12  1  0  0  0  0
  9 10  1  1  0  0  0
  9 14  1  0  0  0  0
 11 16  1  0  0  0  0
 12 13  1  1  0  0  0
 12 17  1  0  0  0  0
 14 15  1  6  0  0  0
 14 18  1  0  0  0  0
 15 31  1  0  0  0  0
 16 20  1  0  0  0  0
 17  2  1  6  0  0  0
 17 22  1  0  0  0  0
 18 19  1  6  0  0  0
 18 24  1  0  0  0  0
 18 30  1  0  0  0  0
 20 21  1  0  0  0  0
 20 26  1  6  0  0  0
 22 23  1  6  0  0  0
 22 28  1  0  0  0  0
 24 25  1  0  0  0  0
 26 27  1  0  0  0  0
 28 29  1  6  0  0  0
M  END
>  <CHROM.1>
156.35857416,-122.24807181,-74.19587746,60.10053754,6.68957147,-178.65138554
-7.00570152,-9.05995927,-20.42309428,-3.11024410,1.54325522,1.31025537

>  <Name>
ligand

>  <RI>
0

>  <Rbt.Current_Directory>
/home/itssahil/PROJECTS/Mol_Feturizer/New_Systems/rnas/4F8U

>  <Rbt.Executable>
rbdock ($Id: //depot/dev/client3/rdock/2013.1/src/exe/rbdock.cxx#4 $)

>  <Rbt.Library>
libRbt.so (2013.1, Build901 2013/11/27)

>  <Rbt.Parameter_File>
/export/apps/rDock/src/rDock_2013.1_src/data/scripts/dock_solv.prm

>  <Rbt.Receptor>
prm/blind_docking_60.prm

>  <SCORE>
63.2518

>  <SCORE.INTER>
42.4916

>  <SCORE.INTER.CONST>
1

>  <SCORE.INTER.POLAR>
0

>  <SCORE.INTER.ROT>
6

>  <SCORE.INTER.SOLV>
25.6007

>  <SCORE.INTER.VDW>
12.1942

>  <SCORE.INTER.norm>
1.3707

>  <SCORE.INTRA>
1.59446

>  <SCORE.INTRA.DIHEDRAL>
-7.26473

>  <SCORE.INTRA.DIHEDRAL.0>
18.77

>  <SCORE.INTRA.POLAR>
0

>  <SCORE.INTRA.POLAR.0>
0

>  <SCORE.INTRA.REPUL>
0

>  <SCORE.INTRA.REPUL.0>
0

>  <SCORE.INTRA.SOLV>
1.56531

>  <SCORE.INTRA.SOLV.lig_0>
-77.2465

>  <SCORE.INTRA.VDW>
4.44417

>  <SCORE.INTRA.VDW.0>
-4.16072

>  <SCORE.INTRA.norm>
0.0514341

>  <SCORE.RESTR>
19.1658

>  <SCORE.RESTR.CAVITY>
19.1658

>  <SCORE.RESTR.norm>
0.61825

>  <SCORE.SYSTEM>
0

>  <SCORE.SYSTEM.CONST>
0

>  <SCORE.SYSTEM.DIHEDRAL>
0

>  <SCORE.SYSTEM.SOLV>
0

>  <SCORE.SYSTEM.norm>
0

>  <SCORE.heavy>
31

>  <SCORE.norm>
2.04038

>  <RMSD>
8.944

$$$$
ligand
 OpenBabel11021811493D
libRbt.so/2013.1/901 2013/11/27
 31 33  0  0  0  0  0  0  0  0999 V2000
   -7.5393  -11.3839  -24.2504 C   0  0  2  0  0  0  0  0  0  0  0  0
   -6.3682  -11.5437  -23.4383 O   0  0  0  0  0  0  0  0  0  0  0  0
   -7.9796  -11.0817  -19.4996 C   0  0  2  0  0  0  0  0  0  0  0  0
   -8.0483  -10.9229  -18.0790 N   0  0  0  0  0  0  0  0  0  0  0  0
   -7.3288   -7.5600  -19.0777 C   0  0  2  0  0  0  0  0  0  0  0  0
   -7.0359  -11.2567  -25.7311 C   0  0  2  0  0  0  0  0  0  0  0  0
   -6.2569  -12.4367  -26.0895 N   0  0  0  0  0  0  0  0  0  0  0  0
   -7.2278  -12.4294  -19.8262 C   0  0  0  0  0  0  0  0  0  0  0  0
   -7.5062   -6.3152  -20.0009 C   0  0  2  0  0  0  0  0  0  0  0  0
   -8.8873   -6.1202  -20.2527 O   0  0  0  0  0  0  0  0  0  0  0  0
   -6.1757   -9.9548  -25.8896 C   0  0  0  0  0  0  0  0  0  0  0  0
   -7.1591  -12.6087  -21.4043 C   0  0  2  0  0  0  0  0  0  0  0  0
   -6.4530  -13.8715  -21.7234 N   0  0  0  0  0  0  0  0  0  0  0  0
   -6.7178   -6.6180  -21.3511 C   0  0  1  0  0  0  0  0  0  0  0  0
   -6.8642   -5.4770  -22.3176 N   0  0  0  0  0  0  0  0  0  0  0  0
   -6.8938   -8.7344  -25.2442 C   0  0  0  0  0  0  0  0  0  0  0  0
   -6.3924  -11.3689  -22.0477 C   0  0  2  0  0  0  0  0  0  0  0  0
   -5.1393   -6.8327  -21.0118 C   0  0  1  0  0  0  0  0  0  0  0  0
   -4.5626   -5.6871  -20.4153 O   0  0  0  0  0  0  0  0  0  0  0  0
   -7.8615   -8.9057  -24.3310 C   0  0  2  0  0  0  0  0  0  0  0  0
   -8.3081  -10.1984  -23.8859 O   0  0  0  0  0  0  0  0  0  0  0  0
   -7.1577  -10.0304  -21.6756 C   0  0  2  0  0  0  0  0  0  0  0  0
   -6.4639   -8.9048  -22.2285 O   0  0  0  0  0  0  0  0  0  0  0  0
   -4.9843   -8.0227  -20.0057 C   0  0  0  0  0  0  0  0  0  0  0  0
   -5.8670   -7.7889  -18.7912 O   0  0  0  0  0  0  0  0  0  0  0  0
   -8.5887   -7.7058  -23.6804 C   0  0  0  0  0  0  0  0  0  0  0  0
   -9.9800   -7.6892  -24.1096 N   0  0  0  0  0  0  0  0  0  0  0  0
   -7.2189   -9.8694  -20.1136 C   0  0  1  0  0  0  0  0  0  0  0  0
   -7.9078   -8.6768  -19.8237 O   0  0  0  0  0  0  0  0  0  0  0  0
   -4.2338   -7.1407  -22.2159 C   0  0  0  0  0  0  0  0  0  0  0  0
   -6.5303   -4.1356  -21.8024 C   0  0  0  0  0  0  0  0  0  0  0  0
  1  2  1  1  0  0  0
  1  6  1  0  0  0  0
  1 21  1  0  0  0  0
  3  4  1  1  0  0  0
  3  8  1  0  0  0  0
  3 28  1  0  0  0  0
  5  9  1  0  0  0  0
  5 25  1  0  0  0  0
  5 29  1  6  0  0  0
  6  7  1  1  0  0  0
  6 11  1  0  0  0  0
  8 12  1  0  0  0  0
  9 10  1  6  0  0  0
  9 14  1  0  0  0  0
 11 16  1  0  0  0  0
 12 13  1  1  0  0  0
 12 17  1  0  0  0  0
 14 15  1  6  0  0  0
 14 18  1  0  0  0  0
 15 31  1  0  0  0  0
 16 20  1  0  0  0  0
 17  2  1  6  0  0  0
 17 22  1  0  0  0  0
 18 19  1  1  0  0  0
 18 24  1  0  0  0  0
 18 30  1  0  0  0  0
 20 21  1  0  0  0  0
 20 26  1  6  0  0  0
 22 23  1  6  0  0  0
 22 28  1  0  0  0  0
 24 25  1  0  0  0  0
 26 27  1  0  0  0  0
 28 29  1  6  0  0  0
M  END
>  <CHROM.1>
164.35099290,125.37261285,52.24058600,72.31793809,112.85644085,120.59960493
-6.94779238,-9.03025669,-21.93293496,-2.96286740,1.49438241,1.96856650

>  <Name>
ligand

>  <RI>
0

>  <Rbt.Current_Directory>
/home/itssahil/PROJECTS/Mol_Feturizer/New_Systems/rnas/4F8U

>  <Rbt.Executable>
rbdock ($Id: //depot/dev/client3/rdock/2013.1/src/exe/rbdock.cxx#4 $)

>  <Rbt.Library>
libRbt.so (2013.1, Build901 2013/11/27)

>  <Rbt.Parameter_File>
/export/apps/rDock/src/rDock_2013.1_src/data/scripts/dock_solv.prm

>  <Rbt.Receptor>
prm/blind_docking_40.prm

>  <SCORE>
56.6304

>  <SCORE.INTER>
39.5305

>  <SCORE.INTER.CONST>
1

>  <SCORE.INTER.POLAR>
0

>  <SCORE.INTER.ROT>
6

>  <SCORE.INTER.SOLV>
39.7065

>  <SCORE.INTER.VDW>
5.51817

>  <SCORE.INTER.norm>
1.27518

>  <SCORE.INTRA>
10.4068

>  <SCORE.INTRA.DIHEDRAL>
-0.8542

>  <SCORE.INTRA.DIHEDRAL.0>
18.77

>  <SCORE.INTRA.POLAR>
0

>  <SCORE.INTRA.POLAR.0>
0

>  <SCORE.INTRA.REPUL>
0

>  <SCORE.INTRA.REPUL.0>
0

>  <SCORE.INTRA.SOLV>
1.07417

>  <SCORE.INTRA.SOLV.lig_0>
-77.2465

>  <SCORE.INTRA.VDW>
10.2968

>  <SCORE.INTRA.VDW.0>
-4.16072

>  <SCORE.INTRA.norm>
0.335704

>  <SCORE.RESTR>
6.69302

>  <SCORE.RESTR.CAVITY>
6.69302

>  <SCORE.RESTR.norm>
0.215904

>  <SCORE.SYSTEM>
0

>  <SCORE.SYSTEM.CONST>
0

>  <SCORE.SYSTEM.DIHEDRAL>
0

>  <SCORE.SYSTEM.SOLV>
0

>  <SCORE.SYSTEM.norm>
0

>  <SCORE.heavy>
31

>  <SCORE.norm>
1.82679

>  <RMSD>
8.958

$$$$
ligand
 OpenBabel11021811493D
libRbt.so/2013.1/901 2013/11/27
 31 33  0  0  0  0  0  0  0  0999 V2000
   -0.5828  -12.3774  -17.1835 C   0  0  2  0  0  0  0  0  0  0  0  0
   -0.2937  -13.0410  -18.4214 O   0  0  0  0  0  0  0  0  0  0  0  0
   -2.8289  -14.8402  -21.3641 C   0  0  2  0  0  0  0  0  0  0  0  0
   -3.7149  -15.7689  -21.9969 N   0  0  0  0  0  0  0  0  0  0  0  0
   -5.9491  -14.3047  -20.7295 C   0  0  2  0  0  0  0  0  0  0  0  0
    0.6947  -11.5413  -16.8217 C   0  0  2  0  0  0  0  0  0  0  0  0
    0.9972  -10.6111  -17.9039 N   0  0  0  0  0  0  0  0  0  0  0  0
   -1.4808  -15.5799  -21.0128 C   0  0  0  0  0  0  0  0  0  0  0  0
   -6.9330  -13.1717  -21.1557 C   0  0  2  0  0  0  0  0  0  0  0  0
   -6.3961  -12.4918  -22.2774 O   0  0  0  0  0  0  0  0  0  0  0  0
    1.9048  -12.5052  -16.5642 C   0  0  0  0  0  0  0  0  0  0  0  0
   -0.4945  -14.5453  -20.3171 C   0  0  2  0  0  0  0  0  0  0  0  0
    0.7757  -15.2299  -19.9808 N   0  0  0  0  0  0  0  0  0  0  0  0
   -7.0822  -12.1891  -19.9113 C   0  0  1  0  0  0  0  0  0  0  0  0
   -7.9928  -11.0424  -20.2476 N   0  0  0  0  0  0  0  0  0  0  0  0
    1.4924  -13.6724  -15.6213 C   0  0  0  0  0  0  0  0  0  0  0  0
   -1.1756  -13.9651  -18.9987 C   0  0  2  0  0  0  0  0  0  0  0  0
   -7.7025  -13.0132  -18.6507 C   0  0  1  0  0  0  0  0  0  0  0  0
   -8.9790  -13.5487  -18.9415 O   0  0  0  0  0  0  0  0  0  0  0  0
    0.2029  -14.0011  -15.4520 C   0  0  2  0  0  0  0  0  0  0  0  0
   -0.8795  -13.3175  -16.1076 O   0  0  0  0  0  0  0  0  0  0  0  0
   -2.5405  -13.2551  -19.3841 C   0  0  2  0  0  0  0  0  0  0  0  0
   -3.1754  -12.7499  -18.2028 O   0  0  0  0  0  0  0  0  0  0  0  0
   -6.7539  -14.2080  -18.2974 C   0  0  0  0  0  0  0  0  0  0  0  0
   -6.4979  -15.0470  -19.5381 O   0  0  0  0  0  0  0  0  0  0  0  0
   -0.2271  -15.1558  -14.5174 C   0  0  0  0  0  0  0  0  0  0  0  0
   -0.9346  -16.1683  -15.2886 N   0  0  0  0  0  0  0  0  0  0  0  0
   -3.5024  -14.2898  -20.0722 C   0  0  1  0  0  0  0  0  0  0  0  0
   -4.6969  -13.6231  -20.4033 O   0  0  0  0  0  0  0  0  0  0  0  0
   -7.9064  -12.2035  -17.3594 C   0  0  0  0  0  0  0  0  0  0  0  0
   -7.3810   -9.9102  -20.9686 C   0  0  0  0  0  0  0  0  0  0  0  0
  1  2  1  6  0  0  0
  1  6  1  0  0  0  0
  1 21  1  0  0  0  0
  3  4  1  1  0  0  0
  3  8  1  0  0  0  0
  3 28  1  0  0  0  0
  5  9  1  0  0  0  0
  5 25  1  0  0  0  0
  5 29  1  1  0  0  0
  6  7  1  6  0  0  0
  6 11  1  0  0  0  0
  8 12  1  0  0  0  0
  9 10  1  6  0  0  0
  9 14  1  0  0  0  0
 11 16  1  0  0  0  0
 12 13  1  1  0  0  0
 12 17  1  0  0  0  0
 14 15  1  6  0  0  0
 14 18  1  0  0  0  0
 15 31  1  0  0  0  0
 16 20  1  0  0  0  0
 17  2  1  6  0  0  0
 17 22  1  0  0  0  0
 18 19  1  6  0  0  0
 18 24  1  0  0  0  0
 18 30  1  0  0  0  0
 20 21  1  0  0  0  0
 20 26  1  1  0  0  0
 22 23  1  1  0  0  0
 22 28  1  0  0  0  0
 24 25  1  0  0  0  0
 26 27  1  0  0  0  0
 28 29  1  6  0  0  0
M  END
>  <CHROM.1>
174.88562846,-174.67307481,-82.89207317,-177.22420445,-119.50392252,77.50075686
-3.27666076,-13.45161285,-18.83066241,0.33639652,-0.23645962,1.20811838

>  <Name>
ligand

>  <RI>
0

>  <Rbt.Current_Directory>
/home/itssahil/PROJECTS/Mol_Feturizer/New_Systems/rnas/4F8U

>  <Rbt.Executable>
rbdock ($Id: //depot/dev/client3/rdock/2013.1/src/exe/rbdock.cxx#4 $)

>  <Rbt.Library>
libRbt.so (2013.1, Build901 2013/11/27)

>  <Rbt.Parameter_File>
/export/apps/rDock/src/rDock_2013.1_src/data/scripts/dock_solv.prm

>  <Rbt.Receptor>
prm/pocket_docking_8.prm

>  <SCORE>
-12.9678

>  <SCORE.INTER>
-5.62804

>  <SCORE.INTER.CONST>
1

>  <SCORE.INTER.POLAR>
0

>  <SCORE.INTER.ROT>
6

>  <SCORE.INTER.SOLV>
15.3969

>  <SCORE.INTER.VDW>
-16.4843

>  <SCORE.INTER.norm>
-0.18155

>  <SCORE.INTRA>
-7.33975

>  <SCORE.INTRA.DIHEDRAL>
-14.9899

>  <SCORE.INTRA.DIHEDRAL.0>
18.77

>  <SCORE.INTRA.POLAR>
0

>  <SCORE.INTRA.POLAR.0>
0

>  <SCORE.INTRA.REPUL>
0

>  <SCORE.INTRA.REPUL.0>
0

>  <SCORE.INTRA.SOLV>
-1.85013

>  <SCORE.INTRA.SOLV.lig_0>
-77.2465

>  <SCORE.INTRA.VDW>
1.08026

>  <SCORE.INTRA.VDW.0>
-4.16072

>  <SCORE.INTRA.norm>
-0.236766

>  <SCORE.RESTR>
0

>  <SCORE.RESTR.CAVITY>
0

>  <SCORE.RESTR.norm>
0

>  <SCORE.SYSTEM>
0

>  <SCORE.SYSTEM.CONST>
0

>  <SCORE.SYSTEM.DIHEDRAL>
0

>  <SCORE.SYSTEM.SOLV>
0

>  <SCORE.SYSTEM.norm>
0

>  <SCORE.heavy>
31

>  <SCORE.norm>
-0.418316

>  <RMSD>
8.959

$$$$
ligand
 OpenBabel11021811493D
libRbt.so/2013.1/901 2013/11/27
 31 33  0  0  0  0  0  0  0  0999 V2000
   -6.6188  -11.8821  -17.2012 C   0  0  2  0  0  0  0  0  0  0  0  0
   -7.8862  -11.4406  -17.7062 O   0  0  0  0  0  0  0  0  0  0  0  0
   -6.9402  -10.6887  -21.8127 C   0  0  2  0  0  0  0  0  0  0  0  0
   -7.1033  -10.3968  -23.2042 N   0  0  0  0  0  0  0  0  0  0  0  0
   -5.7926   -7.7204  -20.3875 C   0  0  2  0  0  0  0  0  0  0  0  0
   -6.5743  -11.4611  -15.6903 C   0  0  2  0  0  0  0  0  0  0  0  0
   -7.7025  -12.0538  -14.9805 N   0  0  0  0  0  0  0  0  0  0  0  0
   -7.7196  -12.0180  -21.4758 C   0  0  0  0  0  0  0  0  0  0  0  0
   -6.3580   -6.3073  -20.0460 C   0  0  2  0  0  0  0  0  0  0  0  0
   -7.6152   -6.4546  -19.4085 O   0  0  0  0  0  0  0  0  0  0  0  0
   -6.6051   -9.8973  -15.5738 C   0  0  0  0  0  0  0  0  0  0  0  0
   -7.5312  -12.3454  -19.9315 C   0  0  2  0  0  0  0  0  0  0  0  0
   -8.2609  -13.5922  -19.6027 N   0  0  0  0  0  0  0  0  0  0  0  0
   -6.5051   -5.5175  -21.4211 C   0  0  1  0  0  0  0  0  0  0  0  0
   -7.0783   -4.1485  -21.1874 N   0  0  0  0  0  0  0  0  0  0  0  0
   -5.5849   -9.2486  -16.5535 C   0  0  0  0  0  0  0  0  0  0  0  0
   -8.0867  -11.1333  -19.0591 C   0  0  2  0  0  0  0  0  0  0  0  0
   -5.0382   -5.3723  -22.1139 C   0  0  1  0  0  0  0  0  0  0  0  0
   -4.1311   -4.6602  -21.2947 O   0  0  0  0  0  0  0  0  0  0  0  0
   -5.1134   -9.9280  -17.6098 C   0  0  2  0  0  0  0  0  0  0  0  0
   -5.4981  -11.2797  -17.9156 O   0  0  0  0  0  0  0  0  0  0  0  0
   -7.3025   -9.8094  -19.4437 C   0  0  2  0  0  0  0  0  0  0  0  0
   -7.8100   -8.7061  -18.6827 O   0  0  0  0  0  0  0  0  0  0  0  0
   -4.4395   -6.7982  -22.3599 C   0  0  0  0  0  0  0  0  0  0  0  0
   -4.4524   -7.5930  -21.0649 O   0  0  0  0  0  0  0  0  0  0  0  0
   -4.0972   -9.3017  -18.5930 C   0  0  0  0  0  0  0  0  0  0  0  0
   -2.8269  -10.0067  -18.4945 N   0  0  0  0  0  0  0  0  0  0  0  0
   -7.4969   -9.5014  -20.9725 C   0  0  1  0  0  0  0  0  0  0  0  0
   -6.7842   -8.3262  -21.2756 O   0  0  0  0  0  0  0  0  0  0  0  0
   -5.0069   -4.6325  -23.4616 C   0  0  0  0  0  0  0  0  0  0  0  0
   -6.4754   -3.3644  -20.0929 C   0  0  0  0  0  0  0  0  0  0  0  0
  1  2  1  6  0  0  0
  1  6  1  0  0  0  0
  1 21  1  0  0  0  0
  3  4  1  6  0  0  0
  3  8  1  0  0  0  0
  3 28  1  0  0  0  0
  5  9  1  0  0  0  0
  5 25  1  0  0  0  0
  5 29  1  6  0  0  0
  6  7  1  1  0  0  0
  6 11  1  0  0  0  0
  8 12  1  0  0  0  0
  9 10  1  6  0  0  0
  9 14  1  0  0  0  0
 11 16  1  0  0  0  0
 12 13  1  1  0  0  0
 12 17  1  0  0  0  0
 14 15  1  1  0  0  0
 14 18  1  0  0  0  0
 15 31  1  0  0  0  0
 16 20  1  0  0  0  0
 17  2  1  1  0  0  0
 17 22  1  0  0  0  0
 18 19  1  1  0  0  0
 18 24  1  0  0  0  0
 18 30  1  0  0  0  0
 20 21  1  0  0  0  0
 20 26  1  1  0  0  0
 22 23  1  1  0  0  0
 22 28  1  0  0  0  0
 24 25  1  0  0  0  0
 26 27  1  0  0  0  0
 28 29  1  6  0  0  0
M  END
>  <CHROM.1>
153.20718425,-118.27602198,47.04982597,50.03870577,113.74129498,-105.73359457
-6.32836561,-8.84667495,-19.63642800,-2.12384116,-1.21247046,-1.08512559

>  <Name>
ligand

>  <RI>
0

>  <Rbt.Current_Directory>
/home/itssahil/PROJECTS/Mol_Feturizer/New_Systems/rnas/4F8U

>  <Rbt.Executable>
rbdock ($Id: //depot/dev/client3/rdock/2013.1/src/exe/rbdock.cxx#4 $)

>  <Rbt.Library>
libRbt.so (2013.1, Build901 2013/11/27)

>  <Rbt.Parameter_File>
/export/apps/rDock/src/rDock_2013.1_src/data/scripts/dock_solv.prm

>  <Rbt.Receptor>
prm/blind_docking_60.prm

>  <SCORE>
15.7224

>  <SCORE.INTER>
-9.5886

>  <SCORE.INTER.CONST>
1

>  <SCORE.INTER.POLAR>
0

>  <SCORE.INTER.ROT>
6

>  <SCORE.INTER.SOLV>
22.8181

>  <SCORE.INTER.VDW>
-21.5984

>  <SCORE.INTER.norm>
-0.30931

>  <SCORE.INTRA>
6.12718

>  <SCORE.INTRA.DIHEDRAL>
-0.00364941

>  <SCORE.INTRA.DIHEDRAL.0>
18.77

>  <SCORE.INTRA.POLAR>
0

>  <SCORE.INTRA.POLAR.0>
0

>  <SCORE.INTRA.REPUL>
0

>  <SCORE.INTRA.REPUL.0>
0

>  <SCORE.INTRA.SOLV>
-0.0940328

>  <SCORE.INTRA.SOLV.lig_0>
-77.2465

>  <SCORE.INTRA.VDW>
6.17602

>  <SCORE.INTRA.VDW.0>
-4.16072

>  <SCORE.INTRA.norm>
0.197651

>  <SCORE.RESTR>
19.1839

>  <SCORE.RESTR.CAVITY>
19.1839

>  <SCORE.RESTR.norm>
0.618834

>  <SCORE.SYSTEM>
0

>  <SCORE.SYSTEM.CONST>
0

>  <SCORE.SYSTEM.DIHEDRAL>
0

>  <SCORE.SYSTEM.SOLV>
0

>  <SCORE.SYSTEM.norm>
0

>  <SCORE.heavy>
31

>  <SCORE.norm>
0.507175

>  <RMSD>
8.960

$$$$
ligand
 OpenBabel11021811493D
libRbt.so/2013.1/901 2013/11/27
 31 33  0  0  0  0  0  0  0  0999 V2000
   -6.6036  -11.8452  -17.1722 C   0  0  2  0  0  0  0  0  0  0  0  0
   -7.8709  -11.4005  -17.6750 O   0  0  0  0  0  0  0  0  0  0  0  0
   -6.9304  -10.6448  -21.7821 C   0  0  2  0  0  0  0  0  0  0  0  0
   -7.0955  -10.3540  -23.1735 N   0  0  0  0  0  0  0  0  0  0  0  0
   -5.8031   -7.6658  -20.3539 C   0  0  2  0  0  0  0  0  0  0  0  0
   -6.5403  -11.3922  -15.6713 C   0  0  2  0  0  0  0  0  0  0  0  0
   -7.6681  -11.9568  -14.9385 N   0  0  0  0  0  0  0  0  0  0  0  0
   -7.7032  -11.9778  -21.4445 C   0  0  0  0  0  0  0  0  0  0  0  0
   -6.3671   -6.2453  -20.0418 C   0  0  2  0  0  0  0  0  0  0  0  0
   -7.6332   -6.3779  -19.4187 O   0  0  0  0  0  0  0  0  0  0  0  0
   -6.5529   -9.8260  -15.5883 C   0  0  0  0  0  0  0  0  0  0  0  0
   -7.5125  -12.3040  -19.9003 C   0  0  2  0  0  0  0  0  0  0  0  0
   -8.2361  -13.5542  -19.5710 N   0  0  0  0  0  0  0  0  0  0  0  0
   -6.4932   -5.4765  -21.4308 C   0  0  1  0  0  0  0  0  0  0  0  0
   -7.0639   -4.1019  -21.2259 N   0  0  0  0  0  0  0  0  0  0  0  0
   -5.5350   -9.2099  -16.5912 C   0  0  0  0  0  0  0  0  0  0  0  0
   -8.0735  -11.0945  -19.0278 C   0  0  2  0  0  0  0  0  0  0  0  0
   -5.0168   -5.3477  -22.1065 C   0  0  1  0  0  0  0  0  0  0  0  0
   -4.1176   -4.6265  -21.2867 O   0  0  0  0  0  0  0  0  0  0  0  0
   -5.0809   -9.9171  -17.6368 C   0  0  2  0  0  0  0  0  0  0  0  0
   -5.4832  -11.2708  -17.9098 O   0  0  0  0  0  0  0  0  0  0  0  0
   -7.2958   -9.7669  -19.4131 C   0  0  2  0  0  0  0  0  0  0  0  0
   -7.8083   -8.6659  -18.6520 O   0  0  0  0  0  0  0  0  0  0  0  0
   -4.4207   -6.7796  -22.3226 C   0  0  0  0  0  0  0  0  0  0  0  0
   -4.4537   -7.5540  -21.0157 O   0  0  0  0  0  0  0  0  0  0  0  0
   -4.0672   -9.3235  -18.6427 C   0  0  0  0  0  0  0  0  0  0  0  0
   -2.7839   -9.9953  -18.4940 N   0  0  0  0  0  0  0  0  0  0  0  0
   -7.4924   -9.4600  -20.9418 C   0  0  1  0  0  0  0  0  0  0  0  0
   -6.7854   -8.2815  -21.2455 O   0  0  0  0  0  0  0  0  0  0  0  0
   -4.9650   -4.6291  -23.4650 C   0  0  0  0  0  0  0  0  0  0  0  0
   -6.4568   -3.2946  -20.1507 C   0  0  0  0  0  0  0  0  0  0  0  0
  1  2  1  6  0  0  0
  1  6  1  0  0  0  0
  1 21  1  0  0  0  0
  3  4  1  6  0  0  0
  3  8  1  0  0  0  0
  3 28  1  0  0  0  0
  5  9  1  0  0  0  0
  5 25  1  0  0  0  0
  5 29  1  6  0  0  0
  6  7  1  1  0  0  0
  6 11  1  0  0  0  0
  8 12  1  0  0  0  0
  9 10  1  6  0  0  0
  9 14  1  0  0  0  0
 11 16  1  0  0  0  0
 12 13  1  1  0  0  0
 12 17  1  0  0  0  0
 14 15  1  1  0  0  0
 14 18  1  0  0  0  0
 15 31  1  0  0  0  0
 16 20  1  0  0  0  0
 17  2  1  1  0  0  0
 17 22  1  0  0  0  0
 18 19  1  1  0  0  0
 18 24  1  0  0  0  0
 18 30  1  0  0  0  0
 20 21  1  0  0  0  0
 20 26  1  1  0  0  0
 22 23  1  1  0  0  0
 22 28  1  0  0  0  0
 24 25  1  0  0  0  0
 26 27  1  0  0  0  0
 28 29  1  6  0  0  0
M  END
>  <CHROM.1>
151.89329309,-119.25220135,48.04766118,49.57773706,110.91210113,-106.17252916
-6.31166936,-8.80650693,-19.62591711,-2.10952970,-1.20983761,-1.07176049

>  <Name>
ligand

>  <RI>
0

>  <Rbt.Current_Directory>
/home/itssahil/PROJECTS/Mol_Feturizer/New_Systems/rnas/4F8U

>  <Rbt.Executable>
rbdock ($Id: //depot/dev/client3/rdock/2013.1/src/exe/rbdock.cxx#4 $)

>  <Rbt.Library>
libRbt.so (2013.1, Build901 2013/11/27)

>  <Rbt.Parameter_File>
/export/apps/rDock/src/rDock_2013.1_src/data/scripts/dock_solv.prm

>  <Rbt.Receptor>
prm/blind_docking_60.prm

>  <SCORE>
15.8937

>  <SCORE.INTER>
-9.25485

>  <SCORE.INTER.CONST>
1

>  <SCORE.INTER.POLAR>
0

>  <SCORE.INTER.ROT>
6

>  <SCORE.INTER.SOLV>
22.6706

>  <SCORE.INTER.VDW>
-21.3268

>  <SCORE.INTER.norm>
-0.298544

>  <SCORE.INTRA>
6.01532

>  <SCORE.INTRA.DIHEDRAL>
0.390088

>  <SCORE.INTRA.DIHEDRAL.0>
18.77

>  <SCORE.INTRA.POLAR>
0

>  <SCORE.INTRA.POLAR.0>
0

>  <SCORE.INTRA.REPUL>
0

>  <SCORE.INTRA.REPUL.0>
0

>  <SCORE.INTRA.SOLV>
-0.138415

>  <SCORE.INTRA.SOLV.lig_0>
-77.2465

>  <SCORE.INTRA.VDW>
5.88948

>  <SCORE.INTRA.VDW.0>
-4.16072

>  <SCORE.INTRA.norm>
0.194042

>  <SCORE.RESTR>
19.1332

>  <SCORE.RESTR.CAVITY>
19.1332

>  <SCORE.RESTR.norm>
0.6172

>  <SCORE.SYSTEM>
0

>  <SCORE.SYSTEM.CONST>
0

>  <SCORE.SYSTEM.DIHEDRAL>
0

>  <SCORE.SYSTEM.SOLV>
0

>  <SCORE.SYSTEM.norm>
0

>  <SCORE.heavy>
31

>  <SCORE.norm>
0.512699

>  <RMSD>
8.963

$$$$
ligand
 OpenBabel11021811493D
libRbt.so/2013.1/901 2013/11/27
 31 33  0  0  0  0  0  0  0  0999 V2000
   -1.7189  -13.4238  -17.1836 C   0  0  2  0  0  0  0  0  0  0  0  0
   -2.7023  -14.4205  -17.4937 O   0  0  0  0  0  0  0  0  0  0  0  0
   -6.8434  -14.2823  -18.5688 C   0  0  2  0  0  0  0  0  0  0  0  0
   -8.2555  -14.0680  -18.4780 N   0  0  0  0  0  0  0  0  0  0  0  0
   -7.7836  -11.3318  -19.3973 C   0  0  2  0  0  0  0  0  0  0  0  0
   -0.3265  -14.0494  -17.5466 C   0  0  2  0  0  0  0  0  0  0  0  0
   -0.3127  -14.4381  -18.9525 N   0  0  0  0  0  0  0  0  0  0  0  0
   -6.4125  -15.3175  -17.4594 C   0  0  0  0  0  0  0  0  0  0  0  0
   -7.8676  -10.6743  -20.8093 C   0  0  2  0  0  0  0  0  0  0  0  0
   -7.7886  -11.6883  -21.7964 O   0  0  0  0  0  0  0  0  0  0  0  0
   -0.0442  -15.2873  -16.6259 C   0  0  0  0  0  0  0  0  0  0  0  0
   -4.8451  -15.5608  -17.5663 C   0  0  2  0  0  0  0  0  0  0  0  0
   -4.4281  -16.5310  -16.5271 N   0  0  0  0  0  0  0  0  0  0  0  0
   -6.6412   -9.6653  -20.9292 C   0  0  1  0  0  0  0  0  0  0  0  0
   -6.6257   -9.0080  -22.2801 N   0  0  0  0  0  0  0  0  0  0  0  0
   -0.3375  -14.9478  -15.1359 C   0  0  0  0  0  0  0  0  0  0  0  0
   -4.0775  -14.1781  -17.3715 C   0  0  2  0  0  0  0  0  0  0  0  0
   -6.7763   -8.5205  -19.7785 C   0  0  1  0  0  0  0  0  0  0  0  0
   -7.9713   -7.7747  -19.9077 O   0  0  0  0  0  0  0  0  0  0  0  0
   -1.1220  -13.9111  -14.8049 C   0  0  2  0  0  0  0  0  0  0  0  0
   -1.7390  -13.0460  -15.7744 O   0  0  0  0  0  0  0  0  0  0  0  0
   -4.5556  -13.1533  -18.4836 C   0  0  2  0  0  0  0  0  0  0  0  0
   -3.8900  -11.8968  -18.3042 O   0  0  0  0  0  0  0  0  0  0  0  0
   -6.7909   -9.2035  -18.3694 C   0  0  0  0  0  0  0  0  0  0  0  0
   -7.8682  -10.2742  -18.3269 O   0  0  0  0  0  0  0  0  0  0  0  0
   -1.4231  -13.5562  -13.3301 C   0  0  0  0  0  0  0  0  0  0  0  0
   -0.9956  -12.1904  -13.0614 N   0  0  0  0  0  0  0  0  0  0  0  0
   -6.1061  -12.9257  -18.3658 C   0  0  1  0  0  0  0  0  0  0  0  0
   -6.4921  -12.0175  -19.3693 O   0  0  0  0  0  0  0  0  0  0  0  0
   -5.6599   -7.4634  -19.7546 C   0  0  0  0  0  0  0  0  0  0  0  0
   -7.9067   -8.4472  -22.7500 C   0  0  0  0  0  0  0  0  0  0  0  0
  1  2  1  1  0  0  0
  1  6  1  0  0  0  0
  1 21  1  0  0  0  0
  3  4  1  1  0  0  0
  3  8  1  0  0  0  0
  3 28  1  0  0  0  0
  5  9  1  0  0  0  0
  5 25  1  0  0  0  0
  5 29  1  6  0  0  0
  6  7  1  6  0  0  0
  6 11  1  0  0  0  0
  8 12  1  0  0  0  0
  9 10  1  6  0  0  0
  9 14  1  0  0  0  0
 11 16  1  0  0  0  0
 12 13  1  1  0  0  0
 12 17  1  0  0  0  0
 14 15  1  6  0  0  0
 14 18  1  0  0  0  0
 15 31  1  0  0  0  0
 16 20  1  0  0  0  0
 17  2  1  6  0  0  0
 17 22  1  0  0  0  0
 18 19  1  6  0  0  0
 18 24  1  0  0  0  0
 18 30  1  0  0  0  0
 20 21  1  0  0  0  0
 20 26  1  1  0  0  0
 22 23  1  1  0  0  0
 22 28  1  0  0  0  0
 24 25  1  0  0  0  0
 26 27  1  0  0  0  0
 28 29  1  6  0  0  0
M  END
>  <CHROM.1>
-176.02945441,-168.94206110,48.06356676,-170.91347034,121.83573812,75.02325458
-4.74425379,-12.31922108,-18.23077317,-0.68531804,-0.53819997,-0.22327179

>  <Name>
ligand

>  <RI>
0

>  <Rbt.Current_Directory>
/home/itssahil/PROJECTS/Mol_Feturizer/New_Systems/rnas/4F8U

>  <Rbt.Executable>
rbdock ($Id: //depot/dev/client3/rdock/2013.1/src/exe/rbdock.cxx#4 $)

>  <Rbt.Library>
libRbt.so (2013.1, Build901 2013/11/27)

>  <Rbt.Parameter_File>
/export/apps/rDock/src/rDock_2013.1_src/data/scripts/dock_solv.prm

>  <Rbt.Receptor>
prm/pocket_docking_7.prm

>  <SCORE>
-10.6643

>  <SCORE.INTER>
-4.92562

>  <SCORE.INTER.CONST>
1

>  <SCORE.INTER.POLAR>
0

>  <SCORE.INTER.ROT>
6

>  <SCORE.INTER.SOLV>
10.8658

>  <SCORE.INTER.VDW>
-14.5057

>  <SCORE.INTER.norm>
-0.158891

>  <SCORE.INTRA>
-5.73868

>  <SCORE.INTRA.DIHEDRAL>
-14.8468

>  <SCORE.INTRA.DIHEDRAL.0>
18.77

>  <SCORE.INTRA.POLAR>
0

>  <SCORE.INTRA.POLAR.0>
0

>  <SCORE.INTRA.REPUL>
0

>  <SCORE.INTRA.REPUL.0>
0

>  <SCORE.INTRA.SOLV>
-1.74207

>  <SCORE.INTRA.SOLV.lig_0>
-77.2465

>  <SCORE.INTRA.VDW>
2.55575

>  <SCORE.INTRA.VDW.0>
-4.16072

>  <SCORE.INTRA.norm>
-0.185119

>  <SCORE.RESTR>
0

>  <SCORE.RESTR.CAVITY>
0

>  <SCORE.RESTR.norm>
0

>  <SCORE.SYSTEM>
0

>  <SCORE.SYSTEM.CONST>
0

>  <SCORE.SYSTEM.DIHEDRAL>
0

>  <SCORE.SYSTEM.SOLV>
0

>  <SCORE.SYSTEM.norm>
0

>  <SCORE.heavy>
31

>  <SCORE.norm>
-0.344009

>  <RMSD>
8.968

$$$$
ligand
 OpenBabel11021811493D
libRbt.so/2013.1/901 2013/11/27
 31 33  0  0  0  0  0  0  0  0999 V2000
   -7.5625  -11.3761  -24.2743 C   0  0  2  0  0  0  0  0  0  0  0  0
   -6.3809  -11.5471  -23.4799 O   0  0  0  0  0  0  0  0  0  0  0  0
   -7.9264  -11.0960  -19.5136 C   0  0  2  0  0  0  0  0  0  0  0  0
   -7.9714  -10.9357  -18.0923 N   0  0  0  0  0  0  0  0  0  0  0  0
   -7.3093   -7.5723  -19.0969 C   0  0  2  0  0  0  0  0  0  0  0  0
   -7.0807  -11.2576  -25.7629 C   0  0  2  0  0  0  0  0  0  0  0  0
   -6.3203  -12.4470  -26.1305 N   0  0  0  0  0  0  0  0  0  0  0  0
   -7.1665  -12.4362  -19.8518 C   0  0  0  0  0  0  0  0  0  0  0  0
   -7.5000   -6.3264  -20.0159 C   0  0  2  0  0  0  0  0  0  0  0  0
   -8.8837   -6.1395  -20.2592 O   0  0  0  0  0  0  0  0  0  0  0  0
   -6.2087   -9.9657  -25.9376 C   0  0  0  0  0  0  0  0  0  0  0  0
   -7.1241  -12.6171  -21.4307 C   0  0  2  0  0  0  0  0  0  0  0  0
   -6.4106  -13.8730  -21.7607 N   0  0  0  0  0  0  0  0  0  0  0  0
   -6.7176   -6.6209  -21.3714 C   0  0  1  0  0  0  0  0  0  0  0  0
   -6.8768   -5.4785  -22.3342 N   0  0  0  0  0  0  0  0  0  0  0  0
   -6.9033   -8.7361  -25.2841 C   0  0  0  0  0  0  0  0  0  0  0  0
   -6.3821  -11.3704  -22.0894 C   0  0  2  0  0  0  0  0  0  0  0  0
   -5.1358   -6.8265  -21.0420 C   0  0  1  0  0  0  0  0  0  0  0  0
   -4.5629   -5.6787  -20.4460 O   0  0  0  0  0  0  0  0  0  0  0  0
   -7.8586   -8.8946  -24.3557 C   0  0  2  0  0  0  0  0  0  0  0  0
   -8.3125  -10.1814  -23.9008 O   0  0  0  0  0  0  0  0  0  0  0  0
   -7.1546  -10.0394  -21.7055 C   0  0  2  0  0  0  0  0  0  0  0  0
   -6.4826   -8.9074  -22.2721 O   0  0  0  0  0  0  0  0  0  0  0  0
   -4.9675   -8.0179  -20.0397 C   0  0  0  0  0  0  0  0  0  0  0  0
   -5.8444   -7.7927  -18.8195 O   0  0  0  0  0  0  0  0  0  0  0  0
   -8.5624   -7.6854  -23.6968 C   0  0  0  0  0  0  0  0  0  0  0  0
   -9.9733   -7.6881  -24.0569 N   0  0  0  0  0  0  0  0  0  0  0  0
   -7.1896   -9.8767  -20.1428 C   0  0  1  0  0  0  0  0  0  0  0  0
   -7.8856   -8.6909  -19.8422 O   0  0  0  0  0  0  0  0  0  0  0  0
   -4.2354   -7.1258  -22.2520 C   0  0  0  0  0  0  0  0  0  0  0  0
   -6.6197   -4.1289  -21.7970 C   0  0  0  0  0  0  0  0  0  0  0  0
  1  2  1  1  0  0  0
  1  6  1  0  0  0  0
  1 21  1  0  0  0  0
  3  4  1  1  0  0  0
  3  8  1  0  0  0  0
  3 28  1  0  0  0  0
  5  9  1  0  0  0  0
  5 25  1  0  0  0  0
  5 29  1  6  0  0  0
  6  7  1  1  0  0  0
  6 11  1  0  0  0  0
  8 12  1  0  0  0  0
  9 10  1  6  0  0  0
  9 14  1  0  0  0  0
 11 16  1  0  0  0  0
 12 13  1  1  0  0  0
 12 17  1  0  0  0  0
 14 15  1  6  0  0  0
 14 18  1  0  0  0  0
 15 31  1  0  0  0  0
 16 20  1  0  0  0  0
 17  2  1  6  0  0  0
 17 22  1  0  0  0  0
 18 19  1  1  0  0  0
 18 24  1  0  0  0  0
 18 30  1  0  0  0  0
 20 21  1  0  0  0  0
 20 26  1  6  0  0  0
 22 23  1  6  0  0  0
 22 28  1  0  0  0  0
 24 25  1  0  0  0  0
 26 27  1  0  0  0  0
 28 29  1  6  0  0  0
M  END
>  <CHROM.1>
164.42117282,125.16046204,49.00675188,73.52139810,115.36001871,119.97575834
-6.94406712,-9.03207604,-21.95680765,3.12273766,1.49624619,2.16931879

>  <Name>
ligand

>  <RI>
0

>  <Rbt.Current_Directory>
/home/itssahil/PROJECTS/Mol_Feturizer/New_Systems/rnas/4F8U

>  <Rbt.Executable>
rbdock ($Id: //depot/dev/client3/rdock/2013.1/src/exe/rbdock.cxx#4 $)

>  <Rbt.Library>
libRbt.so (2013.1, Build901 2013/11/27)

>  <Rbt.Parameter_File>
/export/apps/rDock/src/rDock_2013.1_src/data/scripts/dock_solv.prm

>  <Rbt.Receptor>
prm/blind_docking_40.prm

>  <SCORE>
56.5202

>  <SCORE.INTER>
38.7955

>  <SCORE.INTER.CONST>
1

>  <SCORE.INTER.POLAR>
0

>  <SCORE.INTER.ROT>
6

>  <SCORE.INTER.SOLV>
39.4188

>  <SCORE.INTER.VDW>
5.12403

>  <SCORE.INTER.norm>
1.25147

>  <SCORE.INTRA>
10.9557

>  <SCORE.INTRA.DIHEDRAL>
-0.699803

>  <SCORE.INTRA.DIHEDRAL.0>
18.77

>  <SCORE.INTRA.POLAR>
0

>  <SCORE.INTRA.POLAR.0>
0

>  <SCORE.INTRA.REPUL>
0

>  <SCORE.INTRA.REPUL.0>
0

>  <SCORE.INTRA.SOLV>
1.31467

>  <SCORE.INTRA.SOLV.lig_0>
-77.2465

>  <SCORE.INTRA.VDW>
10.6483

>  <SCORE.INTRA.VDW.0>
-4.16072

>  <SCORE.INTRA.norm>
0.35341

>  <SCORE.RESTR>
6.76902

>  <SCORE.RESTR.CAVITY>
6.76902

>  <SCORE.RESTR.norm>
0.218355

>  <SCORE.SYSTEM>
0

>  <SCORE.SYSTEM.CONST>
0

>  <SCORE.SYSTEM.DIHEDRAL>
0

>  <SCORE.SYSTEM.SOLV>
0

>  <SCORE.SYSTEM.norm>
0

>  <SCORE.heavy>
31

>  <SCORE.norm>
1.82323

>  <RMSD>
8.971

$$$$
ligand
 OpenBabel11021811493D
libRbt.so/2013.1/901 2013/11/27
 31 33  0  0  0  0  0  0  0  0999 V2000
   -5.1411  -12.5332  -11.3303 C   0  0  2  0  0  0  0  0  0  0  0  0
   -5.3841  -12.7236   -9.9298 O   0  0  0  0  0  0  0  0  0  0  0  0
   -9.5221  -11.7274   -9.4740 C   0  0  2  0  0  0  0  0  0  0  0  0
  -10.7520  -11.3095   -8.8733 N   0  0  0  0  0  0  0  0  0  0  0  0
   -8.1595   -8.2614  -10.3774 C   0  0  2  0  0  0  0  0  0  0  0  0
   -5.5111  -13.8876  -12.0308 C   0  0  2  0  0  0  0  0  0  0  0  0
   -6.8989  -14.2296  -11.7399 N   0  0  0  0  0  0  0  0  0  0  0  0
   -8.9918  -13.0042   -8.7147 C   0  0  0  0  0  0  0  0  0  0  0  0
   -9.1846   -7.1444  -10.7447 C   0  0  2  0  0  0  0  0  0  0  0  0
  -10.0415   -6.9221   -9.6379 O   0  0  0  0  0  0  0  0  0  0  0  0
   -4.5454  -15.0212  -11.5386 C   0  0  0  0  0  0  0  0  0  0  0  0
   -7.6297  -13.4721   -9.3878 C   0  0  2  0  0  0  0  0  0  0  0  0
   -7.1207  -14.6708   -8.6813 N   0  0  0  0  0  0  0  0  0  0  0  0
  -10.0065   -7.6607  -12.0073 C   0  0  1  0  0  0  0  0  0  0  0  0
  -11.0460   -6.6537  -12.4108 N   0  0  0  0  0  0  0  0  0  0  0  0
   -3.0646  -14.5452  -11.5825 C   0  0  0  0  0  0  0  0  0  0  0  0
   -6.5639  -12.2902   -9.3094 C   0  0  2  0  0  0  0  0  0  0  0  0
   -8.9820   -7.8999  -13.2508 C   0  0  1  0  0  0  0  0  0  0  0  0
   -8.3092   -6.7122  -13.6218 O   0  0  0  0  0  0  0  0  0  0  0  0
   -2.7591  -13.2392  -11.6120 C   0  0  2  0  0  0  0  0  0  0  0  0
   -3.7492  -12.1960  -11.6097 O   0  0  0  0  0  0  0  0  0  0  0  0
   -7.1409  -11.0154  -10.0561 C   0  0  2  0  0  0  0  0  0  0  0  0
   -6.2011   -9.9366   -9.9715 O   0  0  0  0  0  0  0  0  0  0  0  0
   -7.8986   -8.9505  -12.8327 C   0  0  0  0  0  0  0  0  0  0  0  0
   -7.2325   -8.5164  -11.5379 O   0  0  0  0  0  0  0  0  0  0  0  0
   -1.2939  -12.7466  -11.6586 C   0  0  0  0  0  0  0  0  0  0  0  0
   -1.1848  -11.6317  -12.5890 N   0  0  0  0  0  0  0  0  0  0  0  0
   -8.4872  -10.5674   -9.3806 C   0  0  1  0  0  0  0  0  0  0  0  0
   -8.9694   -9.4403  -10.0721 O   0  0  0  0  0  0  0  0  0  0  0  0
   -9.6213   -8.4070  -14.5541 C   0  0  0  0  0  0  0  0  0  0  0  0
  -10.5793   -5.2653  -12.5859 C   0  0  0  0  0  0  0  0  0  0  0  0
  1  2  1  1  0  0  0
  1  6  1  0  0  0  0
  1 21  1  0  0  0  0
  3  4  1  1  0  0  0
  3  8  1  0  0  0  0
  3 28  1  0  0  0  0
  5  9  1  0  0  0  0
  5 25  1  0  0  0  0
  5 29  1  6  0  0  0
  6  7  1  1  0  0  0
  6 11  1  0  0  0  0
  8 12  1  0  0  0  0
  9 10  1  1  0  0  0
  9 14  1  0  0  0  0
 11 16  1  0  0  0  0
 12 13  1  1  0  0  0
 12 17  1  0  0  0  0
 14 15  1  6  0  0  0
 14 18  1  0  0  0  0
 15 31  1  0  0  0  0
 16 20  1  0  0  0  0
 17  2  1  6  0  0  0
 17 22  1  0  0  0  0
 18 19  1  6  0  0  0
 18 24  1  0  0  0  0
 18 30  1  0  0  0  0
 20 21  1  0  0  0  0
 20 26  1  6  0  0  0
 22 23  1  1  0  0  0
 22 28  1  0  0  0  0
 24 25  1  0  0  0  0
 26 27  1  0  0  0  0
 28 29  1  6  0  0  0
M  END
>  <CHROM.1>
-98.20420641,-163.52591398,50.72322245,89.80280190,138.54043135,-169.14655912
-7.16133311,-10.67557573,-11.07832844,-0.71896290,0.45344250,-0.57791434

>  <Name>
ligand

>  <RI>
0

>  <Rbt.Current_Directory>
/home/itssahil/PROJECTS/Mol_Feturizer/New_Systems/rnas/4F8U

>  <Rbt.Executable>
rbdock ($Id: //depot/dev/client3/rdock/2013.1/src/exe/rbdock.cxx#4 $)

>  <Rbt.Library>
libRbt.so (2013.1, Build901 2013/11/27)

>  <Rbt.Parameter_File>
/export/apps/rDock/src/rDock_2013.1_src/data/scripts/dock_solv.prm

>  <Rbt.Receptor>
prm/blind_docking_20.prm

>  <SCORE>
38.8467

>  <SCORE.INTER>
24.8715

>  <SCORE.INTER.CONST>
1

>  <SCORE.INTER.POLAR>
0

>  <SCORE.INTER.ROT>
6

>  <SCORE.INTER.SOLV>
13.3928

>  <SCORE.INTER.VDW>
4.51675

>  <SCORE.INTER.norm>
0.802307

>  <SCORE.INTRA>
5.65125

>  <SCORE.INTRA.DIHEDRAL>
-6.1151

>  <SCORE.INTRA.DIHEDRAL.0>
18.77

>  <SCORE.INTRA.POLAR>
0

>  <SCORE.INTRA.POLAR.0>
0

>  <SCORE.INTRA.REPUL>
0

>  <SCORE.INTRA.REPUL.0>
0

>  <SCORE.INTRA.SOLV>
2.82121

>  <SCORE.INTRA.SOLV.lig_0>
-77.2465

>  <SCORE.INTRA.VDW>
7.29819

>  <SCORE.INTRA.VDW.0>
-4.16072

>  <SCORE.INTRA.norm>
0.182298

>  <SCORE.RESTR>
8.32397

>  <SCORE.RESTR.CAVITY>
8.32397

>  <SCORE.RESTR.norm>
0.268515

>  <SCORE.SYSTEM>
0

>  <SCORE.SYSTEM.CONST>
0

>  <SCORE.SYSTEM.DIHEDRAL>
0

>  <SCORE.SYSTEM.SOLV>
0

>  <SCORE.SYSTEM.norm>
0

>  <SCORE.heavy>
31

>  <SCORE.norm>
1.25312

>  <RMSD>
8.977

$$$$
ligand
 OpenBabel11021811493D
libRbt.so/2013.1/901 2013/11/27
 31 33  0  0  0  0  0  0  0  0999 V2000
   -6.7274  -11.7229  -16.8771 C   0  0  2  0  0  0  0  0  0  0  0  0
   -7.9338  -11.1409  -17.3895 O   0  0  0  0  0  0  0  0  0  0  0  0
   -6.8845  -10.5277  -21.4939 C   0  0  2  0  0  0  0  0  0  0  0  0
   -7.0003  -10.2054  -22.8835 N   0  0  0  0  0  0  0  0  0  0  0  0
   -6.2012   -7.6311  -22.2729 C   0  0  2  0  0  0  0  0  0  0  0  0
   -6.5629  -11.1818  -15.4136 C   0  0  2  0  0  0  0  0  0  0  0  0
   -7.7384  -11.5319  -14.6240 N   0  0  0  0  0  0  0  0  0  0  0  0
   -7.8674  -11.7160  -21.1625 C   0  0  0  0  0  0  0  0  0  0  0  0
   -5.0552   -6.5829  -22.1280 C   0  0  2  0  0  0  0  0  0  0  0  0
   -3.8731   -7.2456  -21.7130 O   0  0  0  0  0  0  0  0  0  0  0  0
   -6.3568   -9.6272  -15.4422 C   0  0  0  0  0  0  0  0  0  0  0  0
   -7.7321  -12.0783  -19.6205 C   0  0  2  0  0  0  0  0  0  0  0  0
   -8.6528  -13.1932  -19.2968 N   0  0  0  0  0  0  0  0  0  0  0  0
   -5.5267   -5.5220  -21.0378 C   0  0  1  0  0  0  0  0  0  0  0  0
   -4.4615   -4.4873  -20.8099 N   0  0  0  0  0  0  0  0  0  0  0  0
   -5.2900   -9.2294  -16.5030 C   0  0  0  0  0  0  0  0  0  0  0  0
   -8.0840  -10.7976  -18.7402 C   0  0  2  0  0  0  0  0  0  0  0  0
   -6.8838   -4.7873  -21.5586 C   0  0  1  0  0  0  0  0  0  0  0  0
   -6.6824   -4.1011  -22.7791 O   0  0  0  0  0  0  0  0  0  0  0  0
   -4.9655  -10.0628  -17.5029 C   0  0  2  0  0  0  0  0  0  0  0  0
   -5.5581  -11.3625  -17.6720 O   0  0  0  0  0  0  0  0  0  0  0  0
   -7.0972   -9.6152  -19.1194 C   0  0  2  0  0  0  0  0  0  0  0  0
   -7.4193   -8.4489  -18.3513 O   0  0  0  0  0  0  0  0  0  0  0  0
   -7.9960   -5.8640  -21.7953 C   0  0  0  0  0  0  0  0  0  0  0  0
   -7.4716   -6.9525  -22.7168 O   0  0  0  0  0  0  0  0  0  0  0  0
   -3.9062   -9.6867  -18.5650 C   0  0  0  0  0  0  0  0  0  0  0  0
   -2.5772   -9.9994  -18.0586 N   0  0  0  0  0  0  0  0  0  0  0  0
   -7.2415   -9.2711  -20.6460 C   0  0  1  0  0  0  0  0  0  0  0  0
   -6.3491   -8.2244  -20.9444 O   0  0  0  0  0  0  0  0  0  0  0  0
   -7.4755   -3.7298  -20.6120 C   0  0  0  0  0  0  0  0  0  0  0  0
   -4.5278   -3.7495  -19.5341 C   0  0  0  0  0  0  0  0  0  0  0  0
  1  2  1  6  0  0  0
  1  6  1  0  0  0  0
  1 21  1  0  0  0  0
  3  4  1  6  0  0  0
  3  8  1  0  0  0  0
  3 28  1  0  0  0  0
  5  9  1  0  0  0  0
  5 25  1  0  0  0  0
  5 29  1  1  0  0  0
  6  7  1  1  0  0  0
  6 11  1  0  0  0  0
  8 12  1  0  0  0  0
  9 10  1  1  0  0  0
  9 14  1  0  0  0  0
 11 16  1  0  0  0  0
 12 13  1  1  0  0  0
 12 17  1  0  0  0  0
 14 15  1  6  0  0  0
 14 18  1  0  0  0  0
 15 31  1  0  0  0  0
 16 20  1  0  0  0  0
 17  2  1  1  0  0  0
 17 22  1  0  0  0  0
 18 19  1  6  0  0  0
 18 24  1  0  0  0  0
 18 30  1  0  0  0  0
 20 21  1  0  0  0  0
 20 26  1  1  0  0  0
 22 23  1  1  0  0  0
 22 28  1  0  0  0  0
 24 25  1  0  0  0  0
 26 27  1  0  0  0  0
 28 29  1  6  0  0  0
M  END
>  <CHROM.1>
146.33500010,-176.87518018,-158.82420748,53.22357971,84.20271847,60.86463494
-6.38468995,-8.67653046,-19.60389871,-1.76267114,-1.01645324,-0.79587661

>  <Name>
ligand

>  <RI>
0

>  <Rbt.Current_Directory>
/home/itssahil/PROJECTS/Mol_Feturizer/New_Systems/rnas/4F8U

>  <Rbt.Executable>
rbdock ($Id: //depot/dev/client3/rdock/2013.1/src/exe/rbdock.cxx#4 $)

>  <Rbt.Library>
libRbt.so (2013.1, Build901 2013/11/27)

>  <Rbt.Parameter_File>
/export/apps/rDock/src/rDock_2013.1_src/data/scripts/dock_solv.prm

>  <Rbt.Receptor>
prm/blind_docking_60.prm

>  <SCORE>
17.0439

>  <SCORE.INTER>
-2.60668

>  <SCORE.INTER.CONST>
1

>  <SCORE.INTER.POLAR>
0

>  <SCORE.INTER.ROT>
6

>  <SCORE.INTER.SOLV>
20.9222

>  <SCORE.INTER.VDW>
-16.3119

>  <SCORE.INTER.norm>
-0.0840865

>  <SCORE.INTRA>
-1.12813

>  <SCORE.INTRA.DIHEDRAL>
-10.9417

>  <SCORE.INTRA.DIHEDRAL.0>
18.77

>  <SCORE.INTRA.POLAR>
0

>  <SCORE.INTRA.POLAR.0>
0

>  <SCORE.INTRA.REPUL>
0

>  <SCORE.INTRA.REPUL.0>
0

>  <SCORE.INTRA.SOLV>
-0.192716

>  <SCORE.INTRA.SOLV.lig_0>
-77.2465

>  <SCORE.INTRA.VDW>
4.43909

>  <SCORE.INTRA.VDW.0>
-4.16072

>  <SCORE.INTRA.norm>
-0.0363914

>  <SCORE.RESTR>
20.7787

>  <SCORE.RESTR.CAVITY>
20.7787

>  <SCORE.RESTR.norm>
0.670282

>  <SCORE.SYSTEM>
0

>  <SCORE.SYSTEM.CONST>
0

>  <SCORE.SYSTEM.DIHEDRAL>
0

>  <SCORE.SYSTEM.SOLV>
0

>  <SCORE.SYSTEM.norm>
0

>  <SCORE.heavy>
31

>  <SCORE.norm>
0.549804

>  <RMSD>
8.995

$$$$
ligand
 OpenBabel11021811493D
libRbt.so/2013.1/901 2013/11/27
 31 33  0  0  0  0  0  0  0  0999 V2000
   -5.7641  -12.1702  -19.7836 C   0  0  2  0  0  0  0  0  0  0  0  0
   -7.1876  -12.0516  -19.9101 O   0  0  0  0  0  0  0  0  0  0  0  0
   -7.5126   -8.6440  -22.4803 C   0  0  2  0  0  0  0  0  0  0  0  0
   -8.0840   -7.6357  -23.3199 N   0  0  0  0  0  0  0  0  0  0  0  0
   -6.6362   -6.9705  -19.7336 C   0  0  2  0  0  0  0  0  0  0  0  0
   -5.5061  -13.3687  -18.8042 C   0  0  2  0  0  0  0  0  0  0  0  0
   -6.1288  -14.5780  -19.3310 N   0  0  0  0  0  0  0  0  0  0  0  0
   -7.8157  -10.0601  -23.1054 C   0  0  0  0  0  0  0  0  0  0  0  0
   -6.1157   -5.6116  -20.2954 C   0  0  2  0  0  0  0  0  0  0  0  0
   -7.1156   -4.6236  -20.1141 O   0  0  0  0  0  0  0  0  0  0  0  0
   -6.0749  -13.0254  -17.3835 C   0  0  0  0  0  0  0  0  0  0  0  0
   -7.1736  -11.1788  -22.1761 C   0  0  2  0  0  0  0  0  0  0  0  0
   -7.4535  -12.5145  -22.7529 N   0  0  0  0  0  0  0  0  0  0  0  0
   -5.8064   -5.8326  -21.8420 C   0  0  1  0  0  0  0  0  0  0  0  0
   -5.3283   -4.5564  -22.4745 N   0  0  0  0  0  0  0  0  0  0  0  0
   -5.6359  -11.5997  -16.9407 C   0  0  0  0  0  0  0  0  0  0  0  0
   -7.7884  -11.0699  -20.7102 C   0  0  2  0  0  0  0  0  0  0  0  0
   -4.6537   -6.9724  -21.9993 C   0  0  1  0  0  0  0  0  0  0  0  0
   -3.4477   -6.6011  -21.3601 O   0  0  0  0  0  0  0  0  0  0  0  0
   -5.2245  -10.6929  -17.8398 C   0  0  2  0  0  0  0  0  0  0  0  0
   -5.1527  -10.9567  -19.2519 O   0  0  0  0  0  0  0  0  0  0  0  0
   -7.4912   -9.6263  -20.1243 C   0  0  2  0  0  0  0  0  0  0  0  0
   -8.0608   -9.5072  -18.8145 O   0  0  0  0  0  0  0  0  0  0  0  0
   -5.1508   -8.3040  -21.3420 C   0  0  0  0  0  0  0  0  0  0  0  0
   -5.5895   -8.0402  -19.9114 O   0  0  0  0  0  0  0  0  0  0  0  0
   -4.7818   -9.2721  -17.4192 C   0  0  0  0  0  0  0  0  0  0  0  0
   -3.4434   -9.0087  -17.9288 N   0  0  0  0  0  0  0  0  0  0  0  0
   -8.1300   -8.5328  -21.0549 C   0  0  1  0  0  0  0  0  0  0  0  0
   -7.8412   -7.2692  -20.5065 O   0  0  0  0  0  0  0  0  0  0  0  0
   -4.2406   -7.3094  -23.4416 C   0  0  0  0  0  0  0  0  0  0  0  0
   -6.3560   -3.5317  -22.7390 C   0  0  0  0  0  0  0  0  0  0  0  0
  1  2  1  1  0  0  0
  1  6  1  0  0  0  0
  1 21  1  0  0  0  0
  3  4  1  6  0  0  0
  3  8  1  0  0  0  0
  3 28  1  0  0  0  0
  5  9  1  0  0  0  0
  5 25  1  0  0  0  0
  5 29  1  6  0  0  0
  6  7  1  6  0  0  0
  6 11  1  0  0  0  0
  8 12  1  0  0  0  0
  9 10  1  6  0  0  0
  9 14  1  0  0  0  0
 11 16  1  0  0  0  0
 12 13  1  6  0  0  0
 12 17  1  0  0  0  0
 14 15  1  1  0  0  0
 14 18  1  0  0  0  0
 15 31  1  0  0  0  0
 16 20  1  0  0  0  0
 17  2  1  1  0  0  0
 17 22  1  0  0  0  0
 18 19  1  1  0  0  0
 18 24  1  0  0  0  0
 18 30  1  0  0  0  0
 20 21  1  0  0  0  0
 20 26  1  1  0  0  0
 22 23  1  1  0  0  0
 22 28  1  0  0  0  0
 24 25  1  0  0  0  0
 26 27  1  0  0  0  0
 28 29  1  1  0  0  0
M  END
>  <CHROM.1>
179.60850736,134.76389248,-75.20884144,53.85021804,125.27072169,-88.69193247
-6.21182985,-9.03189585,-20.47047489,1.60915357,0.99082074,2.70334458

>  <Name>
ligand

>  <RI>
0

>  <Rbt.Current_Directory>
/home/itssahil/PROJECTS/Mol_Feturizer/New_Systems/rnas/4F8U

>  <Rbt.Executable>
rbdock ($Id: //depot/dev/client3/rdock/2013.1/src/exe/rbdock.cxx#4 $)

>  <Rbt.Library>
libRbt.so (2013.1, Build901 2013/11/27)

>  <Rbt.Parameter_File>
/export/apps/rDock/src/rDock_2013.1_src/data/scripts/dock_solv.prm

>  <Rbt.Receptor>
prm/blind_docking_60.prm

>  <SCORE>
36.2018

>  <SCORE.INTER>
10.591

>  <SCORE.INTER.CONST>
1

>  <SCORE.INTER.POLAR>
0

>  <SCORE.INTER.ROT>
6

>  <SCORE.INTER.SOLV>
27.2141

>  <SCORE.INTER.VDW>
-9.61073

>  <SCORE.INTER.norm>
0.341644

>  <SCORE.INTRA>
7.43138

>  <SCORE.INTRA.DIHEDRAL>
-7.15714

>  <SCORE.INTRA.DIHEDRAL.0>
18.77

>  <SCORE.INTRA.POLAR>
0

>  <SCORE.INTRA.POLAR.0>
0

>  <SCORE.INTRA.REPUL>
0.227943

>  <SCORE.INTRA.REPUL.0>
0

>  <SCORE.INTRA.SOLV>
4.07495

>  <SCORE.INTRA.SOLV.lig_0>
-77.2465

>  <SCORE.INTRA.VDW>
7.83276

>  <SCORE.INTRA.VDW.0>
-4.16072

>  <SCORE.INTRA.norm>
0.239722

>  <SCORE.RESTR>
18.1795

>  <SCORE.RESTR.CAVITY>
18.1795

>  <SCORE.RESTR.norm>
0.586434

>  <SCORE.SYSTEM>
0

>  <SCORE.SYSTEM.CONST>
0

>  <SCORE.SYSTEM.DIHEDRAL>
0

>  <SCORE.SYSTEM.SOLV>
0

>  <SCORE.SYSTEM.norm>
0

>  <SCORE.heavy>
31

>  <SCORE.norm>
1.1678

>  <RMSD>
9.017

$$$$
ligand
 OpenBabel11021811493D
libRbt.so/2013.1/901 2013/11/27
 31 33  0  0  0  0  0  0  0  0999 V2000
   -8.4267   -9.5987  -14.6225 C   0  0  2  0  0  0  0  0  0  0  0  0
   -8.2456   -9.0039  -15.9147 O   0  0  0  0  0  0  0  0  0  0  0  0
   -4.5914   -9.0434  -18.1438 C   0  0  2  0  0  0  0  0  0  0  0  0
   -3.5597   -9.4731  -19.0376 N   0  0  0  0  0  0  0  0  0  0  0  0
   -6.8602   -7.2691  -20.6610 C   0  0  2  0  0  0  0  0  0  0  0  0
   -9.9561   -9.9258  -14.4972 C   0  0  2  0  0  0  0  0  0  0  0  0
  -10.3620  -10.8072  -15.5863 N   0  0  0  0  0  0  0  0  0  0  0  0
   -4.7634  -10.1230  -17.0068 C   0  0  0  0  0  0  0  0  0  0  0  0
   -6.5775   -7.5445  -22.1701 C   0  0  2  0  0  0  0  0  0  0  0  0
   -6.5386   -8.9450  -22.3845 O   0  0  0  0  0  0  0  0  0  0  0  0
  -10.7872   -8.5960  -14.5205 C   0  0  0  0  0  0  0  0  0  0  0  0
   -5.9042   -9.6407  -16.0102 C   0  0  2  0  0  0  0  0  0  0  0  0
   -6.0760  -10.6487  -14.9380 N   0  0  0  0  0  0  0  0  0  0  0  0
   -5.1731   -6.8762  -22.5124 C   0  0  1  0  0  0  0  0  0  0  0  0
   -4.8044   -7.1232  -23.9478 N   0  0  0  0  0  0  0  0  0  0  0  0
  -10.1738   -7.5423  -13.5536 C   0  0  0  0  0  0  0  0  0  0  0  0
   -7.2670   -9.4505  -16.8135 C   0  0  2  0  0  0  0  0  0  0  0  0
   -5.2672   -5.2710  -22.2527 C   0  0  1  0  0  0  0  0  0  0  0  0
   -6.2527   -4.6582  -23.0615 O   0  0  0  0  0  0  0  0  0  0  0  0
   -8.9017   -7.6424  -13.1395 C   0  0  2  0  0  0  0  0  0  0  0  0
   -8.0215   -8.7067  -13.5410 O   0  0  0  0  0  0  0  0  0  0  0  0
   -7.0504   -8.3819  -17.9653 C   0  0  2  0  0  0  0  0  0  0  0  0
   -8.2633   -8.2197  -18.7114 O   0  0  0  0  0  0  0  0  0  0  0  0
   -5.6499   -5.0113  -20.7566 C   0  0  0  0  0  0  0  0  0  0  0  0
   -6.9097   -5.7847  -20.4052 O   0  0  0  0  0  0  0  0  0  0  0  0
   -8.2750   -6.6070  -12.1768 C   0  0  0  0  0  0  0  0  0  0  0  0
   -8.6164   -6.9506  -10.8035 N   0  0  0  0  0  0  0  0  0  0  0  0
   -5.9190   -8.8721  -18.9397 C   0  0  1  0  0  0  0  0  0  0  0  0
   -5.7529   -7.8980  -19.9419 O   0  0  0  0  0  0  0  0  0  0  0  0
   -3.9833   -4.4730  -22.5339 C   0  0  0  0  0  0  0  0  0  0  0  0
   -3.3650   -7.2620  -24.2395 C   0  0  0  0  0  0  0  0  0  0  0  0
  1  2  1  6  0  0  0
  1  6  1  0  0  0  0
  1 21  1  0  0  0  0
  3  4  1  6  0  0  0
  3  8  1  0  0  0  0
  3 28  1  0  0  0  0
  5  9  1  0  0  0  0
  5 25  1  0  0  0  0
  5 29  1  1  0  0  0
  6  7  1  6  0  0  0
  6 11  1  0  0  0  0
  8 12  1  0  0  0  0
  9 10  1  1  0  0  0
  9 14  1  0  0  0  0
 11 16  1  0  0  0  0
 12 13  1  1  0  0  0
 12 17  1  0  0  0  0
 14 15  1  6  0  0  0
 14 18  1  0  0  0  0
 15 31  1  0  0  0  0
 16 20  1  0  0  0  0
 17  2  1  1  0  0  0
 17 22  1  0  0  0  0
 18 19  1  6  0  0  0
 18 24  1  0  0  0  0
 18 30  1  0  0  0  0
 20 21  1  0  0  0  0
 20 26  1  1  0  0  0
 22 23  1  6  0  0  0
 22 28  1  0  0  0  0
 24 25  1  0  0  0  0
 26 27  1  0  0  0  0
 28 29  1  6  0  0  0
M  END
>  <CHROM.1>
-129.39748151,-123.47634085,-147.46942250,-45.58174715,83.57883293,-165.22026586
-6.84716232,-7.95473666,-18.13663356,-2.23803397,0.91761983,-0.77593243

>  <Name>
ligand

>  <RI>
0

>  <Rbt.Current_Directory>
/home/itssahil/PROJECTS/Mol_Feturizer/New_Systems/rnas/4F8U

>  <Rbt.Executable>
rbdock ($Id: //depot/dev/client3/rdock/2013.1/src/exe/rbdock.cxx#4 $)

>  <Rbt.Library>
libRbt.so (2013.1, Build901 2013/11/27)

>  <Rbt.Parameter_File>
/export/apps/rDock/src/rDock_2013.1_src/data/scripts/dock_solv.prm

>  <Rbt.Receptor>
prm/blind_docking_80.prm

>  <SCORE>
18.8911

>  <SCORE.INTER>
3.53537

>  <SCORE.INTER.CONST>
1

>  <SCORE.INTER.POLAR>
0

>  <SCORE.INTER.ROT>
6

>  <SCORE.INTER.SOLV>
23.0976

>  <SCORE.INTER.VDW>
-12.9423

>  <SCORE.INTER.norm>
0.114044

>  <SCORE.INTRA>
4.40512

>  <SCORE.INTRA.DIHEDRAL>
0.784984

>  <SCORE.INTRA.DIHEDRAL.0>
18.77

>  <SCORE.INTRA.POLAR>
0

>  <SCORE.INTRA.POLAR.0>
0

>  <SCORE.INTRA.REPUL>
0

>  <SCORE.INTRA.REPUL.0>
0

>  <SCORE.INTRA.SOLV>
-1.24371

>  <SCORE.INTRA.SOLV.lig_0>
-77.2465

>  <SCORE.INTRA.VDW>
4.63448

>  <SCORE.INTRA.VDW.0>
-4.16072

>  <SCORE.INTRA.norm>
0.142101

>  <SCORE.RESTR>
10.9506

>  <SCORE.RESTR.CAVITY>
10.9506

>  <SCORE.RESTR.norm>
0.353245

>  <SCORE.SYSTEM>
0

>  <SCORE.SYSTEM.CONST>
0

>  <SCORE.SYSTEM.DIHEDRAL>
0

>  <SCORE.SYSTEM.SOLV>
0

>  <SCORE.SYSTEM.norm>
0

>  <SCORE.heavy>
31

>  <SCORE.norm>
0.60939

>  <RMSD>
9.063

$$$$
ligand
 OpenBabel11021811493D
libRbt.so/2013.1/901 2013/11/27
 31 33  0  0  0  0  0  0  0  0999 V2000
   -5.6714  -11.4816  -17.2376 C   0  0  2  0  0  0  0  0  0  0  0  0
   -7.0561  -11.3954  -17.6007 O   0  0  0  0  0  0  0  0  0  0  0  0
   -6.8264  -11.4331  -21.8749 C   0  0  2  0  0  0  0  0  0  0  0  0
   -7.2213  -11.5233  -23.2475 N   0  0  0  0  0  0  0  0  0  0  0  0
   -8.1590   -7.9140  -22.0096 C   0  0  2  0  0  0  0  0  0  0  0  0
   -5.5195  -10.6983  -15.8865 C   0  0  2  0  0  0  0  0  0  0  0  0
   -6.4040  -11.2756  -14.8805 N   0  0  0  0  0  0  0  0  0  0  0  0
   -7.1814  -12.7893  -21.1520 C   0  0  0  0  0  0  0  0  0  0  0  0
   -7.5009   -6.9962  -23.0856 C   0  0  2  0  0  0  0  0  0  0  0  0
   -7.3552   -7.7284  -24.2904 O   0  0  0  0  0  0  0  0  0  0  0  0
   -5.8504   -9.1819  -16.1118 C   0  0  0  0  0  0  0  0  0  0  0  0
   -6.7350  -12.6908  -19.6294 C   0  0  2  0  0  0  0  0  0  0  0  0
   -7.0652  -13.9595  -18.9392 N   0  0  0  0  0  0  0  0  0  0  0  0
   -6.0828   -6.5491  -22.5152 C   0  0  1  0  0  0  0  0  0  0  0  0
   -5.3609   -5.6834  -23.5086 N   0  0  0  0  0  0  0  0  0  0  0  0
   -5.1166   -8.6358  -17.3707 C   0  0  0  0  0  0  0  0  0  0  0  0
   -7.4864  -11.4707  -18.9326 C   0  0  2  0  0  0  0  0  0  0  0  0
   -6.3013   -5.7121  -21.1352 C   0  0  1  0  0  0  0  0  0  0  0  0
   -7.0792   -4.5480  -21.3365 O   0  0  0  0  0  0  0  0  0  0  0  0
   -4.6570   -9.4675  -18.3176 C   0  0  2  0  0  0  0  0  0  0  0  0
   -4.7967  -10.8974  -18.2489 O   0  0  0  0  0  0  0  0  0  0  0  0
   -7.1310  -10.1297  -19.7013 C   0  0  2  0  0  0  0  0  0  0  0  0
   -7.8206   -9.0272  -19.0987 O   0  0  0  0  0  0  0  0  0  0  0  0
   -7.0522   -6.6133  -20.0977 C   0  0  0  0  0  0  0  0  0  0  0  0
   -8.3284   -7.1580  -20.7168 O   0  0  0  0  0  0  0  0  0  0  0  0
   -3.9231   -8.9444  -19.5744 C   0  0  0  0  0  0  0  0  0  0  0  0
   -4.8881   -8.3529  -20.4905 N   0  0  0  0  0  0  0  0  0  0  0  0
   -7.5761  -10.2442  -21.2041 C   0  0  1  0  0  0  0  0  0  0  0  0
   -7.2402   -9.0409  -21.8524 O   0  0  0  0  0  0  0  0  0  0  0  0
   -5.0201   -5.2089  -20.4498 C   0  0  0  0  0  0  0  0  0  0  0  0
   -3.8870   -5.7298  -23.4681 C   0  0  0  0  0  0  0  0  0  0  0  0
  1  2  1  6  0  0  0
  1  6  1  0  0  0  0
  1 21  1  0  0  0  0
  3  4  1  6  0  0  0
  3  8  1  0  0  0  0
  3 28  1  0  0  0  0
  5  9  1  0  0  0  0
  5 25  1  0  0  0  0
  5 29  1  1  0  0  0
  6  7  1  1  0  0  0
  6 11  1  0  0  0  0
  8 12  1  0  0  0  0
  9 10  1  6  0  0  0
  9 14  1  0  0  0  0
 11 16  1  0  0  0  0
 12 13  1  1  0  0  0
 12 17  1  0  0  0  0
 14 15  1  6  0  0  0
 14 18  1  0  0  0  0
 15 31  1  0  0  0  0
 16 20  1  0  0  0  0
 17  2  1  1  0  0  0
 17 22  1  0  0  0  0
 18 19  1  6  0  0  0
 18 24  1  0  0  0  0
 18 30  1  0  0  0  0
 20 21  1  0  0  0  0
 20 26  1  1  0  0  0
 22 23  1  1  0  0  0
 22 28  1  0  0  0  0
 24 25  1  0  0  0  0
 26 27  1  0  0  0  0
 28 29  1  6  0  0  0
M  END
>  <CHROM.1>
153.23034093,-165.45643655,-151.10397220,46.09661022,-74.75373244,147.05451026
-6.40332343,-9.07254922,-20.14415081,-1.55897799,-1.19546313,-0.73841577

>  <Name>
ligand

>  <RI>
0

>  <Rbt.Current_Directory>
/home/itssahil/PROJECTS/Mol_Feturizer/New_Systems/rnas/4F8U

>  <Rbt.Executable>
rbdock ($Id: //depot/dev/client3/rdock/2013.1/src/exe/rbdock.cxx#4 $)

>  <Rbt.Library>
libRbt.so (2013.1, Build901 2013/11/27)

>  <Rbt.Parameter_File>
/export/apps/rDock/src/rDock_2013.1_src/data/scripts/dock_solv.prm

>  <Rbt.Receptor>
prm/blind_docking_60.prm

>  <SCORE>
20.4917

>  <SCORE.INTER>
-0.942711

>  <SCORE.INTER.CONST>
1

>  <SCORE.INTER.POLAR>
0

>  <SCORE.INTER.ROT>
6

>  <SCORE.INTER.SOLV>
21.1442

>  <SCORE.INTER.VDW>
-15.2765

>  <SCORE.INTER.norm>
-0.03041

>  <SCORE.INTRA>
3.17564

>  <SCORE.INTRA.DIHEDRAL>
-5.82301

>  <SCORE.INTRA.DIHEDRAL.0>
18.77

>  <SCORE.INTRA.POLAR>
0

>  <SCORE.INTRA.POLAR.0>
0

>  <SCORE.INTRA.REPUL>
0.17669

>  <SCORE.INTRA.REPUL.0>
0

>  <SCORE.INTRA.SOLV>
7.53539

>  <SCORE.INTRA.SOLV.lig_0>
-77.2465

>  <SCORE.INTRA.VDW>
1.43601

>  <SCORE.INTRA.VDW.0>
-4.16072

>  <SCORE.INTRA.norm>
0.10244

>  <SCORE.RESTR>
18.2587

>  <SCORE.RESTR.CAVITY>
18.2587

>  <SCORE.RESTR.norm>
0.588992

>  <SCORE.SYSTEM>
0

>  <SCORE.SYSTEM.CONST>
0

>  <SCORE.SYSTEM.DIHEDRAL>
0

>  <SCORE.SYSTEM.SOLV>
0

>  <SCORE.SYSTEM.norm>
0

>  <SCORE.heavy>
31

>  <SCORE.norm>
0.661022

>  <RMSD>
9.069

$$$$
ligand
 OpenBabel11021811493D
libRbt.so/2013.1/901 2013/11/27
 31 33  0  0  0  0  0  0  0  0999 V2000
   -6.3432  -11.6416  -17.0737 C   0  0  2  0  0  0  0  0  0  0  0  0
   -7.6633  -11.3853  -17.5719 O   0  0  0  0  0  0  0  0  0  0  0  0
   -7.0906  -11.9275  -21.7793 C   0  0  2  0  0  0  0  0  0  0  0  0
   -7.3789  -12.0711  -23.1736 N   0  0  0  0  0  0  0  0  0  0  0  0
   -7.6098   -8.3908  -22.6425 C   0  0  2  0  0  0  0  0  0  0  0  0
   -6.2616  -10.9547  -15.6653 C   0  0  2  0  0  0  0  0  0  0  0  0
   -7.3061  -11.4864  -14.7968 N   0  0  0  0  0  0  0  0  0  0  0  0
   -7.8148  -13.0835  -20.9872 C   0  0  0  0  0  0  0  0  0  0  0  0
   -6.4929   -7.6224  -23.4142 C   0  0  2  0  0  0  0  0  0  0  0  0
   -5.9057   -8.4939  -24.3653 O   0  0  0  0  0  0  0  0  0  0  0  0
   -6.4085   -9.4012  -15.8229 C   0  0  0  0  0  0  0  0  0  0  0  0
   -7.4873  -12.9276  -19.4393 C   0  0  2  0  0  0  0  0  0  0  0  0
   -8.1641  -14.0079  -18.6844 N   0  0  0  0  0  0  0  0  0  0  0  0
   -5.4204   -7.1491  -22.3363 C   0  0  1  0  0  0  0  0  0  0  0  0
   -4.2847   -6.4245  -23.0014 N   0  0  0  0  0  0  0  0  0  0  0  0
   -5.4885   -8.8703  -16.9600 C   0  0  0  0  0  0  0  0  0  0  0  0
   -7.9858  -11.5021  -18.9311 C   0  0  2  0  0  0  0  0  0  0  0  0
   -6.1398   -6.1512  -21.2688 C   0  0  1  0  0  0  0  0  0  0  0  0
   -6.6717   -4.9986  -21.8929 O   0  0  0  0  0  0  0  0  0  0  0  0
   -5.0150   -9.6940  -17.9071 C   0  0  2  0  0  0  0  0  0  0  0  0
   -5.3071  -11.1018  -17.9479 O   0  0  0  0  0  0  0  0  0  0  0  0
   -7.2609  -10.3658  -19.7672 C   0  0  2  0  0  0  0  0  0  0  0  0
   -7.7193   -9.0783  -19.3358 O   0  0  0  0  0  0  0  0  0  0  0  0
   -7.3230   -6.9051  -20.5731 C   0  0  0  0  0  0  0  0  0  0  0  0
   -8.2539   -7.4849  -21.6248 O   0  0  0  0  0  0  0  0  0  0  0  0
   -4.0973   -9.1860  -19.0435 C   0  0  0  0  0  0  0  0  0  0  0  0
   -2.7449   -9.6847  -18.8365 N   0  0  0  0  0  0  0  0  0  0  0  0
   -7.5926  -10.5354  -21.2939 C   0  0  1  0  0  0  0  0  0  0  0  0
   -6.9292   -9.5153  -22.0013 O   0  0  0  0  0  0  0  0  0  0  0  0
   -5.2354   -5.6050  -20.1515 C   0  0  0  0  0  0  0  0  0  0  0  0
   -4.6421   -5.2284  -23.7875 C   0  0  0  0  0  0  0  0  0  0  0  0
  1  2  1  6  0  0  0
  1  6  1  0  0  0  0
  1 21  1  0  0  0  0
  3  4  1  6  0  0  0
  3  8  1  0  0  0  0
  3 28  1  0  0  0  0
  5  9  1  0  0  0  0
  5 25  1  0  0  0  0
  5 29  1  1  0  0  0
  6  7  1  1  0  0  0
  6 11  1  0  0  0  0
  8 12  1  0  0  0  0
  9 10  1  6  0  0  0
  9 14  1  0  0  0  0
 11 16  1  0  0  0  0
 12 13  1  1  0  0  0
 12 17  1  0  0  0  0
 14 15  1  6  0  0  0
 14 18  1  0  0  0  0
 15 31  1  0  0  0  0
 16 20  1  0  0  0  0
 17  2  1  1  0  0  0
 17 22  1  0  0  0  0
 18 19  1  6  0  0  0
 18 24  1  0  0  0  0
 18 30  1  0  0  0  0
 20 21  1  0  0  0  0
 20 26  1  1  0  0  0
 22 23  1  1  0  0  0
 22 28  1  0  0  0  0
 24 25  1  0  0  0  0
 26 27  1  0  0  0  0
 28 29  1  6  0  0  0
M  END
>  <CHROM.1>
161.27549020,-174.26481187,58.39892446,51.19284888,109.06644902,130.92129585
-6.45397964,-9.40524952,-20.09069901,-1.87206622,-1.12156389,-1.09037903

>  <Name>
ligand

>  <RI>
0

>  <Rbt.Current_Directory>
/home/itssahil/PROJECTS/Mol_Feturizer/New_Systems/rnas/4F8U

>  <Rbt.Executable>
rbdock ($Id: //depot/dev/client3/rdock/2013.1/src/exe/rbdock.cxx#4 $)

>  <Rbt.Library>
libRbt.so (2013.1, Build901 2013/11/27)

>  <Rbt.Parameter_File>
/export/apps/rDock/src/rDock_2013.1_src/data/scripts/dock_solv.prm

>  <Rbt.Receptor>
prm/blind_docking_60.prm

>  <SCORE>
20.0992

>  <SCORE.INTER>
-0.388776

>  <SCORE.INTER.CONST>
1

>  <SCORE.INTER.POLAR>
0

>  <SCORE.INTER.ROT>
6

>  <SCORE.INTER.SOLV>
25.4829

>  <SCORE.INTER.VDW>
-16.3535

>  <SCORE.INTER.norm>
-0.0125412

>  <SCORE.INTRA>
-0.183326

>  <SCORE.INTRA.DIHEDRAL>
-8.17247

>  <SCORE.INTRA.DIHEDRAL.0>
18.77

>  <SCORE.INTRA.POLAR>
0

>  <SCORE.INTRA.POLAR.0>
0

>  <SCORE.INTRA.REPUL>
0

>  <SCORE.INTRA.REPUL.0>
0

>  <SCORE.INTRA.SOLV>
-1.12846

>  <SCORE.INTRA.SOLV.lig_0>
-77.2465

>  <SCORE.INTRA.VDW>
4.46714

>  <SCORE.INTRA.VDW.0>
-4.16072

>  <SCORE.INTRA.norm>
-0.00591373

>  <SCORE.RESTR>
20.6713

>  <SCORE.RESTR.CAVITY>
20.6713

>  <SCORE.RESTR.norm>
0.666817

>  <SCORE.SYSTEM>
0

>  <SCORE.SYSTEM.CONST>
0

>  <SCORE.SYSTEM.DIHEDRAL>
0

>  <SCORE.SYSTEM.SOLV>
0

>  <SCORE.SYSTEM.norm>
0

>  <SCORE.heavy>
31

>  <SCORE.norm>
0.648363

>  <RMSD>
9.109

$$$$
ligand
 OpenBabel11021811493D
libRbt.so/2013.1/901 2013/11/27
 31 33  0  0  0  0  0  0  0  0999 V2000
   -4.7848   -9.8548  -15.6295 C   0  0  2  0  0  0  0  0  0  0  0  0
   -4.6936  -11.0851  -16.3605 O   0  0  0  0  0  0  0  0  0  0  0  0
   -6.4565  -12.3660  -20.0450 C   0  0  2  0  0  0  0  0  0  0  0  0
   -7.4346  -12.8049  -20.9930 N   0  0  0  0  0  0  0  0  0  0  0  0
   -7.7732   -8.8501  -20.5556 C   0  0  2  0  0  0  0  0  0  0  0  0
   -3.4910   -9.7690  -14.7460 C   0  0  2  0  0  0  0  0  0  0  0  0
   -2.3082   -9.8336  -15.5973 N   0  0  0  0  0  0  0  0  0  0  0  0
   -6.3772  -13.4163  -18.8709 C   0  0  0  0  0  0  0  0  0  0  0  0
   -7.9160   -8.4485  -22.0562 C   0  0  2  0  0  0  0  0  0  0  0  0
   -8.5091   -9.5217  -22.7669 O   0  0  0  0  0  0  0  0  0  0  0  0
   -3.4849  -10.9362  -13.6984 C   0  0  0  0  0  0  0  0  0  0  0  0
   -5.2848  -12.9318  -17.8225 C   0  0  2  0  0  0  0  0  0  0  0  0
   -5.2026  -13.9106  -16.7132 N   0  0  0  0  0  0  0  0  0  0  0  0
   -6.4505   -8.1450  -22.6006 C   0  0  1  0  0  0  0  0  0  0  0  0
   -6.4913   -7.7801  -24.0575 N   0  0  0  0  0  0  0  0  0  0  0  0
   -4.8631  -11.0467  -12.9843 C   0  0  0  0  0  0  0  0  0  0  0  0
   -5.6851  -11.4946  -17.2629 C   0  0  2  0  0  0  0  0  0  0  0  0
   -5.8122   -6.9069  -21.7565 C   0  0  1  0  0  0  0  0  0  0  0  0
   -6.5797   -5.7254  -21.8826 O   0  0  0  0  0  0  0  0  0  0  0  0
   -5.9670  -10.5106  -13.5261 C   0  0  2  0  0  0  0  0  0  0  0  0
   -5.9690   -9.8032  -14.7785 O   0  0  0  0  0  0  0  0  0  0  0  0
   -5.7843  -10.4720  -18.4712 C   0  0  2  0  0  0  0  0  0  0  0  0
   -6.1678   -9.1800  -17.9835 O   0  0  0  0  0  0  0  0  0  0  0  0
   -5.7672   -7.2860  -20.2377 C   0  0  0  0  0  0  0  0  0  0  0  0
   -7.1466   -7.7236  -19.7747 O   0  0  0  0  0  0  0  0  0  0  0  0
   -7.3449  -10.6075  -12.8306 C   0  0  0  0  0  0  0  0  0  0  0  0
   -7.1841  -11.2078  -11.5137 N   0  0  0  0  0  0  0  0  0  0  0  0
   -6.8658  -10.9662  -19.4987 C   0  0  1  0  0  0  0  0  0  0  0  0
   -6.9207  -10.0384  -20.5557 O   0  0  0  0  0  0  0  0  0  0  0  0
   -4.3879   -6.4892  -22.1584 C   0  0  0  0  0  0  0  0  0  0  0  0
   -6.5251   -8.9034  -25.0131 C   0  0  0  0  0  0  0  0  0  0  0  0
  1  2  1  1  0  0  0
  1  6  1  0  0  0  0
  1 21  1  0  0  0  0
  3  4  1  6  0  0  0
  3  8  1  0  0  0  0
  3 28  1  0  0  0  0
  5  9  1  0  0  0  0
  5 25  1  0  0  0  0
  5 29  1  6  0  0  0
  6  7  1  6  0  0  0
  6 11  1  0  0  0  0
  8 12  1  0  0  0  0
  9 10  1  6  0  0  0
  9 14  1  0  0  0  0
 11 16  1  0  0  0  0
 12 13  1  1  0  0  0
 12 17  1  0  0  0  0
 14 15  1  6  0  0  0
 14 18  1  0  0  0  0
 15 31  1  0  0  0  0
 16 20  1  0  0  0  0
 17  2  1  1  0  0  0
 17 22  1  0  0  0  0
 18 19  1  6  0  0  0
 18 24  1  0  0  0  0
 18 30  1  0  0  0  0
 20 21  1  0  0  0  0
 20 26  1  1  0  0  0
 22 23  1  1  0  0  0
 22 28  1  0  0  0  0
 24 25  1  0  0  0  0
 26 27  1  0  0  0  0
 28 29  1  6  0  0  0
M  END
>  <CHROM.1>
-179.82738061,-159.35400975,-83.06343856,-177.05943276,6.07656673,152.79409645
-6.00344811,-9.89974420,-18.50798410,-1.04932773,-1.23747481,-0.74898620

>  <Name>
ligand

>  <RI>
0

>  <Rbt.Current_Directory>
/home/itssahil/PROJECTS/Mol_Feturizer/New_Systems/rnas/4F8U

>  <Rbt.Executable>
rbdock ($Id: //depot/dev/client3/rdock/2013.1/src/exe/rbdock.cxx#4 $)

>  <Rbt.Library>
libRbt.so (2013.1, Build901 2013/11/27)

>  <Rbt.Parameter_File>
/export/apps/rDock/src/rDock_2013.1_src/data/scripts/dock_solv.prm

>  <Rbt.Receptor>
prm/pocket_docking_5.prm

>  <SCORE>
-11.1683

>  <SCORE.INTER>
-6.573

>  <SCORE.INTER.CONST>
1

>  <SCORE.INTER.POLAR>
0

>  <SCORE.INTER.ROT>
6

>  <SCORE.INTER.SOLV>
14.0301

>  <SCORE.INTER.VDW>
-16.6587

>  <SCORE.INTER.norm>
-0.212032

>  <SCORE.INTRA>
-4.59875

>  <SCORE.INTRA.DIHEDRAL>
-11.6288

>  <SCORE.INTRA.DIHEDRAL.0>
18.77

>  <SCORE.INTRA.POLAR>
0

>  <SCORE.INTRA.POLAR.0>
0

>  <SCORE.INTRA.REPUL>
0

>  <SCORE.INTRA.REPUL.0>
0

>  <SCORE.INTRA.SOLV>
-2.43569

>  <SCORE.INTRA.SOLV.lig_0>
-77.2465

>  <SCORE.INTRA.VDW>
2.43347

>  <SCORE.INTRA.VDW.0>
-4.16072

>  <SCORE.INTRA.norm>
-0.148347

>  <SCORE.RESTR>
0.00343445

>  <SCORE.RESTR.CAVITY>
0.00343445

>  <SCORE.RESTR.norm>
0.000110789

>  <SCORE.SYSTEM>
0

>  <SCORE.SYSTEM.CONST>
0

>  <SCORE.SYSTEM.DIHEDRAL>
0

>  <SCORE.SYSTEM.SOLV>
0

>  <SCORE.SYSTEM.norm>
0

>  <SCORE.heavy>
31

>  <SCORE.norm>
-0.360268

>  <RMSD>
9.121

$$$$
ligand
 OpenBabel11021811493D
libRbt.so/2013.1/901 2013/11/27
 31 33  0  0  0  0  0  0  0  0999 V2000
   -5.6900  -11.4540  -17.4863 C   0  0  2  0  0  0  0  0  0  0  0  0
   -7.0793  -11.4066  -17.8389 O   0  0  0  0  0  0  0  0  0  0  0  0
   -6.8716  -11.3749  -22.1143 C   0  0  2  0  0  0  0  0  0  0  0  0
   -7.2728  -11.4470  -23.4861 N   0  0  0  0  0  0  0  0  0  0  0  0
   -8.2086   -7.8382  -22.1187 C   0  0  2  0  0  0  0  0  0  0  0  0
   -5.5585  -10.7141  -16.1089 C   0  0  2  0  0  0  0  0  0  0  0  0
   -6.4144  -11.3594  -15.1195 N   0  0  0  0  0  0  0  0  0  0  0  0
   -7.2107  -12.7455  -21.4111 C   0  0  0  0  0  0  0  0  0  0  0  0
   -7.5499   -6.8591  -23.1388 C   0  0  2  0  0  0  0  0  0  0  0  0
   -7.4320   -7.5092  -24.3927 O   0  0  0  0  0  0  0  0  0  0  0  0
   -5.9468   -9.2040  -16.2780 C   0  0  0  0  0  0  0  0  0  0  0  0
   -6.7573  -12.6670  -19.8894 C   0  0  2  0  0  0  0  0  0  0  0  0
   -7.0727  -13.9494  -19.2177 N   0  0  0  0  0  0  0  0  0  0  0  0
   -6.1173   -6.4740  -22.5594 C   0  0  1  0  0  0  0  0  0  0  0  0
   -5.3946   -5.5535  -23.5015 N   0  0  0  0  0  0  0  0  0  0  0  0
   -5.2420   -8.5866  -17.5204 C   0  0  0  0  0  0  0  0  0  0  0  0
   -7.5159  -11.4648  -19.1696 C   0  0  2  0  0  0  0  0  0  0  0  0
   -6.3040   -5.7302  -21.1225 C   0  0  1  0  0  0  0  0  0  0  0  0
   -7.0654   -4.5432  -21.2328 O   0  0  0  0  0  0  0  0  0  0  0  0
   -4.7581   -9.3664  -18.4989 C   0  0  2  0  0  0  0  0  0  0  0  0
   -4.8442  -10.8021  -18.4806 O   0  0  0  0  0  0  0  0  0  0  0  0
   -7.1763  -10.1087  -19.9188 C   0  0  2  0  0  0  0  0  0  0  0  0
   -7.8725   -9.0221  -19.2954 O   0  0  0  0  0  0  0  0  0  0  0  0
   -7.0558   -6.6887  -20.1384 C   0  0  0  0  0  0  0  0  0  0  0  0
   -8.3488   -7.1700  -20.7750 O   0  0  0  0  0  0  0  0  0  0  0  0
   -4.0522   -8.7720  -19.7399 C   0  0  0  0  0  0  0  0  0  0  0  0
   -5.0237   -8.5822  -20.8079 N   0  0  0  0  0  0  0  0  0  0  0  0
   -7.6282  -10.2035  -21.4210 C   0  0  1  0  0  0  0  0  0  0  0  0
   -7.3064   -8.9872  -22.0519 O   0  0  0  0  0  0  0  0  0  0  0  0
   -5.0058   -5.2948  -20.4227 C   0  0  0  0  0  0  0  0  0  0  0  0
   -3.9259   -5.6844  -23.5467 C   0  0  0  0  0  0  0  0  0  0  0  0
  1  2  1  6  0  0  0
  1  6  1  0  0  0  0
  1 21  1  0  0  0  0
  3  4  1  6  0  0  0
  3  8  1  0  0  0  0
  3 28  1  0  0  0  0
  5  9  1  0  0  0  0
  5 25  1  0  0  0  0
  5 29  1  1  0  0  0
  6  7  1  1  0  0  0
  6 11  1  0  0  0  0
  8 12  1  0  0  0  0
  9 10  1  6  0  0  0
  9 14  1  0  0  0  0
 11 16  1  0  0  0  0
 12 13  1  1  0  0  0
 12 17  1  0  0  0  0
 14 15  1  6  0  0  0
 14 18  1  0  0  0  0
 15 31  1  0  0  0  0
 16 20  1  0  0  0  0
 17  2  1  1  0  0  0
 17 22  1  0  0  0  0
 18 19  1  6  0  0  0
 18 24  1  0  0  0  0
 18 30  1  0  0  0  0
 20 21  1  0  0  0  0
 20 26  1  1  0  0  0
 22 23  1  1  0  0  0
 22 28  1  0  0  0  0
 24 25  1  0  0  0  0
 26 27  1  0  0  0  0
 28 29  1  6  0  0  0
M  END
>  <CHROM.1>
153.91980568,-168.91194973,-147.40162319,47.62373896,-93.04850480,150.75541327
-6.44862080,-9.04279816,-20.29892412,-1.56778451,-1.20543809,-0.72315550

>  <Name>
ligand

>  <RI>
0

>  <Rbt.Current_Directory>
/home/itssahil/PROJECTS/Mol_Feturizer/New_Systems/rnas/4F8U

>  <Rbt.Executable>
rbdock ($Id: //depot/dev/client3/rdock/2013.1/src/exe/rbdock.cxx#4 $)

>  <Rbt.Library>
libRbt.so (2013.1, Build901 2013/11/27)

>  <Rbt.Parameter_File>
/export/apps/rDock/src/rDock_2013.1_src/data/scripts/dock_solv.prm

>  <Rbt.Receptor>
prm/blind_docking_60.prm

>  <SCORE>
20.6578

>  <SCORE.INTER>
-1.01955

>  <SCORE.INTER.CONST>
1

>  <SCORE.INTER.POLAR>
0

>  <SCORE.INTER.ROT>
6

>  <SCORE.INTER.SOLV>
21.7331

>  <SCORE.INTER.VDW>
-15.5241

>  <SCORE.INTER.norm>
-0.0328886

>  <SCORE.INTRA>
3.63012

>  <SCORE.INTRA.DIHEDRAL>
-7.95705

>  <SCORE.INTRA.DIHEDRAL.0>
18.77

>  <SCORE.INTRA.POLAR>
0

>  <SCORE.INTRA.POLAR.0>
0

>  <SCORE.INTRA.REPUL>
0.221819

>  <SCORE.INTRA.REPUL.0>
0

>  <SCORE.INTRA.SOLV>
7.82357

>  <SCORE.INTRA.SOLV.lig_0>
-77.2465

>  <SCORE.INTRA.VDW>
2.58777

>  <SCORE.INTRA.VDW.0>
-4.16072

>  <SCORE.INTRA.norm>
0.117101

>  <SCORE.RESTR>
18.0473

>  <SCORE.RESTR.CAVITY>
18.0473

>  <SCORE.RESTR.norm>
0.582169

>  <SCORE.SYSTEM>
0

>  <SCORE.SYSTEM.CONST>
0

>  <SCORE.SYSTEM.DIHEDRAL>
0

>  <SCORE.SYSTEM.SOLV>
0

>  <SCORE.SYSTEM.norm>
0

>  <SCORE.heavy>
31

>  <SCORE.norm>
0.666382

>  <RMSD>
9.124

$$$$
ligand
 OpenBabel11021811493D
libRbt.so/2013.1/901 2013/11/27
 31 33  0  0  0  0  0  0  0  0999 V2000
   -3.3623  -12.5881  -10.0647 C   0  0  2  0  0  0  0  0  0  0  0  0
   -4.5942  -12.7633  -10.7775 O   0  0  0  0  0  0  0  0  0  0  0  0
   -8.7829  -11.8883  -10.6644 C   0  0  2  0  0  0  0  0  0  0  0  0
  -10.0449  -11.3822  -10.2179 N   0  0  0  0  0  0  0  0  0  0  0  0
   -7.7676   -8.5103  -12.1638 C   0  0  2  0  0  0  0  0  0  0  0  0
   -2.5457  -11.5051  -10.8536 C   0  0  2  0  0  0  0  0  0  0  0  0
   -3.3231  -10.2745  -10.9483 N   0  0  0  0  0  0  0  0  0  0  0  0
   -8.2148  -12.8758   -9.5735 C   0  0  0  0  0  0  0  0  0  0  0  0
   -8.3747   -7.5638  -11.0827 C   0  0  2  0  0  0  0  0  0  0  0  0
   -7.9875   -8.0216   -9.7984 O   0  0  0  0  0  0  0  0  0  0  0  0
   -2.1871  -12.0461  -12.2814 C   0  0  0  0  0  0  0  0  0  0  0  0
   -6.8167  -13.4434  -10.0741 C   0  0  2  0  0  0  0  0  0  0  0  0
   -6.2722  -14.3717   -9.0558 N   0  0  0  0  0  0  0  0  0  0  0  0
   -9.9573   -7.6139  -11.2525 C   0  0  1  0  0  0  0  0  0  0  0  0
  -10.6286   -6.7506  -10.2223 N   0  0  0  0  0  0  0  0  0  0  0  0
   -1.6141  -13.4905  -12.1986 C   0  0  0  0  0  0  0  0  0  0  0  0
   -5.8075  -12.2343  -10.3159 C   0  0  2  0  0  0  0  0  0  0  0  0
  -10.3528   -7.0786  -12.7391 C   0  0  1  0  0  0  0  0  0  0  0  0
   -9.9311   -5.7456  -12.9542 O   0  0  0  0  0  0  0  0  0  0  0  0
   -1.8323  -14.2598  -11.1215 C   0  0  2  0  0  0  0  0  0  0  0  0
   -2.5913  -13.8241   -9.9800 O   0  0  0  0  0  0  0  0  0  0  0  0
   -6.4224  -11.2475  -11.3946 C   0  0  2  0  0  0  0  0  0  0  0  0
   -5.5344  -10.1421  -11.6033 O   0  0  0  0  0  0  0  0  0  0  0  0
   -9.6554   -7.9782  -13.8146 C   0  0  0  0  0  0  0  0  0  0  0  0
   -8.1621   -8.0440  -13.5416 O   0  0  0  0  0  0  0  0  0  0  0  0
   -1.2692  -15.6965  -11.0194 C   0  0  0  0  0  0  0  0  0  0  0  0
   -2.2750  -16.6467  -11.4730 N   0  0  0  0  0  0  0  0  0  0  0  0
   -7.8039  -10.6976  -10.8861 C   0  0  1  0  0  0  0  0  0  0  0  0
   -8.3189   -9.8326  -11.8696 O   0  0  0  0  0  0  0  0  0  0  0  0
  -11.8551   -7.0680  -13.0669 C   0  0  0  0  0  0  0  0  0  0  0  0
   -9.9757   -5.4623   -9.9218 C   0  0  0  0  0  0  0  0  0  0  0  0
  1  2  1  6  0  0  0
  1  6  1  0  0  0  0
  1 21  1  0  0  0  0
  3  4  1  1  0  0  0
  3  8  1  0  0  0  0
  3 28  1  0  0  0  0
  5  9  1  0  0  0  0
  5 25  1  0  0  0  0
  5 29  1  1  0  0  0
  6  7  1  6  0  0  0
  6 11  1  0  0  0  0
  8 12  1  0  0  0  0
  9 10  1  1  0  0  0
  9 14  1  0  0  0  0
 11 16  1  0  0  0  0
 12 13  1  1  0  0  0
 12 17  1  0  0  0  0
 14 15  1  1  0  0  0
 14 18  1  0  0  0  0
 15 31  1  0  0  0  0
 16 20  1  0  0  0  0
 17  2  1  6  0  0  0
 17 22  1  0  0  0  0
 18 19  1  6  0  0  0
 18 24  1  0  0  0  0
 18 30  1  0  0  0  0
 20 21  1  0  0  0  0
 20 26  1  1  0  0  0
 22 23  1  1  0  0  0
 22 28  1  0  0  0  0
 24 25  1  0  0  0  0
 26 27  1  0  0  0  0
 28 29  1  6  0  0  0
M  END
>  <CHROM.1>
-104.65477269,-81.69842266,39.65733805,-119.44264679,-94.33043459,169.52466808
-6.60308831,-10.63673410,-11.20307280,-0.71923213,0.26656567,-0.42813350

>  <Name>
ligand

>  <RI>
0

>  <Rbt.Current_Directory>
/home/itssahil/PROJECTS/Mol_Feturizer/New_Systems/rnas/4F8U

>  <Rbt.Executable>
rbdock ($Id: //depot/dev/client3/rdock/2013.1/src/exe/rbdock.cxx#4 $)

>  <Rbt.Library>
libRbt.so (2013.1, Build901 2013/11/27)

>  <Rbt.Parameter_File>
/export/apps/rDock/src/rDock_2013.1_src/data/scripts/dock_solv.prm

>  <Rbt.Receptor>
prm/blind_docking_20.prm

>  <SCORE>
17.1857

>  <SCORE.INTER>
3.25186

>  <SCORE.INTER.CONST>
1

>  <SCORE.INTER.POLAR>
0

>  <SCORE.INTER.ROT>
6

>  <SCORE.INTER.SOLV>
24.5003

>  <SCORE.INTER.VDW>
-13.5989

>  <SCORE.INTER.norm>
0.104899

>  <SCORE.INTRA>
5.28669

>  <SCORE.INTRA.DIHEDRAL>
-0.127257

>  <SCORE.INTRA.DIHEDRAL.0>
18.77

>  <SCORE.INTRA.POLAR>
0

>  <SCORE.INTRA.POLAR.0>
0

>  <SCORE.INTRA.REPUL>
0.00292237

>  <SCORE.INTRA.REPUL.0>
0

>  <SCORE.INTRA.SOLV>
1.20486

>  <SCORE.INTRA.SOLV.lig_0>
-77.2465

>  <SCORE.INTRA.VDW>
4.73327

>  <SCORE.INTRA.VDW.0>
-4.16072

>  <SCORE.INTRA.norm>
0.170538

>  <SCORE.RESTR>
8.64716

>  <SCORE.RESTR.CAVITY>
8.64716

>  <SCORE.RESTR.norm>
0.278941

>  <SCORE.SYSTEM>
0

>  <SCORE.SYSTEM.CONST>
0

>  <SCORE.SYSTEM.DIHEDRAL>
0

>  <SCORE.SYSTEM.SOLV>
0

>  <SCORE.SYSTEM.norm>
0

>  <SCORE.heavy>
31

>  <SCORE.norm>
0.554378

>  <RMSD>
9.145

$$$$
ligand
 OpenBabel11021811493D
libRbt.so/2013.1/901 2013/11/27
 31 33  0  0  0  0  0  0  0  0999 V2000
   -6.2319  -10.8655  -25.3613 C   0  0  2  0  0  0  0  0  0  0  0  0
   -7.2319  -10.4746  -24.4106 O   0  0  0  0  0  0  0  0  0  0  0  0
   -8.0065  -10.8453  -20.2170 C   0  0  2  0  0  0  0  0  0  0  0  0
   -7.7957  -10.8647  -18.8017 N   0  0  0  0  0  0  0  0  0  0  0  0
   -8.0518   -7.4446  -19.2343 C   0  0  2  0  0  0  0  0  0  0  0  0
   -6.0515   -9.6503  -26.3374 C   0  0  2  0  0  0  0  0  0  0  0  0
   -5.6764   -8.4615  -25.5798 N   0  0  0  0  0  0  0  0  0  0  0  0
   -7.0784  -11.9313  -20.8857 C   0  0  0  0  0  0  0  0  0  0  0  0
   -7.1274   -6.5116  -20.0759 C   0  0  2  0  0  0  0  0  0  0  0  0
   -7.8792   -5.9553  -21.1408 O   0  0  0  0  0  0  0  0  0  0  0  0
   -7.3815   -9.4052  -27.1317 C   0  0  0  0  0  0  0  0  0  0  0  0
   -7.3192  -11.9143  -22.4570 C   0  0  2  0  0  0  0  0  0  0  0  0
   -6.4507  -12.9301  -23.0966 N   0  0  0  0  0  0  0  0  0  0  0  0
   -5.9345   -7.4103  -20.6288 C   0  0  1  0  0  0  0  0  0  0  0  0
   -5.0077   -6.5933  -21.4836 N   0  0  0  0  0  0  0  0  0  0  0  0
   -7.9376  -10.7401  -27.7062 C   0  0  0  0  0  0  0  0  0  0  0  0
   -6.9887  -10.4648  -23.0302 C   0  0  2  0  0  0  0  0  0  0  0  0
   -5.1009   -8.0248  -19.3717 C   0  0  1  0  0  0  0  0  0  0  0  0
   -4.5445   -7.0118  -18.5562 O   0  0  0  0  0  0  0  0  0  0  0  0
   -7.5551  -11.9225  -27.2009 C   0  0  2  0  0  0  0  0  0  0  0  0
   -6.6197  -12.0526  -26.1160 O   0  0  0  0  0  0  0  0  0  0  0  0
   -7.9178   -9.3957  -22.3164 C   0  0  2  0  0  0  0  0  0  0  0  0
   -7.6131   -8.0837  -22.8060 O   0  0  0  0  0  0  0  0  0  0  0  0
   -6.0649   -8.8782  -18.4803 C   0  0  0  0  0  0  0  0  0  0  0  0
   -7.2769   -8.0484  -18.0914 O   0  0  0  0  0  0  0  0  0  0  0  0
   -8.0943  -13.2598  -27.7599 C   0  0  0  0  0  0  0  0  0  0  0  0
   -9.5429  -13.1850  -27.8875 N   0  0  0  0  0  0  0  0  0  0  0  0
   -7.6695   -9.4269  -20.7649 C   0  0  1  0  0  0  0  0  0  0  0  0
   -8.5131   -8.4715  -20.1679 O   0  0  0  0  0  0  0  0  0  0  0  0
   -3.9101   -8.9263  -19.7374 C   0  0  0  0  0  0  0  0  0  0  0  0
   -4.8476   -5.1762  -21.1064 C   0  0  0  0  0  0  0  0  0  0  0  0
  1  2  1  1  0  0  0
  1  6  1  0  0  0  0
  1 21  1  0  0  0  0
  3  4  1  1  0  0  0
  3  8  1  0  0  0  0
  3 28  1  0  0  0  0
  5  9  1  0  0  0  0
  5 25  1  0  0  0  0
  5 29  1  6  0  0  0
  6  7  1  1  0  0  0
  6 11  1  0  0  0  0
  8 12  1  0  0  0  0
  9 10  1  6  0  0  0
  9 14  1  0  0  0  0
 11 16  1  0  0  0  0
 12 13  1  6  0  0  0
 12 17  1  0  0  0  0
 14 15  1  6  0  0  0
 14 18  1  0  0  0  0
 15 31  1  0  0  0  0
 16 20  1  0  0  0  0
 17  2  1  6  0  0  0
 17 22  1  0  0  0  0
 18 19  1  1  0  0  0
 18 24  1  0  0  0  0
 18 30  1  0  0  0  0
 20 21  1  0  0  0  0
 20 26  1  6  0  0  0
 22 23  1  6  0  0  0
 22 28  1  0  0  0  0
 24 25  1  0  0  0  0
 26 27  1  0  0  0  0
 28 29  1  1  0  0  0
M  END
>  <CHROM.1>
-122.58407988,66.07766360,32.63019906,-87.76709491,-47.83319217,112.10518329
-6.88073013,-9.45773895,-22.49050756,-2.03100425,1.21877134,1.49793194

>  <Name>
ligand

>  <RI>
0

>  <Rbt.Current_Directory>
/home/itssahil/PROJECTS/Mol_Feturizer/New_Systems/rnas/4F8U

>  <Rbt.Executable>
rbdock ($Id: //depot/dev/client3/rdock/2013.1/src/exe/rbdock.cxx#4 $)

>  <Rbt.Library>
libRbt.so (2013.1, Build901 2013/11/27)

>  <Rbt.Parameter_File>
/export/apps/rDock/src/rDock_2013.1_src/data/scripts/dock_solv.prm

>  <Rbt.Receptor>
prm/blind_docking_100.prm

>  <SCORE>
56.179

>  <SCORE.INTER>
35.7773

>  <SCORE.INTER.CONST>
1

>  <SCORE.INTER.POLAR>
0

>  <SCORE.INTER.ROT>
6

>  <SCORE.INTER.SOLV>
34.4467

>  <SCORE.INTER.VDW>
4.76929

>  <SCORE.INTER.norm>
1.15411

>  <SCORE.INTRA>
10.887

>  <SCORE.INTRA.DIHEDRAL>
2.58466

>  <SCORE.INTRA.DIHEDRAL.0>
18.77

>  <SCORE.INTRA.POLAR>
0

>  <SCORE.INTRA.POLAR.0>
0

>  <SCORE.INTRA.REPUL>
0

>  <SCORE.INTRA.REPUL.0>
0

>  <SCORE.INTRA.SOLV>
4.24507

>  <SCORE.INTRA.SOLV.lig_0>
-77.2465

>  <SCORE.INTRA.VDW>
7.47214

>  <SCORE.INTRA.VDW.0>
-4.16072

>  <SCORE.INTRA.norm>
0.351194

>  <SCORE.RESTR>
9.51468

>  <SCORE.RESTR.CAVITY>
9.51468

>  <SCORE.RESTR.norm>
0.306925

>  <SCORE.SYSTEM>
0

>  <SCORE.SYSTEM.CONST>
0

>  <SCORE.SYSTEM.DIHEDRAL>
0

>  <SCORE.SYSTEM.SOLV>
0

>  <SCORE.SYSTEM.norm>
0

>  <SCORE.heavy>
31

>  <SCORE.norm>
1.81223

>  <RMSD>
9.150

$$$$
ligand
 OpenBabel11021811493D
libRbt.so/2013.1/901 2013/11/27
 31 33  0  0  0  0  0  0  0  0999 V2000
   -5.6407  -11.4490  -17.5487 C   0  0  2  0  0  0  0  0  0  0  0  0
   -7.0324  -11.3950  -17.8901 O   0  0  0  0  0  0  0  0  0  0  0  0
   -6.8600  -11.3146  -22.1665 C   0  0  2  0  0  0  0  0  0  0  0  0
   -7.2720  -11.3743  -23.5357 N   0  0  0  0  0  0  0  0  0  0  0  0
   -8.2193   -7.7855  -22.1158 C   0  0  2  0  0  0  0  0  0  0  0  0
   -5.4986  -10.7338  -16.1594 C   0  0  2  0  0  0  0  0  0  0  0  0
   -6.3475  -11.3964  -15.1754 N   0  0  0  0  0  0  0  0  0  0  0  0
   -7.1839  -12.6952  -21.4758 C   0  0  0  0  0  0  0  0  0  0  0  0
   -7.5830   -6.7953  -23.1395 C   0  0  2  0  0  0  0  0  0  0  0  0
   -7.4843   -7.4351  -24.4004 O   0  0  0  0  0  0  0  0  0  0  0  0
   -5.8876   -9.2208  -16.2987 C   0  0  0  0  0  0  0  0  0  0  0  0
   -6.7186  -12.6303  -19.9570 C   0  0  2  0  0  0  0  0  0  0  0  0
   -7.0196  -13.9222  -19.2971 N   0  0  0  0  0  0  0  0  0  0  0  0
   -6.1423   -6.4081  -22.5824 C   0  0  1  0  0  0  0  0  0  0  0  0
   -5.4403   -5.4769  -23.5297 N   0  0  0  0  0  0  0  0  0  0  0  0
   -5.1918   -8.5815  -17.5350 C   0  0  0  0  0  0  0  0  0  0  0  0
   -7.4795  -11.4415  -19.2178 C   0  0  2  0  0  0  0  0  0  0  0  0
   -6.3070   -5.6765  -21.1365 C   0  0  1  0  0  0  0  0  0  0  0  0
   -7.0756   -4.4923  -21.2240 O   0  0  0  0  0  0  0  0  0  0  0  0
   -4.7154   -9.3439  -18.5308 C   0  0  2  0  0  0  0  0  0  0  0  0
   -4.8019  -10.7796  -18.5375 O   0  0  0  0  0  0  0  0  0  0  0  0
   -7.1555  -10.0749  -19.9547 C   0  0  2  0  0  0  0  0  0  0  0  0
   -7.8540   -9.0001  -19.3136 O   0  0  0  0  0  0  0  0  0  0  0  0
   -7.0370   -6.6462  -20.1470 C   0  0  0  0  0  0  0  0  0  0  0  0
   -8.3387   -7.1286  -20.7646 O   0  0  0  0  0  0  0  0  0  0  0  0
   -4.0186   -8.7276  -19.7662 C   0  0  0  0  0  0  0  0  0  0  0  0
   -4.9945   -8.5346  -20.8296 N   0  0  0  0  0  0  0  0  0  0  0  0
   -7.6190  -10.1562  -21.4541 C   0  0  1  0  0  0  0  0  0  0  0  0
   -7.3107   -8.9308  -22.0740 O   0  0  0  0  0  0  0  0  0  0  0  0
   -4.9987   -5.2406  -20.4562 C   0  0  0  0  0  0  0  0  0  0  0  0
   -3.9679   -5.5618  -23.5605 C   0  0  0  0  0  0  0  0  0  0  0  0
  1  2  1  6  0  0  0
  1  6  1  0  0  0  0
  1 21  1  0  0  0  0
  3  4  1  6  0  0  0
  3  8  1  0  0  0  0
  3 28  1  0  0  0  0
  5  9  1  0  0  0  0
  5 25  1  0  0  0  0
  5 29  1  1  0  0  0
  6  7  1  1  0  0  0
  6 11  1  0  0  0  0
  8 12  1  0  0  0  0
  9 10  1  6  0  0  0
  9 14  1  0  0  0  0
 11 16  1  0  0  0  0
 12 13  1  1  0  0  0
 12 17  1  0  0  0  0
 14 15  1  6  0  0  0
 14 18  1  0  0  0  0
 15 31  1  0  0  0  0
 16 20  1  0  0  0  0
 17  2  1  1  0  0  0
 17 22  1  0  0  0  0
 18 19  1  6  0  0  0
 18 24  1  0  0  0  0
 18 30  1  0  0  0  0
 20 21  1  0  0  0  0
 20 26  1  1  0  0  0
 22 23  1  1  0  0  0
 22 28  1  0  0  0  0
 24 25  1  0  0  0  0
 26 27  1  0  0  0  0
 28 29  1  6  0  0  0
M  END
>  <CHROM.1>
154.51024535,-168.52106396,-149.85851479,47.03459972,-93.77804709,151.02425017
-6.43270384,-9.00337824,-20.32975807,-1.53752369,-1.19769162,-0.68569341

>  <Name>
ligand

>  <RI>
0

>  <Rbt.Current_Directory>
/home/itssahil/PROJECTS/Mol_Feturizer/New_Systems/rnas/4F8U

>  <Rbt.Executable>
rbdock ($Id: //depot/dev/client3/rdock/2013.1/src/exe/rbdock.cxx#4 $)

>  <Rbt.Library>
libRbt.so (2013.1, Build901 2013/11/27)

>  <Rbt.Parameter_File>
/export/apps/rDock/src/rDock_2013.1_src/data/scripts/dock_solv.prm

>  <Rbt.Receptor>
prm/blind_docking_60.prm

>  <SCORE>
19.7384

>  <SCORE.INTER>
-1.72001

>  <SCORE.INTER.CONST>
1

>  <SCORE.INTER.POLAR>
0

>  <SCORE.INTER.ROT>
6

>  <SCORE.INTER.SOLV>
21.704

>  <SCORE.INTER.VDW>
-15.9813

>  <SCORE.INTER.norm>
-0.0554842

>  <SCORE.INTRA>
3.26198

>  <SCORE.INTRA.DIHEDRAL>
-8.11984

>  <SCORE.INTRA.DIHEDRAL.0>
18.77

>  <SCORE.INTRA.POLAR>
0

>  <SCORE.INTRA.POLAR.0>
0

>  <SCORE.INTRA.REPUL>
0.214051

>  <SCORE.INTRA.REPUL.0>
0

>  <SCORE.INTRA.SOLV>
7.70191

>  <SCORE.INTRA.SOLV.lig_0>
-77.2465

>  <SCORE.INTRA.VDW>
2.40069

>  <SCORE.INTRA.VDW.0>
-4.16072

>  <SCORE.INTRA.norm>
0.105225

>  <SCORE.RESTR>
18.1964

>  <SCORE.RESTR.CAVITY>
18.1964

>  <SCORE.RESTR.norm>
0.586981

>  <SCORE.SYSTEM>
0

>  <SCORE.SYSTEM.CONST>
0

>  <SCORE.SYSTEM.DIHEDRAL>
0

>  <SCORE.SYSTEM.SOLV>
0

>  <SCORE.SYSTEM.norm>
0

>  <SCORE.heavy>
31

>  <SCORE.norm>
0.636722

>  <RMSD>
9.150

$$$$
ligand
 OpenBabel11021811493D
libRbt.so/2013.1/901 2013/11/27
 31 33  0  0  0  0  0  0  0  0999 V2000
   -8.8880   -4.5899  -22.9971 C   0  0  2  0  0  0  0  0  0  0  0  0
   -9.1805   -5.6988  -23.8581 O   0  0  0  0  0  0  0  0  0  0  0  0
   -7.7134   -9.7198  -23.9084 C   0  0  2  0  0  0  0  0  0  0  0  0
   -6.8365  -10.8348  -24.0979 N   0  0  0  0  0  0  0  0  0  0  0  0
   -7.9657   -9.9608  -20.8644 C   0  0  2  0  0  0  0  0  0  0  0  0
  -10.0336   -3.5417  -23.2223 C   0  0  2  0  0  0  0  0  0  0  0  0
  -11.3256   -4.1547  -22.9344 N   0  0  0  0  0  0  0  0  0  0  0  0
   -7.9440   -9.0106  -25.2983 C   0  0  0  0  0  0  0  0  0  0  0  0
   -7.3660  -10.1732  -19.4401 C   0  0  2  0  0  0  0  0  0  0  0  0
   -6.9546   -8.9203  -18.9208 O   0  0  0  0  0  0  0  0  0  0  0  0
   -9.9870   -3.0129  -24.6981 C   0  0  0  0  0  0  0  0  0  0  0  0
   -8.9246   -7.7770  -25.0879 C   0  0  2  0  0  0  0  0  0  0  0  0
   -9.1475   -7.1015  -26.3876 N   0  0  0  0  0  0  0  0  0  0  0  0
   -6.1260  -11.1601  -19.5971 C   0  0  1  0  0  0  0  0  0  0  0  0
   -5.4639  -11.3948  -18.2690 N   0  0  0  0  0  0  0  0  0  0  0  0
   -8.5357   -2.6215  -25.1007 C   0  0  0  0  0  0  0  0  0  0  0  0
   -8.2848   -6.7617  -24.0397 C   0  0  2  0  0  0  0  0  0  0  0  0
   -6.6473  -12.5830  -20.1941 C   0  0  1  0  0  0  0  0  0  0  0  0
   -7.5944  -13.2013  -19.3447 O   0  0  0  0  0  0  0  0  0  0  0  0
   -7.4790   -3.0968  -24.4245 C   0  0  2  0  0  0  0  0  0  0  0  0
   -7.5957   -3.9822  -23.2970 O   0  0  0  0  0  0  0  0  0  0  0  0
   -8.0396   -7.5143  -22.6653 C   0  0  2  0  0  0  0  0  0  0  0  0
   -7.4414   -6.6176  -21.7208 O   0  0  0  0  0  0  0  0  0  0  0  0
   -7.3363  -12.3408  -21.5793 C   0  0  0  0  0  0  0  0  0  0  0  0
   -8.4145  -11.2794  -21.4400 O   0  0  0  0  0  0  0  0  0  0  0  0
   -6.0295   -2.7175  -24.8074 C   0  0  0  0  0  0  0  0  0  0  0  0
   -5.3312   -3.8974  -25.2979 N   0  0  0  0  0  0  0  0  0  0  0  0
   -7.0711   -8.7312  -22.8908 C   0  0  1  0  0  0  0  0  0  0  0  0
   -6.8826   -9.3750  -21.6535 O   0  0  0  0  0  0  0  0  0  0  0  0
   -5.5641  -13.6527  -20.4112 C   0  0  0  0  0  0  0  0  0  0  0  0
   -4.4198  -10.4287  -17.8781 C   0  0  0  0  0  0  0  0  0  0  0  0
  1  2  1  6  0  0  0
  1  6  1  0  0  0  0
  1 21  1  0  0  0  0
  3  4  1  6  0  0  0
  3  8  1  0  0  0  0
  3 28  1  0  0  0  0
  5  9  1  0  0  0  0
  5 25  1  0  0  0  0
  5 29  1  6  0  0  0
  6  7  1  6  0  0  0
  6 11  1  0  0  0  0
  8 12  1  0  0  0  0
  9 10  1  6  0  0  0
  9 14  1  0  0  0  0
 11 16  1  0  0  0  0
 12 13  1  6  0  0  0
 12 17  1  0  0  0  0
 14 15  1  1  0  0  0
 14 18  1  0  0  0  0
 15 31  1  0  0  0  0
 16 20  1  0  0  0  0
 17  2  1  1  0  0  0
 17 22  1  0  0  0  0
 18 19  1  1  0  0  0
 18 24  1  0  0  0  0
 18 30  1  0  0  0  0
 20 21  1  0  0  0  0
 20 26  1  1  0  0  0
 22 23  1  1  0  0  0
 22 28  1  0  0  0  0
 24 25  1  0  0  0  0
 26 27  1  0  0  0  0
 28 29  1  1  0  0  0
M  END
>  <CHROM.1>
172.36406749,-164.10462751,-87.44221054,-178.36651551,-113.47076899,-59.45632238
-7.61599451,-7.95407456,-22.42078629,-2.16036591,1.17781442,-3.11246537

>  <Name>
ligand

>  <RI>
0

>  <Rbt.Current_Directory>
/home/itssahil/PROJECTS/Mol_Feturizer/New_Systems/rnas/4F8U

>  <Rbt.Executable>
rbdock ($Id: //depot/dev/client3/rdock/2013.1/src/exe/rbdock.cxx#4 $)

>  <Rbt.Library>
libRbt.so (2013.1, Build901 2013/11/27)

>  <Rbt.Parameter_File>
/export/apps/rDock/src/rDock_2013.1_src/data/scripts/dock_solv.prm

>  <Rbt.Receptor>
prm/pocket_docking_8.prm

>  <SCORE>
-14.0357

>  <SCORE.INTER>
-7.50113

>  <SCORE.INTER.CONST>
1

>  <SCORE.INTER.POLAR>
0

>  <SCORE.INTER.ROT>
6

>  <SCORE.INTER.SOLV>
17.8008

>  <SCORE.INTER.VDW>
-18.5344

>  <SCORE.INTER.norm>
-0.241972

>  <SCORE.INTRA>
-6.53461

>  <SCORE.INTRA.DIHEDRAL>
-15.0357

>  <SCORE.INTRA.DIHEDRAL.0>
18.77

>  <SCORE.INTRA.POLAR>
0

>  <SCORE.INTRA.POLAR.0>
0

>  <SCORE.INTRA.REPUL>
0

>  <SCORE.INTRA.REPUL.0>
0

>  <SCORE.INTRA.SOLV>
-0.579992

>  <SCORE.INTRA.SOLV.lig_0>
-77.2465

>  <SCORE.INTRA.VDW>
1.27326

>  <SCORE.INTRA.VDW.0>
-4.16072

>  <SCORE.INTRA.norm>
-0.210794

>  <SCORE.RESTR>
0

>  <SCORE.RESTR.CAVITY>
0

>  <SCORE.RESTR.norm>
0

>  <SCORE.SYSTEM>
0

>  <SCORE.SYSTEM.CONST>
0

>  <SCORE.SYSTEM.DIHEDRAL>
0

>  <SCORE.SYSTEM.SOLV>
0

>  <SCORE.SYSTEM.norm>
0

>  <SCORE.heavy>
31

>  <SCORE.norm>
-0.452766

>  <RMSD>
9.151

$$$$
ligand
 OpenBabel11021811493D
libRbt.so/2013.1/901 2013/11/27
 31 33  0  0  0  0  0  0  0  0999 V2000
   -4.5349  -13.1044  -10.0167 C   0  0  2  0  0  0  0  0  0  0  0  0
   -5.5627  -12.3666  -10.6918 O   0  0  0  0  0  0  0  0  0  0  0  0
   -9.2732  -10.3829   -9.9040 C   0  0  2  0  0  0  0  0  0  0  0  0
  -10.2875   -9.6368   -9.2238 N   0  0  0  0  0  0  0  0  0  0  0  0
   -7.5912   -7.9638  -12.0270 C   0  0  2  0  0  0  0  0  0  0  0  0
   -3.5584  -12.0407   -9.4028 C   0  0  2  0  0  0  0  0  0  0  0  0
   -4.2953  -11.1529   -8.5102 N   0  0  0  0  0  0  0  0  0  0  0  0
   -8.9494  -11.6816   -9.0694 C   0  0  0  0  0  0  0  0  0  0  0  0
   -8.3674   -6.7291  -12.5805 C   0  0  2  0  0  0  0  0  0  0  0  0
   -8.3462   -5.6971  -11.6092 O   0  0  0  0  0  0  0  0  0  0  0  0
   -2.8705  -11.2254  -10.5525 C   0  0  0  0  0  0  0  0  0  0  0  0
   -7.8283  -12.5134   -9.8300 C   0  0  2  0  0  0  0  0  0  0  0  0
   -7.5144  -13.7359   -9.0539 N   0  0  0  0  0  0  0  0  0  0  0  0
   -9.8583   -7.2063  -12.8728 C   0  0  1  0  0  0  0  0  0  0  0  0
  -10.6906   -6.0635  -13.3812 N   0  0  0  0  0  0  0  0  0  0  0  0
   -2.3287  -12.1766  -11.6585 C   0  0  0  0  0  0  0  0  0  0  0  0
   -6.5227  -11.6158   -9.9993 C   0  0  2  0  0  0  0  0  0  0  0  0
   -9.8314   -8.3885  -13.9928 C   0  0  1  0  0  0  0  0  0  0  0  0
   -9.2639   -7.9526  -15.2130 O   0  0  0  0  0  0  0  0  0  0  0  0
   -2.7931  -13.4292  -11.7809 C   0  0  2  0  0  0  0  0  0  0  0  0
   -3.8020  -13.9855  -10.9198 O   0  0  0  0  0  0  0  0  0  0  0  0
   -6.8903  -10.3068  -10.8161 C   0  0  2  0  0  0  0  0  0  0  0  0
   -5.7288   -9.4787  -10.9542 O   0  0  0  0  0  0  0  0  0  0  0  0
   -8.9657   -9.5816  -13.4642 C   0  0  0  0  0  0  0  0  0  0  0  0
   -7.5958   -9.0771  -13.0428 O   0  0  0  0  0  0  0  0  0  0  0  0
   -2.2655  -14.3903  -12.8716 C   0  0  0  0  0  0  0  0  0  0  0  0
   -1.5294  -15.4796  -12.2456 N   0  0  0  0  0  0  0  0  0  0  0  0
   -8.0004   -9.4978  -10.0527 C   0  0  1  0  0  0  0  0  0  0  0  0
   -8.3026   -8.3498  -10.8088 O   0  0  0  0  0  0  0  0  0  0  0  0
  -11.2010   -8.9662  -14.3865 C   0  0  0  0  0  0  0  0  0  0  0  0
  -11.0510   -5.0268  -12.3955 C   0  0  0  0  0  0  0  0  0  0  0  0
  1  2  1  6  0  0  0
  1  6  1  0  0  0  0
  1 21  1  0  0  0  0
  3  4  1  1  0  0  0
  3  8  1  0  0  0  0
  3 28  1  0  0  0  0
  5  9  1  0  0  0  0
  5 25  1  0  0  0  0
  5 29  1  1  0  0  0
  6  7  1  1  0  0  0
  6 11  1  0  0  0  0
  8 12  1  0  0  0  0
  9 10  1  1  0  0  0
  9 14  1  0  0  0  0
 11 16  1  0  0  0  0
 12 13  1  1  0  0  0
 12 17  1  0  0  0  0
 14 15  1  6  0  0  0
 14 18  1  0  0  0  0
 15 31  1  0  0  0  0
 16 20  1  0  0  0  0
 17  2  1  6  0  0  0
 17 22  1  0  0  0  0
 18 19  1  6  0  0  0
 18 24  1  0  0  0  0
 18 30  1  0  0  0  0
 20 21  1  0  0  0  0
 20 26  1  1  0  0  0
 22 23  1  1  0  0  0
 22 28  1  0  0  0  0
 24 25  1  0  0  0  0
 26 27  1  0  0  0  0
 28 29  1  6  0  0  0
M  END
>  <CHROM.1>
-69.77958830,174.26878025,-71.86036646,-95.78131340,112.63193866,-124.10717943
-6.96344048,-10.26341145,-11.42473036,0.57564871,-0.56503409,2.14967646

>  <Name>
ligand

>  <RI>
0

>  <Rbt.Current_Directory>
/home/itssahil/PROJECTS/Mol_Feturizer/New_Systems/rnas/4F8U

>  <Rbt.Executable>
rbdock ($Id: //depot/dev/client3/rdock/2013.1/src/exe/rbdock.cxx#4 $)

>  <Rbt.Library>
libRbt.so (2013.1, Build901 2013/11/27)

>  <Rbt.Parameter_File>
/export/apps/rDock/src/rDock_2013.1_src/data/scripts/dock_solv.prm

>  <Rbt.Receptor>
prm/blind_docking_40.prm

>  <SCORE>
21.6095

>  <SCORE.INTER>
6.93526

>  <SCORE.INTER.CONST>
1

>  <SCORE.INTER.POLAR>
0

>  <SCORE.INTER.ROT>
6

>  <SCORE.INTER.SOLV>
23.229

>  <SCORE.INTER.VDW>
-10.7195

>  <SCORE.INTER.norm>
0.223718

>  <SCORE.INTRA>
3.20256

>  <SCORE.INTRA.DIHEDRAL>
-4.49441

>  <SCORE.INTRA.DIHEDRAL.0>
18.77

>  <SCORE.INTRA.POLAR>
0

>  <SCORE.INTRA.POLAR.0>
0

>  <SCORE.INTRA.REPUL>
0

>  <SCORE.INTRA.REPUL.0>
0

>  <SCORE.INTRA.SOLV>
1.02278

>  <SCORE.INTRA.SOLV.lig_0>
-77.2465

>  <SCORE.INTRA.VDW>
4.93837

>  <SCORE.INTRA.VDW.0>
-4.16072

>  <SCORE.INTRA.norm>
0.103308

>  <SCORE.RESTR>
11.4717

>  <SCORE.RESTR.CAVITY>
11.4717

>  <SCORE.RESTR.norm>
0.370055

>  <SCORE.SYSTEM>
0

>  <SCORE.SYSTEM.CONST>
0

>  <SCORE.SYSTEM.DIHEDRAL>
0

>  <SCORE.SYSTEM.SOLV>
0

>  <SCORE.SYSTEM.norm>
0

>  <SCORE.heavy>
31

>  <SCORE.norm>
0.697081

>  <RMSD>
9.156

$$$$
ligand
 OpenBabel11021811493D
libRbt.so/2013.1/901 2013/11/27
 31 33  0  0  0  0  0  0  0  0999 V2000
   -5.4231  -12.2811  -17.6643 C   0  0  2  0  0  0  0  0  0  0  0  0
   -6.7677  -11.8029  -17.5234 O   0  0  0  0  0  0  0  0  0  0  0  0
   -7.5721  -10.2570  -21.4332 C   0  0  2  0  0  0  0  0  0  0  0  0
   -8.2909   -9.7742  -22.5726 N   0  0  0  0  0  0  0  0  0  0  0  0
   -6.3371   -7.7046  -21.4380 C   0  0  2  0  0  0  0  0  0  0  0  0
   -4.8248  -12.3504  -16.2155 C   0  0  2  0  0  0  0  0  0  0  0  0
   -5.6491  -13.2199  -15.3834 N   0  0  0  0  0  0  0  0  0  0  0  0
   -8.0409  -11.7304  -21.1212 C   0  0  0  0  0  0  0  0  0  0  0  0
   -5.7796   -6.3255  -20.9683 C   0  0  2  0  0  0  0  0  0  0  0  0
   -5.3105   -6.4466  -19.6363 O   0  0  0  0  0  0  0  0  0  0  0  0
   -4.7466  -10.9084  -15.6038 C   0  0  0  0  0  0  0  0  0  0  0  0
   -7.2360  -12.2683  -19.8603 C   0  0  2  0  0  0  0  0  0  0  0  0
   -7.6695  -13.6521  -19.5565 N   0  0  0  0  0  0  0  0  0  0  0  0
   -6.9787   -5.2812  -21.0576 C   0  0  1  0  0  0  0  0  0  0  0  0
   -6.5358   -3.9243  -20.5887 N   0  0  0  0  0  0  0  0  0  0  0  0
   -4.1171   -9.9099  -16.6178 C   0  0  0  0  0  0  0  0  0  0  0  0
   -7.5071  -11.3174  -18.6108 C   0  0  2  0  0  0  0  0  0  0  0  0
   -7.4815   -5.1755  -22.6032 C   0  0  1  0  0  0  0  0  0  0  0  0
   -6.4525   -4.7360  -23.4686 O   0  0  0  0  0  0  0  0  0  0  0  0
   -4.0824  -10.1874  -17.9298 C   0  0  2  0  0  0  0  0  0  0  0  0
   -4.6071  -11.4016  -18.4948 O   0  0  0  0  0  0  0  0  0  0  0  0
   -7.0521   -9.8408  -18.9689 C   0  0  2  0  0  0  0  0  0  0  0  0
   -7.3135   -8.9701  -17.8610 O   0  0  0  0  0  0  0  0  0  0  0  0
   -7.9452   -6.5886  -23.0935 C   0  0  0  0  0  0  0  0  0  0  0  0
   -6.8409   -7.6047  -22.8549 O   0  0  0  0  0  0  0  0  0  0  0  0
   -3.4589   -9.2093  -18.9527 C   0  0  0  0  0  0  0  0  0  0  0  0
   -4.4428   -8.8818  -19.9750 N   0  0  0  0  0  0  0  0  0  0  0  0
   -7.8547   -9.3251  -20.2178 C   0  0  1  0  0  0  0  0  0  0  0  0
   -7.4206   -8.0179  -20.5071 O   0  0  0  0  0  0  0  0  0  0  0  0
   -8.6462   -4.2052  -22.8612 C   0  0  0  0  0  0  0  0  0  0  0  0
   -6.5663   -3.6929  -19.1321 C   0  0  0  0  0  0  0  0  0  0  0  0
  1  2  1  1  0  0  0
  1  6  1  0  0  0  0
  1 21  1  0  0  0  0
  3  4  1  6  0  0  0
  3  8  1  0  0  0  0
  3 28  1  0  0  0  0
  5  9  1  0  0  0  0
  5 25  1  0  0  0  0
  5 29  1  1  0  0  0
  6  7  1  1  0  0  0
  6 11  1  0  0  0  0
  8 12  1  0  0  0  0
  9 10  1  1  0  0  0
  9 14  1  0  0  0  0
 11 16  1  0  0  0  0
 12 13  1  1  0  0  0
 12 17  1  0  0  0  0
 14 15  1  6  0  0  0
 14 18  1  0  0  0  0
 15 31  1  0  0  0  0
 16 20  1  0  0  0  0
 17  2  1  1  0  0  0
 17 22  1  0  0  0  0
 18 19  1  6  0  0  0
 18 24  1  0  0  0  0
 18 30  1  0  0  0  0
 20 21  1  0  0  0  0
 20 26  1  1  0  0  0
 22 23  1  1  0  0  0
 22 28  1  0  0  0  0
 24 25  1  0  0  0  0
 26 27  1  0  0  0  0
 28 29  1  6  0  0  0
M  END
>  <CHROM.1>
164.65858722,-154.55483543,-83.59548073,41.46092122,-123.88239109,-27.45497600
-6.41725640,-8.89285130,-19.77547781,1.27168463,0.93186453,2.77722217

>  <Name>
ligand

>  <RI>
0

>  <Rbt.Current_Directory>
/home/itssahil/PROJECTS/Mol_Feturizer/New_Systems/rnas/4F8U

>  <Rbt.Executable>
rbdock ($Id: //depot/dev/client3/rdock/2013.1/src/exe/rbdock.cxx#4 $)

>  <Rbt.Library>
libRbt.so (2013.1, Build901 2013/11/27)

>  <Rbt.Parameter_File>
/export/apps/rDock/src/rDock_2013.1_src/data/scripts/dock_solv.prm

>  <Rbt.Receptor>
prm/blind_docking_60.prm

>  <SCORE>
19.0529

>  <SCORE.INTER>
-5.6486

>  <SCORE.INTER.CONST>
1

>  <SCORE.INTER.POLAR>
0

>  <SCORE.INTER.ROT>
6

>  <SCORE.INTER.SOLV>
20.5802

>  <SCORE.INTER.VDW>
-18.2258

>  <SCORE.INTER.norm>
-0.182213

>  <SCORE.INTRA>
2.13907

>  <SCORE.INTRA.DIHEDRAL>
-7.17116

>  <SCORE.INTRA.DIHEDRAL.0>
18.77

>  <SCORE.INTRA.POLAR>
0

>  <SCORE.INTRA.POLAR.0>
0

>  <SCORE.INTRA.REPUL>
0

>  <SCORE.INTRA.REPUL.0>
0

>  <SCORE.INTRA.SOLV>
7.92

>  <SCORE.INTRA.SOLV.lig_0>
-77.2465

>  <SCORE.INTRA.VDW>
1.76465

>  <SCORE.INTRA.VDW.0>
-4.16072

>  <SCORE.INTRA.norm>
0.0690023

>  <SCORE.RESTR>
22.5625

>  <SCORE.RESTR.CAVITY>
22.5625

>  <SCORE.RESTR.norm>
0.727821

>  <SCORE.SYSTEM>
0

>  <SCORE.SYSTEM.CONST>
0

>  <SCORE.SYSTEM.DIHEDRAL>
0

>  <SCORE.SYSTEM.SOLV>
0

>  <SCORE.SYSTEM.norm>
0

>  <SCORE.heavy>
31

>  <SCORE.norm>
0.614611

>  <RMSD>
9.163

$$$$
ligand
 OpenBabel11021811493D
libRbt.so/2013.1/901 2013/11/27
 31 33  0  0  0  0  0  0  0  0999 V2000
   -5.5706  -12.5874   -9.8709 C   0  0  2  0  0  0  0  0  0  0  0  0
   -5.6561  -11.3286  -10.5527 O   0  0  0  0  0  0  0  0  0  0  0  0
   -8.2903   -9.2286  -13.1936 C   0  0  2  0  0  0  0  0  0  0  0  0
   -9.4949   -8.7346  -13.7877 N   0  0  0  0  0  0  0  0  0  0  0  0
   -8.6339   -6.5409  -10.5329 C   0  0  2  0  0  0  0  0  0  0  0  0
   -4.1553  -12.6282   -9.1947 C   0  0  2  0  0  0  0  0  0  0  0  0
   -4.0055  -11.4884   -8.2968 N   0  0  0  0  0  0  0  0  0  0  0  0
   -8.3004  -10.8047  -13.2553 C   0  0  0  0  0  0  0  0  0  0  0  0
  -10.0453   -7.0978  -10.1711 C   0  0  2  0  0  0  0  0  0  0  0  0
   -9.9300   -8.4728   -9.8472 O   0  0  0  0  0  0  0  0  0  0  0  0
   -3.0397  -12.6166  -10.2970 C   0  0  0  0  0  0  0  0  0  0  0  0
   -6.9582  -11.3519  -12.6023 C   0  0  2  0  0  0  0  0  0  0  0  0
   -6.9572  -12.8327  -12.6531 N   0  0  0  0  0  0  0  0  0  0  0  0
  -10.9724   -6.8889  -11.4490 C   0  0  1  0  0  0  0  0  0  0  0  0
  -12.3509   -7.4313  -11.1981 N   0  0  0  0  0  0  0  0  0  0  0  0
   -3.3557  -13.6508  -11.4159 C   0  0  0  0  0  0  0  0  0  0  0  0
   -6.8579  -10.8506  -11.0932 C   0  0  2  0  0  0  0  0  0  0  0  0
  -11.0755   -5.2976  -11.7804 C   0  0  1  0  0  0  0  0  0  0  0  0
  -11.6369   -4.5661  -10.7077 O   0  0  0  0  0  0  0  0  0  0  0  0
   -4.6002  -14.1199  -11.5918 C   0  0  2  0  0  0  0  0  0  0  0  0
   -5.7176  -13.7199  -10.7793 O   0  0  0  0  0  0  0  0  0  0  0  0
   -6.8799   -9.2649  -11.0663 C   0  0  2  0  0  0  0  0  0  0  0  0
   -6.8147   -8.8014   -9.7117 O   0  0  0  0  0  0  0  0  0  0  0  0
   -9.6398   -4.7306  -12.0438 C   0  0  0  0  0  0  0  0  0  0  0  0
   -8.7272   -5.0771  -10.8794 O   0  0  0  0  0  0  0  0  0  0  0  0
   -4.9336  -15.1498  -12.6962 C   0  0  0  0  0  0  0  0  0  0  0  0
   -3.7406  -15.9194  -13.0201 N   0  0  0  0  0  0  0  0  0  0  0  0
   -8.2107   -8.7404  -11.7169 C   0  0  1  0  0  0  0  0  0  0  0  0
   -8.1908   -7.3335  -11.6794 O   0  0  0  0  0  0  0  0  0  0  0  0
  -11.9373   -4.9239  -12.9979 C   0  0  0  0  0  0  0  0  0  0  0  0
  -13.0248   -6.9647   -9.9716 C   0  0  0  0  0  0  0  0  0  0  0  0
  1  2  1  6  0  0  0
  1  6  1  0  0  0  0
  1 21  1  0  0  0  0
  3  4  1  1  0  0  0
  3  8  1  0  0  0  0
  3 28  1  0  0  0  0
  5  9  1  0  0  0  0
  5 25  1  0  0  0  0
  5 29  1  6  0  0  0
  6  7  1  1  0  0  0
  6 11  1  0  0  0  0
  8 12  1  0  0  0  0
  9 10  1  6  0  0  0
  9 14  1  0  0  0  0
 11 16  1  0  0  0  0
 12 13  1  1  0  0  0
 12 17  1  0  0  0  0
 14 15  1  1  0  0  0
 14 18  1  0  0  0  0
 15 31  1  0  0  0  0
 16 20  1  0  0  0  0
 17  2  1  6  0  0  0
 17 22  1  0  0  0  0
 18 19  1  1  0  0  0
 18 24  1  0  0  0  0
 18 30  1  0  0  0  0
 20 21  1  0  0  0  0
 20 26  1  1  0  0  0
 22 23  1  1  0  0  0
 22 28  1  0  0  0  0
 24 25  1  0  0  0  0
 26 27  1  0  0  0  0
 28 29  1  6  0  0  0
M  END
>  <CHROM.1>
-169.59985248,-50.42212693,51.99409970,-90.81055201,25.71226330,155.17258103
-7.75939184,-9.60794521,-11.27253573,-0.60718831,-0.67572418,0.71625717

>  <Name>
ligand

>  <RI>
0

>  <Rbt.Current_Directory>
/home/itssahil/PROJECTS/Mol_Feturizer/New_Systems/rnas/4F8U

>  <Rbt.Executable>
rbdock ($Id: //depot/dev/client3/rdock/2013.1/src/exe/rbdock.cxx#4 $)

>  <Rbt.Library>
libRbt.so (2013.1, Build901 2013/11/27)

>  <Rbt.Parameter_File>
/export/apps/rDock/src/rDock_2013.1_src/data/scripts/dock_solv.prm

>  <Rbt.Receptor>
prm/blind_docking_20.prm

>  <SCORE>
17.3918

>  <SCORE.INTER>
1.24499

>  <SCORE.INTER.CONST>
1

>  <SCORE.INTER.POLAR>
0

>  <SCORE.INTER.ROT>
6

>  <SCORE.INTER.SOLV>
17.5711

>  <SCORE.INTER.VDW>
-12.627

>  <SCORE.INTER.norm>
0.0401611

>  <SCORE.INTRA>
2.83493

>  <SCORE.INTRA.DIHEDRAL>
-8.93796

>  <SCORE.INTRA.DIHEDRAL.0>
18.77

>  <SCORE.INTRA.POLAR>
0

>  <SCORE.INTRA.POLAR.0>
0

>  <SCORE.INTRA.REPUL>
0

>  <SCORE.INTRA.REPUL.0>
0

>  <SCORE.INTRA.SOLV>
4.00878

>  <SCORE.INTRA.SOLV.lig_0>
-77.2465

>  <SCORE.INTRA.VDW>
5.29952

>  <SCORE.INTRA.VDW.0>
-4.16072

>  <SCORE.INTRA.norm>
0.0914493

>  <SCORE.RESTR>
13.3118

>  <SCORE.RESTR.CAVITY>
13.3118

>  <SCORE.RESTR.norm>
0.429414

>  <SCORE.SYSTEM>
0

>  <SCORE.SYSTEM.CONST>
0

>  <SCORE.SYSTEM.DIHEDRAL>
0

>  <SCORE.SYSTEM.SOLV>
0

>  <SCORE.SYSTEM.norm>
0

>  <SCORE.heavy>
31

>  <SCORE.norm>
0.561025

>  <RMSD>
9.166

$$$$
ligand
 OpenBabel11021811493D
libRbt.so/2013.1/901 2013/11/27
 31 33  0  0  0  0  0  0  0  0999 V2000
   -5.7731  -11.5012  -17.6875 C   0  0  2  0  0  0  0  0  0  0  0  0
   -7.1601  -11.5638  -18.0462 O   0  0  0  0  0  0  0  0  0  0  0  0
   -6.9252  -11.3266  -22.3138 C   0  0  2  0  0  0  0  0  0  0  0  0
   -7.3188  -11.3259  -23.6897 N   0  0  0  0  0  0  0  0  0  0  0  0
   -8.2193   -7.7810  -22.1711 C   0  0  2  0  0  0  0  0  0  0  0  0
   -5.7110  -10.8035  -16.2834 C   0  0  2  0  0  0  0  0  0  0  0  0
   -6.5092  -11.5575  -15.3231 N   0  0  0  0  0  0  0  0  0  0  0  0
   -7.2883  -12.7248  -21.6803 C   0  0  0  0  0  0  0  0  0  0  0  0
   -7.5552   -6.7807  -23.1669 C   0  0  2  0  0  0  0  0  0  0  0  0
   -7.4459   -7.3984  -24.4378 O   0  0  0  0  0  0  0  0  0  0  0  0
   -6.2309   -9.3284  -16.4001 C   0  0  0  0  0  0  0  0  0  0  0  0
   -6.8433  -12.7272  -20.1541 C   0  0  2  0  0  0  0  0  0  0  0  0
   -7.1812  -14.0360  -19.5475 N   0  0  0  0  0  0  0  0  0  0  0  0
   -6.1181   -6.4226  -22.5815 C   0  0  1  0  0  0  0  0  0  0  0  0
   -5.3902   -5.4834  -23.5010 N   0  0  0  0  0  0  0  0  0  0  0  0
   -5.5802   -8.6061  -17.6152 C   0  0  0  0  0  0  0  0  0  0  0  0
   -7.5891  -11.5506  -19.3806 C   0  0  2  0  0  0  0  0  0  0  0  0
   -6.2950   -5.7156  -21.1249 C   0  0  1  0  0  0  0  0  0  0  0  0
   -7.0470   -4.5199  -21.2018 O   0  0  0  0  0  0  0  0  0  0  0  0
   -5.0267   -9.3039  -18.6184 C   0  0  2  0  0  0  0  0  0  0  0  0
   -4.9855  -10.7412  -18.6526 O   0  0  0  0  0  0  0  0  0  0  0  0
   -7.2256  -10.1647  -20.0608 C   0  0  2  0  0  0  0  0  0  0  0  0
   -7.9101   -9.0998  -19.3889 O   0  0  0  0  0  0  0  0  0  0  0  0
   -7.0520   -6.6936  -20.1644 C   0  0  0  0  0  0  0  0  0  0  0  0
   -8.3505   -7.1475  -20.8099 O   0  0  0  0  0  0  0  0  0  0  0  0
   -4.3729   -8.6045  -19.8329 C   0  0  0  0  0  0  0  0  0  0  0  0
   -2.9434   -8.8820  -19.8428 N   0  0  0  0  0  0  0  0  0  0  0  0
   -7.6694  -10.1795  -21.5683 C   0  0  1  0  0  0  0  0  0  0  0  0
   -7.3262   -8.9387  -22.1372 O   0  0  0  0  0  0  0  0  0  0  0  0
   -4.9915   -5.3093  -20.4176 C   0  0  0  0  0  0  0  0  0  0  0  0
   -3.9166   -5.5357  -23.4576 C   0  0  0  0  0  0  0  0  0  0  0  0
  1  2  1  6  0  0  0
  1  6  1  0  0  0  0
  1 21  1  0  0  0  0
  3  4  1  6  0  0  0
  3  8  1  0  0  0  0
  3 28  1  0  0  0  0
  5  9  1  0  0  0  0
  5 25  1  0  0  0  0
  5 29  1  1  0  0  0
  6  7  1  1  0  0  0
  6 11  1  0  0  0  0
  8 12  1  0  0  0  0
  9 10  1  6  0  0  0
  9 14  1  0  0  0  0
 11 16  1  0  0  0  0
 12 13  1  1  0  0  0
 12 17  1  0  0  0  0
 14 15  1  6  0  0  0
 14 18  1  0  0  0  0
 15 31  1  0  0  0  0
 16 20  1  0  0  0  0
 17  2  1  1  0  0  0
 17 22  1  0  0  0  0
 18 19  1  6  0  0  0
 18 24  1  0  0  0  0
 18 30  1  0  0  0  0
 20 21  1  0  0  0  0
 20 26  1  1  0  0  0
 22 23  1  1  0  0  0
 22 28  1  0  0  0  0
 24 25  1  0  0  0  0
 26 27  1  0  0  0  0
 28 29  1  6  0  0  0
M  END
>  <CHROM.1>
150.97097861,-167.19729183,-153.09504600,54.58721323,114.57884590,149.77071729
-6.45603887,-9.04847114,-20.37653753,-1.62108275,-1.16213677,-0.72796089

>  <Name>
ligand

>  <RI>
0

>  <Rbt.Current_Directory>
/home/itssahil/PROJECTS/Mol_Feturizer/New_Systems/rnas/4F8U

>  <Rbt.Executable>
rbdock ($Id: //depot/dev/client3/rdock/2013.1/src/exe/rbdock.cxx#4 $)

>  <Rbt.Library>
libRbt.so (2013.1, Build901 2013/11/27)

>  <Rbt.Parameter_File>
/export/apps/rDock/src/rDock_2013.1_src/data/scripts/dock_solv.prm

>  <Rbt.Receptor>
prm/blind_docking_60.prm

>  <SCORE>
18.3197

>  <SCORE.INTER>
0.519058

>  <SCORE.INTER.CONST>
1

>  <SCORE.INTER.POLAR>
0

>  <SCORE.INTER.ROT>
6

>  <SCORE.INTER.SOLV>
27.5395

>  <SCORE.INTER.VDW>
-16.4338

>  <SCORE.INTER.norm>
0.0167438

>  <SCORE.INTRA>
-1.04598

>  <SCORE.INTRA.DIHEDRAL>
-8.56253

>  <SCORE.INTRA.DIHEDRAL.0>
18.77

>  <SCORE.INTRA.POLAR>
0

>  <SCORE.INTRA.POLAR.0>
0

>  <SCORE.INTRA.REPUL>
0

>  <SCORE.INTRA.REPUL.0>
0

>  <SCORE.INTRA.SOLV>
-0.590728

>  <SCORE.INTRA.SOLV.lig_0>
-77.2465

>  <SCORE.INTRA.VDW>
3.53065

>  <SCORE.INTRA.VDW.0>
-4.16072

>  <SCORE.INTRA.norm>
-0.0337412

>  <SCORE.RESTR>
18.8466

>  <SCORE.RESTR.CAVITY>
18.8466

>  <SCORE.RESTR.norm>
0.607955

>  <SCORE.SYSTEM>
0

>  <SCORE.SYSTEM.CONST>
0

>  <SCORE.SYSTEM.DIHEDRAL>
0

>  <SCORE.SYSTEM.SOLV>
0

>  <SCORE.SYSTEM.norm>
0

>  <SCORE.heavy>
31

>  <SCORE.norm>
0.590958

>  <RMSD>
9.175

$$$$
ligand
 OpenBabel11021811493D
libRbt.so/2013.1/901 2013/11/27
 31 33  0  0  0  0  0  0  0  0999 V2000
   -3.8207  -11.5320  -10.6393 C   0  0  2  0  0  0  0  0  0  0  0  0
   -5.1304  -12.0834  -10.8323 O   0  0  0  0  0  0  0  0  0  0  0  0
   -9.1117  -10.9536   -9.7384 C   0  0  2  0  0  0  0  0  0  0  0  0
  -10.2478  -10.6199   -8.9348 N   0  0  0  0  0  0  0  0  0  0  0  0
   -8.0731   -7.9681  -11.0589 C   0  0  2  0  0  0  0  0  0  0  0  0
   -3.3502  -11.0098  -12.0421 C   0  0  2  0  0  0  0  0  0  0  0  0
   -4.3058  -10.0312  -12.5491 N   0  0  0  0  0  0  0  0  0  0  0  0
   -8.6439  -12.4161   -9.3777 C   0  0  0  0  0  0  0  0  0  0  0  0
   -8.7728   -6.5762  -10.9800 C   0  0  2  0  0  0  0  0  0  0  0  0
   -8.2643   -5.8664   -9.8636 O   0  0  0  0  0  0  0  0  0  0  0  0
   -3.2087  -12.2141  -13.0368 C   0  0  0  0  0  0  0  0  0  0  0  0
   -7.3867  -12.7886  -10.2766 C   0  0  2  0  0  0  0  0  0  0  0  0
   -6.9370  -14.1609   -9.9451 N   0  0  0  0  0  0  0  0  0  0  0  0
  -10.3342   -6.8459  -10.8211 C   0  0  1  0  0  0  0  0  0  0  0  0
  -11.0865   -5.5507  -10.7036 N   0  0  0  0  0  0  0  0  0  0  0  0
   -2.4216  -13.3851  -12.3806 C   0  0  0  0  0  0  0  0  0  0  0  0
   -6.2140  -11.7433  -10.0106 C   0  0  2  0  0  0  0  0  0  0  0  0
  -10.8716   -7.6605  -12.1252 C   0  0  1  0  0  0  0  0  0  0  0  0
  -10.6719   -6.9367  -13.3240 O   0  0  0  0  0  0  0  0  0  0  0  0
   -2.3018  -13.4757  -11.0475 C   0  0  2  0  0  0  0  0  0  0  0  0
   -2.8727  -12.5206  -10.1361 O   0  0  0  0  0  0  0  0  0  0  0  0
   -6.7272  -10.2826  -10.3551 C   0  0  2  0  0  0  0  0  0  0  0  0
   -5.6886   -9.3295  -10.0966 O   0  0  0  0  0  0  0  0  0  0  0  0
  -10.0898   -9.0117  -12.2486 C   0  0  0  0  0  0  0  0  0  0  0  0
   -8.5941   -8.7442  -12.2411 O   0  0  0  0  0  0  0  0  0  0  0  0
   -1.5214  -14.6302  -10.3767 C   0  0  0  0  0  0  0  0  0  0  0  0
   -1.1241  -15.6005  -11.3872 N   0  0  0  0  0  0  0  0  0  0  0  0
   -7.9704   -9.9310   -9.4604 C   0  0  1  0  0  0  0  0  0  0  0  0
   -8.3990   -8.6336   -9.7980 O   0  0  0  0  0  0  0  0  0  0  0  0
  -12.3700   -8.0059  -12.1255 C   0  0  0  0  0  0  0  0  0  0  0  0
  -11.6683   -5.2491   -9.3819 C   0  0  0  0  0  0  0  0  0  0  0  0
  1  2  1  6  0  0  0
  1  6  1  0  0  0  0
  1 21  1  0  0  0  0
  3  4  1  1  0  0  0
  3  8  1  0  0  0  0
  3 28  1  0  0  0  0
  5  9  1  0  0  0  0
  5 25  1  0  0  0  0
  5 29  1  1  0  0  0
  6  7  1  6  0  0  0
  6 11  1  0  0  0  0
  8 12  1  0  0  0  0
  9 10  1  1  0  0  0
  9 14  1  0  0  0  0
 11 16  1  0  0  0  0
 12 13  1  1  0  0  0
 12 17  1  0  0  0  0
 14 15  1  6  0  0  0
 14 18  1  0  0  0  0
 15 31  1  0  0  0  0
 16 20  1  0  0  0  0
 17  2  1  6  0  0  0
 17 22  1  0  0  0  0
 18 19  1  6  0  0  0
 18 24  1  0  0  0  0
 18 30  1  0  0  0  0
 20 21  1  0  0  0  0
 20 26  1  6  0  0  0
 22 23  1  1  0  0  0
 22 28  1  0  0  0  0
 24 25  1  0  0  0  0
 26 27  1  0  0  0  0
 28 29  1  6  0  0  0
M  END
>  <CHROM.1>
-130.30096265,179.41119444,-109.86333204,-166.24817987,-6.54035380,-98.74766187
-7.05277353,-10.14586709,-10.88226699,-0.62887929,0.31259816,-0.37589590

>  <Name>
ligand

>  <RI>
0

>  <Rbt.Current_Directory>
/home/itssahil/PROJECTS/Mol_Feturizer/New_Systems/rnas/4F8U

>  <Rbt.Executable>
rbdock ($Id: //depot/dev/client3/rdock/2013.1/src/exe/rbdock.cxx#4 $)

>  <Rbt.Library>
libRbt.so (2013.1, Build901 2013/11/27)

>  <Rbt.Parameter_File>
/export/apps/rDock/src/rDock_2013.1_src/data/scripts/dock_solv.prm

>  <Rbt.Receptor>
prm/blind_docking_20.prm

>  <SCORE>
12.3304

>  <SCORE.INTER>
2.39623

>  <SCORE.INTER.CONST>
1

>  <SCORE.INTER.POLAR>
0

>  <SCORE.INTER.ROT>
6

>  <SCORE.INTER.SOLV>
18.3489

>  <SCORE.INTER.VDW>
-12.1188

>  <SCORE.INTER.norm>
0.0772977

>  <SCORE.INTRA>
0.727712

>  <SCORE.INTRA.DIHEDRAL>
-3.13847

>  <SCORE.INTRA.DIHEDRAL.0>
18.77

>  <SCORE.INTRA.POLAR>
0

>  <SCORE.INTRA.POLAR.0>
0

>  <SCORE.INTRA.REPUL>
0

>  <SCORE.INTRA.REPUL.0>
0

>  <SCORE.INTRA.SOLV>
0.0819866

>  <SCORE.INTRA.SOLV.lig_0>
-77.2465

>  <SCORE.INTRA.VDW>
2.25595

>  <SCORE.INTRA.VDW.0>
-4.16072

>  <SCORE.INTRA.norm>
0.0234746

>  <SCORE.RESTR>
9.20642

>  <SCORE.RESTR.CAVITY>
9.20642

>  <SCORE.RESTR.norm>
0.296981

>  <SCORE.SYSTEM>
0

>  <SCORE.SYSTEM.CONST>
0

>  <SCORE.SYSTEM.DIHEDRAL>
0

>  <SCORE.SYSTEM.SOLV>
0

>  <SCORE.SYSTEM.norm>
0

>  <SCORE.heavy>
31

>  <SCORE.norm>
0.397754

>  <RMSD>
9.181

$$$$
ligand
 OpenBabel11021811493D
libRbt.so/2013.1/901 2013/11/27
 31 33  0  0  0  0  0  0  0  0999 V2000
   -6.1293  -10.3564  -25.8035 C   0  0  2  0  0  0  0  0  0  0  0  0
   -7.1706   -9.9694  -24.8967 O   0  0  0  0  0  0  0  0  0  0  0  0
   -8.1185  -10.0774  -20.7237 C   0  0  2  0  0  0  0  0  0  0  0  0
   -7.9587  -10.0519  -19.3018 N   0  0  0  0  0  0  0  0  0  0  0  0
   -7.9836   -6.8282  -19.6716 C   0  0  2  0  0  0  0  0  0  0  0  0
   -6.1886   -9.3452  -27.0018 C   0  0  2  0  0  0  0  0  0  0  0  0
   -6.0276   -7.9831  -26.5051 N   0  0  0  0  0  0  0  0  0  0  0  0
   -7.2733  -11.2730  -21.3105 C   0  0  0  0  0  0  0  0  0  0  0  0
   -6.5614   -6.3144  -20.0542 C   0  0  2  0  0  0  0  0  0  0  0  0
   -6.6464   -5.5758  -21.2609 O   0  0  0  0  0  0  0  0  0  0  0  0
   -7.5520   -9.5013  -27.7612 C   0  0  0  0  0  0  0  0  0  0  0  0
   -7.4580  -11.3051  -22.8891 C   0  0  2  0  0  0  0  0  0  0  0  0
   -6.6666  -12.4241  -23.4520 N   0  0  0  0  0  0  0  0  0  0  0  0
   -5.6337   -7.5962  -20.2346 C   0  0  1  0  0  0  0  0  0  0  0  0
   -4.2443   -7.1923  -20.6389 N   0  0  0  0  0  0  0  0  0  0  0  0
   -7.8615  -11.0003  -28.0414 C   0  0  0  0  0  0  0  0  0  0  0  0
   -6.9746   -9.9194  -23.5096 C   0  0  2  0  0  0  0  0  0  0  0  0
   -5.5658   -8.4098  -18.8252 C   0  0  1  0  0  0  0  0  0  0  0  0
   -5.0261   -7.6219  -17.7817 O   0  0  0  0  0  0  0  0  0  0  0  0
   -7.2613  -11.9729  -27.3388 C   0  0  2  0  0  0  0  0  0  0  0  0
   -6.3029  -11.7186  -26.2968 O   0  0  0  0  0  0  0  0  0  0  0  0
   -7.8239   -8.7386  -22.8771 C   0  0  2  0  0  0  0  0  0  0  0  0
   -7.3818   -7.4834  -23.4094 O   0  0  0  0  0  0  0  0  0  0  0  0
   -7.0130   -8.8332  -18.4028 C   0  0  0  0  0  0  0  0  0  0  0  0
   -7.9225   -7.6161  -18.3882 O   0  0  0  0  0  0  0  0  0  0  0  0
   -7.5536  -13.4681  -27.6041 C   0  0  0  0  0  0  0  0  0  0  0  0
   -8.9847  -13.7119  -27.4899 N   0  0  0  0  0  0  0  0  0  0  0  0
   -7.6325   -8.7221  -21.3174 C   0  0  1  0  0  0  0  0  0  0  0  0
   -8.4033   -7.6674  -20.7935 O   0  0  0  0  0  0  0  0  0  0  0  0
   -4.7075   -9.6856  -18.8317 C   0  0  0  0  0  0  0  0  0  0  0  0
   -4.0808   -6.7028  -22.0209 C   0  0  0  0  0  0  0  0  0  0  0  0
  1  2  1  1  0  0  0
  1  6  1  0  0  0  0
  1 21  1  0  0  0  0
  3  4  1  1  0  0  0
  3  8  1  0  0  0  0
  3 28  1  0  0  0  0
  5  9  1  0  0  0  0
  5 25  1  0  0  0  0
  5 29  1  6  0  0  0
  6  7  1  1  0  0  0
  6 11  1  0  0  0  0
  8 12  1  0  0  0  0
  9 10  1  6  0  0  0
  9 14  1  0  0  0  0
 11 16  1  0  0  0  0
 12 13  1  6  0  0  0
 12 17  1  0  0  0  0
 14 15  1  1  0  0  0
 14 18  1  0  0  0  0
 15 31  1  0  0  0  0
 16 20  1  0  0  0  0
 17  2  1  6  0  0  0
 17 22  1  0  0  0  0
 18 19  1  1  0  0  0
 18 24  1  0  0  0  0
 18 30  1  0  0  0  0
 20 21  1  0  0  0  0
 20 26  1  6  0  0  0
 22 23  1  6  0  0  0
 22 28  1  0  0  0  0
 24 25  1  0  0  0  0
 26 27  1  0  0  0  0
 28 29  1  1  0  0  0
M  END
>  <CHROM.1>
-136.41306320,52.23034534,-72.44201864,-94.66478753,-55.56432718,97.87716853
-6.83538359,-9.29232715,-22.69938374,-1.91838110,1.23492300,1.44611343

>  <Name>
ligand

>  <RI>
0

>  <Rbt.Current_Directory>
/home/itssahil/PROJECTS/Mol_Feturizer/New_Systems/rnas/4F8U

>  <Rbt.Executable>
rbdock ($Id: //depot/dev/client3/rdock/2013.1/src/exe/rbdock.cxx#4 $)

>  <Rbt.Library>
libRbt.so (2013.1, Build901 2013/11/27)

>  <Rbt.Parameter_File>
/export/apps/rDock/src/rDock_2013.1_src/data/scripts/dock_solv.prm

>  <Rbt.Receptor>
prm/blind_docking_100.prm

>  <SCORE>
33.8214

>  <SCORE.INTER>
-1.45967

>  <SCORE.INTER.CONST>
1

>  <SCORE.INTER.POLAR>
0

>  <SCORE.INTER.ROT>
6

>  <SCORE.INTER.SOLV>
35.4773

>  <SCORE.INTER.VDW>
-20.3989

>  <SCORE.INTER.norm>
-0.047086

>  <SCORE.INTRA>
25.1954

>  <SCORE.INTRA.DIHEDRAL>
0.685567

>  <SCORE.INTRA.DIHEDRAL.0>
18.77

>  <SCORE.INTRA.POLAR>
0

>  <SCORE.INTRA.POLAR.0>
0

>  <SCORE.INTRA.REPUL>
0

>  <SCORE.INTRA.REPUL.0>
0

>  <SCORE.INTRA.SOLV>
6.48775

>  <SCORE.INTRA.SOLV.lig_0>
-77.2465

>  <SCORE.INTRA.VDW>
21.6087

>  <SCORE.INTRA.VDW.0>
-4.16072

>  <SCORE.INTRA.norm>
0.812754

>  <SCORE.RESTR>
10.0857

>  <SCORE.RESTR.CAVITY>
10.0857

>  <SCORE.RESTR.norm>
0.325344

>  <SCORE.SYSTEM>
0

>  <SCORE.SYSTEM.CONST>
0

>  <SCORE.SYSTEM.DIHEDRAL>
0

>  <SCORE.SYSTEM.SOLV>
0

>  <SCORE.SYSTEM.norm>
0

>  <SCORE.heavy>
31

>  <SCORE.norm>
1.09101

>  <RMSD>
9.190

$$$$
ligand
 OpenBabel11021811493D
libRbt.so/2013.1/901 2013/11/27
 31 33  0  0  0  0  0  0  0  0999 V2000
   -6.0831  -10.8801  -25.3580 C   0  0  2  0  0  0  0  0  0  0  0  0
   -7.1690  -10.7341  -24.4328 O   0  0  0  0  0  0  0  0  0  0  0  0
   -8.0672  -10.6248  -20.2489 C   0  0  2  0  0  0  0  0  0  0  0  0
   -7.8951  -10.4972  -18.8339 N   0  0  0  0  0  0  0  0  0  0  0  0
   -8.0261   -7.1396  -19.6364 C   0  0  2  0  0  0  0  0  0  0  0  0
   -5.9036   -9.4845  -26.0522 C   0  0  2  0  0  0  0  0  0  0  0  0
   -5.6522   -8.4614  -25.0434 N   0  0  0  0  0  0  0  0  0  0  0  0
   -7.1583  -11.8045  -20.7688 C   0  0  0  0  0  0  0  0  0  0  0  0
   -6.9260   -6.4272  -20.4823 C   0  0  2  0  0  0  0  0  0  0  0  0
   -7.5009   -5.9662  -21.6930 O   0  0  0  0  0  0  0  0  0  0  0  0
   -7.1856   -9.1377  -26.8867 C   0  0  0  0  0  0  0  0  0  0  0  0
   -7.3564  -11.9504  -22.3394 C   0  0  2  0  0  0  0  0  0  0  0  0
   -6.5055  -13.0554  -22.8397 N   0  0  0  0  0  0  0  0  0  0  0  0
   -5.7851   -7.5016  -20.7658 C   0  0  1  0  0  0  0  0  0  0  0  0
   -4.6936   -6.9056  -21.6089 N   0  0  0  0  0  0  0  0  0  0  0  0
   -7.6219  -10.3489  -27.7609 C   0  0  0  0  0  0  0  0  0  0  0  0
   -6.9626  -10.5822  -23.0547 C   0  0  2  0  0  0  0  0  0  0  0  0
   -5.1553   -7.9993  -19.3486 C   0  0  1  0  0  0  0  0  0  0  0  0
   -4.5810   -6.9329  -18.6179 O   0  0  0  0  0  0  0  0  0  0  0  0
   -7.2091  -11.5926  -27.4737 C   0  0  2  0  0  0  0  0  0  0  0  0
   -6.3475  -11.9029  -26.3647 O   0  0  0  0  0  0  0  0  0  0  0  0
   -7.8743   -9.4145  -22.4881 C   0  0  2  0  0  0  0  0  0  0  0  0
   -7.5130   -8.1731  -23.1064 O   0  0  0  0  0  0  0  0  0  0  0  0
   -6.2911   -8.6223  -18.4689 C   0  0  0  0  0  0  0  0  0  0  0  0
   -7.4414   -7.6381  -18.3398 O   0  0  0  0  0  0  0  0  0  0  0  0
   -7.6296  -12.8085  -28.3319 C   0  0  0  0  0  0  0  0  0  0  0  0
   -8.4853  -13.6862  -27.5459 N   0  0  0  0  0  0  0  0  0  0  0  0
   -7.6687   -9.2850  -20.9355 C   0  0  1  0  0  0  0  0  0  0  0  0
   -8.4956   -8.2454  -20.4703 O   0  0  0  0  0  0  0  0  0  0  0  0
   -4.0359   -9.0489  -19.4477 C   0  0  0  0  0  0  0  0  0  0  0  0
   -4.6041   -5.4332  -21.6190 C   0  0  0  0  0  0  0  0  0  0  0  0
  1  2  1  1  0  0  0
  1  6  1  0  0  0  0
  1 21  1  0  0  0  0
  3  4  1  1  0  0  0
  3  8  1  0  0  0  0
  3 28  1  0  0  0  0
  5  9  1  0  0  0  0
  5 25  1  0  0  0  0
  5 29  1  6  0  0  0
  6  7  1  1  0  0  0
  6 11  1  0  0  0  0
  8 12  1  0  0  0  0
  9 10  1  6  0  0  0
  9 14  1  0  0  0  0
 11 16  1  0  0  0  0
 12 13  1  6  0  0  0
 12 17  1  0  0  0  0
 14 15  1  6  0  0  0
 14 18  1  0  0  0  0
 15 31  1  0  0  0  0
 16 20  1  0  0  0  0
 17  2  1  6  0  0  0
 17 22  1  0  0  0  0
 18 19  1  1  0  0  0
 18 24  1  0  0  0  0
 18 30  1  0  0  0  0
 20 21  1  0  0  0  0
 20 26  1  6  0  0  0
 22 23  1  6  0  0  0
 22 28  1  0  0  0  0
 24 25  1  0  0  0  0
 26 27  1  0  0  0  0
 28 29  1  1  0  0  0
M  END
>  <CHROM.1>
-102.20057996,59.78210805,20.53719288,-106.10347224,-113.34953309,111.96035412
-6.76437265,-9.39319447,-22.57388994,-1.92074228,1.23459110,1.39642895

>  <Name>
ligand

>  <RI>
0

>  <Rbt.Current_Directory>
/home/itssahil/PROJECTS/Mol_Feturizer/New_Systems/rnas/4F8U

>  <Rbt.Executable>
rbdock ($Id: //depot/dev/client3/rdock/2013.1/src/exe/rbdock.cxx#4 $)

>  <Rbt.Library>
libRbt.so (2013.1, Build901 2013/11/27)

>  <Rbt.Parameter_File>
/export/apps/rDock/src/rDock_2013.1_src/data/scripts/dock_solv.prm

>  <Rbt.Receptor>
prm/blind_docking_100.prm

>  <SCORE>
55.3617

>  <SCORE.INTER>
30.664

>  <SCORE.INTER.CONST>
1

>  <SCORE.INTER.POLAR>
0

>  <SCORE.INTER.ROT>
6

>  <SCORE.INTER.SOLV>
35.5658

>  <SCORE.INTER.VDW>
0.987415

>  <SCORE.INTER.norm>
0.989163

>  <SCORE.INTRA>
15.5635

>  <SCORE.INTRA.DIHEDRAL>
2.77211

>  <SCORE.INTRA.DIHEDRAL.0>
18.77

>  <SCORE.INTRA.POLAR>
0

>  <SCORE.INTRA.POLAR.0>
0

>  <SCORE.INTRA.REPUL>
0.0548867

>  <SCORE.INTRA.REPUL.0>
0

>  <SCORE.INTRA.SOLV>
5.69889

>  <SCORE.INTRA.SOLV.lig_0>
-77.2465

>  <SCORE.INTRA.VDW>
11.0535

>  <SCORE.INTRA.VDW.0>
-4.16072

>  <SCORE.INTRA.norm>
0.502047

>  <SCORE.RESTR>
9.1342

>  <SCORE.RESTR.CAVITY>
9.1342

>  <SCORE.RESTR.norm>
0.294651

>  <SCORE.SYSTEM>
0

>  <SCORE.SYSTEM.CONST>
0

>  <SCORE.SYSTEM.DIHEDRAL>
0

>  <SCORE.SYSTEM.SOLV>
0

>  <SCORE.SYSTEM.norm>
0

>  <SCORE.heavy>
31

>  <SCORE.norm>
1.78586

>  <RMSD>
9.193

$$$$
ligand
 OpenBabel11021811493D
libRbt.so/2013.1/901 2013/11/27
 31 33  0  0  0  0  0  0  0  0999 V2000
   -6.0904  -10.8439  -25.3379 C   0  0  2  0  0  0  0  0  0  0  0  0
   -7.1716  -10.8068  -24.3966 O   0  0  0  0  0  0  0  0  0  0  0  0
   -8.0547  -10.6591  -20.2106 C   0  0  2  0  0  0  0  0  0  0  0  0
   -7.8777  -10.5172  -18.7976 N   0  0  0  0  0  0  0  0  0  0  0  0
   -8.0230   -7.1751  -19.6209 C   0  0  2  0  0  0  0  0  0  0  0  0
   -6.0323   -9.4226  -26.0000 C   0  0  2  0  0  0  0  0  0  0  0  0
   -5.8491   -8.4065  -24.9696 N   0  0  0  0  0  0  0  0  0  0  0  0
   -7.1447  -11.8414  -20.7224 C   0  0  0  0  0  0  0  0  0  0  0  0
   -6.9292   -6.4573  -20.4703 C   0  0  2  0  0  0  0  0  0  0  0  0
   -7.5103   -5.9987  -21.6790 O   0  0  0  0  0  0  0  0  0  0  0  0
   -7.3491   -9.1600  -26.8104 C   0  0  0  0  0  0  0  0  0  0  0  0
   -7.3481  -12.0032  -22.2908 C   0  0  2  0  0  0  0  0  0  0  0  0
   -6.4963  -13.1108  -22.7834 N   0  0  0  0  0  0  0  0  0  0  0  0
   -5.7841   -7.5260  -20.7579 C   0  0  1  0  0  0  0  0  0  0  0  0
   -4.6983   -6.9246  -21.6044 N   0  0  0  0  0  0  0  0  0  0  0  0
   -7.6997  -10.3813  -27.7086 C   0  0  0  0  0  0  0  0  0  0  0  0
   -6.9605  -10.6409  -23.0208 C   0  0  2  0  0  0  0  0  0  0  0  0
   -5.1471   -8.0210  -19.3429 C   0  0  1  0  0  0  0  0  0  0  0  0
   -4.5756   -6.9521  -18.6138 O   0  0  0  0  0  0  0  0  0  0  0  0
   -7.1853  -11.5945  -27.4569 C   0  0  2  0  0  0  0  0  0  0  0  0
   -6.2864  -11.8607  -26.3660 O   0  0  0  0  0  0  0  0  0  0  0  0
   -7.8731   -9.4701  -22.4622 C   0  0  2  0  0  0  0  0  0  0  0  0
   -7.5173   -8.2338  -23.0939 O   0  0  0  0  0  0  0  0  0  0  0  0
   -6.2770   -8.6498  -18.4596 C   0  0  0  0  0  0  0  0  0  0  0  0
   -7.4317   -7.6712  -18.3264 O   0  0  0  0  0  0  0  0  0  0  0  0
   -7.5195  -12.8197  -28.3393 C   0  0  0  0  0  0  0  0  0  0  0  0
   -7.5393  -12.4201  -29.7394 N   0  0  0  0  0  0  0  0  0  0  0  0
   -7.6621   -9.3250  -20.9117 C   0  0  1  0  0  0  0  0  0  0  0  0
   -8.4900   -8.2830  -20.4536 O   0  0  0  0  0  0  0  0  0  0  0  0
   -4.0230   -9.0652  -19.4460 C   0  0  0  0  0  0  0  0  0  0  0  0
   -4.5930   -5.4532  -21.5860 C   0  0  0  0  0  0  0  0  0  0  0  0
  1  2  1  1  0  0  0
  1  6  1  0  0  0  0
  1 21  1  0  0  0  0
  3  4  1  1  0  0  0
  3  8  1  0  0  0  0
  3 28  1  0  0  0  0
  5  9  1  0  0  0  0
  5 25  1  0  0  0  0
  5 29  1  6  0  0  0
  6  7  1  1  0  0  0
  6 11  1  0  0  0  0
  8 12  1  0  0  0  0
  9 10  1  6  0  0  0
  9 14  1  0  0  0  0
 11 16  1  0  0  0  0
 12 13  1  6  0  0  0
 12 17  1  0  0  0  0
 14 15  1  6  0  0  0
 14 18  1  0  0  0  0
 15 31  1  0  0  0  0
 16 20  1  0  0  0  0
 17  2  1  6  0  0  0
 17 22  1  0  0  0  0
 18 19  1  1  0  0  0
 18 24  1  0  0  0  0
 18 30  1  0  0  0  0
 20 21  1  0  0  0  0
 20 26  1  6  0  0  0
 22 23  1  6  0  0  0
 22 28  1  0  0  0  0
 24 25  1  0  0  0  0
 26 27  1  0  0  0  0
 28 29  1  1  0  0  0
M  END
>  <CHROM.1>
-100.73380543,60.38501858,22.11768442,-111.58576377,40.45021024,111.31421124
-6.74195465,-9.37474913,-22.61935035,-1.89601769,1.27695071,1.43160165

>  <Name>
ligand

>  <RI>
0

>  <Rbt.Current_Directory>
/home/itssahil/PROJECTS/Mol_Feturizer/New_Systems/rnas/4F8U

>  <Rbt.Executable>
rbdock ($Id: //depot/dev/client3/rdock/2013.1/src/exe/rbdock.cxx#4 $)

>  <Rbt.Library>
libRbt.so (2013.1, Build901 2013/11/27)

>  <Rbt.Parameter_File>
/export/apps/rDock/src/rDock_2013.1_src/data/scripts/dock_solv.prm

>  <Rbt.Receptor>
prm/blind_docking_100.prm

>  <SCORE>
55.711

>  <SCORE.INTER>
29.0493

>  <SCORE.INTER.CONST>
1

>  <SCORE.INTER.POLAR>
0

>  <SCORE.INTER.ROT>
6

>  <SCORE.INTER.SOLV>
32.1875

>  <SCORE.INTER.VDW>
1.03703

>  <SCORE.INTER.norm>
0.937074

>  <SCORE.INTRA>
16.9983

>  <SCORE.INTRA.DIHEDRAL>
4.4167

>  <SCORE.INTRA.DIHEDRAL.0>
18.77

>  <SCORE.INTRA.POLAR>
0

>  <SCORE.INTRA.POLAR.0>
0

>  <SCORE.INTRA.REPUL>
0.0127841

>  <SCORE.INTRA.REPUL.0>
0

>  <SCORE.INTRA.SOLV>
5.93207

>  <SCORE.INTRA.SOLV.lig_0>
-77.2465

>  <SCORE.INTRA.VDW>
11.76

>  <SCORE.INTRA.VDW.0>
-4.16072

>  <SCORE.INTRA.norm>
0.548334

>  <SCORE.RESTR>
9.66338

>  <SCORE.RESTR.CAVITY>
9.66338

>  <SCORE.RESTR.norm>
0.311722

>  <SCORE.SYSTEM>
0

>  <SCORE.SYSTEM.CONST>
0

>  <SCORE.SYSTEM.DIHEDRAL>
0

>  <SCORE.SYSTEM.SOLV>
0

>  <SCORE.SYSTEM.norm>
0

>  <SCORE.heavy>
31

>  <SCORE.norm>
1.79713

>  <RMSD>
9.196

$$$$
ligand
 OpenBabel11021811493D
libRbt.so/2013.1/901 2013/11/27
 31 33  0  0  0  0  0  0  0  0999 V2000
   -3.8579  -12.2491  -10.4949 C   0  0  2  0  0  0  0  0  0  0  0  0
   -5.2141  -12.2198  -10.9601 O   0  0  0  0  0  0  0  0  0  0  0  0
   -9.2092  -11.1692   -9.8380 C   0  0  2  0  0  0  0  0  0  0  0  0
  -10.3186  -10.7322   -9.0467 N   0  0  0  0  0  0  0  0  0  0  0  0
   -8.0192   -8.0023  -11.4493 C   0  0  2  0  0  0  0  0  0  0  0  0
   -3.0513  -11.2749  -11.4235 C   0  0  2  0  0  0  0  0  0  0  0  0
   -3.6391   -9.9410  -11.3668 N   0  0  0  0  0  0  0  0  0  0  0  0
   -8.5755  -12.4476   -9.1656 C   0  0  0  0  0  0  0  0  0  0  0  0
   -8.6245   -6.5865  -11.1991 C   0  0  2  0  0  0  0  0  0  0  0  0
   -8.4184   -6.2294   -9.8430 O   0  0  0  0  0  0  0  0  0  0  0  0
   -3.0531  -11.8199  -12.8941 C   0  0  0  0  0  0  0  0  0  0  0  0
   -7.3481  -12.9368  -10.0498 C   0  0  2  0  0  0  0  0  0  0  0  0
   -6.7433  -14.1372   -9.4265 N   0  0  0  0  0  0  0  0  0  0  0  0
  -10.1786   -6.6762  -11.5352 C   0  0  1  0  0  0  0  0  0  0  0  0
  -10.8513   -5.3557  -11.2881 N   0  0  0  0  0  0  0  0  0  0  0  0
   -2.6981  -13.3347  -12.9239 C   0  0  0  0  0  0  0  0  0  0  0  0
   -6.2708  -11.7678  -10.1576 C   0  0  2  0  0  0  0  0  0  0  0  0
  -10.3644   -7.0868  -13.1003 C   0  0  1  0  0  0  0  0  0  0  0  0
   -9.7817   -6.1375  -13.9722 O   0  0  0  0  0  0  0  0  0  0  0  0
   -2.8226  -14.0953  -11.8259 C   0  0  2  0  0  0  0  0  0  0  0  0
   -3.2791  -13.5870  -10.5602 O   0  0  0  0  0  0  0  0  0  0  0  0
   -6.9484  -10.4907  -10.8099 C   0  0  2  0  0  0  0  0  0  0  0  0
   -5.9955   -9.4232  -10.8902 O   0  0  0  0  0  0  0  0  0  0  0  0
   -9.6652   -8.4639  -13.3596 C   0  0  0  0  0  0  0  0  0  0  0  0
   -8.2223   -8.4063  -12.8870 O   0  0  0  0  0  0  0  0  0  0  0  0
   -2.4724  -15.6016  -11.8347 C   0  0  0  0  0  0  0  0  0  0  0  0
   -1.2200  -15.8141  -11.1229 N   0  0  0  0  0  0  0  0  0  0  0  0
   -8.1600  -10.0216   -9.9258 C   0  0  1  0  0  0  0  0  0  0  0  0
   -8.7368   -8.8931  -10.5380 O   0  0  0  0  0  0  0  0  0  0  0  0
  -11.8167   -7.2208  -13.5873 C   0  0  0  0  0  0  0  0  0  0  0  0
  -11.6851   -5.2626  -10.0747 C   0  0  0  0  0  0  0  0  0  0  0  0
  1  2  1  6  0  0  0
  1  6  1  0  0  0  0
  1 21  1  0  0  0  0
  3  4  1  1  0  0  0
  3  8  1  0  0  0  0
  3 28  1  0  0  0  0
  5  9  1  0  0  0  0
  5 25  1  0  0  0  0
  5 29  1  1  0  0  0
  6  7  1  6  0  0  0
  6 11  1  0  0  0  0
  8 12  1  0  0  0  0
  9 10  1  1  0  0  0
  9 14  1  0  0  0  0
 11 16  1  0  0  0  0
 12 13  1  1  0  0  0
 12 17  1  0  0  0  0
 14 15  1  6  0  0  0
 14 18  1  0  0  0  0
 15 31  1  0  0  0  0
 16 20  1  0  0  0  0
 17  2  1  6  0  0  0
 17 22  1  0  0  0  0
 18 19  1  6  0  0  0
 18 24  1  0  0  0  0
 18 30  1  0  0  0  0
 20 21  1  0  0  0  0
 20 26  1  1  0  0  0
 22 23  1  1  0  0  0
 22 28  1  0  0  0  0
 24 25  1  0  0  0  0
 26 27  1  0  0  0  0
 28 29  1  6  0  0  0
M  END
>  <CHROM.1>
-117.59274900,-146.86960595,-105.06022670,-122.86689888,106.46626997,-143.22341207
-7.02293983,-10.19745545,-11.22156037,-0.65076317,0.46961863,-0.59960509

>  <Name>
ligand

>  <RI>
0

>  <Rbt.Current_Directory>
/home/itssahil/PROJECTS/Mol_Feturizer/New_Systems/rnas/4F8U

>  <Rbt.Executable>
rbdock ($Id: //depot/dev/client3/rdock/2013.1/src/exe/rbdock.cxx#4 $)

>  <Rbt.Library>
libRbt.so (2013.1, Build901 2013/11/27)

>  <Rbt.Parameter_File>
/export/apps/rDock/src/rDock_2013.1_src/data/scripts/dock_solv.prm

>  <Rbt.Receptor>
prm/blind_docking_20.prm

>  <SCORE>
18.7807

>  <SCORE.INTER>
3.88674

>  <SCORE.INTER.CONST>
1

>  <SCORE.INTER.POLAR>
0

>  <SCORE.INTER.ROT>
6

>  <SCORE.INTER.SOLV>
22.6094

>  <SCORE.INTER.VDW>
-12.5453

>  <SCORE.INTER.norm>
0.125379

>  <SCORE.INTRA>
7.41066

>  <SCORE.INTRA.DIHEDRAL>
7.535

>  <SCORE.INTRA.DIHEDRAL.0>
18.77

>  <SCORE.INTRA.POLAR>
0

>  <SCORE.INTRA.POLAR.0>
0

>  <SCORE.INTRA.REPUL>
0

>  <SCORE.INTRA.REPUL.0>
0

>  <SCORE.INTRA.SOLV>
-0.422649

>  <SCORE.INTRA.SOLV.lig_0>
-77.2465

>  <SCORE.INTRA.VDW>
3.85448

>  <SCORE.INTRA.VDW.0>
-4.16072

>  <SCORE.INTRA.norm>
0.239054

>  <SCORE.RESTR>
7.48329

>  <SCORE.RESTR.CAVITY>
7.48329

>  <SCORE.RESTR.norm>
0.241396

>  <SCORE.SYSTEM>
0

>  <SCORE.SYSTEM.CONST>
0

>  <SCORE.SYSTEM.DIHEDRAL>
0

>  <SCORE.SYSTEM.SOLV>
0

>  <SCORE.SYSTEM.norm>
0

>  <SCORE.heavy>
31

>  <SCORE.norm>
0.605829

>  <RMSD>
9.196

$$$$
ligand
 OpenBabel11021811493D
libRbt.so/2013.1/901 2013/11/27
 31 33  0  0  0  0  0  0  0  0999 V2000
   -6.2305  -10.8784  -25.3831 C   0  0  2  0  0  0  0  0  0  0  0  0
   -7.2311  -10.4650  -24.4427 O   0  0  0  0  0  0  0  0  0  0  0  0
   -8.0251  -10.7628  -20.2469 C   0  0  2  0  0  0  0  0  0  0  0  0
   -7.8200  -10.7614  -18.8306 N   0  0  0  0  0  0  0  0  0  0  0  0
   -8.0475   -7.3508  -19.3130 C   0  0  2  0  0  0  0  0  0  0  0  0
   -6.0107   -9.6667  -26.3554 C   0  0  2  0  0  0  0  0  0  0  0  0
   -5.6156   -8.4882  -25.5921 N   0  0  0  0  0  0  0  0  0  0  0  0
   -7.1034  -11.8668  -20.8946 C   0  0  0  0  0  0  0  0  0  0  0  0
   -7.0940   -6.4477  -20.1547 C   0  0  2  0  0  0  0  0  0  0  0  0
   -7.8195   -5.8955  -21.2398 O   0  0  0  0  0  0  0  0  0  0  0  0
   -7.3258   -9.3891  -27.1637 C   0  0  0  0  0  0  0  0  0  0  0  0
   -7.3379  -11.8727  -22.4669 C   0  0  2  0  0  0  0  0  0  0  0  0
   -6.4754  -12.9057  -23.0868 N   0  0  0  0  0  0  0  0  0  0  0  0
   -5.9088   -7.3756  -20.6747 C   0  0  1  0  0  0  0  0  0  0  0  0
   -4.9547   -6.5886  -21.5277 N   0  0  0  0  0  0  0  0  0  0  0  0
   -7.9073  -10.7097  -27.7461 C   0  0  0  0  0  0  0  0  0  0  0  0
   -6.9932  -10.4352  -23.0616 C   0  0  2  0  0  0  0  0  0  0  0  0
   -5.1054   -7.9843  -19.3952 C   0  0  1  0  0  0  0  0  0  0  0  0
   -4.5439   -6.9681  -18.5872 O   0  0  0  0  0  0  0  0  0  0  0  0
   -7.5584  -11.9014  -27.2383 C   0  0  2  0  0  0  0  0  0  0  0  0
   -6.6382  -12.0551  -26.1436 O   0  0  0  0  0  0  0  0  0  0  0  0
   -7.9163   -9.3475  -22.3686 C   0  0  2  0  0  0  0  0  0  0  0  0
   -7.5989   -8.0459  -22.8777 O   0  0  0  0  0  0  0  0  0  0  0  0
   -6.0978   -8.8064  -18.5056 C   0  0  0  0  0  0  0  0  0  0  0  0
   -7.3009   -7.9496  -18.1488 O   0  0  0  0  0  0  0  0  0  0  0  0
   -8.1233  -13.2249  -27.8051 C   0  0  0  0  0  0  0  0  0  0  0  0
   -7.1775  -13.7891  -28.7578 N   0  0  0  0  0  0  0  0  0  0  0  0
   -7.6743   -9.3561  -20.8158 C   0  0  1  0  0  0  0  0  0  0  0  0
   -8.5124   -8.3844  -20.2374 O   0  0  0  0  0  0  0  0  0  0  0  0
   -3.9251   -8.9120  -19.7280 C   0  0  0  0  0  0  0  0  0  0  0  0
   -4.7892   -5.1641  -21.1815 C   0  0  0  0  0  0  0  0  0  0  0  0
  1  2  1  1  0  0  0
  1  6  1  0  0  0  0
  1 21  1  0  0  0  0
  3  4  1  1  0  0  0
  3  8  1  0  0  0  0
  3 28  1  0  0  0  0
  5  9  1  0  0  0  0
  5 25  1  0  0  0  0
  5 29  1  6  0  0  0
  6  7  1  1  0  0  0
  6 11  1  0  0  0  0
  8 12  1  0  0  0  0
  9 10  1  6  0  0  0
  9 14  1  0  0  0  0
 11 16  1  0  0  0  0
 12 13  1  6  0  0  0
 12 17  1  0  0  0  0
 14 15  1  6  0  0  0
 14 18  1  0  0  0  0
 15 31  1  0  0  0  0
 16 20  1  0  0  0  0
 17  2  1  6  0  0  0
 17 22  1  0  0  0  0
 18 19  1  1  0  0  0
 18 24  1  0  0  0  0
 18 30  1  0  0  0  0
 20 21  1  0  0  0  0
 20 26  1  6  0  0  0
 22 23  1  6  0  0  0
 22 28  1  0  0  0  0
 24 25  1  0  0  0  0
 26 27  1  0  0  0  0
 28 29  1  1  0  0  0
M  END
>  <CHROM.1>
-121.18204792,65.45750152,31.84166981,-87.79750359,96.41467470,111.78078068
-6.79864343,-9.43887604,-22.55628744,-1.92418052,1.26808087,1.39358709

>  <Name>
ligand

>  <RI>
0

>  <Rbt.Current_Directory>
/home/itssahil/PROJECTS/Mol_Feturizer/New_Systems/rnas/4F8U

>  <Rbt.Executable>
rbdock ($Id: //depot/dev/client3/rdock/2013.1/src/exe/rbdock.cxx#4 $)

>  <Rbt.Library>
libRbt.so (2013.1, Build901 2013/11/27)

>  <Rbt.Parameter_File>
/export/apps/rDock/src/rDock_2013.1_src/data/scripts/dock_solv.prm

>  <Rbt.Receptor>
prm/blind_docking_100.prm

>  <SCORE>
54.7494

>  <SCORE.INTER>
34.6372

>  <SCORE.INTER.CONST>
1

>  <SCORE.INTER.POLAR>
0

>  <SCORE.INTER.ROT>
6

>  <SCORE.INTER.SOLV>
33.4311

>  <SCORE.INTER.VDW>
4.34773

>  <SCORE.INTER.norm>
1.11733

>  <SCORE.INTRA>
10.3131

>  <SCORE.INTRA.DIHEDRAL>
1.49392

>  <SCORE.INTRA.DIHEDRAL.0>
18.77

>  <SCORE.INTRA.POLAR>
0

>  <SCORE.INTRA.POLAR.0>
0

>  <SCORE.INTRA.REPUL>
0

>  <SCORE.INTRA.REPUL.0>
0

>  <SCORE.INTRA.SOLV>
4.12796

>  <SCORE.INTRA.SOLV.lig_0>
-77.2465

>  <SCORE.INTRA.VDW>
7.5022

>  <SCORE.INTRA.VDW.0>
-4.16072

>  <SCORE.INTRA.norm>
0.332682

>  <SCORE.RESTR>
9.79914

>  <SCORE.RESTR.CAVITY>
9.79914

>  <SCORE.RESTR.norm>
0.316101

>  <SCORE.SYSTEM>
0

>  <SCORE.SYSTEM.CONST>
0

>  <SCORE.SYSTEM.DIHEDRAL>
0

>  <SCORE.SYSTEM.SOLV>
0

>  <SCORE.SYSTEM.norm>
0

>  <SCORE.heavy>
31

>  <SCORE.norm>
1.76611

>  <RMSD>
9.204

$$$$
ligand
 OpenBabel11021811493D
libRbt.so/2013.1/901 2013/11/27
 31 33  0  0  0  0  0  0  0  0999 V2000
   -4.2560  -12.1351  -15.7784 C   0  0  2  0  0  0  0  0  0  0  0  0
   -4.3925  -11.4399  -17.0252 O   0  0  0  0  0  0  0  0  0  0  0  0
   -6.6357  -12.1855  -20.5939 C   0  0  2  0  0  0  0  0  0  0  0  0
   -7.7472  -12.3828  -21.4735 N   0  0  0  0  0  0  0  0  0  0  0  0
   -7.8029   -8.9556  -21.3864 C   0  0  2  0  0  0  0  0  0  0  0  0
   -5.2752  -11.4700  -14.7880 C   0  0  2  0  0  0  0  0  0  0  0  0
   -6.6236  -11.5559  -15.3377 N   0  0  0  0  0  0  0  0  0  0  0  0
   -6.6797  -13.2836  -19.4625 C   0  0  0  0  0  0  0  0  0  0  0  0
   -7.3900   -8.3168  -22.7483 C   0  0  2  0  0  0  0  0  0  0  0  0
   -7.1478   -9.3497  -23.6882 O   0  0  0  0  0  0  0  0  0  0  0  0
   -4.8727   -9.9752  -14.5365 C   0  0  0  0  0  0  0  0  0  0  0  0
   -5.4401  -13.0684  -18.4906 C   0  0  2  0  0  0  0  0  0  0  0  0
   -5.4720  -14.0940  -17.4218 N   0  0  0  0  0  0  0  0  0  0  0  0
   -6.0703   -7.4652  -22.4845 C   0  0  1  0  0  0  0  0  0  0  0  0
   -5.5810   -6.8376  -23.7589 N   0  0  0  0  0  0  0  0  0  0  0  0
   -3.3527   -9.8555  -14.2256 C   0  0  0  0  0  0  0  0  0  0  0  0
   -5.5079  -11.6079  -17.8573 C   0  0  2  0  0  0  0  0  0  0  0  0
   -6.3978   -6.2931  -21.4021 C   0  0  1  0  0  0  0  0  0  0  0  0
   -7.4039   -5.4110  -21.8611 O   0  0  0  0  0  0  0  0  0  0  0  0
   -2.4980  -10.8304  -14.5705 C   0  0  2  0  0  0  0  0  0  0  0  0
   -2.9048  -12.0389  -15.2360 O   0  0  0  0  0  0  0  0  0  0  0  0
   -5.4913  -10.5315  -19.0221 C   0  0  2  0  0  0  0  0  0  0  0  0
   -5.5766   -9.2133  -18.4662 O   0  0  0  0  0  0  0  0  0  0  0  0
   -6.9065   -6.9452  -20.0724 C   0  0  0  0  0  0  0  0  0  0  0  0
   -8.0695   -7.8775  -20.3676 O   0  0  0  0  0  0  0  0  0  0  0  0
   -0.9846  -10.7312  -14.2679 C   0  0  0  0  0  0  0  0  0  0  0  0
   -0.5718  -11.8775  -13.4704 N   0  0  0  0  0  0  0  0  0  0  0  0
   -6.7206  -10.7593  -19.9743 C   0  0  1  0  0  0  0  0  0  0  0  0
   -6.6683   -9.7913  -20.9948 O   0  0  0  0  0  0  0  0  0  0  0  0
   -5.2188   -5.3779  -21.0321 C   0  0  0  0  0  0  0  0  0  0  0  0
   -4.1772   -7.1061  -24.1240 C   0  0  0  0  0  0  0  0  0  0  0  0
  1  2  1  6  0  0  0
  1  6  1  0  0  0  0
  1 21  1  0  0  0  0
  3  4  1  6  0  0  0
  3  8  1  0  0  0  0
  3 28  1  0  0  0  0
  5  9  1  0  0  0  0
  5 25  1  0  0  0  0
  5 29  1  1  0  0  0
  6  7  1  6  0  0  0
  6 11  1  0  0  0  0
  8 12  1  0  0  0  0
  9 10  1  6  0  0  0
  9 14  1  0  0  0  0
 11 16  1  0  0  0  0
 12 13  1  1  0  0  0
 12 17  1  0  0  0  0
 14 15  1  6  0  0  0
 14 18  1  0  0  0  0
 15 31  1  0  0  0  0
 16 20  1  0  0  0  0
 17  2  1  1  0  0  0
 17 22  1  0  0  0  0
 18 19  1  6  0  0  0
 18 24  1  0  0  0  0
 18 30  1  0  0  0  0
 20 21  1  0  0  0  0
 20 26  1  1  0  0  0
 22 23  1  1  0  0  0
 22 28  1  0  0  0  0
 24 25  1  0  0  0  0
 26 27  1  0  0  0  0
 28 29  1  6  0  0  0
M  END
>  <CHROM.1>
-72.67268113,-166.34516307,-126.06794685,-70.41575232,122.95470515,110.20894686
-5.48152852,-9.92090452,-18.93071617,0.92052440,0.93953620,2.62191336

>  <Name>
ligand

>  <RI>
0

>  <Rbt.Current_Directory>
/home/itssahil/PROJECTS/Mol_Feturizer/New_Systems/rnas/4F8U

>  <Rbt.Executable>
rbdock ($Id: //depot/dev/client3/rdock/2013.1/src/exe/rbdock.cxx#4 $)

>  <Rbt.Library>
libRbt.so (2013.1, Build901 2013/11/27)

>  <Rbt.Parameter_File>
/export/apps/rDock/src/rDock_2013.1_src/data/scripts/dock_solv.prm

>  <Rbt.Receptor>
prm/pocket_docking_7.prm

>  <SCORE>
-8.22165

>  <SCORE.INTER>
-6.72751

>  <SCORE.INTER.CONST>
1

>  <SCORE.INTER.POLAR>
0

>  <SCORE.INTER.ROT>
6

>  <SCORE.INTER.SOLV>
14.0045

>  <SCORE.INTER.VDW>
-16.7532

>  <SCORE.INTER.norm>
-0.217016

>  <SCORE.INTRA>
-1.49414

>  <SCORE.INTRA.DIHEDRAL>
-7.00333

>  <SCORE.INTRA.DIHEDRAL.0>
18.77

>  <SCORE.INTRA.POLAR>
0

>  <SCORE.INTRA.POLAR.0>
0

>  <SCORE.INTRA.REPUL>
0

>  <SCORE.INTRA.REPUL.0>
0

>  <SCORE.INTRA.SOLV>
2.1562

>  <SCORE.INTRA.SOLV.lig_0>
-77.2465

>  <SCORE.INTRA.VDW>
0.929426

>  <SCORE.INTRA.VDW.0>
-4.16072

>  <SCORE.INTRA.norm>
-0.0481982

>  <SCORE.RESTR>
0

>  <SCORE.RESTR.CAVITY>
0

>  <SCORE.RESTR.norm>
0

>  <SCORE.SYSTEM>
0

>  <SCORE.SYSTEM.CONST>
0

>  <SCORE.SYSTEM.DIHEDRAL>
0

>  <SCORE.SYSTEM.SOLV>
0

>  <SCORE.SYSTEM.norm>
0

>  <SCORE.heavy>
31

>  <SCORE.norm>
-0.265214

>  <RMSD>
9.206

$$$$
ligand
 OpenBabel11021811493D
libRbt.so/2013.1/901 2013/11/27
 31 33  0  0  0  0  0  0  0  0999 V2000
   -9.2733  -13.6658  -18.1158 C   0  0  2  0  0  0  0  0  0  0  0  0
   -8.4783  -12.7612  -17.3373 O   0  0  0  0  0  0  0  0  0  0  0  0
   -5.7188   -9.7032  -18.5022 C   0  0  2  0  0  0  0  0  0  0  0  0
   -4.5293   -9.0704  -18.9846 N   0  0  0  0  0  0  0  0  0  0  0  0
   -7.6748   -8.7947  -20.7499 C   0  0  2  0  0  0  0  0  0  0  0  0
  -10.3954  -14.2028  -17.1594 C   0  0  2  0  0  0  0  0  0  0  0  0
  -11.1679  -13.0845  -16.6298 N   0  0  0  0  0  0  0  0  0  0  0  0
   -5.3586  -10.5642  -17.2306 C   0  0  0  0  0  0  0  0  0  0  0  0
   -7.8325   -8.3760  -22.2442 C   0  0  2  0  0  0  0  0  0  0  0  0
   -8.2127   -9.5105  -23.0040 O   0  0  0  0  0  0  0  0  0  0  0  0
   -9.7491  -15.0315  -15.9952 C   0  0  0  0  0  0  0  0  0  0  0  0
   -6.6821  -11.2602  -16.6910 C   0  0  2  0  0  0  0  0  0  0  0  0
   -6.3555  -12.0738  -15.4966 N   0  0  0  0  0  0  0  0  0  0  0  0
   -6.4214   -7.8153  -22.7243 C   0  0  1  0  0  0  0  0  0  0  0  0
   -6.4740   -7.4170  -24.1720 N   0  0  0  0  0  0  0  0  0  0  0  0
   -8.7023  -16.0411  -16.5486 C   0  0  0  0  0  0  0  0  0  0  0  0
   -7.3030  -12.1807  -17.8339 C   0  0  2  0  0  0  0  0  0  0  0  0
   -6.0288   -6.5149  -21.8255 C   0  0  1  0  0  0  0  0  0  0  0  0
   -6.9793   -5.4748  -21.9511 O   0  0  0  0  0  0  0  0  0  0  0  0
   -8.1584  -15.8760  -17.7638 C   0  0  2  0  0  0  0  0  0  0  0  0
   -8.4914  -14.7823  -18.6366 O   0  0  0  0  0  0  0  0  0  0  0  0
   -7.6255  -11.2895  -19.1056 C   0  0  2  0  0  0  0  0  0  0  0  0
   -8.1623  -12.1107  -20.1504 O   0  0  0  0  0  0  0  0  0  0  0  0
   -5.9718   -6.9283  -20.3161 C   0  0  0  0  0  0  0  0  0  0  0  0
   -7.2729   -7.6044  -19.9175 O   0  0  0  0  0  0  0  0  0  0  0  0
   -7.1187  -16.8698  -18.3323 C   0  0  0  0  0  0  0  0  0  0  0  0
   -5.8430  -16.1905  -18.5102 N   0  0  0  0  0  0  0  0  0  0  0  0
   -6.3084  -10.6074  -19.6248 C   0  0  1  0  0  0  0  0  0  0  0  0
   -6.6352   -9.8234  -20.7471 O   0  0  0  0  0  0  0  0  0  0  0  0
   -4.6824   -5.8529  -22.1619 C   0  0  0  0  0  0  0  0  0  0  0  0
   -6.1915   -8.4806  -25.1544 C   0  0  0  0  0  0  0  0  0  0  0  0
  1  2  1  1  0  0  0
  1  6  1  0  0  0  0
  1 21  1  0  0  0  0
  3  4  1  6  0  0  0
  3  8  1  0  0  0  0
  3 28  1  0  0  0  0
  5  9  1  0  0  0  0
  5 25  1  0  0  0  0
  5 29  1  6  0  0  0
  6  7  1  1  0  0  0
  6 11  1  0  0  0  0
  8 12  1  0  0  0  0
  9 10  1  6  0  0  0
  9 14  1  0  0  0  0
 11 16  1  0  0  0  0
 12 13  1  1  0  0  0
 12 17  1  0  0  0  0
 14 15  1  6  0  0  0
 14 18  1  0  0  0  0
 15 31  1  0  0  0  0
 16 20  1  0  0  0  0
 17  2  1  1  0  0  0
 17 22  1  0  0  0  0
 18 19  1  6  0  0  0
 18 24  1  0  0  0  0
 18 30  1  0  0  0  0
 20 21  1  0  0  0  0
 20 26  1  6  0  0  0
 22 23  1  6  0  0  0
 22 28  1  0  0  0  0
 24 25  1  0  0  0  0
 26 27  1  0  0  0  0
 28 29  1  6  0  0  0
M  END
>  <CHROM.1>
174.00286110,-170.84554583,-87.26571220,-179.07951125,-115.68489653,-65.19673871
-7.28828937,-10.94084305,-19.51313162,2.07709509,1.08095457,2.09251447

>  <Name>
ligand

>  <RI>
0

>  <Rbt.Current_Directory>
/home/itssahil/PROJECTS/Mol_Feturizer/New_Systems/rnas/4F8U

>  <Rbt.Executable>
rbdock ($Id: //depot/dev/client3/rdock/2013.1/src/exe/rbdock.cxx#4 $)

>  <Rbt.Library>
libRbt.so (2013.1, Build901 2013/11/27)

>  <Rbt.Parameter_File>
/export/apps/rDock/src/rDock_2013.1_src/data/scripts/dock_solv.prm

>  <Rbt.Receptor>
prm/pocket_docking_7.prm

>  <SCORE>
-14.4623

>  <SCORE.INTER>
-7.86165

>  <SCORE.INTER.CONST>
1

>  <SCORE.INTER.POLAR>
0

>  <SCORE.INTER.ROT>
6

>  <SCORE.INTER.SOLV>
12.1082

>  <SCORE.INTER.VDW>
-16.8772

>  <SCORE.INTER.norm>
-0.253601

>  <SCORE.INTRA>
-6.60064

>  <SCORE.INTRA.DIHEDRAL>
-15.8286

>  <SCORE.INTRA.DIHEDRAL.0>
18.77

>  <SCORE.INTRA.POLAR>
0

>  <SCORE.INTRA.POLAR.0>
0

>  <SCORE.INTRA.REPUL>
0

>  <SCORE.INTRA.REPUL.0>
0

>  <SCORE.INTRA.SOLV>
-0.36057

>  <SCORE.INTRA.SOLV.lig_0>
-77.2465

>  <SCORE.INTRA.VDW>
1.49396

>  <SCORE.INTRA.VDW.0>
-4.16072

>  <SCORE.INTRA.norm>
-0.212924

>  <SCORE.RESTR>
0

>  <SCORE.RESTR.CAVITY>
0

>  <SCORE.RESTR.norm>
0

>  <SCORE.SYSTEM>
0

>  <SCORE.SYSTEM.CONST>
0

>  <SCORE.SYSTEM.DIHEDRAL>
0

>  <SCORE.SYSTEM.SOLV>
0

>  <SCORE.SYSTEM.norm>
0

>  <SCORE.heavy>
31

>  <SCORE.norm>
-0.466525

>  <RMSD>
9.211

$$$$
ligand
 OpenBabel11021811493D
libRbt.so/2013.1/901 2013/11/27
 31 33  0  0  0  0  0  0  0  0999 V2000
   -4.6508  -12.0639  -10.2315 C   0  0  2  0  0  0  0  0  0  0  0  0
   -5.2066  -11.3188  -11.3234 O   0  0  0  0  0  0  0  0  0  0  0  0
   -8.7143   -9.0543  -10.3789 C   0  0  2  0  0  0  0  0  0  0  0  0
   -9.5785   -7.9374  -10.1475 N   0  0  0  0  0  0  0  0  0  0  0  0
   -9.4502   -8.2224  -13.9076 C   0  0  2  0  0  0  0  0  0  0  0  0
   -3.5506  -12.9972  -10.8483 C   0  0  2  0  0  0  0  0  0  0  0  0
   -2.5554  -12.1908  -11.5462 N   0  0  0  0  0  0  0  0  0  0  0  0
   -7.5057   -8.9818   -9.3680 C   0  0  0  0  0  0  0  0  0  0  0  0
   -8.7945   -6.8644  -13.5087 C   0  0  2  0  0  0  0  0  0  0  0  0
   -7.4285   -7.0839  -13.2011 O   0  0  0  0  0  0  0  0  0  0  0  0
   -4.2155  -14.0270  -11.8268 C   0  0  0  0  0  0  0  0  0  0  0  0
   -6.5506  -10.2273   -9.6206 C   0  0  2  0  0  0  0  0  0  0  0  0
   -5.4098  -10.1690   -8.6770 N   0  0  0  0  0  0  0  0  0  0  0  0
   -9.5845   -6.3188  -12.2381 C   0  0  1  0  0  0  0  0  0  0  0  0
   -8.9939   -5.0214  -11.7636 N   0  0  0  0  0  0  0  0  0  0  0  0
   -5.4639  -14.6863  -11.1724 C   0  0  0  0  0  0  0  0  0  0  0  0
   -6.0257  -10.1987  -11.1248 C   0  0  2  0  0  0  0  0  0  0  0  0
  -11.1449   -6.0811  -12.6401 C   0  0  1  0  0  0  0  0  0  0  0  0
  -11.2875   -5.1366  -13.6834 O   0  0  0  0  0  0  0  0  0  0  0  0
   -6.0833  -14.1108  -10.1309 C   0  0  2  0  0  0  0  0  0  0  0  0
   -5.6542  -12.8698   -9.5438 O   0  0  0  0  0  0  0  0  0  0  0  0
   -7.2659  -10.2431  -12.1125 C   0  0  2  0  0  0  0  0  0  0  0  0
   -6.8078  -10.1932  -13.4695 O   0  0  0  0  0  0  0  0  0  0  0  0
  -11.7630   -7.4327  -13.1335 C   0  0  0  0  0  0  0  0  0  0  0  0
  -10.9051   -8.0171  -14.2431 O   0  0  0  0  0  0  0  0  0  0  0  0
   -7.3235  -14.7517   -9.4654 C   0  0  0  0  0  0  0  0  0  0  0  0
   -6.9900  -16.0920   -9.0042 N   0  0  0  0  0  0  0  0  0  0  0  0
   -8.2005   -9.0076  -11.8484 C   0  0  1  0  0  0  0  0  0  0  0  0
   -9.2889   -9.0849  -12.7375 O   0  0  0  0  0  0  0  0  0  0  0  0
  -12.0515   -5.5560  -11.5146 C   0  0  0  0  0  0  0  0  0  0  0  0
   -8.5494   -4.9799  -10.3576 C   0  0  0  0  0  0  0  0  0  0  0  0
  1  2  1  6  0  0  0
  1  6  1  0  0  0  0
  1 21  1  0  0  0  0
  3  4  1  1  0  0  0
  3  8  1  0  0  0  0
  3 28  1  0  0  0  0
  5  9  1  0  0  0  0
  5 25  1  0  0  0  0
  5 29  1  1  0  0  0
  6  7  1  6  0  0  0
  6 11  1  0  0  0  0
  8 12  1  0  0  0  0
  9 10  1  1  0  0  0
  9 14  1  0  0  0  0
 11 16  1  0  0  0  0
 12 13  1  1  0  0  0
 12 17  1  0  0  0  0
 14 15  1  6  0  0  0
 14 18  1  0  0  0  0
 15 31  1  0  0  0  0
 16 20  1  0  0  0  0
 17  2  1  6  0  0  0
 17 22  1  0  0  0  0
 18 19  1  6  0  0  0
 18 24  1  0  0  0  0
 18 30  1  0  0  0  0
 20 21  1  0  0  0  0
 20 26  1  1  0  0  0
 22 23  1  6  0  0  0
 22 28  1  0  0  0  0
 24 25  1  0  0  0  0
 26 27  1  0  0  0  0
 28 29  1  6  0  0  0
M  END
>  <CHROM.1>
-166.94424981,-31.73118919,-123.60403120,-17.33656637,57.49184667,134.46987179
-7.66717065,-9.67824254,-11.47293675,-0.94454518,-0.27622551,-0.10486403

>  <Name>
ligand

>  <RI>
0

>  <Rbt.Current_Directory>
/home/itssahil/PROJECTS/Mol_Feturizer/New_Systems/rnas/4F8U

>  <Rbt.Executable>
rbdock ($Id: //depot/dev/client3/rdock/2013.1/src/exe/rbdock.cxx#4 $)

>  <Rbt.Library>
libRbt.so (2013.1, Build901 2013/11/27)

>  <Rbt.Parameter_File>
/export/apps/rDock/src/rDock_2013.1_src/data/scripts/dock_solv.prm

>  <Rbt.Receptor>
prm/blind_docking_20.prm

>  <SCORE>
23.9027

>  <SCORE.INTER>
5.33854

>  <SCORE.INTER.CONST>
1

>  <SCORE.INTER.POLAR>
0

>  <SCORE.INTER.ROT>
6

>  <SCORE.INTER.SOLV>
23.4312

>  <SCORE.INTER.VDW>
-11.8514

>  <SCORE.INTER.norm>
0.172211

>  <SCORE.INTRA>
11.4876

>  <SCORE.INTRA.DIHEDRAL>
2.12288

>  <SCORE.INTRA.DIHEDRAL.0>
18.77

>  <SCORE.INTRA.POLAR>
0

>  <SCORE.INTRA.POLAR.0>
0

>  <SCORE.INTRA.REPUL>
0

>  <SCORE.INTRA.REPUL.0>
0

>  <SCORE.INTRA.SOLV>
5.2905

>  <SCORE.INTRA.SOLV.lig_0>
-77.2465

>  <SCORE.INTRA.VDW>
7.78089

>  <SCORE.INTRA.VDW.0>
-4.16072

>  <SCORE.INTRA.norm>
0.370567

>  <SCORE.RESTR>
7.07658

>  <SCORE.RESTR.CAVITY>
7.07658

>  <SCORE.RESTR.norm>
0.228277

>  <SCORE.SYSTEM>
0

>  <SCORE.SYSTEM.CONST>
0

>  <SCORE.SYSTEM.DIHEDRAL>
0

>  <SCORE.SYSTEM.SOLV>
0

>  <SCORE.SYSTEM.norm>
0

>  <SCORE.heavy>
31

>  <SCORE.norm>
0.771055

>  <RMSD>
9.214

$$$$
ligand
 OpenBabel11021811493D
libRbt.so/2013.1/901 2013/11/27
 31 33  0  0  0  0  0  0  0  0999 V2000
   -4.5058   -9.7370  -16.3271 C   0  0  2  0  0  0  0  0  0  0  0  0
   -4.6931  -10.9478  -17.0723 O   0  0  0  0  0  0  0  0  0  0  0  0
   -6.7927  -11.8664  -20.6877 C   0  0  2  0  0  0  0  0  0  0  0  0
   -7.8681  -12.0801  -21.6074 N   0  0  0  0  0  0  0  0  0  0  0  0
   -7.7505   -8.6471  -21.7752 C   0  0  2  0  0  0  0  0  0  0  0  0
   -3.2018   -9.9382  -15.4779 C   0  0  2  0  0  0  0  0  0  0  0  0
   -2.0800  -10.2368  -16.3613 N   0  0  0  0  0  0  0  0  0  0  0  0
   -6.9478  -12.8689  -19.4799 C   0  0  0  0  0  0  0  0  0  0  0  0
   -7.1856   -8.0252  -23.0894 C   0  0  2  0  0  0  0  0  0  0  0  0
   -6.8792   -9.0679  -23.9992 O   0  0  0  0  0  0  0  0  0  0  0  0
   -3.4160  -11.0963  -14.4422 C   0  0  0  0  0  0  0  0  0  0  0  0
   -5.7483  -12.6359  -18.4629 C   0  0  2  0  0  0  0  0  0  0  0  0
   -5.8845  -13.5717  -17.3223 N   0  0  0  0  0  0  0  0  0  0  0  0
   -5.8760   -7.2091  -22.6955 C   0  0  1  0  0  0  0  0  0  0  0  0
   -5.2442   -6.6000  -23.9150 N   0  0  0  0  0  0  0  0  0  0  0  0
   -4.7688  -10.9257  -13.6924 C   0  0  0  0  0  0  0  0  0  0  0  0
   -5.7733  -11.1285  -17.9471 C   0  0  2  0  0  0  0  0  0  0  0  0
   -6.2778   -6.0242  -21.6526 C   0  0  1  0  0  0  0  0  0  0  0  0
   -7.2080   -5.1167  -22.2112 O   0  0  0  0  0  0  0  0  0  0  0  0
   -5.7481  -10.1615  -14.1992 C   0  0  2  0  0  0  0  0  0  0  0  0
   -5.6316   -9.4507  -15.4441 O   0  0  0  0  0  0  0  0  0  0  0  0
   -5.6450  -10.1489  -19.1879 C   0  0  2  0  0  0  0  0  0  0  0  0
   -5.6908   -8.7886  -18.7392 O   0  0  0  0  0  0  0  0  0  0  0  0
   -6.9351   -6.6571  -20.3800 C   0  0  0  0  0  0  0  0  0  0  0  0
   -8.0880   -7.5582  -20.7894 O   0  0  0  0  0  0  0  0  0  0  0  0
   -7.0983   -9.9774  -13.4679 C   0  0  0  0  0  0  0  0  0  0  0  0
   -8.1577  -10.6197  -14.2332 N   0  0  0  0  0  0  0  0  0  0  0  0
   -6.8358  -10.3934  -20.1838 C   0  0  1  0  0  0  0  0  0  0  0  0
   -6.6846   -9.5121  -21.2708 O   0  0  0  0  0  0  0  0  0  0  0  0
   -5.1169   -5.1404  -21.1673 C   0  0  0  0  0  0  0  0  0  0  0  0
   -3.9378   -7.1523  -24.3206 C   0  0  0  0  0  0  0  0  0  0  0  0
  1  2  1  1  0  0  0
  1  6  1  0  0  0  0
  1 21  1  0  0  0  0
  3  4  1  6  0  0  0
  3  8  1  0  0  0  0
  3 28  1  0  0  0  0
  5  9  1  0  0  0  0
  5 25  1  0  0  0  0
  5 29  1  1  0  0  0
  6  7  1  6  0  0  0
  6 11  1  0  0  0  0
  8 12  1  0  0  0  0
  9 10  1  6  0  0  0
  9 14  1  0  0  0  0
 11 16  1  0  0  0  0
 12 13  1  1  0  0  0
 12 17  1  0  0  0  0
 14 15  1  6  0  0  0
 14 18  1  0  0  0  0
 15 31  1  0  0  0  0
 16 20  1  0  0  0  0
 17  2  1  1  0  0  0
 17 22  1  0  0  0  0
 18 19  1  6  0  0  0
 18 24  1  0  0  0  0
 18 30  1  0  0  0  0
 20 21  1  0  0  0  0
 20 26  1  1  0  0  0
 22 23  1  1  0  0  0
 22 28  1  0  0  0  0
 24 25  1  0  0  0  0
 26 27  1  0  0  0  0
 28 29  1  6  0  0  0
M  END
>  <CHROM.1>
179.88436867,-171.98584012,-111.83468117,-173.61978006,-112.17277499,110.90992634
-5.93242457,-9.42156271,-19.11559013,-1.19396267,-1.19109343,-0.77505209

>  <Name>
ligand

>  <RI>
0

>  <Rbt.Current_Directory>
/home/itssahil/PROJECTS/Mol_Feturizer/New_Systems/rnas/4F8U

>  <Rbt.Executable>
rbdock ($Id: //depot/dev/client3/rdock/2013.1/src/exe/rbdock.cxx#4 $)

>  <Rbt.Library>
libRbt.so (2013.1, Build901 2013/11/27)

>  <Rbt.Parameter_File>
/export/apps/rDock/src/rDock_2013.1_src/data/scripts/dock_solv.prm

>  <Rbt.Receptor>
prm/pocket_docking_6.prm

>  <SCORE>
-12.3233

>  <SCORE.INTER>
-7.31852

>  <SCORE.INTER.CONST>
1

>  <SCORE.INTER.POLAR>
0

>  <SCORE.INTER.ROT>
6

>  <SCORE.INTER.SOLV>
15.0976

>  <SCORE.INTER.VDW>
-17.5116

>  <SCORE.INTER.norm>
-0.236081

>  <SCORE.INTRA>
-5.00479

>  <SCORE.INTRA.DIHEDRAL>
-8.55298

>  <SCORE.INTRA.DIHEDRAL.0>
18.77

>  <SCORE.INTRA.POLAR>
0

>  <SCORE.INTRA.POLAR.0>
0

>  <SCORE.INTRA.REPUL>
0

>  <SCORE.INTRA.REPUL.0>
0

>  <SCORE.INTRA.SOLV>
-2.20418

>  <SCORE.INTRA.SOLV.lig_0>
-77.2465

>  <SCORE.INTRA.VDW>
0.373783

>  <SCORE.INTRA.VDW.0>
-4.16072

>  <SCORE.INTRA.norm>
-0.161445

>  <SCORE.RESTR>
0

>  <SCORE.RESTR.CAVITY>
0

>  <SCORE.RESTR.norm>
0

>  <SCORE.SYSTEM>
0

>  <SCORE.SYSTEM.CONST>
0

>  <SCORE.SYSTEM.DIHEDRAL>
0

>  <SCORE.SYSTEM.SOLV>
0

>  <SCORE.SYSTEM.norm>
0

>  <SCORE.heavy>
31

>  <SCORE.norm>
-0.397526

>  <RMSD>
9.225

$$$$
ligand
 OpenBabel11021811493D
libRbt.so/2013.1/901 2013/11/27
 31 33  0  0  0  0  0  0  0  0999 V2000
   -6.3511  -11.3096  -24.8740 C   0  0  2  0  0  0  0  0  0  0  0  0
   -7.1599  -11.4550  -23.6987 O   0  0  0  0  0  0  0  0  0  0  0  0
   -7.0473  -11.3662  -19.4205 C   0  0  2  0  0  0  0  0  0  0  0  0
   -6.5515  -11.2240  -18.0856 N   0  0  0  0  0  0  0  0  0  0  0  0
   -7.0208   -7.8632  -18.8404 C   0  0  2  0  0  0  0  0  0  0  0  0
   -6.5746   -9.8432  -25.3854 C   0  0  2  0  0  0  0  0  0  0  0  0
   -6.2193   -8.8957  -24.3348 N   0  0  0  0  0  0  0  0  0  0  0  0
   -6.2348  -12.5060  -20.1476 C   0  0  0  0  0  0  0  0  0  0  0  0
   -7.3714   -6.6300  -19.7290 C   0  0  2  0  0  0  0  0  0  0  0  0
   -8.7809   -6.5095  -19.8161 O   0  0  0  0  0  0  0  0  0  0  0  0
   -8.0697   -9.6545  -25.8202 C   0  0  0  0  0  0  0  0  0  0  0  0
   -6.7918  -12.6684  -21.6277 C   0  0  2  0  0  0  0  0  0  0  0  0
   -6.0344  -13.7360  -22.3216 N   0  0  0  0  0  0  0  0  0  0  0  0
   -6.7318   -6.8904  -21.1640 C   0  0  1  0  0  0  0  0  0  0  0  0
   -7.0512   -5.7593  -22.0998 N   0  0  0  0  0  0  0  0  0  0  0  0
   -8.5370  -10.8327  -26.7230 C   0  0  0  0  0  0  0  0  0  0  0  0
   -6.6405  -11.2872  -22.4076 C   0  0  2  0  0  0  0  0  0  0  0  0
   -5.1152   -7.0201  -21.0133 C   0  0  1  0  0  0  0  0  0  0  0  0
   -4.5345   -5.8449  -20.4816 O   0  0  0  0  0  0  0  0  0  0  0  0
   -7.8810  -12.0029  -26.7262 C   0  0  2  0  0  0  0  0  0  0  0  0
   -6.7182  -12.2592  -25.9194 O   0  0  0  0  0  0  0  0  0  0  0  0
   -7.4441  -10.1592  -21.6346 C   0  0  2  0  0  0  0  0  0  0  0  0
   -7.2957   -8.9057  -22.3133 O   0  0  0  0  0  0  0  0  0  0  0  0
   -4.7800   -8.1997  -20.0395 C   0  0  0  0  0  0  0  0  0  0  0  0
   -5.5253   -8.0133  -18.7285 O   0  0  0  0  0  0  0  0  0  0  0  0
   -8.3282  -13.1845  -27.6182 C   0  0  0  0  0  0  0  0  0  0  0  0
   -9.7428  -13.4516  -27.3988 N   0  0  0  0  0  0  0  0  0  0  0  0
   -6.8833  -10.0130  -20.1739 C   0  0  1  0  0  0  0  0  0  0  0  0
   -7.6229   -9.0097  -19.5201 O   0  0  0  0  0  0  0  0  0  0  0  0
   -4.3421   -7.2793  -22.3170 C   0  0  0  0  0  0  0  0  0  0  0  0
   -6.6209   -4.4146  -21.6724 C   0  0  0  0  0  0  0  0  0  0  0  0
  1  2  1  1  0  0  0
  1  6  1  0  0  0  0
  1 21  1  0  0  0  0
  3  4  1  1  0  0  0
  3  8  1  0  0  0  0
  3 28  1  0  0  0  0
  5  9  1  0  0  0  0
  5 25  1  0  0  0  0
  5 29  1  6  0  0  0
  6  7  1  1  0  0  0
  6 11  1  0  0  0  0
  8 12  1  0  0  0  0
  9 10  1  6  0  0  0
  9 14  1  0  0  0  0
 11 16  1  0  0  0  0
 12 13  1  6  0  0  0
 12 17  1  0  0  0  0
 14 15  1  6  0  0  0
 14 18  1  0  0  0  0
 15 31  1  0  0  0  0
 16 20  1  0  0  0  0
 17  2  1  6  0  0  0
 17 22  1  0  0  0  0
 18 19  1  1  0  0  0
 18 24  1  0  0  0  0
 18 30  1  0  0  0  0
 20 21  1  0  0  0  0
 20 26  1  6  0  0  0
 22 23  1  6  0  0  0
 22 28  1  0  0  0  0
 24 25  1  0  0  0  0
 26 27  1  0  0  0  0
 28 29  1  1  0  0  0
M  END
>  <CHROM.1>
-96.42714356,109.75052860,57.58153914,-117.91096945,-52.18457850,113.42254065
-6.83587697,-9.57955718,-22.31082669,2.90307452,1.37663272,2.69290070

>  <Name>
ligand

>  <RI>
0

>  <Rbt.Current_Directory>
/home/itssahil/PROJECTS/Mol_Feturizer/New_Systems/rnas/4F8U

>  <Rbt.Executable>
rbdock ($Id: //depot/dev/client3/rdock/2013.1/src/exe/rbdock.cxx#4 $)

>  <Rbt.Library>
libRbt.so (2013.1, Build901 2013/11/27)

>  <Rbt.Parameter_File>
/export/apps/rDock/src/rDock_2013.1_src/data/scripts/dock_solv.prm

>  <Rbt.Receptor>
prm/blind_docking_40.prm

>  <SCORE>
43.3932

>  <SCORE.INTER>
16.2915

>  <SCORE.INTER.CONST>
1

>  <SCORE.INTER.POLAR>
0

>  <SCORE.INTER.ROT>
6

>  <SCORE.INTER.SOLV>
32.8757

>  <SCORE.INTER.VDW>
-7.69757

>  <SCORE.INTER.norm>
0.525532

>  <SCORE.INTRA>
17.18

>  <SCORE.INTRA.DIHEDRAL>
10.4015

>  <SCORE.INTRA.DIHEDRAL.0>
18.77

>  <SCORE.INTRA.POLAR>
0

>  <SCORE.INTRA.POLAR.0>
0

>  <SCORE.INTRA.REPUL>
0

>  <SCORE.INTRA.REPUL.0>
0

>  <SCORE.INTRA.SOLV>
4.78935

>  <SCORE.INTRA.SOLV.lig_0>
-77.2465

>  <SCORE.INTRA.VDW>
9.58455

>  <SCORE.INTRA.VDW.0>
-4.16072

>  <SCORE.INTRA.norm>
0.554193

>  <SCORE.RESTR>
9.92171

>  <SCORE.RESTR.CAVITY>
9.92171

>  <SCORE.RESTR.norm>
0.320055

>  <SCORE.SYSTEM>
0

>  <SCORE.SYSTEM.CONST>
0

>  <SCORE.SYSTEM.DIHEDRAL>
0

>  <SCORE.SYSTEM.SOLV>
0

>  <SCORE.SYSTEM.norm>
0

>  <SCORE.heavy>
31

>  <SCORE.norm>
1.39978

>  <RMSD>
9.237

$$$$
ligand
 OpenBabel11021811493D
libRbt.so/2013.1/901 2013/11/27
 31 33  0  0  0  0  0  0  0  0999 V2000
   -9.2676  -13.7369  -18.0687 C   0  0  2  0  0  0  0  0  0  0  0  0
   -8.5844  -12.7650  -17.2654 O   0  0  0  0  0  0  0  0  0  0  0  0
   -5.8715   -9.6036  -18.2498 C   0  0  2  0  0  0  0  0  0  0  0  0
   -4.6793   -8.9260  -18.6590 N   0  0  0  0  0  0  0  0  0  0  0  0
   -7.6723   -8.6867  -20.5744 C   0  0  2  0  0  0  0  0  0  0  0  0
  -10.4573  -14.2727  -17.1973 C   0  0  2  0  0  0  0  0  0  0  0  0
  -11.3168  -13.1625  -16.8015 N   0  0  0  0  0  0  0  0  0  0  0  0
   -5.5545  -10.4627  -16.9655 C   0  0  0  0  0  0  0  0  0  0  0  0
   -7.8557   -8.3373  -22.0835 C   0  0  2  0  0  0  0  0  0  0  0  0
   -8.2757   -9.4988  -22.7787 O   0  0  0  0  0  0  0  0  0  0  0  0
   -9.8979  -15.0183  -15.9360 C   0  0  0  0  0  0  0  0  0  0  0  0
   -6.8816  -11.2086  -16.5073 C   0  0  2  0  0  0  0  0  0  0  0  0
   -6.5954  -12.0208  -15.3017 N   0  0  0  0  0  0  0  0  0  0  0  0
   -6.4449   -7.8302  -22.6210 C   0  0  1  0  0  0  0  0  0  0  0  0
   -6.5226   -7.5010  -24.0849 N   0  0  0  0  0  0  0  0  0  0  0  0
   -8.7671  -16.0101  -16.3349 C   0  0  0  0  0  0  0  0  0  0  0  0
   -7.4038  -12.1400  -17.6900 C   0  0  2  0  0  0  0  0  0  0  0  0
   -6.0061   -6.4966  -21.7953 C   0  0  1  0  0  0  0  0  0  0  0  0
   -6.9381   -5.4439  -21.9506 O   0  0  0  0  0  0  0  0  0  0  0  0
   -8.1142  -15.8811  -17.4997 C   0  0  2  0  0  0  0  0  0  0  0  0
   -8.3996  -14.8444  -18.4550 O   0  0  0  0  0  0  0  0  0  0  0  0
   -7.6842  -11.2494  -18.9721 C   0  0  2  0  0  0  0  0  0  0  0  0
   -8.1315  -12.0795  -20.0514 O   0  0  0  0  0  0  0  0  0  0  0  0
   -5.9228   -6.8379  -20.2692 C   0  0  0  0  0  0  0  0  0  0  0  0
   -7.2277   -7.4664  -19.8098 O   0  0  0  0  0  0  0  0  0  0  0  0
   -6.9895  -16.8580  -17.9152 C   0  0  0  0  0  0  0  0  0  0  0  0
   -7.3789  -17.5598  -19.1302 N   0  0  0  0  0  0  0  0  0  0  0  0
   -6.3642  -10.5177  -19.4104 C   0  0  1  0  0  0  0  0  0  0  0  0
   -6.6537   -9.7358  -20.5443 O   0  0  0  0  0  0  0  0  0  0  0  0
   -4.6546   -5.8800  -22.1928 C   0  0  0  0  0  0  0  0  0  0  0  0
   -6.4161   -8.6385  -25.0182 C   0  0  0  0  0  0  0  0  0  0  0  0
  1  2  1  1  0  0  0
  1  6  1  0  0  0  0
  1 21  1  0  0  0  0
  3  4  1  6  0  0  0
  3  8  1  0  0  0  0
  3 28  1  0  0  0  0
  5  9  1  0  0  0  0
  5 25  1  0  0  0  0
  5 29  1  6  0  0  0
  6  7  1  1  0  0  0
  6 11  1  0  0  0  0
  8 12  1  0  0  0  0
  9 10  1  6  0  0  0
  9 14  1  0  0  0  0
 11 16  1  0  0  0  0
 12 13  1  1  0  0  0
 12 17  1  0  0  0  0
 14 15  1  6  0  0  0
 14 18  1  0  0  0  0
 15 31  1  0  0  0  0
 16 20  1  0  0  0  0
 17  2  1  1  0  0  0
 17 22  1  0  0  0  0
 18 19  1  6  0  0  0
 18 24  1  0  0  0  0
 18 30  1  0  0  0  0
 20 21  1  0  0  0  0
 20 26  1  6  0  0  0
 22 23  1  6  0  0  0
 22 28  1  0  0  0  0
 24 25  1  0  0  0  0
 26 27  1  0  0  0  0
 28 29  1  6  0  0  0
M  END
>  <CHROM.1>
175.44780466,-167.48789852,-81.45696173,-176.07230395,117.66545692,-61.29258433
-7.38762242,-10.96377754,-19.40111217,2.23186554,1.17201480,1.95089021

>  <Name>
ligand

>  <RI>
0

>  <Rbt.Current_Directory>
/home/itssahil/PROJECTS/Mol_Feturizer/New_Systems/rnas/4F8U

>  <Rbt.Executable>
rbdock ($Id: //depot/dev/client3/rdock/2013.1/src/exe/rbdock.cxx#4 $)

>  <Rbt.Library>
libRbt.so (2013.1, Build901 2013/11/27)

>  <Rbt.Parameter_File>
/export/apps/rDock/src/rDock_2013.1_src/data/scripts/dock_solv.prm

>  <Rbt.Receptor>
prm/pocket_docking_6.prm

>  <SCORE>
-14.4303

>  <SCORE.INTER>
-7.72064

>  <SCORE.INTER.CONST>
1

>  <SCORE.INTER.POLAR>
0

>  <SCORE.INTER.ROT>
6

>  <SCORE.INTER.SOLV>
12.6354

>  <SCORE.INTER.VDW>
-16.9589

>  <SCORE.INTER.norm>
-0.249053

>  <SCORE.INTRA>
-6.70963

>  <SCORE.INTRA.DIHEDRAL>
-15.8064

>  <SCORE.INTRA.DIHEDRAL.0>
18.77

>  <SCORE.INTRA.POLAR>
0

>  <SCORE.INTRA.POLAR.0>
0

>  <SCORE.INTRA.REPUL>
0

>  <SCORE.INTRA.REPUL.0>
0

>  <SCORE.INTRA.SOLV>
-0.678231

>  <SCORE.INTRA.SOLV.lig_0>
-77.2465

>  <SCORE.INTRA.VDW>
1.53269

>  <SCORE.INTRA.VDW.0>
-4.16072

>  <SCORE.INTRA.norm>
-0.21644

>  <SCORE.RESTR>
0

>  <SCORE.RESTR.CAVITY>
0

>  <SCORE.RESTR.norm>
0

>  <SCORE.SYSTEM>
0

>  <SCORE.SYSTEM.CONST>
0

>  <SCORE.SYSTEM.DIHEDRAL>
0

>  <SCORE.SYSTEM.SOLV>
0

>  <SCORE.SYSTEM.norm>
0

>  <SCORE.heavy>
31

>  <SCORE.norm>
-0.465492

>  <RMSD>
9.240

$$$$
ligand
 OpenBabel11021811493D
libRbt.so/2013.1/901 2013/11/27
 31 33  0  0  0  0  0  0  0  0999 V2000
   -5.6029  -11.4685  -17.6508 C   0  0  2  0  0  0  0  0  0  0  0  0
   -6.9962  -11.4481  -17.9897 O   0  0  0  0  0  0  0  0  0  0  0  0
   -6.8322  -11.2876  -22.2641 C   0  0  2  0  0  0  0  0  0  0  0  0
   -7.2445  -11.3338  -23.6338 N   0  0  0  0  0  0  0  0  0  0  0  0
   -8.2585   -7.7767  -22.0964 C   0  0  2  0  0  0  0  0  0  0  0  0
   -5.4791  -10.7745  -16.2491 C   0  0  2  0  0  0  0  0  0  0  0  0
   -6.3071  -11.4785  -15.2762 N   0  0  0  0  0  0  0  0  0  0  0  0
   -7.1189  -12.6882  -21.5977 C   0  0  0  0  0  0  0  0  0  0  0  0
   -7.6656   -6.7491  -23.1092 C   0  0  2  0  0  0  0  0  0  0  0  0
   -7.6133   -7.3448  -24.3942 O   0  0  0  0  0  0  0  0  0  0  0  0
   -5.9113   -9.2710  -16.3609 C   0  0  0  0  0  0  0  0  0  0  0  0
   -6.6532  -12.6381  -20.0785 C   0  0  2  0  0  0  0  0  0  0  0  0
   -6.9193  -13.9489  -19.4413 N   0  0  0  0  0  0  0  0  0  0  0  0
   -6.2058   -6.3743  -22.5948 C   0  0  1  0  0  0  0  0  0  0  0  0
   -5.5442   -5.4078  -23.5358 N   0  0  0  0  0  0  0  0  0  0  0  0
   -5.2359   -8.5901  -17.5863 C   0  0  0  0  0  0  0  0  0  0  0  0
   -7.4439  -11.4828  -19.3176 C   0  0  2  0  0  0  0  0  0  0  0  0
   -6.3172   -5.6934  -21.1194 C   0  0  1  0  0  0  0  0  0  0  0  0
   -7.0927   -4.5105  -21.1366 O   0  0  0  0  0  0  0  0  0  0  0  0
   -4.7396   -9.3207  -18.5961 C   0  0  2  0  0  0  0  0  0  0  0  0
   -4.7851  -10.7579  -18.6284 O   0  0  0  0  0  0  0  0  0  0  0  0
   -7.1568  -10.0954  -20.0304 C   0  0  2  0  0  0  0  0  0  0  0  0
   -7.8823   -9.0508  -19.3697 O   0  0  0  0  0  0  0  0  0  0  0  0
   -7.0051   -6.6998  -20.1365 C   0  0  0  0  0  0  0  0  0  0  0  0
   -8.3281   -7.1670  -20.7199 O   0  0  0  0  0  0  0  0  0  0  0  0
   -4.0625   -8.6628  -19.8211 C   0  0  0  0  0  0  0  0  0  0  0  0
   -5.0002   -8.6272  -20.9345 N   0  0  0  0  0  0  0  0  0  0  0  0
   -7.6203  -10.1623  -21.5305 C   0  0  1  0  0  0  0  0  0  0  0  0
   -7.3451   -8.9184  -22.1290 O   0  0  0  0  0  0  0  0  0  0  0  0
   -4.9852   -5.2747  -20.4753 C   0  0  0  0  0  0  0  0  0  0  0  0
   -6.2410   -4.1261  -23.7547 C   0  0  0  0  0  0  0  0  0  0  0  0
  1  2  1  6  0  0  0
  1  6  1  0  0  0  0
  1 21  1  0  0  0  0
  3  4  1  6  0  0  0
  3  8  1  0  0  0  0
  3 28  1  0  0  0  0
  5  9  1  0  0  0  0
  5 25  1  0  0  0  0
  5 29  1  1  0  0  0
  6  7  1  1  0  0  0
  6 11  1  0  0  0  0
  8 12  1  0  0  0  0
  9 10  1  6  0  0  0
  9 14  1  0  0  0  0
 11 16  1  0  0  0  0
 12 13  1  1  0  0  0
 12 17  1  0  0  0  0
 14 15  1  6  0  0  0
 14 18  1  0  0  0  0
 15 31  1  0  0  0  0
 16 20  1  0  0  0  0
 17  2  1  1  0  0  0
 17 22  1  0  0  0  0
 18 19  1  6  0  0  0
 18 24  1  0  0  0  0
 18 30  1  0  0  0  0
 20 21  1  0  0  0  0
 20 26  1  1  0  0  0
 22 23  1  1  0  0  0
 22 28  1  0  0  0  0
 24 25  1  0  0  0  0
 26 27  1  0  0  0  0
 28 29  1  6  0  0  0
M  END
>  <CHROM.1>
154.47023937,-169.07313699,58.90718855,47.18467370,-100.65022512,153.94949693
-6.51531772,-8.96114113,-20.38666756,-1.37715981,-1.22254330,-0.49856016

>  <Name>
ligand

>  <RI>
0

>  <Rbt.Current_Directory>
/home/itssahil/PROJECTS/Mol_Feturizer/New_Systems/rnas/4F8U

>  <Rbt.Executable>
rbdock ($Id: //depot/dev/client3/rdock/2013.1/src/exe/rbdock.cxx#4 $)

>  <Rbt.Library>
libRbt.so (2013.1, Build901 2013/11/27)

>  <Rbt.Parameter_File>
/export/apps/rDock/src/rDock_2013.1_src/data/scripts/dock_solv.prm

>  <Rbt.Receptor>
prm/blind_docking_60.prm

>  <SCORE>
22.8226

>  <SCORE.INTER>
-0.179184

>  <SCORE.INTER.CONST>
1

>  <SCORE.INTER.POLAR>
0

>  <SCORE.INTER.ROT>
6

>  <SCORE.INTER.SOLV>
22.0678

>  <SCORE.INTER.VDW>
-15.0754

>  <SCORE.INTER.norm>
-0.00578011

>  <SCORE.INTRA>
4.6131

>  <SCORE.INTRA.DIHEDRAL>
-9.65614

>  <SCORE.INTRA.DIHEDRAL.0>
18.77

>  <SCORE.INTRA.POLAR>
0

>  <SCORE.INTRA.POLAR.0>
0

>  <SCORE.INTRA.REPUL>
0.175611

>  <SCORE.INTRA.REPUL.0>
0

>  <SCORE.INTRA.SOLV>
7.72361

>  <SCORE.INTRA.SOLV.lig_0>
-77.2465

>  <SCORE.INTRA.VDW>
4.70131

>  <SCORE.INTRA.VDW.0>
-4.16072

>  <SCORE.INTRA.norm>
0.14881

>  <SCORE.RESTR>
18.3887

>  <SCORE.RESTR.CAVITY>
18.3887

>  <SCORE.RESTR.norm>
0.593185

>  <SCORE.SYSTEM>
0

>  <SCORE.SYSTEM.CONST>
0

>  <SCORE.SYSTEM.DIHEDRAL>
0

>  <SCORE.SYSTEM.SOLV>
0

>  <SCORE.SYSTEM.norm>
0

>  <SCORE.heavy>
31

>  <SCORE.norm>
0.736214

>  <RMSD>
9.246

$$$$
ligand
 OpenBabel11021811493D
libRbt.so/2013.1/901 2013/11/27
 31 33  0  0  0  0  0  0  0  0999 V2000
   -8.3974   -9.7068  -14.5611 C   0  0  2  0  0  0  0  0  0  0  0  0
   -8.0886   -8.9582  -15.7447 O   0  0  0  0  0  0  0  0  0  0  0  0
   -6.1932  -10.6288  -19.2001 C   0  0  2  0  0  0  0  0  0  0  0  0
   -6.0206  -11.2629  -20.4714 N   0  0  0  0  0  0  0  0  0  0  0  0
   -6.2552   -8.5891  -21.6965 C   0  0  2  0  0  0  0  0  0  0  0  0
   -9.9414   -9.9831  -14.6035 C   0  0  2  0  0  0  0  0  0  0  0  0
  -10.2802  -10.6987  -15.8286 N   0  0  0  0  0  0  0  0  0  0  0  0
   -6.9536  -11.6186  -18.2357 C   0  0  0  0  0  0  0  0  0  0  0  0
   -5.1020   -7.6461  -22.1593 C   0  0  2  0  0  0  0  0  0  0  0  0
   -3.8946   -8.0546  -21.5396 O   0  0  0  0  0  0  0  0  0  0  0  0
  -10.7259   -8.6277  -14.5176 C   0  0  0  0  0  0  0  0  0  0  0  0
   -7.1378  -10.9161  -16.8215 C   0  0  2  0  0  0  0  0  0  0  0  0
   -7.8529  -11.8366  -15.9069 N   0  0  0  0  0  0  0  0  0  0  0  0
   -5.4992   -6.1690  -21.7157 C   0  0  1  0  0  0  0  0  0  0  0  0
   -4.4212   -5.1937  -22.0951 N   0  0  0  0  0  0  0  0  0  0  0  0
  -10.1648   -7.7343  -13.3737 C   0  0  0  0  0  0  0  0  0  0  0  0
   -7.9627   -9.5649  -17.0020 C   0  0  2  0  0  0  0  0  0  0  0  0
   -6.8883   -5.7446  -22.4526 C   0  0  1  0  0  0  0  0  0  0  0  0
   -6.7695   -5.7617  -23.8621 O   0  0  0  0  0  0  0  0  0  0  0  0
   -8.9362   -7.9402  -12.8757 C   0  0  2  0  0  0  0  0  0  0  0  0
   -8.0584   -8.9797  -13.3422 O   0  0  0  0  0  0  0  0  0  0  0  0
   -7.1854   -8.6068  -17.9988 C   0  0  2  0  0  0  0  0  0  0  0  0
   -7.9298   -7.3969  -18.1888 O   0  0  0  0  0  0  0  0  0  0  0  0
   -8.0138   -6.7591  -22.0571 C   0  0  0  0  0  0  0  0  0  0  0  0
   -7.5526   -8.1781  -22.3440 O   0  0  0  0  0  0  0  0  0  0  0  0
   -8.3620   -7.0649  -11.7373 C   0  0  0  0  0  0  0  0  0  0  0  0
   -9.4390   -6.3077  -11.1151 N   0  0  0  0  0  0  0  0  0  0  0  0
   -7.0097   -9.3163  -19.3900 C   0  0  1  0  0  0  0  0  0  0  0  0
   -6.3133   -8.4397  -20.2429 O   0  0  0  0  0  0  0  0  0  0  0  0
   -7.4151   -4.3377  -22.1246 C   0  0  0  0  0  0  0  0  0  0  0  0
   -4.3123   -3.9813  -21.2618 C   0  0  0  0  0  0  0  0  0  0  0  0
  1  2  1  6  0  0  0
  1  6  1  0  0  0  0
  1 21  1  0  0  0  0
  3  4  1  6  0  0  0
  3  8  1  0  0  0  0
  3 28  1  0  0  0  0
  5  9  1  0  0  0  0
  5 25  1  0  0  0  0
  5 29  1  1  0  0  0
  6  7  1  6  0  0  0
  6 11  1  0  0  0  0
  8 12  1  0  0  0  0
  9 10  1  1  0  0  0
  9 14  1  0  0  0  0
 11 16  1  0  0  0  0
 12 13  1  1  0  0  0
 12 17  1  0  0  0  0
 14 15  1  6  0  0  0
 14 18  1  0  0  0  0
 15 31  1  0  0  0  0
 16 20  1  0  0  0  0
 17  2  1  1  0  0  0
 17 22  1  0  0  0  0
 18 19  1  6  0  0  0
 18 24  1  0  0  0  0
 18 30  1  0  0  0  0
 20 21  1  0  0  0  0
 20 26  1  1  0  0  0
 22 23  1  6  0  0  0
 22 28  1  0  0  0  0
 24 25  1  0  0  0  0
 26 27  1  0  0  0  0
 28 29  1  6  0  0  0
M  END
>  <CHROM.1>
-78.46428418,-165.65948790,-152.63015831,-42.62739083,14.88734466,77.02126320
-7.37455959,-8.22255209,-18.24575915,-2.87600685,1.20887747,-0.02760966

>  <Name>
ligand

>  <RI>
0

>  <Rbt.Current_Directory>
/home/itssahil/PROJECTS/Mol_Feturizer/New_Systems/rnas/4F8U

>  <Rbt.Executable>
rbdock ($Id: //depot/dev/client3/rdock/2013.1/src/exe/rbdock.cxx#4 $)

>  <Rbt.Library>
libRbt.so (2013.1, Build901 2013/11/27)

>  <Rbt.Parameter_File>
/export/apps/rDock/src/rDock_2013.1_src/data/scripts/dock_solv.prm

>  <Rbt.Receptor>
prm/blind_docking_80.prm

>  <SCORE>
19.7831

>  <SCORE.INTER>
7.95441

>  <SCORE.INTER.CONST>
1

>  <SCORE.INTER.POLAR>
0

>  <SCORE.INTER.ROT>
6

>  <SCORE.INTER.SOLV>
21.2929

>  <SCORE.INTER.VDW>
-9.39469

>  <SCORE.INTER.norm>
0.256594

>  <SCORE.INTRA>
1.16322

>  <SCORE.INTRA.DIHEDRAL>
-11.0427

>  <SCORE.INTRA.DIHEDRAL.0>
18.77

>  <SCORE.INTRA.POLAR>
0

>  <SCORE.INTRA.POLAR.0>
0

>  <SCORE.INTRA.REPUL>
0

>  <SCORE.INTRA.REPUL.0>
0

>  <SCORE.INTRA.SOLV>
3.88571

>  <SCORE.INTRA.SOLV.lig_0>
-77.2465

>  <SCORE.INTRA.VDW>
4.74173

>  <SCORE.INTRA.VDW.0>
-4.16072

>  <SCORE.INTRA.norm>
0.0375232

>  <SCORE.RESTR>
10.6655

>  <SCORE.RESTR.CAVITY>
10.6655

>  <SCORE.RESTR.norm>
0.344049

>  <SCORE.SYSTEM>
0

>  <SCORE.SYSTEM.CONST>
0

>  <SCORE.SYSTEM.DIHEDRAL>
0

>  <SCORE.SYSTEM.SOLV>
0

>  <SCORE.SYSTEM.norm>
0

>  <SCORE.heavy>
31

>  <SCORE.norm>
0.638166

>  <RMSD>
9.257

$$$$
ligand
 OpenBabel11021811493D
libRbt.so/2013.1/901 2013/11/27
 31 33  0  0  0  0  0  0  0  0999 V2000
   -7.7372  -11.7504  -20.2254 C   0  0  2  0  0  0  0  0  0  0  0  0
   -6.3407  -11.7151  -19.9016 O   0  0  0  0  0  0  0  0  0  0  0  0
   -5.9279   -7.7493  -18.3441 C   0  0  2  0  0  0  0  0  0  0  0  0
   -5.3269   -6.5545  -17.8350 N   0  0  0  0  0  0  0  0  0  0  0  0
   -4.9245   -5.7351  -20.7759 C   0  0  2  0  0  0  0  0  0  0  0  0
   -7.9208  -12.9129  -21.2631 C   0  0  2  0  0  0  0  0  0  0  0  0
   -7.4425  -14.1656  -20.6889 N   0  0  0  0  0  0  0  0  0  0  0  0
   -5.5668   -8.9497  -17.3868 C   0  0  0  0  0  0  0  0  0  0  0  0
   -5.8492   -4.7111  -21.5035 C   0  0  2  0  0  0  0  0  0  0  0  0
   -6.9987   -4.4799  -20.7073 O   0  0  0  0  0  0  0  0  0  0  0  0
   -7.1433  -12.5746  -22.5825 C   0  0  0  0  0  0  0  0  0  0  0  0
   -6.2416  -10.2748  -17.9490 C   0  0  2  0  0  0  0  0  0  0  0  0
   -5.9076  -11.4104  -17.0580 N   0  0  0  0  0  0  0  0  0  0  0  0
   -6.2466   -5.3536  -22.9055 C   0  0  1  0  0  0  0  0  0  0  0  0
   -7.1697   -4.4423  -23.6636 N   0  0  0  0  0  0  0  0  0  0  0  0
   -7.4400  -11.1180  -23.0424 C   0  0  0  0  0  0  0  0  0  0  0  0
   -5.7121  -10.5562  -19.4253 C   0  0  2  0  0  0  0  0  0  0  0  0
   -4.8967   -5.5988  -23.7832 C   0  0  1  0  0  0  0  0  0  0  0  0
   -4.2000   -4.3938  -24.0354 O   0  0  0  0  0  0  0  0  0  0  0  0
   -7.9229  -10.2071  -22.1839 C   0  0  2  0  0  0  0  0  0  0  0  0
   -8.2035  -10.4940  -20.8027 O   0  0  0  0  0  0  0  0  0  0  0  0
   -6.0656   -9.3189  -20.3525 C   0  0  2  0  0  0  0  0  0  0  0  0
   -5.5727   -9.5494  -21.6783 O   0  0  0  0  0  0  0  0  0  0  0  0
   -3.9338   -6.5499  -22.9955 C   0  0  0  0  0  0  0  0  0  0  0  0
   -3.6909   -5.9974  -21.6010 O   0  0  0  0  0  0  0  0  0  0  0  0
   -8.2266   -8.7555  -22.6224 C   0  0  0  0  0  0  0  0  0  0  0  0
   -8.1498   -7.8722  -21.4674 N   0  0  0  0  0  0  0  0  0  0  0  0
   -5.3936   -8.0179  -19.7821 C   0  0  1  0  0  0  0  0  0  0  0  0
   -5.7336   -6.9442  -20.6263 O   0  0  0  0  0  0  0  0  0  0  0  0
   -5.1082   -6.2228  -25.1726 C   0  0  0  0  0  0  0  0  0  0  0  0
   -8.5817   -4.4377  -23.2364 C   0  0  0  0  0  0  0  0  0  0  0  0
  1  2  1  6  0  0  0
  1  6  1  0  0  0  0
  1 21  1  0  0  0  0
  3  4  1  1  0  0  0
  3  8  1  0  0  0  0
  3 28  1  0  0  0  0
  5  9  1  0  0  0  0
  5 25  1  0  0  0  0
  5 29  1  6  0  0  0
  6  7  1  1  0  0  0
  6 11  1  0  0  0  0
  8 12  1  0  0  0  0
  9 10  1  1  0  0  0
  9 14  1  0  0  0  0
 11 16  1  0  0  0  0
 12 13  1  1  0  0  0
 12 17  1  0  0  0  0
 14 15  1  6  0  0  0
 14 18  1  0  0  0  0
 15 31  1  0  0  0  0
 16 20  1  0  0  0  0
 17  2  1  6  0  0  0
 17 22  1  0  0  0  0
 18 19  1  6  0  0  0
 18 24  1  0  0  0  0
 18 30  1  0  0  0  0
 20 21  1  0  0  0  0
 20 26  1  6  0  0  0
 22 23  1  6  0  0  0
 22 28  1  0  0  0  0
 24 25  1  0  0  0  0
 26 27  1  0  0  0  0
 28 29  1  6  0  0  0
M  END
>  <CHROM.1>
155.68678882,-166.14495357,-78.03223643,69.86366302,-154.71970346,86.48814851
-6.30107302,-8.31454210,-21.17465568,2.05560260,1.17747946,2.29805973

>  <Name>
ligand

>  <RI>
0

>  <Rbt.Current_Directory>
/home/itssahil/PROJECTS/Mol_Feturizer/New_Systems/rnas/4F8U

>  <Rbt.Executable>
rbdock ($Id: //depot/dev/client3/rdock/2013.1/src/exe/rbdock.cxx#4 $)

>  <Rbt.Library>
libRbt.so (2013.1, Build901 2013/11/27)

>  <Rbt.Parameter_File>
/export/apps/rDock/src/rDock_2013.1_src/data/scripts/dock_solv.prm

>  <Rbt.Receptor>
prm/blind_docking_80.prm

>  <SCORE>
82.0066

>  <SCORE.INTER>
66.7647

>  <SCORE.INTER.CONST>
1

>  <SCORE.INTER.POLAR>
0

>  <SCORE.INTER.ROT>
6

>  <SCORE.INTER.SOLV>
28.9493

>  <SCORE.INTER.VDW>
27.26

>  <SCORE.INTER.norm>
2.1537

>  <SCORE.INTRA>
5.5704

>  <SCORE.INTRA.DIHEDRAL>
-8.78123

>  <SCORE.INTRA.DIHEDRAL.0>
18.77

>  <SCORE.INTRA.POLAR>
0

>  <SCORE.INTRA.POLAR.0>
0

>  <SCORE.INTRA.REPUL>
0

>  <SCORE.INTRA.REPUL.0>
0

>  <SCORE.INTRA.SOLV>
6.30332

>  <SCORE.INTRA.SOLV.lig_0>
-77.2465

>  <SCORE.INTRA.VDW>
6.80935

>  <SCORE.INTRA.VDW.0>
-4.16072

>  <SCORE.INTRA.norm>
0.17969

>  <SCORE.RESTR>
9.67151

>  <SCORE.RESTR.CAVITY>
9.67151

>  <SCORE.RESTR.norm>
0.311984

>  <SCORE.SYSTEM>
0

>  <SCORE.SYSTEM.CONST>
0

>  <SCORE.SYSTEM.DIHEDRAL>
0

>  <SCORE.SYSTEM.SOLV>
0

>  <SCORE.SYSTEM.norm>
0

>  <SCORE.heavy>
31

>  <SCORE.norm>
2.64537

>  <RMSD>
9.259

$$$$
ligand
 OpenBabel11021811493D
libRbt.so/2013.1/901 2013/11/27
 31 33  0  0  0  0  0  0  0  0999 V2000
   -4.0558  -12.6634  -10.2060 C   0  0  2  0  0  0  0  0  0  0  0  0
   -5.0689  -11.7870  -10.7179 O   0  0  0  0  0  0  0  0  0  0  0  0
   -9.2067  -10.9807   -9.9745 C   0  0  2  0  0  0  0  0  0  0  0  0
  -10.4223  -10.6963   -9.2750 N   0  0  0  0  0  0  0  0  0  0  0  0
   -8.0741   -7.7922  -11.2330 C   0  0  2  0  0  0  0  0  0  0  0  0
   -2.7310  -12.2966  -10.9624 C   0  0  2  0  0  0  0  0  0  0  0  0
   -2.4177  -10.8876  -10.7519 N   0  0  0  0  0  0  0  0  0  0  0  0
   -8.6252  -12.3501   -9.4504 C   0  0  0  0  0  0  0  0  0  0  0  0
   -8.7053   -6.3742  -11.0777 C   0  0  2  0  0  0  0  0  0  0  0  0
   -8.4413   -5.8919   -9.7714 O   0  0  0  0  0  0  0  0  0  0  0  0
   -2.8892  -12.6074  -12.4916 C   0  0  0  0  0  0  0  0  0  0  0  0
   -7.2791  -12.6689  -10.2337 C   0  0  2  0  0  0  0  0  0  0  0  0
   -6.7224  -13.9532   -9.7482 N   0  0  0  0  0  0  0  0  0  0  0  0
  -10.2712   -6.5299  -11.3223 C   0  0  1  0  0  0  0  0  0  0  0  0
  -10.9673   -5.2086  -11.1581 N   0  0  0  0  0  0  0  0  0  0  0  0
   -3.4984  -14.0227  -12.7091 C   0  0  0  0  0  0  0  0  0  0  0  0
   -6.2342  -11.4892   -9.9980 C   0  0  2  0  0  0  0  0  0  0  0  0
  -10.5240   -7.0839  -12.8329 C   0  0  1  0  0  0  0  0  0  0  0  0
  -10.0127   -6.2035  -13.8149 O   0  0  0  0  0  0  0  0  0  0  0  0
   -4.1714  -14.6434  -11.7286 C   0  0  2  0  0  0  0  0  0  0  0  0
   -4.3778  -14.0696  -10.4259 O   0  0  0  0  0  0  0  0  0  0  0  0
   -6.8617  -10.1250  -10.5085 C   0  0  2  0  0  0  0  0  0  0  0  0
   -5.9406   -9.0512  -10.2796 O   0  0  0  0  0  0  0  0  0  0  0  0
   -9.8007   -8.4620  -13.0056 C   0  0  0  0  0  0  0  0  0  0  0  0
   -8.3379   -8.3286  -12.6165 O   0  0  0  0  0  0  0  0  0  0  0  0
   -4.7817  -16.0508  -11.9244 C   0  0  0  0  0  0  0  0  0  0  0  0
   -6.1861  -16.0300  -11.5400 N   0  0  0  0  0  0  0  0  0  0  0  0
   -8.1917   -9.8258   -9.7266 C   0  0  1  0  0  0  0  0  0  0  0  0
   -8.7197   -8.6140  -10.2099 O   0  0  0  0  0  0  0  0  0  0  0  0
  -11.9947   -7.2950  -13.2290 C   0  0  0  0  0  0  0  0  0  0  0  0
  -11.9724   -5.1274  -10.0814 C   0  0  0  0  0  0  0  0  0  0  0  0
  1  2  1  6  0  0  0
  1  6  1  0  0  0  0
  1 21  1  0  0  0  0
  3  4  1  1  0  0  0
  3  8  1  0  0  0  0
  3 28  1  0  0  0  0
  5  9  1  0  0  0  0
  5 25  1  0  0  0  0
  5 29  1  1  0  0  0
  6  7  1  6  0  0  0
  6 11  1  0  0  0  0
  8 12  1  0  0  0  0
  9 10  1  1  0  0  0
  9 14  1  0  0  0  0
 11 16  1  0  0  0  0
 12 13  1  1  0  0  0
 12 17  1  0  0  0  0
 14 15  1  6  0  0  0
 14 18  1  0  0  0  0
 15 31  1  0  0  0  0
 16 20  1  0  0  0  0
 17  2  1  6  0  0  0
 17 22  1  0  0  0  0
 18 19  1  6  0  0  0
 18 24  1  0  0  0  0
 18 30  1  0  0  0  0
 20 21  1  0  0  0  0
 20 26  1  1  0  0  0
 22 23  1  1  0  0  0
 22 28  1  0  0  0  0
 24 25  1  0  0  0  0
 26 27  1  0  0  0  0
 28 29  1  6  0  0  0
M  END
>  <CHROM.1>
-157.48911309,-160.32461841,-118.17579306,-82.64286172,-128.07838580,-121.13946262
-7.35415660,-10.24805554,-11.07203381,-0.87441874,0.13132984,-0.16012846

>  <Name>
ligand

>  <RI>
0

>  <Rbt.Current_Directory>
/home/itssahil/PROJECTS/Mol_Feturizer/New_Systems/rnas/4F8U

>  <Rbt.Executable>
rbdock ($Id: //depot/dev/client3/rdock/2013.1/src/exe/rbdock.cxx#4 $)

>  <Rbt.Library>
libRbt.so (2013.1, Build901 2013/11/27)

>  <Rbt.Parameter_File>
/export/apps/rDock/src/rDock_2013.1_src/data/scripts/dock_solv.prm

>  <Rbt.Receptor>
prm/blind_docking_20.prm

>  <SCORE>
15.3974

>  <SCORE.INTER>
3.92382

>  <SCORE.INTER.CONST>
1

>  <SCORE.INTER.POLAR>
0

>  <SCORE.INTER.ROT>
6

>  <SCORE.INTER.SOLV>
16.2994

>  <SCORE.INTER.VDW>
-10.4172

>  <SCORE.INTER.norm>
0.126575

>  <SCORE.INTRA>
3.58234

>  <SCORE.INTRA.DIHEDRAL>
-2.39561

>  <SCORE.INTRA.DIHEDRAL.0>
18.77

>  <SCORE.INTRA.POLAR>
0

>  <SCORE.INTRA.POLAR.0>
0

>  <SCORE.INTRA.REPUL>
0

>  <SCORE.INTRA.REPUL.0>
0

>  <SCORE.INTRA.SOLV>
3.1162

>  <SCORE.INTRA.SOLV.lig_0>
-77.2465

>  <SCORE.INTRA.VDW>
3.22204

>  <SCORE.INTRA.VDW.0>
-4.16072

>  <SCORE.INTRA.norm>
0.115559

>  <SCORE.RESTR>
7.89123

>  <SCORE.RESTR.CAVITY>
7.89123

>  <SCORE.RESTR.norm>
0.254556

>  <SCORE.SYSTEM>
0

>  <SCORE.SYSTEM.CONST>
0

>  <SCORE.SYSTEM.DIHEDRAL>
0

>  <SCORE.SYSTEM.SOLV>
0

>  <SCORE.SYSTEM.norm>
0

>  <SCORE.heavy>
31

>  <SCORE.norm>
0.49669

>  <RMSD>
9.260

$$$$
ligand
 OpenBabel11021811493D
libRbt.so/2013.1/901 2013/11/27
 31 33  0  0  0  0  0  0  0  0999 V2000
   -5.3645  -11.9099  -11.6830 C   0  0  2  0  0  0  0  0  0  0  0  0
   -6.0485  -10.6960  -11.3439 O   0  0  0  0  0  0  0  0  0  0  0  0
   -9.2207   -8.5442  -13.2493 C   0  0  2  0  0  0  0  0  0  0  0  0
  -10.5197   -8.2222  -13.7563 N   0  0  0  0  0  0  0  0  0  0  0  0
   -8.9796   -6.3067  -11.0819 C   0  0  2  0  0  0  0  0  0  0  0  0
   -5.2560  -12.7411  -10.3566 C   0  0  2  0  0  0  0  0  0  0  0  0
   -6.5888  -12.9769   -9.8127 N   0  0  0  0  0  0  0  0  0  0  0  0
   -8.7142   -9.8652  -13.9467 C   0  0  0  0  0  0  0  0  0  0  0  0
   -9.9027   -5.2628  -10.3810 C   0  0  2  0  0  0  0  0  0  0  0  0
  -10.1999   -5.7153   -9.0711 O   0  0  0  0  0  0  0  0  0  0  0  0
   -4.3619  -11.9741   -9.3211 C   0  0  0  0  0  0  0  0  0  0  0  0
   -7.2679  -10.2174  -13.3887 C   0  0  2  0  0  0  0  0  0  0  0  0
   -6.7821  -11.4585  -14.0359 N   0  0  0  0  0  0  0  0  0  0  0  0
  -11.2269   -5.1459  -11.2579 C   0  0  1  0  0  0  0  0  0  0  0  0
  -12.1927   -4.1794  -10.6331 N   0  0  0  0  0  0  0  0  0  0  0  0
   -3.0497  -11.4700   -9.9884 C   0  0  0  0  0  0  0  0  0  0  0  0
   -7.3396  -10.4098  -11.8086 C   0  0  2  0  0  0  0  0  0  0  0  0
  -10.8357   -4.6226  -12.7499 C   0  0  1  0  0  0  0  0  0  0  0  0
  -10.2151   -3.3518  -12.7222 O   0  0  0  0  0  0  0  0  0  0  0  0
   -2.9559  -11.3450  -11.3208 C   0  0  2  0  0  0  0  0  0  0  0  0
   -4.0313  -11.6621  -12.2218 O   0  0  0  0  0  0  0  0  0  0  0  0
   -7.8795   -9.0751  -11.1432 C   0  0  2  0  0  0  0  0  0  0  0  0
   -7.9719   -9.2436   -9.7230 O   0  0  0  0  0  0  0  0  0  0  0  0
   -9.8303   -5.6296  -13.4035 C   0  0  0  0  0  0  0  0  0  0  0  0
   -8.6451   -5.8483  -12.4781 O   0  0  0  0  0  0  0  0  0  0  0  0
   -1.6598  -10.8484  -12.0028 C   0  0  0  0  0  0  0  0  0  0  0  0
   -1.4906  -11.5280  -13.2795 N   0  0  0  0  0  0  0  0  0  0  0  0
   -9.3077   -8.7399  -11.7067 C   0  0  1  0  0  0  0  0  0  0  0  0
   -9.7495   -7.5500  -11.0985 O   0  0  0  0  0  0  0  0  0  0  0  0
  -12.0100   -4.4597  -13.7291 C   0  0  0  0  0  0  0  0  0  0  0  0
  -13.5992   -4.2883  -11.0644 C   0  0  0  0  0  0  0  0  0  0  0  0
  1  2  1  1  0  0  0
  1  6  1  0  0  0  0
  1 21  1  0  0  0  0
  3  4  1  6  0  0  0
  3  8  1  0  0  0  0
  3 28  1  0  0  0  0
  5  9  1  0  0  0  0
  5 25  1  0  0  0  0
  5 29  1  6  0  0  0
  6  7  1  1  0  0  0
  6 11  1  0  0  0  0
  8 12  1  0  0  0  0
  9 10  1  1  0  0  0
  9 14  1  0  0  0  0
 11 16  1  0  0  0  0
 12 13  1  6  0  0  0
 12 17  1  0  0  0  0
 14 15  1  1  0  0  0
 14 18  1  0  0  0  0
 15 31  1  0  0  0  0
 16 20  1  0  0  0  0
 17  2  1  1  0  0  0
 17 22  1  0  0  0  0
 18 19  1  1  0  0  0
 18 24  1  0  0  0  0
 18 30  1  0  0  0  0
 20 21  1  0  0  0  0
 20 26  1  6  0  0  0
 22 23  1  1  0  0  0
 22 28  1  0  0  0  0
 24 25  1  0  0  0  0
 26 27  1  0  0  0  0
 28 29  1  1  0  0  0
M  END
>  <CHROM.1>
-111.83880307,176.67273078,-160.78698149,-66.50859841,145.38755065,-66.22938174
-7.86666638,-8.51712392,-11.72063721,-0.08781563,0.75483459,-1.50218216

>  <Name>
ligand

>  <RI>
0

>  <Rbt.Current_Directory>
/home/itssahil/PROJECTS/Mol_Feturizer/New_Systems/rnas/4F8U

>  <Rbt.Executable>
rbdock ($Id: //depot/dev/client3/rdock/2013.1/src/exe/rbdock.cxx#4 $)

>  <Rbt.Library>
libRbt.so (2013.1, Build901 2013/11/27)

>  <Rbt.Parameter_File>
/export/apps/rDock/src/rDock_2013.1_src/data/scripts/dock_solv.prm

>  <Rbt.Receptor>
prm/blind_docking_40.prm

>  <SCORE>
16.2024

>  <SCORE.INTER>
1.16561

>  <SCORE.INTER.CONST>
1

>  <SCORE.INTER.POLAR>
0

>  <SCORE.INTER.ROT>
6

>  <SCORE.INTER.SOLV>
13.1139

>  <SCORE.INTER.VDW>
-11.1942

>  <SCORE.INTER.norm>
0.0376003

>  <SCORE.INTRA>
1.16766

>  <SCORE.INTRA.DIHEDRAL>
-8.7504

>  <SCORE.INTRA.DIHEDRAL.0>
18.77

>  <SCORE.INTRA.POLAR>
0

>  <SCORE.INTRA.POLAR.0>
0

>  <SCORE.INTRA.REPUL>
0

>  <SCORE.INTRA.REPUL.0>
0

>  <SCORE.INTRA.SOLV>
2.42134

>  <SCORE.INTRA.SOLV.lig_0>
-77.2465

>  <SCORE.INTRA.VDW>
4.33219

>  <SCORE.INTRA.VDW.0>
-4.16072

>  <SCORE.INTRA.norm>
0.0376664

>  <SCORE.RESTR>
13.8692

>  <SCORE.RESTR.CAVITY>
13.8692

>  <SCORE.RESTR.norm>
0.447393

>  <SCORE.SYSTEM>
0

>  <SCORE.SYSTEM.CONST>
0

>  <SCORE.SYSTEM.DIHEDRAL>
0

>  <SCORE.SYSTEM.SOLV>
0

>  <SCORE.SYSTEM.norm>
0

>  <SCORE.heavy>
31

>  <SCORE.norm>
0.522659

>  <RMSD>
9.269

$$$$
ligand
 OpenBabel11021811493D
libRbt.so/2013.1/901 2013/11/27
 31 33  0  0  0  0  0  0  0  0999 V2000
   -4.1535  -13.1502   -9.6191 C   0  0  2  0  0  0  0  0  0  0  0  0
   -5.3210  -13.0495  -10.4458 O   0  0  0  0  0  0  0  0  0  0  0  0
   -9.4094  -11.7811  -10.4409 C   0  0  2  0  0  0  0  0  0  0  0  0
  -10.6298  -11.1601  -10.0251 N   0  0  0  0  0  0  0  0  0  0  0  0
   -7.9008   -8.6465  -12.0674 C   0  0  2  0  0  0  0  0  0  0  0  0
   -3.6475  -11.6829   -9.3888 C   0  0  2  0  0  0  0  0  0  0  0  0
   -4.7059  -10.8873   -8.7767 N   0  0  0  0  0  0  0  0  0  0  0  0
   -8.9686  -12.8247   -9.3433 C   0  0  0  0  0  0  0  0  0  0  0  0
   -8.2023   -7.4912  -11.0636 C   0  0  2  0  0  0  0  0  0  0  0  0
   -7.8452   -7.9095   -9.7574 O   0  0  0  0  0  0  0  0  0  0  0  0
   -3.2006  -11.0547  -10.7547 C   0  0  0  0  0  0  0  0  0  0  0  0
   -7.6170  -13.5195   -9.8100 C   0  0  2  0  0  0  0  0  0  0  0  0
   -7.1920  -14.5015   -8.7852 N   0  0  0  0  0  0  0  0  0  0  0  0
   -9.7624   -7.1852  -11.1576 C   0  0  1  0  0  0  0  0  0  0  0  0
  -10.1486   -6.0999  -10.1931 N   0  0  0  0  0  0  0  0  0  0  0  0
   -2.2880  -12.0373  -11.5440 C   0  0  0  0  0  0  0  0  0  0  0  0
   -6.4912  -12.4104  -10.0132 C   0  0  2  0  0  0  0  0  0  0  0  0
  -10.1234   -6.7081  -12.6725 C   0  0  1  0  0  0  0  0  0  0  0  0
   -9.4239   -5.5354  -13.0419 O   0  0  0  0  0  0  0  0  0  0  0  0
   -2.2846  -13.3502  -11.2681 C   0  0  2  0  0  0  0  0  0  0  0  0
   -3.1003  -13.9442  -10.2431 O   0  0  0  0  0  0  0  0  0  0  0  0
   -6.9789  -11.3631  -11.1000 C   0  0  2  0  0  0  0  0  0  0  0  0
   -5.9846  -10.3458  -11.2743 O   0  0  0  0  0  0  0  0  0  0  0  0
   -9.7230   -7.8386  -13.6794 C   0  0  0  0  0  0  0  0  0  0  0  0
   -8.2694   -8.2267  -13.4672 O   0  0  0  0  0  0  0  0  0  0  0  0
   -1.3830  -14.3420  -12.0394 C   0  0  0  0  0  0  0  0  0  0  0  0
   -2.0155  -15.6533  -12.0683 N   0  0  0  0  0  0  0  0  0  0  0  0
   -8.3159  -10.6875  -10.6250 C   0  0  1  0  0  0  0  0  0  0  0  0
   -8.7185   -9.7715  -11.6148 O   0  0  0  0  0  0  0  0  0  0  0  0
  -11.6020   -6.3762  -12.9332 C   0  0  0  0  0  0  0  0  0  0  0  0
  -11.5498   -6.1022   -9.7318 C   0  0  0  0  0  0  0  0  0  0  0  0
  1  2  1  6  0  0  0
  1  6  1  0  0  0  0
  1 21  1  0  0  0  0
  3  4  1  1  0  0  0
  3  8  1  0  0  0  0
  3 28  1  0  0  0  0
  5  9  1  0  0  0  0
  5 25  1  0  0  0  0
  5 29  1  1  0  0  0
  6  7  1  6  0  0  0
  6 11  1  0  0  0  0
  8 12  1  0  0  0  0
  9 10  1  1  0  0  0
  9 14  1  0  0  0  0
 11 16  1  0  0  0  0
 12 13  1  1  0  0  0
 12 17  1  0  0  0  0
 14 15  1  1  0  0  0
 14 18  1  0  0  0  0
 15 31  1  0  0  0  0
 16 20  1  0  0  0  0
 17  2  1  6  0  0  0
 17 22  1  0  0  0  0
 18 19  1  6  0  0  0
 18 24  1  0  0  0  0
 18 30  1  0  0  0  0
 20 21  1  0  0  0  0
 20 26  1  1  0  0  0
 22 23  1  1  0  0  0
 22 28  1  0  0  0  0
 24 25  1  0  0  0  0
 26 27  1  0  0  0  0
 28 29  1  6  0  0  0
M  END
>  <CHROM.1>
-64.24136090,-85.57353396,-154.23498873,-110.87761678,-150.90008520,-177.73573254
-7.00894568,-10.46738343,-10.95124008,0.72254723,-0.31131161,2.64822786

>  <Name>
ligand

>  <RI>
0

>  <Rbt.Current_Directory>
/home/itssahil/PROJECTS/Mol_Feturizer/New_Systems/rnas/4F8U

>  <Rbt.Executable>
rbdock ($Id: //depot/dev/client3/rdock/2013.1/src/exe/rbdock.cxx#4 $)

>  <Rbt.Library>
libRbt.so (2013.1, Build901 2013/11/27)

>  <Rbt.Parameter_File>
/export/apps/rDock/src/rDock_2013.1_src/data/scripts/dock_solv.prm

>  <Rbt.Receptor>
prm/blind_docking_20.prm

>  <SCORE>
8.58767

>  <SCORE.INTER>
1.50818

>  <SCORE.INTER.CONST>
1

>  <SCORE.INTER.POLAR>
0

>  <SCORE.INTER.ROT>
6

>  <SCORE.INTER.SOLV>
19.7892

>  <SCORE.INTER.VDW>
-13.191

>  <SCORE.INTER.norm>
0.0486509

>  <SCORE.INTRA>
0.801014

>  <SCORE.INTRA.DIHEDRAL>
-5.92976

>  <SCORE.INTRA.DIHEDRAL.0>
18.77

>  <SCORE.INTRA.POLAR>
0

>  <SCORE.INTRA.POLAR.0>
0

>  <SCORE.INTRA.REPUL>
0.00207725

>  <SCORE.INTRA.REPUL.0>
0

>  <SCORE.INTRA.SOLV>
1.21391

>  <SCORE.INTRA.SOLV.lig_0>
-77.2465

>  <SCORE.INTRA.VDW>
3.14855

>  <SCORE.INTRA.VDW.0>
-4.16072

>  <SCORE.INTRA.norm>
0.0258392

>  <SCORE.RESTR>
6.27847

>  <SCORE.RESTR.CAVITY>
6.27847

>  <SCORE.RESTR.norm>
0.202531

>  <SCORE.SYSTEM>
0

>  <SCORE.SYSTEM.CONST>
0

>  <SCORE.SYSTEM.DIHEDRAL>
0

>  <SCORE.SYSTEM.SOLV>
0

>  <SCORE.SYSTEM.norm>
0

>  <SCORE.heavy>
31

>  <SCORE.norm>
0.277021

>  <RMSD>
9.289

$$$$
ligand
 OpenBabel11021811493D
libRbt.so/2013.1/901 2013/11/27
 31 33  0  0  0  0  0  0  0  0999 V2000
   -7.8070   -9.2413  -15.6581 C   0  0  2  0  0  0  0  0  0  0  0  0
   -8.4335   -9.7542  -16.8418 O   0  0  0  0  0  0  0  0  0  0  0  0
   -5.4520   -8.9902  -19.8167 C   0  0  2  0  0  0  0  0  0  0  0  0
   -4.8262   -8.8488  -21.0960 N   0  0  0  0  0  0  0  0  0  0  0  0
   -6.8471   -5.6356  -20.6266 C   0  0  2  0  0  0  0  0  0  0  0  0
   -7.3926  -10.4891  -14.8017 C   0  0  2  0  0  0  0  0  0  0  0  0
   -6.5091  -11.3496  -15.5806 N   0  0  0  0  0  0  0  0  0  0  0  0
   -5.9613  -10.4748  -19.6595 C   0  0  0  0  0  0  0  0  0  0  0  0
   -6.8448   -6.1617  -22.0951 C   0  0  2  0  0  0  0  0  0  0  0  0
   -7.5399   -7.3959  -22.1444 O   0  0  0  0  0  0  0  0  0  0  0  0
   -8.6741  -11.2727  -14.3505 C   0  0  0  0  0  0  0  0  0  0  0  0
   -6.6491  -10.6327  -18.2349 C   0  0  2  0  0  0  0  0  0  0  0  0
   -7.1333  -12.0239  -18.0765 N   0  0  0  0  0  0  0  0  0  0  0  0
   -5.3222   -6.3474  -22.5231 C   0  0  1  0  0  0  0  0  0  0  0  0
   -5.2269   -6.8864  -23.9223 N   0  0  0  0  0  0  0  0  0  0  0  0
   -9.7433  -10.3005  -13.7733 C   0  0  0  0  0  0  0  0  0  0  0  0
   -7.8630   -9.6077  -18.1137 C   0  0  2  0  0  0  0  0  0  0  0  0
   -4.5672   -4.9060  -22.4524 C   0  0  1  0  0  0  0  0  0  0  0  0
   -5.1534   -3.9552  -23.3204 O   0  0  0  0  0  0  0  0  0  0  0  0
   -9.7073   -8.9889  -14.0529 C   0  0  2  0  0  0  0  0  0  0  0  0
   -8.7011   -8.3857  -14.8850 O   0  0  0  0  0  0  0  0  0  0  0  0
   -7.3207   -8.1296  -18.3056 C   0  0  2  0  0  0  0  0  0  0  0  0
   -8.4076   -7.1992  -18.2230 O   0  0  0  0  0  0  0  0  0  0  0  0
   -4.6639   -4.3431  -20.9943 C   0  0  0  0  0  0  0  0  0  0  0  0
   -6.1155   -4.3204  -20.5459 O   0  0  0  0  0  0  0  0  0  0  0  0
  -10.7591   -8.0065  -13.4868 C   0  0  0  0  0  0  0  0  0  0  0  0
  -10.0919   -6.9821  -12.6957 N   0  0  0  0  0  0  0  0  0  0  0  0
   -6.6423   -7.9910  -19.7163 C   0  0  1  0  0  0  0  0  0  0  0  0
   -6.1705   -6.6714  -19.8467 O   0  0  0  0  0  0  0  0  0  0  0  0
   -3.0777   -4.9133  -22.8340 C   0  0  0  0  0  0  0  0  0  0  0  0
   -3.9533   -7.5343  -24.2891 C   0  0  0  0  0  0  0  0  0  0  0  0
  1  2  1  6  0  0  0
  1  6  1  0  0  0  0
  1 21  1  0  0  0  0
  3  4  1  6  0  0  0
  3  8  1  0  0  0  0
  3 28  1  0  0  0  0
  5  9  1  0  0  0  0
  5 25  1  0  0  0  0
  5 29  1  1  0  0  0
  6  7  1  6  0  0  0
  6 11  1  0  0  0  0
  8 12  1  0  0  0  0
  9 10  1  1  0  0  0
  9 14  1  0  0  0  0
 11 16  1  0  0  0  0
 12 13  1  6  0  0  0
 12 17  1  0  0  0  0
 14 15  1  6  0  0  0
 14 18  1  0  0  0  0
 15 31  1  0  0  0  0
 16 20  1  0  0  0  0
 17  2  1  1  0  0  0
 17 22  1  0  0  0  0
 18 19  1  6  0  0  0
 18 24  1  0  0  0  0
 18 30  1  0  0  0  0
 20 21  1  0  0  0  0
 20 26  1  1  0  0  0
 22 23  1  6  0  0  0
 22 28  1  0  0  0  0
 24 25  1  0  0  0  0
 26 27  1  0  0  0  0
 28 29  1  1  0  0  0
M  END
>  <CHROM.1>
-113.27799325,-62.05944214,-159.79786962,75.10674715,120.85162356,138.46684117
-6.88971987,-7.95020530,-18.83601596,2.46507982,-1.02714448,2.83408912

>  <Name>
ligand

>  <RI>
0

>  <Rbt.Current_Directory>
/home/itssahil/PROJECTS/Mol_Feturizer/New_Systems/rnas/4F8U

>  <Rbt.Executable>
rbdock ($Id: //depot/dev/client3/rdock/2013.1/src/exe/rbdock.cxx#4 $)

>  <Rbt.Library>
libRbt.so (2013.1, Build901 2013/11/27)

>  <Rbt.Parameter_File>
/export/apps/rDock/src/rDock_2013.1_src/data/scripts/dock_solv.prm

>  <Rbt.Receptor>
prm/blind_docking_80.prm

>  <SCORE>
26.0138

>  <SCORE.INTER>
8.642

>  <SCORE.INTER.CONST>
1

>  <SCORE.INTER.POLAR>
0

>  <SCORE.INTER.ROT>
6

>  <SCORE.INTER.SOLV>
17.11

>  <SCORE.INTER.VDW>
-7.542

>  <SCORE.INTER.norm>
0.278774

>  <SCORE.INTRA>
4.71182

>  <SCORE.INTRA.DIHEDRAL>
-3.06913

>  <SCORE.INTRA.DIHEDRAL.0>
18.77

>  <SCORE.INTRA.POLAR>
0

>  <SCORE.INTRA.POLAR.0>
0

>  <SCORE.INTRA.REPUL>
0

>  <SCORE.INTRA.REPUL.0>
0

>  <SCORE.INTRA.SOLV>
6.27092

>  <SCORE.INTRA.SOLV.lig_0>
-77.2465

>  <SCORE.INTRA.VDW>
3.11093

>  <SCORE.INTRA.VDW.0>
-4.16072

>  <SCORE.INTRA.norm>
0.151994

>  <SCORE.RESTR>
12.66

>  <SCORE.RESTR.CAVITY>
12.66

>  <SCORE.RESTR.norm>
0.408388

>  <SCORE.SYSTEM>
0

>  <SCORE.SYSTEM.CONST>
0

>  <SCORE.SYSTEM.DIHEDRAL>
0

>  <SCORE.SYSTEM.SOLV>
0

>  <SCORE.SYSTEM.norm>
0

>  <SCORE.heavy>
31

>  <SCORE.norm>
0.839156

>  <RMSD>
9.289

$$$$
ligand
 OpenBabel11021811493D
libRbt.so/2013.1/901 2013/11/27
 31 33  0  0  0  0  0  0  0  0999 V2000
   -6.3183  -11.0785  -24.8012 C   0  0  2  0  0  0  0  0  0  0  0  0
   -7.1899  -11.4212  -23.7152 O   0  0  0  0  0  0  0  0  0  0  0  0
   -7.4485  -11.4736  -19.4427 C   0  0  2  0  0  0  0  0  0  0  0  0
   -7.0569  -11.4698  -18.0662 N   0  0  0  0  0  0  0  0  0  0  0  0
   -6.7750   -7.9954  -18.8149 C   0  0  2  0  0  0  0  0  0  0  0  0
   -6.9086   -9.7761  -25.4472 C   0  0  2  0  0  0  0  0  0  0  0  0
   -6.9974   -8.7239  -24.4408 N   0  0  0  0  0  0  0  0  0  0  0  0
   -6.8134  -12.7323  -20.1501 C   0  0  0  0  0  0  0  0  0  0  0  0
   -7.2055   -6.6693  -19.5143 C   0  0  2  0  0  0  0  0  0  0  0  0
   -8.6020   -6.4924  -19.3490 O   0  0  0  0  0  0  0  0  0  0  0  0
   -8.3207  -10.0797  -26.0586 C   0  0  0  0  0  0  0  0  0  0  0  0
   -7.2556  -12.7398  -21.6771 C   0  0  2  0  0  0  0  0  0  0  0  0
   -6.6632  -13.9178  -22.3527 N   0  0  0  0  0  0  0  0  0  0  0  0
   -6.8270   -6.8086  -21.0549 C   0  0  1  0  0  0  0  0  0  0  0  0
   -7.2398   -5.5803  -21.8153 N   0  0  0  0  0  0  0  0  0  0  0  0
   -8.2866  -11.3799  -26.9128 C   0  0  0  0  0  0  0  0  0  0  0  0
   -6.7663  -11.3958  -22.3792 C   0  0  2  0  0  0  0  0  0  0  0  0
   -5.2164   -7.0080  -21.1939 C   0  0  1  0  0  0  0  0  0  0  0  0
   -4.4969   -5.9117  -20.6635 O   0  0  0  0  0  0  0  0  0  0  0  0
   -7.3114  -12.2870  -26.7519 C   0  0  2  0  0  0  0  0  0  0  0  0
   -6.2407  -12.1362  -25.8034 O   0  0  0  0  0  0  0  0  0  0  0  0
   -7.3992  -10.1517  -21.6259 C   0  0  2  0  0  0  0  0  0  0  0  0
   -6.9469   -8.9349  -22.2333 O   0  0  0  0  0  0  0  0  0  0  0  0
   -4.7843   -8.2888  -20.4033 C   0  0  0  0  0  0  0  0  0  0  0  0
   -5.2912   -8.2071  -18.9732 O   0  0  0  0  0  0  0  0  0  0  0  0
   -7.2587  -13.5838  -27.5929 C   0  0  0  0  0  0  0  0  0  0  0  0
   -6.2426  -13.4518  -28.6275 N   0  0  0  0  0  0  0  0  0  0  0  0
   -6.9547  -10.1603  -20.1186 C   0  0  1  0  0  0  0  0  0  0  0  0
   -7.5387   -9.0479  -19.4843 O   0  0  0  0  0  0  0  0  0  0  0  0
   -4.6845   -7.1637  -22.6282 C   0  0  0  0  0  0  0  0  0  0  0  0
   -6.7136   -4.2949  -21.3182 C   0  0  0  0  0  0  0  0  0  0  0  0
  1  2  1  1  0  0  0
  1  6  1  0  0  0  0
  1 21  1  0  0  0  0
  3  4  1  1  0  0  0
  3  8  1  0  0  0  0
  3 28  1  0  0  0  0
  5  9  1  0  0  0  0
  5 25  1  0  0  0  0
  5 29  1  6  0  0  0
  6  7  1  1  0  0  0
  6 11  1  0  0  0  0
  8 12  1  0  0  0  0
  9 10  1  6  0  0  0
  9 14  1  0  0  0  0
 11 16  1  0  0  0  0
 12 13  1  6  0  0  0
 12 17  1  0  0  0  0
 14 15  1  6  0  0  0
 14 18  1  0  0  0  0
 15 31  1  0  0  0  0
 16 20  1  0  0  0  0
 17  2  1  6  0  0  0
 17 22  1  0  0  0  0
 18 19  1  1  0  0  0
 18 24  1  0  0  0  0
 18 30  1  0  0  0  0
 20 21  1  0  0  0  0
 20 26  1  6  0  0  0
 22 23  1  6  0  0  0
 22 28  1  0  0  0  0
 24 25  1  0  0  0  0
 26 27  1  0  0  0  0
 28 29  1  1  0  0  0
M  END
>  <CHROM.1>
-114.83143719,123.16101771,55.57417218,-133.73775038,103.33247170,119.50296241
-6.75739784,-9.64830777,-22.35303656,-2.30517970,1.46373281,1.61153264

>  <Name>
ligand

>  <RI>
0

>  <Rbt.Current_Directory>
/home/itssahil/PROJECTS/Mol_Feturizer/New_Systems/rnas/4F8U

>  <Rbt.Executable>
rbdock ($Id: //depot/dev/client3/rdock/2013.1/src/exe/rbdock.cxx#4 $)

>  <Rbt.Library>
libRbt.so (2013.1, Build901 2013/11/27)

>  <Rbt.Parameter_File>
/export/apps/rDock/src/rDock_2013.1_src/data/scripts/dock_solv.prm

>  <Rbt.Receptor>
prm/blind_docking_100.prm

>  <SCORE>
64.2187

>  <SCORE.INTER>
32.3333

>  <SCORE.INTER.CONST>
1

>  <SCORE.INTER.POLAR>
0

>  <SCORE.INTER.ROT>
6

>  <SCORE.INTER.SOLV>
34.3469

>  <SCORE.INTER.VDW>
2.50656

>  <SCORE.INTER.norm>
1.04301

>  <SCORE.INTRA>
17.0204

>  <SCORE.INTRA.DIHEDRAL>
10.9928

>  <SCORE.INTRA.DIHEDRAL.0>
18.77

>  <SCORE.INTRA.POLAR>
0

>  <SCORE.INTRA.POLAR.0>
0

>  <SCORE.INTRA.REPUL>
0.0051329

>  <SCORE.INTRA.REPUL.0>
0

>  <SCORE.INTRA.SOLV>
3.31014

>  <SCORE.INTRA.SOLV.lig_0>
-77.2465

>  <SCORE.INTRA.VDW>
9.84324

>  <SCORE.INTRA.VDW.0>
-4.16072

>  <SCORE.INTRA.norm>
0.549045

>  <SCORE.RESTR>
14.865

>  <SCORE.RESTR.CAVITY>
14.865

>  <SCORE.RESTR.norm>
0.479518

>  <SCORE.SYSTEM>
0

>  <SCORE.SYSTEM.CONST>
0

>  <SCORE.SYSTEM.DIHEDRAL>
0

>  <SCORE.SYSTEM.SOLV>
0

>  <SCORE.SYSTEM.norm>
0

>  <SCORE.heavy>
31

>  <SCORE.norm>
2.07157

>  <RMSD>
9.302

$$$$
ligand
 OpenBabel11021811493D
libRbt.so/2013.1/901 2013/11/27
 31 33  0  0  0  0  0  0  0  0999 V2000
   -6.3603  -11.8249  -16.4787 C   0  0  2  0  0  0  0  0  0  0  0  0
   -6.4054  -12.4893  -17.7488 O   0  0  0  0  0  0  0  0  0  0  0  0
   -7.1071  -11.0859  -21.7315 C   0  0  2  0  0  0  0  0  0  0  0  0
   -7.7842  -10.5667  -22.8803 N   0  0  0  0  0  0  0  0  0  0  0  0
   -6.1279   -7.8091  -20.0332 C   0  0  2  0  0  0  0  0  0  0  0  0
   -5.5064  -12.7395  -15.5319 C   0  0  2  0  0  0  0  0  0  0  0  0
   -4.1825  -12.9455  -16.1088 N   0  0  0  0  0  0  0  0  0  0  0  0
   -7.7927  -12.4408  -21.3046 C   0  0  0  0  0  0  0  0  0  0  0  0
   -6.8549   -6.5093  -20.4971 C   0  0  2  0  0  0  0  0  0  0  0  0
   -8.2556   -6.7175  -20.4379 O   0  0  0  0  0  0  0  0  0  0  0  0
   -6.2373  -14.1103  -15.3169 C   0  0  0  0  0  0  0  0  0  0  0  0
   -7.0346  -13.0207  -20.0332 C   0  0  2  0  0  0  0  0  0  0  0  0
   -7.6714  -14.2936  -19.6217 N   0  0  0  0  0  0  0  0  0  0  0  0
   -6.3846   -6.2180  -21.9905 C   0  0  1  0  0  0  0  0  0  0  0  0
   -7.0664   -4.9934  -22.5315 N   0  0  0  0  0  0  0  0  0  0  0  0
   -7.7395  -13.8897  -14.9759 C   0  0  0  0  0  0  0  0  0  0  0  0
   -7.1003  -11.9606  -18.8454 C   0  0  2  0  0  0  0  0  0  0  0  0
   -4.7727   -5.9847  -22.0076 C   0  0  1  0  0  0  0  0  0  0  0  0
   -4.3856   -4.8866  -21.2043 O   0  0  0  0  0  0  0  0  0  0  0  0
   -8.3527  -12.7338  -15.2720 C   0  0  2  0  0  0  0  0  0  0  0  0
   -7.6894  -11.6281  -15.9094 O   0  0  0  0  0  0  0  0  0  0  0  0
   -6.4296  -10.6033  -19.3181 C   0  0  2  0  0  0  0  0  0  0  0  0
   -6.5042   -9.6328  -18.2661 O   0  0  0  0  0  0  0  0  0  0  0  0
   -4.0600   -7.2607  -21.4455 C   0  0  0  0  0  0  0  0  0  0  0  0
   -4.6343   -7.6141  -20.0839 O   0  0  0  0  0  0  0  0  0  0  0  0
   -9.8438  -12.4944  -14.9387 C   0  0  0  0  0  0  0  0  0  0  0  0
   -9.9535  -11.4777  -13.9021 N   0  0  0  0  0  0  0  0  0  0  0  0
   -7.1885  -10.0450  -20.5759 C   0  0  1  0  0  0  0  0  0  0  0  0
   -6.5628   -8.8467  -20.9677 O   0  0  0  0  0  0  0  0  0  0  0  0
   -4.1549   -5.6943  -23.3854 C   0  0  0  0  0  0  0  0  0  0  0  0
   -8.3348   -5.2145  -23.2516 C   0  0  0  0  0  0  0  0  0  0  0  0
  1  2  1  6  0  0  0
  1  6  1  0  0  0  0
  1 21  1  0  0  0  0
  3  4  1  6  0  0  0
  3  8  1  0  0  0  0
  3 28  1  0  0  0  0
  5  9  1  0  0  0  0
  5 25  1  0  0  0  0
  5 29  1  6  0  0  0
  6  7  1  6  0  0  0
  6 11  1  0  0  0  0
  8 12  1  0  0  0  0
  9 10  1  6  0  0  0
  9 14  1  0  0  0  0
 11 16  1  0  0  0  0
 12 13  1  1  0  0  0
 12 17  1  0  0  0  0
 14 15  1  1  0  0  0
 14 18  1  0  0  0  0
 15 31  1  0  0  0  0
 16 20  1  0  0  0  0
 17  2  1  1  0  0  0
 17 22  1  0  0  0  0
 18 19  1  1  0  0  0
 18 24  1  0  0  0  0
 18 30  1  0  0  0  0
 20 21  1  0  0  0  0
 20 26  1  1  0  0  0
 22 23  1  1  0  0  0
 22 28  1  0  0  0  0
 24 25  1  0  0  0  0
 26 27  1  0  0  0  0
 28 29  1  6  0  0  0
M  END
>  <CHROM.1>
179.41714602,-123.21436384,-91.35329256,-175.21968717,112.21908949,-162.26018568
-6.71875576,-9.87722567,-19.25389037,-2.36630327,-1.34322165,-1.51451992

>  <Name>
ligand

>  <RI>
0

>  <Rbt.Current_Directory>
/home/itssahil/PROJECTS/Mol_Feturizer/New_Systems/rnas/4F8U

>  <Rbt.Executable>
rbdock ($Id: //depot/dev/client3/rdock/2013.1/src/exe/rbdock.cxx#4 $)

>  <Rbt.Library>
libRbt.so (2013.1, Build901 2013/11/27)

>  <Rbt.Parameter_File>
/export/apps/rDock/src/rDock_2013.1_src/data/scripts/dock_solv.prm

>  <Rbt.Receptor>
prm/pocket_docking_5.prm

>  <SCORE>
-9.4641

>  <SCORE.INTER>
-6.86239

>  <SCORE.INTER.CONST>
1

>  <SCORE.INTER.POLAR>
0

>  <SCORE.INTER.ROT>
6

>  <SCORE.INTER.SOLV>
15.0984

>  <SCORE.INTER.VDW>
-17.2077

>  <SCORE.INTER.norm>
-0.221367

>  <SCORE.INTRA>
-2.60171

>  <SCORE.INTRA.DIHEDRAL>
-7.65979

>  <SCORE.INTRA.DIHEDRAL.0>
18.77

>  <SCORE.INTRA.POLAR>
0

>  <SCORE.INTRA.POLAR.0>
0

>  <SCORE.INTRA.REPUL>
0

>  <SCORE.INTRA.REPUL.0>
0

>  <SCORE.INTRA.SOLV>
-3.30488

>  <SCORE.INTRA.SOLV.lig_0>
-77.2465

>  <SCORE.INTRA.VDW>
2.88062

>  <SCORE.INTRA.VDW.0>
-4.16072

>  <SCORE.INTRA.norm>
-0.0839261

>  <SCORE.RESTR>
0

>  <SCORE.RESTR.CAVITY>
0

>  <SCORE.RESTR.norm>
0

>  <SCORE.SYSTEM>
0

>  <SCORE.SYSTEM.CONST>
0

>  <SCORE.SYSTEM.DIHEDRAL>
0

>  <SCORE.SYSTEM.SOLV>
0

>  <SCORE.SYSTEM.norm>
0

>  <SCORE.heavy>
31

>  <SCORE.norm>
-0.305293

>  <RMSD>
9.302

$$$$
ligand
 OpenBabel11021811493D
libRbt.so/2013.1/901 2013/11/27
 31 33  0  0  0  0  0  0  0  0999 V2000
   -4.5176   -9.9000  -16.2748 C   0  0  2  0  0  0  0  0  0  0  0  0
   -4.5853  -11.1426  -16.9874 O   0  0  0  0  0  0  0  0  0  0  0  0
   -6.5944  -12.1250  -20.6374 C   0  0  2  0  0  0  0  0  0  0  0  0
   -7.6404  -12.4596  -21.5549 N   0  0  0  0  0  0  0  0  0  0  0  0
   -7.7215   -8.5112  -20.8826 C   0  0  2  0  0  0  0  0  0  0  0  0
   -3.1983   -9.9485  -15.4268 C   0  0  2  0  0  0  0  0  0  0  0  0
   -2.0543  -10.1574  -16.3074 N   0  0  0  0  0  0  0  0  0  0  0  0
   -6.5146  -13.2413  -19.5259 C   0  0  0  0  0  0  0  0  0  0  0  0
   -7.8735   -7.9842  -22.3429 C   0  0  2  0  0  0  0  0  0  0  0  0
   -8.5594   -8.9549  -23.1150 O   0  0  0  0  0  0  0  0  0  0  0  0
   -3.2943  -11.0945  -14.3604 C   0  0  0  0  0  0  0  0  0  0  0  0
   -5.3472  -12.8726  -18.5117 C   0  0  2  0  0  0  0  0  0  0  0  0
   -5.2638  -13.9142  -17.4614 N   0  0  0  0  0  0  0  0  0  0  0  0
   -6.4045   -7.7408  -22.9076 C   0  0  1  0  0  0  0  0  0  0  0  0
   -6.4564   -7.2606  -24.3303 N   0  0  0  0  0  0  0  0  0  0  0  0
   -4.6558  -11.0394  -13.6090 C   0  0  0  0  0  0  0  0  0  0  0  0
   -5.6407  -11.4498  -17.8572 C   0  0  2  0  0  0  0  0  0  0  0  0
   -5.6584   -6.6197  -21.9914 C   0  0  1  0  0  0  0  0  0  0  0  0
   -6.3428   -5.3819  -22.0029 O   0  0  0  0  0  0  0  0  0  0  0  0
   -5.7072  -10.3898  -14.1308 C   0  0  2  0  0  0  0  0  0  0  0  0
   -5.6645   -9.7038  -15.3943 O   0  0  0  0  0  0  0  0  0  0  0  0
   -5.7436  -10.3581  -19.0032 C   0  0  2  0  0  0  0  0  0  0  0  0
   -6.0318   -9.0771  -18.4289 O   0  0  0  0  0  0  0  0  0  0  0  0
   -5.6017   -7.1190  -20.5082 C   0  0  0  0  0  0  0  0  0  0  0  0
   -6.9965   -7.4954  -20.0376 O   0  0  0  0  0  0  0  0  0  0  0  0
   -7.0675  -10.3214  -13.3982 C   0  0  0  0  0  0  0  0  0  0  0  0
   -6.9942  -11.0898  -12.1634 N   0  0  0  0  0  0  0  0  0  0  0  0
   -6.8996  -10.7382  -19.9976 C   0  0  1  0  0  0  0  0  0  0  0  0
   -6.9560   -9.7518  -21.0000 O   0  0  0  0  0  0  0  0  0  0  0  0
   -4.2188   -6.2709  -22.4041 C   0  0  0  0  0  0  0  0  0  0  0  0
   -7.3512   -6.1202  -24.6042 C   0  0  0  0  0  0  0  0  0  0  0  0
  1  2  1  1  0  0  0
  1  6  1  0  0  0  0
  1 21  1  0  0  0  0
  3  4  1  6  0  0  0
  3  8  1  0  0  0  0
  3 28  1  0  0  0  0
  5  9  1  0  0  0  0
  5 25  1  0  0  0  0
  5 29  1  6  0  0  0
  6  7  1  6  0  0  0
  6 11  1  0  0  0  0
  8 12  1  0  0  0  0
  9 10  1  6  0  0  0
  9 14  1  0  0  0  0
 11 16  1  0  0  0  0
 12 13  1  1  0  0  0
 12 17  1  0  0  0  0
 14 15  1  6  0  0  0
 14 18  1  0  0  0  0
 15 31  1  0  0  0  0
 16 20  1  0  0  0  0
 17  2  1  1  0  0  0
 17 22  1  0  0  0  0
 18 19  1  6  0  0  0
 18 24  1  0  0  0  0
 18 30  1  0  0  0  0
 20 21  1  0  0  0  0
 20 26  1  1  0  0  0
 22 23  1  1  0  0  0
 22 28  1  0  0  0  0
 24 25  1  0  0  0  0
 26 27  1  0  0  0  0
 28 29  1  6  0  0  0
M  END
>  <CHROM.1>
-179.79991307,-161.88225866,50.61333370,177.51952440,-2.30196851,153.99634596
-5.93723719,-9.64172341,-18.96829910,-1.03962396,-1.16984246,-0.64713379

>  <Name>
ligand

>  <RI>
0

>  <Rbt.Current_Directory>
/home/itssahil/PROJECTS/Mol_Feturizer/New_Systems/rnas/4F8U

>  <Rbt.Executable>
rbdock ($Id: //depot/dev/client3/rdock/2013.1/src/exe/rbdock.cxx#4 $)

>  <Rbt.Library>
libRbt.so (2013.1, Build901 2013/11/27)

>  <Rbt.Parameter_File>
/export/apps/rDock/src/rDock_2013.1_src/data/scripts/dock_solv.prm

>  <Rbt.Receptor>
prm/pocket_docking_5.prm

>  <SCORE>
-9.51708

>  <SCORE.INTER>
-6.63243

>  <SCORE.INTER.CONST>
1

>  <SCORE.INTER.POLAR>
0

>  <SCORE.INTER.ROT>
6

>  <SCORE.INTER.SOLV>
14.7673

>  <SCORE.INTER.VDW>
-16.9441

>  <SCORE.INTER.norm>
-0.21395

>  <SCORE.INTRA>
-2.88464

>  <SCORE.INTRA.DIHEDRAL>
-12.6244

>  <SCORE.INTRA.DIHEDRAL.0>
18.77

>  <SCORE.INTRA.POLAR>
0

>  <SCORE.INTRA.POLAR.0>
0

>  <SCORE.INTRA.REPUL>
0

>  <SCORE.INTRA.REPUL.0>
0

>  <SCORE.INTRA.SOLV>
-2.37857

>  <SCORE.INTRA.SOLV.lig_0>
-77.2465

>  <SCORE.INTRA.VDW>
4.61686

>  <SCORE.INTRA.VDW.0>
-4.16072

>  <SCORE.INTRA.norm>
-0.0930531

>  <SCORE.RESTR>
0

>  <SCORE.RESTR.CAVITY>
0

>  <SCORE.RESTR.norm>
0

>  <SCORE.SYSTEM>
0

>  <SCORE.SYSTEM.CONST>
0

>  <SCORE.SYSTEM.DIHEDRAL>
0

>  <SCORE.SYSTEM.SOLV>
0

>  <SCORE.SYSTEM.norm>
0

>  <SCORE.heavy>
31

>  <SCORE.norm>
-0.307003

>  <RMSD>
9.306

$$$$
ligand
 OpenBabel11021811493D
libRbt.so/2013.1/901 2013/11/27
 31 33  0  0  0  0  0  0  0  0999 V2000
   -4.3901  -12.4819  -10.5158 C   0  0  2  0  0  0  0  0  0  0  0  0
   -5.7098  -12.1169  -10.9419 O   0  0  0  0  0  0  0  0  0  0  0  0
   -9.4848  -10.7073   -9.4974 C   0  0  2  0  0  0  0  0  0  0  0  0
  -10.4715  -10.1358   -8.6326 N   0  0  0  0  0  0  0  0  0  0  0  0
   -8.2081   -7.6194  -11.2973 C   0  0  2  0  0  0  0  0  0  0  0  0
   -3.3959  -11.6172  -11.3678 C   0  0  2  0  0  0  0  0  0  0  0  0
   -3.6815  -10.2005  -11.1700 N   0  0  0  0  0  0  0  0  0  0  0  0
   -8.8618  -11.9739   -8.7935 C   0  0  0  0  0  0  0  0  0  0  0  0
   -8.8440   -6.2145  -11.0621 C   0  0  2  0  0  0  0  0  0  0  0  0
   -8.7020   -5.8664   -9.6956 O   0  0  0  0  0  0  0  0  0  0  0  0
   -3.5215  -12.0022  -12.8830 C   0  0  0  0  0  0  0  0  0  0  0  0
   -7.7716  -12.6124   -9.7585 C   0  0  2  0  0  0  0  0  0  0  0  0
   -7.1779  -13.8031   -9.1066 N   0  0  0  0  0  0  0  0  0  0  0  0
  -10.3807   -6.3231  -11.4660 C   0  0  1  0  0  0  0  0  0  0  0  0
  -11.0824   -5.0144  -11.2376 N   0  0  0  0  0  0  0  0  0  0  0  0
   -3.5021  -13.5475  -13.0653 C   0  0  0  0  0  0  0  0  0  0  0  0
   -6.6421  -11.5334  -10.0727 C   0  0  2  0  0  0  0  0  0  0  0  0
  -10.4927   -6.7227  -13.0410 C   0  0  1  0  0  0  0  0  0  0  0  0
   -9.8866   -5.7576  -13.8790 O   0  0  0  0  0  0  0  0  0  0  0  0
   -3.7835  -14.3676  -12.0416 C   0  0  2  0  0  0  0  0  0  0  0  0
   -4.1142  -13.8998  -10.7223 O   0  0  0  0  0  0  0  0  0  0  0  0
   -7.3064  -10.2635  -10.7520 C   0  0  2  0  0  0  0  0  0  0  0  0
   -6.3036   -9.2747  -11.0177 O   0  0  0  0  0  0  0  0  0  0  0  0
   -9.7632   -8.0874  -13.2809 C   0  0  0  0  0  0  0  0  0  0  0  0
   -8.3430   -8.0137  -12.7457 O   0  0  0  0  0  0  0  0  0  0  0  0
   -3.7669  -15.9057  -12.2022 C   0  0  0  0  0  0  0  0  0  0  0  0
   -2.4738  -16.4251  -11.7795 N   0  0  0  0  0  0  0  0  0  0  0  0
   -8.3823   -9.6461   -9.7872 C   0  0  1  0  0  0  0  0  0  0  0  0
   -8.9515   -8.5281  -10.4253 O   0  0  0  0  0  0  0  0  0  0  0  0
  -11.9206   -6.8728  -13.5915 C   0  0  0  0  0  0  0  0  0  0  0  0
  -12.0128   -4.9612  -10.0940 C   0  0  0  0  0  0  0  0  0  0  0  0
  1  2  1  6  0  0  0
  1  6  1  0  0  0  0
  1 21  1  0  0  0  0
  3  4  1  1  0  0  0
  3  8  1  0  0  0  0
  3 28  1  0  0  0  0
  5  9  1  0  0  0  0
  5 25  1  0  0  0  0
  5 29  1  1  0  0  0
  6  7  1  6  0  0  0
  6 11  1  0  0  0  0
  8 12  1  0  0  0  0
  9 10  1  1  0  0  0
  9 14  1  0  0  0  0
 11 16  1  0  0  0  0
 12 13  1  1  0  0  0
 12 17  1  0  0  0  0
 14 15  1  6  0  0  0
 14 18  1  0  0  0  0
 15 31  1  0  0  0  0
 16 20  1  0  0  0  0
 17  2  1  6  0  0  0
 17 22  1  0  0  0  0
 18 19  1  6  0  0  0
 18 24  1  0  0  0  0
 18 30  1  0  0  0  0
 20 21  1  0  0  0  0
 20 26  1  1  0  0  0
 22 23  1  1  0  0  0
 22 28  1  0  0  0  0
 24 25  1  0  0  0  0
 26 27  1  0  0  0  0
 28 29  1  6  0  0  0
M  END
>  <CHROM.1>
-117.79524399,-146.21054132,-107.55760908,-108.50180043,95.54599382,-154.55211284
-7.41203680,-10.03874836,-11.17124119,0.64272329,-0.63168070,2.45255364

>  <Name>
ligand

>  <RI>
0

>  <Rbt.Current_Directory>
/home/itssahil/PROJECTS/Mol_Feturizer/New_Systems/rnas/4F8U

>  <Rbt.Executable>
rbdock ($Id: //depot/dev/client3/rdock/2013.1/src/exe/rbdock.cxx#4 $)

>  <Rbt.Library>
libRbt.so (2013.1, Build901 2013/11/27)

>  <Rbt.Parameter_File>
/export/apps/rDock/src/rDock_2013.1_src/data/scripts/dock_solv.prm

>  <Rbt.Receptor>
prm/blind_docking_20.prm

>  <SCORE>
18.6065

>  <SCORE.INTER>
6.16004

>  <SCORE.INTER.CONST>
1

>  <SCORE.INTER.POLAR>
0

>  <SCORE.INTER.ROT>
6

>  <SCORE.INTER.SOLV>
19.4755

>  <SCORE.INTER.VDW>
-9.98514

>  <SCORE.INTER.norm>
0.198711

>  <SCORE.INTRA>
5.16348

>  <SCORE.INTRA.DIHEDRAL>
5.47591

>  <SCORE.INTRA.DIHEDRAL.0>
18.77

>  <SCORE.INTRA.POLAR>
0

>  <SCORE.INTRA.POLAR.0>
0

>  <SCORE.INTRA.REPUL>
0

>  <SCORE.INTRA.REPUL.0>
0

>  <SCORE.INTRA.SOLV>
-0.542147

>  <SCORE.INTRA.SOLV.lig_0>
-77.2465

>  <SCORE.INTRA.VDW>
2.6966

>  <SCORE.INTRA.VDW.0>
-4.16072

>  <SCORE.INTRA.norm>
0.166564

>  <SCORE.RESTR>
7.28295

>  <SCORE.RESTR.CAVITY>
7.28295

>  <SCORE.RESTR.norm>
0.234934

>  <SCORE.SYSTEM>
0

>  <SCORE.SYSTEM.CONST>
0

>  <SCORE.SYSTEM.DIHEDRAL>
0

>  <SCORE.SYSTEM.SOLV>
0

>  <SCORE.SYSTEM.norm>
0

>  <SCORE.heavy>
31

>  <SCORE.norm>
0.600209

>  <RMSD>
9.324

$$$$
ligand
 OpenBabel11021811493D
libRbt.so/2013.1/901 2013/11/27
 31 33  0  0  0  0  0  0  0  0999 V2000
   -9.2826  -13.7786  -18.0813 C   0  0  2  0  0  0  0  0  0  0  0  0
   -8.5972  -12.7885  -17.3025 O   0  0  0  0  0  0  0  0  0  0  0  0
   -5.9130   -9.6410  -18.4034 C   0  0  2  0  0  0  0  0  0  0  0  0
   -4.7261   -8.9681  -18.8351 N   0  0  0  0  0  0  0  0  0  0  0  0
   -7.7338   -8.8584  -20.7778 C   0  0  2  0  0  0  0  0  0  0  0  0
  -10.4550  -14.3117  -17.1850 C   0  0  2  0  0  0  0  0  0  0  0  0
  -11.3190  -13.2035  -16.7938 N   0  0  0  0  0  0  0  0  0  0  0  0
   -5.5924  -10.4445  -17.0844 C   0  0  0  0  0  0  0  0  0  0  0  0
   -7.9000   -8.5669  -22.3011 C   0  0  2  0  0  0  0  0  0  0  0  0
   -8.2716   -9.7641  -22.9625 O   0  0  0  0  0  0  0  0  0  0  0  0
   -9.8710  -15.0331  -15.9207 C   0  0  0  0  0  0  0  0  0  0  0  0
   -6.9136  -11.1852  -16.6014 C   0  0  2  0  0  0  0  0  0  0  0  0
   -6.6240  -11.9452  -15.3630 N   0  0  0  0  0  0  0  0  0  0  0  0
   -6.4958   -8.0348  -22.8316 C   0  0  1  0  0  0  0  0  0  0  0  0
   -6.5567   -7.7588  -24.3071 N   0  0  0  0  0  0  0  0  0  0  0  0
   -8.7369  -16.0206  -16.3207 C   0  0  0  0  0  0  0  0  0  0  0  0
   -7.4213  -12.1687  -17.7475 C   0  0  2  0  0  0  0  0  0  0  0  0
   -6.1130   -6.6607  -22.0454 C   0  0  1  0  0  0  0  0  0  0  0  0
   -7.0738   -5.6435  -22.2534 O   0  0  0  0  0  0  0  0  0  0  0  0
   -8.1016  -15.9034  -17.4965 C   0  0  2  0  0  0  0  0  0  0  0  0
   -8.4100  -14.8840  -18.4631 O   0  0  0  0  0  0  0  0  0  0  0  0
   -7.7056  -11.3335  -19.0655 C   0  0  2  0  0  0  0  0  0  0  0  0
   -8.1400  -12.2109  -20.1121 O   0  0  0  0  0  0  0  0  0  0  0  0
   -6.0474   -6.9466  -20.5071 C   0  0  0  0  0  0  0  0  0  0  0  0
   -7.3407   -7.5993  -20.0487 O   0  0  0  0  0  0  0  0  0  0  0  0
   -6.9739  -16.8763  -17.9132 C   0  0  0  0  0  0  0  0  0  0  0  0
   -7.3496  -17.5581  -19.1438 N   0  0  0  0  0  0  0  0  0  0  0  0
   -6.3915  -10.6063  -19.5280 C   0  0  1  0  0  0  0  0  0  0  0  0
   -6.6844   -9.8736  -20.6936 O   0  0  0  0  0  0  0  0  0  0  0  0
   -4.7740   -6.0164  -22.4408 C   0  0  0  0  0  0  0  0  0  0  0  0
   -6.3373   -8.9133  -25.1988 C   0  0  0  0  0  0  0  0  0  0  0  0
  1  2  1  1  0  0  0
  1  6  1  0  0  0  0
  1 21  1  0  0  0  0
  3  4  1  6  0  0  0
  3  8  1  0  0  0  0
  3 28  1  0  0  0  0
  5  9  1  0  0  0  0
  5 25  1  0  0  0  0
  5 29  1  6  0  0  0
  6  7  1  1  0  0  0
  6 11  1  0  0  0  0
  8 12  1  0  0  0  0
  9 10  1  6  0  0  0
  9 14  1  0  0  0  0
 11 16  1  0  0  0  0
 12 13  1  1  0  0  0
 12 17  1  0  0  0  0
 14 15  1  6  0  0  0
 14 18  1  0  0  0  0
 15 31  1  0  0  0  0
 16 20  1  0  0  0  0
 17  2  1  1  0  0  0
 17 22  1  0  0  0  0
 18 19  1  6  0  0  0
 18 24  1  0  0  0  0
 18 30  1  0  0  0  0
 20 21  1  0  0  0  0
 20 26  1  6  0  0  0
 22 23  1  6  0  0  0
 22 28  1  0  0  0  0
 24 25  1  0  0  0  0
 26 27  1  0  0  0  0
 28 29  1  6  0  0  0
M  END
>  <CHROM.1>
174.81609829,-167.52490397,-84.13996338,-177.42713148,120.08643303,-62.72569736
-7.41751658,-11.05666859,-19.51798228,2.27295781,1.20255591,1.87167164

>  <Name>
ligand

>  <RI>
0

>  <Rbt.Current_Directory>
/home/itssahil/PROJECTS/Mol_Feturizer/New_Systems/rnas/4F8U

>  <Rbt.Executable>
rbdock ($Id: //depot/dev/client3/rdock/2013.1/src/exe/rbdock.cxx#4 $)

>  <Rbt.Library>
libRbt.so (2013.1, Build901 2013/11/27)

>  <Rbt.Parameter_File>
/export/apps/rDock/src/rDock_2013.1_src/data/scripts/dock_solv.prm

>  <Rbt.Receptor>
prm/pocket_docking_6.prm

>  <SCORE>
-14.3992

>  <SCORE.INTER>
-7.63763

>  <SCORE.INTER.CONST>
1

>  <SCORE.INTER.POLAR>
0

>  <SCORE.INTER.ROT>
6

>  <SCORE.INTER.SOLV>
12.269

>  <SCORE.INTER.VDW>
-16.7814

>  <SCORE.INTER.norm>
-0.246375

>  <SCORE.INTRA>
-6.76158

>  <SCORE.INTRA.DIHEDRAL>
-15.7246

>  <SCORE.INTRA.DIHEDRAL.0>
18.77

>  <SCORE.INTRA.POLAR>
0

>  <SCORE.INTRA.POLAR.0>
0

>  <SCORE.INTRA.REPUL>
0

>  <SCORE.INTRA.REPUL.0>
0

>  <SCORE.INTRA.SOLV>
-0.73286

>  <SCORE.INTRA.SOLV.lig_0>
-77.2465

>  <SCORE.INTRA.VDW>
1.46714

>  <SCORE.INTRA.VDW.0>
-4.16072

>  <SCORE.INTRA.norm>
-0.218116

>  <SCORE.RESTR>
0

>  <SCORE.RESTR.CAVITY>
0

>  <SCORE.RESTR.norm>
0

>  <SCORE.SYSTEM>
0

>  <SCORE.SYSTEM.CONST>
0

>  <SCORE.SYSTEM.DIHEDRAL>
0

>  <SCORE.SYSTEM.SOLV>
0

>  <SCORE.SYSTEM.norm>
0

>  <SCORE.heavy>
31

>  <SCORE.norm>
-0.464491

>  <RMSD>
9.325

$$$$
ligand
 OpenBabel11021811493D
libRbt.so/2013.1/901 2013/11/27
 31 33  0  0  0  0  0  0  0  0999 V2000
   -5.9411  -11.3386  -17.6213 C   0  0  2  0  0  0  0  0  0  0  0  0
   -7.3355  -11.1020  -17.8584 O   0  0  0  0  0  0  0  0  0  0  0  0
   -7.3625  -10.3093  -22.0649 C   0  0  2  0  0  0  0  0  0  0  0  0
   -7.8442  -10.0955  -23.3954 N   0  0  0  0  0  0  0  0  0  0  0  0
   -7.9440   -6.7014  -20.8839 C   0  0  2  0  0  0  0  0  0  0  0  0
   -5.6219  -10.7234  -16.2136 C   0  0  2  0  0  0  0  0  0  0  0  0
   -6.4781  -11.3349  -15.2033 N   0  0  0  0  0  0  0  0  0  0  0  0
   -7.7938  -11.7509  -21.5919 C   0  0  0  0  0  0  0  0  0  0  0  0
   -7.9113   -5.6112  -21.9992 C   0  0  2  0  0  0  0  0  0  0  0  0
   -8.8286   -5.9667  -23.0194 O   0  0  0  0  0  0  0  0  0  0  0  0
   -5.8325   -9.1697  -16.2529 C   0  0  0  0  0  0  0  0  0  0  0  0
   -7.2514  -11.9902  -20.1168 C   0  0  2  0  0  0  0  0  0  0  0  0
   -7.6523  -13.3418  -19.6610 N   0  0  0  0  0  0  0  0  0  0  0  0
   -6.4225   -5.5629  -22.5626 C   0  0  1  0  0  0  0  0  0  0  0  0
   -6.3079   -4.5556  -23.6714 N   0  0  0  0  0  0  0  0  0  0  0  0
   -5.1473   -8.5493  -17.5047 C   0  0  0  0  0  0  0  0  0  0  0  0
   -7.8487  -10.8789  -19.1436 C   0  0  2  0  0  0  0  0  0  0  0  0
   -5.4078   -5.1499  -21.3573 C   0  0  1  0  0  0  0  0  0  0  0  0
   -5.7131   -3.8787  -20.8170 O   0  0  0  0  0  0  0  0  0  0  0  0
   -4.8338   -9.3061  -18.5671 C   0  0  2  0  0  0  0  0  0  0  0  0
   -5.0944  -10.7190  -18.6353 O   0  0  0  0  0  0  0  0  0  0  0  0
   -7.4209   -9.4432  -19.6643 C   0  0  2  0  0  0  0  0  0  0  0  0
   -7.9727   -8.4329  -18.8106 O   0  0  0  0  0  0  0  0  0  0  0  0
   -5.5246   -6.1995  -20.2011 C   0  0  0  0  0  0  0  0  0  0  0  0
   -6.9780   -6.3461  -19.7830 O   0  0  0  0  0  0  0  0  0  0  0  0
   -4.1503   -8.7086  -19.8191 C   0  0  0  0  0  0  0  0  0  0  0  0
   -2.7525   -9.1156  -19.8512 N   0  0  0  0  0  0  0  0  0  0  0  0
   -7.9623   -9.2235  -21.1232 C   0  0  1  0  0  0  0  0  0  0  0  0
   -7.5592   -7.9447  -21.5511 O   0  0  0  0  0  0  0  0  0  0  0  0
   -3.9204   -5.0628  -21.7375 C   0  0  0  0  0  0  0  0  0  0  0  0
   -5.5600   -4.9827  -24.8691 C   0  0  0  0  0  0  0  0  0  0  0  0
  1  2  1  6  0  0  0
  1  6  1  0  0  0  0
  1 21  1  0  0  0  0
  3  4  1  6  0  0  0
  3  8  1  0  0  0  0
  3 28  1  0  0  0  0
  5  9  1  0  0  0  0
  5 25  1  0  0  0  0
  5 29  1  6  0  0  0
  6  7  1  1  0  0  0
  6 11  1  0  0  0  0
  8 12  1  0  0  0  0
  9 10  1  6  0  0  0
  9 14  1  0  0  0  0
 11 16  1  0  0  0  0
 12 13  1  1  0  0  0
 12 17  1  0  0  0  0
 14 15  1  6  0  0  0
 14 18  1  0  0  0  0
 15 31  1  0  0  0  0
 16 20  1  0  0  0  0
 17  2  1  1  0  0  0
 17 22  1  0  0  0  0
 18 19  1  1  0  0  0
 18 24  1  0  0  0  0
 18 30  1  0  0  0  0
 20 21  1  0  0  0  0
 20 26  1  1  0  0  0
 22 23  1  1  0  0  0
 22 28  1  0  0  0  0
 24 25  1  0  0  0  0
 26 27  1  0  0  0  0
 28 29  1  6  0  0  0
M  END
>  <CHROM.1>
147.51302693,-152.77161055,-135.28176393,47.28552367,106.19037015,-179.80212554
-6.46726699,-8.45846672,-20.18911832,-1.59189359,-0.91843878,-0.69068581

>  <Name>
ligand

>  <RI>
0

>  <Rbt.Current_Directory>
/home/itssahil/PROJECTS/Mol_Feturizer/New_Systems/rnas/4F8U

>  <Rbt.Executable>
rbdock ($Id: //depot/dev/client3/rdock/2013.1/src/exe/rbdock.cxx#4 $)

>  <Rbt.Library>
libRbt.so (2013.1, Build901 2013/11/27)

>  <Rbt.Parameter_File>
/export/apps/rDock/src/rDock_2013.1_src/data/scripts/dock_solv.prm

>  <Rbt.Receptor>
prm/blind_docking_60.prm

>  <SCORE>
17.7019

>  <SCORE.INTER>
-0.59755

>  <SCORE.INTER.CONST>
1

>  <SCORE.INTER.POLAR>
0

>  <SCORE.INTER.ROT>
6

>  <SCORE.INTER.SOLV>
27.0286

>  <SCORE.INTER.VDW>
-17.0079

>  <SCORE.INTER.norm>
-0.0192758

>  <SCORE.INTRA>
-0.884933

>  <SCORE.INTRA.DIHEDRAL>
-7.91169

>  <SCORE.INTRA.DIHEDRAL.0>
18.77

>  <SCORE.INTRA.POLAR>
0

>  <SCORE.INTRA.POLAR.0>
0

>  <SCORE.INTRA.REPUL>
0

>  <SCORE.INTRA.REPUL.0>
0

>  <SCORE.INTRA.SOLV>
-0.721332

>  <SCORE.INTRA.SOLV.lig_0>
-77.2465

>  <SCORE.INTRA.VDW>
3.43158

>  <SCORE.INTRA.VDW.0>
-4.16072

>  <SCORE.INTRA.norm>
-0.0285462

>  <SCORE.RESTR>
19.1843

>  <SCORE.RESTR.CAVITY>
19.1843

>  <SCORE.RESTR.norm>
0.61885

>  <SCORE.SYSTEM>
0

>  <SCORE.SYSTEM.CONST>
0

>  <SCORE.SYSTEM.DIHEDRAL>
0

>  <SCORE.SYSTEM.SOLV>
0

>  <SCORE.SYSTEM.norm>
0

>  <SCORE.heavy>
31

>  <SCORE.norm>
0.571028

>  <RMSD>
9.329

$$$$
ligand
 OpenBabel11021811493D
libRbt.so/2013.1/901 2013/11/27
 31 33  0  0  0  0  0  0  0  0999 V2000
   -4.6658  -13.2132  -10.1490 C   0  0  2  0  0  0  0  0  0  0  0  0
   -5.6583  -12.4237  -10.8183 O   0  0  0  0  0  0  0  0  0  0  0  0
   -9.5542  -10.9225   -9.8734 C   0  0  2  0  0  0  0  0  0  0  0  0
  -10.6098  -10.2471   -9.1824 N   0  0  0  0  0  0  0  0  0  0  0  0
   -8.2242   -7.9100  -11.8388 C   0  0  2  0  0  0  0  0  0  0  0  0
   -3.6605  -12.1996   -9.4979 C   0  0  2  0  0  0  0  0  0  0  0  0
   -4.3771  -11.3078   -8.5929 N   0  0  0  0  0  0  0  0  0  0  0  0
   -8.9490  -12.0277   -8.9246 C   0  0  0  0  0  0  0  0  0  0  0  0
   -8.6640   -6.5418  -11.2323 C   0  0  2  0  0  0  0  0  0  0  0  0
   -8.3874   -6.5426   -9.8423 O   0  0  0  0  0  0  0  0  0  0  0  0
   -2.9297  -11.3820  -10.6192 C   0  0  0  0  0  0  0  0  0  0  0  0
   -7.7817  -12.7826   -9.6961 C   0  0  2  0  0  0  0  0  0  0  0  0
   -7.2041  -13.8229   -8.8134 N   0  0  0  0  0  0  0  0  0  0  0  0
  -10.2262   -6.3909  -11.5026 C   0  0  1  0  0  0  0  0  0  0  0  0
  -10.7435   -5.1070  -10.9183 N   0  0  0  0  0  0  0  0  0  0  0  0
   -2.4075  -12.3251  -11.7414 C   0  0  0  0  0  0  0  0  0  0  0  0
   -6.6602  -11.7338  -10.1218 C   0  0  2  0  0  0  0  0  0  0  0  0
  -10.4936   -6.3937  -13.1092 C   0  0  1  0  0  0  0  0  0  0  0  0
   -9.8313   -5.3270  -13.7607 O   0  0  0  0  0  0  0  0  0  0  0  0
   -2.9140  -13.5573  -11.8996 C   0  0  2  0  0  0  0  0  0  0  0  0
   -3.9527  -14.0979  -11.0644 O   0  0  0  0  0  0  0  0  0  0  0  0
   -7.3085  -10.6225  -11.0494 C   0  0  2  0  0  0  0  0  0  0  0  0
   -6.3144   -9.6587  -11.4195 O   0  0  0  0  0  0  0  0  0  0  0  0
   -9.9566   -7.7318  -13.7201 C   0  0  0  0  0  0  0  0  0  0  0  0
   -8.5051   -7.9352  -13.3193 O   0  0  0  0  0  0  0  0  0  0  0  0
   -2.4065  -14.5102  -13.0070 C   0  0  0  0  0  0  0  0  0  0  0  0
   -3.5227  -14.9144  -13.8502 N   0  0  0  0  0  0  0  0  0  0  0  0
   -8.4609   -9.8880  -10.2736 C   0  0  1  0  0  0  0  0  0  0  0  0
   -9.0132   -8.9160  -11.1286 O   0  0  0  0  0  0  0  0  0  0  0  0
  -11.9632   -6.2596  -13.5414 C   0  0  0  0  0  0  0  0  0  0  0  0
  -11.5503   -5.2255   -9.6890 C   0  0  0  0  0  0  0  0  0  0  0  0
  1  2  1  6  0  0  0
  1  6  1  0  0  0  0
  1 21  1  0  0  0  0
  3  4  1  1  0  0  0
  3  8  1  0  0  0  0
  3 28  1  0  0  0  0
  5  9  1  0  0  0  0
  5 25  1  0  0  0  0
  5 29  1  1  0  0  0
  6  7  1  1  0  0  0
  6 11  1  0  0  0  0
  8 12  1  0  0  0  0
  9 10  1  1  0  0  0
  9 14  1  0  0  0  0
 11 16  1  0  0  0  0
 12 13  1  1  0  0  0
 12 17  1  0  0  0  0
 14 15  1  6  0  0  0
 14 18  1  0  0  0  0
 15 31  1  0  0  0  0
 16 20  1  0  0  0  0
 17  2  1  6  0  0  0
 17 22  1  0  0  0  0
 18 19  1  6  0  0  0
 18 24  1  0  0  0  0
 18 30  1  0  0  0  0
 20 21  1  0  0  0  0
 20 26  1  1  0  0  0
 22 23  1  1  0  0  0
 22 28  1  0  0  0  0
 24 25  1  0  0  0  0
 26 27  1  0  0  0  0
 28 29  1  6  0  0  0
M  END
>  <CHROM.1>
-74.53071517,-114.62974109,-105.98334024,-78.04979789,-123.02766731,-171.06269879
-7.33250093,-10.02198912,-11.12432478,0.56854499,-0.63394252,2.29223998

>  <Name>
ligand

>  <RI>
0

>  <Rbt.Current_Directory>
/home/itssahil/PROJECTS/Mol_Feturizer/New_Systems/rnas/4F8U

>  <Rbt.Executable>
rbdock ($Id: //depot/dev/client3/rdock/2013.1/src/exe/rbdock.cxx#4 $)

>  <Rbt.Library>
libRbt.so (2013.1, Build901 2013/11/27)

>  <Rbt.Parameter_File>
/export/apps/rDock/src/rDock_2013.1_src/data/scripts/dock_solv.prm

>  <Rbt.Receptor>
prm/blind_docking_20.prm

>  <SCORE>
9.43346

>  <SCORE.INTER>
3.39458

>  <SCORE.INTER.CONST>
1

>  <SCORE.INTER.POLAR>
0

>  <SCORE.INTER.ROT>
6

>  <SCORE.INTER.SOLV>
18.5882

>  <SCORE.INTER.VDW>
-11.533

>  <SCORE.INTER.norm>
0.109503

>  <SCORE.INTRA>
-0.385985

>  <SCORE.INTRA.DIHEDRAL>
-6.10114

>  <SCORE.INTRA.DIHEDRAL.0>
18.77

>  <SCORE.INTRA.POLAR>
0

>  <SCORE.INTRA.POLAR.0>
0

>  <SCORE.INTRA.REPUL>
0

>  <SCORE.INTRA.REPUL.0>
0

>  <SCORE.INTRA.SOLV>
0.784407

>  <SCORE.INTRA.SOLV.lig_0>
-77.2465

>  <SCORE.INTRA.VDW>
2.27238

>  <SCORE.INTRA.VDW.0>
-4.16072

>  <SCORE.INTRA.norm>
-0.0124511

>  <SCORE.RESTR>
6.42486

>  <SCORE.RESTR.CAVITY>
6.42486

>  <SCORE.RESTR.norm>
0.207254

>  <SCORE.SYSTEM>
0

>  <SCORE.SYSTEM.CONST>
0

>  <SCORE.SYSTEM.DIHEDRAL>
0

>  <SCORE.SYSTEM.SOLV>
0

>  <SCORE.SYSTEM.norm>
0

>  <SCORE.heavy>
31

>  <SCORE.norm>
0.304305

>  <RMSD>
9.350

$$$$
ligand
 OpenBabel11021811493D
libRbt.so/2013.1/901 2013/11/27
 31 33  0  0  0  0  0  0  0  0999 V2000
   -8.3219   -9.5838  -14.3137 C   0  0  2  0  0  0  0  0  0  0  0  0
   -7.9627   -8.9808  -15.5643 O   0  0  0  0  0  0  0  0  0  0  0  0
   -6.5037  -10.8549  -19.1256 C   0  0  2  0  0  0  0  0  0  0  0  0
   -6.4831  -11.5917  -20.3522 N   0  0  0  0  0  0  0  0  0  0  0  0
   -7.5854   -7.5551  -20.7646 C   0  0  2  0  0  0  0  0  0  0  0  0
   -9.8649   -9.8599  -14.3836 C   0  0  2  0  0  0  0  0  0  0  0  0
  -10.1609  -10.7144  -15.5282 N   0  0  0  0  0  0  0  0  0  0  0  0
   -7.0422  -11.7921  -17.9768 C   0  0  0  0  0  0  0  0  0  0  0  0
   -7.7135   -7.7076  -22.3118 C   0  0  2  0  0  0  0  0  0  0  0  0
   -8.4865   -8.8601  -22.5997 O   0  0  0  0  0  0  0  0  0  0  0  0
  -10.6431   -8.5022  -14.4888 C   0  0  0  0  0  0  0  0  0  0  0  0
   -7.0571  -10.9749  -16.6132 C   0  0  2  0  0  0  0  0  0  0  0  0
   -7.5632  -11.8453  -15.5262 N   0  0  0  0  0  0  0  0  0  0  0  0
   -6.2372   -7.8518  -22.8914 C   0  0  1  0  0  0  0  0  0  0  0  0
   -6.2688   -8.0377  -24.3819 N   0  0  0  0  0  0  0  0  0  0  0  0
  -10.1205   -7.4813  -13.4372 C   0  0  0  0  0  0  0  0  0  0  0  0
   -7.9879   -9.6915  -16.7722 C   0  0  2  0  0  0  0  0  0  0  0  0
   -5.3901   -6.5063  -22.5378 C   0  0  1  0  0  0  0  0  0  0  0  0
   -5.9716   -5.3475  -23.1036 O   0  0  0  0  0  0  0  0  0  0  0  0
   -8.9135   -7.6295  -12.8706 C   0  0  2  0  0  0  0  0  0  0  0  0
   -8.0254   -8.7186  -13.1767 O   0  0  0  0  0  0  0  0  0  0  0  0
   -7.4355   -8.7878  -17.9528 C   0  0  2  0  0  0  0  0  0  0  0  0
   -8.2788   -7.6415  -18.1222 O   0  0  0  0  0  0  0  0  0  0  0  0
   -5.3545   -6.3115  -20.9844 C   0  0  0  0  0  0  0  0  0  0  0  0
   -6.7690   -6.3334  -20.4298 O   0  0  0  0  0  0  0  0  0  0  0  0
   -8.3778   -6.6272  -11.8217 C   0  0  0  0  0  0  0  0  0  0  0  0
   -9.4952   -5.9353  -11.1947 N   0  0  0  0  0  0  0  0  0  0  0  0
   -7.4250   -9.6103  -19.2919 C   0  0  1  0  0  0  0  0  0  0  0  0
   -6.9251   -8.7789  -20.3117 O   0  0  0  0  0  0  0  0  0  0  0  0
   -3.9325   -6.4874  -23.0272 C   0  0  0  0  0  0  0  0  0  0  0  0
   -6.6828   -9.3679  -24.8671 C   0  0  0  0  0  0  0  0  0  0  0  0
  1  2  1  6  0  0  0
  1  6  1  0  0  0  0
  1 21  1  0  0  0  0
  3  4  1  6  0  0  0
  3  8  1  0  0  0  0
  3 28  1  0  0  0  0
  5  9  1  0  0  0  0
  5 25  1  0  0  0  0
  5 29  1  6  0  0  0
  6  7  1  6  0  0  0
  6 11  1  0  0  0  0
  8 12  1  0  0  0  0
  9 10  1  1  0  0  0
  9 14  1  0  0  0  0
 11 16  1  0  0  0  0
 12 13  1  1  0  0  0
 12 17  1  0  0  0  0
 14 15  1  6  0  0  0
 14 18  1  0  0  0  0
 15 31  1  0  0  0  0
 16 20  1  0  0  0  0
 17  2  1  1  0  0  0
 17 22  1  0  0  0  0
 18 19  1  6  0  0  0
 18 24  1  0  0  0  0
 18 30  1  0  0  0  0
 20 21  1  0  0  0  0
 20 26  1  1  0  0  0
 22 23  1  6  0  0  0
 22 28  1  0  0  0  0
 24 25  1  0  0  0  0
 26 27  1  0  0  0  0
 28 29  1  6  0  0  0
M  END
>  <CHROM.1>
-68.63906608,-127.30620917,-75.11913917,-56.29411539,23.11752975,177.16023369
-7.57277970,-8.54838395,-18.32094845,2.95890872,1.27523009,0.27897446

>  <Name>
ligand

>  <RI>
0

>  <Rbt.Current_Directory>
/home/itssahil/PROJECTS/Mol_Feturizer/New_Systems/rnas/4F8U

>  <Rbt.Executable>
rbdock ($Id: //depot/dev/client3/rdock/2013.1/src/exe/rbdock.cxx#4 $)

>  <Rbt.Library>
libRbt.so (2013.1, Build901 2013/11/27)

>  <Rbt.Parameter_File>
/export/apps/rDock/src/rDock_2013.1_src/data/scripts/dock_solv.prm

>  <Rbt.Receptor>
prm/blind_docking_80.prm

>  <SCORE>
11.53

>  <SCORE.INTER>
-0.890471

>  <SCORE.INTER.CONST>
1

>  <SCORE.INTER.POLAR>
0

>  <SCORE.INTER.ROT>
6

>  <SCORE.INTER.SOLV>
18.8734

>  <SCORE.INTER.VDW>
-14.4848

>  <SCORE.INTER.norm>
-0.0287249

>  <SCORE.INTRA>
1.32081

>  <SCORE.INTRA.DIHEDRAL>
-8.88092

>  <SCORE.INTRA.DIHEDRAL.0>
18.77

>  <SCORE.INTRA.POLAR>
0

>  <SCORE.INTRA.POLAR.0>
0

>  <SCORE.INTRA.REPUL>
0

>  <SCORE.INTRA.REPUL.0>
0

>  <SCORE.INTRA.SOLV>
2.89716

>  <SCORE.INTRA.SOLV.lig_0>
-77.2465

>  <SCORE.INTRA.VDW>
4.31269

>  <SCORE.INTRA.VDW.0>
-4.16072

>  <SCORE.INTRA.norm>
0.0426068

>  <SCORE.RESTR>
11.0996

>  <SCORE.RESTR.CAVITY>
11.0996

>  <SCORE.RESTR.norm>
0.358052

>  <SCORE.SYSTEM>
0

>  <SCORE.SYSTEM.CONST>
0

>  <SCORE.SYSTEM.DIHEDRAL>
0

>  <SCORE.SYSTEM.SOLV>
0

>  <SCORE.SYSTEM.norm>
0

>  <SCORE.heavy>
31

>  <SCORE.norm>
0.371934

>  <RMSD>
9.360

$$$$
ligand
 OpenBabel11021811493D
libRbt.so/2013.1/901 2013/11/27
 31 33  0  0  0  0  0  0  0  0999 V2000
   -9.2216  -13.7995  -18.2278 C   0  0  2  0  0  0  0  0  0  0  0  0
   -8.5318  -12.7860  -17.4837 O   0  0  0  0  0  0  0  0  0  0  0  0
   -5.8129   -9.6760  -18.6057 C   0  0  2  0  0  0  0  0  0  0  0  0
   -4.6249   -9.0203  -19.0605 N   0  0  0  0  0  0  0  0  0  0  0  0
   -7.7191   -8.8409  -20.9214 C   0  0  2  0  0  0  0  0  0  0  0  0
  -10.3688  -14.3273  -17.2965 C   0  0  2  0  0  0  0  0  0  0  0  0
  -11.2374  -13.2210  -16.9098 N   0  0  0  0  0  0  0  0  0  0  0  0
   -5.4706  -10.5122  -17.3128 C   0  0  0  0  0  0  0  0  0  0  0  0
   -7.8564   -8.4595  -22.4277 C   0  0  2  0  0  0  0  0  0  0  0  0
   -8.1974   -9.6189  -23.1683 O   0  0  0  0  0  0  0  0  0  0  0  0
   -9.7505  -15.0160  -16.0304 C   0  0  0  0  0  0  0  0  0  0  0  0
   -6.7926  -11.2336  -16.8038 C   0  0  2  0  0  0  0  0  0  0  0  0
   -6.4827  -12.0241  -15.5897 N   0  0  0  0  0  0  0  0  0  0  0  0
   -6.4485   -7.8791  -22.8935 C   0  0  1  0  0  0  0  0  0  0  0  0
   -6.4814   -7.5148  -24.3508 N   0  0  0  0  0  0  0  0  0  0  0  0
   -8.6134  -15.9986  -16.4340 C   0  0  0  0  0  0  0  0  0  0  0  0
   -7.3564  -12.1831  -17.9526 C   0  0  2  0  0  0  0  0  0  0  0  0
   -6.1015   -6.5505  -22.0175 C   0  0  1  0  0  0  0  0  0  0  0  0
   -7.0713   -5.5345  -22.1851 O   0  0  0  0  0  0  0  0  0  0  0  0
   -8.0040  -15.8985  -17.6249 C   0  0  2  0  0  0  0  0  0  0  0  0
   -8.3442  -14.9026  -18.6053 O   0  0  0  0  0  0  0  0  0  0  0  0
   -7.6618  -11.3158  -19.2450 C   0  0  2  0  0  0  0  0  0  0  0  0
   -8.1469  -12.1627  -20.2944 O   0  0  0  0  0  0  0  0  0  0  0  0
   -6.0652   -6.9284  -20.4982 C   0  0  0  0  0  0  0  0  0  0  0  0
   -7.3590   -7.6235  -20.1090 O   0  0  0  0  0  0  0  0  0  0  0  0
   -6.8739  -16.8670  -18.0453 C   0  0  0  0  0  0  0  0  0  0  0  0
   -7.2971  -17.6321  -19.2097 N   0  0  0  0  0  0  0  0  0  0  0  0
   -6.3464  -10.6081  -19.7335 C   0  0  1  0  0  0  0  0  0  0  0  0
   -6.6580   -9.8463  -20.8752 O   0  0  0  0  0  0  0  0  0  0  0  0
   -4.7632   -5.8670  -22.3433 C   0  0  0  0  0  0  0  0  0  0  0  0
   -6.1795   -8.5996  -25.3038 C   0  0  0  0  0  0  0  0  0  0  0  0
  1  2  1  1  0  0  0
  1  6  1  0  0  0  0
  1 21  1  0  0  0  0
  3  4  1  6  0  0  0
  3  8  1  0  0  0  0
  3 28  1  0  0  0  0
  5  9  1  0  0  0  0
  5 25  1  0  0  0  0
  5 29  1  6  0  0  0
  6  7  1  1  0  0  0
  6 11  1  0  0  0  0
  8 12  1  0  0  0  0
  9 10  1  6  0  0  0
  9 14  1  0  0  0  0
 11 16  1  0  0  0  0
 12 13  1  1  0  0  0
 12 17  1  0  0  0  0
 14 15  1  6  0  0  0
 14 18  1  0  0  0  0
 15 31  1  0  0  0  0
 16 20  1  0  0  0  0
 17  2  1  1  0  0  0
 17 22  1  0  0  0  0
 18 19  1  6  0  0  0
 18 24  1  0  0  0  0
 18 30  1  0  0  0  0
 20 21  1  0  0  0  0
 20 26  1  6  0  0  0
 22 23  1  6  0  0  0
 22 28  1  0  0  0  0
 24 25  1  0  0  0  0
 26 27  1  0  0  0  0
 28 29  1  6  0  0  0
M  END
>  <CHROM.1>
173.39125607,-170.09912252,-86.26238805,-173.88581992,116.91498074,-65.02250312
-7.35333339,-11.02152063,-19.64095496,2.22827370,1.19426829,1.93301527

>  <Name>
ligand

>  <RI>
0

>  <Rbt.Current_Directory>
/home/itssahil/PROJECTS/Mol_Feturizer/New_Systems/rnas/4F8U

>  <Rbt.Executable>
rbdock ($Id: //depot/dev/client3/rdock/2013.1/src/exe/rbdock.cxx#4 $)

>  <Rbt.Library>
libRbt.so (2013.1, Build901 2013/11/27)

>  <Rbt.Parameter_File>
/export/apps/rDock/src/rDock_2013.1_src/data/scripts/dock_solv.prm

>  <Rbt.Receptor>
prm/pocket_docking_7.prm

>  <SCORE>
-14.602

>  <SCORE.INTER>
-7.83771

>  <SCORE.INTER.CONST>
1

>  <SCORE.INTER.POLAR>
0

>  <SCORE.INTER.ROT>
6

>  <SCORE.INTER.SOLV>
12.6567

>  <SCORE.INTER.VDW>
-17.044

>  <SCORE.INTER.norm>
-0.252829

>  <SCORE.INTRA>
-6.76432

>  <SCORE.INTRA.DIHEDRAL>
-15.5963

>  <SCORE.INTRA.DIHEDRAL.0>
18.77

>  <SCORE.INTRA.POLAR>
0

>  <SCORE.INTRA.POLAR.0>
0

>  <SCORE.INTRA.REPUL>
0

>  <SCORE.INTRA.REPUL.0>
0

>  <SCORE.INTRA.SOLV>
-0.577218

>  <SCORE.INTRA.SOLV.lig_0>
-77.2465

>  <SCORE.INTRA.VDW>
1.32242

>  <SCORE.INTRA.VDW.0>
-4.16072

>  <SCORE.INTRA.norm>
-0.218204

>  <SCORE.RESTR>
0

>  <SCORE.RESTR.CAVITY>
0

>  <SCORE.RESTR.norm>
0

>  <SCORE.SYSTEM>
0

>  <SCORE.SYSTEM.CONST>
0

>  <SCORE.SYSTEM.DIHEDRAL>
0

>  <SCORE.SYSTEM.SOLV>
0

>  <SCORE.SYSTEM.norm>
0

>  <SCORE.heavy>
31

>  <SCORE.norm>
-0.471033

>  <RMSD>
9.361

$$$$
ligand
 OpenBabel11021811493D
libRbt.so/2013.1/901 2013/11/27
 31 33  0  0  0  0  0  0  0  0999 V2000
   -3.0056  -14.1289  -13.4339 C   0  0  2  0  0  0  0  0  0  0  0  0
   -3.7864  -15.3229  -13.2882 O   0  0  0  0  0  0  0  0  0  0  0  0
   -7.1746  -16.9575  -15.3307 C   0  0  2  0  0  0  0  0  0  0  0  0
   -8.5079  -17.1074  -15.8286 N   0  0  0  0  0  0  0  0  0  0  0  0
   -7.7069  -15.7957  -18.1436 C   0  0  2  0  0  0  0  0  0  0  0  0
   -1.5192  -14.5342  -13.1368 C   0  0  2  0  0  0  0  0  0  0  0  0
   -1.1059  -15.5941  -14.0498 N   0  0  0  0  0  0  0  0  0  0  0  0
   -7.2196  -16.9250  -13.7543 C   0  0  0  0  0  0  0  0  0  0  0  0
   -7.1557  -15.9610  -19.5935 C   0  0  2  0  0  0  0  0  0  0  0  0
   -6.3546  -17.1288  -19.6525 O   0  0  0  0  0  0  0  0  0  0  0  0
   -1.3842  -15.0022  -11.6460 C   0  0  0  0  0  0  0  0  0  0  0  0
   -5.7372  -16.7665  -13.2023 C   0  0  2  0  0  0  0  0  0  0  0  0
   -5.7671  -16.7330  -11.7214 N   0  0  0  0  0  0  0  0  0  0  0  0
   -6.2939  -14.6615  -19.9173 C   0  0  1  0  0  0  0  0  0  0  0  0
   -5.6938  -14.7525  -21.2917 N   0  0  0  0  0  0  0  0  0  0  0  0
   -2.0842  -13.9984  -10.6848 C   0  0  0  0  0  0  0  0  0  0  0  0
   -5.0979  -15.4230  -13.7727 C   0  0  2  0  0  0  0  0  0  0  0  0
   -7.2553  -13.3491  -19.8389 C   0  0  1  0  0  0  0  0  0  0  0  0
   -8.3189  -13.4125  -20.7693 O   0  0  0  0  0  0  0  0  0  0  0  0
   -3.0123  -13.1416  -11.1368 C   0  0  2  0  0  0  0  0  0  0  0  0
   -3.4250  -13.0775  -12.5131 O   0  0  0  0  0  0  0  0  0  0  0  0
   -5.0953  -15.4770  -15.3578 C   0  0  2  0  0  0  0  0  0  0  0  0
   -4.5446  -14.2629  -15.8840 O   0  0  0  0  0  0  0  0  0  0  0  0
   -7.8806  -13.2516  -18.4065 C   0  0  0  0  0  0  0  0  0  0  0  0
   -8.5661  -14.5608  -18.0532 O   0  0  0  0  0  0  0  0  0  0  0  0
   -3.7170  -12.1348  -10.1979 C   0  0  0  0  0  0  0  0  0  0  0  0
   -5.1534  -12.3732  -10.2191 N   0  0  0  0  0  0  0  0  0  0  0  0
   -6.5664  -15.6360  -15.8870 C   0  0  1  0  0  0  0  0  0  0  0  0
   -6.5224  -15.6853  -17.2929 O   0  0  0  0  0  0  0  0  0  0  0  0
   -6.5705  -12.0021  -20.1236 C   0  0  0  0  0  0  0  0  0  0  0  0
   -4.3034  -15.2393  -21.3681 C   0  0  0  0  0  0  0  0  0  0  0  0
  1  2  1  1  0  0  0
  1  6  1  0  0  0  0
  1 21  1  0  0  0  0
  3  4  1  6  0  0  0
  3  8  1  0  0  0  0
  3 28  1  0  0  0  0
  5  9  1  0  0  0  0
  5 25  1  0  0  0  0
  5 29  1  1  0  0  0
  6  7  1  6  0  0  0
  6 11  1  0  0  0  0
  8 12  1  0  0  0  0
  9 10  1  1  0  0  0
  9 14  1  0  0  0  0
 11 16  1  0  0  0  0
 12 13  1  1  0  0  0
 12 17  1  0  0  0  0
 14 15  1  6  0  0  0
 14 18  1  0  0  0  0
 15 31  1  0  0  0  0
 16 20  1  0  0  0  0
 17  2  1  1  0  0  0
 17 22  1  0  0  0  0
 18 19  1  6  0  0  0
 18 24  1  0  0  0  0
 18 30  1  0  0  0  0
 20 21  1  0  0  0  0
 20 26  1  6  0  0  0
 22 23  1  6  0  0  0
 22 28  1  0  0  0  0
 24 25  1  0  0  0  0
 26 27  1  0  0  0  0
 28 29  1  6  0  0  0
M  END
>  <CHROM.1>
-164.81598041,-174.36404998,-96.48535492,-169.64199622,-120.51376210,62.36104950
-5.38277955,-14.83854592,-15.70862627,-1.04743278,-0.56641861,-1.33530092

>  <Name>
ligand

>  <RI>
0

>  <Rbt.Current_Directory>
/home/itssahil/PROJECTS/Mol_Feturizer/New_Systems/rnas/4F8U

>  <Rbt.Executable>
rbdock ($Id: //depot/dev/client3/rdock/2013.1/src/exe/rbdock.cxx#4 $)

>  <Rbt.Library>
libRbt.so (2013.1, Build901 2013/11/27)

>  <Rbt.Parameter_File>
/export/apps/rDock/src/rDock_2013.1_src/data/scripts/dock_solv.prm

>  <Rbt.Receptor>
prm/pocket_docking_7.prm

>  <SCORE>
-12.6284

>  <SCORE.INTER>
-5.74291

>  <SCORE.INTER.CONST>
1

>  <SCORE.INTER.POLAR>
0

>  <SCORE.INTER.ROT>
6

>  <SCORE.INTER.SOLV>
8.70653

>  <SCORE.INTER.VDW>
-14.3308

>  <SCORE.INTER.norm>
-0.185255

>  <SCORE.INTRA>
-6.88548

>  <SCORE.INTRA.DIHEDRAL>
-14.5064

>  <SCORE.INTRA.DIHEDRAL.0>
18.77

>  <SCORE.INTRA.POLAR>
0

>  <SCORE.INTRA.POLAR.0>
0

>  <SCORE.INTRA.REPUL>
0

>  <SCORE.INTRA.REPUL.0>
0

>  <SCORE.INTRA.SOLV>
-1.51763

>  <SCORE.INTRA.SOLV.lig_0>
-77.2465

>  <SCORE.INTRA.VDW>
1.12653

>  <SCORE.INTRA.VDW.0>
-4.16072

>  <SCORE.INTRA.norm>
-0.222112

>  <SCORE.RESTR>
0

>  <SCORE.RESTR.CAVITY>
0

>  <SCORE.RESTR.norm>
0

>  <SCORE.SYSTEM>
0

>  <SCORE.SYSTEM.CONST>
0

>  <SCORE.SYSTEM.DIHEDRAL>
0

>  <SCORE.SYSTEM.SOLV>
0

>  <SCORE.SYSTEM.norm>
0

>  <SCORE.heavy>
31

>  <SCORE.norm>
-0.407367

>  <RMSD>
9.366

$$$$
ligand
 OpenBabel11021811493D
libRbt.so/2013.1/901 2013/11/27
 31 33  0  0  0  0  0  0  0  0999 V2000
   -6.0285  -12.0483  -17.9243 C   0  0  2  0  0  0  0  0  0  0  0  0
   -7.3383  -11.5240  -18.1814 O   0  0  0  0  0  0  0  0  0  0  0  0
   -7.1463  -10.4266  -22.3145 C   0  0  2  0  0  0  0  0  0  0  0  0
   -7.5563  -10.1301  -23.6532 N   0  0  0  0  0  0  0  0  0  0  0  0
   -7.8646   -6.9392  -20.8772 C   0  0  2  0  0  0  0  0  0  0  0  0
   -5.8346  -12.0087  -16.3678 C   0  0  2  0  0  0  0  0  0  0  0  0
   -6.8891  -12.7811  -15.7203 N   0  0  0  0  0  0  0  0  0  0  0  0
   -7.5558  -11.9110  -21.9727 C   0  0  0  0  0  0  0  0  0  0  0  0
   -7.9020   -5.7676  -21.9063 C   0  0  2  0  0  0  0  0  0  0  0  0
   -8.8324   -6.0807  -22.9287 O   0  0  0  0  0  0  0  0  0  0  0  0
   -5.8495  -10.5219  -15.8685 C   0  0  0  0  0  0  0  0  0  0  0  0
   -7.0927  -12.2417  -20.4883 C   0  0  2  0  0  0  0  0  0  0  0  0
   -7.4739  -13.6341  -20.1551 N   0  0  0  0  0  0  0  0  0  0  0  0
   -6.4316   -5.6190  -22.4996 C   0  0  1  0  0  0  0  0  0  0  0  0
   -6.3840   -4.5273  -23.5307 N   0  0  0  0  0  0  0  0  0  0  0  0
   -4.9288   -9.6316  -16.7523 C   0  0  0  0  0  0  0  0  0  0  0  0
   -7.7827  -11.2226  -19.4762 C   0  0  2  0  0  0  0  0  0  0  0  0
   -5.4012   -5.2587  -21.2908 C   0  0  1  0  0  0  0  0  0  0  0  0
   -5.7389   -4.0448  -20.6478 O   0  0  0  0  0  0  0  0  0  0  0  0
   -4.5653  -10.0217  -17.9833 C   0  0  2  0  0  0  0  0  0  0  0  0
   -4.9819  -11.2656  -18.5732 O   0  0  0  0  0  0  0  0  0  0  0  0
   -7.3737   -9.7406  -19.8663 C   0  0  2  0  0  0  0  0  0  0  0  0
   -8.0080   -8.8121  -18.9777 O   0  0  0  0  0  0  0  0  0  0  0  0
   -5.4481   -6.3963  -20.2156 C   0  0  0  0  0  0  0  0  0  0  0  0
   -6.8834   -6.6306  -19.7756 O   0  0  0  0  0  0  0  0  0  0  0  0
   -3.6489   -9.1523  -18.8756 C   0  0  0  0  0  0  0  0  0  0  0  0
   -2.2818   -9.2175  -18.3785 N   0  0  0  0  0  0  0  0  0  0  0  0
   -7.8361   -9.4307  -21.3359 C   0  0  1  0  0  0  0  0  0  0  0  0
   -7.4518   -8.1127  -21.6462 O   0  0  0  0  0  0  0  0  0  0  0  0
   -3.9287   -5.0853  -21.6984 C   0  0  0  0  0  0  0  0  0  0  0  0
   -7.0240   -4.8223  -24.8267 C   0  0  0  0  0  0  0  0  0  0  0  0
  1  2  1  1  0  0  0
  1  6  1  0  0  0  0
  1 21  1  0  0  0  0
  3  4  1  6  0  0  0
  3  8  1  0  0  0  0
  3 28  1  0  0  0  0
  5  9  1  0  0  0  0
  5 25  1  0  0  0  0
  5 29  1  6  0  0  0
  6  7  1  1  0  0  0
  6 11  1  0  0  0  0
  8 12  1  0  0  0  0
  9 10  1  6  0  0  0
  9 14  1  0  0  0  0
 11 16  1  0  0  0  0
 12 13  1  1  0  0  0
 12 17  1  0  0  0  0
 14 15  1  6  0  0  0
 14 18  1  0  0  0  0
 15 31  1  0  0  0  0
 16 20  1  0  0  0  0
 17  2  1  1  0  0  0
 17 22  1  0  0  0  0
 18 19  1  1  0  0  0
 18 24  1  0  0  0  0
 18 30  1  0  0  0  0
 20 21  1  0  0  0  0
 20 26  1  1  0  0  0
 22 23  1  1  0  0  0
 22 28  1  0  0  0  0
 24 25  1  0  0  0  0
 26 27  1  0  0  0  0
 28 29  1  6  0  0  0
M  END
>  <CHROM.1>
170.30170855,-150.34818883,-72.75782566,31.91966522,73.93909634,-176.71091116
-6.44191675,-8.82596182,-20.16089808,1.47185779,0.87977389,2.57543109

>  <Name>
ligand

>  <RI>
0

>  <Rbt.Current_Directory>
/home/itssahil/PROJECTS/Mol_Feturizer/New_Systems/rnas/4F8U

>  <Rbt.Executable>
rbdock ($Id: //depot/dev/client3/rdock/2013.1/src/exe/rbdock.cxx#4 $)

>  <Rbt.Library>
libRbt.so (2013.1, Build901 2013/11/27)

>  <Rbt.Parameter_File>
/export/apps/rDock/src/rDock_2013.1_src/data/scripts/dock_solv.prm

>  <Rbt.Receptor>
prm/blind_docking_60.prm

>  <SCORE>
16.3315

>  <SCORE.INTER>
-3.57924

>  <SCORE.INTER.CONST>
1

>  <SCORE.INTER.POLAR>
0

>  <SCORE.INTER.ROT>
6

>  <SCORE.INTER.SOLV>
22.8284

>  <SCORE.INTER.VDW>
-17.5956

>  <SCORE.INTER.norm>
-0.115459

>  <SCORE.INTRA>
-2.2801

>  <SCORE.INTRA.DIHEDRAL>
-8.00175

>  <SCORE.INTRA.DIHEDRAL.0>
18.77

>  <SCORE.INTRA.POLAR>
0

>  <SCORE.INTRA.POLAR.0>
0

>  <SCORE.INTRA.REPUL>
0

>  <SCORE.INTRA.REPUL.0>
0

>  <SCORE.INTRA.SOLV>
-1.65827

>  <SCORE.INTRA.SOLV.lig_0>
-77.2465

>  <SCORE.INTRA.VDW>
2.54991

>  <SCORE.INTRA.VDW.0>
-4.16072

>  <SCORE.INTRA.norm>
-0.0735517

>  <SCORE.RESTR>
22.1908

>  <SCORE.RESTR.CAVITY>
22.1908

>  <SCORE.RESTR.norm>
0.715832

>  <SCORE.SYSTEM>
0

>  <SCORE.SYSTEM.CONST>
0

>  <SCORE.SYSTEM.DIHEDRAL>
0

>  <SCORE.SYSTEM.SOLV>
0

>  <SCORE.SYSTEM.norm>
0

>  <SCORE.heavy>
31

>  <SCORE.norm>
0.526821

>  <RMSD>
9.372

$$$$
ligand
 OpenBabel11021811493D
libRbt.so/2013.1/901 2013/11/27
 31 33  0  0  0  0  0  0  0  0999 V2000
   -5.4308  -11.4938   -9.8807 C   0  0  2  0  0  0  0  0  0  0  0  0
   -5.5943  -10.5725  -10.9675 O   0  0  0  0  0  0  0  0  0  0  0  0
   -8.6395   -8.5674  -13.2103 C   0  0  2  0  0  0  0  0  0  0  0  0
   -9.8851   -8.3107  -13.8664 N   0  0  0  0  0  0  0  0  0  0  0  0
   -8.8550   -6.3359  -11.1219 C   0  0  2  0  0  0  0  0  0  0  0  0
   -4.0602  -12.2194  -10.1192 C   0  0  2  0  0  0  0  0  0  0  0  0
   -2.9871  -11.2339  -10.1904 N   0  0  0  0  0  0  0  0  0  0  0  0
   -7.9726   -9.8397  -13.8619 C   0  0  0  0  0  0  0  0  0  0  0  0
   -9.8578   -5.4065  -10.3710 C   0  0  2  0  0  0  0  0  0  0  0  0
  -10.0495   -5.9004   -9.0564 O   0  0  0  0  0  0  0  0  0  0  0  0
   -4.1283  -13.0620  -11.4403 C   0  0  0  0  0  0  0  0  0  0  0  0
   -6.5853  -10.1191  -13.1376 C   0  0  2  0  0  0  0  0  0  0  0  0
   -5.9500  -11.3140  -13.7406 N   0  0  0  0  0  0  0  0  0  0  0  0
  -11.2216   -5.4288  -11.1930 C   0  0  1  0  0  0  0  0  0  0  0  0
  -12.2614   -4.5802  -10.5176 N   0  0  0  0  0  0  0  0  0  0  0  0
   -5.4330  -13.9086  -11.4908 C   0  0  0  0  0  0  0  0  0  0  0  0
   -6.8351  -10.3521  -11.5812 C   0  0  2  0  0  0  0  0  0  0  0  0
  -10.9519   -4.8525  -12.6923 C   0  0  1  0  0  0  0  0  0  0  0  0
  -10.4741   -3.5212  -12.6725 O   0  0  0  0  0  0  0  0  0  0  0  0
   -6.4912  -13.5932  -10.7290 C   0  0  2  0  0  0  0  0  0  0  0  0
   -6.5073  -12.4771   -9.8220 O   0  0  0  0  0  0  0  0  0  0  0  0
   -7.5321   -9.0673  -10.9653 C   0  0  2  0  0  0  0  0  0  0  0  0
   -7.7845   -9.2740   -9.5698 O   0  0  0  0  0  0  0  0  0  0  0  0
   -9.8695   -5.7366  -13.3986 C   0  0  0  0  0  0  0  0  0  0  0  0
   -8.6305   -5.8312  -12.5241 O   0  0  0  0  0  0  0  0  0  0  0  0
   -7.7954  -14.4237  -10.7630 C   0  0  0  0  0  0  0  0  0  0  0  0
   -7.9924  -15.0732   -9.4747 N   0  0  0  0  0  0  0  0  0  0  0  0
   -8.8997   -8.8038  -11.6931 C   0  0  1  0  0  0  0  0  0  0  0  0
   -9.4837   -7.6564  -11.1242 O   0  0  0  0  0  0  0  0  0  0  0  0
  -12.1761   -4.8116  -13.6219 C   0  0  0  0  0  0  0  0  0  0  0  0
  -12.6736   -5.0023   -9.1655 C   0  0  0  0  0  0  0  0  0  0  0  0
  1  2  1  6  0  0  0
  1  6  1  0  0  0  0
  1 21  1  0  0  0  0
  3  4  1  6  0  0  0
  3  8  1  0  0  0  0
  3 28  1  0  0  0  0
  5  9  1  0  0  0  0
  5 25  1  0  0  0  0
  5 29  1  6  0  0  0
  6  7  1  6  0  0  0
  6 11  1  0  0  0  0
  8 12  1  0  0  0  0
  9 10  1  1  0  0  0
  9 14  1  0  0  0  0
 11 16  1  0  0  0  0
 12 13  1  6  0  0  0
 12 17  1  0  0  0  0
 14 15  1  1  0  0  0
 14 18  1  0  0  0  0
 15 31  1  0  0  0  0
 16 20  1  0  0  0  0
 17  2  1  1  0  0  0
 17 22  1  0  0  0  0
 18 19  1  1  0  0  0
 18 24  1  0  0  0  0
 18 30  1  0  0  0  0
 20 21  1  0  0  0  0
 20 26  1  1  0  0  0
 22 23  1  1  0  0  0
 22 28  1  0  0  0  0
 24 25  1  0  0  0  0
 26 27  1  0  0  0  0
 28 29  1  1  0  0  0
M  END
>  <CHROM.1>
140.83609706,-179.19101588,-62.56712167,-143.97492838,114.18586850,-59.43840946
-8.18709634,-8.95205165,-11.39691685,0.48921986,-0.87464129,2.07011525

>  <Name>
ligand

>  <RI>
0

>  <Rbt.Current_Directory>
/home/itssahil/PROJECTS/Mol_Feturizer/New_Systems/rnas/4F8U

>  <Rbt.Executable>
rbdock ($Id: //depot/dev/client3/rdock/2013.1/src/exe/rbdock.cxx#4 $)

>  <Rbt.Library>
libRbt.so (2013.1, Build901 2013/11/27)

>  <Rbt.Parameter_File>
/export/apps/rDock/src/rDock_2013.1_src/data/scripts/dock_solv.prm

>  <Rbt.Receptor>
prm/blind_docking_20.prm

>  <SCORE>
12.7608

>  <SCORE.INTER>
2.02126

>  <SCORE.INTER.CONST>
1

>  <SCORE.INTER.POLAR>
0

>  <SCORE.INTER.ROT>
6

>  <SCORE.INTER.SOLV>
16.8208

>  <SCORE.INTER.VDW>
-11.8594

>  <SCORE.INTER.norm>
0.0652019

>  <SCORE.INTRA>
1.75026

>  <SCORE.INTRA.DIHEDRAL>
-7.053

>  <SCORE.INTRA.DIHEDRAL.0>
18.77

>  <SCORE.INTRA.POLAR>
0

>  <SCORE.INTRA.POLAR.0>
0

>  <SCORE.INTRA.REPUL>
0

>  <SCORE.INTRA.REPUL.0>
0

>  <SCORE.INTRA.SOLV>
2.61187

>  <SCORE.INTRA.SOLV.lig_0>
-77.2465

>  <SCORE.INTRA.VDW>
3.97082

>  <SCORE.INTRA.VDW.0>
-4.16072

>  <SCORE.INTRA.norm>
0.0564599

>  <SCORE.RESTR>
8.98926

>  <SCORE.RESTR.CAVITY>
8.98926

>  <SCORE.RESTR.norm>
0.289976

>  <SCORE.SYSTEM>
0

>  <SCORE.SYSTEM.CONST>
0

>  <SCORE.SYSTEM.DIHEDRAL>
0

>  <SCORE.SYSTEM.SOLV>
0

>  <SCORE.SYSTEM.norm>
0

>  <SCORE.heavy>
31

>  <SCORE.norm>
0.411638

>  <RMSD>
9.386

$$$$
ligand
 OpenBabel11021811493D
libRbt.so/2013.1/901 2013/11/27
 31 33  0  0  0  0  0  0  0  0999 V2000
   -6.3456  -10.9853  -25.0078 C   0  0  2  0  0  0  0  0  0  0  0  0
   -7.2406  -10.5810  -23.9627 O   0  0  0  0  0  0  0  0  0  0  0  0
   -7.6909  -11.0963  -19.7371 C   0  0  2  0  0  0  0  0  0  0  0  0
   -7.3673  -11.1882  -18.3461 N   0  0  0  0  0  0  0  0  0  0  0  0
   -7.4698   -7.5456  -18.8877 C   0  0  2  0  0  0  0  0  0  0  0  0
   -6.1403   -9.7283  -25.9242 C   0  0  2  0  0  0  0  0  0  0  0  0
   -5.6187   -8.6206  -25.1312 N   0  0  0  0  0  0  0  0  0  0  0  0
   -6.8792  -12.1968  -20.5233 C   0  0  0  0  0  0  0  0  0  0  0  0
   -7.5781   -6.3815  -19.9205 C   0  0  2  0  0  0  0  0  0  0  0  0
   -8.9439   -6.1659  -20.2317 O   0  0  0  0  0  0  0  0  0  0  0  0
   -7.5004   -9.3354  -26.5992 C   0  0  0  0  0  0  0  0  0  0  0  0
   -7.2454  -12.0989  -22.0672 C   0  0  2  0  0  0  0  0  0  0  0  0
   -6.4870  -13.1276  -22.8166 N   0  0  0  0  0  0  0  0  0  0  0  0
   -6.7620   -6.8262  -21.2138 C   0  0  1  0  0  0  0  0  0  0  0  0
   -6.8416   -5.7703  -22.2796 N   0  0  0  0  0  0  0  0  0  0  0  0
   -8.2003  -10.5865  -27.2043 C   0  0  0  0  0  0  0  0  0  0  0  0
   -6.8859  -10.6438  -22.6080 C   0  0  2  0  0  0  0  0  0  0  0  0
   -5.2022   -7.0600  -20.8076 C   0  0  1  0  0  0  0  0  0  0  0  0
   -4.6041   -5.8852  -20.2947 O   0  0  0  0  0  0  0  0  0  0  0  0
   -7.8772  -11.8234  -26.7977 C   0  0  2  0  0  0  0  0  0  0  0  0
   -6.8794  -12.0906  -25.7967 O   0  0  0  0  0  0  0  0  0  0  0  0
   -7.6959   -9.5623  -21.7775 C   0  0  2  0  0  0  0  0  0  0  0  0
   -7.3626   -8.2468  -22.2384 O   0  0  0  0  0  0  0  0  0  0  0  0
   -5.1168   -8.1615  -19.6977 C   0  0  0  0  0  0  0  0  0  0  0  0
   -6.0254   -7.7944  -18.5365 O   0  0  0  0  0  0  0  0  0  0  0  0
   -8.5594  -13.0791  -27.3888 C   0  0  0  0  0  0  0  0  0  0  0  0
   -9.9938  -12.8505  -27.4918 N   0  0  0  0  0  0  0  0  0  0  0  0
   -7.3245   -9.6738  -20.2545 C   0  0  1  0  0  0  0  0  0  0  0  0
   -8.0649   -8.7046  -19.5519 O   0  0  0  0  0  0  0  0  0  0  0  0
   -4.2735   -7.5007  -21.9512 C   0  0  0  0  0  0  0  0  0  0  0  0
   -6.5536   -4.3875  -21.8542 C   0  0  0  0  0  0  0  0  0  0  0  0
  1  2  1  1  0  0  0
  1  6  1  0  0  0  0
  1 21  1  0  0  0  0
  3  4  1  1  0  0  0
  3  8  1  0  0  0  0
  3 28  1  0  0  0  0
  5  9  1  0  0  0  0
  5 25  1  0  0  0  0
  5 29  1  6  0  0  0
  6  7  1  1  0  0  0
  6 11  1  0  0  0  0
  8 12  1  0  0  0  0
  9 10  1  6  0  0  0
  9 14  1  0  0  0  0
 11 16  1  0  0  0  0
 12 13  1  6  0  0  0
 12 17  1  0  0  0  0
 14 15  1  6  0  0  0
 14 18  1  0  0  0  0
 15 31  1  0  0  0  0
 16 20  1  0  0  0  0
 17  2  1  6  0  0  0
 17 22  1  0  0  0  0
 18 19  1  1  0  0  0
 18 24  1  0  0  0  0
 18 30  1  0  0  0  0
 20 21  1  0  0  0  0
 20 26  1  6  0  0  0
 22 23  1  6  0  0  0
 22 28  1  0  0  0  0
 24 25  1  0  0  0  0
 26 27  1  0  0  0  0
 28 29  1  1  0  0  0
M  END
>  <CHROM.1>
-120.92568271,95.25326554,48.78700191,-87.45033040,-43.69394478,127.89017365
-6.98817051,-9.30471005,-22.46219964,-2.38074439,1.35176581,1.73409083

>  <Name>
ligand

>  <RI>
0

>  <Rbt.Current_Directory>
/home/itssahil/PROJECTS/Mol_Feturizer/New_Systems/rnas/4F8U

>  <Rbt.Executable>
rbdock ($Id: //depot/dev/client3/rdock/2013.1/src/exe/rbdock.cxx#4 $)

>  <Rbt.Library>
libRbt.so (2013.1, Build901 2013/11/27)

>  <Rbt.Parameter_File>
/export/apps/rDock/src/rDock_2013.1_src/data/scripts/dock_solv.prm

>  <Rbt.Receptor>
prm/blind_docking_100.prm

>  <SCORE>
62.591

>  <SCORE.INTER>
24.2963

>  <SCORE.INTER.CONST>
1

>  <SCORE.INTER.POLAR>
0

>  <SCORE.INTER.ROT>
6

>  <SCORE.INTER.SOLV>
33.3737

>  <SCORE.INTER.VDW>
-2.52708

>  <SCORE.INTER.norm>
0.78375

>  <SCORE.INTRA>
25.7106

>  <SCORE.INTRA.DIHEDRAL>
6.39192

>  <SCORE.INTRA.DIHEDRAL.0>
18.77

>  <SCORE.INTRA.POLAR>
0

>  <SCORE.INTRA.POLAR.0>
0

>  <SCORE.INTRA.REPUL>
0.123961

>  <SCORE.INTRA.REPUL.0>
0

>  <SCORE.INTRA.SOLV>
3.71885

>  <SCORE.INTRA.SOLV.lig_0>
-77.2465

>  <SCORE.INTRA.VDW>
20.0354

>  <SCORE.INTRA.VDW.0>
-4.16072

>  <SCORE.INTRA.norm>
0.829375

>  <SCORE.RESTR>
12.5841

>  <SCORE.RESTR.CAVITY>
12.5841

>  <SCORE.RESTR.norm>
0.405939

>  <SCORE.SYSTEM>
0

>  <SCORE.SYSTEM.CONST>
0

>  <SCORE.SYSTEM.DIHEDRAL>
0

>  <SCORE.SYSTEM.SOLV>
0

>  <SCORE.SYSTEM.norm>
0

>  <SCORE.heavy>
31

>  <SCORE.norm>
2.01906

>  <RMSD>
9.390

$$$$
ligand
 OpenBabel11021811493D
libRbt.so/2013.1/901 2013/11/27
 31 33  0  0  0  0  0  0  0  0999 V2000
   -4.6783  -13.1319   -9.9632 C   0  0  2  0  0  0  0  0  0  0  0  0
   -5.7115  -12.5694  -10.7833 O   0  0  0  0  0  0  0  0  0  0  0  0
   -9.7070  -11.1042  -10.3212 C   0  0  2  0  0  0  0  0  0  0  0  0
  -10.8335  -10.3992   -9.7904 N   0  0  0  0  0  0  0  0  0  0  0  0
   -8.3899   -8.0234  -12.1887 C   0  0  2  0  0  0  0  0  0  0  0  0
   -3.8232  -11.9248   -9.4402 C   0  0  2  0  0  0  0  0  0  0  0  0
   -4.6785  -10.9944   -8.7118 N   0  0  0  0  0  0  0  0  0  0  0  0
   -9.1631  -12.0973   -9.2230 C   0  0  0  0  0  0  0  0  0  0  0  0
   -8.5148   -6.9796  -11.0363 C   0  0  2  0  0  0  0  0  0  0  0  0
   -7.9233   -7.5131   -9.8640 O   0  0  0  0  0  0  0  0  0  0  0  0
   -3.1239  -11.2072  -10.6468 C   0  0  0  0  0  0  0  0  0  0  0  0
   -7.9167  -12.8855   -9.8166 C   0  0  2  0  0  0  0  0  0  0  0  0
   -7.3959  -13.8209   -8.7925 N   0  0  0  0  0  0  0  0  0  0  0  0
  -10.0687   -6.7078  -10.8177 C   0  0  1  0  0  0  0  0  0  0  0  0
  -10.2834   -5.7321   -9.6955 N   0  0  0  0  0  0  0  0  0  0  0  0
   -2.4445  -12.2427  -11.5889 C   0  0  0  0  0  0  0  0  0  0  0  0
   -6.7854  -11.8479  -10.2437 C   0  0  2  0  0  0  0  0  0  0  0  0
  -10.7023   -6.0956  -12.1876 C   0  0  1  0  0  0  0  0  0  0  0  0
  -10.0916   -4.8742  -12.5568 O   0  0  0  0  0  0  0  0  0  0  0  0
   -2.8078  -13.5340  -11.5729 C   0  0  2  0  0  0  0  0  0  0  0  0
   -3.8268  -14.0574  -10.7032 O   0  0  0  0  0  0  0  0  0  0  0  0
   -7.3740  -10.8481  -11.3253 C   0  0  2  0  0  0  0  0  0  0  0  0
   -6.3727   -9.8937  -11.7000 O   0  0  0  0  0  0  0  0  0  0  0  0
  -10.4810   -7.1118  -13.3584 C   0  0  0  0  0  0  0  0  0  0  0  0
   -9.0096   -7.4795  -13.4503 O   0  0  0  0  0  0  0  0  0  0  0  0
   -2.1427  -14.5785  -12.4995 C   0  0  0  0  0  0  0  0  0  0  0  0
   -1.3041  -15.4673  -11.7076 N   0  0  0  0  0  0  0  0  0  0  0  0
   -8.6057  -10.0793  -10.7241 C   0  0  1  0  0  0  0  0  0  0  0  0
   -9.1022   -9.2085  -11.7121 O   0  0  0  0  0  0  0  0  0  0  0  0
  -12.2066   -5.7797  -12.1442 C   0  0  0  0  0  0  0  0  0  0  0  0
  -11.5222   -5.8979   -8.9119 C   0  0  0  0  0  0  0  0  0  0  0  0
  1  2  1  6  0  0  0
  1  6  1  0  0  0  0
  1 21  1  0  0  0  0
  3  4  1  1  0  0  0
  3  8  1  0  0  0  0
  3 28  1  0  0  0  0
  5  9  1  0  0  0  0
  5 25  1  0  0  0  0
  5 29  1  1  0  0  0
  6  7  1  6  0  0  0
  6 11  1  0  0  0  0
  8 12  1  0  0  0  0
  9 10  1  1  0  0  0
  9 14  1  0  0  0  0
 11 16  1  0  0  0  0
 12 13  1  1  0  0  0
 12 17  1  0  0  0  0
 14 15  1  1  0  0  0
 14 18  1  0  0  0  0
 15 31  1  0  0  0  0
 16 20  1  0  0  0  0
 17  2  1  6  0  0  0
 17 22  1  0  0  0  0
 18 19  1  6  0  0  0
 18 24  1  0  0  0  0
 18 30  1  0  0  0  0
 20 21  1  0  0  0  0
 20 26  1  1  0  0  0
 22 23  1  1  0  0  0
 22 28  1  0  0  0  0
 24 25  1  0  0  0  0
 26 27  1  0  0  0  0
 28 29  1  6  0  0  0
M  END
>  <CHROM.1>
-71.53297227,-73.82817511,-148.71017242,-85.45393996,109.09646144,171.83004824
-7.33557955,-10.09342444,-10.90488031,0.67754195,-0.43279716,2.58758141

>  <Name>
ligand

>  <RI>
0

>  <Rbt.Current_Directory>
/home/itssahil/PROJECTS/Mol_Feturizer/New_Systems/rnas/4F8U

>  <Rbt.Executable>
rbdock ($Id: //depot/dev/client3/rdock/2013.1/src/exe/rbdock.cxx#4 $)

>  <Rbt.Library>
libRbt.so (2013.1, Build901 2013/11/27)

>  <Rbt.Parameter_File>
/export/apps/rDock/src/rDock_2013.1_src/data/scripts/dock_solv.prm

>  <Rbt.Receptor>
prm/blind_docking_20.prm

>  <SCORE>
4.92939

>  <SCORE.INTER>
1.25612

>  <SCORE.INTER.CONST>
1

>  <SCORE.INTER.POLAR>
0

>  <SCORE.INTER.ROT>
6

>  <SCORE.INTER.SOLV>
21.5313

>  <SCORE.INTER.VDW>
-13.9397

>  <SCORE.INTER.norm>
0.04052

>  <SCORE.INTRA>
-3.02447

>  <SCORE.INTRA.DIHEDRAL>
-11.6775

>  <SCORE.INTRA.DIHEDRAL.0>
18.77

>  <SCORE.INTRA.POLAR>
0

>  <SCORE.INTRA.POLAR.0>
0

>  <SCORE.INTRA.REPUL>
0

>  <SCORE.INTRA.REPUL.0>
0

>  <SCORE.INTRA.SOLV>
1.64415

>  <SCORE.INTRA.SOLV.lig_0>
-77.2465

>  <SCORE.INTRA.VDW>
1.99223

>  <SCORE.INTRA.VDW.0>
-4.16072

>  <SCORE.INTRA.norm>
-0.0975635

>  <SCORE.RESTR>
6.69774

>  <SCORE.RESTR.CAVITY>
6.69774

>  <SCORE.RESTR.norm>
0.216056

>  <SCORE.SYSTEM>
0

>  <SCORE.SYSTEM.CONST>
0

>  <SCORE.SYSTEM.DIHEDRAL>
0

>  <SCORE.SYSTEM.SOLV>
0

>  <SCORE.SYSTEM.norm>
0

>  <SCORE.heavy>
31

>  <SCORE.norm>
0.159013

>  <RMSD>
9.413

$$$$
ligand
 OpenBabel11021811493D
libRbt.so/2013.1/901 2013/11/27
 31 33  0  0  0  0  0  0  0  0999 V2000
   -8.0336   -9.2130  -15.6701 C   0  0  2  0  0  0  0  0  0  0  0  0
   -8.2817  -10.4230  -16.3987 O   0  0  0  0  0  0  0  0  0  0  0  0
   -6.7338  -10.9381  -20.3563 C   0  0  2  0  0  0  0  0  0  0  0  0
   -6.6764  -11.0151  -21.7841 N   0  0  0  0  0  0  0  0  0  0  0  0
   -6.5918   -7.1726  -20.7276 C   0  0  2  0  0  0  0  0  0  0  0  0
   -7.2490   -9.6293  -14.3766 C   0  0  2  0  0  0  0  0  0  0  0  0
   -6.0227  -10.3267  -14.7474 N   0  0  0  0  0  0  0  0  0  0  0  0
   -7.7581  -12.0151  -19.8283 C   0  0  0  0  0  0  0  0  0  0  0  0
   -7.1777   -7.2178  -22.1726 C   0  0  2  0  0  0  0  0  0  0  0  0
   -8.3219   -8.0542  -22.1810 O   0  0  0  0  0  0  0  0  0  0  0  0
   -8.1546  -10.5400  -13.4763 C   0  0  0  0  0  0  0  0  0  0  0  0
   -7.8151  -11.9339  -18.2416 C   0  0  2  0  0  0  0  0  0  0  0  0
   -8.7762  -12.9408  -17.7340 N   0  0  0  0  0  0  0  0  0  0  0  0
   -6.0387   -7.8003  -23.1211 C   0  0  1  0  0  0  0  0  0  0  0  0
   -6.5320   -7.9100  -24.5360 N   0  0  0  0  0  0  0  0  0  0  0  0
   -9.5740   -9.9230  -13.3150 C   0  0  0  0  0  0  0  0  0  0  0  0
   -8.2630  -10.4701  -17.7995 C   0  0  2  0  0  0  0  0  0  0  0  0
   -4.7485   -6.8071  -23.0796 C   0  0  1  0  0  0  0  0  0  0  0  0
   -5.0664   -5.5032  -23.5266 O   0  0  0  0  0  0  0  0  0  0  0  0
  -10.0317   -9.0066  -14.1812 C   0  0  2  0  0  0  0  0  0  0  0  0
   -9.2671   -8.5265  -15.3009 O   0  0  0  0  0  0  0  0  0  0  0  0
   -7.2291   -9.4118  -18.3710 C   0  0  2  0  0  0  0  0  0  0  0  0
   -7.6346   -8.0881  -18.0005 O   0  0  0  0  0  0  0  0  0  0  0  0
   -4.2317   -6.6927  -21.6059 C   0  0  0  0  0  0  0  0  0  0  0  0
   -5.3735   -6.2862  -20.6895 O   0  0  0  0  0  0  0  0  0  0  0  0
  -11.4381   -8.3799  -14.0363 C   0  0  0  0  0  0  0  0  0  0  0  0
  -11.3162   -7.0267  -13.5124 N   0  0  0  0  0  0  0  0  0  0  0  0
   -7.1830   -9.5065  -19.9390 C   0  0  1  0  0  0  0  0  0  0  0  0
   -6.2535   -8.5588  -20.4070 O   0  0  0  0  0  0  0  0  0  0  0  0
   -3.5506   -7.2326  -23.9448 C   0  0  0  0  0  0  0  0  0  0  0  0
   -7.0014   -9.2413  -24.9643 C   0  0  0  0  0  0  0  0  0  0  0  0
  1  2  1  1  0  0  0
  1  6  1  0  0  0  0
  1 21  1  0  0  0  0
  3  4  1  6  0  0  0
  3  8  1  0  0  0  0
  3 28  1  0  0  0  0
  5  9  1  0  0  0  0
  5 25  1  0  0  0  0
  5 29  1  6  0  0  0
  6  7  1  6  0  0  0
  6 11  1  0  0  0  0
  8 12  1  0  0  0  0
  9 10  1  1  0  0  0
  9 14  1  0  0  0  0
 11 16  1  0  0  0  0
 12 13  1  6  0  0  0
 12 17  1  0  0  0  0
 14 15  1  6  0  0  0
 14 18  1  0  0  0  0
 15 31  1  0  0  0  0
 16 20  1  0  0  0  0
 17  2  1  1  0  0  0
 17 22  1  0  0  0  0
 18 19  1  6  0  0  0
 18 24  1  0  0  0  0
 18 30  1  0  0  0  0
 20 21  1  0  0  0  0
 20 26  1  1  0  0  0
 22 23  1  6  0  0  0
 22 28  1  0  0  0  0
 24 25  1  0  0  0  0
 26 27  1  0  0  0  0
 28 29  1  1  0  0  0
M  END
>  <CHROM.1>
-144.18944173,-82.38918372,-98.15833370,150.74974226,104.30894486,152.12341447
-7.35847101,-8.92593726,-19.00032035,-3.04438270,-1.19177867,-2.80827659

>  <Name>
ligand

>  <RI>
0

>  <Rbt.Current_Directory>
/home/itssahil/PROJECTS/Mol_Feturizer/New_Systems/rnas/4F8U

>  <Rbt.Executable>
rbdock ($Id: //depot/dev/client3/rdock/2013.1/src/exe/rbdock.cxx#4 $)

>  <Rbt.Library>
libRbt.so (2013.1, Build901 2013/11/27)

>  <Rbt.Parameter_File>
/export/apps/rDock/src/rDock_2013.1_src/data/scripts/dock_solv.prm

>  <Rbt.Receptor>
prm/blind_docking_80.prm

>  <SCORE>
15.7654

>  <SCORE.INTER>
-0.219602

>  <SCORE.INTER.CONST>
1

>  <SCORE.INTER.POLAR>
0

>  <SCORE.INTER.ROT>
6

>  <SCORE.INTER.SOLV>
19.7475

>  <SCORE.INTER.VDW>
-14.3289

>  <SCORE.INTER.norm>
-0.00708394

>  <SCORE.INTRA>
1.1208

>  <SCORE.INTRA.DIHEDRAL>
-2.39218

>  <SCORE.INTRA.DIHEDRAL.0>
18.77

>  <SCORE.INTRA.POLAR>
0

>  <SCORE.INTRA.POLAR.0>
0

>  <SCORE.INTRA.REPUL>
0

>  <SCORE.INTRA.REPUL.0>
0

>  <SCORE.INTRA.SOLV>
0.09096

>  <SCORE.INTRA.SOLV.lig_0>
-77.2465

>  <SCORE.INTRA.VDW>
2.27141

>  <SCORE.INTRA.VDW.0>
-4.16072

>  <SCORE.INTRA.norm>
0.0361549

>  <SCORE.RESTR>
14.8642

>  <SCORE.RESTR.CAVITY>
14.8642

>  <SCORE.RESTR.norm>
0.479491

>  <SCORE.SYSTEM>
0

>  <SCORE.SYSTEM.CONST>
0

>  <SCORE.SYSTEM.DIHEDRAL>
0

>  <SCORE.SYSTEM.SOLV>
0

>  <SCORE.SYSTEM.norm>
0

>  <SCORE.heavy>
31

>  <SCORE.norm>
0.508562

>  <RMSD>
9.414

$$$$
ligand
 OpenBabel11021811493D
libRbt.so/2013.1/901 2013/11/27
 31 33  0  0  0  0  0  0  0  0999 V2000
   -4.5827  -13.1987  -10.0031 C   0  0  2  0  0  0  0  0  0  0  0  0
   -5.6399  -12.5686  -10.7391 O   0  0  0  0  0  0  0  0  0  0  0  0
   -9.5755  -11.0576   -9.9966 C   0  0  2  0  0  0  0  0  0  0  0  0
  -10.6589  -10.3612   -9.3727 N   0  0  0  0  0  0  0  0  0  0  0  0
   -8.2112   -8.0612  -11.9711 C   0  0  2  0  0  0  0  0  0  0  0  0
   -3.6916  -12.0407   -9.4312 C   0  0  2  0  0  0  0  0  0  0  0  0
   -4.5050  -11.1554   -8.6052 N   0  0  0  0  0  0  0  0  0  0  0  0
   -8.9975  -12.1165   -8.9805 C   0  0  0  0  0  0  0  0  0  0  0  0
   -8.6151   -6.7331  -11.2596 C   0  0  2  0  0  0  0  0  0  0  0  0
   -8.3105   -6.8375   -9.8794 O   0  0  0  0  0  0  0  0  0  0  0  0
   -3.0310  -11.2467  -10.6114 C   0  0  0  0  0  0  0  0  0  0  0  0
   -7.7993  -12.8950   -9.6774 C   0  0  2  0  0  0  0  0  0  0  0  0
   -7.2468  -13.8921   -8.7310 N   0  0  0  0  0  0  0  0  0  0  0  0
  -10.1796   -6.5388  -11.4850 C   0  0  1  0  0  0  0  0  0  0  0  0
  -10.6630   -5.2921  -10.7999 N   0  0  0  0  0  0  0  0  0  0  0  0
   -2.4031  -12.2198  -11.6508 C   0  0  0  0  0  0  0  0  0  0  0  0
   -6.6698  -11.8570  -10.1085 C   0  0  2  0  0  0  0  0  0  0  0  0
  -10.4795   -6.4226  -13.0817 C   0  0  1  0  0  0  0  0  0  0  0  0
   -9.8123   -5.3225  -13.6696 O   0  0  0  0  0  0  0  0  0  0  0  0
   -2.7826  -13.5052  -11.7112 C   0  0  2  0  0  0  0  0  0  0  0  0
   -3.7733  -14.0782  -10.8401 O   0  0  0  0  0  0  0  0  0  0  0  0
   -7.2916  -10.7915  -11.1053 C   0  0  2  0  0  0  0  0  0  0  0  0
   -6.2909   -9.8371  -11.4817 O   0  0  0  0  0  0  0  0  0  0  0  0
   -9.9779   -7.7219  -13.7975 C   0  0  0  0  0  0  0  0  0  0  0  0
   -8.5223   -7.9761  -13.4433 O   0  0  0  0  0  0  0  0  0  0  0  0
   -2.1686  -14.4882  -12.7350 C   0  0  0  0  0  0  0  0  0  0  0  0
   -1.4769  -15.5573  -12.0286 N   0  0  0  0  0  0  0  0  0  0  0  0
   -8.4751  -10.0331  -10.4026 C   0  0  1  0  0  0  0  0  0  0  0  0
   -9.0027   -9.1029  -11.3176 O   0  0  0  0  0  0  0  0  0  0  0  0
  -11.9550   -6.2351  -13.4717 C   0  0  0  0  0  0  0  0  0  0  0  0
  -11.2249   -5.4644   -9.4468 C   0  0  0  0  0  0  0  0  0  0  0  0
  1  2  1  6  0  0  0
  1  6  1  0  0  0  0
  1 21  1  0  0  0  0
  3  4  1  1  0  0  0
  3  8  1  0  0  0  0
  3 28  1  0  0  0  0
  5  9  1  0  0  0  0
  5 25  1  0  0  0  0
  5 29  1  1  0  0  0
  6  7  1  6  0  0  0
  6 11  1  0  0  0  0
  8 12  1  0  0  0  0
  9 10  1  1  0  0  0
  9 14  1  0  0  0  0
 11 16  1  0  0  0  0
 12 13  1  1  0  0  0
 12 17  1  0  0  0  0
 14 15  1  1  0  0  0
 14 18  1  0  0  0  0
 15 31  1  0  0  0  0
 16 20  1  0  0  0  0
 17  2  1  6  0  0  0
 17 22  1  0  0  0  0
 18 19  1  6  0  0  0
 18 24  1  0  0  0  0
 18 30  1  0  0  0  0
 20 21  1  0  0  0  0
 20 26  1  1  0  0  0
 22 23  1  1  0  0  0
 22 28  1  0  0  0  0
 24 25  1  0  0  0  0
 26 27  1  0  0  0  0
 28 29  1  6  0  0  0
M  END
>  <CHROM.1>
-70.44597854,-105.70513637,-95.03515432,-85.07496774,117.60526208,-175.56914558
-7.23863479,-10.11008051,-11.04813345,0.64234256,-0.52022919,2.41402102

>  <Name>
ligand

>  <RI>
0

>  <Rbt.Current_Directory>
/home/itssahil/PROJECTS/Mol_Feturizer/New_Systems/rnas/4F8U

>  <Rbt.Executable>
rbdock ($Id: //depot/dev/client3/rdock/2013.1/src/exe/rbdock.cxx#4 $)

>  <Rbt.Library>
libRbt.so (2013.1, Build901 2013/11/27)

>  <Rbt.Parameter_File>
/export/apps/rDock/src/rDock_2013.1_src/data/scripts/dock_solv.prm

>  <Rbt.Receptor>
prm/blind_docking_20.prm

>  <SCORE>
7.91758

>  <SCORE.INTER>
3.40848

>  <SCORE.INTER.CONST>
1

>  <SCORE.INTER.POLAR>
0

>  <SCORE.INTER.ROT>
6

>  <SCORE.INTER.SOLV>
22.064

>  <SCORE.INTER.VDW>
-12.6823

>  <SCORE.INTER.norm>
0.109951

>  <SCORE.INTRA>
-0.846893

>  <SCORE.INTRA.DIHEDRAL>
-6.78322

>  <SCORE.INTRA.DIHEDRAL.0>
18.77

>  <SCORE.INTRA.POLAR>
0

>  <SCORE.INTRA.POLAR.0>
0

>  <SCORE.INTRA.REPUL>
0

>  <SCORE.INTRA.REPUL.0>
0

>  <SCORE.INTRA.SOLV>
0.906914

>  <SCORE.INTRA.SOLV.lig_0>
-77.2465

>  <SCORE.INTRA.VDW>
2.09126

>  <SCORE.INTRA.VDW.0>
-4.16072

>  <SCORE.INTRA.norm>
-0.0273191

>  <SCORE.RESTR>
5.35599

>  <SCORE.RESTR.CAVITY>
5.35599

>  <SCORE.RESTR.norm>
0.172774

>  <SCORE.SYSTEM>
0

>  <SCORE.SYSTEM.CONST>
0

>  <SCORE.SYSTEM.DIHEDRAL>
0

>  <SCORE.SYSTEM.SOLV>
0

>  <SCORE.SYSTEM.norm>
0

>  <SCORE.heavy>
31

>  <SCORE.norm>
0.255406

>  <RMSD>
9.424

$$$$
ligand
 OpenBabel11021811493D
libRbt.so/2013.1/901 2013/11/27
 31 33  0  0  0  0  0  0  0  0999 V2000
   -4.6242  -13.2003  -10.0332 C   0  0  2  0  0  0  0  0  0  0  0  0
   -5.6577  -12.5246  -10.7624 O   0  0  0  0  0  0  0  0  0  0  0  0
   -9.5953  -11.0309   -9.9956 C   0  0  2  0  0  0  0  0  0  0  0  0
  -10.6789  -10.3432   -9.3624 N   0  0  0  0  0  0  0  0  0  0  0  0
   -8.2402   -8.0242  -11.9596 C   0  0  2  0  0  0  0  0  0  0  0  0
   -3.7004  -12.0810   -9.4368 C   0  0  2  0  0  0  0  0  0  0  0  0
   -4.4899  -11.1856   -8.5985 N   0  0  0  0  0  0  0  0  0  0  0  0
   -9.0119  -12.0979   -8.9909 C   0  0  0  0  0  0  0  0  0  0  0  0
   -8.6562   -6.6900  -11.2669 C   0  0  2  0  0  0  0  0  0  0  0  0
   -8.3611   -6.7765   -9.8833 O   0  0  0  0  0  0  0  0  0  0  0  0
   -3.0097  -11.2870  -10.5997 C   0  0  0  0  0  0  0  0  0  0  0  0
   -7.8135  -12.8666   -9.6983 C   0  0  2  0  0  0  0  0  0  0  0  0
   -7.2560  -13.8711   -8.7627 N   0  0  0  0  0  0  0  0  0  0  0  0
  -10.2200   -6.5067  -11.5058 C   0  0  1  0  0  0  0  0  0  0  0  0
  -10.7148   -5.2545  -10.8391 N   0  0  0  0  0  0  0  0  0  0  0  0
   -2.4073  -12.2605  -11.6537 C   0  0  0  0  0  0  0  0  0  0  0  0
   -6.6879  -11.8217  -10.1224 C   0  0  2  0  0  0  0  0  0  0  0  0
  -10.5088   -6.4109  -13.1059 C   0  0  1  0  0  0  0  0  0  0  0  0
   -9.8431   -5.3144  -13.7020 O   0  0  0  0  0  0  0  0  0  0  0  0
   -2.8262  -13.5321  -11.7387 C   0  0  2  0  0  0  0  0  0  0  0  0
   -3.8385  -14.0895  -10.8824 O   0  0  0  0  0  0  0  0  0  0  0  0
   -7.3150  -10.7485  -11.1076 C   0  0  2  0  0  0  0  0  0  0  0  0
   -6.3178   -9.7879  -11.4775 O   0  0  0  0  0  0  0  0  0  0  0  0
   -9.9952   -7.7160  -13.8026 C   0  0  0  0  0  0  0  0  0  0  0  0
   -8.5410   -7.9582  -13.4349 O   0  0  0  0  0  0  0  0  0  0  0  0
   -2.2380  -14.5155  -12.7774 C   0  0  0  0  0  0  0  0  0  0  0  0
   -1.5009  -15.5662  -12.0897 N   0  0  0  0  0  0  0  0  0  0  0  0
   -8.4986   -9.9997  -10.3947 C   0  0  1  0  0  0  0  0  0  0  0  0
   -9.0310   -9.0624  -11.2996 O   0  0  0  0  0  0  0  0  0  0  0  0
  -11.9824   -6.2358  -13.5088 C   0  0  0  0  0  0  0  0  0  0  0  0
  -11.2907   -5.4147   -9.4904 C   0  0  0  0  0  0  0  0  0  0  0  0
  1  2  1  6  0  0  0
  1  6  1  0  0  0  0
  1 21  1  0  0  0  0
  3  4  1  1  0  0  0
  3  8  1  0  0  0  0
  3 28  1  0  0  0  0
  5  9  1  0  0  0  0
  5 25  1  0  0  0  0
  5 29  1  1  0  0  0
  6  7  1  6  0  0  0
  6 11  1  0  0  0  0
  8 12  1  0  0  0  0
  9 10  1  1  0  0  0
  9 14  1  0  0  0  0
 11 16  1  0  0  0  0
 12 13  1  1  0  0  0
 12 17  1  0  0  0  0
 14 15  1  1  0  0  0
 14 18  1  0  0  0  0
 15 31  1  0  0  0  0
 16 20  1  0  0  0  0
 17  2  1  6  0  0  0
 17 22  1  0  0  0  0
 18 19  1  6  0  0  0
 18 24  1  0  0  0  0
 18 30  1  0  0  0  0
 20 21  1  0  0  0  0
 20 26  1  1  0  0  0
 22 23  1  1  0  0  0
 22 28  1  0  0  0  0
 24 25  1  0  0  0  0
 26 27  1  0  0  0  0
 28 29  1  6  0  0  0
M  END
>  <CHROM.1>
-72.14407414,-107.33318254,-95.27511964,-82.72956429,113.54129989,-174.67301657
-7.26596538,-10.09564303,-11.06264158,0.63779632,-0.52920923,2.40477971

>  <Name>
ligand

>  <RI>
0

>  <Rbt.Current_Directory>
/home/itssahil/PROJECTS/Mol_Feturizer/New_Systems/rnas/4F8U

>  <Rbt.Executable>
rbdock ($Id: //depot/dev/client3/rdock/2013.1/src/exe/rbdock.cxx#4 $)

>  <Rbt.Library>
libRbt.so (2013.1, Build901 2013/11/27)

>  <Rbt.Parameter_File>
/export/apps/rDock/src/rDock_2013.1_src/data/scripts/dock_solv.prm

>  <Rbt.Receptor>
prm/blind_docking_20.prm

>  <SCORE>
7.45298

>  <SCORE.INTER>
2.8727

>  <SCORE.INTER.CONST>
1

>  <SCORE.INTER.POLAR>
0

>  <SCORE.INTER.ROT>
6

>  <SCORE.INTER.SOLV>
21.8536

>  <SCORE.INTER.VDW>
-12.9694

>  <SCORE.INTER.norm>
0.0926677

>  <SCORE.INTRA>
-0.865048

>  <SCORE.INTRA.DIHEDRAL>
-6.72815

>  <SCORE.INTRA.DIHEDRAL.0>
18.77

>  <SCORE.INTRA.POLAR>
0

>  <SCORE.INTRA.POLAR.0>
0

>  <SCORE.INTRA.REPUL>
0

>  <SCORE.INTRA.REPUL.0>
0

>  <SCORE.INTRA.SOLV>
0.779494

>  <SCORE.INTRA.SOLV.lig_0>
-77.2465

>  <SCORE.INTRA.VDW>
2.10928

>  <SCORE.INTRA.VDW.0>
-4.16072

>  <SCORE.INTRA.norm>
-0.0279048

>  <SCORE.RESTR>
5.44532

>  <SCORE.RESTR.CAVITY>
5.44532

>  <SCORE.RESTR.norm>
0.175656

>  <SCORE.SYSTEM>
0

>  <SCORE.SYSTEM.CONST>
0

>  <SCORE.SYSTEM.DIHEDRAL>
0

>  <SCORE.SYSTEM.SOLV>
0

>  <SCORE.SYSTEM.norm>
0

>  <SCORE.heavy>
31

>  <SCORE.norm>
0.240419

>  <RMSD>
9.434

$$$$
ligand
 OpenBabel11021811493D
libRbt.so/2013.1/901 2013/11/27
 31 33  0  0  0  0  0  0  0  0999 V2000
   -5.9692  -12.9367  -21.2342 C   0  0  2  0  0  0  0  0  0  0  0  0
   -7.2578  -12.9040  -21.8627 O   0  0  0  0  0  0  0  0  0  0  0  0
   -7.1786   -9.0844  -23.7934 C   0  0  2  0  0  0  0  0  0  0  0  0
   -7.6147   -7.9223  -24.5056 N   0  0  0  0  0  0  0  0  0  0  0  0
   -6.7262   -7.9918  -20.6352 C   0  0  2  0  0  0  0  0  0  0  0  0
   -5.8774  -14.3130  -20.4862 C   0  0  2  0  0  0  0  0  0  0  0  0
   -6.0703  -15.4034  -21.4357 N   0  0  0  0  0  0  0  0  0  0  0  0
   -7.4098  -10.3545  -24.6995 C   0  0  0  0  0  0  0  0  0  0  0  0
   -6.9870   -6.6436  -19.8953 C   0  0  2  0  0  0  0  0  0  0  0  0
   -8.2880   -6.6692  -19.3337 O   0  0  0  0  0  0  0  0  0  0  0  0
   -6.9547  -14.3715  -19.3477 C   0  0  0  0  0  0  0  0  0  0  0  0
   -6.9176  -11.6438  -23.9104 C   0  0  2  0  0  0  0  0  0  0  0  0
   -7.1315  -12.8444  -24.7518 N   0  0  0  0  0  0  0  0  0  0  0  0
   -6.8561   -5.4829  -20.9779 C   0  0  1  0  0  0  0  0  0  0  0  0
   -7.1266   -4.1432  -20.3539 N   0  0  0  0  0  0  0  0  0  0  0  0
   -6.9373  -13.0660  -18.5011 C   0  0  0  0  0  0  0  0  0  0  0  0
   -7.7289  -11.7740  -22.5452 C   0  0  2  0  0  0  0  0  0  0  0  0
   -5.3477   -5.4923  -21.5922 C   0  0  1  0  0  0  0  0  0  0  0  0
   -4.3664   -5.2755  -20.5967 O   0  0  0  0  0  0  0  0  0  0  0  0
   -6.3919  -11.9383  -18.9811 C   0  0  2  0  0  0  0  0  0  0  0  0
   -5.7892  -11.8443  -20.2837 O   0  0  0  0  0  0  0  0  0  0  0  0
   -7.4977  -10.4695  -21.6730 C   0  0  2  0  0  0  0  0  0  0  0  0
   -8.2423  -10.5636  -20.4521 O   0  0  0  0  0  0  0  0  0  0  0  0
   -5.0642   -6.8874  -22.2445 C   0  0  0  0  0  0  0  0  0  0  0  0
   -5.3460   -7.9926  -21.2405 O   0  0  0  0  0  0  0  0  0  0  0  0
   -6.3625  -10.6318  -18.1540 C   0  0  0  0  0  0  0  0  0  0  0  0
   -5.0930  -10.5315  -17.4478 N   0  0  0  0  0  0  0  0  0  0  0  0
   -7.9868   -9.2050  -22.4676 C   0  0  1  0  0  0  0  0  0  0  0  0
   -7.7610   -8.0705  -21.6657 O   0  0  0  0  0  0  0  0  0  0  0  0
   -5.0563   -4.4275  -22.6626 C   0  0  0  0  0  0  0  0  0  0  0  0
   -8.5431   -3.7457  -20.2451 C   0  0  0  0  0  0  0  0  0  0  0  0
  1  2  1  1  0  0  0
  1  6  1  0  0  0  0
  1 21  1  0  0  0  0
  3  4  1  6  0  0  0
  3  8  1  0  0  0  0
  3 28  1  0  0  0  0
  5  9  1  0  0  0  0
  5 25  1  0  0  0  0
  5 29  1  6  0  0  0
  6  7  1  6  0  0  0
  6 11  1  0  0  0  0
  8 12  1  0  0  0  0
  9 10  1  6  0  0  0
  9 14  1  0  0  0  0
 11 16  1  0  0  0  0
 12 13  1  6  0  0  0
 12 17  1  0  0  0  0
 14 15  1  1  0  0  0
 14 18  1  0  0  0  0
 15 31  1  0  0  0  0
 16 20  1  0  0  0  0
 17  2  1  1  0  0  0
 17 22  1  0  0  0  0
 18 19  1  1  0  0  0
 18 24  1  0  0  0  0
 18 30  1  0  0  0  0
 20 21  1  0  0  0  0
 20 26  1  1  0  0  0
 22 23  1  1  0  0  0
 22 28  1  0  0  0  0
 24 25  1  0  0  0  0
 26 27  1  0  0  0  0
 28 29  1  1  0  0  0
M  END
>  <CHROM.1>
175.25475065,-172.42658079,-83.89231851,72.12437971,94.50160922,-92.86232694
-6.70758601,-9.46692712,-21.20292740,-1.66324622,-1.42346870,-0.11290884

>  <Name>
ligand

>  <RI>
0

>  <Rbt.Current_Directory>
/home/itssahil/PROJECTS/Mol_Feturizer/New_Systems/rnas/4F8U

>  <Rbt.Executable>
rbdock ($Id: //depot/dev/client3/rdock/2013.1/src/exe/rbdock.cxx#4 $)

>  <Rbt.Library>
libRbt.so (2013.1, Build901 2013/11/27)

>  <Rbt.Parameter_File>
/export/apps/rDock/src/rDock_2013.1_src/data/scripts/dock_solv.prm

>  <Rbt.Receptor>
prm/blind_docking_60.prm

>  <SCORE>
19.1323

>  <SCORE.INTER>
-0.326066

>  <SCORE.INTER.CONST>
1

>  <SCORE.INTER.POLAR>
0

>  <SCORE.INTER.ROT>
6

>  <SCORE.INTER.SOLV>
18.9317

>  <SCORE.INTER.VDW>
-14.128

>  <SCORE.INTER.norm>
-0.0105183

>  <SCORE.INTRA>
-2.1347

>  <SCORE.INTRA.DIHEDRAL>
-10.7101

>  <SCORE.INTRA.DIHEDRAL.0>
18.77

>  <SCORE.INTRA.POLAR>
0

>  <SCORE.INTRA.POLAR.0>
0

>  <SCORE.INTRA.REPUL>
0.163955

>  <SCORE.INTRA.REPUL.0>
0

>  <SCORE.INTRA.SOLV>
-0.588839

>  <SCORE.INTRA.SOLV.lig_0>
-77.2465

>  <SCORE.INTRA.VDW>
2.69502

>  <SCORE.INTRA.VDW.0>
-4.16072

>  <SCORE.INTRA.norm>
-0.0688612

>  <SCORE.RESTR>
21.5931

>  <SCORE.RESTR.CAVITY>
21.5931

>  <SCORE.RESTR.norm>
0.696551

>  <SCORE.SYSTEM>
0

>  <SCORE.SYSTEM.CONST>
0

>  <SCORE.SYSTEM.DIHEDRAL>
0

>  <SCORE.SYSTEM.SOLV>
0

>  <SCORE.SYSTEM.norm>
0

>  <SCORE.heavy>
31

>  <SCORE.norm>
0.617171

>  <RMSD>
9.436

$$$$
ligand
 OpenBabel11021811493D
libRbt.so/2013.1/901 2013/11/27
 31 33  0  0  0  0  0  0  0  0999 V2000
   -4.5720  -13.1634   -9.9034 C   0  0  2  0  0  0  0  0  0  0  0  0
   -5.6378  -12.6008  -10.6807 O   0  0  0  0  0  0  0  0  0  0  0  0
   -9.6108  -11.1151  -10.1048 C   0  0  2  0  0  0  0  0  0  0  0  0
  -10.7231  -10.4227   -9.5292 N   0  0  0  0  0  0  0  0  0  0  0  0
   -8.1974   -8.1079  -12.0290 C   0  0  2  0  0  0  0  0  0  0  0  0
   -3.7196  -11.9538   -9.3817 C   0  0  2  0  0  0  0  0  0  0  0  0
   -4.5664  -11.0514   -8.6093 N   0  0  0  0  0  0  0  0  0  0  0  0
   -9.0655  -12.1624   -9.0591 C   0  0  0  0  0  0  0  0  0  0  0  0
   -8.5851   -6.8043  -11.2651 C   0  0  2  0  0  0  0  0  0  0  0  0
   -8.2809   -6.9669   -9.8903 O   0  0  0  0  0  0  0  0  0  0  0  0
   -3.0678  -11.2016  -10.5938 C   0  0  0  0  0  0  0  0  0  0  0  0
   -7.8349  -12.9364   -9.7026 C   0  0  2  0  0  0  0  0  0  0  0  0
   -7.3129  -13.9226   -8.7279 N   0  0  0  0  0  0  0  0  0  0  0  0
  -10.1473   -6.5827  -11.4808 C   0  0  1  0  0  0  0  0  0  0  0  0
  -10.6154   -5.3584  -10.7465 N   0  0  0  0  0  0  0  0  0  0  0  0
   -2.4017  -12.2075  -11.5766 C   0  0  0  0  0  0  0  0  0  0  0  0
   -6.6971  -11.8928  -10.0963 C   0  0  2  0  0  0  0  0  0  0  0  0
  -10.4468   -6.3999  -13.0714 C   0  0  1  0  0  0  0  0  0  0  0  0
   -9.7669   -5.2854  -13.6160 O   0  0  0  0  0  0  0  0  0  0  0  0
   -2.7450  -13.5043  -11.5760 C   0  0  2  0  0  0  0  0  0  0  0  0
   -3.7294  -14.0607  -10.6870 O   0  0  0  0  0  0  0  0  0  0  0  0
   -7.2869  -10.8391  -11.1245 C   0  0  2  0  0  0  0  0  0  0  0  0
   -6.2793   -9.8796  -11.4681 O   0  0  0  0  0  0  0  0  0  0  0  0
   -9.9611   -7.6757  -13.8386 C   0  0  0  0  0  0  0  0  0  0  0  0
   -8.5084   -7.9609  -13.4963 O   0  0  0  0  0  0  0  0  0  0  0  0
   -2.0927  -14.5198  -12.5429 C   0  0  0  0  0  0  0  0  0  0  0  0
   -1.3368  -15.5025  -11.7792 N   0  0  0  0  0  0  0  0  0  0  0  0
   -8.5028  -10.0849  -10.4745 C   0  0  1  0  0  0  0  0  0  0  0  0
   -9.0009   -9.1652  -11.4163 O   0  0  0  0  0  0  0  0  0  0  0  0
  -11.9202   -6.1796  -13.4521 C   0  0  0  0  0  0  0  0  0  0  0  0
  -11.2012   -5.5801   -9.4108 C   0  0  0  0  0  0  0  0  0  0  0  0
  1  2  1  6  0  0  0
  1  6  1  0  0  0  0
  1 21  1  0  0  0  0
  3  4  1  1  0  0  0
  3  8  1  0  0  0  0
  3 28  1  0  0  0  0
  5  9  1  0  0  0  0
  5 25  1  0  0  0  0
  5 29  1  1  0  0  0
  6  7  1  6  0  0  0
  6 11  1  0  0  0  0
  8 12  1  0  0  0  0
  9 10  1  1  0  0  0
  9 14  1  0  0  0  0
 11 16  1  0  0  0  0
 12 13  1  1  0  0  0
 12 17  1  0  0  0  0
 14 15  1  1  0  0  0
 14 18  1  0  0  0  0
 15 31  1  0  0  0  0
 16 20  1  0  0  0  0
 17  2  1  6  0  0  0
 17 22  1  0  0  0  0
 18 19  1  6  0  0  0
 18 24  1  0  0  0  0
 18 30  1  0  0  0  0
 20 21  1  0  0  0  0
 20 26  1  1  0  0  0
 22 23  1  1  0  0  0
 22 28  1  0  0  0  0
 24 25  1  0  0  0  0
 26 27  1  0  0  0  0
 28 29  1  6  0  0  0
M  END
>  <CHROM.1>
-70.73752164,-101.51403444,-96.11890092,-88.09839078,115.41179490,-176.63124895
-7.23150962,-10.12597419,-11.03139556,0.66884991,-0.47818236,2.45478651

>  <Name>
ligand

>  <RI>
0

>  <Rbt.Current_Directory>
/home/itssahil/PROJECTS/Mol_Feturizer/New_Systems/rnas/4F8U

>  <Rbt.Executable>
rbdock ($Id: //depot/dev/client3/rdock/2013.1/src/exe/rbdock.cxx#4 $)

>  <Rbt.Library>
libRbt.so (2013.1, Build901 2013/11/27)

>  <Rbt.Parameter_File>
/export/apps/rDock/src/rDock_2013.1_src/data/scripts/dock_solv.prm

>  <Rbt.Receptor>
prm/blind_docking_20.prm

>  <SCORE>
7.81954

>  <SCORE.INTER>
3.35797

>  <SCORE.INTER.CONST>
1

>  <SCORE.INTER.POLAR>
0

>  <SCORE.INTER.ROT>
6

>  <SCORE.INTER.SOLV>
22.496

>  <SCORE.INTER.VDW>
-12.86

>  <SCORE.INTER.norm>
0.108321

>  <SCORE.INTRA>
-1.05986

>  <SCORE.INTRA.DIHEDRAL>
-6.77828

>  <SCORE.INTRA.DIHEDRAL.0>
18.77

>  <SCORE.INTRA.POLAR>
0

>  <SCORE.INTRA.POLAR.0>
0

>  <SCORE.INTRA.REPUL>
0

>  <SCORE.INTRA.REPUL.0>
0

>  <SCORE.INTRA.SOLV>
0.858805

>  <SCORE.INTRA.SOLV.lig_0>
-77.2465

>  <SCORE.INTRA.VDW>
1.89987

>  <SCORE.INTRA.VDW.0>
-4.16072

>  <SCORE.INTRA.norm>
-0.0341892

>  <SCORE.RESTR>
5.52143

>  <SCORE.RESTR.CAVITY>
5.52143

>  <SCORE.RESTR.norm>
0.178111

>  <SCORE.SYSTEM>
0

>  <SCORE.SYSTEM.CONST>
0

>  <SCORE.SYSTEM.DIHEDRAL>
0

>  <SCORE.SYSTEM.SOLV>
0

>  <SCORE.SYSTEM.norm>
0

>  <SCORE.heavy>
31

>  <SCORE.norm>
0.252243

>  <RMSD>
9.439

$$$$
ligand
 OpenBabel11021811493D
libRbt.so/2013.1/901 2013/11/27
 31 33  0  0  0  0  0  0  0  0999 V2000
   -4.7024  -13.2348  -10.0709 C   0  0  2  0  0  0  0  0  0  0  0  0
   -5.7269  -12.5143  -10.7692 O   0  0  0  0  0  0  0  0  0  0  0  0
   -9.6014  -10.9222   -9.8876 C   0  0  2  0  0  0  0  0  0  0  0  0
  -10.6486  -10.2091   -9.2221 N   0  0  0  0  0  0  0  0  0  0  0  0
   -8.2250   -7.9400  -11.8746 C   0  0  2  0  0  0  0  0  0  0  0  0
   -3.7317  -12.1558   -9.4747 C   0  0  2  0  0  0  0  0  0  0  0  0
   -4.4760  -11.2496   -8.6072 N   0  0  0  0  0  0  0  0  0  0  0  0
   -9.0181  -12.0077   -8.9031 C   0  0  0  0  0  0  0  0  0  0  0  0
   -8.6590   -6.5897  -11.2255 C   0  0  2  0  0  0  0  0  0  0  0  0
   -8.3880   -6.6376   -9.8351 O   0  0  0  0  0  0  0  0  0  0  0  0
   -3.0376  -11.3653  -10.6379 C   0  0  0  0  0  0  0  0  0  0  0  0
   -7.8603  -12.8045   -9.6461 C   0  0  2  0  0  0  0  0  0  0  0  0
   -7.3032  -13.8267   -8.7297 N   0  0  0  0  0  0  0  0  0  0  0  0
  -10.2192   -6.4205  -11.4966 C   0  0  1  0  0  0  0  0  0  0  0  0
  -10.7312   -5.1533  -10.8727 N   0  0  0  0  0  0  0  0  0  0  0  0
   -2.4869  -12.3401  -11.7187 C   0  0  0  0  0  0  0  0  0  0  0  0
   -6.7202  -11.7874  -10.0984 C   0  0  2  0  0  0  0  0  0  0  0  0
  -10.4801   -6.3692  -13.1036 C   0  0  1  0  0  0  0  0  0  0  0  0
   -9.8088   -5.2858  -13.7172 O   0  0  0  0  0  0  0  0  0  0  0  0
   -2.9484  -13.5960  -11.8159 C   0  0  2  0  0  0  0  0  0  0  0  0
   -3.9620  -14.1347  -10.9492 O   0  0  0  0  0  0  0  0  0  0  0  0
   -7.3465  -10.6946  -11.0623 C   0  0  2  0  0  0  0  0  0  0  0  0
   -6.3354   -9.7587  -11.4570 O   0  0  0  0  0  0  0  0  0  0  0  0
   -9.9486   -7.6899  -13.7557 C   0  0  0  0  0  0  0  0  0  0  0  0
   -8.5000   -7.9151  -13.3562 O   0  0  0  0  0  0  0  0  0  0  0  0
   -2.4119  -14.5803  -12.8813 C   0  0  0  0  0  0  0  0  0  0  0  0
   -1.5403  -15.5581  -12.2453 N   0  0  0  0  0  0  0  0  0  0  0  0
   -8.4898   -9.9182  -10.3141 C   0  0  1  0  0  0  0  0  0  0  0  0
   -9.0228   -8.9639  -11.2008 O   0  0  0  0  0  0  0  0  0  0  0  0
  -11.9471   -6.2121  -13.5368 C   0  0  0  0  0  0  0  0  0  0  0  0
  -11.3091   -5.2761   -9.5210 C   0  0  0  0  0  0  0  0  0  0  0  0
  1  2  1  6  0  0  0
  1  6  1  0  0  0  0
  1 21  1  0  0  0  0
  3  4  1  1  0  0  0
  3  8  1  0  0  0  0
  3 28  1  0  0  0  0
  5  9  1  0  0  0  0
  5 25  1  0  0  0  0
  5 29  1  1  0  0  0
  6  7  1  1  0  0  0
  6 11  1  0  0  0  0
  8 12  1  0  0  0  0
  9 10  1  1  0  0  0
  9 14  1  0  0  0  0
 11 16  1  0  0  0  0
 12 13  1  1  0  0  0
 12 17  1  0  0  0  0
 14 15  1  1  0  0  0
 14 18  1  0  0  0  0
 15 31  1  0  0  0  0
 16 20  1  0  0  0  0
 17  2  1  6  0  0  0
 17 22  1  0  0  0  0
 18 19  1  6  0  0  0
 18 24  1  0  0  0  0
 18 30  1  0  0  0  0
 20 21  1  0  0  0  0
 20 26  1  1  0  0  0
 22 23  1  1  0  0  0
 22 28  1  0  0  0  0
 24 25  1  0  0  0  0
 26 27  1  0  0  0  0
 28 29  1  6  0  0  0
M  END
>  <CHROM.1>
-72.02809044,-110.75094555,-94.26188507,-81.83072967,105.57470697,-174.97659756
-7.28953154,-10.06102885,-11.05323824,0.62594984,-0.56779064,2.37883524

>  <Name>
ligand

>  <RI>
0

>  <Rbt.Current_Directory>
/home/itssahil/PROJECTS/Mol_Feturizer/New_Systems/rnas/4F8U

>  <Rbt.Executable>
rbdock ($Id: //depot/dev/client3/rdock/2013.1/src/exe/rbdock.cxx#4 $)

>  <Rbt.Library>
libRbt.so (2013.1, Build901 2013/11/27)

>  <Rbt.Parameter_File>
/export/apps/rDock/src/rDock_2013.1_src/data/scripts/dock_solv.prm

>  <Rbt.Receptor>
prm/blind_docking_20.prm

>  <SCORE>
9.00539

>  <SCORE.INTER>
4.56845

>  <SCORE.INTER.CONST>
1

>  <SCORE.INTER.POLAR>
0

>  <SCORE.INTER.ROT>
6

>  <SCORE.INTER.SOLV>
21.8901

>  <SCORE.INTER.VDW>
-11.8511

>  <SCORE.INTER.norm>
0.147369

>  <SCORE.INTRA>
-0.698305

>  <SCORE.INTRA.DIHEDRAL>
-6.3866

>  <SCORE.INTRA.DIHEDRAL.0>
18.77

>  <SCORE.INTRA.POLAR>
0

>  <SCORE.INTRA.POLAR.0>
0

>  <SCORE.INTRA.REPUL>
0

>  <SCORE.INTRA.REPUL.0>
0

>  <SCORE.INTRA.SOLV>
0.735486

>  <SCORE.INTRA.SOLV.lig_0>
-77.2465

>  <SCORE.INTRA.VDW>
2.12725

>  <SCORE.INTRA.VDW.0>
-4.16072

>  <SCORE.INTRA.norm>
-0.022526

>  <SCORE.RESTR>
5.13525

>  <SCORE.RESTR.CAVITY>
5.13525

>  <SCORE.RESTR.norm>
0.165653

>  <SCORE.SYSTEM>
0

>  <SCORE.SYSTEM.CONST>
0

>  <SCORE.SYSTEM.DIHEDRAL>
0

>  <SCORE.SYSTEM.SOLV>
0

>  <SCORE.SYSTEM.norm>
0

>  <SCORE.heavy>
31

>  <SCORE.norm>
0.290496

>  <RMSD>
9.440

$$$$
ligand
 OpenBabel11021811493D
libRbt.so/2013.1/901 2013/11/27
 31 33  0  0  0  0  0  0  0  0999 V2000
   -4.7463  -13.2467  -10.1612 C   0  0  2  0  0  0  0  0  0  0  0  0
   -5.7369  -12.4430  -10.8163 O   0  0  0  0  0  0  0  0  0  0  0  0
   -9.5803  -10.8576   -9.7973 C   0  0  2  0  0  0  0  0  0  0  0  0
  -10.6063  -10.1540   -9.0899 N   0  0  0  0  0  0  0  0  0  0  0  0
   -8.2454   -7.8796  -11.8139 C   0  0  2  0  0  0  0  0  0  0  0  0
   -3.7254  -12.2474   -9.5122 C   0  0  2  0  0  0  0  0  0  0  0  0
   -4.4253  -11.3549   -8.5949 N   0  0  0  0  0  0  0  0  0  0  0  0
   -8.9726  -11.9620   -8.8492 C   0  0  0  0  0  0  0  0  0  0  0  0
   -8.6899   -6.5040  -11.2278 C   0  0  2  0  0  0  0  0  0  0  0  0
   -8.4161   -6.4844   -9.8373 O   0  0  0  0  0  0  0  0  0  0  0  0
   -2.9965  -11.4293  -10.6344 C   0  0  0  0  0  0  0  0  0  0  0  0
   -7.8386  -12.7481   -9.6388 C   0  0  2  0  0  0  0  0  0  0  0  0
   -7.2588  -13.7879   -8.7568 N   0  0  0  0  0  0  0  0  0  0  0  0
  -10.2519   -6.3609  -11.5033 C   0  0  1  0  0  0  0  0  0  0  0  0
  -10.7737   -5.0702  -10.9384 N   0  0  0  0  0  0  0  0  0  0  0  0
   -2.4936  -12.3698  -11.7675 C   0  0  0  0  0  0  0  0  0  0  0  0
   -6.7087  -11.7258  -10.1049 C   0  0  2  0  0  0  0  0  0  0  0  0
  -10.5161   -6.3872  -13.1103 C   0  0  1  0  0  0  0  0  0  0  0  0
   -9.8551   -5.3282  -13.7755 O   0  0  0  0  0  0  0  0  0  0  0  0
   -3.0134  -13.5959  -11.9296 C   0  0  2  0  0  0  0  0  0  0  0  0
   -4.0500  -14.1321  -11.0889 O   0  0  0  0  0  0  0  0  0  0  0  0
   -7.3588  -10.6143  -11.0309 C   0  0  2  0  0  0  0  0  0  0  0  0
   -6.3565   -9.6740  -11.4373 O   0  0  0  0  0  0  0  0  0  0  0  0
   -9.9744   -7.7326  -13.7010 C   0  0  0  0  0  0  0  0  0  0  0  0
   -8.5232   -7.9265  -13.2945 O   0  0  0  0  0  0  0  0  0  0  0  0
   -2.5251  -14.5461  -13.0478 C   0  0  0  0  0  0  0  0  0  0  0  0
   -1.8959  -15.7162  -12.4516 N   0  0  0  0  0  0  0  0  0  0  0  0
   -8.4783   -9.8488  -10.2371 C   0  0  1  0  0  0  0  0  0  0  0  0
   -9.0333   -8.8774  -11.0911 O   0  0  0  0  0  0  0  0  0  0  0  0
  -11.9851   -6.2631  -13.5473 C   0  0  0  0  0  0  0  0  0  0  0  0
  -11.5693   -5.1717   -9.7002 C   0  0  0  0  0  0  0  0  0  0  0  0
  1  2  1  6  0  0  0
  1  6  1  0  0  0  0
  1 21  1  0  0  0  0
  3  4  1  1  0  0  0
  3  8  1  0  0  0  0
  3 28  1  0  0  0  0
  5  9  1  0  0  0  0
  5 25  1  0  0  0  0
  5 29  1  1  0  0  0
  6  7  1  1  0  0  0
  6 11  1  0  0  0  0
  8 12  1  0  0  0  0
  9 10  1  1  0  0  0
  9 14  1  0  0  0  0
 11 16  1  0  0  0  0
 12 13  1  1  0  0  0
 12 17  1  0  0  0  0
 14 15  1  6  0  0  0
 14 18  1  0  0  0  0
 15 31  1  0  0  0  0
 16 20  1  0  0  0  0
 17  2  1  6  0  0  0
 17 22  1  0  0  0  0
 18 19  1  6  0  0  0
 18 24  1  0  0  0  0
 18 30  1  0  0  0  0
 20 21  1  0  0  0  0
 20 26  1  1  0  0  0
 22 23  1  1  0  0  0
 22 28  1  0  0  0  0
 24 25  1  0  0  0  0
 26 27  1  0  0  0  0
 28 29  1  6  0  0  0
M  END
>  <CHROM.1>
-73.16957669,-115.64284529,-105.28373288,-77.79915387,115.23060874,-172.23514895
-7.32328737,-10.03873310,-11.06997712,0.60271839,-0.60160450,2.34296195

>  <Name>
ligand

>  <RI>
0

>  <Rbt.Current_Directory>
/home/itssahil/PROJECTS/Mol_Feturizer/New_Systems/rnas/4F8U

>  <Rbt.Executable>
rbdock ($Id: //depot/dev/client3/rdock/2013.1/src/exe/rbdock.cxx#4 $)

>  <Rbt.Library>
libRbt.so (2013.1, Build901 2013/11/27)

>  <Rbt.Parameter_File>
/export/apps/rDock/src/rDock_2013.1_src/data/scripts/dock_solv.prm

>  <Rbt.Receptor>
prm/blind_docking_20.prm

>  <SCORE>
9.21155

>  <SCORE.INTER>
4.55106

>  <SCORE.INTER.CONST>
1

>  <SCORE.INTER.POLAR>
0

>  <SCORE.INTER.ROT>
6

>  <SCORE.INTER.SOLV>
21.2169

>  <SCORE.INTER.VDW>
-11.6383

>  <SCORE.INTER.norm>
0.146808

>  <SCORE.INTRA>
-0.532347

>  <SCORE.INTRA.DIHEDRAL>
-6.35193

>  <SCORE.INTRA.DIHEDRAL.0>
18.77

>  <SCORE.INTRA.POLAR>
0

>  <SCORE.INTRA.POLAR.0>
0

>  <SCORE.INTRA.REPUL>
0

>  <SCORE.INTRA.REPUL.0>
0

>  <SCORE.INTRA.SOLV>
0.746691

>  <SCORE.INTRA.SOLV.lig_0>
-77.2465

>  <SCORE.INTRA.VDW>
2.27028

>  <SCORE.INTRA.VDW.0>
-4.16072

>  <SCORE.INTRA.norm>
-0.0171725

>  <SCORE.RESTR>
5.19284

>  <SCORE.RESTR.CAVITY>
5.19284

>  <SCORE.RESTR.norm>
0.167511

>  <SCORE.SYSTEM>
0

>  <SCORE.SYSTEM.CONST>
0

>  <SCORE.SYSTEM.DIHEDRAL>
0

>  <SCORE.SYSTEM.SOLV>
0

>  <SCORE.SYSTEM.norm>
0

>  <SCORE.heavy>
31

>  <SCORE.norm>
0.297147

>  <RMSD>
9.440

$$$$
ligand
 OpenBabel11021811493D
libRbt.so/2013.1/901 2013/11/27
 31 33  0  0  0  0  0  0  0  0999 V2000
   -4.6797  -13.0926  -10.0986 C   0  0  2  0  0  0  0  0  0  0  0  0
   -5.5651  -12.1595  -10.7325 O   0  0  0  0  0  0  0  0  0  0  0  0
   -9.5886  -10.9320   -9.9396 C   0  0  2  0  0  0  0  0  0  0  0  0
  -10.7202  -10.3635   -9.2731 N   0  0  0  0  0  0  0  0  0  0  0  0
   -8.2902   -7.8302  -11.7491 C   0  0  2  0  0  0  0  0  0  0  0  0
   -3.2229  -12.5931  -10.3990 C   0  0  2  0  0  0  0  0  0  0  0  0
   -3.0572  -11.2313   -9.9033 N   0  0  0  0  0  0  0  0  0  0  0  0
   -8.9818  -12.0710   -9.0327 C   0  0  0  0  0  0  0  0  0  0  0  0
   -8.7527   -6.4432  -11.2055 C   0  0  2  0  0  0  0  0  0  0  0  0
   -8.5030   -6.3870   -9.8115 O   0  0  0  0  0  0  0  0  0  0  0  0
   -2.9462  -12.6595  -11.9414 C   0  0  0  0  0  0  0  0  0  0  0  0
   -7.7297  -12.7071   -9.7776 C   0  0  2  0  0  0  0  0  0  0  0  0
   -7.1499  -13.7780   -8.9337 N   0  0  0  0  0  0  0  0  0  0  0  0
  -10.3106   -6.3169  -11.5111 C   0  0  1  0  0  0  0  0  0  0  0  0
  -10.8495   -5.0157  -10.9878 N   0  0  0  0  0  0  0  0  0  0  0  0
   -3.3942  -14.0303  -12.5260 C   0  0  0  0  0  0  0  0  0  0  0  0
   -6.6443  -11.5742  -10.0560 C   0  0  2  0  0  0  0  0  0  0  0  0
  -10.5469   -6.3851  -13.1212 C   0  0  1  0  0  0  0  0  0  0  0  0
   -9.8808   -5.3390  -13.8014 O   0  0  0  0  0  0  0  0  0  0  0  0
   -4.2703  -14.8075  -11.8716 C   0  0  2  0  0  0  0  0  0  0  0  0
   -4.8513  -14.4502  -10.6053 O   0  0  0  0  0  0  0  0  0  0  0  0
   -7.2956  -10.4330  -10.9443 C   0  0  2  0  0  0  0  0  0  0  0  0
   -6.3359   -9.3953  -11.1815 O   0  0  0  0  0  0  0  0  0  0  0  0
   -9.9873   -7.7414  -13.6684 C   0  0  0  0  0  0  0  0  0  0  0  0
   -8.5422   -7.9160  -13.2325 O   0  0  0  0  0  0  0  0  0  0  0  0
   -4.7256  -16.1739  -12.4348 C   0  0  0  0  0  0  0  0  0  0  0  0
   -6.1393  -16.3720  -12.1474 N   0  0  0  0  0  0  0  0  0  0  0  0
   -8.5322   -9.8167  -10.1954 C   0  0  1  0  0  0  0  0  0  0  0  0
   -9.0845   -8.8146  -11.0149 O   0  0  0  0  0  0  0  0  0  0  0  0
  -12.0089   -6.2812  -13.5861 C   0  0  0  0  0  0  0  0  0  0  0  0
  -11.9198   -5.1096   -9.9768 C   0  0  0  0  0  0  0  0  0  0  0  0
  1  2  1  6  0  0  0
  1  6  1  0  0  0  0
  1 21  1  0  0  0  0
  3  4  1  1  0  0  0
  3  8  1  0  0  0  0
  3 28  1  0  0  0  0
  5  9  1  0  0  0  0
  5 25  1  0  0  0  0
  5 29  1  1  0  0  0
  6  7  1  6  0  0  0
  6 11  1  0  0  0  0
  8 12  1  0  0  0  0
  9 10  1  1  0  0  0
  9 14  1  0  0  0  0
 11 16  1  0  0  0  0
 12 13  1  1  0  0  0
 12 17  1  0  0  0  0
 14 15  1  6  0  0  0
 14 18  1  0  0  0  0
 15 31  1  0  0  0  0
 16 20  1  0  0  0  0
 17  2  1  6  0  0  0
 17 22  1  0  0  0  0
 18 19  1  6  0  0  0
 18 24  1  0  0  0  0
 18 30  1  0  0  0  0
 20 21  1  0  0  0  0
 20 26  1  1  0  0  0
 22 23  1  1  0  0  0
 22 28  1  0  0  0  0
 24 25  1  0  0  0  0
 26 27  1  0  0  0  0
 28 29  1  6  0  0  0
M  END
>  <CHROM.1>
-130.22682995,-119.98023515,-119.78960839,-69.16669350,-142.19838958,-162.29814562
-7.57937444,-10.22004536,-11.16615734,0.82629114,-0.50348919,2.62576727

>  <Name>
ligand

>  <RI>
0

>  <Rbt.Current_Directory>
/home/itssahil/PROJECTS/Mol_Feturizer/New_Systems/rnas/4F8U

>  <Rbt.Executable>
rbdock ($Id: //depot/dev/client3/rdock/2013.1/src/exe/rbdock.cxx#4 $)

>  <Rbt.Library>
libRbt.so (2013.1, Build901 2013/11/27)

>  <Rbt.Parameter_File>
/export/apps/rDock/src/rDock_2013.1_src/data/scripts/dock_solv.prm

>  <Rbt.Receptor>
prm/blind_docking_20.prm

>  <SCORE>
16.2488

>  <SCORE.INTER>
6.04033

>  <SCORE.INTER.CONST>
1

>  <SCORE.INTER.POLAR>
0

>  <SCORE.INTER.ROT>
6

>  <SCORE.INTER.SOLV>
17.5184

>  <SCORE.INTER.VDW>
-9.41257

>  <SCORE.INTER.norm>
0.19485

>  <SCORE.INTRA>
2.70641

>  <SCORE.INTRA.DIHEDRAL>
0.432518

>  <SCORE.INTRA.DIHEDRAL.0>
18.77

>  <SCORE.INTRA.POLAR>
0

>  <SCORE.INTRA.POLAR.0>
0

>  <SCORE.INTRA.REPUL>
0

>  <SCORE.INTRA.REPUL.0>
0

>  <SCORE.INTRA.SOLV>
-0.518534

>  <SCORE.INTRA.SOLV.lig_0>
-77.2465

>  <SCORE.INTRA.VDW>
2.74942

>  <SCORE.INTRA.VDW.0>
-4.16072

>  <SCORE.INTRA.norm>
0.0873036

>  <SCORE.RESTR>
7.50207

>  <SCORE.RESTR.CAVITY>
7.50207

>  <SCORE.RESTR.norm>
0.242002

>  <SCORE.SYSTEM>
0

>  <SCORE.SYSTEM.CONST>
0

>  <SCORE.SYSTEM.DIHEDRAL>
0

>  <SCORE.SYSTEM.SOLV>
0

>  <SCORE.SYSTEM.norm>
0

>  <SCORE.heavy>
31

>  <SCORE.norm>
0.524156

>  <RMSD>
9.441

$$$$
ligand
 OpenBabel11021811493D
libRbt.so/2013.1/901 2013/11/27
 31 33  0  0  0  0  0  0  0  0999 V2000
   -4.7004  -13.2179  -10.0496 C   0  0  2  0  0  0  0  0  0  0  0  0
   -5.7286  -12.5008  -10.7460 O   0  0  0  0  0  0  0  0  0  0  0  0
   -9.6059  -10.9209   -9.8547 C   0  0  2  0  0  0  0  0  0  0  0  0
  -10.6534  -10.2102   -9.1873 N   0  0  0  0  0  0  0  0  0  0  0  0
   -8.2452   -7.9472  -11.8641 C   0  0  2  0  0  0  0  0  0  0  0  0
   -3.7337  -12.1356   -9.4528 C   0  0  2  0  0  0  0  0  0  0  0  0
   -4.4810  -11.2336   -8.5834 N   0  0  0  0  0  0  0  0  0  0  0  0
   -9.0152  -12.0021   -8.8698 C   0  0  0  0  0  0  0  0  0  0  0  0
   -8.6809   -6.5890  -11.2326 C   0  0  2  0  0  0  0  0  0  0  0  0
   -8.4066   -6.6171   -9.8424 O   0  0  0  0  0  0  0  0  0  0  0  0
   -3.0440  -11.3406  -10.6156 C   0  0  0  0  0  0  0  0  0  0  0  0
   -7.8571  -12.7962   -9.6150 C   0  0  2  0  0  0  0  0  0  0  0  0
   -7.2930  -13.8143   -8.6981 N   0  0  0  0  0  0  0  0  0  0  0  0
  -10.2420   -6.4272  -11.5025 C   0  0  1  0  0  0  0  0  0  0  0  0
  -10.7556   -5.1527  -10.8949 N   0  0  0  0  0  0  0  0  0  0  0  0
   -2.4902  -12.3116  -11.6981 C   0  0  0  0  0  0  0  0  0  0  0  0
   -6.7222  -11.7760  -10.0735 C   0  0  2  0  0  0  0  0  0  0  0  0
  -10.5068   -6.3987  -13.1094 C   0  0  1  0  0  0  0  0  0  0  0  0
   -9.8394   -5.3224  -13.7395 O   0  0  0  0  0  0  0  0  0  0  0  0
   -2.9465  -13.5694  -11.7966 C   0  0  2  0  0  0  0  0  0  0  0  0
   -3.9570  -14.1134  -10.9297 O   0  0  0  0  0  0  0  0  0  0  0  0
   -7.3559  -10.6877  -11.0376 C   0  0  2  0  0  0  0  0  0  0  0  0
   -6.3496   -9.7490  -11.4379 O   0  0  0  0  0  0  0  0  0  0  0  0
   -9.9737   -7.7272  -13.7444 C   0  0  0  0  0  0  0  0  0  0  0  0
   -8.5236   -7.9435  -13.3452 O   0  0  0  0  0  0  0  0  0  0  0  0
   -2.4069  -14.5501  -12.8637 C   0  0  0  0  0  0  0  0  0  0  0  0
   -1.5141  -15.5123  -12.2332 N   0  0  0  0  0  0  0  0  0  0  0  0
   -8.4995   -9.9138  -10.2873 C   0  0  1  0  0  0  0  0  0  0  0  0
   -9.0391   -8.9635  -11.1743 O   0  0  0  0  0  0  0  0  0  0  0  0
  -11.9752   -6.2511  -13.5413 C   0  0  0  0  0  0  0  0  0  0  0  0
  -11.3618   -5.2641   -9.5547 C   0  0  0  0  0  0  0  0  0  0  0  0
  1  2  1  6  0  0  0
  1  6  1  0  0  0  0
  1 21  1  0  0  0  0
  3  4  1  1  0  0  0
  3  8  1  0  0  0  0
  3 28  1  0  0  0  0
  5  9  1  0  0  0  0
  5 25  1  0  0  0  0
  5 29  1  1  0  0  0
  6  7  1  1  0  0  0
  6 11  1  0  0  0  0
  8 12  1  0  0  0  0
  9 10  1  1  0  0  0
  9 14  1  0  0  0  0
 11 16  1  0  0  0  0
 12 13  1  1  0  0  0
 12 17  1  0  0  0  0
 14 15  1  1  0  0  0
 14 18  1  0  0  0  0
 15 31  1  0  0  0  0
 16 20  1  0  0  0  0
 17  2  1  6  0  0  0
 17 22  1  0  0  0  0
 18 19  1  6  0  0  0
 18 24  1  0  0  0  0
 18 30  1  0  0  0  0
 20 21  1  0  0  0  0
 20 26  1  1  0  0  0
 22 23  1  1  0  0  0
 22 28  1  0  0  0  0
 24 25  1  0  0  0  0
 26 27  1  0  0  0  0
 28 29  1  6  0  0  0
M  END
>  <CHROM.1>
-71.85548818,-111.49720731,-95.79448121,-81.71815143,104.69683938,-174.30046253
-7.30003905,-10.05626971,-11.04025804,0.62012170,-0.56617811,2.36983364

>  <Name>
ligand

>  <RI>
0

>  <Rbt.Current_Directory>
/home/itssahil/PROJECTS/Mol_Feturizer/New_Systems/rnas/4F8U

>  <Rbt.Executable>
rbdock ($Id: //depot/dev/client3/rdock/2013.1/src/exe/rbdock.cxx#4 $)

>  <Rbt.Library>
libRbt.so (2013.1, Build901 2013/11/27)

>  <Rbt.Parameter_File>
/export/apps/rDock/src/rDock_2013.1_src/data/scripts/dock_solv.prm

>  <Rbt.Receptor>
prm/blind_docking_20.prm

>  <SCORE>
9.46431

>  <SCORE.INTER>
5.04939

>  <SCORE.INTER.CONST>
1

>  <SCORE.INTER.POLAR>
0

>  <SCORE.INTER.ROT>
6

>  <SCORE.INTER.SOLV>
21.9835

>  <SCORE.INTER.VDW>
-11.5616

>  <SCORE.INTER.norm>
0.162884

>  <SCORE.INTRA>
-0.602604

>  <SCORE.INTRA.DIHEDRAL>
-6.24911

>  <SCORE.INTRA.DIHEDRAL.0>
18.77

>  <SCORE.INTRA.POLAR>
0

>  <SCORE.INTRA.POLAR.0>
0

>  <SCORE.INTRA.REPUL>
0

>  <SCORE.INTRA.REPUL.0>
0

>  <SCORE.INTRA.SOLV>
0.713712

>  <SCORE.INTRA.SOLV.lig_0>
-77.2465

>  <SCORE.INTRA.VDW>
2.1651

>  <SCORE.INTRA.VDW.0>
-4.16072

>  <SCORE.INTRA.norm>
-0.0194389

>  <SCORE.RESTR>
5.01753

>  <SCORE.RESTR.CAVITY>
5.01753

>  <SCORE.RESTR.norm>
0.161856

>  <SCORE.SYSTEM>
0

>  <SCORE.SYSTEM.CONST>
0

>  <SCORE.SYSTEM.DIHEDRAL>
0

>  <SCORE.SYSTEM.SOLV>
0

>  <SCORE.SYSTEM.norm>
0

>  <SCORE.heavy>
31

>  <SCORE.norm>
0.3053

>  <RMSD>
9.453

$$$$
ligand
 OpenBabel11021811493D
libRbt.so/2013.1/901 2013/11/27
 31 33  0  0  0  0  0  0  0  0999 V2000
   -7.3806  -10.8985  -16.8153 C   0  0  2  0  0  0  0  0  0  0  0  0
   -6.8472  -11.1182  -18.1283 O   0  0  0  0  0  0  0  0  0  0  0  0
   -7.1526   -9.3406  -22.0104 C   0  0  2  0  0  0  0  0  0  0  0  0
   -7.7220   -8.8036  -23.2084 N   0  0  0  0  0  0  0  0  0  0  0  0
   -6.0922   -6.5787  -20.2019 C   0  0  2  0  0  0  0  0  0  0  0  0
   -6.4944  -11.7410  -15.8320 C   0  0  2  0  0  0  0  0  0  0  0  0
   -5.0999  -11.3300  -15.9509 N   0  0  0  0  0  0  0  0  0  0  0  0
   -7.6067  -10.8435  -21.8590 C   0  0  0  0  0  0  0  0  0  0  0  0
   -5.9167   -5.1469  -20.7955 C   0  0  2  0  0  0  0  0  0  0  0  0
   -7.1145   -4.4153  -20.5985 O   0  0  0  0  0  0  0  0  0  0  0  0
   -6.6519  -13.2684  -16.1513 C   0  0  0  0  0  0  0  0  0  0  0  0
   -6.9670  -11.4413  -20.5320 C   0  0  2  0  0  0  0  0  0  0  0  0
   -7.3884  -12.8534  -20.3783 N   0  0  0  0  0  0  0  0  0  0  0  0
   -5.6026   -5.3192  -22.3473 C   0  0  1  0  0  0  0  0  0  0  0  0
   -5.4507   -3.9790  -23.0092 N   0  0  0  0  0  0  0  0  0  0  0  0
   -8.1525  -13.6499  -16.3072 C   0  0  0  0  0  0  0  0  0  0  0  0
   -7.4444  -10.5824  -19.2777 C   0  0  2  0  0  0  0  0  0  0  0  0
   -4.2202   -6.1624  -22.5226 C   0  0  1  0  0  0  0  0  0  0  0  0
   -3.1186   -5.5087  -21.9227 O   0  0  0  0  0  0  0  0  0  0  0  0
   -9.0801  -12.7151  -16.5630 C   0  0  2  0  0  0  0  0  0  0  0  0
   -8.7743  -11.3171  -16.7070 O   0  0  0  0  0  0  0  0  0  0  0  0
   -6.9975   -9.0736  -19.4764 C   0  0  2  0  0  0  0  0  0  0  0  0
   -7.4426   -8.2851  -18.3654 O   0  0  0  0  0  0  0  0  0  0  0  0
   -4.3770   -7.5604  -21.8347 C   0  0  0  0  0  0  0  0  0  0  0  0
   -4.8297   -7.3787  -20.3957 O   0  0  0  0  0  0  0  0  0  0  0  0
  -10.5763  -13.0739  -16.7186 C   0  0  0  0  0  0  0  0  0  0  0  0
  -11.3549  -12.3585  -15.7175 N   0  0  0  0  0  0  0  0  0  0  0  0
   -7.6358   -8.4988  -20.7924 C   0  0  1  0  0  0  0  0  0  0  0  0
   -7.2131   -7.1641  -20.9365 O   0  0  0  0  0  0  0  0  0  0  0  0
   -3.7756   -6.4213  -23.9717 C   0  0  0  0  0  0  0  0  0  0  0  0
   -6.6886   -3.3524  -23.5106 C   0  0  0  0  0  0  0  0  0  0  0  0
  1  2  1  6  0  0  0
  1  6  1  0  0  0  0
  1 21  1  0  0  0  0
  3  4  1  6  0  0  0
  3  8  1  0  0  0  0
  3 28  1  0  0  0  0
  5  9  1  0  0  0  0
  5 25  1  0  0  0  0
  5 29  1  6  0  0  0
  6  7  1  6  0  0  0
  6 11  1  0  0  0  0
  8 12  1  0  0  0  0
  9 10  1  6  0  0  0
  9 14  1  0  0  0  0
 11 16  1  0  0  0  0
 12 13  1  1  0  0  0
 12 17  1  0  0  0  0
 14 15  1  1  0  0  0
 14 18  1  0  0  0  0
 15 31  1  0  0  0  0
 16 20  1  0  0  0  0
 17  2  1  1  0  0  0
 17 22  1  0  0  0  0
 18 19  1  1  0  0  0
 18 24  1  0  0  0  0
 18 30  1  0  0  0  0
 20 21  1  0  0  0  0
 20 26  1  1  0  0  0
 22 23  1  1  0  0  0
 22 28  1  0  0  0  0
 24 25  1  0  0  0  0
 26 27  1  0  0  0  0
 28 29  1  6  0  0  0
M  END
>  <CHROM.1>
176.01564786,174.36463058,-87.48507987,-158.63195515,120.36469461,-103.47692517
-6.80163469,-8.99114243,-19.77510249,-1.97548652,-0.63323426,-0.92792258

>  <Name>
ligand

>  <RI>
0

>  <Rbt.Current_Directory>
/home/itssahil/PROJECTS/Mol_Feturizer/New_Systems/rnas/4F8U

>  <Rbt.Executable>
rbdock ($Id: //depot/dev/client3/rdock/2013.1/src/exe/rbdock.cxx#4 $)

>  <Rbt.Library>
libRbt.so (2013.1, Build901 2013/11/27)

>  <Rbt.Parameter_File>
/export/apps/rDock/src/rDock_2013.1_src/data/scripts/dock_solv.prm

>  <Rbt.Receptor>
prm/pocket_docking_5.prm

>  <SCORE>
-13.1197

>  <SCORE.INTER>
-10.239

>  <SCORE.INTER.CONST>
1

>  <SCORE.INTER.POLAR>
0

>  <SCORE.INTER.ROT>
6

>  <SCORE.INTER.SOLV>
14.8916

>  <SCORE.INTER.VDW>
-19.3899

>  <SCORE.INTER.norm>
-0.330291

>  <SCORE.INTRA>
-2.93701

>  <SCORE.INTRA.DIHEDRAL>
-8.3716

>  <SCORE.INTRA.DIHEDRAL.0>
18.77

>  <SCORE.INTRA.POLAR>
0

>  <SCORE.INTRA.POLAR.0>
0

>  <SCORE.INTRA.REPUL>
0

>  <SCORE.INTRA.REPUL.0>
0

>  <SCORE.INTRA.SOLV>
-1.30001

>  <SCORE.INTRA.SOLV.lig_0>
-77.2465

>  <SCORE.INTRA.VDW>
1.89879

>  <SCORE.INTRA.VDW.0>
-4.16072

>  <SCORE.INTRA.norm>
-0.0947423

>  <SCORE.RESTR>
0.056371

>  <SCORE.RESTR.CAVITY>
0.056371

>  <SCORE.RESTR.norm>
0.00181842

>  <SCORE.SYSTEM>
0

>  <SCORE.SYSTEM.CONST>
0

>  <SCORE.SYSTEM.DIHEDRAL>
0

>  <SCORE.SYSTEM.SOLV>
0

>  <SCORE.SYSTEM.norm>
0

>  <SCORE.heavy>
31

>  <SCORE.norm>
-0.423215

>  <RMSD>
9.473

$$$$
ligand
 OpenBabel11021811493D
libRbt.so/2013.1/901 2013/11/27
 31 33  0  0  0  0  0  0  0  0999 V2000
   -6.5694  -11.2846  -25.0516 C   0  0  2  0  0  0  0  0  0  0  0  0
   -7.4406  -11.1354  -23.9224 O   0  0  0  0  0  0  0  0  0  0  0  0
   -7.4231  -10.9774  -19.6447 C   0  0  2  0  0  0  0  0  0  0  0  0
   -6.9603  -10.8013  -18.3020 N   0  0  0  0  0  0  0  0  0  0  0  0
   -7.5021   -7.5184  -19.0374 C   0  0  2  0  0  0  0  0  0  0  0  0
   -6.4903   -9.8756  -25.7376 C   0  0  2  0  0  0  0  0  0  0  0  0
   -6.0080   -8.8875  -24.7789 N   0  0  0  0  0  0  0  0  0  0  0  0
   -6.5651  -12.1061  -20.3360 C   0  0  0  0  0  0  0  0  0  0  0  0
   -7.5820   -6.2940  -20.0006 C   0  0  2  0  0  0  0  0  0  0  0  0
   -8.9368   -6.0705  -20.3520 O   0  0  0  0  0  0  0  0  0  0  0  0
   -7.9029   -9.4723  -26.2868 C   0  0  0  0  0  0  0  0  0  0  0  0
   -7.0854  -12.3063  -21.8248 C   0  0  2  0  0  0  0  0  0  0  0  0
   -6.2850  -13.3638  -22.4852 N   0  0  0  0  0  0  0  0  0  0  0  0
   -6.7115   -6.6518  -21.2853 C   0  0  1  0  0  0  0  0  0  0  0  0
   -6.7602   -5.5332  -22.2870 N   0  0  0  0  0  0  0  0  0  0  0  0
   -8.5448  -10.6471  -27.0802 C   0  0  0  0  0  0  0  0  0  0  0  0
   -6.9539  -10.9337  -22.6234 C   0  0  2  0  0  0  0  0  0  0  0  0
   -5.1663   -6.8978  -20.8326 C   0  0  1  0  0  0  0  0  0  0  0  0
   -4.6010   -5.7520  -20.2256 O   0  0  0  0  0  0  0  0  0  0  0  0
   -8.1218  -11.9087  -26.9097 C   0  0  2  0  0  0  0  0  0  0  0  0
   -7.0638  -12.2719  -26.0055 O   0  0  0  0  0  0  0  0  0  0  0  0
   -7.8038   -9.8160  -21.8858 C   0  0  2  0  0  0  0  0  0  0  0  0
   -7.6741   -8.5696  -22.5812 O   0  0  0  0  0  0  0  0  0  0  0  0
   -5.1130   -8.0647  -19.7896 C   0  0  0  0  0  0  0  0  0  0  0  0
   -6.0701   -7.7769  -18.6450 O   0  0  0  0  0  0  0  0  0  0  0  0
   -8.7451  -13.0891  -27.6907 C   0  0  0  0  0  0  0  0  0  0  0  0
   -7.6891  -13.8599  -28.3318 N   0  0  0  0  0  0  0  0  0  0  0  0
   -7.2789   -9.6322  -20.4160 C   0  0  1  0  0  0  0  0  0  0  0  0
   -8.0588   -8.6391  -19.7943 O   0  0  0  0  0  0  0  0  0  0  0  0
   -4.1892   -7.2600  -21.9633 C   0  0  0  0  0  0  0  0  0  0  0  0
   -8.0357   -5.3533  -23.0060 C   0  0  0  0  0  0  0  0  0  0  0  0
  1  2  1  1  0  0  0
  1  6  1  0  0  0  0
  1 21  1  0  0  0  0
  3  4  1  1  0  0  0
  3  8  1  0  0  0  0
  3 28  1  0  0  0  0
  5  9  1  0  0  0  0
  5 25  1  0  0  0  0
  5 29  1  6  0  0  0
  6  7  1  1  0  0  0
  6 11  1  0  0  0  0
  8 12  1  0  0  0  0
  9 10  1  6  0  0  0
  9 14  1  0  0  0  0
 11 16  1  0  0  0  0
 12 13  1  6  0  0  0
 12 17  1  0  0  0  0
 14 15  1  6  0  0  0
 14 18  1  0  0  0  0
 15 31  1  0  0  0  0
 16 20  1  0  0  0  0
 17  2  1  6  0  0  0
 17 22  1  0  0  0  0
 18 19  1  1  0  0  0
 18 24  1  0  0  0  0
 18 30  1  0  0  0  0
 20 21  1  0  0  0  0
 20 26  1  6  0  0  0
 22 23  1  6  0  0  0
 22 28  1  0  0  0  0
 24 25  1  0  0  0  0
 26 27  1  0  0  0  0
 28 29  1  1  0  0  0
M  END
>  <CHROM.1>
-97.66103331,101.73825052,-71.69203744,-103.58579107,128.12041904,108.79676640
-7.01306674,-9.40638173,-22.53932368,2.87355136,1.43535026,2.75873620

>  <Name>
ligand

>  <RI>
0

>  <Rbt.Current_Directory>
/home/itssahil/PROJECTS/Mol_Feturizer/New_Systems/rnas/4F8U

>  <Rbt.Executable>
rbdock ($Id: //depot/dev/client3/rdock/2013.1/src/exe/rbdock.cxx#4 $)

>  <Rbt.Library>
libRbt.so (2013.1, Build901 2013/11/27)

>  <Rbt.Parameter_File>
/export/apps/rDock/src/rDock_2013.1_src/data/scripts/dock_solv.prm

>  <Rbt.Receptor>
prm/blind_docking_100.prm

>  <SCORE>
46.7111

>  <SCORE.INTER>
23.0765

>  <SCORE.INTER.CONST>
1

>  <SCORE.INTER.POLAR>
0

>  <SCORE.INTER.ROT>
6

>  <SCORE.INTER.SOLV>
31.3857

>  <SCORE.INTER.VDW>
-2.6776

>  <SCORE.INTER.norm>
0.744402

>  <SCORE.INTRA>
9.13529

>  <SCORE.INTRA.DIHEDRAL>
6.33065

>  <SCORE.INTRA.DIHEDRAL.0>
18.77

>  <SCORE.INTRA.POLAR>
0

>  <SCORE.INTRA.POLAR.0>
0

>  <SCORE.INTRA.REPUL>
0

>  <SCORE.INTRA.REPUL.0>
0

>  <SCORE.INTRA.SOLV>
4.07209

>  <SCORE.INTRA.SOLV.lig_0>
-77.2465

>  <SCORE.INTRA.VDW>
3.93392

>  <SCORE.INTRA.VDW.0>
-4.16072

>  <SCORE.INTRA.norm>
0.294687

>  <SCORE.RESTR>
14.4993

>  <SCORE.RESTR.CAVITY>
14.4993

>  <SCORE.RESTR.norm>
0.46772

>  <SCORE.SYSTEM>
0

>  <SCORE.SYSTEM.CONST>
0

>  <SCORE.SYSTEM.DIHEDRAL>
0

>  <SCORE.SYSTEM.SOLV>
0

>  <SCORE.SYSTEM.norm>
0

>  <SCORE.heavy>
31

>  <SCORE.norm>
1.50681

>  <RMSD>
9.476

$$$$
ligand
 OpenBabel11021811493D
libRbt.so/2013.1/901 2013/11/27
 31 33  0  0  0  0  0  0  0  0999 V2000
   -4.4929   -9.6108  -16.6304 C   0  0  2  0  0  0  0  0  0  0  0  0
   -4.9083  -10.6536  -17.5229 O   0  0  0  0  0  0  0  0  0  0  0  0
   -7.0027  -10.6449  -21.2561 C   0  0  2  0  0  0  0  0  0  0  0  0
   -8.0594  -10.5050  -22.2110 N   0  0  0  0  0  0  0  0  0  0  0  0
   -7.3049   -7.4409  -22.2310 C   0  0  2  0  0  0  0  0  0  0  0  0
   -3.3186  -10.2035  -15.7749 C   0  0  2  0  0  0  0  0  0  0  0  0
   -2.2463  -10.6536  -16.6554 N   0  0  0  0  0  0  0  0  0  0  0  0
   -7.4204  -11.7282  -20.1884 C   0  0  0  0  0  0  0  0  0  0  0  0
   -6.4767   -6.7876  -23.3801 C   0  0  2  0  0  0  0  0  0  0  0  0
   -5.9791   -7.8082  -24.2284 O   0  0  0  0  0  0  0  0  0  0  0  0
   -3.8484  -11.3887  -14.8949 C   0  0  0  0  0  0  0  0  0  0  0  0
   -6.2426  -11.8884  -19.1328 C   0  0  2  0  0  0  0  0  0  0  0  0
   -6.6246  -12.9032  -18.1231 N   0  0  0  0  0  0  0  0  0  0  0  0
   -5.2845   -5.9819  -22.6977 C   0  0  1  0  0  0  0  0  0  0  0  0
   -4.4109   -5.3439  -23.7404 N   0  0  0  0  0  0  0  0  0  0  0  0
   -5.1670  -10.9936  -14.1692 C   0  0  0  0  0  0  0  0  0  0  0  0
   -5.9644  -10.4861  -18.4292 C   0  0  2  0  0  0  0  0  0  0  0  0
   -5.9041   -4.8224  -21.7363 C   0  0  1  0  0  0  0  0  0  0  0  0
   -6.6987   -3.9012  -22.4581 O   0  0  0  0  0  0  0  0  0  0  0  0
   -5.9168   -9.9709  -14.6069 C   0  0  2  0  0  0  0  0  0  0  0  0
   -5.5720   -9.1716  -15.7519 O   0  0  0  0  0  0  0  0  0  0  0  0
   -5.5765   -9.4151  -19.5328 C   0  0  2  0  0  0  0  0  0  0  0  0
   -5.3474   -8.1424  -18.9149 O   0  0  0  0  0  0  0  0  0  0  0  0
   -6.8138   -5.4854  -20.6476 C   0  0  0  0  0  0  0  0  0  0  0  0
   -7.8491   -6.3759  -21.3139 O   0  0  0  0  0  0  0  0  0  0  0  0
   -7.2288   -9.5613  -13.8979 C   0  0  0  0  0  0  0  0  0  0  0  0
   -7.5284  -10.5157  -12.8397 N   0  0  0  0  0  0  0  0  0  0  0  0
   -6.7491   -9.2704  -20.5690 C   0  0  1  0  0  0  0  0  0  0  0  0
   -6.3664   -8.3183  -21.5322 O   0  0  0  0  0  0  0  0  0  0  0  0
   -4.8770   -3.9510  -20.9945 C   0  0  0  0  0  0  0  0  0  0  0  0
   -3.1539   -6.0466  -24.0606 C   0  0  0  0  0  0  0  0  0  0  0  0
  1  2  1  6  0  0  0
  1  6  1  0  0  0  0
  1 21  1  0  0  0  0
  3  4  1  6  0  0  0
  3  8  1  0  0  0  0
  3 28  1  0  0  0  0
  5  9  1  0  0  0  0
  5 25  1  0  0  0  0
  5 29  1  1  0  0  0
  6  7  1  6  0  0  0
  6 11  1  0  0  0  0
  8 12  1  0  0  0  0
  9 10  1  6  0  0  0
  9 14  1  0  0  0  0
 11 16  1  0  0  0  0
 12 13  1  1  0  0  0
 12 17  1  0  0  0  0
 14 15  1  6  0  0  0
 14 18  1  0  0  0  0
 15 31  1  0  0  0  0
 16 20  1  0  0  0  0
 17  2  1  1  0  0  0
 17 22  1  0  0  0  0
 18 19  1  6  0  0  0
 18 24  1  0  0  0  0
 18 30  1  0  0  0  0
 20 21  1  0  0  0  0
 20 26  1  1  0  0  0
 22 23  1  1  0  0  0
 22 28  1  0  0  0  0
 24 25  1  0  0  0  0
 26 27  1  0  0  0  0
 28 29  1  6  0  0  0
M  END
>  <CHROM.1>
178.83944591,-168.81752846,-100.12088261,-173.87809051,-5.49459574,91.81445749
-5.81676436,-8.66591698,-19.38759962,-1.44292125,-1.19403038,-0.88824619

>  <Name>
ligand

>  <RI>
0

>  <Rbt.Current_Directory>
/home/itssahil/PROJECTS/Mol_Feturizer/New_Systems/rnas/4F8U

>  <Rbt.Executable>
rbdock ($Id: //depot/dev/client3/rdock/2013.1/src/exe/rbdock.cxx#4 $)

>  <Rbt.Library>
libRbt.so (2013.1, Build901 2013/11/27)

>  <Rbt.Parameter_File>
/export/apps/rDock/src/rDock_2013.1_src/data/scripts/dock_solv.prm

>  <Rbt.Receptor>
prm/pocket_docking_5.prm

>  <SCORE>
-11.9868

>  <SCORE.INTER>
-6.56867

>  <SCORE.INTER.CONST>
1

>  <SCORE.INTER.POLAR>
0

>  <SCORE.INTER.ROT>
6

>  <SCORE.INTER.SOLV>
14.5371

>  <SCORE.INTER.VDW>
-16.8248

>  <SCORE.INTER.norm>
-0.211893

>  <SCORE.INTRA>
-5.42293

>  <SCORE.INTRA.DIHEDRAL>
-11.4132

>  <SCORE.INTRA.DIHEDRAL.0>
18.77

>  <SCORE.INTRA.POLAR>
0

>  <SCORE.INTRA.POLAR.0>
0

>  <SCORE.INTRA.REPUL>
0

>  <SCORE.INTRA.REPUL.0>
0

>  <SCORE.INTRA.SOLV>
-2.0704

>  <SCORE.INTRA.SOLV.lig_0>
-77.2465

>  <SCORE.INTRA.VDW>
1.31887

>  <SCORE.INTRA.VDW.0>
-4.16072

>  <SCORE.INTRA.norm>
-0.174933

>  <SCORE.RESTR>
0.0048299

>  <SCORE.RESTR.CAVITY>
0.0048299

>  <SCORE.RESTR.norm>
0.000155803

>  <SCORE.SYSTEM>
0

>  <SCORE.SYSTEM.CONST>
0

>  <SCORE.SYSTEM.DIHEDRAL>
0

>  <SCORE.SYSTEM.SOLV>
0

>  <SCORE.SYSTEM.norm>
0

>  <SCORE.heavy>
31

>  <SCORE.norm>
-0.38667

>  <RMSD>
9.494

$$$$
ligand
 OpenBabel11021811493D
libRbt.so/2013.1/901 2013/11/27
 31 33  0  0  0  0  0  0  0  0999 V2000
   -6.4449  -12.1767  -21.0048 C   0  0  2  0  0  0  0  0  0  0  0  0
   -7.6868  -11.9453  -21.6834 O   0  0  0  0  0  0  0  0  0  0  0  0
   -6.8302   -8.3230  -23.7973 C   0  0  2  0  0  0  0  0  0  0  0  0
   -7.0112   -7.1585  -24.6092 N   0  0  0  0  0  0  0  0  0  0  0  0
   -6.3510   -7.0548  -20.8031 C   0  0  2  0  0  0  0  0  0  0  0  0
   -6.7289  -13.2828  -19.9287 C   0  0  2  0  0  0  0  0  0  0  0  0
   -7.2488  -14.4805  -20.5789 N   0  0  0  0  0  0  0  0  0  0  0  0
   -7.1811   -9.6008  -24.6529 C   0  0  0  0  0  0  0  0  0  0  0  0
   -5.9858   -5.5461  -20.6486 C   0  0  2  0  0  0  0  0  0  0  0  0
   -7.1307   -4.8369  -20.2068 O   0  0  0  0  0  0  0  0  0  0  0  0
   -7.7482  -12.7411  -18.8668 C   0  0  0  0  0  0  0  0  0  0  0  0
   -6.9720  -10.8941  -23.7524 C   0  0  2  0  0  0  0  0  0  0  0  0
   -7.3006  -12.1015  -24.5457 N   0  0  0  0  0  0  0  0  0  0  0  0
   -5.5126   -5.0305  -22.0791 C   0  0  1  0  0  0  0  0  0  0  0  0
   -5.1710   -3.5683  -22.0291 N   0  0  0  0  0  0  0  0  0  0  0  0
   -7.3380  -11.3215  -18.3790 C   0  0  0  0  0  0  0  0  0  0  0  0
   -7.9099  -10.8050  -22.4674 C   0  0  2  0  0  0  0  0  0  0  0  0
   -4.1972   -5.8718  -22.5426 C   0  0  1  0  0  0  0  0  0  0  0  0
   -3.1190   -5.7126  -21.6409 O   0  0  0  0  0  0  0  0  0  0  0  0
   -6.5070  -10.5558  -19.1021 C   0  0  2  0  0  0  0  0  0  0  0  0
   -5.9367  -10.9732  -20.3548 O   0  0  0  0  0  0  0  0  0  0  0  0
   -7.5505   -9.4957  -21.6474 C   0  0  2  0  0  0  0  0  0  0  0  0
   -8.4045   -9.3911  -20.5012 O   0  0  0  0  0  0  0  0  0  0  0  0
   -4.5517   -7.3962  -22.5969 C   0  0  0  0  0  0  0  0  0  0  0  0
   -5.1485   -7.8341  -21.2700 O   0  0  0  0  0  0  0  0  0  0  0  0
   -6.0856   -9.1437  -18.6329 C   0  0  0  0  0  0  0  0  0  0  0  0
   -4.6548   -9.1275  -18.3629 N   0  0  0  0  0  0  0  0  0  0  0  0
   -7.7601   -8.2276  -22.5516 C   0  0  1  0  0  0  0  0  0  0  0  0
   -7.4270   -7.0899  -21.7930 O   0  0  0  0  0  0  0  0  0  0  0  0
   -3.6141   -5.4962  -23.9149 C   0  0  0  0  0  0  0  0  0  0  0  0
   -4.4469   -3.1058  -20.8299 C   0  0  0  0  0  0  0  0  0  0  0  0
  1  2  1  1  0  0  0
  1  6  1  0  0  0  0
  1 21  1  0  0  0  0
  3  4  1  6  0  0  0
  3  8  1  0  0  0  0
  3 28  1  0  0  0  0
  5  9  1  0  0  0  0
  5 25  1  0  0  0  0
  5 29  1  6  0  0  0
  6  7  1  6  0  0  0
  6 11  1  0  0  0  0
  8 12  1  0  0  0  0
  9 10  1  6  0  0  0
  9 14  1  0  0  0  0
 11 16  1  0  0  0  0
 12 13  1  6  0  0  0
 12 17  1  0  0  0  0
 14 15  1  1  0  0  0
 14 18  1  0  0  0  0
 15 31  1  0  0  0  0
 16 20  1  0  0  0  0
 17  2  1  1  0  0  0
 17 22  1  0  0  0  0
 18 19  1  1  0  0  0
 18 24  1  0  0  0  0
 18 30  1  0  0  0  0
 20 21  1  0  0  0  0
 20 26  1  1  0  0  0
 22 23  1  1  0  0  0
 22 28  1  0  0  0  0
 24 25  1  0  0  0  0
 26 27  1  0  0  0  0
 28 29  1  1  0  0  0
M  END
>  <CHROM.1>
163.49052604,158.35028288,40.31439926,67.79275674,115.03707449,-83.67642274
-6.31154765,-8.68433235,-21.45911698,-2.62399270,-1.22988827,-1.19707062

>  <Name>
ligand

>  <RI>
0

>  <Rbt.Current_Directory>
/home/itssahil/PROJECTS/Mol_Feturizer/New_Systems/rnas/4F8U

>  <Rbt.Executable>
rbdock ($Id: //depot/dev/client3/rdock/2013.1/src/exe/rbdock.cxx#4 $)

>  <Rbt.Library>
libRbt.so (2013.1, Build901 2013/11/27)

>  <Rbt.Parameter_File>
/export/apps/rDock/src/rDock_2013.1_src/data/scripts/dock_solv.prm

>  <Rbt.Receptor>
prm/blind_docking_40.prm

>  <SCORE>
18.7906

>  <SCORE.INTER>
-1.11776

>  <SCORE.INTER.CONST>
1

>  <SCORE.INTER.POLAR>
0

>  <SCORE.INTER.ROT>
6

>  <SCORE.INTER.SOLV>
26.3444

>  <SCORE.INTER.VDW>
-17.1266

>  <SCORE.INTER.norm>
-0.0360567

>  <SCORE.INTRA>
6.55831

>  <SCORE.INTRA.DIHEDRAL>
-10.699

>  <SCORE.INTRA.DIHEDRAL.0>
18.77

>  <SCORE.INTRA.POLAR>
0

>  <SCORE.INTRA.POLAR.0>
0

>  <SCORE.INTRA.REPUL>
0.478191

>  <SCORE.INTRA.REPUL.0>
0

>  <SCORE.INTRA.SOLV>
3.45512

>  <SCORE.INTRA.SOLV.lig_0>
-77.2465

>  <SCORE.INTRA.VDW>
7.7893

>  <SCORE.INTRA.VDW.0>
-4.16072

>  <SCORE.INTRA.norm>
0.211558

>  <SCORE.RESTR>
13.3501

>  <SCORE.RESTR.CAVITY>
13.3501

>  <SCORE.RESTR.norm>
0.430647

>  <SCORE.SYSTEM>
0

>  <SCORE.SYSTEM.CONST>
0

>  <SCORE.SYSTEM.DIHEDRAL>
0

>  <SCORE.SYSTEM.SOLV>
0

>  <SCORE.SYSTEM.norm>
0

>  <SCORE.heavy>
31

>  <SCORE.norm>
0.606149

>  <RMSD>
9.503

$$$$
ligand
 OpenBabel11021811493D
libRbt.so/2013.1/901 2013/11/27
 31 33  0  0  0  0  0  0  0  0999 V2000
   -6.1406   -9.4044  -26.5696 C   0  0  2  0  0  0  0  0  0  0  0  0
   -7.0539   -9.2339  -25.4773 O   0  0  0  0  0  0  0  0  0  0  0  0
   -7.9213  -11.2507  -21.8025 C   0  0  2  0  0  0  0  0  0  0  0  0
   -7.7357  -11.8687  -20.5252 N   0  0  0  0  0  0  0  0  0  0  0  0
   -7.9319   -8.9997  -19.3457 C   0  0  2  0  0  0  0  0  0  0  0  0
   -6.5041   -8.3022  -27.6255 C   0  0  2  0  0  0  0  0  0  0  0  0
   -6.4101   -6.9822  -27.0117 N   0  0  0  0  0  0  0  0  0  0  0  0
   -7.0607  -12.0253  -22.8736 C   0  0  0  0  0  0  0  0  0  0  0  0
   -7.3739   -7.5583  -19.1358 C   0  0  2  0  0  0  0  0  0  0  0  0
   -8.3716   -6.6195  -19.4993 O   0  0  0  0  0  0  0  0  0  0  0  0
   -7.9492   -8.5544  -28.1804 C   0  0  0  0  0  0  0  0  0  0  0  0
   -7.2739  -11.3427  -24.2935 C   0  0  2  0  0  0  0  0  0  0  0  0
   -6.4684  -12.0615  -25.3083 N   0  0  0  0  0  0  0  0  0  0  0  0
   -6.0893   -7.4139  -20.0660 C   0  0  1  0  0  0  0  0  0  0  0  0
   -5.5037   -6.0351  -19.9506 N   0  0  0  0  0  0  0  0  0  0  0  0
   -8.1386  -10.0479  -28.5741 C   0  0  0  0  0  0  0  0  0  0  0  0
   -6.8333   -9.8132  -24.2201 C   0  0  2  0  0  0  0  0  0  0  0  0
   -4.9733   -8.5092  -19.6103 C   0  0  1  0  0  0  0  0  0  0  0  0
   -4.5653   -8.3262  -18.2683 O   0  0  0  0  0  0  0  0  0  0  0  0
   -7.3305  -10.9997  -28.0833 C   0  0  2  0  0  0  0  0  0  0  0  0
   -6.2465  -10.7264  -27.1783 O   0  0  0  0  0  0  0  0  0  0  0  0
   -7.6968   -9.0727  -23.1148 C   0  0  2  0  0  0  0  0  0  0  0  0
   -7.2929   -7.7007  -23.0218 O   0  0  0  0  0  0  0  0  0  0  0  0
   -5.5813   -9.9473  -19.7314 C   0  0  0  0  0  0  0  0  0  0  0  0
   -6.8903  -10.0197  -18.9633 O   0  0  0  0  0  0  0  0  0  0  0  0
   -7.5009  -12.4887  -28.4646 C   0  0  0  0  0  0  0  0  0  0  0  0
   -8.0035  -13.2305  -27.3168 N   0  0  0  0  0  0  0  0  0  0  0  0
   -7.4768   -9.7604  -21.7190 C   0  0  1  0  0  0  0  0  0  0  0  0
   -8.2611   -9.0806  -20.7683 O   0  0  0  0  0  0  0  0  0  0  0  0
   -3.6648   -8.5044  -20.4178 C   0  0  0  0  0  0  0  0  0  0  0  0
   -5.9443   -5.0503  -20.9567 C   0  0  0  0  0  0  0  0  0  0  0  0
  1  2  1  1  0  0  0
  1  6  1  0  0  0  0
  1 21  1  0  0  0  0
  3  4  1  1  0  0  0
  3  8  1  0  0  0  0
  3 28  1  0  0  0  0
  5  9  1  0  0  0  0
  5 25  1  0  0  0  0
  5 29  1  6  0  0  0
  6  7  1  1  0  0  0
  6 11  1  0  0  0  0
  8 12  1  0  0  0  0
  9 10  1  6  0  0  0
  9 14  1  0  0  0  0
 11 16  1  0  0  0  0
 12 13  1  6  0  0  0
 12 17  1  0  0  0  0
 14 15  1  1  0  0  0
 14 18  1  0  0  0  0
 15 31  1  0  0  0  0
 16 20  1  0  0  0  0
 17  2  1  6  0  0  0
 17 22  1  0  0  0  0
 18 19  1  1  0  0  0
 18 24  1  0  0  0  0
 18 30  1  0  0  0  0
 20 21  1  0  0  0  0
 20 26  1  6  0  0  0
 22 23  1  1  0  0  0
 22 28  1  0  0  0  0
 24 25  1  0  0  0  0
 26 27  1  0  0  0  0
 28 29  1  1  0  0  0
M  END
>  <CHROM.1>
-164.02676885,103.82640797,-94.19425082,-79.99115753,-109.38526451,88.51940186
-6.83992529,-9.35716526,-23.12527384,-2.17009642,1.37084944,1.85747231

>  <Name>
ligand

>  <RI>
0

>  <Rbt.Current_Directory>
/home/itssahil/PROJECTS/Mol_Feturizer/New_Systems/rnas/4F8U

>  <Rbt.Executable>
rbdock ($Id: //depot/dev/client3/rdock/2013.1/src/exe/rbdock.cxx#4 $)

>  <Rbt.Library>
libRbt.so (2013.1, Build901 2013/11/27)

>  <Rbt.Parameter_File>
/export/apps/rDock/src/rDock_2013.1_src/data/scripts/dock_solv.prm

>  <Rbt.Receptor>
prm/blind_docking_100.prm

>  <SCORE>
18.1956

>  <SCORE.INTER>
1.36828

>  <SCORE.INTER.CONST>
1

>  <SCORE.INTER.POLAR>
0

>  <SCORE.INTER.ROT>
6

>  <SCORE.INTER.SOLV>
31.7704

>  <SCORE.INTER.VDW>
-17.2779

>  <SCORE.INTER.norm>
0.0441381

>  <SCORE.INTRA>
5.43167

>  <SCORE.INTRA.DIHEDRAL>
-3.92426

>  <SCORE.INTRA.DIHEDRAL.0>
18.77

>  <SCORE.INTRA.POLAR>
0

>  <SCORE.INTRA.POLAR.0>
0

>  <SCORE.INTRA.REPUL>
0

>  <SCORE.INTRA.REPUL.0>
0

>  <SCORE.INTRA.SOLV>
6.5326

>  <SCORE.INTRA.SOLV.lig_0>
-77.2465

>  <SCORE.INTRA.VDW>
4.12749

>  <SCORE.INTRA.VDW.0>
-4.16072

>  <SCORE.INTRA.norm>
0.175215

>  <SCORE.RESTR>
11.3957

>  <SCORE.RESTR.CAVITY>
11.3957

>  <SCORE.RESTR.norm>
0.367602

>  <SCORE.SYSTEM>
0

>  <SCORE.SYSTEM.CONST>
0

>  <SCORE.SYSTEM.DIHEDRAL>
0

>  <SCORE.SYSTEM.SOLV>
0

>  <SCORE.SYSTEM.norm>
0

>  <SCORE.heavy>
31

>  <SCORE.norm>
0.586956

>  <RMSD>
9.515

$$$$
ligand
 OpenBabel11021811493D
libRbt.so/2013.1/901 2013/11/27
 31 33  0  0  0  0  0  0  0  0999 V2000
   -7.7365  -10.8287  -16.4019 C   0  0  2  0  0  0  0  0  0  0  0  0
   -7.0998  -11.8032  -17.2396 O   0  0  0  0  0  0  0  0  0  0  0  0
   -6.6679  -12.1459  -21.4845 C   0  0  2  0  0  0  0  0  0  0  0  0
   -6.9948  -12.3496  -22.8628 N   0  0  0  0  0  0  0  0  0  0  0  0
   -7.9293   -8.5344  -21.6075 C   0  0  2  0  0  0  0  0  0  0  0  0
   -7.0735  -10.9626  -14.9861 C   0  0  2  0  0  0  0  0  0  0  0  0
   -5.6333  -10.7586  -15.0954 N   0  0  0  0  0  0  0  0  0  0  0  0
   -7.0152  -13.4568  -20.6789 C   0  0  0  0  0  0  0  0  0  0  0  0
   -7.7357   -7.8718  -23.0064 C   0  0  2  0  0  0  0  0  0  0  0  0
   -8.2190   -8.7532  -24.0056 O   0  0  0  0  0  0  0  0  0  0  0  0
   -7.3896  -12.3756  -14.3833 C   0  0  0  0  0  0  0  0  0  0  0  0
   -6.6443  -13.2320  -19.1495 C   0  0  2  0  0  0  0  0  0  0  0  0
   -6.9680  -14.4573  -18.3819 N   0  0  0  0  0  0  0  0  0  0  0  0
   -6.1757   -7.6065  -23.1863 C   0  0  1  0  0  0  0  0  0  0  0  0
   -5.8935   -6.9960  -24.5298 N   0  0  0  0  0  0  0  0  0  0  0  0
   -8.9016  -12.7140  -14.5278 C   0  0  0  0  0  0  0  0  0  0  0  0
   -7.4644  -11.9902  -18.5801 C   0  0  2  0  0  0  0  0  0  0  0  0
   -5.6681   -6.5899  -22.0193 C   0  0  1  0  0  0  0  0  0  0  0  0
   -6.3337   -5.3430  -22.0736 O   0  0  0  0  0  0  0  0  0  0  0  0
   -9.6704  -12.0741  -15.4218 C   0  0  2  0  0  0  0  0  0  0  0  0
   -9.1757  -11.0452  -16.2966 O   0  0  0  0  0  0  0  0  0  0  0  0
   -7.1140  -10.6979  -19.4301 C   0  0  2  0  0  0  0  0  0  0  0  0
   -7.8644   -9.5782  -18.9430 O   0  0  0  0  0  0  0  0  0  0  0  0
   -5.9599   -7.2251  -20.6180 C   0  0  0  0  0  0  0  0  0  0  0  0
   -7.4254   -7.6156  -20.5243 O   0  0  0  0  0  0  0  0  0  0  0  0
  -11.1753  -12.3942  -15.5785 C   0  0  0  0  0  0  0  0  0  0  0  0
  -11.9645  -11.2605  -15.1178 N   0  0  0  0  0  0  0  0  0  0  0  0
   -7.4841  -10.9371  -20.9386 C   0  0  1  0  0  0  0  0  0  0  0  0
   -7.1547   -9.7738  -21.6593 O   0  0  0  0  0  0  0  0  0  0  0  0
   -4.1727   -6.2332  -22.0491 C   0  0  0  0  0  0  0  0  0  0  0  0
   -5.5096   -7.9297  -25.6055 C   0  0  0  0  0  0  0  0  0  0  0  0
  1  2  1  6  0  0  0
  1  6  1  0  0  0  0
  1 21  1  0  0  0  0
  3  4  1  6  0  0  0
  3  8  1  0  0  0  0
  3 28  1  0  0  0  0
  5  9  1  0  0  0  0
  5 25  1  0  0  0  0
  5 29  1  6  0  0  0
  6  7  1  6  0  0  0
  6 11  1  0  0  0  0
  8 12  1  0  0  0  0
  9 10  1  6  0  0  0
  9 14  1  0  0  0  0
 11 16  1  0  0  0  0
 12 13  1  1  0  0  0
 12 17  1  0  0  0  0
 14 15  1  6  0  0  0
 14 18  1  0  0  0  0
 15 31  1  0  0  0  0
 16 20  1  0  0  0  0
 17  2  1  1  0  0  0
 17 22  1  0  0  0  0
 18 19  1  6  0  0  0
 18 24  1  0  0  0  0
 18 30  1  0  0  0  0
 20 21  1  0  0  0  0
 20 26  1  1  0  0  0
 22 23  1  1  0  0  0
 22 28  1  0  0  0  0
 24 25  1  0  0  0  0
 26 27  1  0  0  0  0
 28 29  1  6  0  0  0
M  END
>  <CHROM.1>
178.54862521,-149.92068172,-95.15227606,-174.95801351,111.61751090,166.33956814
-7.36411283,-10.13612603,-19.58861426,3.07347638,-1.30486656,-2.66457628

>  <Name>
ligand

>  <RI>
0

>  <Rbt.Current_Directory>
/home/itssahil/PROJECTS/Mol_Feturizer/New_Systems/rnas/4F8U

>  <Rbt.Executable>
rbdock ($Id: //depot/dev/client3/rdock/2013.1/src/exe/rbdock.cxx#4 $)

>  <Rbt.Library>
libRbt.so (2013.1, Build901 2013/11/27)

>  <Rbt.Parameter_File>
/export/apps/rDock/src/rDock_2013.1_src/data/scripts/dock_solv.prm

>  <Rbt.Receptor>
prm/pocket_docking_8.prm

>  <SCORE>
-14.443

>  <SCORE.INTER>
-8.40315

>  <SCORE.INTER.CONST>
1

>  <SCORE.INTER.POLAR>
0

>  <SCORE.INTER.ROT>
6

>  <SCORE.INTER.SOLV>
16.7528

>  <SCORE.INTER.VDW>
-18.7864

>  <SCORE.INTER.norm>
-0.271069

>  <SCORE.INTRA>
-6.03983

>  <SCORE.INTRA.DIHEDRAL>
-11.6032

>  <SCORE.INTRA.DIHEDRAL.0>
18.77

>  <SCORE.INTRA.POLAR>
0

>  <SCORE.INTRA.POLAR.0>
0

>  <SCORE.INTRA.REPUL>
0

>  <SCORE.INTRA.REPUL.0>
0

>  <SCORE.INTRA.SOLV>
-2.83608

>  <SCORE.INTRA.SOLV.lig_0>
-77.2465

>  <SCORE.INTRA.VDW>
1.17982

>  <SCORE.INTRA.VDW.0>
-4.16072

>  <SCORE.INTRA.norm>
-0.194833

>  <SCORE.RESTR>
0

>  <SCORE.RESTR.CAVITY>
0

>  <SCORE.RESTR.norm>
0

>  <SCORE.SYSTEM>
0

>  <SCORE.SYSTEM.CONST>
0

>  <SCORE.SYSTEM.DIHEDRAL>
0

>  <SCORE.SYSTEM.SOLV>
0

>  <SCORE.SYSTEM.norm>
0

>  <SCORE.heavy>
31

>  <SCORE.norm>
-0.465903

>  <RMSD>
9.517

$$$$
ligand
 OpenBabel11021811493D
libRbt.so/2013.1/901 2013/11/27
 31 33  0  0  0  0  0  0  0  0999 V2000
   -6.5135  -11.5323  -25.2784 C   0  0  2  0  0  0  0  0  0  0  0  0
   -7.3758  -11.5903  -24.1341 O   0  0  0  0  0  0  0  0  0  0  0  0
   -7.5573  -10.8041  -19.9302 C   0  0  2  0  0  0  0  0  0  0  0  0
   -7.1761  -10.3751  -18.6192 N   0  0  0  0  0  0  0  0  0  0  0  0
   -8.0976   -7.2540  -20.0522 C   0  0  2  0  0  0  0  0  0  0  0  0
   -6.5385  -10.0442  -25.7753 C   0  0  2  0  0  0  0  0  0  0  0  0
   -6.1088   -9.1584  -24.6990 N   0  0  0  0  0  0  0  0  0  0  0  0
   -6.5396  -11.9039  -20.4229 C   0  0  0  0  0  0  0  0  0  0  0  0
   -7.4476   -6.6220  -21.3216 C   0  0  2  0  0  0  0  0  0  0  0  0
   -8.3950   -6.6253  -22.3758 O   0  0  0  0  0  0  0  0  0  0  0  0
   -7.9828   -9.6700  -26.2587 C   0  0  0  0  0  0  0  0  0  0  0  0
   -6.9686  -12.3853  -21.8760 C   0  0  2  0  0  0  0  0  0  0  0  0
   -6.0181  -13.4181  -22.3502 N   0  0  0  0  0  0  0  0  0  0  0  0
   -6.1805   -7.5131  -21.6912 C   0  0  1  0  0  0  0  0  0  0  0  0
   -5.5090   -6.9918  -22.9301 N   0  0  0  0  0  0  0  0  0  0  0  0
   -8.5569  -10.7728  -27.1945 C   0  0  0  0  0  0  0  0  0  0  0  0
   -6.9723  -11.1397  -22.8696 C   0  0  2  0  0  0  0  0  0  0  0  0
   -5.1222   -7.4773  -20.4536 C   0  0  1  0  0  0  0  0  0  0  0  0
   -4.6700   -6.1656  -20.1782 O   0  0  0  0  0  0  0  0  0  0  0  0
   -8.0484  -12.0142  -27.1925 C   0  0  2  0  0  0  0  0  0  0  0  0
   -6.9553  -12.4189  -26.3498 O   0  0  0  0  0  0  0  0  0  0  0  0
   -7.9825  -10.0427  -22.3293 C   0  0  2  0  0  0  0  0  0  0  0  0
   -7.9769   -8.9059  -23.2020 O   0  0  0  0  0  0  0  0  0  0  0  0
   -5.8196   -8.0219  -19.1616 C   0  0  0  0  0  0  0  0  0  0  0  0
   -7.1108   -7.2605  -18.9130 O   0  0  0  0  0  0  0  0  0  0  0  0
   -8.6033  -13.1229  -28.1169 C   0  0  0  0  0  0  0  0  0  0  0  0
   -7.5349  -13.6264  -28.9685 N   0  0  0  0  0  0  0  0  0  0  0  0
   -7.5461   -9.5796  -20.8924 C   0  0  1  0  0  0  0  0  0  0  0  0
   -8.4669   -8.6131  -20.4462 O   0  0  0  0  0  0  0  0  0  0  0  0
   -3.8366   -8.2976  -20.6508 C   0  0  0  0  0  0  0  0  0  0  0  0
   -5.1484   -5.5614  -22.9266 C   0  0  0  0  0  0  0  0  0  0  0  0
  1  2  1  1  0  0  0
  1  6  1  0  0  0  0
  1 21  1  0  0  0  0
  3  4  1  1  0  0  0
  3  8  1  0  0  0  0
  3 28  1  0  0  0  0
  5  9  1  0  0  0  0
  5 25  1  0  0  0  0
  5 29  1  6  0  0  0
  6  7  1  1  0  0  0
  6 11  1  0  0  0  0
  8 12  1  0  0  0  0
  9 10  1  6  0  0  0
  9 14  1  0  0  0  0
 11 16  1  0  0  0  0
 12 13  1  6  0  0  0
 12 17  1  0  0  0  0
 14 15  1  6  0  0  0
 14 18  1  0  0  0  0
 15 31  1  0  0  0  0
 16 20  1  0  0  0  0
 17  2  1  6  0  0  0
 17 22  1  0  0  0  0
 18 19  1  1  0  0  0
 18 24  1  0  0  0  0
 18 30  1  0  0  0  0
 20 21  1  0  0  0  0
 20 26  1  6  0  0  0
 22 23  1  6  0  0  0
 22 28  1  0  0  0  0
 24 25  1  0  0  0  0
 26 27  1  0  0  0  0
 28 29  1  1  0  0  0
M  END
>  <CHROM.1>
-78.27448717,60.10635191,52.95571981,-116.72749895,121.72058876,118.85374506
-6.92761590,-9.60615224,-22.81599645,2.66256743,-1.39230048,-1.09230914

>  <Name>
ligand

>  <RI>
0

>  <Rbt.Current_Directory>
/home/itssahil/PROJECTS/Mol_Feturizer/New_Systems/rnas/4F8U

>  <Rbt.Executable>
rbdock ($Id: //depot/dev/client3/rdock/2013.1/src/exe/rbdock.cxx#4 $)

>  <Rbt.Library>
libRbt.so (2013.1, Build901 2013/11/27)

>  <Rbt.Parameter_File>
/export/apps/rDock/src/rDock_2013.1_src/data/scripts/dock_solv.prm

>  <Rbt.Receptor>
prm/blind_docking_100.prm

>  <SCORE>
30.9408

>  <SCORE.INTER>
0.343915

>  <SCORE.INTER.CONST>
1

>  <SCORE.INTER.POLAR>
0

>  <SCORE.INTER.ROT>
6

>  <SCORE.INTER.SOLV>
30.194

>  <SCORE.INTER.VDW>
-17.4354

>  <SCORE.INTER.norm>
0.011094

>  <SCORE.INTRA>
16.4439

>  <SCORE.INTRA.DIHEDRAL>
-1.1803

>  <SCORE.INTRA.DIHEDRAL.0>
18.77

>  <SCORE.INTRA.POLAR>
0

>  <SCORE.INTRA.POLAR.0>
0

>  <SCORE.INTRA.REPUL>
1

>  <SCORE.INTRA.REPUL.0>
0

>  <SCORE.INTRA.SOLV>
7.59564

>  <SCORE.INTRA.SOLV.lig_0>
-77.2465

>  <SCORE.INTRA.VDW>
8.23624

>  <SCORE.INTRA.VDW.0>
-4.16072

>  <SCORE.INTRA.norm>
0.530449

>  <SCORE.RESTR>
14.153

>  <SCORE.RESTR.CAVITY>
14.153

>  <SCORE.RESTR.norm>
0.456547

>  <SCORE.SYSTEM>
0

>  <SCORE.SYSTEM.CONST>
0

>  <SCORE.SYSTEM.DIHEDRAL>
0

>  <SCORE.SYSTEM.SOLV>
0

>  <SCORE.SYSTEM.norm>
0

>  <SCORE.heavy>
31

>  <SCORE.norm>
0.99809

>  <RMSD>
9.524

$$$$
ligand
 OpenBabel11021811493D
libRbt.so/2013.1/901 2013/11/27
 31 33  0  0  0  0  0  0  0  0999 V2000
   -6.1611   -9.3973  -26.5856 C   0  0  2  0  0  0  0  0  0  0  0  0
   -7.0696   -9.2278  -25.4891 O   0  0  0  0  0  0  0  0  0  0  0  0
   -7.9159  -11.2656  -21.8210 C   0  0  2  0  0  0  0  0  0  0  0  0
   -7.7240  -11.8849  -20.5452 N   0  0  0  0  0  0  0  0  0  0  0  0
   -7.9513   -9.0122  -19.3598 C   0  0  2  0  0  0  0  0  0  0  0  0
   -6.5268   -8.2917  -27.6372 C   0  0  2  0  0  0  0  0  0  0  0  0
   -6.4277   -6.9735  -27.0204 N   0  0  0  0  0  0  0  0  0  0  0  0
   -7.0446  -12.0264  -22.8934 C   0  0  0  0  0  0  0  0  0  0  0  0
   -7.4044   -7.5652  -19.1588 C   0  0  2  0  0  0  0  0  0  0  0  0
   -8.4107   -6.6363  -19.5243 O   0  0  0  0  0  0  0  0  0  0  0  0
   -7.9746   -8.5397  -28.1868 C   0  0  0  0  0  0  0  0  0  0  0  0
   -7.2647  -11.3426  -24.3115 C   0  0  2  0  0  0  0  0  0  0  0  0
   -6.4492  -12.0484  -25.3274 N   0  0  0  0  0  0  0  0  0  0  0  0
   -6.1236   -7.4152  -20.0933 C   0  0  1  0  0  0  0  0  0  0  0  0
   -5.5488   -6.0312  -19.9865 N   0  0  0  0  0  0  0  0  0  0  0  0
   -8.1685  -10.0318  -28.5835 C   0  0  0  0  0  0  0  0  0  0  0  0
   -6.8432   -9.8079  -24.2333 C   0  0  2  0  0  0  0  0  0  0  0  0
   -4.9976   -8.4991  -19.6352 C   0  0  1  0  0  0  0  0  0  0  0  0
   -4.5872   -8.3060  -18.2953 O   0  0  0  0  0  0  0  0  0  0  0  0
   -7.3603  -10.9864  -28.0985 C   0  0  2  0  0  0  0  0  0  0  0  0
   -6.2721  -10.7175  -27.1972 O   0  0  0  0  0  0  0  0  0  0  0  0
   -7.7170   -9.0813  -23.1269 C   0  0  2  0  0  0  0  0  0  0  0  0
   -7.3303   -7.7047  -23.0296 O   0  0  0  0  0  0  0  0  0  0  0  0
   -5.5942   -9.9426  -19.7473 C   0  0  0  0  0  0  0  0  0  0  0  0
   -6.9005  -10.0217  -18.9752 O   0  0  0  0  0  0  0  0  0  0  0  0
   -7.5352  -12.4741  -28.4829 C   0  0  0  0  0  0  0  0  0  0  0  0
   -8.0204  -13.2206  -27.3306 N   0  0  0  0  0  0  0  0  0  0  0  0
   -7.4901   -9.7702  -21.7328 C   0  0  1  0  0  0  0  0  0  0  0  0
   -8.2838   -9.1029  -20.7811 O   0  0  0  0  0  0  0  0  0  0  0  0
   -3.6913   -8.4879  -20.4465 C   0  0  0  0  0  0  0  0  0  0  0  0
   -6.0806   -5.0270  -20.9273 C   0  0  0  0  0  0  0  0  0  0  0  0
  1  2  1  1  0  0  0
  1  6  1  0  0  0  0
  1 21  1  0  0  0  0
  3  4  1  1  0  0  0
  3  8  1  0  0  0  0
  3 28  1  0  0  0  0
  5  9  1  0  0  0  0
  5 25  1  0  0  0  0
  5 29  1  6  0  0  0
  6  7  1  1  0  0  0
  6 11  1  0  0  0  0
  8 12  1  0  0  0  0
  9 10  1  6  0  0  0
  9 14  1  0  0  0  0
 11 16  1  0  0  0  0
 12 13  1  6  0  0  0
 12 17  1  0  0  0  0
 14 15  1  1  0  0  0
 14 18  1  0  0  0  0
 15 31  1  0  0  0  0
 16 20  1  0  0  0  0
 17  2  1  6  0  0  0
 17 22  1  0  0  0  0
 18 19  1  1  0  0  0
 18 24  1  0  0  0  0
 18 30  1  0  0  0  0
 20 21  1  0  0  0  0
 20 26  1  6  0  0  0
 22 23  1  1  0  0  0
 22 28  1  0  0  0  0
 24 25  1  0  0  0  0
 26 27  1  0  0  0  0
 28 29  1  1  0  0  0
M  END
>  <CHROM.1>
-163.85584122,103.18892437,-89.44271073,-79.21767365,-110.01315926,89.06727790
-6.86236651,-9.35421086,-23.14095534,-2.19873060,1.38161427,1.88779955

>  <Name>
ligand

>  <RI>
0

>  <Rbt.Current_Directory>
/home/itssahil/PROJECTS/Mol_Feturizer/New_Systems/rnas/4F8U

>  <Rbt.Executable>
rbdock ($Id: //depot/dev/client3/rdock/2013.1/src/exe/rbdock.cxx#4 $)

>  <Rbt.Library>
libRbt.so (2013.1, Build901 2013/11/27)

>  <Rbt.Parameter_File>
/export/apps/rDock/src/rDock_2013.1_src/data/scripts/dock_solv.prm

>  <Rbt.Receptor>
prm/blind_docking_100.prm

>  <SCORE>
18.2534

>  <SCORE.INTER>
1.42775

>  <SCORE.INTER.CONST>
1

>  <SCORE.INTER.POLAR>
0

>  <SCORE.INTER.ROT>
6

>  <SCORE.INTER.SOLV>
31.6116

>  <SCORE.INTER.VDW>
-17.1854

>  <SCORE.INTER.norm>
0.0460565

>  <SCORE.INTRA>
5.48867

>  <SCORE.INTRA.DIHEDRAL>
-4.17759

>  <SCORE.INTRA.DIHEDRAL.0>
18.77

>  <SCORE.INTRA.POLAR>
0

>  <SCORE.INTRA.POLAR.0>
0

>  <SCORE.INTRA.REPUL>
0

>  <SCORE.INTRA.REPUL.0>
0

>  <SCORE.INTRA.SOLV>
6.53613

>  <SCORE.INTRA.SOLV.lig_0>
-77.2465

>  <SCORE.INTRA.VDW>
4.3094

>  <SCORE.INTRA.VDW.0>
-4.16072

>  <SCORE.INTRA.norm>
0.177054

>  <SCORE.RESTR>
11.337

>  <SCORE.RESTR.CAVITY>
11.337

>  <SCORE.RESTR.norm>
0.365709

>  <SCORE.SYSTEM>
0

>  <SCORE.SYSTEM.CONST>
0

>  <SCORE.SYSTEM.DIHEDRAL>
0

>  <SCORE.SYSTEM.SOLV>
0

>  <SCORE.SYSTEM.norm>
0

>  <SCORE.heavy>
31

>  <SCORE.norm>
0.58882

>  <RMSD>
9.533

$$$$
ligand
 OpenBabel11021811493D
libRbt.so/2013.1/901 2013/11/27
 31 33  0  0  0  0  0  0  0  0999 V2000
   -6.6005  -11.3664  -25.1673 C   0  0  2  0  0  0  0  0  0  0  0  0
   -7.4583  -11.0561  -24.0607 O   0  0  0  0  0  0  0  0  0  0  0  0
   -7.4215  -10.8723  -19.7842 C   0  0  2  0  0  0  0  0  0  0  0  0
   -6.9511  -10.6936  -18.4445 N   0  0  0  0  0  0  0  0  0  0  0  0
   -7.4564   -7.4093  -19.1973 C   0  0  2  0  0  0  0  0  0  0  0  0
   -6.3269  -10.0104  -25.9079 C   0  0  2  0  0  0  0  0  0  0  0  0
   -5.7300   -9.0549  -24.9813 N   0  0  0  0  0  0  0  0  0  0  0  0
   -6.5799  -12.0154  -20.4720 C   0  0  0  0  0  0  0  0  0  0  0  0
   -7.5177   -6.1914  -20.1701 C   0  0  2  0  0  0  0  0  0  0  0  0
   -8.8689   -5.9504  -20.5237 O   0  0  0  0  0  0  0  0  0  0  0  0
   -7.6668   -9.4481  -26.4981 C   0  0  0  0  0  0  0  0  0  0  0  0
   -7.1087  -12.2184  -21.9575 C   0  0  2  0  0  0  0  0  0  0  0  0
   -6.3238  -13.2895  -22.6145 N   0  0  0  0  0  0  0  0  0  0  0  0
   -6.6523   -6.5723  -21.4516 C   0  0  1  0  0  0  0  0  0  0  0  0
   -6.6841   -5.4608  -22.4620 N   0  0  0  0  0  0  0  0  0  0  0  0
   -8.4487  -10.5604  -27.2549 C   0  0  0  0  0  0  0  0  0  0  0  0
   -6.9639  -10.8524  -22.7650 C   0  0  2  0  0  0  0  0  0  0  0  0
   -5.1111   -6.8378  -20.9964 C   0  0  1  0  0  0  0  0  0  0  0  0
   -4.5288   -5.6958  -20.3982 O   0  0  0  0  0  0  0  0  0  0  0  0
   -8.1986  -11.8584  -27.0262 C   0  0  2  0  0  0  0  0  0  0  0  0
   -7.2094  -12.3194  -26.0893 O   0  0  0  0  0  0  0  0  0  0  0  0
   -7.7973   -9.7201  -22.0309 C   0  0  2  0  0  0  0  0  0  0  0  0
   -7.6554   -8.4796  -22.7344 O   0  0  0  0  0  0  0  0  0  0  0  0
   -5.0756   -7.9971  -19.9443 C   0  0  0  0  0  0  0  0  0  0  0  0
   -6.0285   -7.6861  -18.8024 O   0  0  0  0  0  0  0  0  0  0  0  0
   -8.9630  -12.9783  -27.7701 C   0  0  0  0  0  0  0  0  0  0  0  0
  -10.1917  -13.2881  -27.0527 N   0  0  0  0  0  0  0  0  0  0  0  0
   -7.2642   -9.5336  -20.5643 C   0  0  1  0  0  0  0  0  0  0  0  0
   -8.0296   -8.5275  -19.9456 O   0  0  0  0  0  0  0  0  0  0  0  0
   -4.1392   -7.2234  -22.1239 C   0  0  0  0  0  0  0  0  0  0  0  0
   -6.5429   -4.0909  -21.9331 C   0  0  0  0  0  0  0  0  0  0  0  0
  1  2  1  1  0  0  0
  1  6  1  0  0  0  0
  1 21  1  0  0  0  0
  3  4  1  1  0  0  0
  3  8  1  0  0  0  0
  3 28  1  0  0  0  0
  5  9  1  0  0  0  0
  5 25  1  0  0  0  0
  5 29  1  6  0  0  0
  6  7  1  1  0  0  0
  6 11  1  0  0  0  0
  8 12  1  0  0  0  0
  9 10  1  6  0  0  0
  9 14  1  0  0  0  0
 11 16  1  0  0  0  0
 12 13  1  6  0  0  0
 12 17  1  0  0  0  0
 14 15  1  6  0  0  0
 14 18  1  0  0  0  0
 15 31  1  0  0  0  0
 16 20  1  0  0  0  0
 17  2  1  6  0  0  0
 17 22  1  0  0  0  0
 18 19  1  1  0  0  0
 18 24  1  0  0  0  0
 18 30  1  0  0  0  0
 20 21  1  0  0  0  0
 20 26  1  6  0  0  0
 22 23  1  6  0  0  0
 22 28  1  0  0  0  0
 24 25  1  0  0  0  0
 26 27  1  0  0  0  0
 28 29  1  1  0  0  0
M  END
>  <CHROM.1>
-97.00808034,101.44205986,42.81110278,-96.67732747,-86.89706152,108.76622900
-7.01507274,-9.29083546,-22.60193621,-2.91085550,1.36264703,2.19771834

>  <Name>
ligand

>  <RI>
0

>  <Rbt.Current_Directory>
/home/itssahil/PROJECTS/Mol_Feturizer/New_Systems/rnas/4F8U

>  <Rbt.Executable>
rbdock ($Id: //depot/dev/client3/rdock/2013.1/src/exe/rbdock.cxx#4 $)

>  <Rbt.Library>
libRbt.so (2013.1, Build901 2013/11/27)

>  <Rbt.Parameter_File>
/export/apps/rDock/src/rDock_2013.1_src/data/scripts/dock_solv.prm

>  <Rbt.Receptor>
prm/blind_docking_100.prm

>  <SCORE>
48.9768

>  <SCORE.INTER>
24.2035

>  <SCORE.INTER.CONST>
1

>  <SCORE.INTER.POLAR>
0

>  <SCORE.INTER.ROT>
6

>  <SCORE.INTER.SOLV>
34.6726

>  <SCORE.INTER.VDW>
-3.02187

>  <SCORE.INTER.norm>
0.780758

>  <SCORE.INTRA>
10.1339

>  <SCORE.INTRA.DIHEDRAL>
6.19738

>  <SCORE.INTRA.DIHEDRAL.0>
18.77

>  <SCORE.INTRA.POLAR>
0

>  <SCORE.INTRA.POLAR.0>
0

>  <SCORE.INTRA.REPUL>
0.00276433

>  <SCORE.INTRA.REPUL.0>
0

>  <SCORE.INTRA.SOLV>
3.43297

>  <SCORE.INTRA.SOLV.lig_0>
-77.2465

>  <SCORE.INTRA.VDW>
5.30495

>  <SCORE.INTRA.VDW.0>
-4.16072

>  <SCORE.INTRA.norm>
0.326902

>  <SCORE.RESTR>
14.6393

>  <SCORE.RESTR.CAVITY>
14.6393

>  <SCORE.RESTR.norm>
0.472237

>  <SCORE.SYSTEM>
0

>  <SCORE.SYSTEM.CONST>
0

>  <SCORE.SYSTEM.DIHEDRAL>
0

>  <SCORE.SYSTEM.SOLV>
0

>  <SCORE.SYSTEM.norm>
0

>  <SCORE.heavy>
31

>  <SCORE.norm>
1.5799

>  <RMSD>
9.545

$$$$
ligand
 OpenBabel11021811493D
libRbt.so/2013.1/901 2013/11/27
 31 33  0  0  0  0  0  0  0  0999 V2000
   -7.6101   -9.1826  -16.9216 C   0  0  2  0  0  0  0  0  0  0  0  0
   -7.8608  -10.3749  -17.6779 O   0  0  0  0  0  0  0  0  0  0  0  0
   -6.7918  -10.8409  -21.7966 C   0  0  2  0  0  0  0  0  0  0  0  0
   -6.8931  -10.8594  -23.2240 N   0  0  0  0  0  0  0  0  0  0  0  0
   -6.2592   -7.8349  -23.1060 C   0  0  2  0  0  0  0  0  0  0  0  0
   -6.2506   -9.4123  -16.1726 C   0  0  2  0  0  0  0  0  0  0  0  0
   -5.1975   -9.6990  -17.1404 N   0  0  0  0  0  0  0  0  0  0  0  0
   -7.8440  -11.8520  -21.1977 C   0  0  0  0  0  0  0  0  0  0  0  0
   -5.0357   -6.8722  -23.2035 C   0  0  2  0  0  0  0  0  0  0  0  0
   -3.8424   -7.6341  -23.1385 O   0  0  0  0  0  0  0  0  0  0  0  0
   -6.4005  -10.5920  -15.1500 C   0  0  0  0  0  0  0  0  0  0  0  0
   -7.7251  -11.8364  -19.6124 C   0  0  2  0  0  0  0  0  0  0  0  0
   -8.7107  -12.7820  -19.0382 N   0  0  0  0  0  0  0  0  0  0  0  0
   -5.1354   -5.8632  -21.9754 C   0  0  1  0  0  0  0  0  0  0  0  0
   -3.9702   -4.9147  -21.9727 N   0  0  0  0  0  0  0  0  0  0  0  0
   -7.6947  -10.4287  -14.3017 C   0  0  0  0  0  0  0  0  0  0  0  0
   -7.9950  -10.3616  -19.0731 C   0  0  2  0  0  0  0  0  0  0  0  0
   -6.5186   -5.0113  -22.0941 C   0  0  1  0  0  0  0  0  0  0  0  0
   -6.5768   -4.2551  -23.2881 O   0  0  0  0  0  0  0  0  0  0  0  0
   -8.7010   -9.6463  -14.7200 C   0  0  2  0  0  0  0  0  0  0  0  0
   -8.6675   -8.9083  -15.9541 O   0  0  0  0  0  0  0  0  0  0  0  0
   -6.9395   -9.3680  -19.7169 C   0  0  2  0  0  0  0  0  0  0  0  0
   -7.1871   -8.0329  -19.2583 O   0  0  0  0  0  0  0  0  0  0  0  0
   -7.7346   -5.9980  -22.0954 C   0  0  0  0  0  0  0  0  0  0  0  0
   -7.5437   -7.0496  -23.1755 O   0  0  0  0  0  0  0  0  0  0  0  0
   -9.9938   -9.4691  -13.8900 C   0  0  0  0  0  0  0  0  0  0  0  0
  -10.0479   -8.1151  -13.3568 N   0  0  0  0  0  0  0  0  0  0  0  0
   -7.0684   -9.3969  -21.2829 C   0  0  1  0  0  0  0  0  0  0  0  0
   -6.1151   -8.5094  -21.8164 O   0  0  0  0  0  0  0  0  0  0  0  0
   -6.7705   -3.9882  -20.9742 C   0  0  0  0  0  0  0  0  0  0  0  0
   -3.4308   -4.5367  -23.2927 C   0  0  0  0  0  0  0  0  0  0  0  0
  1  2  1  1  0  0  0
  1  6  1  0  0  0  0
  1 21  1  0  0  0  0
  3  4  1  6  0  0  0
  3  8  1  0  0  0  0
  3 28  1  0  0  0  0
  5  9  1  0  0  0  0
  5 25  1  0  0  0  0
  5 29  1  1  0  0  0
  6  7  1  6  0  0  0
  6 11  1  0  0  0  0
  8 12  1  0  0  0  0
  9 10  1  1  0  0  0
  9 14  1  0  0  0  0
 11 16  1  0  0  0  0
 12 13  1  1  0  0  0
 12 17  1  0  0  0  0
 14 15  1  6  0  0  0
 14 18  1  0  0  0  0
 15 31  1  0  0  0  0
 16 20  1  0  0  0  0
 17  2  1  1  0  0  0
 17 22  1  0  0  0  0
 18 19  1  6  0  0  0
 18 24  1  0  0  0  0
 18 30  1  0  0  0  0
 20 21  1  0  0  0  0
 20 26  1  1  0  0  0
 22 23  1  1  0  0  0
 22 28  1  0  0  0  0
 24 25  1  0  0  0  0
 26 27  1  0  0  0  0
 28 29  1  6  0  0  0
M  END
>  <CHROM.1>
-120.28268240,175.03593966,32.51442802,159.38741966,110.45850982,87.41778210
-6.91168690,-8.46264990,-19.69252352,-3.01161577,-1.24652312,-2.51026869

>  <Name>
ligand

>  <RI>
0

>  <Rbt.Current_Directory>
/home/itssahil/PROJECTS/Mol_Feturizer/New_Systems/rnas/4F8U

>  <Rbt.Executable>
rbdock ($Id: //depot/dev/client3/rdock/2013.1/src/exe/rbdock.cxx#4 $)

>  <Rbt.Library>
libRbt.so (2013.1, Build901 2013/11/27)

>  <Rbt.Parameter_File>
/export/apps/rDock/src/rDock_2013.1_src/data/scripts/dock_solv.prm

>  <Rbt.Receptor>
prm/blind_docking_80.prm

>  <SCORE>
11.522

>  <SCORE.INTER>
-0.905423

>  <SCORE.INTER.CONST>
1

>  <SCORE.INTER.POLAR>
0

>  <SCORE.INTER.ROT>
6

>  <SCORE.INTER.SOLV>
22.293

>  <SCORE.INTER.VDW>
-15.6346

>  <SCORE.INTER.norm>
-0.0292072

>  <SCORE.INTRA>
2.11825

>  <SCORE.INTRA.DIHEDRAL>
-4.112

>  <SCORE.INTRA.DIHEDRAL.0>
18.77

>  <SCORE.INTRA.POLAR>
0

>  <SCORE.INTRA.POLAR.0>
0

>  <SCORE.INTRA.REPUL>
0

>  <SCORE.INTRA.REPUL.0>
0

>  <SCORE.INTRA.SOLV>
-0.0803411

>  <SCORE.INTRA.SOLV.lig_0>
-77.2465

>  <SCORE.INTRA.VDW>
4.21442

>  <SCORE.INTRA.VDW.0>
-4.16072

>  <SCORE.INTRA.norm>
0.0683308

>  <SCORE.RESTR>
10.3091

>  <SCORE.RESTR.CAVITY>
10.3091

>  <SCORE.RESTR.norm>
0.332553

>  <SCORE.SYSTEM>
0

>  <SCORE.SYSTEM.CONST>
0

>  <SCORE.SYSTEM.DIHEDRAL>
0

>  <SCORE.SYSTEM.SOLV>
0

>  <SCORE.SYSTEM.norm>
0

>  <SCORE.heavy>
31

>  <SCORE.norm>
0.371676

>  <RMSD>
9.554

$$$$
ligand
 OpenBabel11021811493D
libRbt.so/2013.1/901 2013/11/27
 31 33  0  0  0  0  0  0  0  0999 V2000
   -4.6338  -12.0373   -9.6453 C   0  0  2  0  0  0  0  0  0  0  0  0
   -5.3727  -11.2100  -10.5542 O   0  0  0  0  0  0  0  0  0  0  0  0
   -9.3318   -9.9796  -11.6198 C   0  0  2  0  0  0  0  0  0  0  0  0
  -10.7521   -9.8108  -11.5715 N   0  0  0  0  0  0  0  0  0  0  0  0
   -8.3504   -6.9708  -11.1635 C   0  0  2  0  0  0  0  0  0  0  0  0
   -3.3099  -12.4357  -10.3872 C   0  0  2  0  0  0  0  0  0  0  0  0
   -2.5817  -11.2328  -10.7752 N   0  0  0  0  0  0  0  0  0  0  0  0
   -9.0036  -11.5209  -11.6902 C   0  0  0  0  0  0  0  0  0  0  0  0
   -9.1474   -5.6517  -10.9224 C   0  0  2  0  0  0  0  0  0  0  0  0
   -9.0571   -5.3016   -9.5520 O   0  0  0  0  0  0  0  0  0  0  0  0
   -3.6484  -13.3093  -11.6450 C   0  0  0  0  0  0  0  0  0  0  0  0
   -7.4260  -11.7068  -11.7518 C   0  0  2  0  0  0  0  0  0  0  0  0
   -7.1054  -13.1519  -11.8166 N   0  0  0  0  0  0  0  0  0  0  0  0
  -10.6579   -5.9349  -11.3401 C   0  0  1  0  0  0  0  0  0  0  0  0
  -11.5090   -4.7189  -11.1072 N   0  0  0  0  0  0  0  0  0  0  0  0
   -4.6610  -14.4338  -11.2822 C   0  0  0  0  0  0  0  0  0  0  0  0
   -6.7622  -11.0508  -10.4603 C   0  0  2  0  0  0  0  0  0  0  0  0
  -10.7109   -6.3308  -12.9191 C   0  0  1  0  0  0  0  0  0  0  0  0
  -10.2151   -5.2943  -13.7443 O   0  0  0  0  0  0  0  0  0  0  0  0
   -5.4245  -14.3477  -10.1825 C   0  0  2  0  0  0  0  0  0  0  0  0
   -5.3700  -13.2392   -9.2676 O   0  0  0  0  0  0  0  0  0  0  0  0
   -7.1361   -9.5104  -10.4053 C   0  0  2  0  0  0  0  0  0  0  0  0
   -6.5647   -8.9137   -9.2342 O   0  0  0  0  0  0  0  0  0  0  0  0
   -9.8256   -7.5991  -13.1637 C   0  0  0  0  0  0  0  0  0  0  0  0
   -8.4277   -7.3652  -12.6160 O   0  0  0  0  0  0  0  0  0  0  0  0
   -6.4345  -15.4559   -9.8037 C   0  0  0  0  0  0  0  0  0  0  0  0
   -6.7878  -15.3318   -8.3965 N   0  0  0  0  0  0  0  0  0  0  0  0
   -8.6977   -9.3439  -10.3473 C   0  0  1  0  0  0  0  0  0  0  0  0
   -8.9893   -7.9676  -10.3050 O   0  0  0  0  0  0  0  0  0  0  0  0
  -12.1074   -6.6412  -13.4829 C   0  0  0  0  0  0  0  0  0  0  0  0
  -12.1659   -4.6221   -9.7899 C   0  0  0  0  0  0  0  0  0  0  0  0
  1  2  1  6  0  0  0
  1  6  1  0  0  0  0
  1 21  1  0  0  0  0
  3  4  1  1  0  0  0
  3  8  1  0  0  0  0
  3 28  1  0  0  0  0
  5  9  1  0  0  0  0
  5 25  1  0  0  0  0
  5 29  1  1  0  0  0
  6  7  1  6  0  0  0
  6 11  1  0  0  0  0
  8 12  1  0  0  0  0
  9 10  1  1  0  0  0
  9 14  1  0  0  0  0
 11 16  1  0  0  0  0
 12 13  1  1  0  0  0
 12 17  1  0  0  0  0
 14 15  1  6  0  0  0
 14 18  1  0  0  0  0
 15 31  1  0  0  0  0
 16 20  1  0  0  0  0
 17  2  1  6  0  0  0
 17 22  1  0  0  0  0
 18 19  1  6  0  0  0
 18 24  1  0  0  0  0
 18 30  1  0  0  0  0
 20 21  1  0  0  0  0
 20 26  1  1  0  0  0
 22 23  1  1  0  0  0
 22 28  1  0  0  0  0
 24 25  1  0  0  0  0
 26 27  1  0  0  0  0
 28 29  1  6  0  0  0
M  END
>  <CHROM.1>
156.95256569,171.07821538,-91.36312224,-113.81279136,161.48082268,-74.16242260
-7.82698743,-9.70762739,-10.99091312,-0.90751120,-0.33275120,0.06732044

>  <Name>
ligand

>  <RI>
0

>  <Rbt.Current_Directory>
/home/itssahil/PROJECTS/Mol_Feturizer/New_Systems/rnas/4F8U

>  <Rbt.Executable>
rbdock ($Id: //depot/dev/client3/rdock/2013.1/src/exe/rbdock.cxx#4 $)

>  <Rbt.Library>
libRbt.so (2013.1, Build901 2013/11/27)

>  <Rbt.Parameter_File>
/export/apps/rDock/src/rDock_2013.1_src/data/scripts/dock_solv.prm

>  <Rbt.Receptor>
prm/blind_docking_20.prm

>  <SCORE>
8.84914

>  <SCORE.INTER>
-2.84151

>  <SCORE.INTER.CONST>
1

>  <SCORE.INTER.POLAR>
0

>  <SCORE.INTER.ROT>
6

>  <SCORE.INTER.SOLV>
20.6082

>  <SCORE.INTER.VDW>
-16.3637

>  <SCORE.INTER.norm>
-0.0916616

>  <SCORE.INTRA>
3.78626

>  <SCORE.INTRA.DIHEDRAL>
-4.28212

>  <SCORE.INTRA.DIHEDRAL.0>
18.77

>  <SCORE.INTRA.POLAR>
0

>  <SCORE.INTRA.POLAR.0>
0

>  <SCORE.INTRA.REPUL>
0

>  <SCORE.INTRA.REPUL.0>
0

>  <SCORE.INTRA.SOLV>
5.45786

>  <SCORE.INTRA.SOLV.lig_0>
-77.2465

>  <SCORE.INTRA.VDW>
3.19839

>  <SCORE.INTRA.VDW.0>
-4.16072

>  <SCORE.INTRA.norm>
0.122137

>  <SCORE.RESTR>
7.90439

>  <SCORE.RESTR.CAVITY>
7.90439

>  <SCORE.RESTR.norm>
0.25498

>  <SCORE.SYSTEM>
0

>  <SCORE.SYSTEM.CONST>
0

>  <SCORE.SYSTEM.DIHEDRAL>
0

>  <SCORE.SYSTEM.SOLV>
0

>  <SCORE.SYSTEM.norm>
0

>  <SCORE.heavy>
31

>  <SCORE.norm>
0.285456

>  <RMSD>
9.562

$$$$
ligand
 OpenBabel11021811493D
libRbt.so/2013.1/901 2013/11/27
 31 33  0  0  0  0  0  0  0  0999 V2000
   -4.7929  -12.5533   -9.8640 C   0  0  2  0  0  0  0  0  0  0  0  0
   -5.7838  -11.7210  -10.4819 O   0  0  0  0  0  0  0  0  0  0  0  0
   -9.8338  -10.4400   -9.9525 C   0  0  2  0  0  0  0  0  0  0  0  0
  -11.0576  -10.0610   -9.3148 N   0  0  0  0  0  0  0  0  0  0  0  0
   -8.2687   -7.3717  -10.8848 C   0  0  2  0  0  0  0  0  0  0  0  0
   -3.5275  -12.4951  -10.7900 C   0  0  2  0  0  0  0  0  0  0  0  0
   -3.0896  -11.1117  -10.9391 N   0  0  0  0  0  0  0  0  0  0  0  0
   -9.4756  -11.9173   -9.5316 C   0  0  0  0  0  0  0  0  0  0  0  0
   -8.9829   -5.9868  -10.9565 C   0  0  2  0  0  0  0  0  0  0  0  0
   -8.9597   -5.3882   -9.6720 O   0  0  0  0  0  0  0  0  0  0  0  0
   -3.8622  -13.1248  -12.1869 C   0  0  0  0  0  0  0  0  0  0  0  0
   -8.1202  -12.3399  -10.2469 C   0  0  2  0  0  0  0  0  0  0  0  0
   -7.7725  -13.7264   -9.8574 N   0  0  0  0  0  0  0  0  0  0  0  0
  -10.4785   -6.2560  -11.4330 C   0  0  1  0  0  0  0  0  0  0  0  0
  -11.2535   -4.9705  -11.4979 N   0  0  0  0  0  0  0  0  0  0  0  0
   -4.5948  -14.4874  -12.0191 C   0  0  0  0  0  0  0  0  0  0  0  0
   -6.9578  -11.3375   -9.8190 C   0  0  2  0  0  0  0  0  0  0  0  0
  -10.4539   -6.9413  -12.9104 C   0  0  1  0  0  0  0  0  0  0  0  0
   -9.8306   -6.1113  -13.8714 O   0  0  0  0  0  0  0  0  0  0  0  0
   -5.2099  -14.8042  -10.8698 C   0  0  2  0  0  0  0  0  0  0  0  0
   -5.2400  -13.9353   -9.7240 O   0  0  0  0  0  0  0  0  0  0  0  0
   -7.3633   -9.8603  -10.2301 C   0  0  2  0  0  0  0  0  0  0  0  0
   -6.3360   -8.9453   -9.8284 O   0  0  0  0  0  0  0  0  0  0  0  0
   -9.6478   -8.2822  -12.8445 C   0  0  0  0  0  0  0  0  0  0  0  0
   -8.2766   -8.0301  -12.2404 O   0  0  0  0  0  0  0  0  0  0  0  0
   -5.9408  -16.1542  -10.6827 C   0  0  0  0  0  0  0  0  0  0  0  0
   -7.3800  -15.9325  -10.6838 N   0  0  0  0  0  0  0  0  0  0  0  0
   -8.7051   -9.4592   -9.5171 C   0  0  1  0  0  0  0  0  0  0  0  0
   -9.0338   -8.1482   -9.9098 O   0  0  0  0  0  0  0  0  0  0  0  0
  -11.8282   -7.2716  -13.5158 C   0  0  0  0  0  0  0  0  0  0  0  0
  -12.1631   -4.6967  -10.3693 C   0  0  0  0  0  0  0  0  0  0  0  0
  1  2  1  6  0  0  0
  1  6  1  0  0  0  0
  1 21  1  0  0  0  0
  3  4  1  1  0  0  0
  3  8  1  0  0  0  0
  3 28  1  0  0  0  0
  5  9  1  0  0  0  0
  5 25  1  0  0  0  0
  5 29  1  1  0  0  0
  6  7  1  6  0  0  0
  6 11  1  0  0  0  0
  8 12  1  0  0  0  0
  9 10  1  1  0  0  0
  9 14  1  0  0  0  0
 11 16  1  0  0  0  0
 12 13  1  1  0  0  0
 12 17  1  0  0  0  0
 14 15  1  6  0  0  0
 14 18  1  0  0  0  0
 15 31  1  0  0  0  0
 16 20  1  0  0  0  0
 17  2  1  6  0  0  0
 17 22  1  0  0  0  0
 18 19  1  6  0  0  0
 18 24  1  0  0  0  0
 18 30  1  0  0  0  0
 20 21  1  0  0  0  0
 20 26  1  1  0  0  0
 22 23  1  1  0  0  0
 22 28  1  0  0  0  0
 24 25  1  0  0  0  0
 26 27  1  0  0  0  0
 28 29  1  6  0  0  0
M  END
>  <CHROM.1>
-168.15007474,-178.34138704,-101.15496162,-96.30443988,-107.47819983,-115.63774582
-7.88771975,-10.07761628,-10.86510919,-0.98023365,0.12667051,-0.19619576

>  <Name>
ligand

>  <RI>
0

>  <Rbt.Current_Directory>
/home/itssahil/PROJECTS/Mol_Feturizer/New_Systems/rnas/4F8U

>  <Rbt.Executable>
rbdock ($Id: //depot/dev/client3/rdock/2013.1/src/exe/rbdock.cxx#4 $)

>  <Rbt.Library>
libRbt.so (2013.1, Build901 2013/11/27)

>  <Rbt.Parameter_File>
/export/apps/rDock/src/rDock_2013.1_src/data/scripts/dock_solv.prm

>  <Rbt.Receptor>
prm/blind_docking_20.prm

>  <SCORE>
16.6137

>  <SCORE.INTER>
4.86281

>  <SCORE.INTER.CONST>
1

>  <SCORE.INTER.POLAR>
0

>  <SCORE.INTER.ROT>
6

>  <SCORE.INTER.SOLV>
14.5894

>  <SCORE.INTER.VDW>
-9.22125

>  <SCORE.INTER.norm>
0.156865

>  <SCORE.INTRA>
4.11013

>  <SCORE.INTRA.DIHEDRAL>
-3.40376

>  <SCORE.INTRA.DIHEDRAL.0>
18.77

>  <SCORE.INTRA.POLAR>
0

>  <SCORE.INTRA.POLAR.0>
0

>  <SCORE.INTRA.REPUL>
0

>  <SCORE.INTRA.REPUL.0>
0

>  <SCORE.INTRA.SOLV>
4.32752

>  <SCORE.INTRA.SOLV.lig_0>
-77.2465

>  <SCORE.INTRA.VDW>
3.64826

>  <SCORE.INTRA.VDW.0>
-4.16072

>  <SCORE.INTRA.norm>
0.132585

>  <SCORE.RESTR>
7.64074

>  <SCORE.RESTR.CAVITY>
7.64074

>  <SCORE.RESTR.norm>
0.246475

>  <SCORE.SYSTEM>
0

>  <SCORE.SYSTEM.CONST>
0

>  <SCORE.SYSTEM.DIHEDRAL>
0

>  <SCORE.SYSTEM.SOLV>
0

>  <SCORE.SYSTEM.norm>
0

>  <SCORE.heavy>
31

>  <SCORE.norm>
0.535925

>  <RMSD>
9.573

$$$$
ligand
 OpenBabel11021811493D
libRbt.so/2013.1/901 2013/11/27
 31 33  0  0  0  0  0  0  0  0999 V2000
   -7.5535  -10.9978  -16.6593 C   0  0  2  0  0  0  0  0  0  0  0  0
   -7.1818  -11.6526  -17.8798 O   0  0  0  0  0  0  0  0  0  0  0  0
   -7.1778  -10.4054  -21.9747 C   0  0  2  0  0  0  0  0  0  0  0  0
   -7.6511  -10.0138  -23.2673 N   0  0  0  0  0  0  0  0  0  0  0  0
   -5.8269   -7.8309  -21.6296 C   0  0  2  0  0  0  0  0  0  0  0  0
   -6.8325  -11.7760  -15.5033 C   0  0  2  0  0  0  0  0  0  0  0  0
   -5.3916  -11.7713  -15.7304 N   0  0  0  0  0  0  0  0  0  0  0  0
   -7.7093  -11.8556  -21.6549 C   0  0  0  0  0  0  0  0  0  0  0  0
   -5.4548   -6.4697  -20.9649 C   0  0  2  0  0  0  0  0  0  0  0  0
   -5.5538   -6.6009  -19.5572 O   0  0  0  0  0  0  0  0  0  0  0  0
   -7.3780  -13.2447  -15.4310 C   0  0  0  0  0  0  0  0  0  0  0  0
   -7.1764  -12.2926  -20.2223 C   0  0  2  0  0  0  0  0  0  0  0  0
   -7.6710  -13.6539  -19.9101 N   0  0  0  0  0  0  0  0  0  0  0  0
   -6.4860   -5.3855  -21.5103 C   0  0  1  0  0  0  0  0  0  0  0  0
   -6.2196   -4.0424  -20.8918 N   0  0  0  0  0  0  0  0  0  0  0  0
   -8.9334  -13.2608  -15.4767 C   0  0  0  0  0  0  0  0  0  0  0  0
   -7.6855  -11.2545  -19.1259 C   0  0  2  0  0  0  0  0  0  0  0  0
   -6.3343   -5.2693  -23.1278 C   0  0  1  0  0  0  0  0  0  0  0  0
   -5.0333   -4.8690  -23.5127 O   0  0  0  0  0  0  0  0  0  0  0  0
   -9.6216  -12.2114  -15.9508 C   0  0  2  0  0  0  0  0  0  0  0  0
   -8.9961  -11.0123  -16.4406 O   0  0  0  0  0  0  0  0  0  0  0  0
   -7.1583   -9.8046  -19.4938 C   0  0  2  0  0  0  0  0  0  0  0  0
   -7.6301   -8.8569  -18.5278 O   0  0  0  0  0  0  0  0  0  0  0  0
   -6.6133   -6.6679  -23.7746 C   0  0  0  0  0  0  0  0  0  0  0  0
   -5.7271   -7.7201  -23.1294 O   0  0  0  0  0  0  0  0  0  0  0  0
  -11.1673  -12.2072  -16.0019 C   0  0  0  0  0  0  0  0  0  0  0  0
  -11.6829  -11.2317  -15.0517 N   0  0  0  0  0  0  0  0  0  0  0  0
   -7.6915   -9.3889  -20.9124 C   0  0  1  0  0  0  0  0  0  0  0  0
   -7.1997   -8.1030  -21.2048 O   0  0  0  0  0  0  0  0  0  0  0  0
   -7.2698   -4.2609  -23.8152 C   0  0  0  0  0  0  0  0  0  0  0  0
   -4.8331   -3.5457  -20.9774 C   0  0  0  0  0  0  0  0  0  0  0  0
  1  2  1  6  0  0  0
  1  6  1  0  0  0  0
  1 21  1  0  0  0  0
  3  4  1  6  0  0  0
  3  8  1  0  0  0  0
  3 28  1  0  0  0  0
  5  9  1  0  0  0  0
  5 25  1  0  0  0  0
  5 29  1  6  0  0  0
  6  7  1  6  0  0  0
  6 11  1  0  0  0  0
  8 12  1  0  0  0  0
  9 10  1  1  0  0  0
  9 14  1  0  0  0  0
 11 16  1  0  0  0  0
 12 13  1  1  0  0  0
 12 17  1  0  0  0  0
 14 15  1  1  0  0  0
 14 18  1  0  0  0  0
 15 31  1  0  0  0  0
 16 20  1  0  0  0  0
 17  2  1  1  0  0  0
 17 22  1  0  0  0  0
 18 19  1  6  0  0  0
 18 24  1  0  0  0  0
 18 30  1  0  0  0  0
 20 21  1  0  0  0  0
 20 26  1  1  0  0  0
 22 23  1  1  0  0  0
 22 28  1  0  0  0  0
 24 25  1  0  0  0  0
 26 27  1  0  0  0  0
 28 29  1  6  0  0  0
M  END
>  <CHROM.1>
177.52124298,-143.75133435,52.02259850,-174.27117881,111.91944437,-42.45305153
-7.23854843,-9.23184230,-19.66918391,-2.92141894,-1.28440367,-2.08430355

>  <Name>
ligand

>  <RI>
0

>  <Rbt.Current_Directory>
/home/itssahil/PROJECTS/Mol_Feturizer/New_Systems/rnas/4F8U

>  <Rbt.Executable>
rbdock ($Id: //depot/dev/client3/rdock/2013.1/src/exe/rbdock.cxx#4 $)

>  <Rbt.Library>
libRbt.so (2013.1, Build901 2013/11/27)

>  <Rbt.Parameter_File>
/export/apps/rDock/src/rDock_2013.1_src/data/scripts/dock_solv.prm

>  <Rbt.Receptor>
prm/pocket_docking_6.prm

>  <SCORE>
-12.5815

>  <SCORE.INTER>
-9.67202

>  <SCORE.INTER.CONST>
1

>  <SCORE.INTER.POLAR>
0

>  <SCORE.INTER.ROT>
6

>  <SCORE.INTER.SOLV>
14.511

>  <SCORE.INTER.VDW>
-18.885

>  <SCORE.INTER.norm>
-0.312001

>  <SCORE.INTRA>
-2.90943

>  <SCORE.INTRA.DIHEDRAL>
-10.5876

>  <SCORE.INTRA.DIHEDRAL.0>
18.77

>  <SCORE.INTRA.POLAR>
0

>  <SCORE.INTRA.POLAR.0>
0

>  <SCORE.INTRA.REPUL>
0

>  <SCORE.INTRA.REPUL.0>
0

>  <SCORE.INTRA.SOLV>
-0.898679

>  <SCORE.INTRA.SOLV.lig_0>
-77.2465

>  <SCORE.INTRA.VDW>
2.83369

>  <SCORE.INTRA.VDW.0>
-4.16072

>  <SCORE.INTRA.norm>
-0.0938525

>  <SCORE.RESTR>
0

>  <SCORE.RESTR.CAVITY>
0

>  <SCORE.RESTR.norm>
0

>  <SCORE.SYSTEM>
0

>  <SCORE.SYSTEM.CONST>
0

>  <SCORE.SYSTEM.DIHEDRAL>
0

>  <SCORE.SYSTEM.SOLV>
0

>  <SCORE.SYSTEM.norm>
0

>  <SCORE.heavy>
31

>  <SCORE.norm>
-0.405853

>  <RMSD>
9.579

$$$$
ligand
 OpenBabel11021811493D
libRbt.so/2013.1/901 2013/11/27
 31 33  0  0  0  0  0  0  0  0999 V2000
   -6.3088   -9.2649  -26.5521 C   0  0  2  0  0  0  0  0  0  0  0  0
   -7.2447   -9.2502  -25.4657 O   0  0  0  0  0  0  0  0  0  0  0  0
   -7.8716  -11.3129  -21.7676 C   0  0  2  0  0  0  0  0  0  0  0  0
   -7.6086  -11.9169  -20.4971 N   0  0  0  0  0  0  0  0  0  0  0  0
   -7.9385   -9.0522  -19.3122 C   0  0  2  0  0  0  0  0  0  0  0  0
   -6.8911   -8.3068  -27.6498 C   0  0  2  0  0  0  0  0  0  0  0  0
   -7.0837   -6.9743  -27.0884 N   0  0  0  0  0  0  0  0  0  0  0  0
   -6.9984  -12.0340  -22.8656 C   0  0  0  0  0  0  0  0  0  0  0  0
   -7.4220   -7.5900  -19.1434 C   0  0  2  0  0  0  0  0  0  0  0  0
   -8.4620   -6.6904  -19.4868 O   0  0  0  0  0  0  0  0  0  0  0  0
   -8.2460   -8.8816  -28.1918 C   0  0  0  0  0  0  0  0  0  0  0  0
   -7.2973  -11.3674  -24.2775 C   0  0  2  0  0  0  0  0  0  0  0  0
   -6.4808  -12.0361  -25.3174 N   0  0  0  0  0  0  0  0  0  0  0  0
   -6.1749   -7.4188  -20.1189 C   0  0  1  0  0  0  0  0  0  0  0  0
   -5.6318   -6.0200  -20.0444 N   0  0  0  0  0  0  0  0  0  0  0  0
   -8.1112  -10.3953  -28.5263 C   0  0  0  0  0  0  0  0  0  0  0  0
   -6.9499   -9.8135  -24.2165 C   0  0  2  0  0  0  0  0  0  0  0  0
   -5.0085   -8.4696  -19.6850 C   0  0  1  0  0  0  0  0  0  0  0  0
   -4.5618   -8.2515  -18.3607 O   0  0  0  0  0  0  0  0  0  0  0  0
   -7.1226  -11.1339  -28.0000 C   0  0  2  0  0  0  0  0  0  0  0  0
   -6.1274  -10.6017  -27.1083 O   0  0  0  0  0  0  0  0  0  0  0  0
   -7.8228   -9.1265  -23.0843 C   0  0  2  0  0  0  0  0  0  0  0  0
   -7.5016   -7.7322  -23.0027 O   0  0  0  0  0  0  0  0  0  0  0  0
   -5.5720   -9.9285  -19.7636 C   0  0  0  0  0  0  0  0  0  0  0  0
   -6.8514  -10.0312  -18.9502 O   0  0  0  0  0  0  0  0  0  0  0  0
   -6.9704  -12.6388  -28.3224 C   0  0  0  0  0  0  0  0  0  0  0  0
   -7.7480  -12.9631  -29.5101 N   0  0  0  0  0  0  0  0  0  0  0  0
   -7.5176   -9.7979  -21.6966 C   0  0  1  0  0  0  0  0  0  0  0  0
   -8.3125   -9.1669  -20.7215 O   0  0  0  0  0  0  0  0  0  0  0  0
   -3.7287   -8.4351  -20.5367 C   0  0  0  0  0  0  0  0  0  0  0  0
   -6.2878   -5.0164  -20.9039 C   0  0  0  0  0  0  0  0  0  0  0  0
  1  2  1  1  0  0  0
  1  6  1  0  0  0  0
  1 21  1  0  0  0  0
  3  4  1  1  0  0  0
  3  8  1  0  0  0  0
  3 28  1  0  0  0  0
  5  9  1  0  0  0  0
  5 25  1  0  0  0  0
  5 29  1  6  0  0  0
  6  7  1  1  0  0  0
  6 11  1  0  0  0  0
  8 12  1  0  0  0  0
  9 10  1  6  0  0  0
  9 14  1  0  0  0  0
 11 16  1  0  0  0  0
 12 13  1  6  0  0  0
 12 17  1  0  0  0  0
 14 15  1  1  0  0  0
 14 18  1  0  0  0  0
 15 31  1  0  0  0  0
 16 20  1  0  0  0  0
 17  2  1  6  0  0  0
 17 22  1  0  0  0  0
 18 19  1  1  0  0  0
 18 24  1  0  0  0  0
 18 30  1  0  0  0  0
 20 21  1  0  0  0  0
 20 26  1  6  0  0  0
 22 23  1  1  0  0  0
 22 28  1  0  0  0  0
 24 25  1  0  0  0  0
 26 27  1  0  0  0  0
 28 29  1  1  0  0  0
M  END
>  <CHROM.1>
-169.05047129,101.65577135,-84.88661472,-85.48750107,16.87591639,89.17932897
-6.89409492,-9.37864179,-23.19210718,-2.66158804,1.45730447,2.35174078

>  <Name>
ligand

>  <RI>
0

>  <Rbt.Current_Directory>
/home/itssahil/PROJECTS/Mol_Feturizer/New_Systems/rnas/4F8U

>  <Rbt.Executable>
rbdock ($Id: //depot/dev/client3/rdock/2013.1/src/exe/rbdock.cxx#4 $)

>  <Rbt.Library>
libRbt.so (2013.1, Build901 2013/11/27)

>  <Rbt.Parameter_File>
/export/apps/rDock/src/rDock_2013.1_src/data/scripts/dock_solv.prm

>  <Rbt.Receptor>
prm/blind_docking_100.prm

>  <SCORE>
18.6769

>  <SCORE.INTER>
0.515419

>  <SCORE.INTER.CONST>
1

>  <SCORE.INTER.POLAR>
0

>  <SCORE.INTER.ROT>
6

>  <SCORE.INTER.SOLV>
28.0182

>  <SCORE.INTER.VDW>
-16.5958

>  <SCORE.INTER.norm>
0.0166264

>  <SCORE.INTRA>
5.76477

>  <SCORE.INTRA.DIHEDRAL>
-3.85798

>  <SCORE.INTRA.DIHEDRAL.0>
18.77

>  <SCORE.INTRA.POLAR>
0

>  <SCORE.INTRA.POLAR.0>
0

>  <SCORE.INTRA.REPUL>
0

>  <SCORE.INTRA.REPUL.0>
0

>  <SCORE.INTRA.SOLV>
4.6217

>  <SCORE.INTRA.SOLV.lig_0>
-77.2465

>  <SCORE.INTRA.VDW>
5.38291

>  <SCORE.INTRA.VDW.0>
-4.16072

>  <SCORE.INTRA.norm>
0.18596

>  <SCORE.RESTR>
12.3967

>  <SCORE.RESTR.CAVITY>
12.3967

>  <SCORE.RESTR.norm>
0.399892

>  <SCORE.SYSTEM>
0

>  <SCORE.SYSTEM.CONST>
0

>  <SCORE.SYSTEM.DIHEDRAL>
0

>  <SCORE.SYSTEM.SOLV>
0

>  <SCORE.SYSTEM.norm>
0

>  <SCORE.heavy>
31

>  <SCORE.norm>
0.602479

>  <RMSD>
9.581

$$$$
ligand
 OpenBabel11021811493D
libRbt.so/2013.1/901 2013/11/27
 31 33  0  0  0  0  0  0  0  0999 V2000
   -6.6773  -11.4220  -25.1866 C   0  0  2  0  0  0  0  0  0  0  0  0
   -7.5061  -11.0521  -24.0763 O   0  0  0  0  0  0  0  0  0  0  0  0
   -7.3816  -10.8748  -19.8011 C   0  0  2  0  0  0  0  0  0  0  0  0
   -6.8850  -10.6941  -18.4712 N   0  0  0  0  0  0  0  0  0  0  0  0
   -7.4353   -7.4211  -19.1953 C   0  0  2  0  0  0  0  0  0  0  0  0
   -6.3388  -10.0921  -25.9474 C   0  0  2  0  0  0  0  0  0  0  0  0
   -5.6822   -9.1585  -25.0390 N   0  0  0  0  0  0  0  0  0  0  0  0
   -6.5444  -12.0093  -20.5084 C   0  0  0  0  0  0  0  0  0  0  0  0
   -7.5120   -6.1959  -20.1576 C   0  0  2  0  0  0  0  0  0  0  0  0
   -8.8680   -5.9565  -20.4934 O   0  0  0  0  0  0  0  0  0  0  0  0
   -7.6523   -9.4660  -26.5325 C   0  0  0  0  0  0  0  0  0  0  0  0
   -7.1023  -12.2146  -21.9828 C   0  0  2  0  0  0  0  0  0  0  0  0
   -6.3217  -13.2776  -22.6581 N   0  0  0  0  0  0  0  0  0  0  0  0
   -6.6606   -6.5639  -21.4522 C   0  0  1  0  0  0  0  0  0  0  0  0
   -6.7078   -5.4447  -22.4534 N   0  0  0  0  0  0  0  0  0  0  0  0
   -8.5003  -10.5441  -27.2673 C   0  0  0  0  0  0  0  0  0  0  0  0
   -6.9866  -10.8461  -22.7907 C   0  0  2  0  0  0  0  0  0  0  0  0
   -5.1133   -6.8279  -21.0173 C   0  0  1  0  0  0  0  0  0  0  0  0
   -4.5276   -5.6888  -20.4171 O   0  0  0  0  0  0  0  0  0  0  0  0
   -8.3180  -11.8507  -27.0240 C   0  0  2  0  0  0  0  0  0  0  0  0
   -7.3456  -12.3524  -26.0904 O   0  0  0  0  0  0  0  0  0  0  0  0
   -7.8145   -9.7224  -22.0374 C   0  0  2  0  0  0  0  0  0  0  0  0
   -7.6984   -8.4796  -22.7415 O   0  0  0  0  0  0  0  0  0  0  0  0
   -5.0617   -7.9953  -19.9749 C   0  0  0  0  0  0  0  0  0  0  0  0
   -6.0020   -7.6964  -18.8194 O   0  0  0  0  0  0  0  0  0  0  0  0
   -9.1487  -12.9371  -27.7460 C   0  0  0  0  0  0  0  0  0  0  0  0
  -10.2945  -13.3000  -26.9238 N   0  0  0  0  0  0  0  0  0  0  0  0
   -7.2526   -9.5335  -20.5820 C   0  0  1  0  0  0  0  0  0  0  0  0
   -8.0138   -8.5353  -19.9456 O   0  0  0  0  0  0  0  0  0  0  0  0
   -4.1536   -7.2015  -22.1592 C   0  0  0  0  0  0  0  0  0  0  0  0
   -7.9796   -5.2695  -23.1801 C   0  0  0  0  0  0  0  0  0  0  0  0
  1  2  1  1  0  0  0
  1  6  1  0  0  0  0
  1 21  1  0  0  0  0
  3  4  1  1  0  0  0
  3  8  1  0  0  0  0
  3 28  1  0  0  0  0
  5  9  1  0  0  0  0
  5 25  1  0  0  0  0
  5 29  1  6  0  0  0
  6  7  1  1  0  0  0
  6 11  1  0  0  0  0
  8 12  1  0  0  0  0
  9 10  1  6  0  0  0
  9 14  1  0  0  0  0
 11 16  1  0  0  0  0
 12 13  1  6  0  0  0
 12 17  1  0  0  0  0
 14 15  1  6  0  0  0
 14 18  1  0  0  0  0
 15 31  1  0  0  0  0
 16 20  1  0  0  0  0
 17  2  1  6  0  0  0
 17 22  1  0  0  0  0
 18 19  1  1  0  0  0
 18 24  1  0  0  0  0
 18 30  1  0  0  0  0
 20 21  1  0  0  0  0
 20 26  1  6  0  0  0
 22 23  1  6  0  0  0
 22 28  1  0  0  0  0
 24 25  1  0  0  0  0
 26 27  1  0  0  0  0
 28 29  1  1  0  0  0
M  END
>  <CHROM.1>
-96.36104570,101.39678259,-73.04995015,-93.31933138,-94.45434378,108.08261457
-7.08269780,-9.33723623,-22.65423362,-3.07821924,-1.36193714,-0.61250531

>  <Name>
ligand

>  <RI>
0

>  <Rbt.Current_Directory>
/home/itssahil/PROJECTS/Mol_Feturizer/New_Systems/rnas/4F8U

>  <Rbt.Executable>
rbdock ($Id: //depot/dev/client3/rdock/2013.1/src/exe/rbdock.cxx#4 $)

>  <Rbt.Library>
libRbt.so (2013.1, Build901 2013/11/27)

>  <Rbt.Parameter_File>
/export/apps/rDock/src/rDock_2013.1_src/data/scripts/dock_solv.prm

>  <Rbt.Receptor>
prm/blind_docking_100.prm

>  <SCORE>
46.8678

>  <SCORE.INTER>
24.4056

>  <SCORE.INTER.CONST>
1

>  <SCORE.INTER.POLAR>
0

>  <SCORE.INTER.ROT>
6

>  <SCORE.INTER.SOLV>
35.6836

>  <SCORE.INTER.VDW>
-3.22414

>  <SCORE.INTER.norm>
0.787277

>  <SCORE.INTRA>
7.85065

>  <SCORE.INTRA.DIHEDRAL>
4.92258

>  <SCORE.INTRA.DIHEDRAL.0>
18.77

>  <SCORE.INTRA.POLAR>
0

>  <SCORE.INTRA.POLAR.0>
0

>  <SCORE.INTRA.REPUL>
0

>  <SCORE.INTRA.REPUL.0>
0

>  <SCORE.INTRA.SOLV>
3.32448

>  <SCORE.INTRA.SOLV.lig_0>
-77.2465

>  <SCORE.INTRA.VDW>
3.72712

>  <SCORE.INTRA.VDW.0>
-4.16072

>  <SCORE.INTRA.norm>
0.253247

>  <SCORE.RESTR>
14.6116

>  <SCORE.RESTR.CAVITY>
14.6116

>  <SCORE.RESTR.norm>
0.471342

>  <SCORE.SYSTEM>
0

>  <SCORE.SYSTEM.CONST>
0

>  <SCORE.SYSTEM.DIHEDRAL>
0

>  <SCORE.SYSTEM.SOLV>
0

>  <SCORE.SYSTEM.norm>
0

>  <SCORE.heavy>
31

>  <SCORE.norm>
1.51187

>  <RMSD>
9.587

$$$$
ligand
 OpenBabel11021811493D
libRbt.so/2013.1/901 2013/11/27
 31 33  0  0  0  0  0  0  0  0999 V2000
   -7.6468  -10.2474  -16.6272 C   0  0  2  0  0  0  0  0  0  0  0  0
   -7.0427  -11.2859  -17.4102 O   0  0  0  0  0  0  0  0  0  0  0  0
   -6.7506  -12.0289  -21.6157 C   0  0  2  0  0  0  0  0  0  0  0  0
   -7.1269  -12.3368  -22.9617 N   0  0  0  0  0  0  0  0  0  0  0  0
   -7.9482   -8.4747  -22.2123 C   0  0  2  0  0  0  0  0  0  0  0  0
   -6.7622  -10.0931  -15.3405 C   0  0  2  0  0  0  0  0  0  0  0  0
   -5.3880   -9.7861  -15.7216 N   0  0  0  0  0  0  0  0  0  0  0  0
   -7.1422  -13.2419  -20.6866 C   0  0  0  0  0  0  0  0  0  0  0  0
   -7.4555   -7.8745  -23.5652 C   0  0  2  0  0  0  0  0  0  0  0  0
   -7.6324   -8.8380  -24.5895 O   0  0  0  0  0  0  0  0  0  0  0  0
   -6.8218  -11.4119  -14.4938 C   0  0  0  0  0  0  0  0  0  0  0  0
   -6.7166  -12.9021  -19.1931 C   0  0  2  0  0  0  0  0  0  0  0  0
   -7.0813  -14.0346  -18.3102 N   0  0  0  0  0  0  0  0  0  0  0  0
   -5.9154   -7.5124  -23.3829 C   0  0  1  0  0  0  0  0  0  0  0  0
   -5.3475   -6.9551  -24.6573 N   0  0  0  0  0  0  0  0  0  0  0  0
   -8.2907  -11.8981  -14.3284 C   0  0  0  0  0  0  0  0  0  0  0  0
   -7.4547  -11.5718  -18.7192 C   0  0  2  0  0  0  0  0  0  0  0  0
   -5.7632   -6.4038  -22.1994 C   0  0  1  0  0  0  0  0  0  0  0  0
   -6.4617   -5.2100  -22.4957 O   0  0  0  0  0  0  0  0  0  0  0  0
   -9.2550  -11.4798  -15.1620 C   0  0  2  0  0  0  0  0  0  0  0  0
   -9.0192  -10.5671  -16.2483 O   0  0  0  0  0  0  0  0  0  0  0  0
   -7.0622  -10.3814  -19.6909 C   0  0  2  0  0  0  0  0  0  0  0  0
   -7.7393   -9.1837  -19.2896 O   0  0  0  0  0  0  0  0  0  0  0  0
   -6.3530   -6.9834  -20.8696 C   0  0  0  0  0  0  0  0  0  0  0  0
   -7.7738   -7.4681  -21.1043 O   0  0  0  0  0  0  0  0  0  0  0  0
  -10.7209  -11.9495  -15.0124 C   0  0  0  0  0  0  0  0  0  0  0  0
  -11.0408  -12.8916  -16.0756 N   0  0  0  0  0  0  0  0  0  0  0  0
   -7.4872  -10.7338  -21.1623 C   0  0  1  0  0  0  0  0  0  0  0  0
   -7.1187   -9.6590  -21.9930 O   0  0  0  0  0  0  0  0  0  0  0  0
   -4.3271   -5.9472  -21.8933 C   0  0  0  0  0  0  0  0  0  0  0  0
   -4.1128   -7.5895  -25.1564 C   0  0  0  0  0  0  0  0  0  0  0  0
  1  2  1  6  0  0  0
  1  6  1  0  0  0  0
  1 21  1  0  0  0  0
  3  4  1  6  0  0  0
  3  8  1  0  0  0  0
  3 28  1  0  0  0  0
  5  9  1  0  0  0  0
  5 25  1  0  0  0  0
  5 29  1  1  0  0  0
  6  7  1  6  0  0  0
  6 11  1  0  0  0  0
  8 12  1  0  0  0  0
  9 10  1  6  0  0  0
  9 14  1  0  0  0  0
 11 16  1  0  0  0  0
 12 13  1  1  0  0  0
 12 17  1  0  0  0  0
 14 15  1  6  0  0  0
 14 18  1  0  0  0  0
 15 31  1  0  0  0  0
 16 20  1  0  0  0  0
 17  2  1  1  0  0  0
 17 22  1  0  0  0  0
 18 19  1  6  0  0  0
 18 24  1  0  0  0  0
 18 30  1  0  0  0  0
 20 21  1  0  0  0  0
 20 26  1  1  0  0  0
 22 23  1  1  0  0  0
 22 28  1  0  0  0  0
 24 25  1  0  0  0  0
 26 27  1  0  0  0  0
 28 29  1  6  0  0  0
M  END
>  <CHROM.1>
-170.92643927,-157.93268556,-128.01359798,-171.99864702,-106.97805063,155.22668316
-7.18660958,-9.86059505,-19.77687363,-2.55831742,-1.25671155,-2.01534666

>  <Name>
ligand

>  <RI>
0

>  <Rbt.Current_Directory>
/home/itssahil/PROJECTS/Mol_Feturizer/New_Systems/rnas/4F8U

>  <Rbt.Executable>
rbdock ($Id: //depot/dev/client3/rdock/2013.1/src/exe/rbdock.cxx#4 $)

>  <Rbt.Library>
libRbt.so (2013.1, Build901 2013/11/27)

>  <Rbt.Parameter_File>
/export/apps/rDock/src/rDock_2013.1_src/data/scripts/dock_solv.prm

>  <Rbt.Receptor>
prm/pocket_docking_6.prm

>  <SCORE>
-13.8586

>  <SCORE.INTER>
-8.47052

>  <SCORE.INTER.CONST>
1

>  <SCORE.INTER.POLAR>
0

>  <SCORE.INTER.ROT>
6

>  <SCORE.INTER.SOLV>
18.919

>  <SCORE.INTER.VDW>
-19.5534

>  <SCORE.INTER.norm>
-0.273243

>  <SCORE.INTRA>
-5.38812

>  <SCORE.INTRA.DIHEDRAL>
-10.2417

>  <SCORE.INTRA.DIHEDRAL.0>
18.77

>  <SCORE.INTRA.POLAR>
0

>  <SCORE.INTRA.POLAR.0>
0

>  <SCORE.INTRA.REPUL>
0

>  <SCORE.INTRA.REPUL.0>
0

>  <SCORE.INTRA.SOLV>
-2.6072

>  <SCORE.INTRA.SOLV.lig_0>
-77.2465

>  <SCORE.INTRA.VDW>
1.03635

>  <SCORE.INTRA.VDW.0>
-4.16072

>  <SCORE.INTRA.norm>
-0.17381

>  <SCORE.RESTR>
0

>  <SCORE.RESTR.CAVITY>
0

>  <SCORE.RESTR.norm>
0

>  <SCORE.SYSTEM>
0

>  <SCORE.SYSTEM.CONST>
0

>  <SCORE.SYSTEM.DIHEDRAL>
0

>  <SCORE.SYSTEM.SOLV>
0

>  <SCORE.SYSTEM.norm>
0

>  <SCORE.heavy>
31

>  <SCORE.norm>
-0.447053

>  <RMSD>
9.597

$$$$
ligand
 OpenBabel11021811493D
libRbt.so/2013.1/901 2013/11/27
 31 33  0  0  0  0  0  0  0  0999 V2000
   -4.9139  -12.9259  -10.0739 C   0  0  2  0  0  0  0  0  0  0  0  0
   -5.8738  -12.0500  -10.6804 O   0  0  0  0  0  0  0  0  0  0  0  0
   -9.3675   -9.7630   -9.7383 C   0  0  2  0  0  0  0  0  0  0  0  0
  -10.3160   -8.9910   -8.9951 N   0  0  0  0  0  0  0  0  0  0  0  0
   -8.0891   -7.5532  -11.8194 C   0  0  2  0  0  0  0  0  0  0  0  0
   -4.0936  -13.5640  -11.2495 C   0  0  2  0  0  0  0  0  0  0  0  0
   -3.4732  -12.5107  -12.0455 N   0  0  0  0  0  0  0  0  0  0  0  0
   -9.2176  -11.1784   -9.0586 C   0  0  0  0  0  0  0  0  0  0  0  0
   -8.7090   -6.1413  -12.0550 C   0  0  2  0  0  0  0  0  0  0  0  0
   -7.9431   -5.1776  -11.3524 O   0  0  0  0  0  0  0  0  0  0  0  0
   -5.0375  -14.4474  -12.1374 C   0  0  0  0  0  0  0  0  0  0  0  0
   -8.1698  -12.0379   -9.8897 C   0  0  2  0  0  0  0  0  0  0  0  0
   -8.0194  -13.3701   -9.2590 N   0  0  0  0  0  0  0  0  0  0  0  0
  -10.2041   -6.1898  -11.5087 C   0  0  1  0  0  0  0  0  0  0  0  0
  -10.8698   -4.8522  -11.6668 N   0  0  0  0  0  0  0  0  0  0  0  0
   -5.9145  -15.3814  -11.2542 C   0  0  0  0  0  0  0  0  0  0  0  0
   -6.7682  -11.2808   -9.9231 C   0  0  2  0  0  0  0  0  0  0  0  0
  -11.0431   -7.3074  -12.3454 C   0  0  1  0  0  0  0  0  0  0  0  0
  -11.0913   -7.0116  -13.7278 O   0  0  0  0  0  0  0  0  0  0  0  0
   -6.1141  -15.1161   -9.9544 C   0  0  2  0  0  0  0  0  0  0  0  0
   -5.5458  -13.9775   -9.2840 O   0  0  0  0  0  0  0  0  0  0  0  0
   -6.9610   -9.8524  -10.5850 C   0  0  2  0  0  0  0  0  0  0  0  0
   -5.7112   -9.1511  -10.5988 O   0  0  0  0  0  0  0  0  0  0  0  0
  -10.3518   -8.7027  -12.1806 C   0  0  0  0  0  0  0  0  0  0  0  0
   -8.8839   -8.5985  -12.5590 O   0  0  0  0  0  0  0  0  0  0  0  0
   -6.9800  -16.0334   -9.0597 C   0  0  0  0  0  0  0  0  0  0  0  0
   -7.3306  -15.3282   -7.8349 N   0  0  0  0  0  0  0  0  0  0  0  0
   -8.0005   -9.0170   -9.7536 C   0  0  1  0  0  0  0  0  0  0  0  0
   -8.1482   -7.7619  -10.3731 O   0  0  0  0  0  0  0  0  0  0  0  0
  -12.5145   -7.4829  -11.9347 C   0  0  0  0  0  0  0  0  0  0  0  0
  -10.7898   -4.2351  -13.0043 C   0  0  0  0  0  0  0  0  0  0  0  0
  1  2  1  6  0  0  0
  1  6  1  0  0  0  0
  1 21  1  0  0  0  0
  3  4  1  1  0  0  0
  3  8  1  0  0  0  0
  3 28  1  0  0  0  0
  5  9  1  0  0  0  0
  5 25  1  0  0  0  0
  5 29  1  1  0  0  0
  6  7  1  6  0  0  0
  6 11  1  0  0  0  0
  8 12  1  0  0  0  0
  9 10  1  1  0  0  0
  9 14  1  0  0  0  0
 11 16  1  0  0  0  0
 12 13  1  1  0  0  0
 12 17  1  0  0  0  0
 14 15  1  6  0  0  0
 14 18  1  0  0  0  0
 15 31  1  0  0  0  0
 16 20  1  0  0  0  0
 17  2  1  6  0  0  0
 17 22  1  0  0  0  0
 18 19  1  6  0  0  0
 18 24  1  0  0  0  0
 18 30  1  0  0  0  0
 20 21  1  0  0  0  0
 20 26  1  1  0  0  0
 22 23  1  1  0  0  0
 22 28  1  0  0  0  0
 24 25  1  0  0  0  0
 26 27  1  0  0  0  0
 28 29  1  6  0  0  0
M  END
>  <CHROM.1>
-178.57053181,163.81361744,50.68329693,-98.82313005,-164.09882680,-84.41978071
-7.95556923,-10.18102469,-10.85472162,-1.04936876,0.30371145,-0.40797745

>  <Name>
ligand

>  <RI>
0

>  <Rbt.Current_Directory>
/home/itssahil/PROJECTS/Mol_Feturizer/New_Systems/rnas/4F8U

>  <Rbt.Executable>
rbdock ($Id: //depot/dev/client3/rdock/2013.1/src/exe/rbdock.cxx#4 $)

>  <Rbt.Library>
libRbt.so (2013.1, Build901 2013/11/27)

>  <Rbt.Parameter_File>
/export/apps/rDock/src/rDock_2013.1_src/data/scripts/dock_solv.prm

>  <Rbt.Receptor>
prm/blind_docking_20.prm

>  <SCORE>
11.7559

>  <SCORE.INTER>
0.0335682

>  <SCORE.INTER.CONST>
1

>  <SCORE.INTER.POLAR>
0

>  <SCORE.INTER.ROT>
6

>  <SCORE.INTER.SOLV>
15.3236

>  <SCORE.INTER.VDW>
-12.6855

>  <SCORE.INTER.norm>
0.00108284

>  <SCORE.INTRA>
5.95388

>  <SCORE.INTRA.DIHEDRAL>
-6.41655

>  <SCORE.INTRA.DIHEDRAL.0>
18.77

>  <SCORE.INTRA.POLAR>
0

>  <SCORE.INTRA.POLAR.0>
0

>  <SCORE.INTRA.REPUL>
0

>  <SCORE.INTRA.REPUL.0>
0

>  <SCORE.INTRA.SOLV>
7.11088

>  <SCORE.INTRA.SOLV.lig_0>
-77.2465

>  <SCORE.INTRA.VDW>
5.60672

>  <SCORE.INTRA.VDW.0>
-4.16072

>  <SCORE.INTRA.norm>
0.192061

>  <SCORE.RESTR>
5.76849

>  <SCORE.RESTR.CAVITY>
5.76849

>  <SCORE.RESTR.norm>
0.18608

>  <SCORE.SYSTEM>
0

>  <SCORE.SYSTEM.CONST>
0

>  <SCORE.SYSTEM.DIHEDRAL>
0

>  <SCORE.SYSTEM.SOLV>
0

>  <SCORE.SYSTEM.norm>
0

>  <SCORE.heavy>
31

>  <SCORE.norm>
0.379224

>  <RMSD>
9.613

$$$$
ligand
 OpenBabel11021811493D
libRbt.so/2013.1/901 2013/11/27
 31 33  0  0  0  0  0  0  0  0999 V2000
   -6.6547  -11.5878  -25.2012 C   0  0  2  0  0  0  0  0  0  0  0  0
   -7.4962  -11.5180  -24.0421 O   0  0  0  0  0  0  0  0  0  0  0  0
   -7.5675  -10.3732  -19.9180 C   0  0  2  0  0  0  0  0  0  0  0  0
   -7.1481   -9.8438  -18.6563 N   0  0  0  0  0  0  0  0  0  0  0  0
   -8.0139   -6.9195  -20.0652 C   0  0  2  0  0  0  0  0  0  0  0  0
   -6.5521  -10.1257  -25.7612 C   0  0  2  0  0  0  0  0  0  0  0  0
   -6.0217   -9.2398  -24.7309 N   0  0  0  0  0  0  0  0  0  0  0  0
   -6.5860  -11.5354  -20.3351 C   0  0  0  0  0  0  0  0  0  0  0  0
   -7.4529   -6.1329  -21.2899 C   0  0  2  0  0  0  0  0  0  0  0  0
   -8.4795   -5.9904  -22.2567 O   0  0  0  0  0  0  0  0  0  0  0  0
   -7.9650   -9.6392  -26.2376 C   0  0  0  0  0  0  0  0  0  0  0  0
   -7.0576  -12.1279  -21.7328 C   0  0  2  0  0  0  0  0  0  0  0  0
   -6.1413  -13.2202  -22.1359 N   0  0  0  0  0  0  0  0  0  0  0  0
   -6.2355   -6.9789  -21.8715 C   0  0  1  0  0  0  0  0  0  0  0  0
   -5.6529   -6.3061  -23.0819 N   0  0  0  0  0  0  0  0  0  0  0  0
   -8.6565  -10.7216  -27.1160 C   0  0  0  0  0  0  0  0  0  0  0  0
   -7.0550  -10.9715  -22.8290 C   0  0  2  0  0  0  0  0  0  0  0  0
   -5.0836   -7.1141  -20.7279 C   0  0  1  0  0  0  0  0  0  0  0  0
   -4.5866   -5.8535  -20.3218 O   0  0  0  0  0  0  0  0  0  0  0  0
   -8.2646  -12.0038  -27.0686 C   0  0  2  0  0  0  0  0  0  0  0  0
   -7.1972  -12.4731  -26.2265 O   0  0  0  0  0  0  0  0  0  0  0  0
   -8.0280   -9.8083  -22.3645 C   0  0  2  0  0  0  0  0  0  0  0  0
   -8.0158   -8.7502  -23.3310 O   0  0  0  0  0  0  0  0  0  0  0  0
   -5.6885   -7.8167  -19.4658 C   0  0  0  0  0  0  0  0  0  0  0  0
   -6.9418   -7.0831  -19.0187 O   0  0  0  0  0  0  0  0  0  0  0  0
   -8.9374  -13.0934  -27.9356 C   0  0  0  0  0  0  0  0  0  0  0  0
   -8.6828  -14.4039  -27.3540 N   0  0  0  0  0  0  0  0  0  0  0  0
   -7.5498   -9.2355  -20.9814 C   0  0  1  0  0  0  0  0  0  0  0  0
   -8.4384   -8.2124  -20.6012 O   0  0  0  0  0  0  0  0  0  0  0  0
   -3.8330   -7.9125  -21.1314 C   0  0  0  0  0  0  0  0  0  0  0  0
   -4.6346   -7.0690  -23.8284 C   0  0  0  0  0  0  0  0  0  0  0  0
  1  2  1  1  0  0  0
  1  6  1  0  0  0  0
  1 21  1  0  0  0  0
  3  4  1  1  0  0  0
  3  8  1  0  0  0  0
  3 28  1  0  0  0  0
  5  9  1  0  0  0  0
  5 25  1  0  0  0  0
  5 29  1  6  0  0  0
  6  7  1  1  0  0  0
  6 11  1  0  0  0  0
  8 12  1  0  0  0  0
  9 10  1  6  0  0  0
  9 14  1  0  0  0  0
 11 16  1  0  0  0  0
 12 13  1  6  0  0  0
 12 17  1  0  0  0  0
 14 15  1  6  0  0  0
 14 18  1  0  0  0  0
 15 31  1  0  0  0  0
 16 20  1  0  0  0  0
 17  2  1  6  0  0  0
 17 22  1  0  0  0  0
 18 19  1  1  0  0  0
 18 24  1  0  0  0  0
 18 30  1  0  0  0  0
 20 21  1  0  0  0  0
 20 26  1  6  0  0  0
 22 23  1  6  0  0  0
 22 28  1  0  0  0  0
 24 25  1  0  0  0  0
 26 27  1  0  0  0  0
 28 29  1  1  0  0  0
M  END
>  <CHROM.1>
-73.88166893,74.11299036,-172.15540763,-116.24139477,-159.26335276,105.56400531
-6.98572313,-9.45348461,-22.82102010,2.65864811,-1.34097754,-1.19043688

>  <Name>
ligand

>  <RI>
0

>  <Rbt.Current_Directory>
/home/itssahil/PROJECTS/Mol_Feturizer/New_Systems/rnas/4F8U

>  <Rbt.Executable>
rbdock ($Id: //depot/dev/client3/rdock/2013.1/src/exe/rbdock.cxx#4 $)

>  <Rbt.Library>
libRbt.so (2013.1, Build901 2013/11/27)

>  <Rbt.Parameter_File>
/export/apps/rDock/src/rDock_2013.1_src/data/scripts/dock_solv.prm

>  <Rbt.Receptor>
prm/blind_docking_40.prm

>  <SCORE>
28.7778

>  <SCORE.INTER>
4.24319

>  <SCORE.INTER.CONST>
1

>  <SCORE.INTER.POLAR>
0

>  <SCORE.INTER.ROT>
6

>  <SCORE.INTER.SOLV>
33.6611

>  <SCORE.INTER.VDW>
-15.9916

>  <SCORE.INTER.norm>
0.136877

>  <SCORE.INTRA>
13.0524

>  <SCORE.INTRA.DIHEDRAL>
-0.433445

>  <SCORE.INTRA.DIHEDRAL.0>
18.77

>  <SCORE.INTRA.POLAR>
0

>  <SCORE.INTRA.POLAR.0>
0

>  <SCORE.INTRA.REPUL>
0

>  <SCORE.INTRA.REPUL.0>
0

>  <SCORE.INTRA.SOLV>
7.59783

>  <SCORE.INTRA.SOLV.lig_0>
-77.2465

>  <SCORE.INTRA.VDW>
9.47017

>  <SCORE.INTRA.VDW.0>
-4.16072

>  <SCORE.INTRA.norm>
0.421044

>  <SCORE.RESTR>
11.4823

>  <SCORE.RESTR.CAVITY>
11.4823

>  <SCORE.RESTR.norm>
0.370396

>  <SCORE.SYSTEM>
0

>  <SCORE.SYSTEM.CONST>
0

>  <SCORE.SYSTEM.DIHEDRAL>
0

>  <SCORE.SYSTEM.SOLV>
0

>  <SCORE.SYSTEM.norm>
0

>  <SCORE.heavy>
31

>  <SCORE.norm>
0.928317

>  <RMSD>
9.613

$$$$
ligand
 OpenBabel11021811493D
libRbt.so/2013.1/901 2013/11/27
 31 33  0  0  0  0  0  0  0  0999 V2000
   -7.7431  -10.6558  -17.1748 C   0  0  2  0  0  0  0  0  0  0  0  0
   -7.2073  -11.0095  -18.4571 O   0  0  0  0  0  0  0  0  0  0  0  0
   -7.0182   -9.0618  -22.2642 C   0  0  2  0  0  0  0  0  0  0  0  0
   -7.4317   -8.4635  -23.4968 N   0  0  0  0  0  0  0  0  0  0  0  0
   -6.0080   -6.4516  -20.3779 C   0  0  2  0  0  0  0  0  0  0  0  0
   -6.7661  -11.2601  -16.1060 C   0  0  2  0  0  0  0  0  0  0  0  0
   -5.4202  -10.7394  -16.3188 N   0  0  0  0  0  0  0  0  0  0  0  0
   -7.5068  -10.5612  -22.2360 C   0  0  0  0  0  0  0  0  0  0  0  0
   -5.8080   -4.9780  -20.8489 C   0  0  2  0  0  0  0  0  0  0  0  0
   -6.9695   -4.2303  -20.5320 O   0  0  0  0  0  0  0  0  0  0  0  0
   -6.7769  -12.8255  -16.2016 C   0  0  0  0  0  0  0  0  0  0  0  0
   -7.0400  -11.2270  -20.8699 C   0  0  2  0  0  0  0  0  0  0  0  0
   -7.4952  -12.6364  -20.8314 N   0  0  0  0  0  0  0  0  0  0  0  0
   -5.5679   -5.0185  -22.4227 C   0  0  1  0  0  0  0  0  0  0  0  0
   -5.3977   -3.6292  -22.9688 N   0  0  0  0  0  0  0  0  0  0  0  0
   -8.2346  -13.3667  -16.2622 C   0  0  0  0  0  0  0  0  0  0  0  0
   -7.6542  -10.4141  -19.6448 C   0  0  2  0  0  0  0  0  0  0  0  0
   -4.2250   -5.8852  -22.7367 C   0  0  1  0  0  0  0  0  0  0  0  0
   -3.0760   -5.3233  -22.1326 O   0  0  0  0  0  0  0  0  0  0  0  0
   -9.2527  -12.5711  -16.6229 C   0  0  2  0  0  0  0  0  0  0  0  0
   -9.0874  -11.1854  -16.9714 O   0  0  0  0  0  0  0  0  0  0  0  0
   -7.1670   -8.9066  -19.7206 C   0  0  2  0  0  0  0  0  0  0  0  0
   -7.7327   -8.1585  -18.6369 O   0  0  0  0  0  0  0  0  0  0  0  0
   -4.4010   -7.3342  -22.1697 C   0  0  0  0  0  0  0  0  0  0  0  0
   -4.7842   -7.2698  -20.7007 O   0  0  0  0  0  0  0  0  0  0  0  0
  -10.7083  -13.0896  -16.6865 C   0  0  0  0  0  0  0  0  0  0  0  0
  -11.5146  -12.3992  -15.6897 N   0  0  0  0  0  0  0  0  0  0  0  0
   -7.6341   -8.2643  -21.0767 C   0  0  1  0  0  0  0  0  0  0  0  0
   -7.1797   -6.9326  -21.1090 O   0  0  0  0  0  0  0  0  0  0  0  0
   -3.8532   -6.0253  -24.2221 C   0  0  0  0  0  0  0  0  0  0  0  0
   -6.6056   -2.9929  -23.5276 C   0  0  0  0  0  0  0  0  0  0  0  0
  1  2  1  6  0  0  0
  1  6  1  0  0  0  0
  1 21  1  0  0  0  0
  3  4  1  6  0  0  0
  3  8  1  0  0  0  0
  3 28  1  0  0  0  0
  5  9  1  0  0  0  0
  5 25  1  0  0  0  0
  5 29  1  6  0  0  0
  6  7  1  6  0  0  0
  6 11  1  0  0  0  0
  8 12  1  0  0  0  0
  9 10  1  6  0  0  0
  9 14  1  0  0  0  0
 11 16  1  0  0  0  0
 12 13  1  6  0  0  0
 12 17  1  0  0  0  0
 14 15  1  1  0  0  0
 14 18  1  0  0  0  0
 15 31  1  0  0  0  0
 16 20  1  0  0  0  0
 17  2  1  1  0  0  0
 17 22  1  0  0  0  0
 18 19  1  1  0  0  0
 18 24  1  0  0  0  0
 18 30  1  0  0  0  0
 20 21  1  0  0  0  0
 20 26  1  1  0  0  0
 22 23  1  1  0  0  0
 22 28  1  0  0  0  0
 24 25  1  0  0  0  0
 26 27  1  0  0  0  0
 28 29  1  1  0  0  0
M  END
>  <CHROM.1>
-166.49602251,173.64097124,-95.70477221,-169.85809934,115.21469978,-93.17879119
-6.86994885,-8.75720814,-19.97378727,3.07716122,-1.21315186,-2.31906464

>  <Name>
ligand

>  <RI>
0

>  <Rbt.Current_Directory>
/home/itssahil/PROJECTS/Mol_Feturizer/New_Systems/rnas/4F8U

>  <Rbt.Executable>
rbdock ($Id: //depot/dev/client3/rdock/2013.1/src/exe/rbdock.cxx#4 $)

>  <Rbt.Library>
libRbt.so (2013.1, Build901 2013/11/27)

>  <Rbt.Parameter_File>
/export/apps/rDock/src/rDock_2013.1_src/data/scripts/dock_solv.prm

>  <Rbt.Receptor>
prm/pocket_docking_6.prm

>  <SCORE>
-16.113

>  <SCORE.INTER>
-11.8426

>  <SCORE.INTER.CONST>
1

>  <SCORE.INTER.POLAR>
0

>  <SCORE.INTER.ROT>
6

>  <SCORE.INTER.SOLV>
15.4765

>  <SCORE.INTER.VDW>
-20.6539

>  <SCORE.INTER.norm>
-0.382019

>  <SCORE.INTRA>
-4.27042

>  <SCORE.INTRA.DIHEDRAL>
-10.5278

>  <SCORE.INTRA.DIHEDRAL.0>
18.77

>  <SCORE.INTRA.POLAR>
0

>  <SCORE.INTRA.POLAR.0>
0

>  <SCORE.INTRA.REPUL>
0

>  <SCORE.INTRA.REPUL.0>
0

>  <SCORE.INTRA.SOLV>
-1.14123

>  <SCORE.INTRA.SOLV.lig_0>
-77.2465

>  <SCORE.INTRA.VDW>
1.56407

>  <SCORE.INTRA.VDW.0>
-4.16072

>  <SCORE.INTRA.norm>
-0.137755

>  <SCORE.RESTR>
0

>  <SCORE.RESTR.CAVITY>
0

>  <SCORE.RESTR.norm>
0

>  <SCORE.SYSTEM>
0

>  <SCORE.SYSTEM.CONST>
0

>  <SCORE.SYSTEM.DIHEDRAL>
0

>  <SCORE.SYSTEM.SOLV>
0

>  <SCORE.SYSTEM.norm>
0

>  <SCORE.heavy>
31

>  <SCORE.norm>
-0.519774

>  <RMSD>
9.630

$$$$
ligand
 OpenBabel11021811493D
libRbt.so/2013.1/901 2013/11/27
 31 33  0  0  0  0  0  0  0  0999 V2000
   -7.0091   -9.8481  -16.5542 C   0  0  2  0  0  0  0  0  0  0  0  0
   -6.9020  -10.8721  -17.5525 O   0  0  0  0  0  0  0  0  0  0  0  0
   -7.1139  -10.7472  -21.8260 C   0  0  2  0  0  0  0  0  0  0  0  0
   -7.6484  -10.6309  -23.1485 N   0  0  0  0  0  0  0  0  0  0  0  0
   -7.4126   -7.3922  -22.5716 C   0  0  2  0  0  0  0  0  0  0  0  0
   -6.0364  -10.2592  -15.3937 C   0  0  2  0  0  0  0  0  0  0  0  0
   -4.6811  -10.4010  -15.9140 N   0  0  0  0  0  0  0  0  0  0  0  0
   -7.8172  -11.9559  -21.0963 C   0  0  0  0  0  0  0  0  0  0  0  0
   -6.3783   -7.0244  -23.6798 C   0  0  2  0  0  0  0  0  0  0  0  0
   -6.0189   -8.2004  -24.3846 O   0  0  0  0  0  0  0  0  0  0  0  0
   -6.5238  -11.6001  -14.7423 C   0  0  0  0  0  0  0  0  0  0  0  0
   -7.2170  -12.0889  -19.6302 C   0  0  2  0  0  0  0  0  0  0  0  0
   -7.8718  -13.2210  -18.9339 N   0  0  0  0  0  0  0  0  0  0  0  0
   -5.1144   -6.3895  -22.9479 C   0  0  1  0  0  0  0  0  0  0  0  0
   -4.0478   -6.0343  -23.9447 N   0  0  0  0  0  0  0  0  0  0  0  0
   -8.0505  -11.5491  -14.4457 C   0  0  0  0  0  0  0  0  0  0  0  0
   -7.4610  -10.7326  -18.8304 C   0  0  2  0  0  0  0  0  0  0  0  0
   -5.5757   -5.0436  -22.1552 C   0  0  1  0  0  0  0  0  0  0  0  0
   -6.1112   -4.0687  -23.0291 O   0  0  0  0  0  0  0  0  0  0  0  0
   -8.8466  -10.6680  -15.0700 C   0  0  2  0  0  0  0  0  0  0  0  0
   -8.3678   -9.7182  -16.0381 O   0  0  0  0  0  0  0  0  0  0  0  0
   -6.7667   -9.5359  -19.6060 C   0  0  2  0  0  0  0  0  0  0  0  0
   -6.9997   -8.3055  -18.9090 O   0  0  0  0  0  0  0  0  0  0  0  0
   -6.6863   -5.4120  -21.1145 C   0  0  0  0  0  0  0  0  0  0  0  0
   -7.8149   -6.1571  -21.8072 O   0  0  0  0  0  0  0  0  0  0  0  0
  -10.3655  -10.6000  -14.7868 C   0  0  0  0  0  0  0  0  0  0  0  0
  -11.0925  -11.2348  -15.8772 N   0  0  0  0  0  0  0  0  0  0  0  0
   -7.3689   -9.4195  -21.0529 C   0  0  1  0  0  0  0  0  0  0  0  0
   -6.7259   -8.3534  -21.7094 O   0  0  0  0  0  0  0  0  0  0  0  0
   -4.4653   -4.3079  -21.3869 C   0  0  0  0  0  0  0  0  0  0  0  0
   -3.2569   -7.1562  -24.4851 C   0  0  0  0  0  0  0  0  0  0  0  0
  1  2  1  6  0  0  0
  1  6  1  0  0  0  0
  1 21  1  0  0  0  0
  3  4  1  6  0  0  0
  3  8  1  0  0  0  0
  3 28  1  0  0  0  0
  5  9  1  0  0  0  0
  5 25  1  0  0  0  0
  5 29  1  1  0  0  0
  6  7  1  6  0  0  0
  6 11  1  0  0  0  0
  8 12  1  0  0  0  0
  9 10  1  1  0  0  0
  9 14  1  0  0  0  0
 11 16  1  0  0  0  0
 12 13  1  1  0  0  0
 12 17  1  0  0  0  0
 14 15  1  6  0  0  0
 14 18  1  0  0  0  0
 15 31  1  0  0  0  0
 16 20  1  0  0  0  0
 17  2  1  1  0  0  0
 17 22  1  0  0  0  0
 18 19  1  6  0  0  0
 18 24  1  0  0  0  0
 18 30  1  0  0  0  0
 20 21  1  0  0  0  0
 20 26  1  1  0  0  0
 22 23  1  1  0  0  0
 22 28  1  0  0  0  0
 24 25  1  0  0  0  0
 26 27  1  0  0  0  0
 28 29  1  6  0  0  0
M  END
>  <CHROM.1>
-169.29090861,-146.34918742,-76.02220139,-176.80518193,-103.16726561,101.45984358
-6.88817462,-8.95575309,-19.78919052,-2.51577623,-1.21968905,-1.90000908

>  <Name>
ligand

>  <RI>
0

>  <Rbt.Current_Directory>
/home/itssahil/PROJECTS/Mol_Feturizer/New_Systems/rnas/4F8U

>  <Rbt.Executable>
rbdock ($Id: //depot/dev/client3/rdock/2013.1/src/exe/rbdock.cxx#4 $)

>  <Rbt.Library>
libRbt.so (2013.1, Build901 2013/11/27)

>  <Rbt.Parameter_File>
/export/apps/rDock/src/rDock_2013.1_src/data/scripts/dock_solv.prm

>  <Rbt.Receptor>
prm/pocket_docking_7.prm

>  <SCORE>
-12.1419

>  <SCORE.INTER>
-9.5311

>  <SCORE.INTER.CONST>
1

>  <SCORE.INTER.POLAR>
0

>  <SCORE.INTER.ROT>
6

>  <SCORE.INTER.SOLV>
15.7602

>  <SCORE.INTER.VDW>
-19.2075

>  <SCORE.INTER.norm>
-0.307455

>  <SCORE.INTRA>
-2.61083

>  <SCORE.INTRA.DIHEDRAL>
-6.02478

>  <SCORE.INTRA.DIHEDRAL.0>
18.77

>  <SCORE.INTRA.POLAR>
0

>  <SCORE.INTRA.POLAR.0>
0

>  <SCORE.INTRA.REPUL>
0

>  <SCORE.INTRA.REPUL.0>
0

>  <SCORE.INTRA.SOLV>
-1.53547

>  <SCORE.INTRA.SOLV.lig_0>
-77.2465

>  <SCORE.INTRA.VDW>
1.1693

>  <SCORE.INTRA.VDW.0>
-4.16072

>  <SCORE.INTRA.norm>
-0.0842202

>  <SCORE.RESTR>
0

>  <SCORE.RESTR.CAVITY>
0

>  <SCORE.RESTR.norm>
0

>  <SCORE.SYSTEM>
0

>  <SCORE.SYSTEM.CONST>
0

>  <SCORE.SYSTEM.DIHEDRAL>
0

>  <SCORE.SYSTEM.SOLV>
0

>  <SCORE.SYSTEM.norm>
0

>  <SCORE.heavy>
31

>  <SCORE.norm>
-0.391675

>  <RMSD>
9.632

$$$$
ligand
 OpenBabel11021811493D
libRbt.so/2013.1/901 2013/11/27
 31 33  0  0  0  0  0  0  0  0999 V2000
   -7.5772  -11.4193  -16.7426 C   0  0  2  0  0  0  0  0  0  0  0  0
   -7.1349  -11.9881  -17.9825 O   0  0  0  0  0  0  0  0  0  0  0  0
   -7.1533  -10.5760  -22.0235 C   0  0  2  0  0  0  0  0  0  0  0  0
   -7.6324  -10.1637  -23.3074 N   0  0  0  0  0  0  0  0  0  0  0  0
   -6.0079   -7.9412  -21.6360 C   0  0  2  0  0  0  0  0  0  0  0  0
   -6.8821  -12.2460  -15.6045 C   0  0  2  0  0  0  0  0  0  0  0  0
   -5.4337  -12.1876  -15.7678 N   0  0  0  0  0  0  0  0  0  0  0  0
   -7.5914  -12.0702  -21.7714 C   0  0  0  0  0  0  0  0  0  0  0  0
   -5.7371   -6.5303  -21.0283 C   0  0  2  0  0  0  0  0  0  0  0  0
   -5.7874   -6.6190  -19.6147 O   0  0  0  0  0  0  0  0  0  0  0  0
   -7.3854  -13.7309  -15.6437 C   0  0  0  0  0  0  0  0  0  0  0  0
   -7.0519  -12.5295  -20.3483 C   0  0  2  0  0  0  0  0  0  0  0  0
   -7.4591  -13.9322  -20.0997 N   0  0  0  0  0  0  0  0  0  0  0  0
   -6.8717   -5.5580  -21.5792 C   0  0  1  0  0  0  0  0  0  0  0  0
   -6.7057   -4.1759  -21.0140 N   0  0  0  0  0  0  0  0  0  0  0  0
   -8.9363  -13.7873  -15.7582 C   0  0  0  0  0  0  0  0  0  0  0  0
   -7.6455  -11.5734  -19.2203 C   0  0  2  0  0  0  0  0  0  0  0  0
   -6.7730   -5.4873  -23.2035 C   0  0  1  0  0  0  0  0  0  0  0  0
   -5.5219   -4.9918  -23.6394 O   0  0  0  0  0  0  0  0  0  0  0  0
   -9.6355  -12.7306  -16.1987 C   0  0  2  0  0  0  0  0  0  0  0  0
   -9.0266  -11.4871  -16.5884 O   0  0  0  0  0  0  0  0  0  0  0  0
   -7.2110  -10.0779  -19.5205 C   0  0  2  0  0  0  0  0  0  0  0  0
   -7.7594   -9.2040  -18.5257 O   0  0  0  0  0  0  0  0  0  0  0  0
   -6.9474   -6.9268  -23.7948 C   0  0  0  0  0  0  0  0  0  0  0  0
   -5.9574   -7.8760  -23.1409 O   0  0  0  0  0  0  0  0  0  0  0  0
  -11.1771  -12.7662  -16.3169 C   0  0  0  0  0  0  0  0  0  0  0  0
  -11.7606  -11.8477  -15.3494 N   0  0  0  0  0  0  0  0  0  0  0  0
   -7.7496   -9.6404  -20.9305 C   0  0  1  0  0  0  0  0  0  0  0  0
   -7.3405   -8.3138  -21.1624 O   0  0  0  0  0  0  0  0  0  0  0  0
   -7.8096   -4.5875  -23.8966 C   0  0  0  0  0  0  0  0  0  0  0  0
   -5.3609   -3.5799  -21.1261 C   0  0  0  0  0  0  0  0  0  0  0  0
  1  2  1  6  0  0  0
  1  6  1  0  0  0  0
  1 21  1  0  0  0  0
  3  4  1  6  0  0  0
  3  8  1  0  0  0  0
  3 28  1  0  0  0  0
  5  9  1  0  0  0  0
  5 25  1  0  0  0  0
  5 29  1  6  0  0  0
  6  7  1  6  0  0  0
  6 11  1  0  0  0  0
  8 12  1  0  0  0  0
  9 10  1  1  0  0  0
  9 14  1  0  0  0  0
 11 16  1  0  0  0  0
 12 13  1  1  0  0  0
 12 17  1  0  0  0  0
 14 15  1  1  0  0  0
 14 18  1  0  0  0  0
 15 31  1  0  0  0  0
 16 20  1  0  0  0  0
 17  2  1  1  0  0  0
 17 22  1  0  0  0  0
 18 19  1  6  0  0  0
 18 24  1  0  0  0  0
 18 30  1  0  0  0  0
 20 21  1  0  0  0  0
 20 26  1  1  0  0  0
 22 23  1  1  0  0  0
 22 28  1  0  0  0  0
 24 25  1  0  0  0  0
 26 27  1  0  0  0  0
 28 29  1  6  0  0  0
M  END
>  <CHROM.1>
174.37579824,-149.85128901,50.52427397,-173.64834777,112.88908069,-38.28898851
-7.37654082,-9.51717677,-19.77253705,3.07963110,-1.33825897,-2.34188918

>  <Name>
ligand

>  <RI>
0

>  <Rbt.Current_Directory>
/home/itssahil/PROJECTS/Mol_Feturizer/New_Systems/rnas/4F8U

>  <Rbt.Executable>
rbdock ($Id: //depot/dev/client3/rdock/2013.1/src/exe/rbdock.cxx#4 $)

>  <Rbt.Library>
libRbt.so (2013.1, Build901 2013/11/27)

>  <Rbt.Parameter_File>
/export/apps/rDock/src/rDock_2013.1_src/data/scripts/dock_solv.prm

>  <Rbt.Receptor>
prm/pocket_docking_6.prm

>  <SCORE>
-12.4957

>  <SCORE.INTER>
-9.61337

>  <SCORE.INTER.CONST>
1

>  <SCORE.INTER.POLAR>
0

>  <SCORE.INTER.ROT>
6

>  <SCORE.INTER.SOLV>
14.827

>  <SCORE.INTER.VDW>
-18.9513

>  <SCORE.INTER.norm>
-0.310109

>  <SCORE.INTRA>
-2.88229

>  <SCORE.INTRA.DIHEDRAL>
-10.8827

>  <SCORE.INTRA.DIHEDRAL.0>
18.77

>  <SCORE.INTRA.POLAR>
0

>  <SCORE.INTRA.POLAR.0>
0

>  <SCORE.INTRA.REPUL>
0

>  <SCORE.INTRA.REPUL.0>
0

>  <SCORE.INTRA.SOLV>
-0.664783

>  <SCORE.INTRA.SOLV.lig_0>
-77.2465

>  <SCORE.INTRA.VDW>
2.89145

>  <SCORE.INTRA.VDW.0>
-4.16072

>  <SCORE.INTRA.norm>
-0.0929771

>  <SCORE.RESTR>
0

>  <SCORE.RESTR.CAVITY>
0

>  <SCORE.RESTR.norm>
0

>  <SCORE.SYSTEM>
0

>  <SCORE.SYSTEM.CONST>
0

>  <SCORE.SYSTEM.DIHEDRAL>
0

>  <SCORE.SYSTEM.SOLV>
0

>  <SCORE.SYSTEM.norm>
0

>  <SCORE.heavy>
31

>  <SCORE.norm>
-0.403086

>  <RMSD>
9.646

$$$$
ligand
 OpenBabel11021811493D
libRbt.so/2013.1/901 2013/11/27
 31 33  0  0  0  0  0  0  0  0999 V2000
   -7.8797  -10.9002  -16.7208 C   0  0  2  0  0  0  0  0  0  0  0  0
   -7.3244  -11.6653  -17.7992 O   0  0  0  0  0  0  0  0  0  0  0  0
   -7.0050  -11.0398  -22.0218 C   0  0  2  0  0  0  0  0  0  0  0  0
   -7.3760  -10.8737  -23.3939 N   0  0  0  0  0  0  0  0  0  0  0  0
   -7.7161   -7.3789  -21.1132 C   0  0  2  0  0  0  0  0  0  0  0  0
   -7.0635  -11.2881  -15.4380 C   0  0  2  0  0  0  0  0  0  0  0  0
   -5.6472  -11.0141  -15.6540 N   0  0  0  0  0  0  0  0  0  0  0  0
   -7.4926  -12.4568  -21.5296 C   0  0  0  0  0  0  0  0  0  0  0  0
   -7.7596   -6.4361  -22.3552 C   0  0  2  0  0  0  0  0  0  0  0  0
   -8.6217   -6.9968  -23.3305 O   0  0  0  0  0  0  0  0  0  0  0  0
   -7.2907  -12.8031  -15.1021 C   0  0  0  0  0  0  0  0  0  0  0  0
   -7.0729  -12.6433  -20.0076 C   0  0  2  0  0  0  0  0  0  0  0  0
   -7.5277  -13.9713  -19.5335 N   0  0  0  0  0  0  0  0  0  0  0  0
   -6.2706   -6.3222  -22.9084 C   0  0  1  0  0  0  0  0  0  0  0  0
   -6.2252   -5.4531  -24.1330 N   0  0  0  0  0  0  0  0  0  0  0  0
   -8.8042  -13.1609  -15.1529 C   0  0  0  0  0  0  0  0  0  0  0  0
   -7.7303  -11.4879  -19.1291 C   0  0  2  0  0  0  0  0  0  0  0  0
   -5.3202   -5.6730  -21.7559 C   0  0  1  0  0  0  0  0  0  0  0  0
   -5.7483   -4.3781  -21.3805 O   0  0  0  0  0  0  0  0  0  0  0  0
   -9.6758  -12.3849  -15.8146 C   0  0  2  0  0  0  0  0  0  0  0  0
   -9.2953  -11.1855  -16.5113 O   0  0  0  0  0  0  0  0  0  0  0  0
   -7.2424  -10.0786  -19.6689 C   0  0  2  0  0  0  0  0  0  0  0  0
   -7.8463   -9.0293  -18.9019 O   0  0  0  0  0  0  0  0  0  0  0  0
   -5.3648   -6.5783  -20.4789 C   0  0  0  0  0  0  0  0  0  0  0  0
   -6.8071   -6.8040  -20.0574 O   0  0  0  0  0  0  0  0  0  0  0  0
  -11.1839  -12.7222  -15.8744 C   0  0  0  0  0  0  0  0  0  0  0  0
  -11.4812  -13.4016  -17.1275 N   0  0  0  0  0  0  0  0  0  0  0  0
   -7.6627   -9.9110  -21.1739 C   0  0  1  0  0  0  0  0  0  0  0  0
   -7.2089   -8.6546  -21.6172 O   0  0  0  0  0  0  0  0  0  0  0  0
   -3.8395   -5.4983  -22.1321 C   0  0  0  0  0  0  0  0  0  0  0  0
   -5.5025   -5.9996  -25.2972 C   0  0  0  0  0  0  0  0  0  0  0  0
  1  2  1  6  0  0  0
  1  6  1  0  0  0  0
  1 21  1  0  0  0  0
  3  4  1  6  0  0  0
  3  8  1  0  0  0  0
  3 28  1  0  0  0  0
  5  9  1  0  0  0  0
  5 25  1  0  0  0  0
  5 29  1  6  0  0  0
  6  7  1  6  0  0  0
  6 11  1  0  0  0  0
  8 12  1  0  0  0  0
  9 10  1  6  0  0  0
  9 14  1  0  0  0  0
 11 16  1  0  0  0  0
 12 13  1  1  0  0  0
 12 17  1  0  0  0  0
 14 15  1  6  0  0  0
 14 18  1  0  0  0  0
 15 31  1  0  0  0  0
 16 20  1  0  0  0  0
 17  2  1  1  0  0  0
 17 22  1  0  0  0  0
 18 19  1  1  0  0  0
 18 24  1  0  0  0  0
 18 30  1  0  0  0  0
 20 21  1  0  0  0  0
 20 26  1  1  0  0  0
 22 23  1  1  0  0  0
 22 28  1  0  0  0  0
 24 25  1  0  0  0  0
 26 27  1  0  0  0  0
 28 29  1  6  0  0  0
M  END
>  <CHROM.1>
-174.20635626,-142.46197665,-130.90894012,-171.54947637,-97.97971305,174.53561823
-7.38455216,-9.57085659,-19.79485118,-2.29451247,-1.13754914,-1.46207204

>  <Name>
ligand

>  <RI>
0

>  <Rbt.Current_Directory>
/home/itssahil/PROJECTS/Mol_Feturizer/New_Systems/rnas/4F8U

>  <Rbt.Executable>
rbdock ($Id: //depot/dev/client3/rdock/2013.1/src/exe/rbdock.cxx#4 $)

>  <Rbt.Library>
libRbt.so (2013.1, Build901 2013/11/27)

>  <Rbt.Parameter_File>
/export/apps/rDock/src/rDock_2013.1_src/data/scripts/dock_solv.prm

>  <Rbt.Receptor>
prm/pocket_docking_5.prm

>  <SCORE>
-14.7584

>  <SCORE.INTER>
-9.77878

>  <SCORE.INTER.CONST>
1

>  <SCORE.INTER.POLAR>
0

>  <SCORE.INTER.ROT>
6

>  <SCORE.INTER.SOLV>
17.6466

>  <SCORE.INTER.VDW>
-20.0014

>  <SCORE.INTER.norm>
-0.315444

>  <SCORE.INTRA>
-5.1788

>  <SCORE.INTRA.DIHEDRAL>
-9.77228

>  <SCORE.INTRA.DIHEDRAL.0>
18.77

>  <SCORE.INTRA.POLAR>
0

>  <SCORE.INTRA.POLAR.0>
0

>  <SCORE.INTRA.REPUL>
0

>  <SCORE.INTRA.REPUL.0>
0

>  <SCORE.INTRA.SOLV>
-2.98723

>  <SCORE.INTRA.SOLV.lig_0>
-77.2465

>  <SCORE.INTRA.VDW>
1.20096

>  <SCORE.INTRA.VDW.0>
-4.16072

>  <SCORE.INTRA.norm>
-0.167058

>  <SCORE.RESTR>
0.199158

>  <SCORE.RESTR.CAVITY>
0.199158

>  <SCORE.RESTR.norm>
0.00642445

>  <SCORE.SYSTEM>
0

>  <SCORE.SYSTEM.CONST>
0

>  <SCORE.SYSTEM.DIHEDRAL>
0

>  <SCORE.SYSTEM.SOLV>
0

>  <SCORE.SYSTEM.norm>
0

>  <SCORE.heavy>
31

>  <SCORE.norm>
-0.476078

>  <RMSD>
9.648

$$$$
ligand
 OpenBabel11021811493D
libRbt.so/2013.1/901 2013/11/27
 31 33  0  0  0  0  0  0  0  0999 V2000
   -6.4832  -10.8374  -25.3643 C   0  0  2  0  0  0  0  0  0  0  0  0
   -7.3070  -11.1593  -24.2354 O   0  0  0  0  0  0  0  0  0  0  0  0
   -7.7161  -10.5485  -20.0184 C   0  0  2  0  0  0  0  0  0  0  0  0
   -7.3955  -10.2057  -18.6665 N   0  0  0  0  0  0  0  0  0  0  0  0
   -8.0067   -6.9640  -20.0102 C   0  0  2  0  0  0  0  0  0  0  0  0
   -7.3295   -9.8738  -26.2682 C   0  0  2  0  0  0  0  0  0  0  0  0
   -7.7214   -8.6965  -25.5011 N   0  0  0  0  0  0  0  0  0  0  0  0
   -6.7441  -11.6944  -20.4981 C   0  0  0  0  0  0  0  0  0  0  0  0
   -7.4553   -6.2341  -21.2737 C   0  0  2  0  0  0  0  0  0  0  0  0
   -8.4905   -6.1319  -22.2365 O   0  0  0  0  0  0  0  0  0  0  0  0
   -8.5929  -10.6280  -26.8112 C   0  0  0  0  0  0  0  0  0  0  0  0
   -7.1064  -12.0798  -21.9973 C   0  0  2  0  0  0  0  0  0  0  0  0
   -6.1981  -13.1552  -22.4596 N   0  0  0  0  0  0  0  0  0  0  0  0
   -6.2453   -7.1086  -21.8283 C   0  0  1  0  0  0  0  0  0  0  0  0
   -5.6724   -6.4919  -23.0728 N   0  0  0  0  0  0  0  0  0  0  0  0
   -8.2036  -12.0237  -27.3784 C   0  0  0  0  0  0  0  0  0  0  0  0
   -6.9596  -10.7944  -22.9274 C   0  0  2  0  0  0  0  0  0  0  0  0
   -5.0832   -7.1959  -20.6905 C   0  0  1  0  0  0  0  0  0  0  0  0
   -4.5795   -5.9199  -20.3455 O   0  0  0  0  0  0  0  0  0  0  0  0
   -7.0512  -12.6148  -27.0287 C   0  0  2  0  0  0  0  0  0  0  0  0
   -6.1011  -12.0218  -26.1262 O   0  0  0  0  0  0  0  0  0  0  0  0
   -7.9274   -9.6539  -22.3999 C   0  0  2  0  0  0  0  0  0  0  0  0
   -7.7868   -8.4829  -23.2141 O   0  0  0  0  0  0  0  0  0  0  0  0
   -5.6779   -7.8400  -19.3929 C   0  0  0  0  0  0  0  0  0  0  0  0
   -6.9253   -7.0838  -18.9674 O   0  0  0  0  0  0  0  0  0  0  0  0
   -6.6454  -14.0001  -27.5836 C   0  0  0  0  0  0  0  0  0  0  0  0
   -5.2596  -13.9588  -28.0291 N   0  0  0  0  0  0  0  0  0  0  0  0
   -7.5579   -9.2865  -20.9173 C   0  0  1  0  0  0  0  0  0  0  0  0
   -8.4392   -8.2782  -20.4842 O   0  0  0  0  0  0  0  0  0  0  0  0
   -3.8383   -8.0150  -21.0695 C   0  0  0  0  0  0  0  0  0  0  0  0
   -5.0471   -7.4191  -24.0348 C   0  0  0  0  0  0  0  0  0  0  0  0
  1  2  1  1  0  0  0
  1  6  1  0  0  0  0
  1 21  1  0  0  0  0
  3  4  1  1  0  0  0
  3  8  1  0  0  0  0
  3 28  1  0  0  0  0
  5  9  1  0  0  0  0
  5 25  1  0  0  0  0
  5 29  1  6  0  0  0
  6  7  1  1  0  0  0
  6 11  1  0  0  0  0
  8 12  1  0  0  0  0
  9 10  1  6  0  0  0
  9 14  1  0  0  0  0
 11 16  1  0  0  0  0
 12 13  1  6  0  0  0
 12 17  1  0  0  0  0
 14 15  1  6  0  0  0
 14 18  1  0  0  0  0
 15 31  1  0  0  0  0
 16 20  1  0  0  0  0
 17  2  1  6  0  0  0
 17 22  1  0  0  0  0
 18 19  1  1  0  0  0
 18 24  1  0  0  0  0
 18 30  1  0  0  0  0
 20 21  1  0  0  0  0
 20 26  1  6  0  0  0
 22 23  1  6  0  0  0
 22 28  1  0  0  0  0
 24 25  1  0  0  0  0
 26 27  1  0  0  0  0
 28 29  1  1  0  0  0
M  END
>  <CHROM.1>
-116.42807708,69.37733787,-151.61269924,-130.98926854,133.27366278,119.27924483
-6.81863665,-9.52611500,-22.92143186,-2.16282312,1.49724327,1.49415272

>  <Name>
ligand

>  <RI>
0

>  <Rbt.Current_Directory>
/home/itssahil/PROJECTS/Mol_Feturizer/New_Systems/rnas/4F8U

>  <Rbt.Executable>
rbdock ($Id: //depot/dev/client3/rdock/2013.1/src/exe/rbdock.cxx#4 $)

>  <Rbt.Library>
libRbt.so (2013.1, Build901 2013/11/27)

>  <Rbt.Parameter_File>
/export/apps/rDock/src/rDock_2013.1_src/data/scripts/dock_solv.prm

>  <Rbt.Receptor>
prm/blind_docking_40.prm

>  <SCORE>
27.0391

>  <SCORE.INTER>
2.57354

>  <SCORE.INTER.CONST>
1

>  <SCORE.INTER.POLAR>
0

>  <SCORE.INTER.ROT>
6

>  <SCORE.INTER.SOLV>
29.9534

>  <SCORE.INTER.VDW>
-15.8688

>  <SCORE.INTER.norm>
0.0830175

>  <SCORE.INTRA>
12.6668

>  <SCORE.INTRA.DIHEDRAL>
5.05975

>  <SCORE.INTRA.DIHEDRAL.0>
18.77

>  <SCORE.INTRA.POLAR>
0

>  <SCORE.INTRA.POLAR.0>
0

>  <SCORE.INTRA.REPUL>
0

>  <SCORE.INTRA.REPUL.0>
0

>  <SCORE.INTRA.SOLV>
5.41716

>  <SCORE.INTRA.SOLV.lig_0>
-77.2465

>  <SCORE.INTRA.VDW>
7.42832

>  <SCORE.INTRA.VDW.0>
-4.16072

>  <SCORE.INTRA.norm>
0.408606

>  <SCORE.RESTR>
11.7988

>  <SCORE.RESTR.CAVITY>
11.7988

>  <SCORE.RESTR.norm>
0.380606

>  <SCORE.SYSTEM>
0

>  <SCORE.SYSTEM.CONST>
0

>  <SCORE.SYSTEM.DIHEDRAL>
0

>  <SCORE.SYSTEM.SOLV>
0

>  <SCORE.SYSTEM.norm>
0

>  <SCORE.heavy>
31

>  <SCORE.norm>
0.872229

>  <RMSD>
9.659

$$$$
ligand
 OpenBabel11021811493D
libRbt.so/2013.1/901 2013/11/27
 31 33  0  0  0  0  0  0  0  0999 V2000
   -7.7725  -11.9256  -20.3131 C   0  0  2  0  0  0  0  0  0  0  0  0
   -6.6240  -11.3969  -19.6364 O   0  0  0  0  0  0  0  0  0  0  0  0
   -7.7023   -7.2840  -19.1410 C   0  0  2  0  0  0  0  0  0  0  0  0
   -7.7064   -5.9387  -18.6532 N   0  0  0  0  0  0  0  0  0  0  0  0
   -5.0614   -5.6673  -20.8428 C   0  0  2  0  0  0  0  0  0  0  0  0
   -7.3804  -13.3693  -20.7865 C   0  0  2  0  0  0  0  0  0  0  0  0
   -6.9826  -14.1736  -19.6365 N   0  0  0  0  0  0  0  0  0  0  0  0
   -7.9912   -8.2633  -17.9387 C   0  0  0  0  0  0  0  0  0  0  0  0
   -5.6868   -4.4871  -21.6485 C   0  0  2  0  0  0  0  0  0  0  0  0
   -6.8814   -4.0727  -21.0082 O   0  0  0  0  0  0  0  0  0  0  0  0
   -6.2168  -13.2866  -21.8349 C   0  0  0  0  0  0  0  0  0  0  0  0
   -7.9943   -9.7569  -18.4833 C   0  0  2  0  0  0  0  0  0  0  0  0
   -8.2632  -10.6866  -17.3615 N   0  0  0  0  0  0  0  0  0  0  0  0
   -5.9850   -5.0287  -23.1161 C   0  0  1  0  0  0  0  0  0  0  0  0
   -6.6235   -3.9592  -23.9562 N   0  0  0  0  0  0  0  0  0  0  0  0
   -6.5211  -12.2098  -22.9163 C   0  0  0  0  0  0  0  0  0  0  0  0
   -6.5828  -10.0843  -19.1463 C   0  0  2  0  0  0  0  0  0  0  0  0
   -4.5857   -5.4903  -23.8103 C   0  0  1  0  0  0  0  0  0  0  0  0
   -3.6663   -4.4206  -23.9166 O   0  0  0  0  0  0  0  0  0  0  0  0
   -7.4183  -11.2383  -22.6909 C   0  0  2  0  0  0  0  0  0  0  0  0
   -8.1585  -11.1156  -21.4637 O   0  0  0  0  0  0  0  0  0  0  0  0
   -6.3118   -9.0642  -20.3301 C   0  0  2  0  0  0  0  0  0  0  0  0
   -5.0333   -9.3329  -20.9194 O   0  0  0  0  0  0  0  0  0  0  0  0
   -3.9192   -6.6063  -22.9370 C   0  0  0  0  0  0  0  0  0  0  0  0
   -3.7859   -6.1265  -21.5015 O   0  0  0  0  0  0  0  0  0  0  0  0
   -7.7363  -10.1610  -23.7538 C   0  0  0  0  0  0  0  0  0  0  0  0
   -6.9041  -10.3765  -24.9292 N   0  0  0  0  0  0  0  0  0  0  0  0
   -6.3143   -7.5936  -19.7760 C   0  0  1  0  0  0  0  0  0  0  0  0
   -6.0766   -6.7200  -20.8536 O   0  0  0  0  0  0  0  0  0  0  0  0
   -4.7012   -6.0461  -25.2394 C   0  0  0  0  0  0  0  0  0  0  0  0
   -8.0374   -3.6551  -23.6652 C   0  0  0  0  0  0  0  0  0  0  0  0
  1  2  1  6  0  0  0
  1  6  1  0  0  0  0
  1 21  1  0  0  0  0
  3  4  1  1  0  0  0
  3  8  1  0  0  0  0
  3 28  1  0  0  0  0
  5  9  1  0  0  0  0
  5 25  1  0  0  0  0
  5 29  1  6  0  0  0
  6  7  1  1  0  0  0
  6 11  1  0  0  0  0
  8 12  1  0  0  0  0
  9 10  1  1  0  0  0
  9 14  1  0  0  0  0
 11 16  1  0  0  0  0
 12 13  1  1  0  0  0
 12 17  1  0  0  0  0
 14 15  1  6  0  0  0
 14 18  1  0  0  0  0
 15 31  1  0  0  0  0
 16 20  1  0  0  0  0
 17  2  1  6  0  0  0
 17 22  1  0  0  0  0
 18 19  1  6  0  0  0
 18 24  1  0  0  0  0
 18 30  1  0  0  0  0
 20 21  1  0  0  0  0
 20 26  1  6  0  0  0
 22 23  1  1  0  0  0
 22 28  1  0  0  0  0
 24 25  1  0  0  0  0
 26 27  1  0  0  0  0
 28 29  1  6  0  0  0
M  END
>  <CHROM.1>
176.01837839,-144.38862514,-74.15406982,41.27796987,-1.59915837,111.27097650
-6.44994531,-8.33678454,-21.38356083,-2.32053388,1.23780670,0.38081866

>  <Name>
ligand

>  <RI>
0

>  <Rbt.Current_Directory>
/home/itssahil/PROJECTS/Mol_Feturizer/New_Systems/rnas/4F8U

>  <Rbt.Executable>
rbdock ($Id: //depot/dev/client3/rdock/2013.1/src/exe/rbdock.cxx#4 $)

>  <Rbt.Library>
libRbt.so (2013.1, Build901 2013/11/27)

>  <Rbt.Parameter_File>
/export/apps/rDock/src/rDock_2013.1_src/data/scripts/dock_solv.prm

>  <Rbt.Receptor>
prm/blind_docking_80.prm

>  <SCORE>
57.1132

>  <SCORE.INTER>
47.5418

>  <SCORE.INTER.CONST>
1

>  <SCORE.INTER.POLAR>
0

>  <SCORE.INTER.ROT>
6

>  <SCORE.INTER.SOLV>
29.5283

>  <SCORE.INTER.VDW>
14.2518

>  <SCORE.INTER.norm>
1.53361

>  <SCORE.INTRA>
-0.251306

>  <SCORE.INTRA.DIHEDRAL>
-3.78388

>  <SCORE.INTRA.DIHEDRAL.0>
18.77

>  <SCORE.INTRA.POLAR>
0

>  <SCORE.INTRA.POLAR.0>
0

>  <SCORE.INTRA.REPUL>
0

>  <SCORE.INTRA.REPUL.0>
0

>  <SCORE.INTRA.SOLV>
-0.206389

>  <SCORE.INTRA.SOLV.lig_0>
-77.2465

>  <SCORE.INTRA.VDW>
1.74383

>  <SCORE.INTRA.VDW.0>
-4.16072

>  <SCORE.INTRA.norm>
-0.00810664

>  <SCORE.RESTR>
9.82266

>  <SCORE.RESTR.CAVITY>
9.82266

>  <SCORE.RESTR.norm>
0.31686

>  <SCORE.SYSTEM>
0

>  <SCORE.SYSTEM.CONST>
0

>  <SCORE.SYSTEM.DIHEDRAL>
0

>  <SCORE.SYSTEM.SOLV>
0

>  <SCORE.SYSTEM.norm>
0

>  <SCORE.heavy>
31

>  <SCORE.norm>
1.84236

>  <RMSD>
9.667

$$$$
ligand
 OpenBabel11021811493D
libRbt.so/2013.1/901 2013/11/27
 31 33  0  0  0  0  0  0  0  0999 V2000
   -6.5071  -11.4736  -25.3275 C   0  0  2  0  0  0  0  0  0  0  0  0
   -7.4316  -11.3596  -24.2372 O   0  0  0  0  0  0  0  0  0  0  0  0
   -7.6601  -10.6083  -20.0292 C   0  0  2  0  0  0  0  0  0  0  0  0
   -7.2877  -10.2054  -18.7075 N   0  0  0  0  0  0  0  0  0  0  0  0
   -8.0681   -7.0892  -19.9975 C   0  0  2  0  0  0  0  0  0  0  0  0
   -6.3268  -10.0265  -25.9067 C   0  0  2  0  0  0  0  0  0  0  0  0
   -5.8540   -9.1311  -24.8567 N   0  0  0  0  0  0  0  0  0  0  0  0
   -6.6721  -11.7376  -20.5155 C   0  0  0  0  0  0  0  0  0  0  0  0
   -7.4748   -6.3098  -21.2116 C   0  0  2  0  0  0  0  0  0  0  0  0
   -8.4774   -6.1671  -22.2031 O   0  0  0  0  0  0  0  0  0  0  0  0
   -7.6873   -9.5181  -26.4985 C   0  0  0  0  0  0  0  0  0  0  0  0
   -7.0917  -12.1899  -21.9806 C   0  0  2  0  0  0  0  0  0  0  0  0
   -6.1688  -13.2502  -22.4489 N   0  0  0  0  0  0  0  0  0  0  0  0
   -6.2474   -7.1632  -21.7606 C   0  0  1  0  0  0  0  0  0  0  0  0
   -5.6333   -6.4977  -22.9595 N   0  0  0  0  0  0  0  0  0  0  0  0
   -8.3369  -10.6030  -27.4054 C   0  0  0  0  0  0  0  0  0  0  0  0
   -7.0353  -10.9354  -22.9613 C   0  0  2  0  0  0  0  0  0  0  0  0
   -5.1237   -7.2984  -20.5894 C   0  0  1  0  0  0  0  0  0  0  0  0
   -4.6312   -6.0382  -20.1766 O   0  0  0  0  0  0  0  0  0  0  0  0
   -7.9812  -11.8925  -27.3031 C   0  0  2  0  0  0  0  0  0  0  0  0
   -6.9922  -12.3680  -26.3733 O   0  0  0  0  0  0  0  0  0  0  0  0
   -8.0168   -9.8096  -22.4274 C   0  0  2  0  0  0  0  0  0  0  0  0
   -7.9570   -8.6652  -23.2881 O   0  0  0  0  0  0  0  0  0  0  0  0
   -5.7613   -7.9934  -19.3394 C   0  0  0  0  0  0  0  0  0  0  0  0
   -7.0218   -7.2530  -18.9252 O   0  0  0  0  0  0  0  0  0  0  0  0
   -8.6132  -12.9848  -28.1971 C   0  0  0  0  0  0  0  0  0  0  0  0
   -7.6172  -13.4811  -29.1364 N   0  0  0  0  0  0  0  0  0  0  0  0
   -7.5902   -9.3756  -20.9785 C   0  0  1  0  0  0  0  0  0  0  0  0
   -8.4851   -8.3825  -20.5383 O   0  0  0  0  0  0  0  0  0  0  0  0
   -3.8671   -8.1036  -20.9599 C   0  0  0  0  0  0  0  0  0  0  0  0
   -6.4846   -6.3969  -24.1601 C   0  0  0  0  0  0  0  0  0  0  0  0
  1  2  1  1  0  0  0
  1  6  1  0  0  0  0
  1 21  1  0  0  0  0
  3  4  1  1  0  0  0
  3  8  1  0  0  0  0
  3 28  1  0  0  0  0
  5  9  1  0  0  0  0
  5 25  1  0  0  0  0
  5 29  1  6  0  0  0
  6  7  1  1  0  0  0
  6 11  1  0  0  0  0
  8 12  1  0  0  0  0
  9 10  1  6  0  0  0
  9 14  1  0  0  0  0
 11 16  1  0  0  0  0
 12 13  1  6  0  0  0
 12 17  1  0  0  0  0
 14 15  1  6  0  0  0
 14 18  1  0  0  0  0
 15 31  1  0  0  0  0
 16 20  1  0  0  0  0
 17  2  1  6  0  0  0
 17 22  1  0  0  0  0
 18 19  1  1  0  0  0
 18 24  1  0  0  0  0
 18 30  1  0  0  0  0
 20 21  1  0  0  0  0
 20 26  1  6  0  0  0
 22 23  1  6  0  0  0
 22 28  1  0  0  0  0
 24 25  1  0  0  0  0
 26 27  1  0  0  0  0
 28 29  1  1  0  0  0
M  END
>  <CHROM.1>
-81.07534845,69.58886419,-64.78113208,-109.01010305,110.74478887,112.43789316
-6.97368750,-9.45967567,-22.94109690,2.73911161,-1.42774507,-0.99652065

>  <Name>
ligand

>  <RI>
0

>  <Rbt.Current_Directory>
/home/itssahil/PROJECTS/Mol_Feturizer/New_Systems/rnas/4F8U

>  <Rbt.Executable>
rbdock ($Id: //depot/dev/client3/rdock/2013.1/src/exe/rbdock.cxx#4 $)

>  <Rbt.Library>
libRbt.so (2013.1, Build901 2013/11/27)

>  <Rbt.Parameter_File>
/export/apps/rDock/src/rDock_2013.1_src/data/scripts/dock_solv.prm

>  <Rbt.Receptor>
prm/blind_docking_100.prm

>  <SCORE>
26.7294

>  <SCORE.INTER>
3.76333

>  <SCORE.INTER.CONST>
1

>  <SCORE.INTER.POLAR>
0

>  <SCORE.INTER.ROT>
6

>  <SCORE.INTER.SOLV>
30.127

>  <SCORE.INTER.VDW>
-15.1335

>  <SCORE.INTER.norm>
0.121398

>  <SCORE.INTRA>
8.98179

>  <SCORE.INTRA.DIHEDRAL>
-0.996824

>  <SCORE.INTRA.DIHEDRAL.0>
18.77

>  <SCORE.INTRA.POLAR>
0

>  <SCORE.INTRA.POLAR.0>
0

>  <SCORE.INTRA.REPUL>
0

>  <SCORE.INTRA.REPUL.0>
0

>  <SCORE.INTRA.SOLV>
7.14598

>  <SCORE.INTRA.SOLV.lig_0>
-77.2465

>  <SCORE.INTRA.VDW>
5.90721

>  <SCORE.INTRA.VDW.0>
-4.16072

>  <SCORE.INTRA.norm>
0.289735

>  <SCORE.RESTR>
13.9843

>  <SCORE.RESTR.CAVITY>
13.9843

>  <SCORE.RESTR.norm>
0.451105

>  <SCORE.SYSTEM>
0

>  <SCORE.SYSTEM.CONST>
0

>  <SCORE.SYSTEM.DIHEDRAL>
0

>  <SCORE.SYSTEM.SOLV>
0

>  <SCORE.SYSTEM.norm>
0

>  <SCORE.heavy>
31

>  <SCORE.norm>
0.862238

>  <RMSD>
9.675

$$$$
ligand
 OpenBabel11021811493D
libRbt.so/2013.1/901 2013/11/27
 31 33  0  0  0  0  0  0  0  0999 V2000
   -6.8689  -11.5661  -25.3748 C   0  0  2  0  0  0  0  0  0  0  0  0
   -7.6856  -10.9228  -24.3871 O   0  0  0  0  0  0  0  0  0  0  0  0
   -7.6366  -10.5280  -20.1250 C   0  0  2  0  0  0  0  0  0  0  0  0
   -7.1769  -10.2379  -18.8012 N   0  0  0  0  0  0  0  0  0  0  0  0
   -8.0313   -6.9778  -19.8642 C   0  0  2  0  0  0  0  0  0  0  0  0
   -6.2817  -10.4230  -26.2751 C   0  0  2  0  0  0  0  0  0  0  0  0
   -5.5333   -9.4814  -25.4497 N   0  0  0  0  0  0  0  0  0  0  0  0
   -6.6891  -11.6130  -20.7675 C   0  0  0  0  0  0  0  0  0  0  0  0
   -7.4826   -6.1990  -21.0994 C   0  0  2  0  0  0  0  0  0  0  0  0
   -8.5239   -6.0465  -22.0488 O   0  0  0  0  0  0  0  0  0  0  0  0
   -7.4450   -9.6935  -27.0331 C   0  0  0  0  0  0  0  0  0  0  0  0
   -7.2054  -11.9402  -22.2351 C   0  0  2  0  0  0  0  0  0  0  0  0
   -6.3214  -12.9580  -22.8497 N   0  0  0  0  0  0  0  0  0  0  0  0
   -6.2847   -7.0592  -21.7004 C   0  0  1  0  0  0  0  0  0  0  0  0
   -5.7154   -6.3944  -22.9216 N   0  0  0  0  0  0  0  0  0  0  0  0
   -8.4144  -10.7231  -27.6823 C   0  0  0  0  0  0  0  0  0  0  0  0
   -7.2049  -10.6076  -23.1086 C   0  0  2  0  0  0  0  0  0  0  0  0
   -5.1150   -7.2054  -20.5764 C   0  0  1  0  0  0  0  0  0  0  0  0
   -4.5973   -5.9499  -20.1808 O   0  0  0  0  0  0  0  0  0  0  0  0
   -8.4570  -11.9950  -27.2579 C   0  0  2  0  0  0  0  0  0  0  0  0
   -7.6286  -12.5021  -26.1970 O   0  0  0  0  0  0  0  0  0  0  0  0
   -8.1428   -9.5301  -22.4194 C   0  0  2  0  0  0  0  0  0  0  0  0
   -8.1317   -8.3174  -23.1831 O   0  0  0  0  0  0  0  0  0  0  0  0
   -5.7059   -7.8997  -19.3032 C   0  0  0  0  0  0  0  0  0  0  0  0
   -6.9433   -7.1518  -18.8359 O   0  0  0  0  0  0  0  0  0  0  0  0
   -9.4114  -13.0335  -27.8921 C   0  0  0  0  0  0  0  0  0  0  0  0
   -8.7194  -14.3067  -28.0352 N   0  0  0  0  0  0  0  0  0  0  0  0
   -7.6206   -9.2199  -20.9701 C   0  0  1  0  0  0  0  0  0  0  0  0
   -8.4790   -8.2666  -20.3909 O   0  0  0  0  0  0  0  0  0  0  0  0
   -3.8803   -8.0182  -21.0000 C   0  0  0  0  0  0  0  0  0  0  0  0
   -4.9935   -7.2679  -23.8661 C   0  0  0  0  0  0  0  0  0  0  0  0
  1  2  1  1  0  0  0
  1  6  1  0  0  0  0
  1 21  1  0  0  0  0
  3  4  1  1  0  0  0
  3  8  1  0  0  0  0
  3 28  1  0  0  0  0
  5  9  1  0  0  0  0
  5 25  1  0  0  0  0
  5 29  1  6  0  0  0
  6  7  1  1  0  0  0
  6 11  1  0  0  0  0
  8 12  1  0  0  0  0
  9 10  1  6  0  0  0
  9 14  1  0  0  0  0
 11 16  1  0  0  0  0
 12 13  1  6  0  0  0
 12 17  1  0  0  0  0
 14 15  1  6  0  0  0
 14 18  1  0  0  0  0
 15 31  1  0  0  0  0
 16 20  1  0  0  0  0
 17  2  1  6  0  0  0
 17 22  1  0  0  0  0
 18 19  1  1  0  0  0
 18 24  1  0  0  0  0
 18 30  1  0  0  0  0
 20 21  1  0  0  0  0
 20 26  1  6  0  0  0
 22 23  1  6  0  0  0
 22 28  1  0  0  0  0
 24 25  1  0  0  0  0
 26 27  1  0  0  0  0
 28 29  1  1  0  0  0
M  END
>  <CHROM.1>
-95.72184185,64.17318103,-157.19907929,-78.23323692,139.23166569,117.34363476
-7.04325239,-9.45017936,-22.95082054,2.29083332,-1.27900257,-1.50488307

>  <Name>
ligand

>  <RI>
0

>  <Rbt.Current_Directory>
/home/itssahil/PROJECTS/Mol_Feturizer/New_Systems/rnas/4F8U

>  <Rbt.Executable>
rbdock ($Id: //depot/dev/client3/rdock/2013.1/src/exe/rbdock.cxx#4 $)

>  <Rbt.Library>
libRbt.so (2013.1, Build901 2013/11/27)

>  <Rbt.Parameter_File>
/export/apps/rDock/src/rDock_2013.1_src/data/scripts/dock_solv.prm

>  <Rbt.Receptor>
prm/blind_docking_100.prm

>  <SCORE>
30.1687

>  <SCORE.INTER>
8.59279

>  <SCORE.INTER.CONST>
1

>  <SCORE.INTER.POLAR>
0

>  <SCORE.INTER.ROT>
6

>  <SCORE.INTER.SOLV>
33.9273

>  <SCORE.INTER.VDW>
-13.1806

>  <SCORE.INTER.norm>
0.277187

>  <SCORE.INTRA>
7.97498

>  <SCORE.INTRA.DIHEDRAL>
-2.83208

>  <SCORE.INTRA.DIHEDRAL.0>
18.77

>  <SCORE.INTRA.POLAR>
0

>  <SCORE.INTRA.POLAR.0>
0

>  <SCORE.INTRA.REPUL>
0

>  <SCORE.INTRA.REPUL.0>
0

>  <SCORE.INTRA.SOLV>
5.83328

>  <SCORE.INTRA.SOLV.lig_0>
-77.2465

>  <SCORE.INTRA.VDW>
6.47438

>  <SCORE.INTRA.VDW.0>
-4.16072

>  <SCORE.INTRA.norm>
0.257257

>  <SCORE.RESTR>
13.6009

>  <SCORE.RESTR.CAVITY>
13.6009

>  <SCORE.RESTR.norm>
0.43874

>  <SCORE.SYSTEM>
0

>  <SCORE.SYSTEM.CONST>
0

>  <SCORE.SYSTEM.DIHEDRAL>
0

>  <SCORE.SYSTEM.SOLV>
0

>  <SCORE.SYSTEM.norm>
0

>  <SCORE.heavy>
31

>  <SCORE.norm>
0.973184

>  <RMSD>
9.676

$$$$
ligand
 OpenBabel11021811493D
libRbt.so/2013.1/901 2013/11/27
 31 33  0  0  0  0  0  0  0  0999 V2000
   -5.0425  -12.5958   -9.9211 C   0  0  2  0  0  0  0  0  0  0  0  0
   -6.0703  -11.7976  -10.5235 O   0  0  0  0  0  0  0  0  0  0  0  0
   -9.9685  -10.2230   -9.7179 C   0  0  2  0  0  0  0  0  0  0  0  0
  -11.0961   -9.7112   -9.0006 N   0  0  0  0  0  0  0  0  0  0  0  0
   -8.2567   -7.2957  -10.9948 C   0  0  2  0  0  0  0  0  0  0  0  0
   -3.9009  -12.7258  -10.9897 C   0  0  2  0  0  0  0  0  0  0  0  0
   -3.4329  -11.3988  -11.3742 N   0  0  0  0  0  0  0  0  0  0  0  0
   -9.6456  -11.6746   -9.1918 C   0  0  0  0  0  0  0  0  0  0  0  0
   -8.9309   -5.8979  -11.1533 C   0  0  2  0  0  0  0  0  0  0  0  0
   -8.8982   -5.2254   -9.9061 O   0  0  0  0  0  0  0  0  0  0  0  0
   -4.4306  -13.5111  -12.2397 C   0  0  0  0  0  0  0  0  0  0  0  0
   -8.3978  -12.2452   -9.9948 C   0  0  2  0  0  0  0  0  0  0  0  0
   -8.0839  -13.6087   -9.5076 N   0  0  0  0  0  0  0  0  0  0  0  0
  -10.4306   -6.1527  -11.6245 C   0  0  1  0  0  0  0  0  0  0  0  0
  -11.1684   -4.8521  -11.7709 N   0  0  0  0  0  0  0  0  0  0  0  0
   -5.1878  -14.7991  -11.8048 C   0  0  0  0  0  0  0  0  0  0  0  0
   -7.1456  -11.2820   -9.7868 C   0  0  2  0  0  0  0  0  0  0  0  0
  -10.4167   -6.9244  -13.0588 C   0  0  1  0  0  0  0  0  0  0  0  0
   -9.7644   -6.1704  -14.0623 O   0  0  0  0  0  0  0  0  0  0  0  0
   -5.6667  -14.9315  -10.5587 C   0  0  2  0  0  0  0  0  0  0  0  0
   -5.5208  -13.9219   -9.5446 O   0  0  0  0  0  0  0  0  0  0  0  0
   -7.5145   -9.8267  -10.2984 C   0  0  2  0  0  0  0  0  0  0  0  0
   -6.4038   -8.9443  -10.0941 O   0  0  0  0  0  0  0  0  0  0  0  0
   -9.6495   -8.2812  -12.9081 C   0  0  0  0  0  0  0  0  0  0  0  0
   -8.2753   -8.0324  -12.3094 O   0  0  0  0  0  0  0  0  0  0  0  0
   -6.4194  -16.2047  -10.1067 C   0  0  0  0  0  0  0  0  0  0  0  0
   -7.1139  -15.9405   -8.8544 N   0  0  0  0  0  0  0  0  0  0  0  0
   -8.7501   -9.2785   -9.4970 C   0  0  1  0  0  0  0  0  0  0  0  0
   -9.0494   -7.9915   -9.9817 O   0  0  0  0  0  0  0  0  0  0  0  0
  -11.7962   -7.2512  -13.6543 C   0  0  0  0  0  0  0  0  0  0  0  0
  -10.7075   -3.9556  -12.8479 C   0  0  0  0  0  0  0  0  0  0  0  0
  1  2  1  6  0  0  0
  1  6  1  0  0  0  0
  1 21  1  0  0  0  0
  3  4  1  1  0  0  0
  3  8  1  0  0  0  0
  3 28  1  0  0  0  0
  5  9  1  0  0  0  0
  5 25  1  0  0  0  0
  5 29  1  1  0  0  0
  6  7  1  6  0  0  0
  6 11  1  0  0  0  0
  8 12  1  0  0  0  0
  9 10  1  1  0  0  0
  9 14  1  0  0  0  0
 11 16  1  0  0  0  0
 12 13  1  1  0  0  0
 12 17  1  0  0  0  0
 14 15  1  6  0  0  0
 14 18  1  0  0  0  0
 15 31  1  0  0  0  0
 16 20  1  0  0  0  0
 17  2  1  6  0  0  0
 17 22  1  0  0  0  0
 18 19  1  6  0  0  0
 18 24  1  0  0  0  0
 18 30  1  0  0  0  0
 20 21  1  0  0  0  0
 20 26  1  1  0  0  0
 22 23  1  1  0  0  0
 22 28  1  0  0  0  0
 24 25  1  0  0  0  0
 26 27  1  0  0  0  0
 28 29  1  6  0  0  0
M  END
>  <CHROM.1>
-168.91040545,-177.44520090,66.67579293,-98.24035533,-165.34992661,-122.98503511
-7.97619628,-10.03732014,-10.89404866,-1.03231008,0.38086939,-0.43017100

>  <Name>
ligand

>  <RI>
0

>  <Rbt.Current_Directory>
/home/itssahil/PROJECTS/Mol_Feturizer/New_Systems/rnas/4F8U

>  <Rbt.Executable>
rbdock ($Id: //depot/dev/client3/rdock/2013.1/src/exe/rbdock.cxx#4 $)

>  <Rbt.Library>
libRbt.so (2013.1, Build901 2013/11/27)

>  <Rbt.Parameter_File>
/export/apps/rDock/src/rDock_2013.1_src/data/scripts/dock_solv.prm

>  <Rbt.Receptor>
prm/blind_docking_20.prm

>  <SCORE>
17.5613

>  <SCORE.INTER>
4.51137

>  <SCORE.INTER.CONST>
1

>  <SCORE.INTER.POLAR>
0

>  <SCORE.INTER.ROT>
6

>  <SCORE.INTER.SOLV>
15.9832

>  <SCORE.INTER.VDW>
-9.92016

>  <SCORE.INTER.norm>
0.145528

>  <SCORE.INTRA>
6.90957

>  <SCORE.INTRA.DIHEDRAL>
-2.51849

>  <SCORE.INTRA.DIHEDRAL.0>
18.77

>  <SCORE.INTRA.POLAR>
0

>  <SCORE.INTRA.POLAR.0>
0

>  <SCORE.INTRA.REPUL>
0

>  <SCORE.INTRA.REPUL.0>
0

>  <SCORE.INTRA.SOLV>
4.06517

>  <SCORE.INTRA.SOLV.lig_0>
-77.2465

>  <SCORE.INTRA.VDW>
6.13623

>  <SCORE.INTRA.VDW.0>
-4.16072

>  <SCORE.INTRA.norm>
0.222889

>  <SCORE.RESTR>
6.14032

>  <SCORE.RESTR.CAVITY>
6.14032

>  <SCORE.RESTR.norm>
0.198075

>  <SCORE.SYSTEM>
0

>  <SCORE.SYSTEM.CONST>
0

>  <SCORE.SYSTEM.DIHEDRAL>
0

>  <SCORE.SYSTEM.SOLV>
0

>  <SCORE.SYSTEM.norm>
0

>  <SCORE.heavy>
31

>  <SCORE.norm>
0.566492

>  <RMSD>
9.681

$$$$
ligand
 OpenBabel11021811493D
libRbt.so/2013.1/901 2013/11/27
 31 33  0  0  0  0  0  0  0  0999 V2000
   -6.5075  -10.4004  -24.7325 C   0  0  2  0  0  0  0  0  0  0  0  0
   -7.3533  -10.8648  -23.6717 O   0  0  0  0  0  0  0  0  0  0  0  0
   -7.7630   -9.9467  -19.5108 C   0  0  2  0  0  0  0  0  0  0  0  0
   -7.4505   -9.8124  -18.1207 N   0  0  0  0  0  0  0  0  0  0  0  0
   -5.7787   -6.9142  -19.4930 C   0  0  2  0  0  0  0  0  0  0  0  0
   -7.2981   -9.2563  -25.4591 C   0  0  2  0  0  0  0  0  0  0  0  0
   -7.6337   -8.2062  -24.5038 N   0  0  0  0  0  0  0  0  0  0  0  0
   -7.6502  -11.4675  -19.9141 C   0  0  0  0  0  0  0  0  0  0  0  0
   -5.8561   -5.5876  -20.3100 C   0  0  2  0  0  0  0  0  0  0  0  0
   -7.1090   -4.9700  -20.0700 O   0  0  0  0  0  0  0  0  0  0  0  0
   -8.5951   -9.8425  -26.1177 C   0  0  0  0  0  0  0  0  0  0  0  0
   -8.0052  -11.6165  -21.4565 C   0  0  2  0  0  0  0  0  0  0  0  0
   -7.9008  -13.0418  -21.8475 N   0  0  0  0  0  0  0  0  0  0  0  0
   -5.6963   -5.9746  -21.8466 C   0  0  1  0  0  0  0  0  0  0  0  0
   -5.7927   -4.7516  -22.7139 N   0  0  0  0  0  0  0  0  0  0  0  0
   -8.2743  -11.1411  -26.9128 C   0  0  0  0  0  0  0  0  0  0  0  0
   -7.0016  -10.7312  -22.3214 C   0  0  2  0  0  0  0  0  0  0  0  0
   -4.2447   -6.6779  -22.0727 C   0  0  1  0  0  0  0  0  0  0  0  0
   -3.1769   -5.8181  -21.7241 O   0  0  0  0  0  0  0  0  0  0  0  0
   -7.1558  -11.8410  -26.6706 C   0  0  2  0  0  0  0  0  0  0  0  0
   -6.1819  -11.4578  -25.6839 O   0  0  0  0  0  0  0  0  0  0  0  0
   -7.1198   -9.2153  -21.8703 C   0  0  2  0  0  0  0  0  0  0  0  0
   -6.2037   -8.4115  -22.6245 O   0  0  0  0  0  0  0  0  0  0  0  0
   -4.1427   -7.9539  -21.1707 C   0  0  0  0  0  0  0  0  0  0  0  0
   -4.4529   -7.5913  -19.7281 O   0  0  0  0  0  0  0  0  0  0  0  0
   -6.8180  -13.1323  -27.4519 C   0  0  0  0  0  0  0  0  0  0  0  0
   -8.0470  -13.8500  -27.7601 N   0  0  0  0  0  0  0  0  0  0  0  0
   -6.7683   -9.0856  -20.3441 C   0  0  1  0  0  0  0  0  0  0  0  0
   -6.8892   -7.7311  -19.9812 O   0  0  0  0  0  0  0  0  0  0  0  0
   -3.9337   -7.1187  -23.5126 C   0  0  0  0  0  0  0  0  0  0  0  0
   -7.1348   -4.1570  -22.8603 C   0  0  0  0  0  0  0  0  0  0  0  0
  1  2  1  1  0  0  0
  1  6  1  0  0  0  0
  1 21  1  0  0  0  0
  3  4  1  1  0  0  0
  3  8  1  0  0  0  0
  3 28  1  0  0  0  0
  5  9  1  0  0  0  0
  5 25  1  0  0  0  0
  5 29  1  6  0  0  0
  6  7  1  1  0  0  0
  6 11  1  0  0  0  0
  8 12  1  0  0  0  0
  9 10  1  6  0  0  0
  9 14  1  0  0  0  0
 11 16  1  0  0  0  0
 12 13  1  6  0  0  0
 12 17  1  0  0  0  0
 14 15  1  6  0  0  0
 14 18  1  0  0  0  0
 15 31  1  0  0  0  0
 16 20  1  0  0  0  0
 17  2  1  6  0  0  0
 17 22  1  0  0  0  0
 18 19  1  1  0  0  0
 18 24  1  0  0  0  0
 18 30  1  0  0  0  0
 20 21  1  0  0  0  0
 20 26  1  6  0  0  0
 22 23  1  6  0  0  0
 22 28  1  0  0  0  0
 24 25  1  0  0  0  0
 26 27  1  0  0  0  0
 28 29  1  1  0  0  0
M  END
>  <CHROM.1>
-115.76969532,132.52671727,-72.65237521,-168.19588273,-34.46565747,123.06186067
-6.55725609,-8.94972403,-22.65389134,-2.29435418,1.20573663,1.44950967

>  <Name>
ligand

>  <RI>
0

>  <Rbt.Current_Directory>
/home/itssahil/PROJECTS/Mol_Feturizer/New_Systems/rnas/4F8U

>  <Rbt.Executable>
rbdock ($Id: //depot/dev/client3/rdock/2013.1/src/exe/rbdock.cxx#4 $)

>  <Rbt.Library>
libRbt.so (2013.1, Build901 2013/11/27)

>  <Rbt.Parameter_File>
/export/apps/rDock/src/rDock_2013.1_src/data/scripts/dock_solv.prm

>  <Rbt.Receptor>
prm/blind_docking_40.prm

>  <SCORE>
24.8975

>  <SCORE.INTER>
1.20248

>  <SCORE.INTER.CONST>
1

>  <SCORE.INTER.POLAR>
0

>  <SCORE.INTER.ROT>
6

>  <SCORE.INTER.SOLV>
25.5126

>  <SCORE.INTER.VDW>
-15.3026

>  <SCORE.INTER.norm>
0.0387896

>  <SCORE.INTRA>
11.6803

>  <SCORE.INTRA.DIHEDRAL>
5.60361

>  <SCORE.INTRA.DIHEDRAL.0>
18.77

>  <SCORE.INTRA.POLAR>
0

>  <SCORE.INTRA.POLAR.0>
0

>  <SCORE.INTRA.REPUL>
0

>  <SCORE.INTRA.REPUL.0>
0

>  <SCORE.INTRA.SOLV>
2.23015

>  <SCORE.INTRA.SOLV.lig_0>
-77.2465

>  <SCORE.INTRA.VDW>
7.7634

>  <SCORE.INTRA.VDW.0>
-4.16072

>  <SCORE.INTRA.norm>
0.376783

>  <SCORE.RESTR>
12.0147

>  <SCORE.RESTR.CAVITY>
12.0147

>  <SCORE.RESTR.norm>
0.387571

>  <SCORE.SYSTEM>
0

>  <SCORE.SYSTEM.CONST>
0

>  <SCORE.SYSTEM.DIHEDRAL>
0

>  <SCORE.SYSTEM.SOLV>
0

>  <SCORE.SYSTEM.norm>
0

>  <SCORE.heavy>
31

>  <SCORE.norm>
0.803144

>  <RMSD>
9.686

$$$$
ligand
 OpenBabel11021811493D
libRbt.so/2013.1/901 2013/11/27
 31 33  0  0  0  0  0  0  0  0999 V2000
   -7.6459  -10.7043  -16.7817 C   0  0  2  0  0  0  0  0  0  0  0  0
   -7.1778  -11.5015  -17.8779 O   0  0  0  0  0  0  0  0  0  0  0  0
   -7.0757  -10.8794  -22.1119 C   0  0  2  0  0  0  0  0  0  0  0  0
   -7.5166  -10.7164  -23.4636 N   0  0  0  0  0  0  0  0  0  0  0  0
   -7.7323   -7.2205  -21.1517 C   0  0  2  0  0  0  0  0  0  0  0  0
   -6.7275  -11.0529  -15.5582 C   0  0  2  0  0  0  0  0  0  0  0  0
   -5.3340  -10.7852  -15.8965 N   0  0  0  0  0  0  0  0  0  0  0  0
   -7.5320  -12.2978  -21.5943 C   0  0  0  0  0  0  0  0  0  0  0  0
   -7.7628   -6.2401  -22.3646 C   0  0  2  0  0  0  0  0  0  0  0  0
   -8.6522   -6.7462  -23.3452 O   0  0  0  0  0  0  0  0  0  0  0  0
   -6.9225  -12.5572  -15.1594 C   0  0  0  0  0  0  0  0  0  0  0  0
   -7.0349  -12.4810  -20.0954 C   0  0  2  0  0  0  0  0  0  0  0  0
   -7.4596  -13.8102  -19.5976 N   0  0  0  0  0  0  0  0  0  0  0  0
   -6.2776   -6.1526  -22.9328 C   0  0  1  0  0  0  0  0  0  0  0  0
   -6.2212   -5.2489  -24.1317 N   0  0  0  0  0  0  0  0  0  0  0  0
   -8.4341  -12.9168  -15.0765 C   0  0  0  0  0  0  0  0  0  0  0  0
   -7.6514  -11.3272  -19.1857 C   0  0  2  0  0  0  0  0  0  0  0  0
   -5.2953   -5.5659  -21.7736 C   0  0  1  0  0  0  0  0  0  0  0  0
   -5.6810   -4.2711  -21.3547 O   0  0  0  0  0  0  0  0  0  0  0  0
   -9.3587  -12.1614  -15.6884 C   0  0  2  0  0  0  0  0  0  0  0  0
   -9.0391  -10.9836  -16.4495 O   0  0  0  0  0  0  0  0  0  0  0  0
   -7.1973   -9.9166  -19.7509 C   0  0  2  0  0  0  0  0  0  0  0  0
   -7.7657   -8.8689  -18.9551 O   0  0  0  0  0  0  0  0  0  0  0  0
   -5.3514   -6.5075  -20.5236 C   0  0  0  0  0  0  0  0  0  0  0  0
   -6.7946   -6.7041  -20.0909 O   0  0  0  0  0  0  0  0  0  0  0  0
  -10.8657  -12.5008  -15.6154 C   0  0  0  0  0  0  0  0  0  0  0  0
  -11.2762  -13.1601  -16.8473 N   0  0  0  0  0  0  0  0  0  0  0  0
   -7.6941   -9.7524  -21.2327 C   0  0  1  0  0  0  0  0  0  0  0  0
   -7.2685   -8.4947  -21.6997 O   0  0  0  0  0  0  0  0  0  0  0  0
   -3.8147   -5.4228  -22.1631 C   0  0  0  0  0  0  0  0  0  0  0  0
   -6.3398   -5.9012  -25.4495 C   0  0  0  0  0  0  0  0  0  0  0  0
  1  2  1  6  0  0  0
  1  6  1  0  0  0  0
  1 21  1  0  0  0  0
  3  4  1  6  0  0  0
  3  8  1  0  0  0  0
  3 28  1  0  0  0  0
  5  9  1  0  0  0  0
  5 25  1  0  0  0  0
  5 29  1  6  0  0  0
  6  7  1  6  0  0  0
  6 11  1  0  0  0  0
  8 12  1  0  0  0  0
  9 10  1  6  0  0  0
  9 14  1  0  0  0  0
 11 16  1  0  0  0  0
 12 13  1  1  0  0  0
 12 17  1  0  0  0  0
 14 15  1  6  0  0  0
 14 18  1  0  0  0  0
 15 31  1  0  0  0  0
 16 20  1  0  0  0  0
 17  2  1  1  0  0  0
 17 22  1  0  0  0  0
 18 19  1  1  0  0  0
 18 24  1  0  0  0  0
 18 30  1  0  0  0  0
 20 21  1  0  0  0  0
 20 26  1  1  0  0  0
 22 23  1  1  0  0  0
 22 28  1  0  0  0  0
 24 25  1  0  0  0  0
 26 27  1  0  0  0  0
 28 29  1  6  0  0  0
M  END
>  <CHROM.1>
-171.53931258,-146.45040649,-94.30334156,-173.85189792,-100.73164933,175.94935624
-7.31966230,-9.39914390,-19.82060911,-2.14701923,-1.11889368,-1.32950986

>  <Name>
ligand

>  <RI>
0

>  <Rbt.Current_Directory>
/home/itssahil/PROJECTS/Mol_Feturizer/New_Systems/rnas/4F8U

>  <Rbt.Executable>
rbdock ($Id: //depot/dev/client3/rdock/2013.1/src/exe/rbdock.cxx#4 $)

>  <Rbt.Library>
libRbt.so (2013.1, Build901 2013/11/27)

>  <Rbt.Parameter_File>
/export/apps/rDock/src/rDock_2013.1_src/data/scripts/dock_solv.prm

>  <Rbt.Receptor>
prm/pocket_docking_6.prm

>  <SCORE>
-15.3084

>  <SCORE.INTER>
-9.76413

>  <SCORE.INTER.CONST>
1

>  <SCORE.INTER.POLAR>
0

>  <SCORE.INTER.ROT>
6

>  <SCORE.INTER.SOLV>
17.1692

>  <SCORE.INTER.VDW>
-19.8325

>  <SCORE.INTER.norm>
-0.314972

>  <SCORE.INTRA>
-5.54423

>  <SCORE.INTRA.DIHEDRAL>
-11.0277

>  <SCORE.INTRA.DIHEDRAL.0>
18.77

>  <SCORE.INTRA.POLAR>
0

>  <SCORE.INTRA.POLAR.0>
0

>  <SCORE.INTRA.REPUL>
0

>  <SCORE.INTRA.REPUL.0>
0

>  <SCORE.INTRA.SOLV>
-2.98768

>  <SCORE.INTRA.SOLV.lig_0>
-77.2465

>  <SCORE.INTRA.VDW>
1.46348

>  <SCORE.INTRA.VDW.0>
-4.16072

>  <SCORE.INTRA.norm>
-0.178846

>  <SCORE.RESTR>
0

>  <SCORE.RESTR.CAVITY>
0

>  <SCORE.RESTR.norm>
0

>  <SCORE.SYSTEM>
0

>  <SCORE.SYSTEM.CONST>
0

>  <SCORE.SYSTEM.DIHEDRAL>
0

>  <SCORE.SYSTEM.SOLV>
0

>  <SCORE.SYSTEM.norm>
0

>  <SCORE.heavy>
31

>  <SCORE.norm>
-0.493818

>  <RMSD>
9.688

$$$$
ligand
 OpenBabel11021811493D
libRbt.so/2013.1/901 2013/11/27
 31 33  0  0  0  0  0  0  0  0999 V2000
   -6.4100  -11.4368  -25.2353 C   0  0  2  0  0  0  0  0  0  0  0  0
   -7.3192  -11.4396  -24.1263 O   0  0  0  0  0  0  0  0  0  0  0  0
   -7.6649  -10.4884  -19.9670 C   0  0  2  0  0  0  0  0  0  0  0  0
   -7.3281  -10.0258  -18.6553 N   0  0  0  0  0  0  0  0  0  0  0  0
   -8.0459   -6.9710  -20.1085 C   0  0  2  0  0  0  0  0  0  0  0  0
   -6.5135  -10.0136  -25.8878 C   0  0  2  0  0  0  0  0  0  0  0  0
   -6.1966   -8.9926  -24.8953 N   0  0  0  0  0  0  0  0  0  0  0  0
   -6.6720  -11.6458  -20.3701 C   0  0  0  0  0  0  0  0  0  0  0  0
   -7.4684   -6.2259  -21.3513 C   0  0  2  0  0  0  0  0  0  0  0  0
   -8.4800   -6.1222  -22.3386 O   0  0  0  0  0  0  0  0  0  0  0  0
   -7.9557   -9.7976  -26.4649 C   0  0  0  0  0  0  0  0  0  0  0  0
   -7.0520  -12.1643  -21.8241 C   0  0  2  0  0  0  0  0  0  0  0  0
   -6.1242  -13.2515  -22.2143 N   0  0  0  0  0  0  0  0  0  0  0  0
   -6.2388   -7.0869  -21.8832 C   0  0  1  0  0  0  0  0  0  0  0  0
   -5.6395   -6.4549  -23.1075 N   0  0  0  0  0  0  0  0  0  0  0  0
   -8.4082  -11.0299  -27.3005 C   0  0  0  0  0  0  0  0  0  0  0  0
   -6.9571  -10.9579  -22.8607 C   0  0  2  0  0  0  0  0  0  0  0  0
   -5.1047   -7.1764  -20.7176 C   0  0  1  0  0  0  0  0  0  0  0  0
   -4.6189   -5.9001  -20.3488 O   0  0  0  0  0  0  0  0  0  0  0  0
   -7.8165  -12.2240  -27.1468 C   0  0  2  0  0  0  0  0  0  0  0  0
   -6.7391  -12.4589  -26.2233 O   0  0  0  0  0  0  0  0  0  0  0  0
   -7.9449   -9.8018  -22.4097 C   0  0  2  0  0  0  0  0  0  0  0  0
   -7.8508   -8.6999  -23.3212 O   0  0  0  0  0  0  0  0  0  0  0  0
   -5.7269   -7.8363  -19.4410 C   0  0  0  0  0  0  0  0  0  0  0  0
   -6.9899   -7.0927  -19.0401 O   0  0  0  0  0  0  0  0  0  0  0  0
   -8.2501  -13.4596  -27.9697 C   0  0  0  0  0  0  0  0  0  0  0  0
   -7.2871  -13.6964  -29.0360 N   0  0  0  0  0  0  0  0  0  0  0  0
   -7.5574   -9.3025  -20.9709 C   0  0  1  0  0  0  0  0  0  0  0  0
   -8.4570   -8.2838  -20.6047 O   0  0  0  0  0  0  0  0  0  0  0  0
   -3.8449   -7.9833  -21.0727 C   0  0  0  0  0  0  0  0  0  0  0  0
   -5.5619   -4.9818  -23.1126 C   0  0  0  0  0  0  0  0  0  0  0  0
  1  2  1  1  0  0  0
  1  6  1  0  0  0  0
  1 21  1  0  0  0  0
  3  4  1  1  0  0  0
  3  8  1  0  0  0  0
  3 28  1  0  0  0  0
  5  9  1  0  0  0  0
  5 25  1  0  0  0  0
  5 29  1  6  0  0  0
  6  7  1  1  0  0  0
  6 11  1  0  0  0  0
  8 12  1  0  0  0  0
  9 10  1  6  0  0  0
  9 14  1  0  0  0  0
 11 16  1  0  0  0  0
 12 13  1  6  0  0  0
 12 17  1  0  0  0  0
 14 15  1  6  0  0  0
 14 18  1  0  0  0  0
 15 31  1  0  0  0  0
 16 20  1  0  0  0  0
 17  2  1  6  0  0  0
 17 22  1  0  0  0  0
 18 19  1  1  0  0  0
 18 24  1  0  0  0  0
 18 30  1  0  0  0  0
 20 21  1  0  0  0  0
 20 26  1  6  0  0  0
 22 23  1  6  0  0  0
 22 28  1  0  0  0  0
 24 25  1  0  0  0  0
 26 27  1  0  0  0  0
 28 29  1  1  0  0  0
M  END
>  <CHROM.1>
-85.09224162,72.20038458,38.67276503,-117.89157300,102.73232157,112.19204661
-6.90966064,-9.41421484,-22.89538525,2.52438784,-1.41640030,-1.29837297

>  <Name>
ligand

>  <RI>
0

>  <Rbt.Current_Directory>
/home/itssahil/PROJECTS/Mol_Feturizer/New_Systems/rnas/4F8U

>  <Rbt.Executable>
rbdock ($Id: //depot/dev/client3/rdock/2013.1/src/exe/rbdock.cxx#4 $)

>  <Rbt.Library>
libRbt.so (2013.1, Build901 2013/11/27)

>  <Rbt.Parameter_File>
/export/apps/rDock/src/rDock_2013.1_src/data/scripts/dock_solv.prm

>  <Rbt.Receptor>
prm/blind_docking_80.prm

>  <SCORE>
21.128

>  <SCORE.INTER>
-0.493527

>  <SCORE.INTER.CONST>
1

>  <SCORE.INTER.POLAR>
0

>  <SCORE.INTER.ROT>
6

>  <SCORE.INTER.SOLV>
30.0816

>  <SCORE.INTER.VDW>
-17.9562

>  <SCORE.INTER.norm>
-0.0159202

>  <SCORE.INTRA>
15.2074

>  <SCORE.INTRA.DIHEDRAL>
1.08938

>  <SCORE.INTRA.DIHEDRAL.0>
18.77

>  <SCORE.INTRA.POLAR>
0

>  <SCORE.INTRA.POLAR.0>
0

>  <SCORE.INTRA.REPUL>
0.811132

>  <SCORE.INTRA.REPUL.0>
0

>  <SCORE.INTRA.SOLV>
6.32656

>  <SCORE.INTRA.SOLV.lig_0>
-77.2465

>  <SCORE.INTRA.VDW>
7.4438

>  <SCORE.INTRA.VDW.0>
-4.16072

>  <SCORE.INTRA.norm>
0.490562

>  <SCORE.RESTR>
6.41413

>  <SCORE.RESTR.CAVITY>
6.41413

>  <SCORE.RESTR.norm>
0.206908

>  <SCORE.SYSTEM>
0

>  <SCORE.SYSTEM.CONST>
0

>  <SCORE.SYSTEM.DIHEDRAL>
0

>  <SCORE.SYSTEM.SOLV>
0

>  <SCORE.SYSTEM.norm>
0

>  <SCORE.heavy>
31

>  <SCORE.norm>
0.68155

>  <RMSD>
9.701

$$$$
ligand
 OpenBabel11021811493D
libRbt.so/2013.1/901 2013/11/27
 31 33  0  0  0  0  0  0  0  0999 V2000
   -7.7673  -10.7944  -16.8472 C   0  0  2  0  0  0  0  0  0  0  0  0
   -7.2241  -11.5310  -17.9512 O   0  0  0  0  0  0  0  0  0  0  0  0
   -7.0256  -10.8559  -22.1736 C   0  0  2  0  0  0  0  0  0  0  0  0
   -7.4354  -10.6776  -23.5331 N   0  0  0  0  0  0  0  0  0  0  0  0
   -7.6957   -7.2122  -21.1636 C   0  0  2  0  0  0  0  0  0  0  0  0
   -6.9033  -11.1755  -15.5941 C   0  0  2  0  0  0  0  0  0  0  0  0
   -5.5018  -10.8608  -15.8481 N   0  0  0  0  0  0  0  0  0  0  0  0
   -7.4885  -12.2822  -21.6844 C   0  0  0  0  0  0  0  0  0  0  0  0
   -7.7350   -6.2114  -22.3596 C   0  0  2  0  0  0  0  0  0  0  0  0
   -8.6323   -6.7005  -23.3416 O   0  0  0  0  0  0  0  0  0  0  0  0
   -7.0799  -12.7001  -15.2712 C   0  0  0  0  0  0  0  0  0  0  0  0
   -7.0258  -12.4822  -20.1767 C   0  0  2  0  0  0  0  0  0  0  0  0
   -7.4570  -13.8191  -19.7054 N   0  0  0  0  0  0  0  0  0  0  0  0
   -6.2543   -6.1152  -22.9378 C   0  0  1  0  0  0  0  0  0  0  0  0
   -6.2066   -5.1914  -24.1217 N   0  0  0  0  0  0  0  0  0  0  0  0
   -8.5842  -13.0981  -15.2822 C   0  0  0  0  0  0  0  0  0  0  0  0
   -7.6677  -11.3421  -19.2674 C   0  0  2  0  0  0  0  0  0  0  0  0
   -5.2625   -5.5486  -21.7766 C   0  0  1  0  0  0  0  0  0  0  0  0
   -5.6441   -4.2607  -21.3330 O   0  0  0  0  0  0  0  0  0  0  0  0
   -9.4955  -12.3379  -15.9078 C   0  0  2  0  0  0  0  0  0  0  0  0
   -9.1679  -11.1204  -16.5999 O   0  0  0  0  0  0  0  0  0  0  0  0
   -7.2058   -9.9229  -19.8044 C   0  0  2  0  0  0  0  0  0  0  0  0
   -7.7966   -8.8872  -19.0092 O   0  0  0  0  0  0  0  0  0  0  0  0
   -5.3094   -6.5110  -20.5422 C   0  0  0  0  0  0  0  0  0  0  0  0
   -6.7494   -6.7141  -20.1016 O   0  0  0  0  0  0  0  0  0  0  0  0
  -10.9952  -12.7151  -15.9276 C   0  0  0  0  0  0  0  0  0  0  0  0
  -11.3010  -13.4295  -17.1591 N   0  0  0  0  0  0  0  0  0  0  0  0
   -7.6686   -9.7421  -21.2953 C   0  0  1  0  0  0  0  0  0  0  0  0
   -7.2370   -8.4772  -21.7366 O   0  0  0  0  0  0  0  0  0  0  0  0
   -3.7849   -5.3996  -22.1752 C   0  0  0  0  0  0  0  0  0  0  0  0
   -6.3466   -5.8201  -25.4488 C   0  0  0  0  0  0  0  0  0  0  0  0
  1  2  1  6  0  0  0
  1  6  1  0  0  0  0
  1 21  1  0  0  0  0
  3  4  1  6  0  0  0
  3  8  1  0  0  0  0
  3 28  1  0  0  0  0
  5  9  1  0  0  0  0
  5 25  1  0  0  0  0
  5 29  1  6  0  0  0
  6  7  1  6  0  0  0
  6 11  1  0  0  0  0
  8 12  1  0  0  0  0
  9 10  1  6  0  0  0
  9 14  1  0  0  0  0
 11 16  1  0  0  0  0
 12 13  1  1  0  0  0
 12 17  1  0  0  0  0
 14 15  1  6  0  0  0
 14 18  1  0  0  0  0
 15 31  1  0  0  0  0
 16 20  1  0  0  0  0
 17  2  1  1  0  0  0
 17 22  1  0  0  0  0
 18 19  1  1  0  0  0
 18 24  1  0  0  0  0
 18 30  1  0  0  0  0
 20 21  1  0  0  0  0
 20 26  1  1  0  0  0
 22 23  1  1  0  0  0
 22 28  1  0  0  0  0
 24 25  1  0  0  0  0
 26 27  1  0  0  0  0
 28 29  1  6  0  0  0
M  END
>  <CHROM.1>
-173.76958933,-145.87213840,-93.83607905,-170.75392703,-95.95836756,177.38139884
-7.34343099,-9.43365840,-19.88958218,-2.17803688,-1.11280782,-1.32988713

>  <Name>
ligand

>  <RI>
0

>  <Rbt.Current_Directory>
/home/itssahil/PROJECTS/Mol_Feturizer/New_Systems/rnas/4F8U

>  <Rbt.Executable>
rbdock ($Id: //depot/dev/client3/rdock/2013.1/src/exe/rbdock.cxx#4 $)

>  <Rbt.Library>
libRbt.so (2013.1, Build901 2013/11/27)

>  <Rbt.Parameter_File>
/export/apps/rDock/src/rDock_2013.1_src/data/scripts/dock_solv.prm

>  <Rbt.Receptor>
prm/pocket_docking_7.prm

>  <SCORE>
-15.3449

>  <SCORE.INTER>
-9.94111

>  <SCORE.INTER.CONST>
1

>  <SCORE.INTER.POLAR>
0

>  <SCORE.INTER.ROT>
6

>  <SCORE.INTER.SOLV>
17.4552

>  <SCORE.INTER.VDW>
-20.0458

>  <SCORE.INTER.norm>
-0.320681

>  <SCORE.INTRA>
-5.40379

>  <SCORE.INTRA.DIHEDRAL>
-10.6945

>  <SCORE.INTRA.DIHEDRAL.0>
18.77

>  <SCORE.INTRA.POLAR>
0

>  <SCORE.INTRA.POLAR.0>
0

>  <SCORE.INTRA.REPUL>
0

>  <SCORE.INTRA.REPUL.0>
0

>  <SCORE.INTRA.SOLV>
-2.94784

>  <SCORE.INTRA.SOLV.lig_0>
-77.2465

>  <SCORE.INTRA.VDW>
1.4174

>  <SCORE.INTRA.VDW.0>
-4.16072

>  <SCORE.INTRA.norm>
-0.174316

>  <SCORE.RESTR>
0

>  <SCORE.RESTR.CAVITY>
0

>  <SCORE.RESTR.norm>
0

>  <SCORE.SYSTEM>
0

>  <SCORE.SYSTEM.CONST>
0

>  <SCORE.SYSTEM.DIHEDRAL>
0

>  <SCORE.SYSTEM.SOLV>
0

>  <SCORE.SYSTEM.norm>
0

>  <SCORE.heavy>
31

>  <SCORE.norm>
-0.494997

>  <RMSD>
9.703

$$$$
ligand
 OpenBabel11021811493D
libRbt.so/2013.1/901 2013/11/27
 31 33  0  0  0  0  0  0  0  0999 V2000
   -7.7616  -10.7875  -16.8646 C   0  0  2  0  0  0  0  0  0  0  0  0
   -7.2228  -11.5340  -17.9641 O   0  0  0  0  0  0  0  0  0  0  0  0
   -7.0167  -10.8614  -22.1865 C   0  0  2  0  0  0  0  0  0  0  0  0
   -7.4238  -10.6869  -23.5473 N   0  0  0  0  0  0  0  0  0  0  0  0
   -7.7066   -7.2213  -21.1765 C   0  0  2  0  0  0  0  0  0  0  0  0
   -6.8815  -11.1438  -15.6154 C   0  0  2  0  0  0  0  0  0  0  0  0
   -5.4856  -10.8196  -15.8878 N   0  0  0  0  0  0  0  0  0  0  0  0
   -7.4720  -12.2902  -21.6973 C   0  0  0  0  0  0  0  0  0  0  0  0
   -7.7468   -6.2175  -22.3698 C   0  0  2  0  0  0  0  0  0  0  0  0
   -8.6418   -6.7060  -23.3542 O   0  0  0  0  0  0  0  0  0  0  0  0
   -7.0407  -12.6654  -15.2702 C   0  0  0  0  0  0  0  0  0  0  0  0
   -7.0122  -12.4860  -20.1881 C   0  0  2  0  0  0  0  0  0  0  0  0
   -7.4362  -13.8251  -19.7168 N   0  0  0  0  0  0  0  0  0  0  0  0
   -6.2656   -6.1162  -22.9460 C   0  0  1  0  0  0  0  0  0  0  0  0
   -6.2186   -5.1892  -24.1273 N   0  0  0  0  0  0  0  0  0  0  0  0
   -8.5412  -13.0772  -15.2605 C   0  0  0  0  0  0  0  0  0  0  0  0
   -7.6639  -11.3491  -19.2817 C   0  0  2  0  0  0  0  0  0  0  0  0
   -5.2766   -5.5504  -21.7821 C   0  0  1  0  0  0  0  0  0  0  0  0
   -5.6617   -4.2647  -21.3354 O   0  0  0  0  0  0  0  0  0  0  0  0
   -9.4658  -12.3340  -15.8869 C   0  0  2  0  0  0  0  0  0  0  0  0
   -9.1566  -11.1230  -16.5986 O   0  0  0  0  0  0  0  0  0  0  0  0
   -7.2095   -9.9275  -19.8187 C   0  0  2  0  0  0  0  0  0  0  0  0
   -7.8090   -8.8949  -19.0261 O   0  0  0  0  0  0  0  0  0  0  0  0
   -5.3228   -6.5163  -20.5503 C   0  0  0  0  0  0  0  0  0  0  0  0
   -6.7628   -6.7239  -20.1120 O   0  0  0  0  0  0  0  0  0  0  0  0
  -10.9621  -12.7251  -15.8863 C   0  0  0  0  0  0  0  0  0  0  0  0
  -11.2807  -13.4319  -17.1189 N   0  0  0  0  0  0  0  0  0  0  0  0
   -7.6691   -9.7509  -21.3110 C   0  0  1  0  0  0  0  0  0  0  0  0
   -7.2443   -8.4837  -21.7522 O   0  0  0  0  0  0  0  0  0  0  0  0
   -3.7988   -5.3970  -22.1784 C   0  0  0  0  0  0  0  0  0  0  0  0
   -6.2736   -5.8220  -25.4588 C   0  0  0  0  0  0  0  0  0  0  0  0
  1  2  1  6  0  0  0
  1  6  1  0  0  0  0
  1 21  1  0  0  0  0
  3  4  1  6  0  0  0
  3  8  1  0  0  0  0
  3 28  1  0  0  0  0
  5  9  1  0  0  0  0
  5 25  1  0  0  0  0
  5 29  1  6  0  0  0
  6  7  1  6  0  0  0
  6 11  1  0  0  0  0
  8 12  1  0  0  0  0
  9 10  1  6  0  0  0
  9 14  1  0  0  0  0
 11 16  1  0  0  0  0
 12 13  1  1  0  0  0
 12 17  1  0  0  0  0
 14 15  1  6  0  0  0
 14 18  1  0  0  0  0
 15 31  1  0  0  0  0
 16 20  1  0  0  0  0
 17  2  1  1  0  0  0
 17 22  1  0  0  0  0
 18 19  1  1  0  0  0
 18 24  1  0  0  0  0
 18 30  1  0  0  0  0
 20 21  1  0  0  0  0
 20 26  1  1  0  0  0
 22 23  1  1  0  0  0
 22 28  1  0  0  0  0
 24 25  1  0  0  0  0
 26 27  1  0  0  0  0
 28 29  1  6  0  0  0
M  END
>  <CHROM.1>
-172.54453210,-146.15706435,-97.40441834,-171.57846098,-97.26234164,177.75611852
-7.33655980,-9.43337170,-19.89583659,-2.18647482,-1.12250184,-1.34260059

>  <Name>
ligand

>  <RI>
0

>  <Rbt.Current_Directory>
/home/itssahil/PROJECTS/Mol_Feturizer/New_Systems/rnas/4F8U

>  <Rbt.Executable>
rbdock ($Id: //depot/dev/client3/rdock/2013.1/src/exe/rbdock.cxx#4 $)

>  <Rbt.Library>
libRbt.so (2013.1, Build901 2013/11/27)

>  <Rbt.Parameter_File>
/export/apps/rDock/src/rDock_2013.1_src/data/scripts/dock_solv.prm

>  <Rbt.Receptor>
prm/pocket_docking_6.prm

>  <SCORE>
-15.3569

>  <SCORE.INTER>
-9.94834

>  <SCORE.INTER.CONST>
1

>  <SCORE.INTER.POLAR>
0

>  <SCORE.INTER.ROT>
6

>  <SCORE.INTER.SOLV>
17.4294

>  <SCORE.INTER.VDW>
-20.042

>  <SCORE.INTER.norm>
-0.320914

>  <SCORE.INTRA>
-5.40854

>  <SCORE.INTRA.DIHEDRAL>
-10.6988

>  <SCORE.INTRA.DIHEDRAL.0>
18.77

>  <SCORE.INTRA.POLAR>
0

>  <SCORE.INTRA.POLAR.0>
0

>  <SCORE.INTRA.REPUL>
0

>  <SCORE.INTRA.REPUL.0>
0

>  <SCORE.INTRA.SOLV>
-2.99498

>  <SCORE.INTRA.SOLV.lig_0>
-77.2465

>  <SCORE.INTRA.VDW>
1.43838

>  <SCORE.INTRA.VDW.0>
-4.16072

>  <SCORE.INTRA.norm>
-0.174469

>  <SCORE.RESTR>
0

>  <SCORE.RESTR.CAVITY>
0

>  <SCORE.RESTR.norm>
0

>  <SCORE.SYSTEM>
0

>  <SCORE.SYSTEM.CONST>
0

>  <SCORE.SYSTEM.DIHEDRAL>
0

>  <SCORE.SYSTEM.SOLV>
0

>  <SCORE.SYSTEM.norm>
0

>  <SCORE.heavy>
31

>  <SCORE.norm>
-0.495383

>  <RMSD>
9.707

$$$$
ligand
 OpenBabel11021811493D
libRbt.so/2013.1/901 2013/11/27
 31 33  0  0  0  0  0  0  0  0999 V2000
   -7.7183  -10.7751  -16.8316 C   0  0  2  0  0  0  0  0  0  0  0  0
   -7.1959  -11.5136  -17.9444 O   0  0  0  0  0  0  0  0  0  0  0  0
   -7.0783  -10.8526  -22.1720 C   0  0  2  0  0  0  0  0  0  0  0  0
   -7.5143  -10.6773  -23.5238 N   0  0  0  0  0  0  0  0  0  0  0  0
   -7.7328   -7.2031  -21.1745 C   0  0  2  0  0  0  0  0  0  0  0  0
   -6.8223  -11.1437  -15.5973 C   0  0  2  0  0  0  0  0  0  0  0  0
   -5.4295  -10.8203  -15.8857 N   0  0  0  0  0  0  0  0  0  0  0  0
   -7.5361  -12.2759  -21.6692 C   0  0  0  0  0  0  0  0  0  0  0  0
   -7.7684   -6.2096  -22.3766 C   0  0  2  0  0  0  0  0  0  0  0  0
   -8.6637   -6.7040  -23.3579 O   0  0  0  0  0  0  0  0  0  0  0  0
   -6.9802  -12.6678  -15.2626 C   0  0  0  0  0  0  0  0  0  0  0  0
   -7.0444  -12.4726  -20.1702 C   0  0  2  0  0  0  0  0  0  0  0  0
   -7.4704  -13.8065  -19.6862 N   0  0  0  0  0  0  0  0  0  0  0  0
   -6.2862   -6.1179  -22.9517 C   0  0  1  0  0  0  0  0  0  0  0  0
   -6.2349   -5.2013  -24.1411 N   0  0  0  0  0  0  0  0  0  0  0  0
   -8.4815  -13.0764  -15.2361 C   0  0  0  0  0  0  0  0  0  0  0  0
   -7.6647  -11.3275  -19.2522 C   0  0  2  0  0  0  0  0  0  0  0  0
   -5.2970   -5.5448  -21.7915 C   0  0  1  0  0  0  0  0  0  0  0  0
   -5.6788   -4.2541  -21.3566 O   0  0  0  0  0  0  0  0  0  0  0  0
   -9.4127  -12.3260  -15.8439 C   0  0  2  0  0  0  0  0  0  0  0  0
   -9.1103  -11.1098  -16.5497 O   0  0  0  0  0  0  0  0  0  0  0  0
   -7.2090   -9.9115  -19.8027 C   0  0  2  0  0  0  0  0  0  0  0  0
   -7.7808   -8.8714  -18.9995 O   0  0  0  0  0  0  0  0  0  0  0  0
   -5.3477   -6.4997  -20.5514 C   0  0  0  0  0  0  0  0  0  0  0  0
   -6.7889   -6.6992  -20.1132 O   0  0  0  0  0  0  0  0  0  0  0  0
  -10.9097  -12.7139  -15.8265 C   0  0  0  0  0  0  0  0  0  0  0  0
  -11.2456  -13.4131  -17.0589 N   0  0  0  0  0  0  0  0  0  0  0  0
   -7.7004   -9.7339  -21.2848 C   0  0  1  0  0  0  0  0  0  0  0  0
   -7.2736   -8.4718  -21.7386 O   0  0  0  0  0  0  0  0  0  0  0  0
   -3.8183   -5.3993  -22.1872 C   0  0  0  0  0  0  0  0  0  0  0  0
   -6.4378   -5.8290  -25.4605 C   0  0  0  0  0  0  0  0  0  0  0  0
  1  2  1  6  0  0  0
  1  6  1  0  0  0  0
  1 21  1  0  0  0  0
  3  4  1  6  0  0  0
  3  8  1  0  0  0  0
  3 28  1  0  0  0  0
  5  9  1  0  0  0  0
  5 25  1  0  0  0  0
  5 29  1  6  0  0  0
  6  7  1  6  0  0  0
  6 11  1  0  0  0  0
  8 12  1  0  0  0  0
  9 10  1  6  0  0  0
  9 14  1  0  0  0  0
 11 16  1  0  0  0  0
 12 13  1  1  0  0  0
 12 17  1  0  0  0  0
 14 15  1  6  0  0  0
 14 18  1  0  0  0  0
 15 31  1  0  0  0  0
 16 20  1  0  0  0  0
 17  2  1  1  0  0  0
 17 22  1  0  0  0  0
 18 19  1  1  0  0  0
 18 24  1  0  0  0  0
 18 30  1  0  0  0  0
 20 21  1  0  0  0  0
 20 26  1  1  0  0  0
 22 23  1  1  0  0  0
 22 28  1  0  0  0  0
 24 25  1  0  0  0  0
 26 27  1  0  0  0  0
 28 29  1  6  0  0  0
M  END
>  <CHROM.1>
-173.27682760,-146.31150851,-90.95101239,-170.52756118,-97.10042224,176.38935858
-7.34323506,-9.42363675,-19.88074194,-2.13869667,-1.10746083,-1.29719961

>  <Name>
ligand

>  <RI>
0

>  <Rbt.Current_Directory>
/home/itssahil/PROJECTS/Mol_Feturizer/New_Systems/rnas/4F8U

>  <Rbt.Executable>
rbdock ($Id: //depot/dev/client3/rdock/2013.1/src/exe/rbdock.cxx#4 $)

>  <Rbt.Library>
libRbt.so (2013.1, Build901 2013/11/27)

>  <Rbt.Parameter_File>
/export/apps/rDock/src/rDock_2013.1_src/data/scripts/dock_solv.prm

>  <Rbt.Receptor>
prm/pocket_docking_6.prm

>  <SCORE>
-15.3805

>  <SCORE.INTER>
-9.92803

>  <SCORE.INTER.CONST>
1

>  <SCORE.INTER.POLAR>
0

>  <SCORE.INTER.ROT>
6

>  <SCORE.INTER.SOLV>
17.3751

>  <SCORE.INTER.VDW>
-20.0104

>  <SCORE.INTER.norm>
-0.320259

>  <SCORE.INTRA>
-5.45244

>  <SCORE.INTRA.DIHEDRAL>
-10.8381

>  <SCORE.INTRA.DIHEDRAL.0>
18.77

>  <SCORE.INTRA.POLAR>
0

>  <SCORE.INTRA.POLAR.0>
0

>  <SCORE.INTRA.REPUL>
0

>  <SCORE.INTRA.REPUL.0>
0

>  <SCORE.INTRA.SOLV>
-2.91117

>  <SCORE.INTRA.SOLV.lig_0>
-77.2465

>  <SCORE.INTRA.VDW>
1.42222

>  <SCORE.INTRA.VDW.0>
-4.16072

>  <SCORE.INTRA.norm>
-0.175885

>  <SCORE.RESTR>
0

>  <SCORE.RESTR.CAVITY>
0

>  <SCORE.RESTR.norm>
0

>  <SCORE.SYSTEM>
0

>  <SCORE.SYSTEM.CONST>
0

>  <SCORE.SYSTEM.DIHEDRAL>
0

>  <SCORE.SYSTEM.SOLV>
0

>  <SCORE.SYSTEM.norm>
0

>  <SCORE.heavy>
31

>  <SCORE.norm>
-0.496144

>  <RMSD>
9.717

$$$$
ligand
 OpenBabel11021811493D
libRbt.so/2013.1/901 2013/11/27
 31 33  0  0  0  0  0  0  0  0999 V2000
   -6.7575  -12.0340  -21.2031 C   0  0  2  0  0  0  0  0  0  0  0  0
   -7.9595  -11.6247  -21.8697 O   0  0  0  0  0  0  0  0  0  0  0  0
   -6.5693   -8.2284  -24.0734 C   0  0  2  0  0  0  0  0  0  0  0  0
   -6.5676   -7.0909  -24.9418 N   0  0  0  0  0  0  0  0  0  0  0  0
   -6.0287   -6.8557  -21.1995 C   0  0  2  0  0  0  0  0  0  0  0  0
   -7.2042  -12.9497  -20.0098 C   0  0  2  0  0  0  0  0  0  0  0  0
   -7.9801  -14.0760  -20.5170 N   0  0  0  0  0  0  0  0  0  0  0  0
   -7.0181   -9.4972  -24.8960 C   0  0  0  0  0  0  0  0  0  0  0  0
   -5.8315   -5.3661  -20.7804 C   0  0  2  0  0  0  0  0  0  0  0  0
   -7.0320   -4.8872  -20.1988 O   0  0  0  0  0  0  0  0  0  0  0  0
   -8.0459  -12.1130  -18.9845 C   0  0  0  0  0  0  0  0  0  0  0  0
   -7.0120  -10.7615  -23.9323 C   0  0  2  0  0  0  0  0  0  0  0  0
   -7.4339  -11.9601  -24.6942 N   0  0  0  0  0  0  0  0  0  0  0  0
   -5.4738   -4.5520  -22.1016 C   0  0  1  0  0  0  0  0  0  0  0  0
   -5.2986   -3.0920  -21.7933 N   0  0  0  0  0  0  0  0  0  0  0  0
   -7.3412  -10.7643  -18.6593 C   0  0  0  0  0  0  0  0  0  0  0  0
   -8.0038  -10.5050  -22.7119 C   0  0  2  0  0  0  0  0  0  0  0  0
   -4.0898   -5.1358  -22.7313 C   0  0  1  0  0  0  0  0  0  0  0  0
   -3.0035   -5.0131  -21.8335 O   0  0  0  0  0  0  0  0  0  0  0  0
   -6.4098  -10.2558  -19.4800 C   0  0  2  0  0  0  0  0  0  0  0  0
   -5.9920  -10.8998  -20.6964 O   0  0  0  0  0  0  0  0  0  0  0  0
   -7.5410   -9.2077  -21.9256 C   0  0  2  0  0  0  0  0  0  0  0  0
   -8.4400   -8.9520  -20.8391 O   0  0  0  0  0  0  0  0  0  0  0  0
   -4.2708   -6.6573  -23.0548 C   0  0  0  0  0  0  0  0  0  0  0  0
   -4.7639   -7.3917  -21.8194 O   0  0  0  0  0  0  0  0  0  0  0  0
   -5.6963   -8.9185  -19.1729 C   0  0  0  0  0  0  0  0  0  0  0  0
   -5.0059   -9.0178  -17.8946 N   0  0  0  0  0  0  0  0  0  0  0  0
   -7.5503   -7.9685  -22.8920 C   0  0  1  0  0  0  0  0  0  0  0  0
   -7.1301   -6.8412  -22.1615 O   0  0  0  0  0  0  0  0  0  0  0  0
   -3.6049   -4.4558  -24.0223 C   0  0  0  0  0  0  0  0  0  0  0  0
   -4.6004   -2.7677  -20.5349 C   0  0  0  0  0  0  0  0  0  0  0  0
  1  2  1  1  0  0  0
  1  6  1  0  0  0  0
  1 21  1  0  0  0  0
  3  4  1  6  0  0  0
  3  8  1  0  0  0  0
  3 28  1  0  0  0  0
  5  9  1  0  0  0  0
  5 25  1  0  0  0  0
  5 29  1  6  0  0  0
  6  7  1  6  0  0  0
  6 11  1  0  0  0  0
  8 12  1  0  0  0  0
  9 10  1  6  0  0  0
  9 14  1  0  0  0  0
 11 16  1  0  0  0  0
 12 13  1  6  0  0  0
 12 17  1  0  0  0  0
 14 15  1  1  0  0  0
 14 18  1  0  0  0  0
 15 31  1  0  0  0  0
 16 20  1  0  0  0  0
 17  2  1  1  0  0  0
 17 22  1  0  0  0  0
 18 19  1  1  0  0  0
 18 24  1  0  0  0  0
 18 30  1  0  0  0  0
 20 21  1  0  0  0  0
 20 26  1  1  0  0  0
 22 23  1  1  0  0  0
 22 28  1  0  0  0  0
 24 25  1  0  0  0  0
 26 27  1  0  0  0  0
 28 29  1  1  0  0  0
M  END
>  <CHROM.1>
160.27345998,173.53096948,39.65445990,61.92840232,59.25537444,-77.67877770
-6.30073988,-8.34601037,-21.64848051,-2.82414781,-1.20655346,-1.37900684

>  <Name>
ligand

>  <RI>
0

>  <Rbt.Current_Directory>
/home/itssahil/PROJECTS/Mol_Feturizer/New_Systems/rnas/4F8U

>  <Rbt.Executable>
rbdock ($Id: //depot/dev/client3/rdock/2013.1/src/exe/rbdock.cxx#4 $)

>  <Rbt.Library>
libRbt.so (2013.1, Build901 2013/11/27)

>  <Rbt.Parameter_File>
/export/apps/rDock/src/rDock_2013.1_src/data/scripts/dock_solv.prm

>  <Rbt.Receptor>
prm/blind_docking_80.prm

>  <SCORE>
7.35422

>  <SCORE.INTER>
-3.41189

>  <SCORE.INTER.CONST>
1

>  <SCORE.INTER.POLAR>
0

>  <SCORE.INTER.ROT>
6

>  <SCORE.INTER.SOLV>
27.4673

>  <SCORE.INTER.VDW>
-19.0304

>  <SCORE.INTER.norm>
-0.110061

>  <SCORE.INTRA>
1.57982

>  <SCORE.INTRA.DIHEDRAL>
-11.444

>  <SCORE.INTRA.DIHEDRAL.0>
18.77

>  <SCORE.INTRA.POLAR>
0

>  <SCORE.INTRA.POLAR.0>
0

>  <SCORE.INTRA.REPUL>
0.118337

>  <SCORE.INTRA.REPUL.0>
0

>  <SCORE.INTRA.SOLV>
1.79536

>  <SCORE.INTRA.SOLV.lig_0>
-77.2465

>  <SCORE.INTRA.VDW>
5.81247

>  <SCORE.INTRA.VDW.0>
-4.16072

>  <SCORE.INTRA.norm>
0.0509618

>  <SCORE.RESTR>
9.1863

>  <SCORE.RESTR.CAVITY>
9.1863

>  <SCORE.RESTR.norm>
0.296332

>  <SCORE.SYSTEM>
0

>  <SCORE.SYSTEM.CONST>
0

>  <SCORE.SYSTEM.DIHEDRAL>
0

>  <SCORE.SYSTEM.SOLV>
0

>  <SCORE.SYSTEM.norm>
0

>  <SCORE.heavy>
31

>  <SCORE.norm>
0.237233

>  <RMSD>
9.726

$$$$
ligand
 OpenBabel11021811493D
libRbt.so/2013.1/901 2013/11/27
 31 33  0  0  0  0  0  0  0  0999 V2000
   -7.3146  -10.6151  -17.1001 C   0  0  2  0  0  0  0  0  0  0  0  0
   -6.8971  -11.3444  -18.2622 O   0  0  0  0  0  0  0  0  0  0  0  0
   -7.0822  -10.4921  -22.4530 C   0  0  2  0  0  0  0  0  0  0  0  0
   -7.6121  -10.2754  -23.7646 N   0  0  0  0  0  0  0  0  0  0  0  0
   -7.7562   -6.9231  -21.2048 C   0  0  2  0  0  0  0  0  0  0  0  0
   -6.4558  -11.1593  -15.9051 C   0  0  2  0  0  0  0  0  0  0  0  0
   -5.0374  -10.9881  -16.1998 N   0  0  0  0  0  0  0  0  0  0  0  0
   -7.4499  -11.9542  -21.9896 C   0  0  0  0  0  0  0  0  0  0  0  0
   -7.7951   -5.8203  -22.3074 C   0  0  2  0  0  0  0  0  0  0  0  0
   -8.7250   -6.1999  -23.3074 O   0  0  0  0  0  0  0  0  0  0  0  0
   -6.7919  -12.6707  -15.6545 C   0  0  0  0  0  0  0  0  0  0  0  0
   -6.8540  -12.1964  -20.5358 C   0  0  2  0  0  0  0  0  0  0  0  0
   -7.1948  -13.5673  -20.0889 N   0  0  0  0  0  0  0  0  0  0  0  0
   -6.3249   -5.7084  -22.9091 C   0  0  1  0  0  0  0  0  0  0  0  0
   -6.2786   -4.6853  -24.0084 N   0  0  0  0  0  0  0  0  0  0  0  0
   -8.3310  -12.8982  -15.6242 C   0  0  0  0  0  0  0  0  0  0  0  0
   -7.4574  -11.1203  -19.5274 C   0  0  2  0  0  0  0  0  0  0  0  0
   -5.2949   -5.2696  -21.7260 C   0  0  1  0  0  0  0  0  0  0  0  0
   -5.6342   -4.0172  -21.1627 O   0  0  0  0  0  0  0  0  0  0  0  0
   -9.1720  -12.0079  -16.1716 C   0  0  2  0  0  0  0  0  0  0  0  0
   -8.7335  -10.7972  -16.8126 O   0  0  0  0  0  0  0  0  0  0  0  0
   -7.0945   -9.6634  -20.0386 C   0  0  2  0  0  0  0  0  0  0  0  0
   -7.6529   -8.6850  -19.1527 O   0  0  0  0  0  0  0  0  0  0  0  0
   -5.3404   -6.3356  -20.5798 C   0  0  0  0  0  0  0  0  0  0  0  0
   -6.7755   -6.5429  -20.1255 O   0  0  0  0  0  0  0  0  0  0  0  0
  -10.7045  -12.2148  -16.1492 C   0  0  0  0  0  0  0  0  0  0  0  0
  -11.3043  -11.3043  -15.1840 N   0  0  0  0  0  0  0  0  0  0  0  0
   -7.6883   -9.4411  -21.4766 C   0  0  1  0  0  0  0  0  0  0  0  0
   -7.3419   -8.1432  -21.8967 O   0  0  0  0  0  0  0  0  0  0  0  0
   -3.8227   -5.1209  -22.1441 C   0  0  0  0  0  0  0  0  0  0  0  0
   -6.1122   -5.2044  -25.3792 C   0  0  0  0  0  0  0  0  0  0  0  0
  1  2  1  6  0  0  0
  1  6  1  0  0  0  0
  1 21  1  0  0  0  0
  3  4  1  6  0  0  0
  3  8  1  0  0  0  0
  3 28  1  0  0  0  0
  5  9  1  0  0  0  0
  5 25  1  0  0  0  0
  5 29  1  6  0  0  0
  6  7  1  6  0  0  0
  6 11  1  0  0  0  0
  8 12  1  0  0  0  0
  9 10  1  6  0  0  0
  9 14  1  0  0  0  0
 11 16  1  0  0  0  0
 12 13  1  1  0  0  0
 12 17  1  0  0  0  0
 14 15  1  6  0  0  0
 14 18  1  0  0  0  0
 15 31  1  0  0  0  0
 16 20  1  0  0  0  0
 17  2  1  1  0  0  0
 17 22  1  0  0  0  0
 18 19  1  1  0  0  0
 18 24  1  0  0  0  0
 18 30  1  0  0  0  0
 20 21  1  0  0  0  0
 20 26  1  1  0  0  0
 22 23  1  1  0  0  0
 22 28  1  0  0  0  0
 24 25  1  0  0  0  0
 26 27  1  0  0  0  0
 28 29  1  6  0  0  0
M  END
>  <CHROM.1>
179.95104978,-152.52118612,-109.06579358,-174.70546565,106.44433790,179.68305175
-7.22703334,-9.09227768,-19.97637490,-2.36478451,-1.26312914,-1.54853259

>  <Name>
ligand

>  <RI>
0

>  <Rbt.Current_Directory>
/home/itssahil/PROJECTS/Mol_Feturizer/New_Systems/rnas/4F8U

>  <Rbt.Executable>
rbdock ($Id: //depot/dev/client3/rdock/2013.1/src/exe/rbdock.cxx#4 $)

>  <Rbt.Library>
libRbt.so (2013.1, Build901 2013/11/27)

>  <Rbt.Parameter_File>
/export/apps/rDock/src/rDock_2013.1_src/data/scripts/dock_solv.prm

>  <Rbt.Receptor>
prm/pocket_docking_6.prm

>  <SCORE>
-16.3263

>  <SCORE.INTER>
-10.3456

>  <SCORE.INTER.CONST>
1

>  <SCORE.INTER.POLAR>
0

>  <SCORE.INTER.ROT>
6

>  <SCORE.INTER.SOLV>
15.2818

>  <SCORE.INTER.VDW>
-19.591

>  <SCORE.INTER.norm>
-0.33373

>  <SCORE.INTRA>
-5.98068

>  <SCORE.INTRA.DIHEDRAL>
-12.4851

>  <SCORE.INTRA.DIHEDRAL.0>
18.77

>  <SCORE.INTRA.POLAR>
0

>  <SCORE.INTRA.POLAR.0>
0

>  <SCORE.INTRA.REPUL>
0

>  <SCORE.INTRA.REPUL.0>
0

>  <SCORE.INTRA.SOLV>
-3.15829

>  <SCORE.INTRA.SOLV.lig_0>
-77.2465

>  <SCORE.INTRA.VDW>
1.84103

>  <SCORE.INTRA.VDW.0>
-4.16072

>  <SCORE.INTRA.norm>
-0.192925

>  <SCORE.RESTR>
0

>  <SCORE.RESTR.CAVITY>
0

>  <SCORE.RESTR.norm>
0

>  <SCORE.SYSTEM>
0

>  <SCORE.SYSTEM.CONST>
0

>  <SCORE.SYSTEM.DIHEDRAL>
0

>  <SCORE.SYSTEM.SOLV>
0

>  <SCORE.SYSTEM.norm>
0

>  <SCORE.heavy>
31

>  <SCORE.norm>
-0.526655

>  <RMSD>
9.732

$$$$
ligand
 OpenBabel11021811493D
libRbt.so/2013.1/901 2013/11/27
 31 33  0  0  0  0  0  0  0  0999 V2000
   -7.2814  -10.6086  -17.1155 C   0  0  2  0  0  0  0  0  0  0  0  0
   -6.8871  -11.3469  -18.2800 O   0  0  0  0  0  0  0  0  0  0  0  0
   -7.0897  -10.4784  -22.4667 C   0  0  2  0  0  0  0  0  0  0  0  0
   -7.6255  -10.2525  -23.7743 N   0  0  0  0  0  0  0  0  0  0  0  0
   -7.7390   -6.9072  -21.2119 C   0  0  2  0  0  0  0  0  0  0  0  0
   -6.4042  -11.1488  -15.9321 C   0  0  2  0  0  0  0  0  0  0  0  0
   -4.9905  -10.9853  -16.2524 N   0  0  0  0  0  0  0  0  0  0  0  0
   -7.4675  -11.9389  -22.0060 C   0  0  0  0  0  0  0  0  0  0  0  0
   -7.7717   -5.8059  -22.3161 C   0  0  2  0  0  0  0  0  0  0  0  0
   -8.6993   -6.1846  -23.3185 O   0  0  0  0  0  0  0  0  0  0  0  0
   -6.7420  -12.6571  -15.6661 C   0  0  0  0  0  0  0  0  0  0  0  0
   -6.8650  -12.1913  -20.5567 C   0  0  2  0  0  0  0  0  0  0  0  0
   -7.2152  -13.5607  -20.1125 N   0  0  0  0  0  0  0  0  0  0  0  0
   -6.2992   -5.6983  -22.9132 C   0  0  1  0  0  0  0  0  0  0  0  0
   -6.2470   -4.6769  -24.0137 N   0  0  0  0  0  0  0  0  0  0  0  0
   -8.2812  -12.8780  -15.6076 C   0  0  0  0  0  0  0  0  0  0  0  0
   -7.4529  -11.1135  -19.5410 C   0  0  2  0  0  0  0  0  0  0  0  0
   -5.2721   -5.2604  -21.7274 C   0  0  1  0  0  0  0  0  0  0  0  0
   -5.6102   -4.0064  -21.1669 O   0  0  0  0  0  0  0  0  0  0  0  0
   -9.1280  -11.9877  -16.1461 C   0  0  2  0  0  0  0  0  0  0  0  0
   -8.6959  -10.7830  -16.8024 O   0  0  0  0  0  0  0  0  0  0  0  0
   -7.0803   -9.6580  -20.0494 C   0  0  2  0  0  0  0  0  0  0  0  0
   -7.6247   -8.6778  -19.1568 O   0  0  0  0  0  0  0  0  0  0  0  0
   -5.3238   -6.3247  -20.5799 C   0  0  0  0  0  0  0  0  0  0  0  0
   -6.7608   -6.5278  -20.1299 O   0  0  0  0  0  0  0  0  0  0  0  0
  -10.6607  -12.1882  -16.0958 C   0  0  0  0  0  0  0  0  0  0  0  0
  -11.2414  -11.2605  -15.1354 N   0  0  0  0  0  0  0  0  0  0  0  0
   -7.6807   -9.4255  -21.4830 C   0  0  1  0  0  0  0  0  0  0  0  0
   -7.3254   -8.1293  -21.9007 O   0  0  0  0  0  0  0  0  0  0  0  0
   -3.7981   -5.1158  -22.1410 C   0  0  0  0  0  0  0  0  0  0  0  0
   -6.2140   -5.2009  -25.3923 C   0  0  0  0  0  0  0  0  0  0  0  0
  1  2  1  6  0  0  0
  1  6  1  0  0  0  0
  1 21  1  0  0  0  0
  3  4  1  6  0  0  0
  3  8  1  0  0  0  0
  3 28  1  0  0  0  0
  5  9  1  0  0  0  0
  5 25  1  0  0  0  0
  5 29  1  6  0  0  0
  6  7  1  6  0  0  0
  6 11  1  0  0  0  0
  8 12  1  0  0  0  0
  9 10  1  6  0  0  0
  9 14  1  0  0  0  0
 11 16  1  0  0  0  0
 12 13  1  1  0  0  0
 12 17  1  0  0  0  0
 14 15  1  6  0  0  0
 14 18  1  0  0  0  0
 15 31  1  0  0  0  0
 16 20  1  0  0  0  0
 17  2  1  1  0  0  0
 17 22  1  0  0  0  0
 18 19  1  1  0  0  0
 18 24  1  0  0  0  0
 18 30  1  0  0  0  0
 20 21  1  0  0  0  0
 20 26  1  1  0  0  0
 22 23  1  1  0  0  0
 22 28  1  0  0  0  0
 24 25  1  0  0  0  0
 26 27  1  0  0  0  0
 28 29  1  6  0  0  0
M  END
>  <CHROM.1>
-178.98883506,-152.25678962,-103.12937847,-175.35982324,106.97271763,178.87118521
-7.20926715,-9.07983991,-19.98110807,-2.33525904,-1.25915145,-1.52012198

>  <Name>
ligand

>  <RI>
0

>  <Rbt.Current_Directory>
/home/itssahil/PROJECTS/Mol_Feturizer/New_Systems/rnas/4F8U

>  <Rbt.Executable>
rbdock ($Id: //depot/dev/client3/rdock/2013.1/src/exe/rbdock.cxx#4 $)

>  <Rbt.Library>
libRbt.so (2013.1, Build901 2013/11/27)

>  <Rbt.Parameter_File>
/export/apps/rDock/src/rDock_2013.1_src/data/scripts/dock_solv.prm

>  <Rbt.Receptor>
prm/pocket_docking_7.prm

>  <SCORE>
-16.3832

>  <SCORE.INTER>
-10.3472

>  <SCORE.INTER.CONST>
1

>  <SCORE.INTER.POLAR>
0

>  <SCORE.INTER.ROT>
6

>  <SCORE.INTER.SOLV>
15.1849

>  <SCORE.INTER.VDW>
-19.5597

>  <SCORE.INTER.norm>
-0.33378

>  <SCORE.INTRA>
-6.03597

>  <SCORE.INTRA.DIHEDRAL>
-12.5972

>  <SCORE.INTRA.DIHEDRAL.0>
18.77

>  <SCORE.INTRA.POLAR>
0

>  <SCORE.INTRA.POLAR.0>
0

>  <SCORE.INTRA.REPUL>
0

>  <SCORE.INTRA.REPUL.0>
0

>  <SCORE.INTRA.SOLV>
-3.14318

>  <SCORE.INTRA.SOLV.lig_0>
-77.2465

>  <SCORE.INTRA.VDW>
1.83425

>  <SCORE.INTRA.VDW.0>
-4.16072

>  <SCORE.INTRA.norm>
-0.194709

>  <SCORE.RESTR>
0

>  <SCORE.RESTR.CAVITY>
0

>  <SCORE.RESTR.norm>
0

>  <SCORE.SYSTEM>
0

>  <SCORE.SYSTEM.CONST>
0

>  <SCORE.SYSTEM.DIHEDRAL>
0

>  <SCORE.SYSTEM.SOLV>
0

>  <SCORE.SYSTEM.norm>
0

>  <SCORE.heavy>
31

>  <SCORE.norm>
-0.528489

>  <RMSD>
9.736

$$$$
ligand
 OpenBabel11021811493D
libRbt.so/2013.1/901 2013/11/27
 31 33  0  0  0  0  0  0  0  0999 V2000
   -7.5232  -10.6041  -16.9668 C   0  0  2  0  0  0  0  0  0  0  0  0
   -7.0785  -11.3525  -18.1064 O   0  0  0  0  0  0  0  0  0  0  0  0
   -7.0863  -10.5520  -22.3115 C   0  0  2  0  0  0  0  0  0  0  0  0
   -7.5618  -10.3360  -23.6439 N   0  0  0  0  0  0  0  0  0  0  0  0
   -7.7504   -6.9424  -21.1848 C   0  0  2  0  0  0  0  0  0  0  0  0
   -6.6708  -11.1061  -15.7488 C   0  0  2  0  0  0  0  0  0  0  0  0
   -5.2519  -10.9174  -16.0297 N   0  0  0  0  0  0  0  0  0  0  0  0
   -7.5188  -11.9948  -21.8433 C   0  0  0  0  0  0  0  0  0  0  0  0
   -7.7847   -5.9050  -22.3492 C   0  0  2  0  0  0  0  0  0  0  0  0
   -8.6761   -6.3644  -23.3508 O   0  0  0  0  0  0  0  0  0  0  0  0
   -6.9846  -12.6168  -15.4677 C   0  0  0  0  0  0  0  0  0  0  0  0
   -6.9832  -12.2365  -20.3661 C   0  0  2  0  0  0  0  0  0  0  0  0
   -7.3852  -13.5892  -19.9147 N   0  0  0  0  0  0  0  0  0  0  0  0
   -6.3010   -5.7891  -22.9162 C   0  0  1  0  0  0  0  0  0  0  0  0
   -6.2483   -4.8290  -24.0706 N   0  0  0  0  0  0  0  0  0  0  0  0
   -8.5199  -12.8699  -15.4514 C   0  0  0  0  0  0  0  0  0  0  0  0
   -7.5858  -11.1274  -19.3936 C   0  0  2  0  0  0  0  0  0  0  0  0
   -5.3163   -5.2577  -21.7327 C   0  0  1  0  0  0  0  0  0  0  0  0
   -5.7019   -3.9847  -21.2513 O   0  0  0  0  0  0  0  0  0  0  0  0
   -9.3687  -12.0069  -16.0297 C   0  0  2  0  0  0  0  0  0  0  0  0
   -8.9424  -10.8039  -16.6929 O   0  0  0  0  0  0  0  0  0  0  0  0
   -7.1566   -9.6904  -19.9096 C   0  0  2  0  0  0  0  0  0  0  0  0
   -7.7130   -8.6821  -19.0566 O   0  0  0  0  0  0  0  0  0  0  0  0
   -5.3685   -6.2581  -20.5291 C   0  0  0  0  0  0  0  0  0  0  0  0
   -6.8105   -6.4765  -20.1027 O   0  0  0  0  0  0  0  0  0  0  0  0
  -10.8976  -12.2395  -16.0216 C   0  0  0  0  0  0  0  0  0  0  0  0
  -11.5270  -11.3054  -15.0987 N   0  0  0  0  0  0  0  0  0  0  0  0
   -7.6912   -9.4683  -21.3706 C   0  0  1  0  0  0  0  0  0  0  0  0
   -7.2870   -8.1884  -21.7942 O   0  0  0  0  0  0  0  0  0  0  0  0
   -3.8367   -5.0947  -22.1185 C   0  0  0  0  0  0  0  0  0  0  0  0
   -6.2954   -5.4239  -25.4197 C   0  0  0  0  0  0  0  0  0  0  0  0
  1  2  1  6  0  0  0
  1  6  1  0  0  0  0
  1 21  1  0  0  0  0
  3  4  1  6  0  0  0
  3  8  1  0  0  0  0
  3 28  1  0  0  0  0
  5  9  1  0  0  0  0
  5 25  1  0  0  0  0
  5 29  1  6  0  0  0
  6  7  1  6  0  0  0
  6 11  1  0  0  0  0
  8 12  1  0  0  0  0
  9 10  1  6  0  0  0
  9 14  1  0  0  0  0
 11 16  1  0  0  0  0
 12 13  1  1  0  0  0
 12 17  1  0  0  0  0
 14 15  1  6  0  0  0
 14 18  1  0  0  0  0
 15 31  1  0  0  0  0
 16 20  1  0  0  0  0
 17  2  1  1  0  0  0
 17 22  1  0  0  0  0
 18 19  1  1  0  0  0
 18 24  1  0  0  0  0
 18 30  1  0  0  0  0
 20 21  1  0  0  0  0
 20 26  1  1  0  0  0
 22 23  1  1  0  0  0
 22 28  1  0  0  0  0
 24 25  1  0  0  0  0
 26 27  1  0  0  0  0
 28 29  1  6  0  0  0
M  END
>  <CHROM.1>
-177.27095141,-147.68925558,-97.53470437,-173.99893987,107.20297366,175.72333887
-7.31687191,-9.11342300,-19.89394198,-2.40764284,-1.24816689,-1.60688025

>  <Name>
ligand

>  <RI>
0

>  <Rbt.Current_Directory>
/home/itssahil/PROJECTS/Mol_Feturizer/New_Systems/rnas/4F8U

>  <Rbt.Executable>
rbdock ($Id: //depot/dev/client3/rdock/2013.1/src/exe/rbdock.cxx#4 $)

>  <Rbt.Library>
libRbt.so (2013.1, Build901 2013/11/27)

>  <Rbt.Parameter_File>
/export/apps/rDock/src/rDock_2013.1_src/data/scripts/dock_solv.prm

>  <Rbt.Receptor>
prm/pocket_docking_7.prm

>  <SCORE>
-16.1897

>  <SCORE.INTER>
-10.2872

>  <SCORE.INTER.CONST>
1

>  <SCORE.INTER.POLAR>
0

>  <SCORE.INTER.ROT>
6

>  <SCORE.INTER.SOLV>
15.3236

>  <SCORE.INTER.VDW>
-19.566

>  <SCORE.INTER.norm>
-0.331844

>  <SCORE.INTRA>
-5.90252

>  <SCORE.INTRA.DIHEDRAL>
-11.7104

>  <SCORE.INTRA.DIHEDRAL.0>
18.77

>  <SCORE.INTRA.POLAR>
0

>  <SCORE.INTRA.POLAR.0>
0

>  <SCORE.INTRA.REPUL>
0

>  <SCORE.INTRA.REPUL.0>
0

>  <SCORE.INTRA.SOLV>
-3.05587

>  <SCORE.INTRA.SOLV.lig_0>
-77.2465

>  <SCORE.INTRA.VDW>
1.48061

>  <SCORE.INTRA.VDW.0>
-4.16072

>  <SCORE.INTRA.norm>
-0.190404

>  <SCORE.RESTR>
0

>  <SCORE.RESTR.CAVITY>
0

>  <SCORE.RESTR.norm>
0

>  <SCORE.SYSTEM>
0

>  <SCORE.SYSTEM.CONST>
0

>  <SCORE.SYSTEM.DIHEDRAL>
0

>  <SCORE.SYSTEM.SOLV>
0

>  <SCORE.SYSTEM.norm>
0

>  <SCORE.heavy>
31

>  <SCORE.norm>
-0.522248

>  <RMSD>
9.737

$$$$
ligand
 OpenBabel11021811493D
libRbt.so/2013.1/901 2013/11/27
 31 33  0  0  0  0  0  0  0  0999 V2000
   -7.5028   -9.0784  -17.5272 C   0  0  2  0  0  0  0  0  0  0  0  0
   -7.7127  -10.3299  -18.1950 O   0  0  0  0  0  0  0  0  0  0  0  0
   -6.9587  -10.6215  -22.3986 C   0  0  2  0  0  0  0  0  0  0  0  0
   -7.1879  -10.7231  -23.8075 N   0  0  0  0  0  0  0  0  0  0  0  0
   -7.7349   -7.0022  -22.9241 C   0  0  2  0  0  0  0  0  0  0  0  0
   -5.9651   -8.9896  -17.2283 C   0  0  2  0  0  0  0  0  0  0  0  0
   -5.2142   -9.0976  -18.4743 N   0  0  0  0  0  0  0  0  0  0  0  0
   -7.6046  -11.8714  -21.6854 C   0  0  0  0  0  0  0  0  0  0  0  0
   -6.7505   -6.2171  -23.8449 C   0  0  2  0  0  0  0  0  0  0  0  0
   -6.4019   -7.0331  -24.9501 O   0  0  0  0  0  0  0  0  0  0  0  0
   -5.5514  -10.1270  -16.2308 C   0  0  0  0  0  0  0  0  0  0  0  0
   -7.3424  -11.7614  -20.1213 C   0  0  2  0  0  0  0  0  0  0  0  0
   -7.9467  -12.9302  -19.4401 N   0  0  0  0  0  0  0  0  0  0  0  0
   -5.4681   -5.8672  -22.9678 C   0  0  1  0  0  0  0  0  0  0  0  0
   -4.4468   -5.1346  -23.7910 N   0  0  0  0  0  0  0  0  0  0  0  0
   -6.5366  -10.1945  -15.0283 C   0  0  0  0  0  0  0  0  0  0  0  0
   -7.9795  -10.4095  -19.5688 C   0  0  2  0  0  0  0  0  0  0  0  0
   -5.9174   -4.9296  -21.7141 C   0  0  1  0  0  0  0  0  0  0  0  0
   -6.5010   -3.7139  -22.1412 O   0  0  0  0  0  0  0  0  0  0  0  0
   -7.7625   -9.6553  -15.1082 C   0  0  2  0  0  0  0  0  0  0  0  0
   -8.2552   -8.9833  -16.2805 O   0  0  0  0  0  0  0  0  0  0  0  0
   -7.3296   -9.1771  -20.3268 C   0  0  2  0  0  0  0  0  0  0  0  0
   -7.9123   -7.9554  -19.8557 O   0  0  0  0  0  0  0  0  0  0  0  0
   -6.9807   -5.6920  -20.8537 C   0  0  0  0  0  0  0  0  0  0  0  0
   -8.1247   -6.1551  -21.7401 O   0  0  0  0  0  0  0  0  0  0  0  0
   -8.7548   -9.7098  -13.9232 C   0  0  0  0  0  0  0  0  0  0  0  0
  -10.1089   -9.4917  -14.4122 N   0  0  0  0  0  0  0  0  0  0  0  0
   -7.5955   -9.3020  -21.8706 C   0  0  1  0  0  0  0  0  0  0  0  0
   -7.0010   -8.1966  -22.5074 O   0  0  0  0  0  0  0  0  0  0  0  0
   -4.7885   -4.5041  -20.7607 C   0  0  0  0  0  0  0  0  0  0  0  0
   -3.0327   -5.4454  -23.5081 C   0  0  0  0  0  0  0  0  0  0  0  0
  1  2  1  1  0  0  0
  1  6  1  0  0  0  0
  1 21  1  0  0  0  0
  3  4  1  6  0  0  0
  3  8  1  0  0  0  0
  3 28  1  0  0  0  0
  5  9  1  0  0  0  0
  5 25  1  0  0  0  0
  5 29  1  1  0  0  0
  6  7  1  6  0  0  0
  6 11  1  0  0  0  0
  8 12  1  0  0  0  0
  9 10  1  6  0  0  0
  9 14  1  0  0  0  0
 11 16  1  0  0  0  0
 12 13  1  1  0  0  0
 12 17  1  0  0  0  0
 14 15  1  6  0  0  0
 14 18  1  0  0  0  0
 15 31  1  0  0  0  0
 16 20  1  0  0  0  0
 17  2  1  1  0  0  0
 17 22  1  0  0  0  0
 18 19  1  6  0  0  0
 18 24  1  0  0  0  0
 18 30  1  0  0  0  0
 20 21  1  0  0  0  0
 20 26  1  1  0  0  0
 22 23  1  1  0  0  0
 22 28  1  0  0  0  0
 24 25  1  0  0  0  0
 26 27  1  0  0  0  0
 28 29  1  6  0  0  0
M  END
>  <CHROM.1>
-106.18233510,-167.77795805,-143.56620457,147.42018574,-160.21594285,141.54086888
-6.91633170,-8.35463429,-20.12071520,-2.46257754,-1.26337825,-1.90305836

>  <Name>
ligand

>  <RI>
0

>  <Rbt.Current_Directory>
/home/itssahil/PROJECTS/Mol_Feturizer/New_Systems/rnas/4F8U

>  <Rbt.Executable>
rbdock ($Id: //depot/dev/client3/rdock/2013.1/src/exe/rbdock.cxx#4 $)

>  <Rbt.Library>
libRbt.so (2013.1, Build901 2013/11/27)

>  <Rbt.Parameter_File>
/export/apps/rDock/src/rDock_2013.1_src/data/scripts/dock_solv.prm

>  <Rbt.Receptor>
prm/blind_docking_80.prm

>  <SCORE>
9.87227

>  <SCORE.INTER>
-5.00691

>  <SCORE.INTER.CONST>
1

>  <SCORE.INTER.POLAR>
0

>  <SCORE.INTER.ROT>
6

>  <SCORE.INTER.SOLV>
21.1769

>  <SCORE.INTER.VDW>
-17.9969

>  <SCORE.INTER.norm>
-0.161513

>  <SCORE.INTRA>
5.29296

>  <SCORE.INTRA.DIHEDRAL>
1.39753

>  <SCORE.INTRA.DIHEDRAL.0>
18.77

>  <SCORE.INTRA.POLAR>
0

>  <SCORE.INTRA.POLAR.0>
0

>  <SCORE.INTRA.REPUL>
0

>  <SCORE.INTRA.REPUL.0>
0

>  <SCORE.INTRA.SOLV>
0.6876

>  <SCORE.INTRA.SOLV.lig_0>
-77.2465

>  <SCORE.INTRA.VDW>
4.25039

>  <SCORE.INTRA.VDW.0>
-4.16072

>  <SCORE.INTRA.norm>
0.170741

>  <SCORE.RESTR>
9.58622

>  <SCORE.RESTR.CAVITY>
9.58622

>  <SCORE.RESTR.norm>
0.309233

>  <SCORE.SYSTEM>
0

>  <SCORE.SYSTEM.CONST>
0

>  <SCORE.SYSTEM.DIHEDRAL>
0

>  <SCORE.SYSTEM.SOLV>
0

>  <SCORE.SYSTEM.norm>
0

>  <SCORE.heavy>
31

>  <SCORE.norm>
0.31846

>  <RMSD>
9.739

$$$$
ligand
 OpenBabel11021811493D
libRbt.so/2013.1/901 2013/11/27
 31 33  0  0  0  0  0  0  0  0999 V2000
   -7.2663  -10.5992  -17.1078 C   0  0  2  0  0  0  0  0  0  0  0  0
   -6.8757  -11.3378  -18.2733 O   0  0  0  0  0  0  0  0  0  0  0  0
   -7.0920  -10.4737  -22.4602 C   0  0  2  0  0  0  0  0  0  0  0  0
   -7.6321  -10.2483  -23.7662 N   0  0  0  0  0  0  0  0  0  0  0  0
   -7.7431   -6.8992  -21.2166 C   0  0  2  0  0  0  0  0  0  0  0  0
   -6.4055  -11.1589  -15.9212 C   0  0  2  0  0  0  0  0  0  0  0  0
   -4.9873  -11.0160  -16.2314 N   0  0  0  0  0  0  0  0  0  0  0  0
   -7.4709  -11.9329  -21.9965 C   0  0  0  0  0  0  0  0  0  0  0  0
   -7.7820   -5.8062  -22.3288 C   0  0  2  0  0  0  0  0  0  0  0  0
   -8.7062   -6.1982  -23.3293 O   0  0  0  0  0  0  0  0  0  0  0  0
   -6.7686  -12.6631  -15.6652 C   0  0  0  0  0  0  0  0  0  0  0  0
   -6.8636  -12.1849  -20.5491 C   0  0  2  0  0  0  0  0  0  0  0  0
   -7.2149  -13.5530  -20.1020 N   0  0  0  0  0  0  0  0  0  0  0  0
   -6.3098   -5.6933  -22.9254 C   0  0  1  0  0  0  0  0  0  0  0  0
   -6.2632   -4.6796  -24.0334 N   0  0  0  0  0  0  0  0  0  0  0  0
   -8.3114  -12.8603  -15.6181 C   0  0  0  0  0  0  0  0  0  0  0  0
   -7.4457  -11.1047  -19.5325 C   0  0  2  0  0  0  0  0  0  0  0  0
   -5.2865   -5.2401  -21.7420 C   0  0  1  0  0  0  0  0  0  0  0  0
   -5.6333   -3.9843  -21.1909 O   0  0  0  0  0  0  0  0  0  0  0  0
   -9.1406  -11.9542  -16.1576 C   0  0  2  0  0  0  0  0  0  0  0  0
   -8.6853  -10.7531  -16.8048 O   0  0  0  0  0  0  0  0  0  0  0  0
   -7.0721   -9.6506  -20.0440 C   0  0  2  0  0  0  0  0  0  0  0  0
   -7.6113   -8.6683  -19.1505 O   0  0  0  0  0  0  0  0  0  0  0  0
   -5.3324   -6.2963  -20.5868 C   0  0  0  0  0  0  0  0  0  0  0  0
   -6.7684   -6.5056  -20.1366 O   0  0  0  0  0  0  0  0  0  0  0  0
  -10.6765  -12.1309  -16.1185 C   0  0  0  0  0  0  0  0  0  0  0  0
  -11.2527  -11.1743  -15.1840 N   0  0  0  0  0  0  0  0  0  0  0  0
   -7.6773   -9.4185  -21.4756 C   0  0  1  0  0  0  0  0  0  0  0  0
   -7.3210   -8.1235  -21.8961 O   0  0  0  0  0  0  0  0  0  0  0  0
   -3.8132   -5.0889  -22.1553 C   0  0  0  0  0  0  0  0  0  0  0  0
   -6.3941   -5.2036  -25.4061 C   0  0  0  0  0  0  0  0  0  0  0  0
  1  2  1  6  0  0  0
  1  6  1  0  0  0  0
  1 21  1  0  0  0  0
  3  4  1  6  0  0  0
  3  8  1  0  0  0  0
  3 28  1  0  0  0  0
  5  9  1  0  0  0  0
  5 25  1  0  0  0  0
  5 29  1  6  0  0  0
  6  7  1  6  0  0  0
  6 11  1  0  0  0  0
  8 12  1  0  0  0  0
  9 10  1  6  0  0  0
  9 14  1  0  0  0  0
 11 16  1  0  0  0  0
 12 13  1  1  0  0  0
 12 17  1  0  0  0  0
 14 15  1  6  0  0  0
 14 18  1  0  0  0  0
 15 31  1  0  0  0  0
 16 20  1  0  0  0  0
 17  2  1  1  0  0  0
 17 22  1  0  0  0  0
 18 19  1  1  0  0  0
 18 24  1  0  0  0  0
 18 30  1  0  0  0  0
 20 21  1  0  0  0  0
 20 26  1  1  0  0  0
 22 23  1  1  0  0  0
 22 28  1  0  0  0  0
 24 25  1  0  0  0  0
 26 27  1  0  0  0  0
 28 29  1  6  0  0  0
M  END
>  <CHROM.1>
179.90437201,-151.71360164,-95.80881168,-175.22986333,108.50221276,178.09547730
-7.22016761,-9.06758795,-19.98492511,-2.32430845,-1.26203696,-1.51042097

>  <Name>
ligand

>  <RI>
0

>  <Rbt.Current_Directory>
/home/itssahil/PROJECTS/Mol_Feturizer/New_Systems/rnas/4F8U

>  <Rbt.Executable>
rbdock ($Id: //depot/dev/client3/rdock/2013.1/src/exe/rbdock.cxx#4 $)

>  <Rbt.Library>
libRbt.so (2013.1, Build901 2013/11/27)

>  <Rbt.Parameter_File>
/export/apps/rDock/src/rDock_2013.1_src/data/scripts/dock_solv.prm

>  <Rbt.Receptor>
prm/pocket_docking_8.prm

>  <SCORE>
-16.3952

>  <SCORE.INTER>
-10.2988

>  <SCORE.INTER.CONST>
1

>  <SCORE.INTER.POLAR>
0

>  <SCORE.INTER.ROT>
6

>  <SCORE.INTER.SOLV>
15.261

>  <SCORE.INTER.VDW>
-19.5529

>  <SCORE.INTER.norm>
-0.332219

>  <SCORE.INTRA>
-6.09643

>  <SCORE.INTRA.DIHEDRAL>
-12.7301

>  <SCORE.INTRA.DIHEDRAL.0>
18.77

>  <SCORE.INTRA.POLAR>
0

>  <SCORE.INTRA.POLAR.0>
0

>  <SCORE.INTRA.REPUL>
0

>  <SCORE.INTRA.REPUL.0>
0

>  <SCORE.INTRA.SOLV>
-3.09952

>  <SCORE.INTRA.SOLV.lig_0>
-77.2465

>  <SCORE.INTRA.VDW>
1.81837

>  <SCORE.INTRA.VDW.0>
-4.16072

>  <SCORE.INTRA.norm>
-0.196659

>  <SCORE.RESTR>
0

>  <SCORE.RESTR.CAVITY>
0

>  <SCORE.RESTR.norm>
0

>  <SCORE.SYSTEM>
0

>  <SCORE.SYSTEM.CONST>
0

>  <SCORE.SYSTEM.DIHEDRAL>
0

>  <SCORE.SYSTEM.SOLV>
0

>  <SCORE.SYSTEM.norm>
0

>  <SCORE.heavy>
31

>  <SCORE.norm>
-0.528878

>  <RMSD>
9.742

$$$$
ligand
 OpenBabel11021811493D
libRbt.so/2013.1/901 2013/11/27
 31 33  0  0  0  0  0  0  0  0999 V2000
   -5.2723  -12.7496   -9.7086 C   0  0  2  0  0  0  0  0  0  0  0  0
   -6.0338  -11.9221  -10.5984 O   0  0  0  0  0  0  0  0  0  0  0  0
  -10.0896  -10.5538  -10.6479 C   0  0  2  0  0  0  0  0  0  0  0  0
  -11.2974   -9.8960  -10.2525 N   0  0  0  0  0  0  0  0  0  0  0  0
   -8.5382   -7.4235  -12.2416 C   0  0  2  0  0  0  0  0  0  0  0  0
   -3.8014  -12.7489  -10.2550 C   0  0  2  0  0  0  0  0  0  0  0  0
   -3.3011  -11.3803  -10.3204 N   0  0  0  0  0  0  0  0  0  0  0  0
   -9.6831  -11.5891   -9.5294 C   0  0  0  0  0  0  0  0  0  0  0  0
   -8.6739   -6.4133  -11.0607 C   0  0  2  0  0  0  0  0  0  0  0  0
   -8.1819   -7.0180   -9.8771 O   0  0  0  0  0  0  0  0  0  0  0  0
   -3.7605  -13.4230  -11.6706 C   0  0  0  0  0  0  0  0  0  0  0  0
   -8.3456  -12.3248   -9.9734 C   0  0  2  0  0  0  0  0  0  0  0  0
   -7.9528  -13.2993   -8.9289 N   0  0  0  0  0  0  0  0  0  0  0  0
  -10.2209   -6.0622  -10.9209 C   0  0  1  0  0  0  0  0  0  0  0  0
  -10.4480   -5.1140   -9.7778 N   0  0  0  0  0  0  0  0  0  0  0  0
   -4.5488  -14.7646  -11.6683 C   0  0  0  0  0  0  0  0  0  0  0  0
   -7.1912  -11.2473  -10.1862 C   0  0  2  0  0  0  0  0  0  0  0  0
  -10.7391   -5.3701  -12.3013 C   0  0  1  0  0  0  0  0  0  0  0  0
  -10.0426   -4.1733  -12.5903 O   0  0  0  0  0  0  0  0  0  0  0  0
   -5.4623  -15.0276  -10.7218 C   0  0  2  0  0  0  0  0  0  0  0  0
   -5.7791  -14.1169   -9.6545 O   0  0  0  0  0  0  0  0  0  0  0  0
   -7.6445  -10.2069  -11.2942 C   0  0  2  0  0  0  0  0  0  0  0  0
   -6.6241   -9.2175  -11.4776 O   0  0  0  0  0  0  0  0  0  0  0  0
  -10.5048   -6.3575  -13.4939 C   0  0  0  0  0  0  0  0  0  0  0  0
   -9.0526   -6.8039  -13.5156 O   0  0  0  0  0  0  0  0  0  0  0  0
   -6.2539  -16.3560  -10.7009 C   0  0  0  0  0  0  0  0  0  0  0  0
   -5.6641  -17.2587   -9.7223 N   0  0  0  0  0  0  0  0  0  0  0  0
   -8.9680   -9.4907  -10.8415 C   0  0  1  0  0  0  0  0  0  0  0  0
   -9.3402   -8.5820  -11.8498 O   0  0  0  0  0  0  0  0  0  0  0  0
  -12.2240   -4.9720  -12.3318 C   0  0  0  0  0  0  0  0  0  0  0  0
  -11.5892   -5.4164   -8.8932 C   0  0  0  0  0  0  0  0  0  0  0  0
  1  2  1  6  0  0  0
  1  6  1  0  0  0  0
  1 21  1  0  0  0  0
  3  4  1  1  0  0  0
  3  8  1  0  0  0  0
  3 28  1  0  0  0  0
  5  9  1  0  0  0  0
  5 25  1  0  0  0  0
  5 29  1  1  0  0  0
  6  7  1  6  0  0  0
  6 11  1  0  0  0  0
  8 12  1  0  0  0  0
  9 10  1  1  0  0  0
  9 14  1  0  0  0  0
 11 16  1  0  0  0  0
 12 13  1  1  0  0  0
 12 17  1  0  0  0  0
 14 15  1  1  0  0  0
 14 18  1  0  0  0  0
 15 31  1  0  0  0  0
 16 20  1  0  0  0  0
 17  2  1  6  0  0  0
 17 22  1  0  0  0  0
 18 19  1  6  0  0  0
 18 24  1  0  0  0  0
 18 30  1  0  0  0  0
 20 21  1  0  0  0  0
 20 26  1  1  0  0  0
 22 23  1  1  0  0  0
 22 28  1  0  0  0  0
 24 25  1  0  0  0  0
 26 27  1  0  0  0  0
 28 29  1  6  0  0  0
M  END
>  <CHROM.1>
-153.46002077,-71.96856501,-135.92018148,-71.51134801,100.35095244,177.23510242
-7.98519107,-9.99327377,-10.88325315,-1.00742663,0.32072269,-0.33507674

>  <Name>
ligand

>  <RI>
0

>  <Rbt.Current_Directory>
/home/itssahil/PROJECTS/Mol_Feturizer/New_Systems/rnas/4F8U

>  <Rbt.Executable>
rbdock ($Id: //depot/dev/client3/rdock/2013.1/src/exe/rbdock.cxx#4 $)

>  <Rbt.Library>
libRbt.so (2013.1, Build901 2013/11/27)

>  <Rbt.Parameter_File>
/export/apps/rDock/src/rDock_2013.1_src/data/scripts/dock_solv.prm

>  <Rbt.Receptor>
prm/blind_docking_20.prm

>  <SCORE>
10.2809

>  <SCORE.INTER>
3.5581

>  <SCORE.INTER.CONST>
1

>  <SCORE.INTER.POLAR>
0

>  <SCORE.INTER.ROT>
6

>  <SCORE.INTER.SOLV>
17.5945

>  <SCORE.INTER.VDW>
-11.0928

>  <SCORE.INTER.norm>
0.114777

>  <SCORE.INTRA>
-2.91436

>  <SCORE.INTRA.DIHEDRAL>
-11.3087

>  <SCORE.INTRA.DIHEDRAL.0>
18.77

>  <SCORE.INTRA.POLAR>
0

>  <SCORE.INTRA.POLAR.0>
0

>  <SCORE.INTRA.REPUL>
0

>  <SCORE.INTRA.REPUL.0>
0

>  <SCORE.INTRA.SOLV>
0.727332

>  <SCORE.INTRA.SOLV.lig_0>
-77.2465

>  <SCORE.INTRA.VDW>
2.37631

>  <SCORE.INTRA.VDW.0>
-4.16072

>  <SCORE.INTRA.norm>
-0.0940115

>  <SCORE.RESTR>
9.63712

>  <SCORE.RESTR.CAVITY>
9.63712

>  <SCORE.RESTR.norm>
0.310875

>  <SCORE.SYSTEM>
0

>  <SCORE.SYSTEM.CONST>
0

>  <SCORE.SYSTEM.DIHEDRAL>
0

>  <SCORE.SYSTEM.SOLV>
0

>  <SCORE.SYSTEM.norm>
0

>  <SCORE.heavy>
31

>  <SCORE.norm>
0.331641

>  <RMSD>
9.748

$$$$
ligand
 OpenBabel11021811493D
libRbt.so/2013.1/901 2013/11/27
 31 33  0  0  0  0  0  0  0  0999 V2000
   -7.2447  -10.5816  -17.1355 C   0  0  2  0  0  0  0  0  0  0  0  0
   -6.8681  -11.3255  -18.3023 O   0  0  0  0  0  0  0  0  0  0  0  0
   -7.0997  -10.4461  -22.4852 C   0  0  2  0  0  0  0  0  0  0  0  0
   -7.6445  -10.2163  -23.7883 N   0  0  0  0  0  0  0  0  0  0  0  0
   -7.7425   -6.8771  -21.2213 C   0  0  2  0  0  0  0  0  0  0  0  0
   -6.3590  -11.1254  -15.9600 C   0  0  2  0  0  0  0  0  0  0  0  0
   -4.9476  -10.9730  -16.2957 N   0  0  0  0  0  0  0  0  0  0  0  0
   -7.4759  -11.9073  -22.0255 C   0  0  0  0  0  0  0  0  0  0  0  0
   -7.7821   -5.7760  -22.3255 C   0  0  2  0  0  0  0  0  0  0  0  0
   -8.7125   -6.1571  -23.3245 O   0  0  0  0  0  0  0  0  0  0  0  0
   -6.7049  -12.6305  -15.6868 C   0  0  0  0  0  0  0  0  0  0  0  0
   -6.8634  -12.1642  -20.5812 C   0  0  2  0  0  0  0  0  0  0  0  0
   -7.2120  -13.5342  -20.1380 N   0  0  0  0  0  0  0  0  0  0  0  0
   -6.3122   -5.6648  -22.9282 C   0  0  1  0  0  0  0  0  0  0  0  0
   -6.2666   -4.6434  -24.0291 N   0  0  0  0  0  0  0  0  0  0  0  0
   -8.2450  -12.8401  -15.6116 C   0  0  0  0  0  0  0  0  0  0  0  0
   -7.4427  -11.0882  -19.5586 C   0  0  2  0  0  0  0  0  0  0  0  0
   -5.2816   -5.2242  -21.7464 C   0  0  1  0  0  0  0  0  0  0  0  0
   -5.6207   -3.9710  -21.1848 O   0  0  0  0  0  0  0  0  0  0  0  0
   -9.0909  -11.9449  -16.1432 C   0  0  2  0  0  0  0  0  0  0  0  0
   -8.6570  -10.7449  -16.8070 O   0  0  0  0  0  0  0  0  0  0  0  0
   -7.0720   -9.6319  -20.0659 C   0  0  2  0  0  0  0  0  0  0  0  0
   -7.6088   -8.6534  -19.1669 O   0  0  0  0  0  0  0  0  0  0  0  0
   -5.3264   -6.2884  -20.5986 C   0  0  0  0  0  0  0  0  0  0  0  0
   -6.7611   -6.4951  -20.1431 O   0  0  0  0  0  0  0  0  0  0  0  0
  -10.6244  -12.1341  -16.0763 C   0  0  0  0  0  0  0  0  0  0  0  0
  -11.1893  -11.1935  -15.1188 N   0  0  0  0  0  0  0  0  0  0  0  0
   -7.6823   -9.3950  -21.4946 C   0  0  1  0  0  0  0  0  0  0  0  0
   -7.3285   -8.0982  -21.9116 O   0  0  0  0  0  0  0  0  0  0  0  0
   -3.8096   -5.0760  -22.1655 C   0  0  0  0  0  0  0  0  0  0  0  0
   -6.4553   -5.1510  -25.4013 C   0  0  0  0  0  0  0  0  0  0  0  0
  1  2  1  6  0  0  0
  1  6  1  0  0  0  0
  1 21  1  0  0  0  0
  3  4  1  6  0  0  0
  3  8  1  0  0  0  0
  3 28  1  0  0  0  0
  5  9  1  0  0  0  0
  5 25  1  0  0  0  0
  5 29  1  6  0  0  0
  6  7  1  6  0  0  0
  6 11  1  0  0  0  0
  8 12  1  0  0  0  0
  9 10  1  6  0  0  0
  9 14  1  0  0  0  0
 11 16  1  0  0  0  0
 12 13  1  1  0  0  0
 12 17  1  0  0  0  0
 14 15  1  6  0  0  0
 14 18  1  0  0  0  0
 15 31  1  0  0  0  0
 16 20  1  0  0  0  0
 17  2  1  1  0  0  0
 17 22  1  0  0  0  0
 18 19  1  1  0  0  0
 18 24  1  0  0  0  0
 18 30  1  0  0  0  0
 20 21  1  0  0  0  0
 20 26  1  1  0  0  0
 22 23  1  1  0  0  0
 22 28  1  0  0  0  0
 24 25  1  0  0  0  0
 26 27  1  0  0  0  0
 28 29  1  6  0  0  0
M  END
>  <CHROM.1>
-178.79301177,-152.05871496,-93.64975462,-175.92686458,107.36648118,178.48185984
-7.20844891,-9.04670668,-19.99488395,-2.29968748,-1.26105170,-1.48538845

>  <Name>
ligand

>  <RI>
0

>  <Rbt.Current_Directory>
/home/itssahil/PROJECTS/Mol_Feturizer/New_Systems/rnas/4F8U

>  <Rbt.Executable>
rbdock ($Id: //depot/dev/client3/rdock/2013.1/src/exe/rbdock.cxx#4 $)

>  <Rbt.Library>
libRbt.so (2013.1, Build901 2013/11/27)

>  <Rbt.Parameter_File>
/export/apps/rDock/src/rDock_2013.1_src/data/scripts/dock_solv.prm

>  <Rbt.Receptor>
prm/pocket_docking_8.prm

>  <SCORE>
-16.3946

>  <SCORE.INTER>
-10.3235

>  <SCORE.INTER.CONST>
1

>  <SCORE.INTER.POLAR>
0

>  <SCORE.INTER.ROT>
6

>  <SCORE.INTER.SOLV>
15.1541

>  <SCORE.INTER.VDW>
-19.5337

>  <SCORE.INTER.norm>
-0.333017

>  <SCORE.INTRA>
-6.07105

>  <SCORE.INTRA.DIHEDRAL>
-12.8562

>  <SCORE.INTRA.DIHEDRAL.0>
18.77

>  <SCORE.INTRA.POLAR>
0

>  <SCORE.INTRA.POLAR.0>
0

>  <SCORE.INTRA.REPUL>
0

>  <SCORE.INTRA.REPUL.0>
0

>  <SCORE.INTRA.SOLV>
-3.12297

>  <SCORE.INTRA.SOLV.lig_0>
-77.2465

>  <SCORE.INTRA.VDW>
1.91855

>  <SCORE.INTRA.VDW.0>
-4.16072

>  <SCORE.INTRA.norm>
-0.19584

>  <SCORE.RESTR>
0

>  <SCORE.RESTR.CAVITY>
0

>  <SCORE.RESTR.norm>
0

>  <SCORE.SYSTEM>
0

>  <SCORE.SYSTEM.CONST>
0

>  <SCORE.SYSTEM.DIHEDRAL>
0

>  <SCORE.SYSTEM.SOLV>
0

>  <SCORE.SYSTEM.norm>
0

>  <SCORE.heavy>
31

>  <SCORE.norm>
-0.528857

>  <RMSD>
9.753

$$$$
ligand
 OpenBabel11021811493D
libRbt.so/2013.1/901 2013/11/27
 31 33  0  0  0  0  0  0  0  0999 V2000
   -7.3013  -10.5438  -17.0927 C   0  0  2  0  0  0  0  0  0  0  0  0
   -6.8881  -11.2609  -18.2638 O   0  0  0  0  0  0  0  0  0  0  0  0
   -7.1149  -10.4085  -22.4525 C   0  0  2  0  0  0  0  0  0  0  0  0
   -7.6583  -10.1874  -23.7578 N   0  0  0  0  0  0  0  0  0  0  0  0
   -7.7545   -6.8320  -21.2082 C   0  0  2  0  0  0  0  0  0  0  0  0
   -6.3779  -11.0371  -15.9239 C   0  0  2  0  0  0  0  0  0  0  0  0
   -4.9800  -10.8004  -16.2673 N   0  0  0  0  0  0  0  0  0  0  0  0
   -7.4911  -11.8669  -21.9840 C   0  0  0  0  0  0  0  0  0  0  0  0
   -7.7871   -5.7339  -22.3156 C   0  0  2  0  0  0  0  0  0  0  0  0
   -8.7178   -6.1133  -23.3149 O   0  0  0  0  0  0  0  0  0  0  0  0
   -6.6323  -12.5609  -15.6533 C   0  0  0  0  0  0  0  0  0  0  0  0
   -6.8802  -12.1142  -20.5373 C   0  0  2  0  0  0  0  0  0  0  0  0
   -7.2289  -13.4816  -20.0856 N   0  0  0  0  0  0  0  0  0  0  0  0
   -6.3157   -5.6316  -22.9163 C   0  0  1  0  0  0  0  0  0  0  0  0
   -6.2635   -4.6136  -24.0201 N   0  0  0  0  0  0  0  0  0  0  0  0
   -8.1568  -12.8617  -15.5698 C   0  0  0  0  0  0  0  0  0  0  0  0
   -7.4612  -11.0320  -19.5223 C   0  0  2  0  0  0  0  0  0  0  0  0
   -5.2848   -5.1926  -21.7342 C   0  0  1  0  0  0  0  0  0  0  0  0
   -5.6187   -3.9362  -21.1767 O   0  0  0  0  0  0  0  0  0  0  0  0
   -9.0575  -12.0168  -16.0939 C   0  0  2  0  0  0  0  0  0  0  0  0
   -8.6994  -10.7915  -16.7565 O   0  0  0  0  0  0  0  0  0  0  0  0
   -7.0905   -9.5788  -20.0386 C   0  0  2  0  0  0  0  0  0  0  0  0
   -7.6289   -8.5947  -19.1465 O   0  0  0  0  0  0  0  0  0  0  0  0
   -5.3365   -6.2533  -20.5834 C   0  0  0  0  0  0  0  0  0  0  0  0
   -6.7730   -6.4517  -20.1296 O   0  0  0  0  0  0  0  0  0  0  0  0
  -10.5766  -12.2968  -16.0186 C   0  0  0  0  0  0  0  0  0  0  0  0
  -11.1987  -11.3601  -15.0934 N   0  0  0  0  0  0  0  0  0  0  0  0
   -7.6992   -9.3514  -21.4694 C   0  0  1  0  0  0  0  0  0  0  0  0
   -7.3454   -8.0571  -21.8944 O   0  0  0  0  0  0  0  0  0  0  0  0
   -3.8115   -5.0527  -22.1514 C   0  0  0  0  0  0  0  0  0  0  0  0
   -6.3648   -5.1345  -25.3965 C   0  0  0  0  0  0  0  0  0  0  0  0
  1  2  1  6  0  0  0
  1  6  1  0  0  0  0
  1 21  1  0  0  0  0
  3  4  1  6  0  0  0
  3  8  1  0  0  0  0
  3 28  1  0  0  0  0
  5  9  1  0  0  0  0
  5 25  1  0  0  0  0
  5 29  1  6  0  0  0
  6  7  1  6  0  0  0
  6 11  1  0  0  0  0
  8 12  1  0  0  0  0
  9 10  1  6  0  0  0
  9 14  1  0  0  0  0
 11 16  1  0  0  0  0
 12 13  1  1  0  0  0
 12 17  1  0  0  0  0
 14 15  1  6  0  0  0
 14 18  1  0  0  0  0
 15 31  1  0  0  0  0
 16 20  1  0  0  0  0
 17  2  1  1  0  0  0
 17 22  1  0  0  0  0
 18 19  1  1  0  0  0
 18 24  1  0  0  0  0
 18 30  1  0  0  0  0
 20 21  1  0  0  0  0
 20 26  1  1  0  0  0
 22 23  1  1  0  0  0
 22 28  1  0  0  0  0
 24 25  1  0  0  0  0
 26 27  1  0  0  0  0
 28 29  1  6  0  0  0
M  END
>  <CHROM.1>
-177.23305029,-152.47280146,-97.48676902,-173.57963313,109.52287397,178.83702855
-7.21044736,-9.02084408,-19.96760207,-2.23631263,-1.23372857,-1.41733809

>  <Name>
ligand

>  <RI>
0

>  <Rbt.Current_Directory>
/home/itssahil/PROJECTS/Mol_Feturizer/New_Systems/rnas/4F8U

>  <Rbt.Executable>
rbdock ($Id: //depot/dev/client3/rdock/2013.1/src/exe/rbdock.cxx#4 $)

>  <Rbt.Library>
libRbt.so (2013.1, Build901 2013/11/27)

>  <Rbt.Parameter_File>
/export/apps/rDock/src/rDock_2013.1_src/data/scripts/dock_solv.prm

>  <Rbt.Receptor>
prm/pocket_docking_6.prm

>  <SCORE>
-16.348

>  <SCORE.INTER>
-10.305

>  <SCORE.INTER.CONST>
1

>  <SCORE.INTER.POLAR>
0

>  <SCORE.INTER.ROT>
6

>  <SCORE.INTER.SOLV>
15.08

>  <SCORE.INTER.VDW>
-19.4966

>  <SCORE.INTER.norm>
-0.332419

>  <SCORE.INTRA>
-6.04299

>  <SCORE.INTRA.DIHEDRAL>
-12.7345

>  <SCORE.INTRA.DIHEDRAL.0>
18.77

>  <SCORE.INTRA.POLAR>
0

>  <SCORE.INTRA.POLAR.0>
0

>  <SCORE.INTRA.REPUL>
0

>  <SCORE.INTRA.REPUL.0>
0

>  <SCORE.INTRA.SOLV>
-3.07165

>  <SCORE.INTRA.SOLV.lig_0>
-77.2465

>  <SCORE.INTRA.VDW>
1.86006

>  <SCORE.INTRA.VDW.0>
-4.16072

>  <SCORE.INTRA.norm>
-0.194935

>  <SCORE.RESTR>
0

>  <SCORE.RESTR.CAVITY>
0

>  <SCORE.RESTR.norm>
0

>  <SCORE.SYSTEM>
0

>  <SCORE.SYSTEM.CONST>
0

>  <SCORE.SYSTEM.DIHEDRAL>
0

>  <SCORE.SYSTEM.SOLV>
0

>  <SCORE.SYSTEM.norm>
0

>  <SCORE.heavy>
31

>  <SCORE.norm>
-0.527354

>  <RMSD>
9.762

$$$$
ligand
 OpenBabel11021811493D
libRbt.so/2013.1/901 2013/11/27
 31 33  0  0  0  0  0  0  0  0999 V2000
   -7.4877  -10.4873  -16.9461 C   0  0  2  0  0  0  0  0  0  0  0  0
   -7.0237  -11.2395  -18.0754 O   0  0  0  0  0  0  0  0  0  0  0  0
   -7.1029  -10.5727  -22.3030 C   0  0  2  0  0  0  0  0  0  0  0  0
   -7.6005  -10.4050  -23.6343 N   0  0  0  0  0  0  0  0  0  0  0  0
   -7.7528   -6.9383  -21.2464 C   0  0  2  0  0  0  0  0  0  0  0  0
   -6.5141  -10.8220  -15.7621 C   0  0  2  0  0  0  0  0  0  0  0  0
   -5.1456  -10.4868  -16.1401 N   0  0  0  0  0  0  0  0  0  0  0  0
   -7.5100  -12.0052  -21.7832 C   0  0  0  0  0  0  0  0  0  0  0  0
   -7.7647   -5.9008  -22.4111 C   0  0  2  0  0  0  0  0  0  0  0  0
   -8.6732   -6.3362  -23.4081 O   0  0  0  0  0  0  0  0  0  0  0  0
   -6.6310  -12.3416  -15.3919 C   0  0  0  0  0  0  0  0  0  0  0  0
   -6.9499  -12.1934  -20.3073 C   0  0  2  0  0  0  0  0  0  0  0  0
   -7.3279  -13.5360  -19.8076 N   0  0  0  0  0  0  0  0  0  0  0  0
   -6.2812   -5.8254  -22.9855 C   0  0  1  0  0  0  0  0  0  0  0  0
   -6.2082   -4.8674  -24.1406 N   0  0  0  0  0  0  0  0  0  0  0  0
   -8.1223  -12.7682  -15.2673 C   0  0  0  0  0  0  0  0  0  0  0  0
   -7.5524  -11.0616  -19.3613 C   0  0  2  0  0  0  0  0  0  0  0  0
   -5.2766   -5.3204  -21.8072 C   0  0  1  0  0  0  0  0  0  0  0  0
   -5.6252   -4.0373  -21.3245 O   0  0  0  0  0  0  0  0  0  0  0  0
   -9.0985  -12.0407  -15.8306 C   0  0  2  0  0  0  0  0  0  0  0  0
   -8.8556  -10.8339  -16.5746 O   0  0  0  0  0  0  0  0  0  0  0  0
   -7.1492   -9.6364  -19.9287 C   0  0  2  0  0  0  0  0  0  0  0  0
   -7.7061   -8.6086  -19.0996 O   0  0  0  0  0  0  0  0  0  0  0  0
   -5.3500   -6.3186  -20.6028 C   0  0  0  0  0  0  0  0  0  0  0  0
   -6.7952   -6.4976  -20.1692 O   0  0  0  0  0  0  0  0  0  0  0  0
  -10.5863  -12.4466  -15.7156 C   0  0  0  0  0  0  0  0  0  0  0  0
  -10.9806  -13.1913  -16.9033 N   0  0  0  0  0  0  0  0  0  0  0  0
   -7.7079   -9.4674  -21.3878 C   0  0  1  0  0  0  0  0  0  0  0  0
   -7.3264   -8.1967  -21.8575 O   0  0  0  0  0  0  0  0  0  0  0  0
   -3.7951   -5.1978  -22.2003 C   0  0  0  0  0  0  0  0  0  0  0  0
   -6.3768   -5.4495  -25.4856 C   0  0  0  0  0  0  0  0  0  0  0  0
  1  2  1  6  0  0  0
  1  6  1  0  0  0  0
  1 21  1  0  0  0  0
  3  4  1  6  0  0  0
  3  8  1  0  0  0  0
  3 28  1  0  0  0  0
  5  9  1  0  0  0  0
  5 25  1  0  0  0  0
  5 29  1  6  0  0  0
  6  7  1  6  0  0  0
  6 11  1  0  0  0  0
  8 12  1  0  0  0  0
  9 10  1  6  0  0  0
  9 14  1  0  0  0  0
 11 16  1  0  0  0  0
 12 13  1  1  0  0  0
 12 17  1  0  0  0  0
 14 15  1  6  0  0  0
 14 18  1  0  0  0  0
 15 31  1  0  0  0  0
 16 20  1  0  0  0  0
 17  2  1  1  0  0  0
 17 22  1  0  0  0  0
 18 19  1  1  0  0  0
 18 24  1  0  0  0  0
 18 30  1  0  0  0  0
 20 21  1  0  0  0  0
 20 26  1  1  0  0  0
 22 23  1  1  0  0  0
 22 28  1  0  0  0  0
 24 25  1  0  0  0  0
 26 27  1  0  0  0  0
 28 29  1  6  0  0  0
M  END
>  <CHROM.1>
-171.80953785,-151.13643476,-93.22290137,-172.20056691,-96.17854908,178.36010323
-7.23588422,-9.14663400,-19.94650381,-2.06573778,-1.10573099,-1.22908164

>  <Name>
ligand

>  <RI>
0

>  <Rbt.Current_Directory>
/home/itssahil/PROJECTS/Mol_Feturizer/New_Systems/rnas/4F8U

>  <Rbt.Executable>
rbdock ($Id: //depot/dev/client3/rdock/2013.1/src/exe/rbdock.cxx#4 $)

>  <Rbt.Library>
libRbt.so (2013.1, Build901 2013/11/27)

>  <Rbt.Parameter_File>
/export/apps/rDock/src/rDock_2013.1_src/data/scripts/dock_solv.prm

>  <Rbt.Receptor>
prm/pocket_docking_7.prm

>  <SCORE>
-15.3553

>  <SCORE.INTER>
-9.75919

>  <SCORE.INTER.CONST>
1

>  <SCORE.INTER.POLAR>
0

>  <SCORE.INTER.ROT>
6

>  <SCORE.INTER.SOLV>
16.9782

>  <SCORE.INTER.VDW>
-19.7655

>  <SCORE.INTER.norm>
-0.314813

>  <SCORE.INTRA>
-5.59608

>  <SCORE.INTRA.DIHEDRAL>
-11.7117

>  <SCORE.INTRA.DIHEDRAL.0>
18.77

>  <SCORE.INTRA.POLAR>
0

>  <SCORE.INTRA.POLAR.0>
0

>  <SCORE.INTRA.REPUL>
0

>  <SCORE.INTRA.REPUL.0>
0

>  <SCORE.INTRA.SOLV>
-3.0047

>  <SCORE.INTRA.SOLV.lig_0>
-77.2465

>  <SCORE.INTRA.VDW>
1.76211

>  <SCORE.INTRA.VDW.0>
-4.16072

>  <SCORE.INTRA.norm>
-0.180519

>  <SCORE.RESTR>
0

>  <SCORE.RESTR.CAVITY>
0

>  <SCORE.RESTR.norm>
0

>  <SCORE.SYSTEM>
0

>  <SCORE.SYSTEM.CONST>
0

>  <SCORE.SYSTEM.DIHEDRAL>
0

>  <SCORE.SYSTEM.SOLV>
0

>  <SCORE.SYSTEM.norm>
0

>  <SCORE.heavy>
31

>  <SCORE.norm>
-0.495331

>  <RMSD>
9.764

$$$$
ligand
 OpenBabel11021811493D
libRbt.so/2013.1/901 2013/11/27
 31 33  0  0  0  0  0  0  0  0999 V2000
   -7.4186  -10.4793  -17.0296 C   0  0  2  0  0  0  0  0  0  0  0  0
   -6.9445  -11.1649  -18.1965 O   0  0  0  0  0  0  0  0  0  0  0  0
   -7.1232  -10.3696  -22.3988 C   0  0  2  0  0  0  0  0  0  0  0  0
   -7.6512  -10.1695  -23.7138 N   0  0  0  0  0  0  0  0  0  0  0  0
   -7.7664   -6.7830  -21.1855 C   0  0  2  0  0  0  0  0  0  0  0  0
   -6.4306  -10.8490  -15.8682 C   0  0  2  0  0  0  0  0  0  0  0  0
   -5.0723  -10.4647  -16.2360 N   0  0  0  0  0  0  0  0  0  0  0  0
   -7.4953  -11.8243  -21.9158 C   0  0  0  0  0  0  0  0  0  0  0  0
   -7.7864   -5.6826  -22.2909 C   0  0  2  0  0  0  0  0  0  0  0  0
   -8.7254   -6.0468  -23.2881 O   0  0  0  0  0  0  0  0  0  0  0  0
   -6.5111  -12.3871  -15.5720 C   0  0  0  0  0  0  0  0  0  0  0  0
   -6.9014  -12.0481  -20.4582 C   0  0  2  0  0  0  0  0  0  0  0  0
   -7.2464  -13.4118  -19.9929 N   0  0  0  0  0  0  0  0  0  0  0  0
   -6.3155   -5.6003  -22.8957 C   0  0  1  0  0  0  0  0  0  0  0  0
   -6.2518   -4.5812  -23.9978 N   0  0  0  0  0  0  0  0  0  0  0  0
   -7.9916  -12.8531  -15.4611 C   0  0  0  0  0  0  0  0  0  0  0  0
   -7.5029  -10.9566  -19.4653 C   0  0  2  0  0  0  0  0  0  0  0  0
   -5.2750   -5.1783  -21.7159 C   0  0  1  0  0  0  0  0  0  0  0  0
   -5.5891   -3.9183  -21.1551 O   0  0  0  0  0  0  0  0  0  0  0  0
   -8.9873  -12.1214  -15.9834 C   0  0  2  0  0  0  0  0  0  0  0  0
   -8.7761  -10.8746  -16.6688 O   0  0  0  0  0  0  0  0  0  0  0  0
   -7.1356   -9.5078  -19.9960 C   0  0  2  0  0  0  0  0  0  0  0  0
   -7.6921   -8.5159  -19.1241 O   0  0  0  0  0  0  0  0  0  0  0  0
   -5.3386   -6.2403  -20.5667 C   0  0  0  0  0  0  0  0  0  0  0  0
   -6.7765   -6.4188  -20.1091 O   0  0  0  0  0  0  0  0  0  0  0  0
  -10.4649  -12.5663  -15.8812 C   0  0  0  0  0  0  0  0  0  0  0  0
  -10.8206  -13.3468  -17.0579 N   0  0  0  0  0  0  0  0  0  0  0  0
   -7.7273   -9.3036  -21.4375 C   0  0  1  0  0  0  0  0  0  0  0  0
   -7.3770   -8.0126  -21.8750 O   0  0  0  0  0  0  0  0  0  0  0  0
   -3.8010   -5.0590  -22.1371 C   0  0  0  0  0  0  0  0  0  0  0  0
   -6.5599   -5.0661  -25.3566 C   0  0  0  0  0  0  0  0  0  0  0  0
  1  2  1  6  0  0  0
  1  6  1  0  0  0  0
  1 21  1  0  0  0  0
  3  4  1  6  0  0  0
  3  8  1  0  0  0  0
  3 28  1  0  0  0  0
  5  9  1  0  0  0  0
  5 25  1  0  0  0  0
  5 29  1  6  0  0  0
  6  7  1  6  0  0  0
  6 11  1  0  0  0  0
  8 12  1  0  0  0  0
  9 10  1  6  0  0  0
  9 14  1  0  0  0  0
 11 16  1  0  0  0  0
 12 13  1  1  0  0  0
 12 17  1  0  0  0  0
 14 15  1  6  0  0  0
 14 18  1  0  0  0  0
 15 31  1  0  0  0  0
 16 20  1  0  0  0  0
 17  2  1  1  0  0  0
 17 22  1  0  0  0  0
 18 19  1  1  0  0  0
 18 24  1  0  0  0  0
 18 30  1  0  0  0  0
 20 21  1  0  0  0  0
 20 26  1  1  0  0  0
 22 23  1  1  0  0  0
 22 28  1  0  0  0  0
 24 25  1  0  0  0  0
 26 27  1  0  0  0  0
 28 29  1  6  0  0  0
M  END
>  <CHROM.1>
-173.12945764,-153.70204214,-88.86633898,-170.68862512,-91.97618232,-179.05711658
-7.21002095,-9.04185414,-19.98239913,-2.01334133,-1.09208589,-1.13816908

>  <Name>
ligand

>  <RI>
0

>  <Rbt.Current_Directory>
/home/itssahil/PROJECTS/Mol_Feturizer/New_Systems/rnas/4F8U

>  <Rbt.Executable>
rbdock ($Id: //depot/dev/client3/rdock/2013.1/src/exe/rbdock.cxx#4 $)

>  <Rbt.Library>
libRbt.so (2013.1, Build901 2013/11/27)

>  <Rbt.Parameter_File>
/export/apps/rDock/src/rDock_2013.1_src/data/scripts/dock_solv.prm

>  <Rbt.Receptor>
prm/pocket_docking_6.prm

>  <SCORE>
-15.3561

>  <SCORE.INTER>
-9.90753

>  <SCORE.INTER.CONST>
1

>  <SCORE.INTER.POLAR>
0

>  <SCORE.INTER.ROT>
6

>  <SCORE.INTER.SOLV>
17.12

>  <SCORE.INTER.VDW>
-19.9117

>  <SCORE.INTER.norm>
-0.319598

>  <SCORE.INTRA>
-5.44861

>  <SCORE.INTRA.DIHEDRAL>
-12.1024

>  <SCORE.INTRA.DIHEDRAL.0>
18.77

>  <SCORE.INTRA.POLAR>
0

>  <SCORE.INTRA.POLAR.0>
0

>  <SCORE.INTRA.REPUL>
0

>  <SCORE.INTRA.REPUL.0>
0

>  <SCORE.INTRA.SOLV>
-2.97736

>  <SCORE.INTRA.SOLV.lig_0>
-77.2465

>  <SCORE.INTRA.VDW>
2.09125

>  <SCORE.INTRA.VDW.0>
-4.16072

>  <SCORE.INTRA.norm>
-0.175762

>  <SCORE.RESTR>
0

>  <SCORE.RESTR.CAVITY>
0

>  <SCORE.RESTR.norm>
0

>  <SCORE.SYSTEM>
0

>  <SCORE.SYSTEM.CONST>
0

>  <SCORE.SYSTEM.DIHEDRAL>
0

>  <SCORE.SYSTEM.SOLV>
0

>  <SCORE.SYSTEM.norm>
0

>  <SCORE.heavy>
31

>  <SCORE.norm>
-0.495359

>  <RMSD>
9.776

$$$$
ligand
 OpenBabel11021811493D
libRbt.so/2013.1/901 2013/11/27
 31 33  0  0  0  0  0  0  0  0999 V2000
   -7.4219  -10.5874  -17.0978 C   0  0  2  0  0  0  0  0  0  0  0  0
   -6.9564  -11.2604  -18.2756 O   0  0  0  0  0  0  0  0  0  0  0  0
   -7.1210  -10.3918  -22.4639 C   0  0  2  0  0  0  0  0  0  0  0  0
   -7.6452  -10.1629  -23.7757 N   0  0  0  0  0  0  0  0  0  0  0  0
   -7.7681   -6.8156  -21.2227 C   0  0  2  0  0  0  0  0  0  0  0  0
   -6.5452  -11.1188  -15.9099 C   0  0  2  0  0  0  0  0  0  0  0  0
   -5.1356  -10.8642  -16.1858 N   0  0  0  0  0  0  0  0  0  0  0  0
   -7.5116  -11.8497  -22.0059 C   0  0  0  0  0  0  0  0  0  0  0  0
   -7.7984   -5.7224  -22.3349 C   0  0  2  0  0  0  0  0  0  0  0  0
   -8.7188   -6.1116  -23.3400 O   0  0  0  0  0  0  0  0  0  0  0  0
   -6.8023  -12.6523  -15.7048 C   0  0  0  0  0  0  0  0  0  0  0  0
   -6.9220  -12.1055  -20.5518 C   0  0  2  0  0  0  0  0  0  0  0  0
   -7.2843  -13.4725  -20.1100 N   0  0  0  0  0  0  0  0  0  0  0  0
   -6.3230   -5.6137  -22.9243 C   0  0  1  0  0  0  0  0  0  0  0  0
   -6.2680   -4.6000  -24.0319 N   0  0  0  0  0  0  0  0  0  0  0  0
   -8.3272  -12.9620  -15.6959 C   0  0  0  0  0  0  0  0  0  0  0  0
   -7.5109  -11.0237  -19.5410 C   0  0  2  0  0  0  0  0  0  0  0  0
   -5.3042   -5.1635  -21.7359 C   0  0  1  0  0  0  0  0  0  0  0  0
   -5.6501   -3.9068  -21.1863 O   0  0  0  0  0  0  0  0  0  0  0  0
   -9.2100  -12.1025  -16.2266 C   0  0  2  0  0  0  0  0  0  0  0  0
   -8.8314  -10.8527  -16.8295 O   0  0  0  0  0  0  0  0  0  0  0  0
   -7.1251   -9.5708  -20.0468 C   0  0  2  0  0  0  0  0  0  0  0  0
   -7.6702   -8.5869  -19.1586 O   0  0  0  0  0  0  0  0  0  0  0  0
   -5.3587   -6.2197  -20.5810 C   0  0  0  0  0  0  0  0  0  0  0  0
   -6.7976   -6.4249  -20.1379 O   0  0  0  0  0  0  0  0  0  0  0  0
  -10.7293  -12.3911  -16.2250 C   0  0  0  0  0  0  0  0  0  0  0  0
  -11.3765  -11.5855  -15.1991 N   0  0  0  0  0  0  0  0  0  0  0  0
   -7.7129   -9.3349  -21.4850 C   0  0  1  0  0  0  0  0  0  0  0  0
   -7.3461   -8.0410  -21.9003 O   0  0  0  0  0  0  0  0  0  0  0  0
   -3.8284   -5.0165  -22.1420 C   0  0  0  0  0  0  0  0  0  0  0  0
   -6.2543   -5.1332  -25.4073 C   0  0  0  0  0  0  0  0  0  0  0  0
  1  2  1  6  0  0  0
  1  6  1  0  0  0  0
  1 21  1  0  0  0  0
  3  4  1  6  0  0  0
  3  8  1  0  0  0  0
  3 28  1  0  0  0  0
  5  9  1  0  0  0  0
  5 25  1  0  0  0  0
  5 29  1  6  0  0  0
  6  7  1  6  0  0  0
  6 11  1  0  0  0  0
  8 12  1  0  0  0  0
  9 10  1  6  0  0  0
  9 14  1  0  0  0  0
 11 16  1  0  0  0  0
 12 13  1  1  0  0  0
 12 17  1  0  0  0  0
 14 15  1  6  0  0  0
 14 18  1  0  0  0  0
 15 31  1  0  0  0  0
 16 20  1  0  0  0  0
 17  2  1  1  0  0  0
 17 22  1  0  0  0  0
 18 19  1  1  0  0  0
 18 24  1  0  0  0  0
 18 30  1  0  0  0  0
 20 21  1  0  0  0  0
 20 26  1  1  0  0  0
 22 23  1  1  0  0  0
 22 28  1  0  0  0  0
 24 25  1  0  0  0  0
 26 27  1  0  0  0  0
 28 29  1  6  0  0  0
M  END
>  <CHROM.1>
-179.58842787,-151.43018159,-101.87105461,-170.78066967,103.88056126,178.24423257
-7.26647898,-9.03646220,-19.99544324,-2.26464295,-1.21967520,-1.42875559

>  <Name>
ligand

>  <RI>
0

>  <Rbt.Current_Directory>
/home/itssahil/PROJECTS/Mol_Feturizer/New_Systems/rnas/4F8U

>  <Rbt.Executable>
rbdock ($Id: //depot/dev/client3/rdock/2013.1/src/exe/rbdock.cxx#4 $)

>  <Rbt.Library>
libRbt.so (2013.1, Build901 2013/11/27)

>  <Rbt.Parameter_File>
/export/apps/rDock/src/rDock_2013.1_src/data/scripts/dock_solv.prm

>  <Rbt.Receptor>
prm/pocket_docking_6.prm

>  <SCORE>
-16.3441

>  <SCORE.INTER>
-10.4591

>  <SCORE.INTER.CONST>
1

>  <SCORE.INTER.POLAR>
0

>  <SCORE.INTER.ROT>
6

>  <SCORE.INTER.SOLV>
15.1705

>  <SCORE.INTER.VDW>
-19.6296

>  <SCORE.INTER.norm>
-0.33739

>  <SCORE.INTRA>
-5.88498

>  <SCORE.INTRA.DIHEDRAL>
-12.0559

>  <SCORE.INTRA.DIHEDRAL.0>
18.77

>  <SCORE.INTRA.POLAR>
0

>  <SCORE.INTRA.POLAR.0>
0

>  <SCORE.INTRA.REPUL>
0

>  <SCORE.INTRA.REPUL.0>
0

>  <SCORE.INTRA.SOLV>
-3.01174

>  <SCORE.INTRA.SOLV.lig_0>
-77.2465

>  <SCORE.INTRA.VDW>
1.64883

>  <SCORE.INTRA.VDW.0>
-4.16072

>  <SCORE.INTRA.norm>
-0.189838

>  <SCORE.RESTR>
0

>  <SCORE.RESTR.CAVITY>
0

>  <SCORE.RESTR.norm>
0

>  <SCORE.SYSTEM>
0

>  <SCORE.SYSTEM.CONST>
0

>  <SCORE.SYSTEM.DIHEDRAL>
0

>  <SCORE.SYSTEM.SOLV>
0

>  <SCORE.SYSTEM.norm>
0

>  <SCORE.heavy>
31

>  <SCORE.norm>
-0.527228

>  <RMSD>
9.780

$$$$
ligand
 OpenBabel11021811493D
libRbt.so/2013.1/901 2013/11/27
 31 33  0  0  0  0  0  0  0  0999 V2000
   -7.4632  -10.5005  -17.0201 C   0  0  2  0  0  0  0  0  0  0  0  0
   -6.9572  -11.1552  -18.1914 O   0  0  0  0  0  0  0  0  0  0  0  0
   -7.1213  -10.3668  -22.3956 C   0  0  2  0  0  0  0  0  0  0  0  0
   -7.6448  -10.1683  -23.7126 N   0  0  0  0  0  0  0  0  0  0  0  0
   -7.7735   -6.7770  -21.1965 C   0  0  2  0  0  0  0  0  0  0  0  0
   -6.5471  -10.9545  -15.8299 C   0  0  2  0  0  0  0  0  0  0  0  0
   -5.1596  -10.6070  -16.1161 N   0  0  0  0  0  0  0  0  0  0  0  0
   -7.4967  -11.8202  -21.9113 C   0  0  0  0  0  0  0  0  0  0  0  0
   -7.8025   -5.6853  -22.3103 C   0  0  2  0  0  0  0  0  0  0  0  0
   -8.7386   -6.0648  -23.3045 O   0  0  0  0  0  0  0  0  0  0  0  0
   -6.6968  -12.4993  -15.6038 C   0  0  0  0  0  0  0  0  0  0  0  0
   -6.9078  -12.0422  -20.4514 C   0  0  2  0  0  0  0  0  0  0  0  0
   -7.2559  -13.4047  -19.9849 N   0  0  0  0  0  0  0  0  0  0  0  0
   -6.3324   -5.5957  -22.9159 C   0  0  1  0  0  0  0  0  0  0  0  0
   -6.2771   -4.5846  -24.0258 N   0  0  0  0  0  0  0  0  0  0  0  0
   -8.1967  -12.9133  -15.5833 C   0  0  0  0  0  0  0  0  0  0  0  0
   -7.5113  -10.9484  -19.4623 C   0  0  2  0  0  0  0  0  0  0  0  0
   -5.2953   -5.1561  -21.7395 C   0  0  1  0  0  0  0  0  0  0  0  0
   -5.6196   -3.8944  -21.1884 O   0  0  0  0  0  0  0  0  0  0  0  0
   -9.1388  -12.1238  -16.1205 C   0  0  2  0  0  0  0  0  0  0  0  0
   -8.8499  -10.8588  -16.7412 O   0  0  0  0  0  0  0  0  0  0  0  0
   -7.1405   -9.5010  -19.9943 C   0  0  2  0  0  0  0  0  0  0  0  0
   -7.6988   -8.5069  -19.1259 O   0  0  0  0  0  0  0  0  0  0  0  0
   -5.3501   -6.2097  -20.5822 C   0  0  0  0  0  0  0  0  0  0  0  0
   -6.7864   -6.3965  -20.1230 O   0  0  0  0  0  0  0  0  0  0  0  0
  -10.6346  -12.5164  -16.1076 C   0  0  0  0  0  0  0  0  0  0  0  0
  -11.3584  -11.6455  -15.1920 N   0  0  0  0  0  0  0  0  0  0  0  0
   -7.7273   -9.2985  -21.4380 C   0  0  1  0  0  0  0  0  0  0  0  0
   -7.3741   -8.0086  -21.8765 O   0  0  0  0  0  0  0  0  0  0  0  0
   -3.8223   -5.0280  -22.1619 C   0  0  0  0  0  0  0  0  0  0  0  0
   -6.4991   -5.0980  -25.3909 C   0  0  0  0  0  0  0  0  0  0  0  0
  1  2  1  6  0  0  0
  1  6  1  0  0  0  0
  1 21  1  0  0  0  0
  3  4  1  6  0  0  0
  3  8  1  0  0  0  0
  3 28  1  0  0  0  0
  5  9  1  0  0  0  0
  5 25  1  0  0  0  0
  5 29  1  6  0  0  0
  6  7  1  6  0  0  0
  6 11  1  0  0  0  0
  8 12  1  0  0  0  0
  9 10  1  6  0  0  0
  9 14  1  0  0  0  0
 11 16  1  0  0  0  0
 12 13  1  1  0  0  0
 12 17  1  0  0  0  0
 14 15  1  6  0  0  0
 14 18  1  0  0  0  0
 15 31  1  0  0  0  0
 16 20  1  0  0  0  0
 17  2  1  1  0  0  0
 17 22  1  0  0  0  0
 18 19  1  1  0  0  0
 18 24  1  0  0  0  0
 18 30  1  0  0  0  0
 20 21  1  0  0  0  0
 20 26  1  1  0  0  0
 22 23  1  1  0  0  0
 22 28  1  0  0  0  0
 24 25  1  0  0  0  0
 26 27  1  0  0  0  0
 28 29  1  6  0  0  0
M  END
>  <CHROM.1>
-177.97717018,-152.90668091,-92.52187609,-168.57603921,109.94011784,-179.57598935
-7.26481936,-8.99432223,-19.94327811,-2.17926457,-1.18957156,-1.34787451

>  <Name>
ligand

>  <RI>
0

>  <Rbt.Current_Directory>
/home/itssahil/PROJECTS/Mol_Feturizer/New_Systems/rnas/4F8U

>  <Rbt.Executable>
rbdock ($Id: //depot/dev/client3/rdock/2013.1/src/exe/rbdock.cxx#4 $)

>  <Rbt.Library>
libRbt.so (2013.1, Build901 2013/11/27)

>  <Rbt.Parameter_File>
/export/apps/rDock/src/rDock_2013.1_src/data/scripts/dock_solv.prm

>  <Rbt.Receptor>
prm/pocket_docking_8.prm

>  <SCORE>
-16.377

>  <SCORE.INTER>
-10.5307

>  <SCORE.INTER.CONST>
1

>  <SCORE.INTER.POLAR>
0

>  <SCORE.INTER.ROT>
6

>  <SCORE.INTER.SOLV>
15.2452

>  <SCORE.INTER.VDW>
-19.7022

>  <SCORE.INTER.norm>
-0.339699

>  <SCORE.INTRA>
-5.84628

>  <SCORE.INTRA.DIHEDRAL>
-12.5763

>  <SCORE.INTRA.DIHEDRAL.0>
18.77

>  <SCORE.INTRA.POLAR>
0

>  <SCORE.INTRA.POLAR.0>
0

>  <SCORE.INTRA.REPUL>
0

>  <SCORE.INTRA.REPUL.0>
0

>  <SCORE.INTRA.SOLV>
-2.89414

>  <SCORE.INTRA.SOLV.lig_0>
-77.2465

>  <SCORE.INTRA.VDW>
1.88894

>  <SCORE.INTRA.VDW.0>
-4.16072

>  <SCORE.INTRA.norm>
-0.18859

>  <SCORE.RESTR>
0

>  <SCORE.RESTR.CAVITY>
0

>  <SCORE.RESTR.norm>
0

>  <SCORE.SYSTEM>
0

>  <SCORE.SYSTEM.CONST>
0

>  <SCORE.SYSTEM.DIHEDRAL>
0

>  <SCORE.SYSTEM.SOLV>
0

>  <SCORE.SYSTEM.norm>
0

>  <SCORE.heavy>
31

>  <SCORE.norm>
-0.528289

>  <RMSD>
9.783

$$$$
ligand
 OpenBabel11021811493D
libRbt.so/2013.1/901 2013/11/27
 31 33  0  0  0  0  0  0  0  0999 V2000
   -7.2523  -10.5454  -17.1271 C   0  0  2  0  0  0  0  0  0  0  0  0
   -6.8472  -11.2773  -18.2919 O   0  0  0  0  0  0  0  0  0  0  0  0
   -7.1086  -10.4599  -22.4856 C   0  0  2  0  0  0  0  0  0  0  0  0
   -7.6622  -10.2561  -23.7895 N   0  0  0  0  0  0  0  0  0  0  0  0
   -7.7443   -6.8849  -21.2352 C   0  0  2  0  0  0  0  0  0  0  0  0
   -6.3637  -11.0695  -15.9449 C   0  0  2  0  0  0  0  0  0  0  0  0
   -4.9537  -10.8813  -16.2678 N   0  0  0  0  0  0  0  0  0  0  0  0
   -7.4624  -11.9197  -22.0040 C   0  0  0  0  0  0  0  0  0  0  0  0
   -7.7689   -5.7704  -22.3263 C   0  0  2  0  0  0  0  0  0  0  0  0
   -8.7192   -6.1170  -23.3191 O   0  0  0  0  0  0  0  0  0  0  0  0
   -6.6745  -12.5833  -15.6776 C   0  0  0  0  0  0  0  0  0  0  0  0
   -6.8402  -12.1477  -20.5589 C   0  0  2  0  0  0  0  0  0  0  0  0
   -7.1677  -13.5161  -20.0951 N   0  0  0  0  0  0  0  0  0  0  0  0
   -6.3033   -5.6882  -22.9440 C   0  0  1  0  0  0  0  0  0  0  0  0
   -6.2446   -4.6555  -24.0337 N   0  0  0  0  0  0  0  0  0  0  0  0
   -8.2095  -12.8313  -15.6163 C   0  0  0  0  0  0  0  0  0  0  0  0
   -7.4303  -11.0657  -19.5489 C   0  0  2  0  0  0  0  0  0  0  0  0
   -5.2495   -5.2866  -21.7689 C   0  0  1  0  0  0  0  0  0  0  0  0
   -5.5515   -4.0321  -21.1893 O   0  0  0  0  0  0  0  0  0  0  0  0
   -9.0727  -11.9563  -16.1537 C   0  0  2  0  0  0  0  0  0  0  0  0
   -8.6630  -10.7445  -16.8114 O   0  0  0  0  0  0  0  0  0  0  0  0
   -7.0822   -9.6116  -20.0781 C   0  0  2  0  0  0  0  0  0  0  0  0
   -7.6289   -8.6282  -19.1905 O   0  0  0  0  0  0  0  0  0  0  0  0
   -5.3079   -6.3628  -20.6327 C   0  0  0  0  0  0  0  0  0  0  0  0
   -6.7423   -6.5396  -20.1637 O   0  0  0  0  0  0  0  0  0  0  0  0
  -10.6015  -12.1836  -16.1007 C   0  0  0  0  0  0  0  0  0  0  0  0
  -10.9295  -13.0203  -14.9549 N   0  0  0  0  0  0  0  0  0  0  0  0
   -7.7018   -9.4033  -21.5072 C   0  0  1  0  0  0  0  0  0  0  0  0
   -7.3680   -8.1076  -21.9438 O   0  0  0  0  0  0  0  0  0  0  0  0
   -3.7789   -5.1696  -22.2026 C   0  0  0  0  0  0  0  0  0  0  0  0
   -6.4544   -5.1433  -25.4100 C   0  0  0  0  0  0  0  0  0  0  0  0
  1  2  1  6  0  0  0
  1  6  1  0  0  0  0
  1 21  1  0  0  0  0
  3  4  1  6  0  0  0
  3  8  1  0  0  0  0
  3 28  1  0  0  0  0
  5  9  1  0  0  0  0
  5 25  1  0  0  0  0
  5 29  1  6  0  0  0
  6  7  1  6  0  0  0
  6 11  1  0  0  0  0
  8 12  1  0  0  0  0
  9 10  1  6  0  0  0
  9 14  1  0  0  0  0
 11 16  1  0  0  0  0
 12 13  1  1  0  0  0
 12 17  1  0  0  0  0
 14 15  1  6  0  0  0
 14 18  1  0  0  0  0
 15 31  1  0  0  0  0
 16 20  1  0  0  0  0
 17  2  1  1  0  0  0
 17 22  1  0  0  0  0
 18 19  1  1  0  0  0
 18 24  1  0  0  0  0
 18 30  1  0  0  0  0
 20 21  1  0  0  0  0
 20 26  1  1  0  0  0
 22 23  1  1  0  0  0
 22 28  1  0  0  0  0
 24 25  1  0  0  0  0
 26 27  1  0  0  0  0
 28 29  1  6  0  0  0
M  END
>  <CHROM.1>
-179.76362809,-154.82067411,-93.92329133,-174.35332647,25.88011435,-178.59766066
-7.19090009,-9.10787818,-19.99365337,-2.12295427,-1.17089186,-1.28767665

>  <Name>
ligand

>  <RI>
0

>  <Rbt.Current_Directory>
/home/itssahil/PROJECTS/Mol_Feturizer/New_Systems/rnas/4F8U

>  <Rbt.Executable>
rbdock ($Id: //depot/dev/client3/rdock/2013.1/src/exe/rbdock.cxx#4 $)

>  <Rbt.Library>
libRbt.so (2013.1, Build901 2013/11/27)

>  <Rbt.Parameter_File>
/export/apps/rDock/src/rDock_2013.1_src/data/scripts/dock_solv.prm

>  <Rbt.Receptor>
prm/pocket_docking_7.prm

>  <SCORE>
-15.4841

>  <SCORE.INTER>
-10.5606

>  <SCORE.INTER.CONST>
1

>  <SCORE.INTER.POLAR>
0

>  <SCORE.INTER.ROT>
6

>  <SCORE.INTER.SOLV>
14.3655

>  <SCORE.INTER.VDW>
-19.4289

>  <SCORE.INTER.norm>
-0.340663

>  <SCORE.INTRA>
-4.92354

>  <SCORE.INTRA.DIHEDRAL>
-12.7442

>  <SCORE.INTRA.DIHEDRAL.0>
18.77

>  <SCORE.INTRA.POLAR>
0

>  <SCORE.INTRA.POLAR.0>
0

>  <SCORE.INTRA.REPUL>
0

>  <SCORE.INTRA.REPUL.0>
0

>  <SCORE.INTRA.SOLV>
-2.92185

>  <SCORE.INTRA.SOLV.lig_0>
-77.2465

>  <SCORE.INTRA.VDW>
2.90948

>  <SCORE.INTRA.VDW.0>
-4.16072

>  <SCORE.INTRA.norm>
-0.158824

>  <SCORE.RESTR>
0

>  <SCORE.RESTR.CAVITY>
0

>  <SCORE.RESTR.norm>
0

>  <SCORE.SYSTEM>
0

>  <SCORE.SYSTEM.CONST>
0

>  <SCORE.SYSTEM.DIHEDRAL>
0

>  <SCORE.SYSTEM.SOLV>
0

>  <SCORE.SYSTEM.norm>
0

>  <SCORE.heavy>
31

>  <SCORE.norm>
-0.499487

>  <RMSD>
9.784

$$$$
ligand
 OpenBabel11021811493D
libRbt.so/2013.1/901 2013/11/27
 31 33  0  0  0  0  0  0  0  0999 V2000
   -8.2921   -8.4602  -26.0540 C   0  0  2  0  0  0  0  0  0  0  0  0
   -8.4243   -9.6769  -25.3065 O   0  0  0  0  0  0  0  0  0  0  0  0
   -7.1698  -11.3435  -21.5685 C   0  0  2  0  0  0  0  0  0  0  0  0
   -6.3361  -11.7014  -20.4617 N   0  0  0  0  0  0  0  0  0  0  0  0
   -7.0039   -8.5515  -19.4831 C   0  0  2  0  0  0  0  0  0  0  0  0
   -8.7921   -8.7780  -27.5069 C   0  0  2  0  0  0  0  0  0  0  0  0
  -10.1663   -9.2650  -27.4594 N   0  0  0  0  0  0  0  0  0  0  0  0
   -6.5660  -11.9688  -22.8848 C   0  0  0  0  0  0  0  0  0  0  0  0
   -7.2957   -7.0360  -19.7101 C   0  0  2  0  0  0  0  0  0  0  0  0
   -8.6860   -6.8059  -19.5590 O   0  0  0  0  0  0  0  0  0  0  0  0
   -7.8496   -9.8404  -28.1723 C   0  0  0  0  0  0  0  0  0  0  0  0
   -7.4973  -11.5773  -24.1123 C   0  0  2  0  0  0  0  0  0  0  0  0
   -6.9387  -12.1583  -25.3556 N   0  0  0  0  0  0  0  0  0  0  0  0
   -6.8168   -6.6836  -21.1875 C   0  0  1  0  0  0  0  0  0  0  0  0
   -7.0929   -5.2412  -21.5043 N   0  0  0  0  0  0  0  0  0  0  0  0
   -6.3547   -9.4583  -27.9707 C   0  0  0  0  0  0  0  0  0  0  0  0
   -7.5801   -9.9906  -24.2323 C   0  0  2  0  0  0  0  0  0  0  0  0
   -5.2168   -6.9620  -21.3117 C   0  0  1  0  0  0  0  0  0  0  0  0
   -4.4678   -6.1722  -20.4083 O   0  0  0  0  0  0  0  0  0  0  0  0
   -5.9838   -8.6053  -27.0040 C   0  0  2  0  0  0  0  0  0  0  0  0
   -6.9132   -7.9850  -26.0984 O   0  0  0  0  0  0  0  0  0  0  0  0
   -8.1628   -9.3938  -22.8833 C   0  0  2  0  0  0  0  0  0  0  0  0
   -8.2195   -7.9643  -22.9695 O   0  0  0  0  0  0  0  0  0  0  0  0
   -4.9270   -8.4655  -20.9835 C   0  0  0  0  0  0  0  0  0  0  0  0
   -5.5295   -8.8241  -19.6354 O   0  0  0  0  0  0  0  0  0  0  0  0
   -4.5038   -8.2111  -26.7896 C   0  0  0  0  0  0  0  0  0  0  0  0
   -4.0283   -8.7713  -25.5325 N   0  0  0  0  0  0  0  0  0  0  0  0
   -7.2329   -9.7914  -21.6805 C   0  0  1  0  0  0  0  0  0  0  0  0
   -7.7841   -9.2498  -20.5041 O   0  0  0  0  0  0  0  0  0  0  0  0
   -4.5940   -6.6737  -22.6877 C   0  0  0  0  0  0  0  0  0  0  0  0
   -7.9179   -4.9795  -22.6989 C   0  0  0  0  0  0  0  0  0  0  0  0
  1  2  1  1  0  0  0
  1  6  1  0  0  0  0
  1 21  1  0  0  0  0
  3  4  1  1  0  0  0
  3  8  1  0  0  0  0
  3 28  1  0  0  0  0
  5  9  1  0  0  0  0
  5 25  1  0  0  0  0
  5 29  1  6  0  0  0
  6  7  1  1  0  0  0
  6 11  1  0  0  0  0
  8 12  1  0  0  0  0
  9 10  1  6  0  0  0
  9 14  1  0  0  0  0
 11 16  1  0  0  0  0
 12 13  1  6  0  0  0
 12 17  1  0  0  0  0
 14 15  1  1  0  0  0
 14 18  1  0  0  0  0
 15 31  1  0  0  0  0
 16 20  1  0  0  0  0
 17  2  1  6  0  0  0
 17 22  1  0  0  0  0
 18 19  1  1  0  0  0
 18 24  1  0  0  0  0
 18 30  1  0  0  0  0
 20 21  1  0  0  0  0
 20 26  1  6  0  0  0
 22 23  1  6  0  0  0
 22 28  1  0  0  0  0
 24 25  1  0  0  0  0
 26 27  1  0  0  0  0
 28 29  1  1  0  0  0
M  END
>  <CHROM.1>
150.45347122,102.91785554,-123.74258228,-152.52721017,-111.36024100,105.96075517
-6.91313951,-8.69357574,-23.31475777,-2.27073055,1.36512536,1.98149866

>  <Name>
ligand

>  <RI>
0

>  <Rbt.Current_Directory>
/home/itssahil/PROJECTS/Mol_Feturizer/New_Systems/rnas/4F8U

>  <Rbt.Executable>
rbdock ($Id: //depot/dev/client3/rdock/2013.1/src/exe/rbdock.cxx#4 $)

>  <Rbt.Library>
libRbt.so (2013.1, Build901 2013/11/27)

>  <Rbt.Parameter_File>
/export/apps/rDock/src/rDock_2013.1_src/data/scripts/dock_solv.prm

>  <Rbt.Receptor>
prm/blind_docking_100.prm

>  <SCORE>
38.8489

>  <SCORE.INTER>
16.5249

>  <SCORE.INTER.CONST>
1

>  <SCORE.INTER.POLAR>
0

>  <SCORE.INTER.ROT>
6

>  <SCORE.INTER.SOLV>
30.0845

>  <SCORE.INTER.VDW>
-6.61158

>  <SCORE.INTER.norm>
0.533061

>  <SCORE.INTRA>
4.86215

>  <SCORE.INTRA.DIHEDRAL>
2.9556

>  <SCORE.INTRA.DIHEDRAL.0>
18.77

>  <SCORE.INTRA.POLAR>
0

>  <SCORE.INTRA.POLAR.0>
0

>  <SCORE.INTRA.REPUL>
0

>  <SCORE.INTRA.REPUL.0>
0

>  <SCORE.INTRA.SOLV>
2.90678

>  <SCORE.INTRA.SOLV.lig_0>
-77.2465

>  <SCORE.INTRA.VDW>
1.93096

>  <SCORE.INTRA.VDW.0>
-4.16072

>  <SCORE.INTRA.norm>
0.156844

>  <SCORE.RESTR>
17.4619

>  <SCORE.RESTR.CAVITY>
17.4619

>  <SCORE.RESTR.norm>
0.563286

>  <SCORE.SYSTEM>
0

>  <SCORE.SYSTEM.CONST>
0

>  <SCORE.SYSTEM.DIHEDRAL>
0

>  <SCORE.SYSTEM.SOLV>
0

>  <SCORE.SYSTEM.norm>
0

>  <SCORE.heavy>
31

>  <SCORE.norm>
1.25319

>  <RMSD>
9.785

$$$$
ligand
 OpenBabel11021811493D
libRbt.so/2013.1/901 2013/11/27
 31 33  0  0  0  0  0  0  0  0999 V2000
   -7.3235  -10.6189  -17.1323 C   0  0  2  0  0  0  0  0  0  0  0  0
   -6.9060  -11.3343  -18.3029 O   0  0  0  0  0  0  0  0  0  0  0  0
   -7.1066  -10.4621  -22.4890 C   0  0  2  0  0  0  0  0  0  0  0  0
   -7.6418  -10.2355  -23.7967 N   0  0  0  0  0  0  0  0  0  0  0  0
   -7.7485   -6.8932  -21.2241 C   0  0  2  0  0  0  0  0  0  0  0  0
   -6.4829  -11.1953  -15.9393 C   0  0  2  0  0  0  0  0  0  0  0  0
   -5.0598  -11.0391  -16.2188 N   0  0  0  0  0  0  0  0  0  0  0  0
   -7.4837  -11.9233  -22.0299 C   0  0  0  0  0  0  0  0  0  0  0  0
   -7.7814   -5.7862  -22.3226 C   0  0  2  0  0  0  0  0  0  0  0  0
   -8.7157   -6.1554  -23.3224 O   0  0  0  0  0  0  0  0  0  0  0  0
   -6.8423  -12.7057  -15.7174 C   0  0  0  0  0  0  0  0  0  0  0  0
   -6.8819  -12.1766  -20.5804 C   0  0  2  0  0  0  0  0  0  0  0  0
   -7.2315  -13.5466  -20.1376 N   0  0  0  0  0  0  0  0  0  0  0  0
   -6.3114   -5.6827  -22.9265 C   0  0  1  0  0  0  0  0  0  0  0  0
   -6.2596   -4.6560  -24.0223 N   0  0  0  0  0  0  0  0  0  0  0  0
   -8.3846  -12.9120  -15.7041 C   0  0  0  0  0  0  0  0  0  0  0  0
   -7.4712  -11.1001  -19.5641 C   0  0  2  0  0  0  0  0  0  0  0  0
   -5.2763   -5.2556  -21.7437 C   0  0  1  0  0  0  0  0  0  0  0  0
   -5.6055   -4.0028  -21.1753 O   0  0  0  0  0  0  0  0  0  0  0  0
   -9.2083  -12.0008  -16.2435 C   0  0  2  0  0  0  0  0  0  0  0  0
   -8.7473  -10.7858  -16.8601 O   0  0  0  0  0  0  0  0  0  0  0  0
   -7.0992   -9.6440  -20.0709 C   0  0  2  0  0  0  0  0  0  0  0  0
   -7.6449   -8.6649  -19.1778 O   0  0  0  0  0  0  0  0  0  0  0  0
   -5.3275   -6.3253  -20.6013 C   0  0  0  0  0  0  0  0  0  0  0  0
   -6.7632   -6.5238  -20.1451 O   0  0  0  0  0  0  0  0  0  0  0  0
  -10.7436  -12.1865  -16.2378 C   0  0  0  0  0  0  0  0  0  0  0  0
  -11.0868  -13.3778  -15.4739 N   0  0  0  0  0  0  0  0  0  0  0  0
   -7.6989   -9.4106  -21.5047 C   0  0  1  0  0  0  0  0  0  0  0  0
   -7.3443   -8.1137  -21.9210 O   0  0  0  0  0  0  0  0  0  0  0  0
   -3.8037   -5.1160  -22.1639 C   0  0  0  0  0  0  0  0  0  0  0  0
   -6.4133   -5.1606  -25.4000 C   0  0  0  0  0  0  0  0  0  0  0  0
  1  2  1  6  0  0  0
  1  6  1  0  0  0  0
  1 21  1  0  0  0  0
  3  4  1  6  0  0  0
  3  8  1  0  0  0  0
  3 28  1  0  0  0  0
  5  9  1  0  0  0  0
  5 25  1  0  0  0  0
  5 29  1  6  0  0  0
  6  7  1  6  0  0  0
  6 11  1  0  0  0  0
  8 12  1  0  0  0  0
  9 10  1  6  0  0  0
  9 14  1  0  0  0  0
 11 16  1  0  0  0  0
 12 13  1  1  0  0  0
 12 17  1  0  0  0  0
 14 15  1  6  0  0  0
 14 18  1  0  0  0  0
 15 31  1  0  0  0  0
 16 20  1  0  0  0  0
 17  2  1  1  0  0  0
 17 22  1  0  0  0  0
 18 19  1  1  0  0  0
 18 24  1  0  0  0  0
 18 30  1  0  0  0  0
 20 21  1  0  0  0  0
 20 26  1  1  0  0  0
 22 23  1  1  0  0  0
 22 28  1  0  0  0  0
 24 25  1  0  0  0  0
 26 27  1  0  0  0  0
 28 29  1  6  0  0  0
M  END
>  <CHROM.1>
178.61582717,-152.54345339,-95.42192831,-173.87689216,5.35254125,179.47766473
-7.23906335,-9.14399805,-20.01828735,-2.13362380,-1.15427769,-1.27255307

>  <Name>
ligand

>  <RI>
0

>  <Rbt.Current_Directory>
/home/itssahil/PROJECTS/Mol_Feturizer/New_Systems/rnas/4F8U

>  <Rbt.Executable>
rbdock ($Id: //depot/dev/client3/rdock/2013.1/src/exe/rbdock.cxx#4 $)

>  <Rbt.Library>
libRbt.so (2013.1, Build901 2013/11/27)

>  <Rbt.Parameter_File>
/export/apps/rDock/src/rDock_2013.1_src/data/scripts/dock_solv.prm

>  <Rbt.Receptor>
prm/pocket_docking_8.prm

>  <SCORE>
-15.6565

>  <SCORE.INTER>
-10.5557

>  <SCORE.INTER.CONST>
1

>  <SCORE.INTER.POLAR>
0

>  <SCORE.INTER.ROT>
6

>  <SCORE.INTER.SOLV>
14.5679

>  <SCORE.INTER.VDW>
-19.4931

>  <SCORE.INTER.norm>
-0.340505

>  <SCORE.INTRA>
-5.10089

>  <SCORE.INTRA.DIHEDRAL>
-12.9653

>  <SCORE.INTRA.DIHEDRAL.0>
18.77

>  <SCORE.INTRA.POLAR>
0

>  <SCORE.INTRA.POLAR.0>
0

>  <SCORE.INTRA.REPUL>
0

>  <SCORE.INTRA.REPUL.0>
0

>  <SCORE.INTRA.SOLV>
-2.8517

>  <SCORE.INTRA.SOLV.lig_0>
-77.2465

>  <SCORE.INTRA.VDW>
2.8076

>  <SCORE.INTRA.VDW.0>
-4.16072

>  <SCORE.INTRA.norm>
-0.164545

>  <SCORE.RESTR>
0

>  <SCORE.RESTR.CAVITY>
0

>  <SCORE.RESTR.norm>
0

>  <SCORE.SYSTEM>
0

>  <SCORE.SYSTEM.CONST>
0

>  <SCORE.SYSTEM.DIHEDRAL>
0

>  <SCORE.SYSTEM.SOLV>
0

>  <SCORE.SYSTEM.norm>
0

>  <SCORE.heavy>
31

>  <SCORE.norm>
-0.50505

>  <RMSD>
9.785

$$$$
ligand
 OpenBabel11021811493D
libRbt.so/2013.1/901 2013/11/27
 31 33  0  0  0  0  0  0  0  0999 V2000
   -7.2397  -10.5422  -17.1405 C   0  0  2  0  0  0  0  0  0  0  0  0
   -6.8606  -11.2770  -18.3122 O   0  0  0  0  0  0  0  0  0  0  0  0
   -7.1144  -10.3920  -22.4927 C   0  0  2  0  0  0  0  0  0  0  0  0
   -7.6661  -10.1612  -23.7928 N   0  0  0  0  0  0  0  0  0  0  0  0
   -7.7619   -6.8254  -21.2247 C   0  0  2  0  0  0  0  0  0  0  0  0
   -6.3723  -11.1104  -15.9630 C   0  0  2  0  0  0  0  0  0  0  0  0
   -4.9559  -10.9714  -16.2830 N   0  0  0  0  0  0  0  0  0  0  0  0
   -7.4862  -11.8544  -22.0333 C   0  0  0  0  0  0  0  0  0  0  0  0
   -7.7959   -5.7225  -22.3273 C   0  0  2  0  0  0  0  0  0  0  0  0
   -8.7208   -6.1023  -23.3319 O   0  0  0  0  0  0  0  0  0  0  0  0
   -6.7392  -12.6143  -15.7109 C   0  0  0  0  0  0  0  0  0  0  0  0
   -6.8660  -12.1124  -20.5924 C   0  0  2  0  0  0  0  0  0  0  0  0
   -7.2105  -13.4836  -20.1493 N   0  0  0  0  0  0  0  0  0  0  0  0
   -6.3228   -5.6099  -22.9218 C   0  0  1  0  0  0  0  0  0  0  0  0
   -6.2716   -4.5866  -24.0207 N   0  0  0  0  0  0  0  0  0  0  0  0
   -8.2823  -12.8059  -15.6532 C   0  0  0  0  0  0  0  0  0  0  0  0
   -7.4418  -11.0388  -19.5654 C   0  0  2  0  0  0  0  0  0  0  0  0
   -5.2988   -5.1708  -21.7337 C   0  0  1  0  0  0  0  0  0  0  0  0
   -5.6414   -3.9187  -21.1718 O   0  0  0  0  0  0  0  0  0  0  0  0
   -9.1121  -11.8942  -16.1825 C   0  0  2  0  0  0  0  0  0  0  0  0
   -8.6571  -10.6920  -16.8277 O   0  0  0  0  0  0  0  0  0  0  0  0
   -7.0758   -9.5812  -20.0725 C   0  0  2  0  0  0  0  0  0  0  0  0
   -7.6096   -8.6047  -19.1694 O   0  0  0  0  0  0  0  0  0  0  0  0
   -5.3495   -6.2370  -20.5878 C   0  0  0  0  0  0  0  0  0  0  0  0
   -6.7866   -6.4449  -20.1405 O   0  0  0  0  0  0  0  0  0  0  0  0
  -10.6483  -12.0653  -16.1327 C   0  0  0  0  0  0  0  0  0  0  0  0
  -11.0483  -12.4825  -14.7961 N   0  0  0  0  0  0  0  0  0  0  0  0
   -7.6936   -9.3432  -21.4977 C   0  0  1  0  0  0  0  0  0  0  0  0
   -7.3438   -8.0452  -21.9147 O   0  0  0  0  0  0  0  0  0  0  0  0
   -3.8246   -5.0214  -22.1445 C   0  0  0  0  0  0  0  0  0  0  0  0
   -6.4823   -5.0877  -25.3921 C   0  0  0  0  0  0  0  0  0  0  0  0
  1  2  1  6  0  0  0
  1  6  1  0  0  0  0
  1 21  1  0  0  0  0
  3  4  1  6  0  0  0
  3  8  1  0  0  0  0
  3 28  1  0  0  0  0
  5  9  1  0  0  0  0
  5 25  1  0  0  0  0
  5 29  1  6  0  0  0
  6  7  1  6  0  0  0
  6 11  1  0  0  0  0
  8 12  1  0  0  0  0
  9 10  1  6  0  0  0
  9 14  1  0  0  0  0
 11 16  1  0  0  0  0
 12 13  1  1  0  0  0
 12 17  1  0  0  0  0
 14 15  1  6  0  0  0
 14 18  1  0  0  0  0
 15 31  1  0  0  0  0
 16 20  1  0  0  0  0
 17  2  1  1  0  0  0
 17 22  1  0  0  0  0
 18 19  1  1  0  0  0
 18 24  1  0  0  0  0
 18 30  1  0  0  0  0
 20 21  1  0  0  0  0
 20 26  1  1  0  0  0
 22 23  1  1  0  0  0
 22 28  1  0  0  0  0
 24 25  1  0  0  0  0
 26 27  1  0  0  0  0
 28 29  1  6  0  0  0
M  END
>  <CHROM.1>
179.71707525,-152.40392057,-92.34747436,-175.44407284,45.38447704,178.14532343
-7.21648774,-9.04130419,-19.99026048,-2.19279915,-1.21358130,-1.36168895

>  <Name>
ligand

>  <RI>
0

>  <Rbt.Current_Directory>
/home/itssahil/PROJECTS/Mol_Feturizer/New_Systems/rnas/4F8U

>  <Rbt.Executable>
rbdock ($Id: //depot/dev/client3/rdock/2013.1/src/exe/rbdock.cxx#4 $)

>  <Rbt.Library>
libRbt.so (2013.1, Build901 2013/11/27)

>  <Rbt.Parameter_File>
/export/apps/rDock/src/rDock_2013.1_src/data/scripts/dock_solv.prm

>  <Rbt.Receptor>
prm/pocket_docking_7.prm

>  <SCORE>
-15.433

>  <SCORE.INTER>
-10.4859

>  <SCORE.INTER.CONST>
1

>  <SCORE.INTER.POLAR>
0

>  <SCORE.INTER.ROT>
6

>  <SCORE.INTER.SOLV>
14.341

>  <SCORE.INTER.VDW>
-19.3709

>  <SCORE.INTER.norm>
-0.338253

>  <SCORE.INTRA>
-4.94711

>  <SCORE.INTRA.DIHEDRAL>
-11.4948

>  <SCORE.INTRA.DIHEDRAL.0>
18.77

>  <SCORE.INTRA.POLAR>
0

>  <SCORE.INTRA.POLAR.0>
0

>  <SCORE.INTRA.REPUL>
0

>  <SCORE.INTRA.REPUL.0>
0

>  <SCORE.INTRA.SOLV>
-2.96863

>  <SCORE.INTRA.SOLV.lig_0>
-77.2465

>  <SCORE.INTRA.VDW>
2.2846

>  <SCORE.INTRA.VDW.0>
-4.16072

>  <SCORE.INTRA.norm>
-0.159584

>  <SCORE.RESTR>
0

>  <SCORE.RESTR.CAVITY>
0

>  <SCORE.RESTR.norm>
0

>  <SCORE.SYSTEM>
0

>  <SCORE.SYSTEM.CONST>
0

>  <SCORE.SYSTEM.DIHEDRAL>
0

>  <SCORE.SYSTEM.SOLV>
0

>  <SCORE.SYSTEM.norm>
0

>  <SCORE.heavy>
31

>  <SCORE.norm>
-0.497838

>  <RMSD>
9.788

$$$$
ligand
 OpenBabel11021811493D
libRbt.so/2013.1/901 2013/11/27
 31 33  0  0  0  0  0  0  0  0999 V2000
   -7.4319  -10.5378  -17.0969 C   0  0  2  0  0  0  0  0  0  0  0  0
   -6.9385  -11.1846  -18.2779 O   0  0  0  0  0  0  0  0  0  0  0  0
   -7.1423  -10.3439  -22.4702 C   0  0  2  0  0  0  0  0  0  0  0  0
   -7.6778  -10.1338  -23.7806 N   0  0  0  0  0  0  0  0  0  0  0  0
   -7.7800   -6.7788  -21.1937 C   0  0  2  0  0  0  0  0  0  0  0  0
   -6.5319  -11.0358  -15.9119 C   0  0  2  0  0  0  0  0  0  0  0  0
   -5.1350  -10.7188  -16.1875 N   0  0  0  0  0  0  0  0  0  0  0  0
   -7.4994  -11.8071  -22.0019 C   0  0  0  0  0  0  0  0  0  0  0  0
   -7.8010   -5.6508  -22.2710 C   0  0  2  0  0  0  0  0  0  0  0  0
   -8.7574   -5.9786  -23.2643 O   0  0  0  0  0  0  0  0  0  0  0  0
   -6.7218  -12.5799  -15.7135 C   0  0  0  0  0  0  0  0  0  0  0  0
   -6.8973  -12.0420  -20.5495 C   0  0  2  0  0  0  0  0  0  0  0  0
   -7.2282  -13.4138  -20.0981 N   0  0  0  0  0  0  0  0  0  0  0  0
   -6.3372   -5.5711  -22.8933 C   0  0  1  0  0  0  0  0  0  0  0  0
   -6.2755   -4.5254  -23.9704 N   0  0  0  0  0  0  0  0  0  0  0  0
   -8.2318  -12.9558  -15.7050 C   0  0  0  0  0  0  0  0  0  0  0  0
   -7.5042  -10.9671  -19.5418 C   0  0  2  0  0  0  0  0  0  0  0  0
   -5.2762   -5.1913  -21.7173 C   0  0  1  0  0  0  0  0  0  0  0  0
   -5.5674   -3.9420  -21.1212 O   0  0  0  0  0  0  0  0  0  0  0  0
   -9.1516  -12.1332  -16.2314 C   0  0  2  0  0  0  0  0  0  0  0  0
   -8.8283  -10.8654  -16.8288 O   0  0  0  0  0  0  0  0  0  0  0  0
   -7.1520   -9.5093  -20.0578 C   0  0  2  0  0  0  0  0  0  0  0  0
   -7.7136   -8.5321  -19.1725 O   0  0  0  0  0  0  0  0  0  0  0  0
   -5.3378   -6.2809  -20.5943 C   0  0  0  0  0  0  0  0  0  0  0  0
   -6.7716   -6.4536  -20.1220 O   0  0  0  0  0  0  0  0  0  0  0  0
  -10.6570  -12.4876  -16.2301 C   0  0  0  0  0  0  0  0  0  0  0  0
  -10.8460  -13.8056  -15.6404 N   0  0  0  0  0  0  0  0  0  0  0  0
   -7.7518   -9.2942  -21.4943 C   0  0  1  0  0  0  0  0  0  0  0  0
   -7.4148   -7.9953  -21.9188 O   0  0  0  0  0  0  0  0  0  0  0  0
   -3.8065   -5.0790  -22.1553 C   0  0  0  0  0  0  0  0  0  0  0  0
   -6.5914   -4.9760  -25.3391 C   0  0  0  0  0  0  0  0  0  0  0  0
  1  2  1  6  0  0  0
  1  6  1  0  0  0  0
  1 21  1  0  0  0  0
  3  4  1  6  0  0  0
  3  8  1  0  0  0  0
  3 28  1  0  0  0  0
  5  9  1  0  0  0  0
  5 25  1  0  0  0  0
  5 29  1  6  0  0  0
  6  7  1  6  0  0  0
  6 11  1  0  0  0  0
  8 12  1  0  0  0  0
  9 10  1  6  0  0  0
  9 14  1  0  0  0  0
 11 16  1  0  0  0  0
 12 13  1  1  0  0  0
 12 17  1  0  0  0  0
 14 15  1  6  0  0  0
 14 18  1  0  0  0  0
 15 31  1  0  0  0  0
 16 20  1  0  0  0  0
 17  2  1  1  0  0  0
 17 22  1  0  0  0  0
 18 19  1  1  0  0  0
 18 24  1  0  0  0  0
 18 30  1  0  0  0  0
 20 21  1  0  0  0  0
 20 26  1  1  0  0  0
 22 23  1  1  0  0  0
 22 28  1  0  0  0  0
 24 25  1  0  0  0  0
 26 27  1  0  0  0  0
 28 29  1  6  0  0  0
M  END
>  <CHROM.1>
-179.61710790,-155.05898883,-89.58194797,-169.34367988,-2.08684369,-177.26169077
-7.25143807,-9.07229093,-19.99881270,-2.06322289,-1.11602912,-1.18270044

>  <Name>
ligand

>  <RI>
0

>  <Rbt.Current_Directory>
/home/itssahil/PROJECTS/Mol_Feturizer/New_Systems/rnas/4F8U

>  <Rbt.Executable>
rbdock ($Id: //depot/dev/client3/rdock/2013.1/src/exe/rbdock.cxx#4 $)

>  <Rbt.Library>
libRbt.so (2013.1, Build901 2013/11/27)

>  <Rbt.Parameter_File>
/export/apps/rDock/src/rDock_2013.1_src/data/scripts/dock_solv.prm

>  <Rbt.Receptor>
prm/pocket_docking_6.prm

>  <SCORE>
-15.4969

>  <SCORE.INTER>
-10.6913

>  <SCORE.INTER.CONST>
1

>  <SCORE.INTER.POLAR>
0

>  <SCORE.INTER.ROT>
6

>  <SCORE.INTER.SOLV>
14.7877

>  <SCORE.INTER.VDW>
-19.6567

>  <SCORE.INTER.norm>
-0.344879

>  <SCORE.INTRA>
-4.80569

>  <SCORE.INTRA.DIHEDRAL>
-13.2525

>  <SCORE.INTRA.DIHEDRAL.0>
18.77

>  <SCORE.INTRA.POLAR>
0

>  <SCORE.INTRA.POLAR.0>
0

>  <SCORE.INTRA.REPUL>
0

>  <SCORE.INTRA.REPUL.0>
0

>  <SCORE.INTRA.SOLV>
-2.71241

>  <SCORE.INTRA.SOLV.lig_0>
-77.2465

>  <SCORE.INTRA.VDW>
3.17676

>  <SCORE.INTRA.VDW.0>
-4.16072

>  <SCORE.INTRA.norm>
-0.155022

>  <SCORE.RESTR>
0

>  <SCORE.RESTR.CAVITY>
0

>  <SCORE.RESTR.norm>
0

>  <SCORE.SYSTEM>
0

>  <SCORE.SYSTEM.CONST>
0

>  <SCORE.SYSTEM.DIHEDRAL>
0

>  <SCORE.SYSTEM.SOLV>
0

>  <SCORE.SYSTEM.norm>
0

>  <SCORE.heavy>
31

>  <SCORE.norm>
-0.499901

>  <RMSD>
9.811

$$$$
ligand
 OpenBabel11021811493D
libRbt.so/2013.1/901 2013/11/27
 31 33  0  0  0  0  0  0  0  0999 V2000
   -5.2576  -12.8324   -9.8181 C   0  0  2  0  0  0  0  0  0  0  0  0
   -6.1295  -12.1277  -10.7124 O   0  0  0  0  0  0  0  0  0  0  0  0
   -9.9858  -10.2795  -10.5210 C   0  0  2  0  0  0  0  0  0  0  0  0
  -11.0687   -9.4584  -10.0725 N   0  0  0  0  0  0  0  0  0  0  0  0
   -8.3708   -7.2696  -12.2283 C   0  0  2  0  0  0  0  0  0  0  0  0
   -4.0660  -13.3633  -10.6900 C   0  0  2  0  0  0  0  0  0  0  0  0
   -3.4074  -12.2454  -11.3567 N   0  0  0  0  0  0  0  0  0  0  0  0
   -9.6056  -11.2934   -9.3741 C   0  0  0  0  0  0  0  0  0  0  0  0
   -8.6408   -6.2944  -11.0412 C   0  0  2  0  0  0  0  0  0  0  0  0
   -8.1844   -6.8919   -9.8398 O   0  0  0  0  0  0  0  0  0  0  0  0
   -4.5969  -14.4006  -11.7397 C   0  0  0  0  0  0  0  0  0  0  0  0
   -8.4079  -12.2101   -9.8764 C   0  0  2  0  0  0  0  0  0  0  0  0
   -8.0407  -13.1662   -8.8058 N   0  0  0  0  0  0  0  0  0  0  0  0
  -10.2125   -6.0423  -10.9912 C   0  0  1  0  0  0  0  0  0  0  0  0
  -10.5674   -5.1337   -9.8485 N   0  0  0  0  0  0  0  0  0  0  0  0
   -5.5404  -15.4380  -11.0651 C   0  0  0  0  0  0  0  0  0  0  0  0
   -7.1589  -11.2949  -10.2523 C   0  0  2  0  0  0  0  0  0  0  0  0
  -10.6886   -5.3550  -12.3891 C   0  0  1  0  0  0  0  0  0  0  0  0
  -10.0525   -4.1118  -12.6144 O   0  0  0  0  0  0  0  0  0  0  0  0
   -6.1226  -15.1774   -9.8848 C   0  0  2  0  0  0  0  0  0  0  0  0
   -5.9257  -13.9506   -9.1604 O   0  0  0  0  0  0  0  0  0  0  0  0
   -7.5840  -10.2698  -11.3855 C   0  0  2  0  0  0  0  0  0  0  0  0
   -6.4752   -9.4238  -11.7156 O   0  0  0  0  0  0  0  0  0  0  0  0
  -10.3210   -6.3013  -13.5814 C   0  0  0  0  0  0  0  0  0  0  0  0
   -8.8449   -6.6568  -13.5210 O   0  0  0  0  0  0  0  0  0  0  0  0
   -7.0609  -16.1965   -9.1972 C   0  0  0  0  0  0  0  0  0  0  0  0
   -6.2670  -17.2504   -8.5814 N   0  0  0  0  0  0  0  0  0  0  0  0
   -8.7694   -9.3735  -10.8744 C   0  0  1  0  0  0  0  0  0  0  0  0
   -9.1207   -8.4832  -11.9063 O   0  0  0  0  0  0  0  0  0  0  0  0
  -12.1910   -5.0487  -12.5044 C   0  0  0  0  0  0  0  0  0  0  0  0
  -11.4639   -5.6948   -8.8200 C   0  0  0  0  0  0  0  0  0  0  0  0
  1  2  1  6  0  0  0
  1  6  1  0  0  0  0
  1 21  1  0  0  0  0
  3  4  1  1  0  0  0
  3  8  1  0  0  0  0
  3 28  1  0  0  0  0
  5  9  1  0  0  0  0
  5 25  1  0  0  0  0
  5 29  1  1  0  0  0
  6  7  1  6  0  0  0
  6 11  1  0  0  0  0
  8 12  1  0  0  0  0
  9 10  1  1  0  0  0
  9 14  1  0  0  0  0
 11 16  1  0  0  0  0
 12 13  1  1  0  0  0
 12 17  1  0  0  0  0
 14 15  1  1  0  0  0
 14 18  1  0  0  0  0
 15 31  1  0  0  0  0
 16 20  1  0  0  0  0
 17  2  1  6  0  0  0
 17 22  1  0  0  0  0
 18 19  1  6  0  0  0
 18 24  1  0  0  0  0
 18 30  1  0  0  0  0
 20 21  1  0  0  0  0
 20 26  1  1  0  0  0
 22 23  1  1  0  0  0
 22 28  1  0  0  0  0
 24 25  1  0  0  0  0
 26 27  1  0  0  0  0
 28 29  1  6  0  0  0
M  END
>  <CHROM.1>
-167.07206828,-70.60581358,-118.86925090,-81.46073538,76.94321654,162.37098090
-8.07571230,-10.04924235,-10.79877003,-1.02064901,0.52517221,-0.48345114

>  <Name>
ligand

>  <RI>
0

>  <Rbt.Current_Directory>
/home/itssahil/PROJECTS/Mol_Feturizer/New_Systems/rnas/4F8U

>  <Rbt.Executable>
rbdock ($Id: //depot/dev/client3/rdock/2013.1/src/exe/rbdock.cxx#4 $)

>  <Rbt.Library>
libRbt.so (2013.1, Build901 2013/11/27)

>  <Rbt.Parameter_File>
/export/apps/rDock/src/rDock_2013.1_src/data/scripts/dock_solv.prm

>  <Rbt.Receptor>
prm/blind_docking_20.prm

>  <SCORE>
13.2963

>  <SCORE.INTER>
5.15652

>  <SCORE.INTER.CONST>
1

>  <SCORE.INTER.POLAR>
0

>  <SCORE.INTER.ROT>
6

>  <SCORE.INTER.SOLV>
15.4121

>  <SCORE.INTER.VDW>
-9.29967

>  <SCORE.INTER.norm>
0.166339

>  <SCORE.INTRA>
-0.415468

>  <SCORE.INTRA.DIHEDRAL>
-9.51443

>  <SCORE.INTRA.DIHEDRAL.0>
18.77

>  <SCORE.INTRA.POLAR>
0

>  <SCORE.INTRA.POLAR.0>
0

>  <SCORE.INTRA.REPUL>
0

>  <SCORE.INTRA.REPUL.0>
0

>  <SCORE.INTRA.SOLV>
2.72039

>  <SCORE.INTRA.SOLV.lig_0>
-77.2465

>  <SCORE.INTRA.VDW>
2.98155

>  <SCORE.INTRA.VDW.0>
-4.16072

>  <SCORE.INTRA.norm>
-0.0134022

>  <SCORE.RESTR>
8.5552

>  <SCORE.RESTR.CAVITY>
8.5552

>  <SCORE.RESTR.norm>
0.275974

>  <SCORE.SYSTEM>
0

>  <SCORE.SYSTEM.CONST>
0

>  <SCORE.SYSTEM.DIHEDRAL>
0

>  <SCORE.SYSTEM.SOLV>
0

>  <SCORE.SYSTEM.norm>
0

>  <SCORE.heavy>
31

>  <SCORE.norm>
0.428912

>  <RMSD>
9.832

$$$$
ligand
 OpenBabel11021811493D
libRbt.so/2013.1/901 2013/11/27
 31 33  0  0  0  0  0  0  0  0999 V2000
   -5.2722  -12.8160   -9.9165 C   0  0  2  0  0  0  0  0  0  0  0  0
   -6.1215  -11.8971  -10.6171 O   0  0  0  0  0  0  0  0  0  0  0  0
  -10.0275  -10.2727   -9.9627 C   0  0  2  0  0  0  0  0  0  0  0  0
  -11.1181   -9.5893   -9.3368 N   0  0  0  0  0  0  0  0  0  0  0  0
   -8.8793   -6.8293  -10.8738 C   0  0  2  0  0  0  0  0  0  0  0  0
   -4.0765  -11.9705   -9.3531 C   0  0  2  0  0  0  0  0  0  0  0  0
   -4.5867  -10.9068   -8.4951 N   0  0  0  0  0  0  0  0  0  0  0  0
   -9.5647  -11.4569   -9.0292 C   0  0  0  0  0  0  0  0  0  0  0  0
  -10.1177   -6.1136  -10.2514 C   0  0  2  0  0  0  0  0  0  0  0  0
  -10.4244   -6.7196   -9.0075 O   0  0  0  0  0  0  0  0  0  0  0  0
   -3.2422  -11.3741  -10.5397 C   0  0  0  0  0  0  0  0  0  0  0  0
   -8.3585  -12.2201   -9.7291 C   0  0  2  0  0  0  0  0  0  0  0  0
   -7.9139  -13.3346   -8.8599 N   0  0  0  0  0  0  0  0  0  0  0  0
  -11.3217   -6.2827  -11.2801 C   0  0  1  0  0  0  0  0  0  0  0  0
  -12.5721   -5.6472  -10.7417 N   0  0  0  0  0  0  0  0  0  0  0  0
   -2.9393  -12.4650  -11.6072 C   0  0  0  0  0  0  0  0  0  0  0  0
   -7.1586  -11.2021   -9.9797 C   0  0  2  0  0  0  0  0  0  0  0  0
  -10.9241   -5.5710  -12.6902 C   0  0  1  0  0  0  0  0  0  0  0  0
  -10.6713   -4.1879  -12.5354 O   0  0  0  0  0  0  0  0  0  0  0  0
   -3.6701  -13.5880  -11.6742 C   0  0  2  0  0  0  0  0  0  0  0  0
   -4.7645  -13.8727  -10.7853 O   0  0  0  0  0  0  0  0  0  0  0  0
   -7.6660  -10.0110  -10.8960 C   0  0  2  0  0  0  0  0  0  0  0  0
   -6.6018   -9.0750  -11.1089 O   0  0  0  0  0  0  0  0  0  0  0  0
   -9.6218   -6.2332  -13.2540 C   0  0  0  0  0  0  0  0  0  0  0  0
   -8.5292   -6.2016  -12.1985 O   0  0  0  0  0  0  0  0  0  0  0  0
   -3.3830  -14.6848  -12.7260 C   0  0  0  0  0  0  0  0  0  0  0  0
   -2.4440  -15.6524  -12.1760 N   0  0  0  0  0  0  0  0  0  0  0  0
   -8.8588   -9.2690  -10.1915 C   0  0  1  0  0  0  0  0  0  0  0  0
   -9.2837   -8.2255  -11.0350 O   0  0  0  0  0  0  0  0  0  0  0  0
  -11.9856   -5.6496  -13.8000 C   0  0  0  0  0  0  0  0  0  0  0  0
  -12.3901   -4.4286   -9.9304 C   0  0  0  0  0  0  0  0  0  0  0  0
  1  2  1  6  0  0  0
  1  6  1  0  0  0  0
  1 21  1  0  0  0  0
  3  4  1  1  0  0  0
  3  8  1  0  0  0  0
  3 28  1  0  0  0  0
  5  9  1  0  0  0  0
  5 25  1  0  0  0  0
  5 29  1  6  0  0  0
  6  7  1  1  0  0  0
  6 11  1  0  0  0  0
  8 12  1  0  0  0  0
  9 10  1  1  0  0  0
  9 14  1  0  0  0  0
 11 16  1  0  0  0  0
 12 13  1  1  0  0  0
 12 17  1  0  0  0  0
 14 15  1  1  0  0  0
 14 18  1  0  0  0  0
 15 31  1  0  0  0  0
 16 20  1  0  0  0  0
 17  2  1  6  0  0  0
 17 22  1  0  0  0  0
 18 19  1  1  0  0  0
 18 24  1  0  0  0  0
 18 30  1  0  0  0  0
 20 21  1  0  0  0  0
 20 26  1  1  0  0  0
 22 23  1  1  0  0  0
 22 28  1  0  0  0  0
 24 25  1  0  0  0  0
 26 27  1  0  0  0  0
 28 29  1  6  0  0  0
M  END
>  <CHROM.1>
-88.80528776,-104.03978225,34.28653819,-75.09381324,90.72392295,142.25057250
-7.90107416,-9.55883255,-10.80783387,0.66452265,-0.54580774,2.48556591

>  <Name>
ligand

>  <RI>
0

>  <Rbt.Current_Directory>
/home/itssahil/PROJECTS/Mol_Feturizer/New_Systems/rnas/4F8U

>  <Rbt.Executable>
rbdock ($Id: //depot/dev/client3/rdock/2013.1/src/exe/rbdock.cxx#4 $)

>  <Rbt.Library>
libRbt.so (2013.1, Build901 2013/11/27)

>  <Rbt.Parameter_File>
/export/apps/rDock/src/rDock_2013.1_src/data/scripts/dock_solv.prm

>  <Rbt.Receptor>
prm/blind_docking_20.prm

>  <SCORE>
16.1233

>  <SCORE.INTER>
5.95568

>  <SCORE.INTER.CONST>
1

>  <SCORE.INTER.POLAR>
0

>  <SCORE.INTER.ROT>
6

>  <SCORE.INTER.SOLV>
18.9211

>  <SCORE.INTER.VDW>
-9.9366

>  <SCORE.INTER.norm>
0.192119

>  <SCORE.INTRA>
3.71136

>  <SCORE.INTRA.DIHEDRAL>
-0.221843

>  <SCORE.INTRA.DIHEDRAL.0>
18.77

>  <SCORE.INTRA.POLAR>
0

>  <SCORE.INTRA.POLAR.0>
0

>  <SCORE.INTRA.REPUL>
0

>  <SCORE.INTRA.REPUL.0>
0

>  <SCORE.INTRA.SOLV>
1.94716

>  <SCORE.INTRA.SOLV.lig_0>
-77.2465

>  <SCORE.INTRA.VDW>
2.8487

>  <SCORE.INTRA.VDW.0>
-4.16072

>  <SCORE.INTRA.norm>
0.119721

>  <SCORE.RESTR>
6.45625

>  <SCORE.RESTR.CAVITY>
6.45625

>  <SCORE.RESTR.norm>
0.208266

>  <SCORE.SYSTEM>
0

>  <SCORE.SYSTEM.CONST>
0

>  <SCORE.SYSTEM.DIHEDRAL>
0

>  <SCORE.SYSTEM.SOLV>
0

>  <SCORE.SYSTEM.norm>
0

>  <SCORE.heavy>
31

>  <SCORE.norm>
0.520106

>  <RMSD>
9.848

$$$$
ligand
 OpenBabel11021811493D
libRbt.so/2013.1/901 2013/11/27
 31 33  0  0  0  0  0  0  0  0999 V2000
   -5.3671  -12.6004   -9.8781 C   0  0  2  0  0  0  0  0  0  0  0  0
   -6.3199  -11.9860  -10.7562 O   0  0  0  0  0  0  0  0  0  0  0  0
  -10.1212  -10.0337  -10.5052 C   0  0  2  0  0  0  0  0  0  0  0  0
  -11.1695   -9.1732  -10.0485 N   0  0  0  0  0  0  0  0  0  0  0  0
   -8.5474   -7.0526  -12.2661 C   0  0  2  0  0  0  0  0  0  0  0  0
   -4.1883  -13.0998  -10.7853 C   0  0  2  0  0  0  0  0  0  0  0  0
   -3.6288  -11.9763  -11.5285 N   0  0  0  0  0  0  0  0  0  0  0  0
   -9.7333  -11.0264   -9.3424 C   0  0  0  0  0  0  0  0  0  0  0  0
   -8.8342   -6.1144  -11.0534 C   0  0  2  0  0  0  0  0  0  0  0  0
   -8.3421   -6.7233   -9.8719 O   0  0  0  0  0  0  0  0  0  0  0  0
   -4.7057  -14.2103  -11.7645 C   0  0  0  0  0  0  0  0  0  0  0  0
   -8.5743  -11.9870   -9.8536 C   0  0  2  0  0  0  0  0  0  0  0  0
   -8.2002  -12.9236   -8.7682 N   0  0  0  0  0  0  0  0  0  0  0  0
  -10.4126   -5.9168  -10.9779 C   0  0  1  0  0  0  0  0  0  0  0  0
  -10.7827   -5.0470   -9.8100 N   0  0  0  0  0  0  0  0  0  0  0  0
   -5.5536  -15.2695  -11.0026 C   0  0  0  0  0  0  0  0  0  0  0  0
   -7.3142  -11.1149  -10.2898 C   0  0  2  0  0  0  0  0  0  0  0  0
  -10.9300   -5.2143  -12.3533 C   0  0  1  0  0  0  0  0  0  0  0  0
  -10.3389   -3.9455  -12.5576 O   0  0  0  0  0  0  0  0  0  0  0  0
   -6.0943  -14.9916   -9.8067 C   0  0  2  0  0  0  0  0  0  0  0  0
   -5.9365  -13.7251   -9.1433 O   0  0  0  0  0  0  0  0  0  0  0  0
   -7.7461  -10.1094  -11.4378 C   0  0  2  0  0  0  0  0  0  0  0  0
   -6.6265   -9.3016  -11.8223 O   0  0  0  0  0  0  0  0  0  0  0  0
  -10.5467   -6.1201  -13.5719 C   0  0  0  0  0  0  0  0  0  0  0  0
   -9.0589   -6.4268  -13.5382 O   0  0  0  0  0  0  0  0  0  0  0  0
   -6.9376  -16.0316   -9.0328 C   0  0  0  0  0  0  0  0  0  0  0  0
   -8.1730  -15.4120   -8.5741 N   0  0  0  0  0  0  0  0  0  0  0  0
   -8.8931   -9.1694  -10.9177 C   0  0  1  0  0  0  0  0  0  0  0  0
   -9.2519   -8.2979  -11.9630 O   0  0  0  0  0  0  0  0  0  0  0  0
  -12.4432   -4.9564  -12.4427 C   0  0  0  0  0  0  0  0  0  0  0  0
  -11.6621   -5.6551   -8.7936 C   0  0  0  0  0  0  0  0  0  0  0  0
  1  2  1  6  0  0  0
  1  6  1  0  0  0  0
  1 21  1  0  0  0  0
  3  4  1  1  0  0  0
  3  8  1  0  0  0  0
  3 28  1  0  0  0  0
  5  9  1  0  0  0  0
  5 25  1  0  0  0  0
  5 29  1  1  0  0  0
  6  7  1  6  0  0  0
  6 11  1  0  0  0  0
  8 12  1  0  0  0  0
  9 10  1  1  0  0  0
  9 14  1  0  0  0  0
 11 16  1  0  0  0  0
 12 13  1  1  0  0  0
 12 17  1  0  0  0  0
 14 15  1  1  0  0  0
 14 18  1  0  0  0  0
 15 31  1  0  0  0  0
 16 20  1  0  0  0  0
 17  2  1  6  0  0  0
 17 22  1  0  0  0  0
 18 19  1  6  0  0  0
 18 24  1  0  0  0  0
 18 30  1  0  0  0  0
 20 21  1  0  0  0  0
 20 26  1  1  0  0  0
 22 23  1  1  0  0  0
 22 28  1  0  0  0  0
 24 25  1  0  0  0  0
 26 27  1  0  0  0  0
 28 29  1  6  0  0  0
M  END
>  <CHROM.1>
-162.24837334,-67.62950779,-119.73094429,-86.92440363,-131.88034311,156.90541897
-8.27934160,-9.81120379,-10.80189527,-0.99810939,0.53525365,-0.50270479

>  <Name>
ligand

>  <RI>
0

>  <Rbt.Current_Directory>
/home/itssahil/PROJECTS/Mol_Feturizer/New_Systems/rnas/4F8U

>  <Rbt.Executable>
rbdock ($Id: //depot/dev/client3/rdock/2013.1/src/exe/rbdock.cxx#4 $)

>  <Rbt.Library>
libRbt.so (2013.1, Build901 2013/11/27)

>  <Rbt.Parameter_File>
/export/apps/rDock/src/rDock_2013.1_src/data/scripts/dock_solv.prm

>  <Rbt.Receptor>
prm/blind_docking_20.prm

>  <SCORE>
12.7046

>  <SCORE.INTER>
5.06108

>  <SCORE.INTER.CONST>
1

>  <SCORE.INTER.POLAR>
0

>  <SCORE.INTER.ROT>
6

>  <SCORE.INTER.SOLV>
14.6372

>  <SCORE.INTER.VDW>
-9.10502

>  <SCORE.INTER.norm>
0.163261

>  <SCORE.INTRA>
0.377831

>  <SCORE.INTRA.DIHEDRAL>
-8.6277

>  <SCORE.INTRA.DIHEDRAL.0>
18.77

>  <SCORE.INTRA.POLAR>
0

>  <SCORE.INTRA.POLAR.0>
0

>  <SCORE.INTRA.REPUL>
0

>  <SCORE.INTRA.REPUL.0>
0

>  <SCORE.INTRA.SOLV>
6.04868

>  <SCORE.INTRA.SOLV.lig_0>
-77.2465

>  <SCORE.INTRA.VDW>
1.66734

>  <SCORE.INTRA.VDW.0>
-4.16072

>  <SCORE.INTRA.norm>
0.0121881

>  <SCORE.RESTR>
7.26572

>  <SCORE.RESTR.CAVITY>
7.26572

>  <SCORE.RESTR.norm>
0.234378

>  <SCORE.SYSTEM>
0

>  <SCORE.SYSTEM.CONST>
0

>  <SCORE.SYSTEM.DIHEDRAL>
0

>  <SCORE.SYSTEM.SOLV>
0

>  <SCORE.SYSTEM.norm>
0

>  <SCORE.heavy>
31

>  <SCORE.norm>
0.409827

>  <RMSD>
9.857

$$$$
ligand
 OpenBabel11021811493D
libRbt.so/2013.1/901 2013/11/27
 31 33  0  0  0  0  0  0  0  0999 V2000
   -5.1187  -12.6131  -10.0101 C   0  0  2  0  0  0  0  0  0  0  0  0
   -6.1577  -11.8683  -10.6599 O   0  0  0  0  0  0  0  0  0  0  0  0
  -10.0626  -10.3921   -9.7133 C   0  0  2  0  0  0  0  0  0  0  0  0
  -11.1294   -9.7533   -9.0048 N   0  0  0  0  0  0  0  0  0  0  0  0
   -8.6571   -7.2607  -11.4255 C   0  0  2  0  0  0  0  0  0  0  0  0
   -3.9974  -12.8367  -11.0846 C   0  0  2  0  0  0  0  0  0  0  0  0
   -3.5366  -11.5487  -11.5909 N   0  0  0  0  0  0  0  0  0  0  0  0
   -9.4920  -11.5651   -8.8265 C   0  0  0  0  0  0  0  0  0  0  0  0
   -9.2938   -5.9198  -10.9461 C   0  0  2  0  0  0  0  0  0  0  0  0
   -9.2480   -5.8671   -9.5305 O   0  0  0  0  0  0  0  0  0  0  0  0
   -4.5504  -13.7262  -12.2520 C   0  0  0  0  0  0  0  0  0  0  0  0
   -8.3123  -12.2789   -9.6178 C   0  0  2  0  0  0  0  0  0  0  0  0
   -7.7669  -13.3823   -8.7931 N   0  0  0  0  0  0  0  0  0  0  0  0
  -10.7980   -5.9029  -11.4688 C   0  0  1  0  0  0  0  0  0  0  0  0
  -11.5008   -4.6529  -11.0207 N   0  0  0  0  0  0  0  0  0  0  0  0
   -5.2993  -14.9706  -11.6933 C   0  0  0  0  0  0  0  0  0  0  0  0
   -7.1708  -11.2160   -9.9436 C   0  0  2  0  0  0  0  0  0  0  0  0
  -10.7992   -5.9633  -13.0965 C   0  0  1  0  0  0  0  0  0  0  0  0
  -10.1236   -4.8608  -13.6702 O   0  0  0  0  0  0  0  0  0  0  0  0
   -5.7547  -14.9942  -10.4317 C   0  0  2  0  0  0  0  0  0  0  0  0
   -5.5899  -13.9010   -9.5116 O   0  0  0  0  0  0  0  0  0  0  0  0
   -7.7849  -10.0380  -10.8100 C   0  0  2  0  0  0  0  0  0  0  0  0
   -6.7730   -9.0623  -11.0893 O   0  0  0  0  0  0  0  0  0  0  0  0
  -10.0684   -7.2664  -13.5657 C   0  0  0  0  0  0  0  0  0  0  0  0
   -8.6903   -7.3417  -12.9301 O   0  0  0  0  0  0  0  0  0  0  0  0
   -6.4987  -16.2224   -9.8574 C   0  0  0  0  0  0  0  0  0  0  0  0
   -7.8584  -15.8439   -9.4993 N   0  0  0  0  0  0  0  0  0  0  0  0
   -8.9501   -9.3449  -10.0153 C   0  0  1  0  0  0  0  0  0  0  0  0
   -9.4715   -8.3117  -10.8163 O   0  0  0  0  0  0  0  0  0  0  0  0
  -12.1846   -5.9593  -13.7635 C   0  0  0  0  0  0  0  0  0  0  0  0
  -12.1443   -4.7033   -9.6943 C   0  0  0  0  0  0  0  0  0  0  0  0
  1  2  1  6  0  0  0
  1  6  1  0  0  0  0
  1 21  1  0  0  0  0
  3  4  1  1  0  0  0
  3  8  1  0  0  0  0
  3 28  1  0  0  0  0
  5  9  1  0  0  0  0
  5 25  1  0  0  0  0
  5 29  1  1  0  0  0
  6  7  1  6  0  0  0
  6 11  1  0  0  0  0
  8 12  1  0  0  0  0
  9 10  1  1  0  0  0
  9 14  1  0  0  0  0
 11 16  1  0  0  0  0
 12 13  1  1  0  0  0
 12 17  1  0  0  0  0
 14 15  1  6  0  0  0
 14 18  1  0  0  0  0
 15 31  1  0  0  0  0
 16 20  1  0  0  0  0
 17  2  1  6  0  0  0
 17 22  1  0  0  0  0
 18 19  1  6  0  0  0
 18 24  1  0  0  0  0
 18 30  1  0  0  0  0
 20 21  1  0  0  0  0
 20 26  1  1  0  0  0
 22 23  1  1  0  0  0
 22 28  1  0  0  0  0
 24 25  1  0  0  0  0
 26 27  1  0  0  0  0
 28 29  1  6  0  0  0
M  END
>  <CHROM.1>
-164.65583087,-125.13708013,-87.26373952,-83.81732237,-117.32278948,-171.73356962
-8.22880492,-9.93691945,-10.86247107,-0.93454082,0.56447150,-0.54589889

>  <Name>
ligand

>  <RI>
0

>  <Rbt.Current_Directory>
/home/itssahil/PROJECTS/Mol_Feturizer/New_Systems/rnas/4F8U

>  <Rbt.Executable>
rbdock ($Id: //depot/dev/client3/rdock/2013.1/src/exe/rbdock.cxx#4 $)

>  <Rbt.Library>
libRbt.so (2013.1, Build901 2013/11/27)

>  <Rbt.Parameter_File>
/export/apps/rDock/src/rDock_2013.1_src/data/scripts/dock_solv.prm

>  <Rbt.Receptor>
prm/blind_docking_20.prm

>  <SCORE>
13.7638

>  <SCORE.INTER>
4.86839

>  <SCORE.INTER.CONST>
1

>  <SCORE.INTER.POLAR>
0

>  <SCORE.INTER.ROT>
6

>  <SCORE.INTER.SOLV>
13.556

>  <SCORE.INTER.VDW>
-8.87308

>  <SCORE.INTER.norm>
0.157045

>  <SCORE.INTRA>
2.3908

>  <SCORE.INTRA.DIHEDRAL>
-5.60754

>  <SCORE.INTRA.DIHEDRAL.0>
18.77

>  <SCORE.INTRA.POLAR>
0

>  <SCORE.INTRA.POLAR.0>
0

>  <SCORE.INTRA.REPUL>
0

>  <SCORE.INTRA.REPUL.0>
0

>  <SCORE.INTRA.SOLV>
3.55818

>  <SCORE.INTRA.SOLV.lig_0>
-77.2465

>  <SCORE.INTRA.VDW>
3.41548

>  <SCORE.INTRA.VDW.0>
-4.16072

>  <SCORE.INTRA.norm>
0.0771225

>  <SCORE.RESTR>
6.50457

>  <SCORE.RESTR.CAVITY>
6.50457

>  <SCORE.RESTR.norm>
0.209825

>  <SCORE.SYSTEM>
0

>  <SCORE.SYSTEM.CONST>
0

>  <SCORE.SYSTEM.DIHEDRAL>
0

>  <SCORE.SYSTEM.SOLV>
0

>  <SCORE.SYSTEM.norm>
0

>  <SCORE.heavy>
31

>  <SCORE.norm>
0.443992

>  <RMSD>
9.865

$$$$
ligand
 OpenBabel11021811493D
libRbt.so/2013.1/901 2013/11/27
 31 33  0  0  0  0  0  0  0  0999 V2000
   -5.0396   -9.6159  -17.4747 C   0  0  2  0  0  0  0  0  0  0  0  0
   -5.4842  -10.3086  -18.6490 O   0  0  0  0  0  0  0  0  0  0  0  0
   -7.1498   -9.0845  -22.3974 C   0  0  2  0  0  0  0  0  0  0  0  0
   -8.0593   -8.5335  -23.3552 N   0  0  0  0  0  0  0  0  0  0  0  0
   -6.7627   -5.9261  -22.9022 C   0  0  2  0  0  0  0  0  0  0  0  0
   -4.0067  -10.5624  -16.7680 C   0  0  2  0  0  0  0  0  0  0  0  0
   -2.9169  -10.8749  -17.6859 N   0  0  0  0  0  0  0  0  0  0  0  0
   -7.8682  -10.2603  -21.6297 C   0  0  0  0  0  0  0  0  0  0  0  0
   -5.6420   -5.1924  -23.7016 C   0  0  2  0  0  0  0  0  0  0  0  0
   -4.9620   -6.1342  -24.5137 O   0  0  0  0  0  0  0  0  0  0  0  0
   -4.7257  -11.8731  -16.2937 C   0  0  0  0  0  0  0  0  0  0  0  0
   -6.8543  -10.8767  -20.5717 C   0  0  2  0  0  0  0  0  0  0  0  0
   -7.5193  -11.9820  -19.8427 N   0  0  0  0  0  0  0  0  0  0  0  0
   -4.6550   -4.5424  -22.6341 C   0  0  1  0  0  0  0  0  0  0  0  0
   -3.5194   -3.8389  -23.3217 N   0  0  0  0  0  0  0  0  0  0  0  0
   -6.0525  -11.5397  -15.5520 C   0  0  0  0  0  0  0  0  0  0  0  0
   -6.3929   -9.7416  -19.5531 C   0  0  2  0  0  0  0  0  0  0  0  0
   -5.4793   -3.4690  -21.7279 C   0  0  1  0  0  0  0  0  0  0  0  0
   -6.0294   -2.4253  -22.5083 O   0  0  0  0  0  0  0  0  0  0  0  0
   -6.6552  -10.3522  -15.7142 C   0  0  2  0  0  0  0  0  0  0  0  0
   -6.1371   -9.3124  -16.5622 O   0  0  0  0  0  0  0  0  0  0  0  0
   -5.7022   -8.5639  -20.3603 C   0  0  2  0  0  0  0  0  0  0  0  0
   -5.3042   -7.5246  -19.4573 O   0  0  0  0  0  0  0  0  0  0  0  0
   -6.6625   -4.2006  -21.0089 C   0  0  0  0  0  0  0  0  0  0  0  0
   -7.5048   -4.9456  -22.0309 O   0  0  0  0  0  0  0  0  0  0  0  0
   -7.9725  -10.0013  -14.9840 C   0  0  0  0  0  0  0  0  0  0  0  0
   -7.7108   -8.9936  -13.9658 N   0  0  0  0  0  0  0  0  0  0  0  0
   -6.7159   -7.9675  -21.4026 C   0  0  1  0  0  0  0  0  0  0  0  0
   -6.0667   -6.9321  -22.1007 O   0  0  0  0  0  0  0  0  0  0  0  0
   -4.6655   -2.7513  -20.6383 C   0  0  0  0  0  0  0  0  0  0  0  0
   -2.3525   -4.6695  -23.6747 C   0  0  0  0  0  0  0  0  0  0  0  0
  1  2  1  6  0  0  0
  1  6  1  0  0  0  0
  1 21  1  0  0  0  0
  3  4  1  6  0  0  0
  3  8  1  0  0  0  0
  3 28  1  0  0  0  0
  5  9  1  0  0  0  0
  5 25  1  0  0  0  0
  5 29  1  1  0  0  0
  6  7  1  6  0  0  0
  6 11  1  0  0  0  0
  8 12  1  0  0  0  0
  9 10  1  1  0  0  0
  9 14  1  0  0  0  0
 11 16  1  0  0  0  0
 12 13  1  1  0  0  0
 12 17  1  0  0  0  0
 14 15  1  6  0  0  0
 14 18  1  0  0  0  0
 15 31  1  0  0  0  0
 16 20  1  0  0  0  0
 17  2  1  1  0  0  0
 17 22  1  0  0  0  0
 18 19  1  6  0  0  0
 18 24  1  0  0  0  0
 18 30  1  0  0  0  0
 20 21  1  0  0  0  0
 20 26  1  1  0  0  0
 22 23  1  1  0  0  0
 22 28  1  0  0  0  0
 24 25  1  0  0  0  0
 26 27  1  0  0  0  0
 28 29  1  6  0  0  0
M  END
>  <CHROM.1>
-178.16213102,-168.71365202,-86.13626075,-169.85718217,109.79407850,76.75367011
-5.87959473,-7.79231409,-20.11593558,-1.83351961,-1.21664098,-1.04089641

>  <Name>
ligand

>  <RI>
0

>  <Rbt.Current_Directory>
/home/itssahil/PROJECTS/Mol_Feturizer/New_Systems/rnas/4F8U

>  <Rbt.Executable>
rbdock ($Id: //depot/dev/client3/rdock/2013.1/src/exe/rbdock.cxx#4 $)

>  <Rbt.Library>
libRbt.so (2013.1, Build901 2013/11/27)

>  <Rbt.Parameter_File>
/export/apps/rDock/src/rDock_2013.1_src/data/scripts/dock_solv.prm

>  <Rbt.Receptor>
prm/pocket_docking_6.prm

>  <SCORE>
-14.0619

>  <SCORE.INTER>
-6.91597

>  <SCORE.INTER.CONST>
1

>  <SCORE.INTER.POLAR>
0

>  <SCORE.INTER.ROT>
6

>  <SCORE.INTER.SOLV>
15.137

>  <SCORE.INTER.VDW>
-17.2563

>  <SCORE.INTER.norm>
-0.223096

>  <SCORE.INTRA>
-7.14592

>  <SCORE.INTRA.DIHEDRAL>
-14.0505

>  <SCORE.INTRA.DIHEDRAL.0>
18.77

>  <SCORE.INTRA.POLAR>
0

>  <SCORE.INTRA.POLAR.0>
0

>  <SCORE.INTRA.REPUL>
0

>  <SCORE.INTRA.REPUL.0>
0

>  <SCORE.INTRA.SOLV>
-1.94437

>  <SCORE.INTRA.SOLV.lig_0>
-77.2465

>  <SCORE.INTRA.VDW>
0.851509

>  <SCORE.INTRA.VDW.0>
-4.16072

>  <SCORE.INTRA.norm>
-0.230514

>  <SCORE.RESTR>
0

>  <SCORE.RESTR.CAVITY>
0

>  <SCORE.RESTR.norm>
0

>  <SCORE.SYSTEM>
0

>  <SCORE.SYSTEM.CONST>
0

>  <SCORE.SYSTEM.DIHEDRAL>
0

>  <SCORE.SYSTEM.SOLV>
0

>  <SCORE.SYSTEM.norm>
0

>  <SCORE.heavy>
31

>  <SCORE.norm>
-0.453609

>  <RMSD>
9.869

$$$$
ligand
 OpenBabel11021811493D
libRbt.so/2013.1/901 2013/11/27
 31 33  0  0  0  0  0  0  0  0999 V2000
   -4.8107   -9.5064  -17.4688 C   0  0  2  0  0  0  0  0  0  0  0  0
   -5.3408  -10.3064  -18.5343 O   0  0  0  0  0  0  0  0  0  0  0  0
   -7.1712   -9.3860  -22.2928 C   0  0  2  0  0  0  0  0  0  0  0  0
   -8.1224   -8.9120  -23.2512 N   0  0  0  0  0  0  0  0  0  0  0  0
   -6.8092   -6.2087  -22.9828 C   0  0  2  0  0  0  0  0  0  0  0  0
   -3.6967  -10.3703  -16.7799 C   0  0  2  0  0  0  0  0  0  0  0  0
   -2.6854  -10.7441  -17.7624 N   0  0  0  0  0  0  0  0  0  0  0  0
   -7.8540  -10.4936  -21.4013 C   0  0  0  0  0  0  0  0  0  0  0  0
   -5.7225   -5.4535  -23.8087 C   0  0  2  0  0  0  0  0  0  0  0  0
   -5.0623   -6.3774  -24.6568 O   0  0  0  0  0  0  0  0  0  0  0  0
   -4.3389  -11.6460  -16.1318 C   0  0  0  0  0  0  0  0  0  0  0  0
   -6.7940  -11.0249  -20.3424 C   0  0  2  0  0  0  0  0  0  0  0  0
   -7.4251  -12.0656  -19.4975 N   0  0  0  0  0  0  0  0  0  0  0  0
   -4.7057   -4.8098  -22.7657 C   0  0  1  0  0  0  0  0  0  0  0  0
   -3.6001   -4.0863  -23.4808 N   0  0  0  0  0  0  0  0  0  0  0  0
   -5.6024  -11.2708  -15.3046 C   0  0  0  0  0  0  0  0  0  0  0  0
   -6.2891   -9.8121  -19.4406 C   0  0  2  0  0  0  0  0  0  0  0  0
   -5.5081   -3.7569  -21.8167 C   0  0  1  0  0  0  0  0  0  0  0  0
   -6.0932   -2.7073  -22.5630 O   0  0  0  0  0  0  0  0  0  0  0  0
   -6.2456  -10.1121  -15.5128 C   0  0  2  0  0  0  0  0  0  0  0  0
   -5.8299   -9.1422  -16.4902 O   0  0  0  0  0  0  0  0  0  0  0  0
   -5.6356   -8.7058  -20.3704 C   0  0  2  0  0  0  0  0  0  0  0  0
   -5.1990   -7.5977  -19.5732 O   0  0  0  0  0  0  0  0  0  0  0  0
   -6.6600   -4.5095  -21.0691 C   0  0  0  0  0  0  0  0  0  0  0  0
   -7.5299   -5.2475  -22.0728 O   0  0  0  0  0  0  0  0  0  0  0  0
   -7.5010   -9.7201  -14.6992 C   0  0  0  0  0  0  0  0  0  0  0  0
   -7.8078  -10.7724  -13.7406 N   0  0  0  0  0  0  0  0  0  0  0  0
   -6.6948   -8.1932  -21.4121 C   0  0  1  0  0  0  0  0  0  0  0  0
   -6.0778   -7.2195  -22.2198 O   0  0  0  0  0  0  0  0  0  0  0  0
   -4.6642   -3.0474  -20.7449 C   0  0  0  0  0  0  0  0  0  0  0  0
   -2.3878   -4.8727  -23.7778 C   0  0  0  0  0  0  0  0  0  0  0  0
  1  2  1  6  0  0  0
  1  6  1  0  0  0  0
  1 21  1  0  0  0  0
  3  4  1  6  0  0  0
  3  8  1  0  0  0  0
  3 28  1  0  0  0  0
  5  9  1  0  0  0  0
  5 25  1  0  0  0  0
  5 29  1  1  0  0  0
  6  7  1  6  0  0  0
  6 11  1  0  0  0  0
  8 12  1  0  0  0  0
  9 10  1  6  0  0  0
  9 14  1  0  0  0  0
 11 16  1  0  0  0  0
 12 13  1  1  0  0  0
 12 17  1  0  0  0  0
 14 15  1  6  0  0  0
 14 18  1  0  0  0  0
 15 31  1  0  0  0  0
 16 20  1  0  0  0  0
 17  2  1  1  0  0  0
 17 22  1  0  0  0  0
 18 19  1  6  0  0  0
 18 24  1  0  0  0  0
 18 30  1  0  0  0  0
 20 21  1  0  0  0  0
 20 26  1  1  0  0  0
 22 23  1  1  0  0  0
 22 28  1  0  0  0  0
 24 25  1  0  0  0  0
 26 27  1  0  0  0  0
 28 29  1  6  0  0  0
M  END
>  <CHROM.1>
-174.76473024,-175.05609514,-91.42017987,-172.08798300,0.30231409,82.03948864
-5.79354357,-7.95689216,-20.08538545,-1.69739226,-1.05964432,-0.95297342

>  <Name>
ligand

>  <RI>
0

>  <Rbt.Current_Directory>
/home/itssahil/PROJECTS/Mol_Feturizer/New_Systems/rnas/4F8U

>  <Rbt.Executable>
rbdock ($Id: //depot/dev/client3/rdock/2013.1/src/exe/rbdock.cxx#4 $)

>  <Rbt.Library>
libRbt.so (2013.1, Build901 2013/11/27)

>  <Rbt.Parameter_File>
/export/apps/rDock/src/rDock_2013.1_src/data/scripts/dock_solv.prm

>  <Rbt.Receptor>
prm/pocket_docking_6.prm

>  <SCORE>
-13.8861

>  <SCORE.INTER>
-7.59778

>  <SCORE.INTER.CONST>
1

>  <SCORE.INTER.POLAR>
0

>  <SCORE.INTER.ROT>
6

>  <SCORE.INTER.SOLV>
13.6288

>  <SCORE.INTER.VDW>
-17.2081

>  <SCORE.INTER.norm>
-0.24509

>  <SCORE.INTRA>
-6.28829

>  <SCORE.INTRA.DIHEDRAL>
-13.7403

>  <SCORE.INTRA.DIHEDRAL.0>
18.77

>  <SCORE.INTRA.POLAR>
0

>  <SCORE.INTRA.POLAR.0>
0

>  <SCORE.INTRA.REPUL>
0

>  <SCORE.INTRA.REPUL.0>
0

>  <SCORE.INTRA.SOLV>
-1.99148

>  <SCORE.INTRA.SOLV.lig_0>
-77.2465

>  <SCORE.INTRA.VDW>
1.57761

>  <SCORE.INTRA.VDW.0>
-4.16072

>  <SCORE.INTRA.norm>
-0.202848

>  <SCORE.RESTR>
0

>  <SCORE.RESTR.CAVITY>
0

>  <SCORE.RESTR.norm>
0

>  <SCORE.SYSTEM>
0

>  <SCORE.SYSTEM.CONST>
0

>  <SCORE.SYSTEM.DIHEDRAL>
0

>  <SCORE.SYSTEM.SOLV>
0

>  <SCORE.SYSTEM.norm>
0

>  <SCORE.heavy>
31

>  <SCORE.norm>
-0.447938

>  <RMSD>
9.871

$$$$
ligand
 OpenBabel11021811493D
libRbt.so/2013.1/901 2013/11/27
 31 33  0  0  0  0  0  0  0  0999 V2000
   -5.0290   -9.6033  -17.4843 C   0  0  2  0  0  0  0  0  0  0  0  0
   -5.4869  -10.3088  -18.6459 O   0  0  0  0  0  0  0  0  0  0  0  0
   -7.1936   -9.1264  -22.3892 C   0  0  2  0  0  0  0  0  0  0  0  0
   -8.1134   -8.5856  -23.3429 N   0  0  0  0  0  0  0  0  0  0  0  0
   -6.8108   -5.9612  -22.9171 C   0  0  2  0  0  0  0  0  0  0  0  0
   -3.9943  -10.5454  -16.7746 C   0  0  2  0  0  0  0  0  0  0  0  0
   -2.9139  -10.8744  -17.6978 N   0  0  0  0  0  0  0  0  0  0  0  0
   -7.9043  -10.2925  -21.5999 C   0  0  0  0  0  0  0  0  0  0  0  0
   -5.7010   -5.2310  -23.7346 C   0  0  2  0  0  0  0  0  0  0  0  0
   -5.0395   -6.1743  -24.5601 O   0  0  0  0  0  0  0  0  0  0  0  0
   -4.7150  -11.8468  -16.2775 C   0  0  0  0  0  0  0  0  0  0  0  0
   -6.8791  -10.8977  -20.5463 C   0  0  2  0  0  0  0  0  0  0  0  0
   -7.5367  -11.9938  -19.7971 N   0  0  0  0  0  0  0  0  0  0  0  0
   -4.6926   -4.5874  -22.6833 C   0  0  1  0  0  0  0  0  0  0  0  0
   -3.5661   -3.8876  -23.3894 N   0  0  0  0  0  0  0  0  0  0  0  0
   -6.0338  -11.4981  -15.5288 C   0  0  0  0  0  0  0  0  0  0  0  0
   -6.4053   -9.7513  -19.5462 C   0  0  2  0  0  0  0  0  0  0  0  0
   -5.4962   -3.5120  -21.7609 C   0  0  1  0  0  0  0  0  0  0  0  0
   -6.0551   -2.4644  -22.5298 O   0  0  0  0  0  0  0  0  0  0  0  0
   -6.6326  -10.3100  -15.7008 C   0  0  2  0  0  0  0  0  0  0  0  0
   -6.1173   -9.2833  -16.5664 O   0  0  0  0  0  0  0  0  0  0  0  0
   -5.7227   -8.5837  -20.3747 C   0  0  2  0  0  0  0  0  0  0  0  0
   -5.3136   -7.5345  -19.4883 O   0  0  0  0  0  0  0  0  0  0  0  0
   -6.6699   -4.2397  -21.0227 C   0  0  0  0  0  0  0  0  0  0  0  0
   -7.5332   -4.9791  -22.0311 O   0  0  0  0  0  0  0  0  0  0  0  0
   -7.9420   -9.9438  -14.9638 C   0  0  0  0  0  0  0  0  0  0  0  0
   -7.6787   -8.8821  -14.0026 N   0  0  0  0  0  0  0  0  0  0  0  0
   -6.7476   -7.9984  -21.4123 C   0  0  1  0  0  0  0  0  0  0  0  0
   -6.1054   -6.9717  -22.1296 O   0  0  0  0  0  0  0  0  0  0  0  0
   -4.6603   -2.7999  -20.6845 C   0  0  0  0  0  0  0  0  0  0  0  0
   -2.3893   -4.7125  -23.7225 C   0  0  0  0  0  0  0  0  0  0  0  0
  1  2  1  6  0  0  0
  1  6  1  0  0  0  0
  1 21  1  0  0  0  0
  3  4  1  6  0  0  0
  3  8  1  0  0  0  0
  3 28  1  0  0  0  0
  5  9  1  0  0  0  0
  5 25  1  0  0  0  0
  5 29  1  1  0  0  0
  6  7  1  6  0  0  0
  6 11  1  0  0  0  0
  8 12  1  0  0  0  0
  9 10  1  6  0  0  0
  9 14  1  0  0  0  0
 11 16  1  0  0  0  0
 12 13  1  1  0  0  0
 12 17  1  0  0  0  0
 14 15  1  6  0  0  0
 14 18  1  0  0  0  0
 15 31  1  0  0  0  0
 16 20  1  0  0  0  0
 17  2  1  1  0  0  0
 17 22  1  0  0  0  0
 18 19  1  6  0  0  0
 18 24  1  0  0  0  0
 18 30  1  0  0  0  0
 20 21  1  0  0  0  0
 20 26  1  1  0  0  0
 22 23  1  1  0  0  0
 22 28  1  0  0  0  0
 24 25  1  0  0  0  0
 26 27  1  0  0  0  0
 28 29  1  6  0  0  0
M  END
>  <CHROM.1>
-178.44380791,-169.31161454,-88.18853512,-169.81788056,112.33096352,77.80002958
-5.89615222,-7.80487136,-20.12673933,-1.81164133,-1.20866381,-1.02868803

>  <Name>
ligand

>  <RI>
0

>  <Rbt.Current_Directory>
/home/itssahil/PROJECTS/Mol_Feturizer/New_Systems/rnas/4F8U

>  <Rbt.Executable>
rbdock ($Id: //depot/dev/client3/rdock/2013.1/src/exe/rbdock.cxx#4 $)

>  <Rbt.Library>
libRbt.so (2013.1, Build901 2013/11/27)

>  <Rbt.Parameter_File>
/export/apps/rDock/src/rDock_2013.1_src/data/scripts/dock_solv.prm

>  <Rbt.Receptor>
prm/pocket_docking_8.prm

>  <SCORE>
-14.1014

>  <SCORE.INTER>
-6.92241

>  <SCORE.INTER.CONST>
1

>  <SCORE.INTER.POLAR>
0

>  <SCORE.INTER.ROT>
6

>  <SCORE.INTER.SOLV>
15.5389

>  <SCORE.INTER.VDW>
-17.3946

>  <SCORE.INTER.norm>
-0.223304

>  <SCORE.INTRA>
-7.17896

>  <SCORE.INTRA.DIHEDRAL>
-13.9517

>  <SCORE.INTRA.DIHEDRAL.0>
18.77

>  <SCORE.INTRA.POLAR>
0

>  <SCORE.INTRA.POLAR.0>
0

>  <SCORE.INTRA.REPUL>
0

>  <SCORE.INTRA.REPUL.0>
0

>  <SCORE.INTRA.SOLV>
-1.95371

>  <SCORE.INTRA.SOLV.lig_0>
-77.2465

>  <SCORE.INTRA.VDW>
0.77376

>  <SCORE.INTRA.VDW.0>
-4.16072

>  <SCORE.INTRA.norm>
-0.231579

>  <SCORE.RESTR>
0

>  <SCORE.RESTR.CAVITY>
0

>  <SCORE.RESTR.norm>
0

>  <SCORE.SYSTEM>
0

>  <SCORE.SYSTEM.CONST>
0

>  <SCORE.SYSTEM.DIHEDRAL>
0

>  <SCORE.SYSTEM.SOLV>
0

>  <SCORE.SYSTEM.norm>
0

>  <SCORE.heavy>
31

>  <SCORE.norm>
-0.454883

>  <RMSD>
9.876

$$$$
ligand
 OpenBabel11021811493D
libRbt.so/2013.1/901 2013/11/27
 31 33  0  0  0  0  0  0  0  0999 V2000
   -6.1054  -12.2833   -9.9643 C   0  0  2  0  0  0  0  0  0  0  0  0
   -7.0236  -11.5270  -10.7651 O   0  0  0  0  0  0  0  0  0  0  0  0
  -10.3752   -8.9454  -10.1125 C   0  0  2  0  0  0  0  0  0  0  0  0
  -11.1806   -7.8848   -9.5887 N   0  0  0  0  0  0  0  0  0  0  0  0
   -8.9892   -6.1721  -12.1207 C   0  0  2  0  0  0  0  0  0  0  0  0
   -4.9392  -11.3042   -9.5857 C   0  0  2  0  0  0  0  0  0  0  0  0
   -5.4782  -10.1446   -8.8836 N   0  0  0  0  0  0  0  0  0  0  0  0
   -9.9399   -9.8889   -8.9258 C   0  0  0  0  0  0  0  0  0  0  0  0
   -9.5050   -5.3005  -10.9344 C   0  0  2  0  0  0  0  0  0  0  0  0
   -9.0271   -5.8478   -9.7174 O   0  0  0  0  0  0  0  0  0  0  0  0
   -4.1750  -10.8621  -10.8820 C   0  0  0  0  0  0  0  0  0  0  0  0
   -9.0519  -11.0711   -9.5100 C   0  0  2  0  0  0  0  0  0  0  0  0
   -8.6353  -11.9637   -8.4033 N   0  0  0  0  0  0  0  0  0  0  0  0
  -11.0964   -5.3326  -10.9877 C   0  0  1  0  0  0  0  0  0  0  0  0
  -11.6808   -4.5402   -9.8529 N   0  0  0  0  0  0  0  0  0  0  0  0
   -3.8480  -12.0912  -11.7786 C   0  0  0  0  0  0  0  0  0  0  0  0
   -7.7731  -10.4643  -10.2418 C   0  0  2  0  0  0  0  0  0  0  0  0
  -11.5970   -4.6939  -12.3999 C   0  0  1  0  0  0  0  0  0  0  0  0
  -11.1805   -3.3509  -12.5538 O   0  0  0  0  0  0  0  0  0  0  0  0
   -4.5201  -13.2442  -11.6423 C   0  0  2  0  0  0  0  0  0  0  0  0
   -5.5696  -13.4378  -10.6780 O   0  0  0  0  0  0  0  0  0  0  0  0
   -8.2467   -9.4995  -11.4082 C   0  0  2  0  0  0  0  0  0  0  0  0
   -7.1050   -8.9278  -12.0591 O   0  0  0  0  0  0  0  0  0  0  0  0
  -10.9902   -5.5195  -13.5842 C   0  0  0  0  0  0  0  0  0  0  0  0
   -9.4814   -5.6098  -13.4296 O   0  0  0  0  0  0  0  0  0  0  0  0
   -4.2080  -14.4774  -12.5218 C   0  0  0  0  0  0  0  0  0  0  0  0
   -3.0324  -15.1612  -12.0016 N   0  0  0  0  0  0  0  0  0  0  0  0
   -9.1245   -8.3388  -10.8149 C   0  0  1  0  0  0  0  0  0  0  0  0
   -9.5289   -7.5094  -11.8777 O   0  0  0  0  0  0  0  0  0  0  0  0
  -13.1195   -4.6548  -12.6122 C   0  0  0  0  0  0  0  0  0  0  0  0
  -11.8417   -5.2529   -8.5713 C   0  0  0  0  0  0  0  0  0  0  0  0
  1  2  1  6  0  0  0
  1  6  1  0  0  0  0
  1 21  1  0  0  0  0
  3  4  1  1  0  0  0
  3  8  1  0  0  0  0
  3 28  1  0  0  0  0
  5  9  1  0  0  0  0
  5 25  1  0  0  0  0
  5 29  1  1  0  0  0
  6  7  1  6  0  0  0
  6 11  1  0  0  0  0
  8 12  1  0  0  0  0
  9 10  1  1  0  0  0
  9 14  1  0  0  0  0
 11 16  1  0  0  0  0
 12 13  1  1  0  0  0
 12 17  1  0  0  0  0
 14 15  1  1  0  0  0
 14 18  1  0  0  0  0
 15 31  1  0  0  0  0
 16 20  1  0  0  0  0
 17  2  1  6  0  0  0
 17 22  1  0  0  0  0
 18 19  1  6  0  0  0
 18 24  1  0  0  0  0
 18 30  1  0  0  0  0
 20 21  1  0  0  0  0
 20 26  1  1  0  0  0
 22 23  1  1  0  0  0
 22 28  1  0  0  0  0
 24 25  1  0  0  0  0
 26 27  1  0  0  0  0
 28 29  1  6  0  0  0
M  END
>  <CHROM.1>
-67.07783231,-68.25351711,-85.42082047,-82.13625059,79.90564327,133.58303767
-8.34573484,-8.84495881,-10.93575525,0.58124836,-0.72439500,2.28978574

>  <Name>
ligand

>  <RI>
0

>  <Rbt.Current_Directory>
/home/itssahil/PROJECTS/Mol_Feturizer/New_Systems/rnas/4F8U

>  <Rbt.Executable>
rbdock ($Id: //depot/dev/client3/rdock/2013.1/src/exe/rbdock.cxx#4 $)

>  <Rbt.Library>
libRbt.so (2013.1, Build901 2013/11/27)

>  <Rbt.Parameter_File>
/export/apps/rDock/src/rDock_2013.1_src/data/scripts/dock_solv.prm

>  <Rbt.Receptor>
prm/blind_docking_20.prm

>  <SCORE>
17.4332

>  <SCORE.INTER>
8.42256

>  <SCORE.INTER.CONST>
1

>  <SCORE.INTER.POLAR>
0

>  <SCORE.INTER.ROT>
6

>  <SCORE.INTER.SOLV>
18.2667

>  <SCORE.INTER.VDW>
-8.07387

>  <SCORE.INTER.norm>
0.271695

>  <SCORE.INTRA>
1.88955

>  <SCORE.INTRA.DIHEDRAL>
-6.12466

>  <SCORE.INTRA.DIHEDRAL.0>
18.77

>  <SCORE.INTRA.POLAR>
0

>  <SCORE.INTRA.POLAR.0>
0

>  <SCORE.INTRA.REPUL>
0

>  <SCORE.INTRA.REPUL.0>
0

>  <SCORE.INTRA.SOLV>
5.79613

>  <SCORE.INTRA.SOLV.lig_0>
-77.2465

>  <SCORE.INTRA.VDW>
2.05381

>  <SCORE.INTRA.VDW.0>
-4.16072

>  <SCORE.INTRA.norm>
0.0609532

>  <SCORE.RESTR>
7.12104

>  <SCORE.RESTR.CAVITY>
7.12104

>  <SCORE.RESTR.norm>
0.229711

>  <SCORE.SYSTEM>
0

>  <SCORE.SYSTEM.CONST>
0

>  <SCORE.SYSTEM.DIHEDRAL>
0

>  <SCORE.SYSTEM.SOLV>
0

>  <SCORE.SYSTEM.norm>
0

>  <SCORE.heavy>
31

>  <SCORE.norm>
0.56236

>  <RMSD>
9.898

$$$$
ligand
 OpenBabel11021811493D
libRbt.so/2013.1/901 2013/11/27
 31 33  0  0  0  0  0  0  0  0999 V2000
   -5.1655  -12.5137   -9.9702 C   0  0  2  0  0  0  0  0  0  0  0  0
   -6.1982  -11.7874  -10.6502 O   0  0  0  0  0  0  0  0  0  0  0  0
  -10.1141  -10.2789   -9.8053 C   0  0  2  0  0  0  0  0  0  0  0  0
  -11.1928   -9.6283   -9.1264 N   0  0  0  0  0  0  0  0  0  0  0  0
   -8.6682   -7.1061  -11.4139 C   0  0  2  0  0  0  0  0  0  0  0  0
   -4.0360  -12.7707  -11.0285 C   0  0  2  0  0  0  0  0  0  0  0  0
   -3.5694  -11.4988  -11.5695 N   0  0  0  0  0  0  0  0  0  0  0  0
   -9.5723  -11.4496   -8.8976 C   0  0  0  0  0  0  0  0  0  0  0  0
   -9.3488   -5.8121  -10.8701 C   0  0  2  0  0  0  0  0  0  0  0  0
   -9.3562   -5.8548   -9.4534 O   0  0  0  0  0  0  0  0  0  0  0  0
   -4.5809  -13.6940  -12.1732 C   0  0  0  0  0  0  0  0  0  0  0  0
   -8.3793  -12.1765   -9.6562 C   0  0  2  0  0  0  0  0  0  0  0  0
   -7.8609  -13.2780   -8.8117 N   0  0  0  0  0  0  0  0  0  0  0  0
  -10.8328   -5.7861  -11.4473 C   0  0  1  0  0  0  0  0  0  0  0  0
  -11.5765   -4.5819  -10.9434 N   0  0  0  0  0  0  0  0  0  0  0  0
   -5.3360  -14.9202  -11.5836 C   0  0  0  0  0  0  0  0  0  0  0  0
   -7.2233  -11.1235   -9.9623 C   0  0  2  0  0  0  0  0  0  0  0  0
  -10.7729   -5.7359  -13.0742 C   0  0  1  0  0  0  0  0  0  0  0  0
  -10.0989   -4.5854  -13.5465 O   0  0  0  0  0  0  0  0  0  0  0  0
   -5.8014  -14.9056  -10.3255 C   0  0  2  0  0  0  0  0  0  0  0  0
   -5.6424  -13.7856   -9.4372 O   0  0  0  0  0  0  0  0  0  0  0  0
   -7.8090   -9.9474  -10.8507 C   0  0  2  0  0  0  0  0  0  0  0  0
   -6.7842   -8.9804  -11.1127 O   0  0  0  0  0  0  0  0  0  0  0  0
   -9.9994   -6.9912  -13.6017 C   0  0  0  0  0  0  0  0  0  0  0  0
   -8.6444   -7.0853  -12.9207 O   0  0  0  0  0  0  0  0  0  0  0  0
   -6.5518  -16.1151   -9.7208 C   0  0  0  0  0  0  0  0  0  0  0  0
   -7.9416  -15.7541   -9.4789 N   0  0  0  0  0  0  0  0  0  0  0  0
   -8.9877   -9.2412  -10.0882 C   0  0  1  0  0  0  0  0  0  0  0  0
   -9.4832   -8.2101  -10.9081 O   0  0  0  0  0  0  0  0  0  0  0  0
  -12.1327   -5.7110  -13.7917 C   0  0  0  0  0  0  0  0  0  0  0  0
  -12.1355   -4.6802   -9.5818 C   0  0  0  0  0  0  0  0  0  0  0  0
  1  2  1  6  0  0  0
  1  6  1  0  0  0  0
  1 21  1  0  0  0  0
  3  4  1  1  0  0  0
  3  8  1  0  0  0  0
  3 28  1  0  0  0  0
  5  9  1  0  0  0  0
  5 25  1  0  0  0  0
  5 29  1  6  0  0  0
  6  7  1  6  0  0  0
  6 11  1  0  0  0  0
  8 12  1  0  0  0  0
  9 10  1  1  0  0  0
  9 14  1  0  0  0  0
 11 16  1  0  0  0  0
 12 13  1  1  0  0  0
 12 17  1  0  0  0  0
 14 15  1  1  0  0  0
 14 18  1  0  0  0  0
 15 31  1  0  0  0  0
 16 20  1  0  0  0  0
 17  2  1  6  0  0  0
 17 22  1  0  0  0  0
 18 19  1  6  0  0  0
 18 24  1  0  0  0  0
 18 30  1  0  0  0  0
 20 21  1  0  0  0  0
 20 26  1  1  0  0  0
 22 23  1  1  0  0  0
 22 28  1  0  0  0  0
 24 25  1  0  0  0  0
 26 27  1  0  0  0  0
 28 29  1  6  0  0  0
M  END
>  <CHROM.1>
-165.28432874,-120.94508980,-80.45120738,-85.01675791,-113.05053881,-177.04530837
-8.26086137,-9.82105301,-10.84465503,-0.95009367,0.55239974,-0.53140973

>  <Name>
ligand

>  <RI>
0

>  <Rbt.Current_Directory>
/home/itssahil/PROJECTS/Mol_Feturizer/New_Systems/rnas/4F8U

>  <Rbt.Executable>
rbdock ($Id: //depot/dev/client3/rdock/2013.1/src/exe/rbdock.cxx#4 $)

>  <Rbt.Library>
libRbt.so (2013.1, Build901 2013/11/27)

>  <Rbt.Parameter_File>
/export/apps/rDock/src/rDock_2013.1_src/data/scripts/dock_solv.prm

>  <Rbt.Receptor>
prm/blind_docking_20.prm

>  <SCORE>
14.1904

>  <SCORE.INTER>
5.70299

>  <SCORE.INTER.CONST>
1

>  <SCORE.INTER.POLAR>
0

>  <SCORE.INTER.ROT>
6

>  <SCORE.INTER.SOLV>
13.9017

>  <SCORE.INTER.VDW>
-8.43189

>  <SCORE.INTER.norm>
0.183967

>  <SCORE.INTRA>
2.10446

>  <SCORE.INTRA.DIHEDRAL>
-5.78781

>  <SCORE.INTRA.DIHEDRAL.0>
18.77

>  <SCORE.INTRA.POLAR>
0

>  <SCORE.INTRA.POLAR.0>
0

>  <SCORE.INTRA.REPUL>
0

>  <SCORE.INTRA.REPUL.0>
0

>  <SCORE.INTRA.SOLV>
3.69833

>  <SCORE.INTRA.SOLV.lig_0>
-77.2465

>  <SCORE.INTRA.VDW>
3.1492

>  <SCORE.INTRA.VDW.0>
-4.16072

>  <SCORE.INTRA.norm>
0.0678859

>  <SCORE.RESTR>
6.38291

>  <SCORE.RESTR.CAVITY>
6.38291

>  <SCORE.RESTR.norm>
0.2059

>  <SCORE.SYSTEM>
0

>  <SCORE.SYSTEM.CONST>
0

>  <SCORE.SYSTEM.DIHEDRAL>
0

>  <SCORE.SYSTEM.SOLV>
0

>  <SCORE.SYSTEM.norm>
0

>  <SCORE.heavy>
31

>  <SCORE.norm>
0.457754

>  <RMSD>
9.905

$$$$
ligand
 OpenBabel11021811493D
libRbt.so/2013.1/901 2013/11/27
 31 33  0  0  0  0  0  0  0  0999 V2000
   -5.6734  -11.5121  -17.5683 C   0  0  2  0  0  0  0  0  0  0  0  0
   -5.3495  -10.5732  -18.6028 O   0  0  0  0  0  0  0  0  0  0  0  0
   -7.2743   -9.4330  -22.2522 C   0  0  2  0  0  0  0  0  0  0  0  0
   -8.2519   -8.9090  -23.1565 N   0  0  0  0  0  0  0  0  0  0  0  0
   -6.9609   -6.2817  -22.8363 C   0  0  2  0  0  0  0  0  0  0  0  0
   -6.3953  -10.6946  -16.4402 C   0  0  2  0  0  0  0  0  0  0  0  0
   -7.5725  -10.0311  -16.9894 N   0  0  0  0  0  0  0  0  0  0  0  0
   -7.9257  -10.6035  -21.4193 C   0  0  0  0  0  0  0  0  0  0  0  0
   -5.9110   -5.5806  -23.7525 C   0  0  2  0  0  0  0  0  0  0  0  0
   -5.3045   -6.5522  -24.5872 O   0  0  0  0  0  0  0  0  0  0  0  0
   -5.4033   -9.6463  -15.8264 C   0  0  0  0  0  0  0  0  0  0  0  0
   -6.8365  -11.1900  -20.4208 C   0  0  2  0  0  0  0  0  0  0  0  0
   -7.4379  -12.2900  -19.6313 N   0  0  0  0  0  0  0  0  0  0  0  0
   -4.8355   -4.8998  -22.7954 C   0  0  1  0  0  0  0  0  0  0  0  0
   -3.7613   -4.2252  -23.6005 N   0  0  0  0  0  0  0  0  0  0  0  0
   -4.0320  -10.3059  -15.5008 C   0  0  0  0  0  0  0  0  0  0  0  0
   -6.3230  -10.0323  -19.4539 C   0  0  2  0  0  0  0  0  0  0  0  0
   -5.5776   -3.7928  -21.8591 C   0  0  1  0  0  0  0  0  0  0  0  0
   -6.1902   -2.7732  -22.6248 O   0  0  0  0  0  0  0  0  0  0  0  0
   -3.6649  -11.4588  -16.0801 C   0  0  2  0  0  0  0  0  0  0  0  0
   -4.4883  -12.1663  -17.0237 O   0  0  0  0  0  0  0  0  0  0  0  0
   -5.7019   -8.8609  -20.3244 C   0  0  2  0  0  0  0  0  0  0  0  0
   -5.2581   -7.8017  -19.4670 O   0  0  0  0  0  0  0  0  0  0  0  0
   -6.6966   -4.4943  -21.0178 C   0  0  0  0  0  0  0  0  0  0  0  0
   -7.6243   -5.2691  -21.9386 O   0  0  0  0  0  0  0  0  0  0  0  0
   -2.3077  -12.1312  -15.7675 C   0  0  0  0  0  0  0  0  0  0  0  0
   -2.5379  -13.4045  -15.0996 N   0  0  0  0  0  0  0  0  0  0  0  0
   -6.7897   -8.2942  -21.3069 C   0  0  1  0  0  0  0  0  0  0  0  0
   -6.2010   -7.2635  -22.0634 O   0  0  0  0  0  0  0  0  0  0  0  0
   -4.6726   -3.0428  -20.8676 C   0  0  0  0  0  0  0  0  0  0  0  0
   -2.4726   -4.9363  -23.6987 C   0  0  0  0  0  0  0  0  0  0  0  0
  1  2  1  6  0  0  0
  1  6  1  0  0  0  0
  1 21  1  0  0  0  0
  3  4  1  6  0  0  0
  3  8  1  0  0  0  0
  3 28  1  0  0  0  0
  5  9  1  0  0  0  0
  5 25  1  0  0  0  0
  5 29  1  1  0  0  0
  6  7  1  6  0  0  0
  6 11  1  0  0  0  0
  8 12  1  0  0  0  0
  9 10  1  6  0  0  0
  9 14  1  0  0  0  0
 11 16  1  0  0  0  0
 12 13  1  1  0  0  0
 12 17  1  0  0  0  0
 14 15  1  6  0  0  0
 14 18  1  0  0  0  0
 15 31  1  0  0  0  0
 16 20  1  0  0  0  0
 17  2  1  1  0  0  0
 17 22  1  0  0  0  0
 18 19  1  6  0  0  0
 18 24  1  0  0  0  0
 18 30  1  0  0  0  0
 20 21  1  0  0  0  0
 20 26  1  1  0  0  0
 22 23  1  1  0  0  0
 22 28  1  0  0  0  0
 24 25  1  0  0  0  0
 26 27  1  0  0  0  0
 28 29  1  6  0  0  0
M  END
>  <CHROM.1>
-73.21829470,-166.92643221,-102.91093175,-69.81699545,114.65130356,76.58280367
-5.64392394,-8.29574459,-20.15042729,1.44396614,0.75318765,2.48655317

>  <Name>
ligand

>  <RI>
0

>  <Rbt.Current_Directory>
/home/itssahil/PROJECTS/Mol_Feturizer/New_Systems/rnas/4F8U

>  <Rbt.Executable>
rbdock ($Id: //depot/dev/client3/rdock/2013.1/src/exe/rbdock.cxx#4 $)

>  <Rbt.Library>
libRbt.so (2013.1, Build901 2013/11/27)

>  <Rbt.Parameter_File>
/export/apps/rDock/src/rDock_2013.1_src/data/scripts/dock_solv.prm

>  <Rbt.Receptor>
prm/pocket_docking_7.prm

>  <SCORE>
-10.4411

>  <SCORE.INTER>
-6.51075

>  <SCORE.INTER.CONST>
1

>  <SCORE.INTER.POLAR>
0

>  <SCORE.INTER.ROT>
6

>  <SCORE.INTER.SOLV>
13.3165

>  <SCORE.INTER.VDW>
-16.3793

>  <SCORE.INTER.norm>
-0.210024

>  <SCORE.INTRA>
-3.93036

>  <SCORE.INTRA.DIHEDRAL>
-12.6946

>  <SCORE.INTRA.DIHEDRAL.0>
18.77

>  <SCORE.INTRA.POLAR>
0

>  <SCORE.INTRA.POLAR.0>
0

>  <SCORE.INTRA.REPUL>
0

>  <SCORE.INTRA.REPUL.0>
0

>  <SCORE.INTRA.SOLV>
2.316

>  <SCORE.INTRA.SOLV.lig_0>
-77.2465

>  <SCORE.INTRA.VDW>
1.25892

>  <SCORE.INTRA.VDW.0>
-4.16072

>  <SCORE.INTRA.norm>
-0.126786

>  <SCORE.RESTR>
0

>  <SCORE.RESTR.CAVITY>
0

>  <SCORE.RESTR.norm>
0

>  <SCORE.SYSTEM>
0

>  <SCORE.SYSTEM.CONST>
0

>  <SCORE.SYSTEM.DIHEDRAL>
0

>  <SCORE.SYSTEM.SOLV>
0

>  <SCORE.SYSTEM.norm>
0

>  <SCORE.heavy>
31

>  <SCORE.norm>
-0.33681

>  <RMSD>
9.937

$$$$
ligand
 OpenBabel11021811493D
libRbt.so/2013.1/901 2013/11/27
 31 33  0  0  0  0  0  0  0  0999 V2000
   -6.0516  -11.5874  -17.3717 C   0  0  2  0  0  0  0  0  0  0  0  0
   -5.9198  -10.5157  -18.3155 O   0  0  0  0  0  0  0  0  0  0  0  0
   -7.3005   -9.9290  -22.3246 C   0  0  2  0  0  0  0  0  0  0  0  0
   -8.1852   -9.7634  -23.4373 N   0  0  0  0  0  0  0  0  0  0  0  0
   -7.6736   -6.2481  -21.3458 C   0  0  2  0  0  0  0  0  0  0  0  0
   -7.2121  -11.1783  -16.3982 C   0  0  2  0  0  0  0  0  0  0  0  0
   -8.4338  -10.9430  -17.1597 N   0  0  0  0  0  0  0  0  0  0  0  0
   -7.5802  -11.3295  -21.6549 C   0  0  0  0  0  0  0  0  0  0  0  0
   -7.7315   -5.2681  -22.5580 C   0  0  2  0  0  0  0  0  0  0  0  0
   -8.6825   -5.7468  -23.4937 O   0  0  0  0  0  0  0  0  0  0  0  0
   -6.8035   -9.8949  -15.5945 C   0  0  0  0  0  0  0  0  0  0  0  0
   -6.5915  -11.5157  -20.4240 C   0  0  2  0  0  0  0  0  0  0  0  0
   -6.8463  -12.8282  -19.7855 N   0  0  0  0  0  0  0  0  0  0  0  0
   -6.2734   -5.2277  -23.1971 C   0  0  1  0  0  0  0  0  0  0  0  0
   -6.2464   -4.3271  -24.3993 N   0  0  0  0  0  0  0  0  0  0  0  0
   -5.3666  -10.0386  -15.0146 C   0  0  0  0  0  0  0  0  0  0  0  0
   -6.8193  -10.3375  -19.3757 C   0  0  2  0  0  0  0  0  0  0  0  0
   -5.2186   -4.6713  -22.0878 C   0  0  1  0  0  0  0  0  0  0  0  0
   -5.5429   -3.3646  -21.6537 O   0  0  0  0  0  0  0  0  0  0  0  0
   -4.5029  -10.9312  -15.5216 C   0  0  2  0  0  0  0  0  0  0  0  0
   -4.8253  -11.8107  -16.6131 O   0  0  0  0  0  0  0  0  0  0  0  0
   -6.5587   -8.9451  -20.0890 C   0  0  2  0  0  0  0  0  0  0  0  0
   -6.7842   -7.8752  -19.1625 O   0  0  0  0  0  0  0  0  0  0  0  0
   -5.2440   -5.6096  -20.8343 C   0  0  0  0  0  0  0  0  0  0  0  0
   -6.6702   -5.7605  -20.3324 O   0  0  0  0  0  0  0  0  0  0  0  0
   -3.0719  -11.0907  -14.9574 C   0  0  0  0  0  0  0  0  0  0  0  0
   -2.9020  -12.4398  -14.4362 N   0  0  0  0  0  0  0  0  0  0  0  0
   -7.5415   -8.7777  -21.3038 C   0  0  1  0  0  0  0  0  0  0  0  0
   -7.2768   -7.5366  -21.9125 O   0  0  0  0  0  0  0  0  0  0  0  0
   -3.7546   -4.5750  -22.5482 C   0  0  0  0  0  0  0  0  0  0  0  0
   -6.5017   -4.9680  -25.7033 C   0  0  0  0  0  0  0  0  0  0  0  0
  1  2  1  6  0  0  0
  1  6  1  0  0  0  0
  1 21  1  0  0  0  0
  3  4  1  6  0  0  0
  3  8  1  0  0  0  0
  3 28  1  0  0  0  0
  5  9  1  0  0  0  0
  5 25  1  0  0  0  0
  5 29  1  6  0  0  0
  6  7  1  6  0  0  0
  6 11  1  0  0  0  0
  8 12  1  0  0  0  0
  9 10  1  6  0  0  0
  9 14  1  0  0  0  0
 11 16  1  0  0  0  0
 12 13  1  1  0  0  0
 12 17  1  0  0  0  0
 14 15  1  6  0  0  0
 14 18  1  0  0  0  0
 15 31  1  0  0  0  0
 16 20  1  0  0  0  0
 17  2  1  1  0  0  0
 17 22  1  0  0  0  0
 18 19  1  1  0  0  0
 18 24  1  0  0  0  0
 18 30  1  0  0  0  0
 20 21  1  0  0  0  0
 20 26  1  1  0  0  0
 22 23  1  1  0  0  0
 22 28  1  0  0  0  0
 24 25  1  0  0  0  0
 26 27  1  0  0  0  0
 28 29  1  6  0  0  0
M  END
>  <CHROM.1>
-76.55099200,-156.93387487,-91.96034282,-70.14361324,118.33852196,166.17452212
-6.32140309,-8.50339108,-19.98445586,1.35133826,0.94081974,2.47789670

>  <Name>
ligand

>  <RI>
0

>  <Rbt.Current_Directory>
/home/itssahil/PROJECTS/Mol_Feturizer/New_Systems/rnas/4F8U

>  <Rbt.Executable>
rbdock ($Id: //depot/dev/client3/rdock/2013.1/src/exe/rbdock.cxx#4 $)

>  <Rbt.Library>
libRbt.so (2013.1, Build901 2013/11/27)

>  <Rbt.Parameter_File>
/export/apps/rDock/src/rDock_2013.1_src/data/scripts/dock_solv.prm

>  <Rbt.Receptor>
prm/pocket_docking_8.prm

>  <SCORE>
-10.2191

>  <SCORE.INTER>
-7.40204

>  <SCORE.INTER.CONST>
1

>  <SCORE.INTER.POLAR>
0

>  <SCORE.INTER.ROT>
6

>  <SCORE.INTER.SOLV>
15.5921

>  <SCORE.INTER.VDW>
-17.7321

>  <SCORE.INTER.norm>
-0.238775

>  <SCORE.INTRA>
-2.81701

>  <SCORE.INTRA.DIHEDRAL>
-11.432

>  <SCORE.INTRA.DIHEDRAL.0>
18.77

>  <SCORE.INTRA.POLAR>
0

>  <SCORE.INTRA.POLAR.0>
0

>  <SCORE.INTRA.REPUL>
0

>  <SCORE.INTRA.REPUL.0>
0

>  <SCORE.INTRA.SOLV>
1.328

>  <SCORE.INTRA.SOLV.lig_0>
-77.2465

>  <SCORE.INTRA.VDW>
2.23498

>  <SCORE.INTRA.VDW.0>
-4.16072

>  <SCORE.INTRA.norm>
-0.0908714

>  <SCORE.RESTR>
0

>  <SCORE.RESTR.CAVITY>
0

>  <SCORE.RESTR.norm>
0

>  <SCORE.SYSTEM>
0

>  <SCORE.SYSTEM.CONST>
0

>  <SCORE.SYSTEM.DIHEDRAL>
0

>  <SCORE.SYSTEM.SOLV>
0

>  <SCORE.SYSTEM.norm>
0

>  <SCORE.heavy>
31

>  <SCORE.norm>
-0.329647

>  <RMSD>
9.937

$$$$
ligand
 OpenBabel11021811493D
libRbt.so/2013.1/901 2013/11/27
 31 33  0  0  0  0  0  0  0  0999 V2000
   -5.5085  -12.1610  -18.3404 C   0  0  2  0  0  0  0  0  0  0  0  0
   -5.2574  -10.8821  -18.9386 O   0  0  0  0  0  0  0  0  0  0  0  0
   -7.2695   -9.2756  -22.3582 C   0  0  2  0  0  0  0  0  0  0  0  0
   -8.2501   -8.6051  -23.1563 N   0  0  0  0  0  0  0  0  0  0  0  0
   -6.7565   -6.2373  -22.8538 C   0  0  2  0  0  0  0  0  0  0  0  0
   -4.5644  -12.2573  -17.0909 C   0  0  2  0  0  0  0  0  0  0  0  0
   -4.8332  -11.1470  -16.1838 N   0  0  0  0  0  0  0  0  0  0  0  0
   -7.9608  -10.4753  -21.6026 C   0  0  0  0  0  0  0  0  0  0  0  0
   -5.6526   -5.5061  -23.6785 C   0  0  2  0  0  0  0  0  0  0  0  0
   -4.9600   -6.4576  -24.4683 O   0  0  0  0  0  0  0  0  0  0  0  0
   -3.0663  -12.2442  -17.5551 C   0  0  0  0  0  0  0  0  0  0  0  0
   -6.8689  -11.2242  -20.7226 C   0  0  2  0  0  0  0  0  0  0  0  0
   -7.5075  -12.3530  -20.0062 N   0  0  0  0  0  0  0  0  0  0  0  0
   -4.6722   -4.8103  -22.6341 C   0  0  1  0  0  0  0  0  0  0  0  0
   -3.5523   -4.1060  -23.3463 N   0  0  0  0  0  0  0  0  0  0  0  0
   -2.8420  -13.2385  -18.7309 C   0  0  0  0  0  0  0  0  0  0  0  0
   -6.2301  -10.2000  -19.6825 C   0  0  2  0  0  0  0  0  0  0  0  0
   -5.5109   -3.7272  -21.7530 C   0  0  1  0  0  0  0  0  0  0  0  0
   -6.0829   -2.7148  -22.5585 O   0  0  0  0  0  0  0  0  0  0  0  0
   -3.8703  -13.6701  -19.4765 C   0  0  2  0  0  0  0  0  0  0  0  0
   -5.2322  -13.2638  -19.2552 O   0  0  0  0  0  0  0  0  0  0  0  0
   -5.5708   -8.9940  -20.4738 C   0  0  2  0  0  0  0  0  0  0  0  0
   -5.0135   -8.0527  -19.5479 O   0  0  0  0  0  0  0  0  0  0  0  0
   -6.6778   -4.4596  -21.0084 C   0  0  0  0  0  0  0  0  0  0  0  0
   -7.5116   -5.2465  -22.0055 O   0  0  0  0  0  0  0  0  0  0  0  0
   -3.6681  -14.6601  -20.6473 C   0  0  0  0  0  0  0  0  0  0  0  0
   -2.3440  -15.2589  -20.5550 N   0  0  0  0  0  0  0  0  0  0  0  0
   -6.6618   -8.2663  -21.3397 C   0  0  1  0  0  0  0  0  0  0  0  0
   -6.0391   -7.2088  -22.0289 O   0  0  0  0  0  0  0  0  0  0  0  0
   -4.7048   -2.9661  -20.6875 C   0  0  0  0  0  0  0  0  0  0  0  0
   -2.3576   -4.9163  -23.6500 C   0  0  0  0  0  0  0  0  0  0  0  0
  1  2  1  6  0  0  0
  1  6  1  0  0  0  0
  1 21  1  0  0  0  0
  3  4  1  1  0  0  0
  3  8  1  0  0  0  0
  3 28  1  0  0  0  0
  5  9  1  0  0  0  0
  5 25  1  0  0  0  0
  5 29  1  1  0  0  0
  6  7  1  1  0  0  0
  6 11  1  0  0  0  0
  8 12  1  0  0  0  0
  9 10  1  1  0  0  0
  9 14  1  0  0  0  0
 11 16  1  0  0  0  0
 12 13  1  1  0  0  0
 12 17  1  0  0  0  0
 14 15  1  6  0  0  0
 14 18  1  0  0  0  0
 15 31  1  0  0  0  0
 16 20  1  0  0  0  0
 17  2  1  6  0  0  0
 17 22  1  0  0  0  0
 18 19  1  6  0  0  0
 18 24  1  0  0  0  0
 18 30  1  0  0  0  0
 20 21  1  0  0  0  0
 20 26  1  1  0  0  0
 22 23  1  1  0  0  0
 22 28  1  0  0  0  0
 24 25  1  0  0  0  0
 26 27  1  0  0  0  0
 28 29  1  6  0  0  0
M  END
>  <CHROM.1>
-152.50616750,-166.24391557,-87.74915929,-47.99961153,14.47153065,65.85721931
-5.37862032,-8.80947516,-20.86600405,1.44760993,0.45105428,2.79248088

>  <Name>
ligand

>  <RI>
0

>  <Rbt.Current_Directory>
/home/itssahil/PROJECTS/Mol_Feturizer/New_Systems/rnas/4F8U

>  <Rbt.Executable>
rbdock ($Id: //depot/dev/client3/rdock/2013.1/src/exe/rbdock.cxx#4 $)

>  <Rbt.Library>
libRbt.so (2013.1, Build901 2013/11/27)

>  <Rbt.Parameter_File>
/export/apps/rDock/src/rDock_2013.1_src/data/scripts/dock_solv.prm

>  <Rbt.Receptor>
prm/pocket_docking_8.prm

>  <SCORE>
-9.48256

>  <SCORE.INTER>
-8.08686

>  <SCORE.INTER.CONST>
1

>  <SCORE.INTER.POLAR>
0

>  <SCORE.INTER.ROT>
6

>  <SCORE.INTER.SOLV>
13.4844

>  <SCORE.INTER.VDW>
-17.486

>  <SCORE.INTER.norm>
-0.260866

>  <SCORE.INTRA>
-1.3957

>  <SCORE.INTRA.DIHEDRAL>
-11.4164

>  <SCORE.INTRA.DIHEDRAL.0>
18.77

>  <SCORE.INTRA.POLAR>
0

>  <SCORE.INTRA.POLAR.0>
0

>  <SCORE.INTRA.REPUL>
0

>  <SCORE.INTRA.REPUL.0>
0

>  <SCORE.INTRA.SOLV>
0.92249

>  <SCORE.INTRA.SOLV.lig_0>
-77.2465

>  <SCORE.INTRA.VDW>
3.85124

>  <SCORE.INTRA.VDW.0>
-4.16072

>  <SCORE.INTRA.norm>
-0.0450226

>  <SCORE.RESTR>
0

>  <SCORE.RESTR.CAVITY>
0

>  <SCORE.RESTR.norm>
0

>  <SCORE.SYSTEM>
0

>  <SCORE.SYSTEM.CONST>
0

>  <SCORE.SYSTEM.DIHEDRAL>
0

>  <SCORE.SYSTEM.SOLV>
0

>  <SCORE.SYSTEM.norm>
0

>  <SCORE.heavy>
31

>  <SCORE.norm>
-0.305889

>  <RMSD>
9.974

$$$$
ligand
 OpenBabel11021811493D
libRbt.so/2013.1/901 2013/11/27
 31 33  0  0  0  0  0  0  0  0999 V2000
   -6.8215  -10.1537  -17.5454 C   0  0  2  0  0  0  0  0  0  0  0  0
   -6.7734  -10.5984  -18.9080 O   0  0  0  0  0  0  0  0  0  0  0  0
   -7.0364   -8.6195  -22.6946 C   0  0  2  0  0  0  0  0  0  0  0  0
   -7.5700   -7.8790  -23.7968 N   0  0  0  0  0  0  0  0  0  0  0  0
   -4.8365   -6.5741  -21.6086 C   0  0  2  0  0  0  0  0  0  0  0  0
   -5.8169  -11.0589  -16.7497 C   0  0  2  0  0  0  0  0  0  0  0  0
   -4.4848  -10.9473  -17.3334 N   0  0  0  0  0  0  0  0  0  0  0  0
   -7.8972   -9.9258  -22.4935 C   0  0  0  0  0  0  0  0  0  0  0  0
   -4.4322   -5.0676  -21.6318 C   0  0  2  0  0  0  0  0  0  0  0  0
   -4.9580   -4.4307  -20.4800 O   0  0  0  0  0  0  0  0  0  0  0  0
   -6.3101  -12.5476  -16.7735 C   0  0  0  0  0  0  0  0  0  0  0  0
   -7.2986  -10.7515  -21.2739 C   0  0  2  0  0  0  0  0  0  0  0  0
   -8.1008  -11.9810  -21.0743 N   0  0  0  0  0  0  0  0  0  0  0  0
   -5.0452   -4.4393  -22.9606 C   0  0  1  0  0  0  0  0  0  0  0  0
   -4.7301   -2.9729  -23.0477 N   0  0  0  0  0  0  0  0  0  0  0  0
   -7.8235  -12.6354  -16.4226 C   0  0  0  0  0  0  0  0  0  0  0  0
   -7.3272   -9.8532  -19.9582 C   0  0  2  0  0  0  0  0  0  0  0  0
   -4.4117   -5.2005  -24.2537 C   0  0  1  0  0  0  0  0  0  0  0  0
   -3.0049   -5.0657  -24.3139 O   0  0  0  0  0  0  0  0  0  0  0  0
   -8.6219  -11.5630  -16.5334 C   0  0  2  0  0  0  0  0  0  0  0  0
   -8.1574  -10.2740  -16.9708 O   0  0  0  0  0  0  0  0  0  0  0  0
   -6.4777   -8.5368  -20.2052 C   0  0  2  0  0  0  0  0  0  0  0  0
   -6.5158   -7.7081  -19.0365 O   0  0  0  0  0  0  0  0  0  0  0  0
   -4.7405   -6.7291  -24.1656 C   0  0  0  0  0  0  0  0  0  0  0  0
   -4.2869   -7.2772  -22.8231 O   0  0  0  0  0  0  0  0  0  0  0  0
  -10.1276  -11.6296  -16.1869 C   0  0  0  0  0  0  0  0  0  0  0  0
  -10.3989  -10.7852  -15.0320 N   0  0  0  0  0  0  0  0  0  0  0  0
   -7.0805   -7.7339  -21.4142 C   0  0  1  0  0  0  0  0  0  0  0  0
   -6.2990   -6.5790  -21.6051 O   0  0  0  0  0  0  0  0  0  0  0  0
   -4.9073   -4.7119  -25.6248 C   0  0  0  0  0  0  0  0  0  0  0  0
   -3.3162   -2.5949  -22.8624 C   0  0  0  0  0  0  0  0  0  0  0  0
  1  2  1  6  0  0  0
  1  6  1  0  0  0  0
  1 21  1  0  0  0  0
  3  4  1  6  0  0  0
  3  8  1  0  0  0  0
  3 28  1  0  0  0  0
  5  9  1  0  0  0  0
  5 25  1  0  0  0  0
  5 29  1  6  0  0  0
  6  7  1  6  0  0  0
  6 11  1  0  0  0  0
  8 12  1  0  0  0  0
  9 10  1  1  0  0  0
  9 14  1  0  0  0  0
 11 16  1  0  0  0  0
 12 13  1  1  0  0  0
 12 17  1  0  0  0  0
 14 15  1  6  0  0  0
 14 18  1  0  0  0  0
 15 31  1  0  0  0  0
 16 20  1  0  0  0  0
 17  2  1  1  0  0  0
 17 22  1  0  0  0  0
 18 19  1  1  0  0  0
 18 24  1  0  0  0  0
 18 30  1  0  0  0  0
 20 21  1  0  0  0  0
 20 26  1  1  0  0  0
 22 23  1  1  0  0  0
 22 28  1  0  0  0  0
 24 25  1  0  0  0  0
 26 27  1  0  0  0  0
 28 29  1  6  0  0  0
M  END
>  <CHROM.1>
-166.60331784,-171.52949084,50.86948784,-170.96926950,114.55184897,-73.79567744
-6.28639013,-8.24264411,-20.51865048,-2.32602734,-1.02988823,-1.45308095

>  <Name>
ligand

>  <RI>
0

>  <Rbt.Current_Directory>
/home/itssahil/PROJECTS/Mol_Feturizer/New_Systems/rnas/4F8U

>  <Rbt.Executable>
rbdock ($Id: //depot/dev/client3/rdock/2013.1/src/exe/rbdock.cxx#4 $)

>  <Rbt.Library>
libRbt.so (2013.1, Build901 2013/11/27)

>  <Rbt.Parameter_File>
/export/apps/rDock/src/rDock_2013.1_src/data/scripts/dock_solv.prm

>  <Rbt.Receptor>
prm/pocket_docking_8.prm

>  <SCORE>
-12.5591

>  <SCORE.INTER>
-7.80867

>  <SCORE.INTER.CONST>
1

>  <SCORE.INTER.POLAR>
0

>  <SCORE.INTER.ROT>
6

>  <SCORE.INTER.SOLV>
14.4007

>  <SCORE.INTER.VDW>
-17.606

>  <SCORE.INTER.norm>
-0.251893

>  <SCORE.INTRA>
-4.75045

>  <SCORE.INTRA.DIHEDRAL>
-14.487

>  <SCORE.INTRA.DIHEDRAL.0>
18.77

>  <SCORE.INTRA.POLAR>
0

>  <SCORE.INTRA.POLAR.0>
0

>  <SCORE.INTRA.REPUL>
0

>  <SCORE.INTRA.REPUL.0>
0

>  <SCORE.INTRA.SOLV>
-0.624185

>  <SCORE.INTRA.SOLV.lig_0>
-77.2465

>  <SCORE.INTRA.VDW>
2.80515

>  <SCORE.INTRA.VDW.0>
-4.16072

>  <SCORE.INTRA.norm>
-0.15324

>  <SCORE.RESTR>
0

>  <SCORE.RESTR.CAVITY>
0

>  <SCORE.RESTR.norm>
0

>  <SCORE.SYSTEM>
0

>  <SCORE.SYSTEM.CONST>
0

>  <SCORE.SYSTEM.DIHEDRAL>
0

>  <SCORE.SYSTEM.SOLV>
0

>  <SCORE.SYSTEM.norm>
0

>  <SCORE.heavy>
31

>  <SCORE.norm>
-0.405133

>  <RMSD>
10.026

$$$$
ligand
 OpenBabel11021811493D
libRbt.so/2013.1/901 2013/11/27
 31 33  0  0  0  0  0  0  0  0999 V2000
   -5.2559  -12.4411   -9.8866 C   0  0  2  0  0  0  0  0  0  0  0  0
   -6.2876  -11.7488  -10.6026 O   0  0  0  0  0  0  0  0  0  0  0  0
  -10.1949  -10.1575   -9.8785 C   0  0  2  0  0  0  0  0  0  0  0  0
  -11.2787   -9.4795   -9.2353 N   0  0  0  0  0  0  0  0  0  0  0  0
   -8.6946   -6.9436  -11.3472 C   0  0  2  0  0  0  0  0  0  0  0  0
   -4.1673  -12.8308  -10.9474 C   0  0  2  0  0  0  0  0  0  0  0  0
   -3.6811  -11.6300  -11.6179 N   0  0  0  0  0  0  0  0  0  0  0  0
   -9.7004  -11.3287   -8.9450 C   0  0  0  0  0  0  0  0  0  0  0  0
   -9.4533   -5.7233  -10.7401 C   0  0  2  0  0  0  0  0  0  0  0  0
   -9.5399   -5.8861   -9.3348 O   0  0  0  0  0  0  0  0  0  0  0  0
   -4.7737  -13.8386  -11.9849 C   0  0  0  0  0  0  0  0  0  0  0  0
   -8.5017  -12.0861   -9.6640 C   0  0  2  0  0  0  0  0  0  0  0  0
   -8.0274  -13.1883   -8.7950 N   0  0  0  0  0  0  0  0  0  0  0  0
  -10.9018   -5.6971  -11.4013 C   0  0  1  0  0  0  0  0  0  0  0  0
  -11.7179   -4.5648  -10.8451 N   0  0  0  0  0  0  0  0  0  0  0  0
   -5.5453  -14.9804  -11.2621 C   0  0  0  0  0  0  0  0  0  0  0  0
   -7.3178  -11.0585   -9.9491 C   0  0  2  0  0  0  0  0  0  0  0  0
  -10.7511   -5.5073  -13.0119 C   0  0  1  0  0  0  0  0  0  0  0  0
  -10.0951   -4.2995  -13.3462 O   0  0  0  0  0  0  0  0  0  0  0  0
   -5.9712  -14.8344   -9.9984 C   0  0  2  0  0  0  0  0  0  0  0  0
   -5.7527  -13.6423   -9.2237 O   0  0  0  0  0  0  0  0  0  0  0  0
   -7.8567   -9.8807  -10.8645 C   0  0  2  0  0  0  0  0  0  0  0  0
   -6.8068   -8.9361  -11.1083 O   0  0  0  0  0  0  0  0  0  0  0  0
   -9.9021   -6.6875  -13.5940 C   0  0  0  0  0  0  0  0  0  0  0  0
   -8.5856   -6.7945  -12.8430 O   0  0  0  0  0  0  0  0  0  0  0  0
   -6.7372  -15.9583   -9.2623 C   0  0  0  0  0  0  0  0  0  0  0  0
   -7.0644  -15.5207   -7.9125 N   0  0  0  0  0  0  0  0  0  0  0  0
   -9.0416   -9.1443  -10.1411 C   0  0  1  0  0  0  0  0  0  0  0  0
   -9.4950   -8.1126  -10.9842 O   0  0  0  0  0  0  0  0  0  0  0  0
  -12.0677   -5.4661  -13.8052 C   0  0  0  0  0  0  0  0  0  0  0  0
  -12.1625   -4.7041   -9.4454 C   0  0  0  0  0  0  0  0  0  0  0  0
  1  2  1  6  0  0  0
  1  6  1  0  0  0  0
  1 21  1  0  0  0  0
  3  4  1  1  0  0  0
  3  8  1  0  0  0  0
  3 28  1  0  0  0  0
  5  9  1  0  0  0  0
  5 25  1  0  0  0  0
  5 29  1  6  0  0  0
  6  7  1  6  0  0  0
  6 11  1  0  0  0  0
  8 12  1  0  0  0  0
  9 10  1  1  0  0  0
  9 14  1  0  0  0  0
 11 16  1  0  0  0  0
 12 13  1  1  0  0  0
 12 17  1  0  0  0  0
 14 15  1  1  0  0  0
 14 18  1  0  0  0  0
 15 31  1  0  0  0  0
 16 20  1  0  0  0  0
 17  2  1  6  0  0  0
 17 22  1  0  0  0  0
 18 19  1  6  0  0  0
 18 24  1  0  0  0  0
 18 30  1  0  0  0  0
 20 21  1  0  0  0  0
 20 26  1  1  0  0  0
 22 23  1  1  0  0  0
 22 28  1  0  0  0  0
 24 25  1  0  0  0  0
 26 27  1  0  0  0  0
 28 29  1  6  0  0  0
M  END
>  <CHROM.1>
-169.20762902,-115.96293126,-70.64397981,-87.67471079,179.74471258,175.17887022
-8.30936177,-9.72614205,-10.72084456,-0.94362455,0.59699619,-0.59211063

>  <Name>
ligand

>  <RI>
0

>  <Rbt.Current_Directory>
/home/itssahil/PROJECTS/Mol_Feturizer/New_Systems/rnas/4F8U

>  <Rbt.Executable>
rbdock ($Id: //depot/dev/client3/rdock/2013.1/src/exe/rbdock.cxx#4 $)

>  <Rbt.Library>
libRbt.so (2013.1, Build901 2013/11/27)

>  <Rbt.Parameter_File>
/export/apps/rDock/src/rDock_2013.1_src/data/scripts/dock_solv.prm

>  <Rbt.Receptor>
prm/blind_docking_20.prm

>  <SCORE>
15.1566

>  <SCORE.INTER>
5.68967

>  <SCORE.INTER.CONST>
1

>  <SCORE.INTER.POLAR>
0

>  <SCORE.INTER.ROT>
6

>  <SCORE.INTER.SOLV>
17.1174

>  <SCORE.INTER.VDW>
-9.51267

>  <SCORE.INTER.norm>
0.183538

>  <SCORE.INTRA>
3.3956

>  <SCORE.INTRA.DIHEDRAL>
-4.12254

>  <SCORE.INTRA.DIHEDRAL.0>
18.77

>  <SCORE.INTRA.POLAR>
0

>  <SCORE.INTRA.POLAR.0>
0

>  <SCORE.INTRA.REPUL>
0

>  <SCORE.INTRA.REPUL.0>
0

>  <SCORE.INTRA.SOLV>
3.97991

>  <SCORE.INTRA.SOLV.lig_0>
-77.2465

>  <SCORE.INTRA.VDW>
3.46691

>  <SCORE.INTRA.VDW.0>
-4.16072

>  <SCORE.INTRA.norm>
0.109535

>  <SCORE.RESTR>
6.07129

>  <SCORE.RESTR.CAVITY>
6.07129

>  <SCORE.RESTR.norm>
0.195848

>  <SCORE.SYSTEM>
0

>  <SCORE.SYSTEM.CONST>
0

>  <SCORE.SYSTEM.DIHEDRAL>
0

>  <SCORE.SYSTEM.SOLV>
0

>  <SCORE.SYSTEM.norm>
0

>  <SCORE.heavy>
31

>  <SCORE.norm>
0.488921

>  <RMSD>
10.039

$$$$
ligand
 OpenBabel11021811493D
libRbt.so/2013.1/901 2013/11/27
 31 33  0  0  0  0  0  0  0  0999 V2000
   -6.4854  -10.5000  -25.0306 C   0  0  2  0  0  0  0  0  0  0  0  0
   -7.3103  -10.9180  -23.9346 O   0  0  0  0  0  0  0  0  0  0  0  0
   -7.8355   -9.5327  -19.9185 C   0  0  2  0  0  0  0  0  0  0  0  0
   -7.5580   -9.2293  -18.5478 N   0  0  0  0  0  0  0  0  0  0  0  0
   -5.9776   -6.4993  -20.0465 C   0  0  2  0  0  0  0  0  0  0  0  0
   -7.3381   -9.4767  -25.8599 C   0  0  2  0  0  0  0  0  0  0  0  0
   -7.7452   -8.3675  -25.0044 N   0  0  0  0  0  0  0  0  0  0  0  0
   -7.6782  -11.0866  -20.1389 C   0  0  0  0  0  0  0  0  0  0  0  0
   -5.9514   -5.2302  -20.9532 C   0  0  2  0  0  0  0  0  0  0  0  0
   -7.2304   -4.6198  -20.9301 O   0  0  0  0  0  0  0  0  0  0  0  0
   -8.5914  -10.1985  -26.4666 C   0  0  0  0  0  0  0  0  0  0  0  0
   -7.9945  -11.4233  -21.6601 C   0  0  2  0  0  0  0  0  0  0  0  0
   -7.8482  -12.8812  -21.8795 N   0  0  0  0  0  0  0  0  0  0  0  0
   -5.5770   -5.7136  -22.4237 C   0  0  1  0  0  0  0  0  0  0  0  0
   -5.5618   -4.5515  -23.3758 N   0  0  0  0  0  0  0  0  0  0  0  0
   -8.1854  -11.5412  -27.1401 C   0  0  0  0  0  0  0  0  0  0  0  0
   -6.9925  -10.6191  -22.6024 C   0  0  2  0  0  0  0  0  0  0  0  0
   -4.1025   -6.4052  -22.4000 C   0  0  1  0  0  0  0  0  0  0  0  0
   -3.1002   -5.5064  -21.9657 O   0  0  0  0  0  0  0  0  0  0  0  0
   -7.0283  -12.1463  -26.8324 C   0  0  2  0  0  0  0  0  0  0  0  0
   -6.0880  -11.6167  -25.8816 O   0  0  0  0  0  0  0  0  0  0  0  0
   -7.1562   -9.0645  -22.3342 C   0  0  2  0  0  0  0  0  0  0  0  0
   -6.2422   -8.3307  -23.1589 O   0  0  0  0  0  0  0  0  0  0  0  0
   -4.1166   -7.6179  -21.4093 C   0  0  0  0  0  0  0  0  0  0  0  0
   -4.6268   -7.1675  -20.0507 O   0  0  0  0  0  0  0  0  0  0  0  0
   -6.6059  -13.4794  -27.4928 C   0  0  0  0  0  0  0  0  0  0  0  0
   -7.0299  -13.4882  -28.8859 N   0  0  0  0  0  0  0  0  0  0  0  0
   -6.8426   -8.7490  -20.8270 C   0  0  1  0  0  0  0  0  0  0  0  0
   -7.0032   -7.3650  -20.6275 O   0  0  0  0  0  0  0  0  0  0  0  0
   -3.5913   -6.9334  -23.7505 C   0  0  0  0  0  0  0  0  0  0  0  0
   -4.6489   -3.4422  -23.0405 C   0  0  0  0  0  0  0  0  0  0  0  0
  1  2  1  1  0  0  0
  1  6  1  0  0  0  0
  1 21  1  0  0  0  0
  3  4  1  1  0  0  0
  3  8  1  0  0  0  0
  3 28  1  0  0  0  0
  5  9  1  0  0  0  0
  5 25  1  0  0  0  0
  5 29  1  6  0  0  0
  6  7  1  1  0  0  0
  6 11  1  0  0  0  0
  8 12  1  0  0  0  0
  9 10  1  6  0  0  0
  9 14  1  0  0  0  0
 11 16  1  0  0  0  0
 12 13  1  1  0  0  0
 12 17  1  0  0  0  0
 14 15  1  6  0  0  0
 14 18  1  0  0  0  0
 15 31  1  0  0  0  0
 16 20  1  0  0  0  0
 17  2  1  6  0  0  0
 17 22  1  0  0  0  0
 18 19  1  1  0  0  0
 18 24  1  0  0  0  0
 18 30  1  0  0  0  0
 20 21  1  0  0  0  0
 20 26  1  6  0  0  0
 22 23  1  6  0  0  0
 22 28  1  0  0  0  0
 24 25  1  0  0  0  0
 26 27  1  0  0  0  0
 28 29  1  6  0  0  0
M  END
>  <CHROM.1>
-114.47490889,135.31111669,57.61441639,-171.40698951,36.54611951,114.51381460
-6.42716717,-8.79070216,-23.04511947,-2.13053901,1.11416714,1.19906694

>  <Name>
ligand

>  <RI>
0

>  <Rbt.Current_Directory>
/home/itssahil/PROJECTS/Mol_Feturizer/New_Systems/rnas/4F8U

>  <Rbt.Executable>
rbdock ($Id: //depot/dev/client3/rdock/2013.1/src/exe/rbdock.cxx#4 $)

>  <Rbt.Library>
libRbt.so (2013.1, Build901 2013/11/27)

>  <Rbt.Parameter_File>
/export/apps/rDock/src/rDock_2013.1_src/data/scripts/dock_solv.prm

>  <Rbt.Receptor>
prm/blind_docking_80.prm

>  <SCORE>
8.63182

>  <SCORE.INTER>
-6.38408

>  <SCORE.INTER.CONST>
1

>  <SCORE.INTER.POLAR>
0

>  <SCORE.INTER.ROT>
6

>  <SCORE.INTER.SOLV>
27.1246

>  <SCORE.INTER.VDW>
-20.8976

>  <SCORE.INTER.norm>
-0.205938

>  <SCORE.INTRA>
8.36644

>  <SCORE.INTRA.DIHEDRAL>
4.75854

>  <SCORE.INTRA.DIHEDRAL.0>
18.77

>  <SCORE.INTRA.POLAR>
0

>  <SCORE.INTRA.POLAR.0>
0

>  <SCORE.INTRA.REPUL>
0

>  <SCORE.INTRA.REPUL.0>
0

>  <SCORE.INTRA.SOLV>
1.55356

>  <SCORE.INTRA.SOLV.lig_0>
-77.2465

>  <SCORE.INTRA.VDW>
5.21039

>  <SCORE.INTRA.VDW.0>
-4.16072

>  <SCORE.INTRA.norm>
0.269885

>  <SCORE.RESTR>
6.64945

>  <SCORE.RESTR.CAVITY>
6.64945

>  <SCORE.RESTR.norm>
0.214498

>  <SCORE.SYSTEM>
0

>  <SCORE.SYSTEM.CONST>
0

>  <SCORE.SYSTEM.DIHEDRAL>
0

>  <SCORE.SYSTEM.SOLV>
0

>  <SCORE.SYSTEM.norm>
0

>  <SCORE.heavy>
31

>  <SCORE.norm>
0.278446

>  <RMSD>
10.054

$$$$
ligand
 OpenBabel11021811493D
libRbt.so/2013.1/901 2013/11/27
 31 33  0  0  0  0  0  0  0  0999 V2000
   -6.4780  -10.5110  -25.0400 C   0  0  2  0  0  0  0  0  0  0  0  0
   -7.3070  -10.9244  -23.9452 O   0  0  0  0  0  0  0  0  0  0  0  0
   -7.8681   -9.4839  -19.9536 C   0  0  2  0  0  0  0  0  0  0  0  0
   -7.6031   -9.1626  -18.5844 N   0  0  0  0  0  0  0  0  0  0  0  0
   -6.0058   -6.4574  -20.0972 C   0  0  2  0  0  0  0  0  0  0  0  0
   -7.3310   -9.4985  -25.8821 C   0  0  2  0  0  0  0  0  0  0  0  0
   -7.7483   -8.3846  -25.0377 N   0  0  0  0  0  0  0  0  0  0  0  0
   -7.7118  -11.0409  -20.1514 C   0  0  0  0  0  0  0  0  0  0  0  0
   -5.9715   -5.1936  -21.0109 C   0  0  2  0  0  0  0  0  0  0  0  0
   -7.2512   -4.5844  -21.0046 O   0  0  0  0  0  0  0  0  0  0  0  0
   -8.5773  -10.2312  -26.4900 C   0  0  0  0  0  0  0  0  0  0  0  0
   -8.0142  -11.3976  -21.6709 C   0  0  2  0  0  0  0  0  0  0  0  0
   -7.8688  -12.8586  -21.8692 N   0  0  0  0  0  0  0  0  0  0  0  0
   -5.5814   -5.6851  -22.4746 C   0  0  1  0  0  0  0  0  0  0  0  0
   -5.5576   -4.5286  -23.4333 N   0  0  0  0  0  0  0  0  0  0  0  0
   -8.1609  -11.5772  -27.1506 C   0  0  0  0  0  0  0  0  0  0  0  0
   -7.0014  -10.6082  -22.6143 C   0  0  2  0  0  0  0  0  0  0  0  0
   -4.1066   -6.3750  -22.4317 C   0  0  1  0  0  0  0  0  0  0  0  0
   -3.1097   -5.4727  -21.9924 O   0  0  0  0  0  0  0  0  0  0  0  0
   -7.0027  -12.1742  -26.8317 C   0  0  2  0  0  0  0  0  0  0  0  0
   -6.0703  -11.6324  -25.8798 O   0  0  0  0  0  0  0  0  0  0  0  0
   -7.1644   -9.0498  -22.3687 C   0  0  2  0  0  0  0  0  0  0  0  0
   -6.2410   -8.3289  -23.1943 O   0  0  0  0  0  0  0  0  0  0  0  0
   -4.1296   -7.5819  -21.4341 C   0  0  0  0  0  0  0  0  0  0  0  0
   -4.6543   -7.1242  -20.0836 O   0  0  0  0  0  0  0  0  0  0  0  0
   -6.5701  -13.5104  -27.4791 C   0  0  0  0  0  0  0  0  0  0  0  0
   -6.1516  -13.2722  -28.8533 N   0  0  0  0  0  0  0  0  0  0  0  0
   -6.8647   -8.7145  -20.8629 C   0  0  1  0  0  0  0  0  0  0  0  0
   -7.0244   -7.3276  -20.6836 O   0  0  0  0  0  0  0  0  0  0  0  0
   -3.5810   -6.9106  -23.7738 C   0  0  0  0  0  0  0  0  0  0  0  0
   -4.6211   -3.4340  -23.1156 C   0  0  0  0  0  0  0  0  0  0  0  0
  1  2  1  1  0  0  0
  1  6  1  0  0  0  0
  1 21  1  0  0  0  0
  3  4  1  1  0  0  0
  3  8  1  0  0  0  0
  3 28  1  0  0  0  0
  5  9  1  0  0  0  0
  5 25  1  0  0  0  0
  5 29  1  6  0  0  0
  6  7  1  1  0  0  0
  6 11  1  0  0  0  0
  8 12  1  0  0  0  0
  9 10  1  6  0  0  0
  9 14  1  0  0  0  0
 11 16  1  0  0  0  0
 12 13  1  1  0  0  0
 12 17  1  0  0  0  0
 14 15  1  6  0  0  0
 14 18  1  0  0  0  0
 15 31  1  0  0  0  0
 16 20  1  0  0  0  0
 17  2  1  6  0  0  0
 17 22  1  0  0  0  0
 18 19  1  1  0  0  0
 18 24  1  0  0  0  0
 18 30  1  0  0  0  0
 20 21  1  0  0  0  0
 20 26  1  6  0  0  0
 22 23  1  6  0  0  0
 22 28  1  0  0  0  0
 24 25  1  0  0  0  0
 26 27  1  0  0  0  0
 28 29  1  6  0  0  0
M  END
>  <CHROM.1>
-114.17384162,135.87898259,59.30740568,-172.06604470,73.69609932,114.13399928
-6.40420301,-8.76930709,-23.07196894,-2.06201437,1.09905811,1.12531614

>  <Name>
ligand

>  <RI>
0

>  <Rbt.Current_Directory>
/home/itssahil/PROJECTS/Mol_Feturizer/New_Systems/rnas/4F8U

>  <Rbt.Executable>
rbdock ($Id: //depot/dev/client3/rdock/2013.1/src/exe/rbdock.cxx#4 $)

>  <Rbt.Library>
libRbt.so (2013.1, Build901 2013/11/27)

>  <Rbt.Parameter_File>
/export/apps/rDock/src/rDock_2013.1_src/data/scripts/dock_solv.prm

>  <Rbt.Receptor>
prm/blind_docking_80.prm

>  <SCORE>
9.41305

>  <SCORE.INTER>
-5.09088

>  <SCORE.INTER.CONST>
1

>  <SCORE.INTER.POLAR>
0

>  <SCORE.INTER.ROT>
6

>  <SCORE.INTER.SOLV>
31.8678

>  <SCORE.INTER.VDW>
-21.6165

>  <SCORE.INTER.norm>
-0.164222

>  <SCORE.INTRA>
8.0336

>  <SCORE.INTRA.DIHEDRAL>
4.99031

>  <SCORE.INTRA.DIHEDRAL.0>
18.77

>  <SCORE.INTRA.POLAR>
0

>  <SCORE.INTRA.POLAR.0>
0

>  <SCORE.INTRA.REPUL>
0

>  <SCORE.INTRA.REPUL.0>
0

>  <SCORE.INTRA.SOLV>
1.36909

>  <SCORE.INTRA.SOLV.lig_0>
-77.2465

>  <SCORE.INTRA.VDW>
4.8539

>  <SCORE.INTRA.VDW.0>
-4.16072

>  <SCORE.INTRA.norm>
0.259149

>  <SCORE.RESTR>
6.47032

>  <SCORE.RESTR.CAVITY>
6.47032

>  <SCORE.RESTR.norm>
0.20872

>  <SCORE.SYSTEM>
0

>  <SCORE.SYSTEM.CONST>
0

>  <SCORE.SYSTEM.DIHEDRAL>
0

>  <SCORE.SYSTEM.SOLV>
0

>  <SCORE.SYSTEM.norm>
0

>  <SCORE.heavy>
31

>  <SCORE.norm>
0.303647

>  <RMSD>
10.082

$$$$
ligand
 OpenBabel11021811493D
libRbt.so/2013.1/901 2013/11/27
 31 33  0  0  0  0  0  0  0  0999 V2000
   -6.4919  -10.4652  -25.0391 C   0  0  2  0  0  0  0  0  0  0  0  0
   -7.3103  -10.8849  -23.9388 O   0  0  0  0  0  0  0  0  0  0  0  0
   -7.8027   -9.5216  -19.9111 C   0  0  2  0  0  0  0  0  0  0  0  0
   -7.5138   -9.2256  -18.5411 N   0  0  0  0  0  0  0  0  0  0  0  0
   -5.9467   -6.4866  -20.0388 C   0  0  2  0  0  0  0  0  0  0  0  0
   -7.3529   -9.4475  -25.8669 C   0  0  2  0  0  0  0  0  0  0  0  0
   -7.7616   -8.3386  -25.0119 N   0  0  0  0  0  0  0  0  0  0  0  0
   -7.6466  -11.0742  -20.1412 C   0  0  0  0  0  0  0  0  0  0  0  0
   -5.9270   -5.2142  -20.9409 C   0  0  2  0  0  0  0  0  0  0  0  0
   -7.2055   -4.6033  -20.9056 O   0  0  0  0  0  0  0  0  0  0  0  0
   -8.6053  -10.1764  -26.4669 C   0  0  0  0  0  0  0  0  0  0  0  0
   -7.9755  -11.4028  -21.6615 C   0  0  2  0  0  0  0  0  0  0  0  0
   -7.8304  -12.8595  -21.8901 N   0  0  0  0  0  0  0  0  0  0  0  0
   -5.5640   -5.6921  -22.4160 C   0  0  1  0  0  0  0  0  0  0  0  0
   -5.5557   -4.5264  -23.3639 N   0  0  0  0  0  0  0  0  0  0  0  0
   -8.1957  -11.5185  -27.1395 C   0  0  0  0  0  0  0  0  0  0  0  0
   -6.9816  -10.5932  -22.6078 C   0  0  2  0  0  0  0  0  0  0  0  0
   -4.0897   -6.3844  -22.4063 C   0  0  1  0  0  0  0  0  0  0  0  0
   -3.0838   -5.4876  -21.9764 O   0  0  0  0  0  0  0  0  0  0  0  0
   -7.0345  -12.1176  -26.8355 C   0  0  2  0  0  0  0  0  0  0  0  0
   -6.0928  -11.5817  -25.8895 O   0  0  0  0  0  0  0  0  0  0  0  0
   -7.1436   -9.0401  -22.3298 C   0  0  2  0  0  0  0  0  0  0  0  0
   -6.2368   -8.3014  -23.1581 O   0  0  0  0  0  0  0  0  0  0  0  0
   -4.0967   -7.6008  -21.4201 C   0  0  0  0  0  0  0  0  0  0  0  0
   -4.5962   -7.1554  -20.0560 O   0  0  0  0  0  0  0  0  0  0  0  0
   -6.6086  -13.4500  -27.4950 C   0  0  0  0  0  0  0  0  0  0  0  0
   -7.1270  -13.5076  -28.8545 N   0  0  0  0  0  0  0  0  0  0  0  0
   -6.8176   -8.7326  -20.8235 C   0  0  1  0  0  0  0  0  0  0  0  0
   -6.9771   -7.3498  -20.6152 O   0  0  0  0  0  0  0  0  0  0  0  0
   -3.5892   -6.9077  -23.7628 C   0  0  0  0  0  0  0  0  0  0  0  0
   -6.8548   -4.1547  -23.9559 C   0  0  0  0  0  0  0  0  0  0  0  0
  1  2  1  1  0  0  0
  1  6  1  0  0  0  0
  1 21  1  0  0  0  0
  3  4  1  1  0  0  0
  3  8  1  0  0  0  0
  3 28  1  0  0  0  0
  5  9  1  0  0  0  0
  5 25  1  0  0  0  0
  5 29  1  6  0  0  0
  6  7  1  1  0  0  0
  6 11  1  0  0  0  0
  8 12  1  0  0  0  0
  9 10  1  6  0  0  0
  9 14  1  0  0  0  0
 11 16  1  0  0  0  0
 12 13  1  1  0  0  0
 12 17  1  0  0  0  0
 14 15  1  6  0  0  0
 14 18  1  0  0  0  0
 15 31  1  0  0  0  0
 16 20  1  0  0  0  0
 17  2  1  6  0  0  0
 17 22  1  0  0  0  0
 18 19  1  1  0  0  0
 18 24  1  0  0  0  0
 18 30  1  0  0  0  0
 20 21  1  0  0  0  0
 20 26  1  6  0  0  0
 22 23  1  6  0  0  0
 22 28  1  0  0  0  0
 24 25  1  0  0  0  0
 26 27  1  0  0  0  0
 28 29  1  6  0  0  0
M  END
>  <CHROM.1>
-115.11181193,135.18331893,-85.82042732,-171.15221460,32.20209674,114.55487987
-6.49541764,-8.79545676,-23.07576773,-2.17342543,1.18459849,1.28088143

>  <Name>
ligand

>  <RI>
0

>  <Rbt.Current_Directory>
/home/itssahil/PROJECTS/Mol_Feturizer/New_Systems/rnas/4F8U

>  <Rbt.Executable>
rbdock ($Id: //depot/dev/client3/rdock/2013.1/src/exe/rbdock.cxx#4 $)

>  <Rbt.Library>
libRbt.so (2013.1, Build901 2013/11/27)

>  <Rbt.Parameter_File>
/export/apps/rDock/src/rDock_2013.1_src/data/scripts/dock_solv.prm

>  <Rbt.Receptor>
prm/blind_docking_80.prm

>  <SCORE>
7.07179

>  <SCORE.INTER>
-6.38637

>  <SCORE.INTER.CONST>
1

>  <SCORE.INTER.POLAR>
0

>  <SCORE.INTER.ROT>
6

>  <SCORE.INTER.SOLV>
26.3588

>  <SCORE.INTER.VDW>
-20.6439

>  <SCORE.INTER.norm>
-0.206012

>  <SCORE.INTRA>
6.44992

>  <SCORE.INTRA.DIHEDRAL>
5.08427

>  <SCORE.INTRA.DIHEDRAL.0>
18.77

>  <SCORE.INTRA.POLAR>
0

>  <SCORE.INTRA.POLAR.0>
0

>  <SCORE.INTRA.REPUL>
0

>  <SCORE.INTRA.REPUL.0>
0

>  <SCORE.INTRA.SOLV>
1.60593

>  <SCORE.INTRA.SOLV.lig_0>
-77.2465

>  <SCORE.INTRA.VDW>
3.10482

>  <SCORE.INTRA.VDW.0>
-4.16072

>  <SCORE.INTRA.norm>
0.208062

>  <SCORE.RESTR>
7.00824

>  <SCORE.RESTR.CAVITY>
7.00824

>  <SCORE.RESTR.norm>
0.226072

>  <SCORE.SYSTEM>
0

>  <SCORE.SYSTEM.CONST>
0

>  <SCORE.SYSTEM.DIHEDRAL>
0

>  <SCORE.SYSTEM.SOLV>
0

>  <SCORE.SYSTEM.norm>
0

>  <SCORE.heavy>
31

>  <SCORE.norm>
0.228122

>  <RMSD>
10.092

$$$$
ligand
 OpenBabel11021811493D
libRbt.so/2013.1/901 2013/11/27
 31 33  0  0  0  0  0  0  0  0999 V2000
   -6.4904  -10.4668  -25.0204 C   0  0  2  0  0  0  0  0  0  0  0  0
   -7.3109  -10.8924  -23.9240 O   0  0  0  0  0  0  0  0  0  0  0  0
   -7.8335   -9.5109  -19.9063 C   0  0  2  0  0  0  0  0  0  0  0  0
   -7.5552   -9.2094  -18.5353 N   0  0  0  0  0  0  0  0  0  0  0  0
   -5.9715   -6.4786  -20.0347 C   0  0  2  0  0  0  0  0  0  0  0  0
   -7.3510   -9.4476  -25.8465 C   0  0  2  0  0  0  0  0  0  0  0  0
   -7.7643   -8.3428  -24.9884 N   0  0  0  0  0  0  0  0  0  0  0  0
   -7.6777  -11.0648  -20.1284 C   0  0  0  0  0  0  0  0  0  0  0  0
   -5.9606   -5.2007  -20.9293 C   0  0  2  0  0  0  0  0  0  0  0  0
   -7.2419   -4.5963  -20.8868 O   0  0  0  0  0  0  0  0  0  0  0  0
   -8.6004  -10.1765  -26.4528 C   0  0  0  0  0  0  0  0  0  0  0  0
   -7.9949  -11.3995  -21.6498 C   0  0  2  0  0  0  0  0  0  0  0  0
   -7.8500  -12.8573  -21.8710 N   0  0  0  0  0  0  0  0  0  0  0  0
   -5.5996   -5.6682  -22.4083 C   0  0  1  0  0  0  0  0  0  0  0  0
   -5.5997   -4.4970  -23.3492 N   0  0  0  0  0  0  0  0  0  0  0  0
   -8.1864  -11.5152  -27.1295 C   0  0  0  0  0  0  0  0  0  0  0  0
   -6.9924  -10.5953  -22.5917 C   0  0  2  0  0  0  0  0  0  0  0  0
   -4.1220   -6.3534  -22.4068 C   0  0  1  0  0  0  0  0  0  0  0  0
   -3.1191   -5.4543  -21.9746 O   0  0  0  0  0  0  0  0  0  0  0  0
   -7.0249  -12.1133  -26.8247 C   0  0  2  0  0  0  0  0  0  0  0  0
   -6.0868  -11.5792  -25.8741 O   0  0  0  0  0  0  0  0  0  0  0  0
   -7.1545   -9.0408  -22.3217 C   0  0  2  0  0  0  0  0  0  0  0  0
   -6.2401   -8.3070  -23.1459 O   0  0  0  0  0  0  0  0  0  0  0  0
   -4.1202   -7.5756  -21.4278 C   0  0  0  0  0  0  0  0  0  0  0  0
   -4.6179   -7.1406  -20.0597 O   0  0  0  0  0  0  0  0  0  0  0  0
   -6.5946  -13.4423  -27.4882 C   0  0  0  0  0  0  0  0  0  0  0  0
   -7.0781  -13.4795  -28.8612 N   0  0  0  0  0  0  0  0  0  0  0  0
   -6.8401   -8.7272  -20.8142 C   0  0  1  0  0  0  0  0  0  0  0  0
   -6.9994   -7.3433  -20.6132 O   0  0  0  0  0  0  0  0  0  0  0  0
   -3.6228   -6.8663  -23.7678 C   0  0  0  0  0  0  0  0  0  0  0  0
   -6.8816   -4.1890  -24.0112 C   0  0  0  0  0  0  0  0  0  0  0  0
  1  2  1  1  0  0  0
  1  6  1  0  0  0  0
  1 21  1  0  0  0  0
  3  4  1  1  0  0  0
  3  8  1  0  0  0  0
  3 28  1  0  0  0  0
  5  9  1  0  0  0  0
  5 25  1  0  0  0  0
  5 29  1  6  0  0  0
  6  7  1  1  0  0  0
  6 11  1  0  0  0  0
  8 12  1  0  0  0  0
  9 10  1  6  0  0  0
  9 14  1  0  0  0  0
 11 16  1  0  0  0  0
 12 13  1  1  0  0  0
 12 17  1  0  0  0  0
 14 15  1  6  0  0  0
 14 18  1  0  0  0  0
 15 31  1  0  0  0  0
 16 20  1  0  0  0  0
 17  2  1  6  0  0  0
 17 22  1  0  0  0  0
 18 19  1  1  0  0  0
 18 24  1  0  0  0  0
 18 30  1  0  0  0  0
 20 21  1  0  0  0  0
 20 26  1  6  0  0  0
 22 23  1  6  0  0  0
 22 28  1  0  0  0  0
 24 25  1  0  0  0  0
 26 27  1  0  0  0  0
 28 29  1  6  0  0  0
M  END
>  <CHROM.1>
-114.54988355,136.03466082,-90.13051636,-171.80409890,33.74389684,114.67699842
-6.51047710,-8.78682908,-23.06897910,-2.15596151,1.18449043,1.26259409

>  <Name>
ligand

>  <RI>
0

>  <Rbt.Current_Directory>
/home/itssahil/PROJECTS/Mol_Feturizer/New_Systems/rnas/4F8U

>  <Rbt.Executable>
rbdock ($Id: //depot/dev/client3/rdock/2013.1/src/exe/rbdock.cxx#4 $)

>  <Rbt.Library>
libRbt.so (2013.1, Build901 2013/11/27)

>  <Rbt.Parameter_File>
/export/apps/rDock/src/rDock_2013.1_src/data/scripts/dock_solv.prm

>  <Rbt.Receptor>
prm/blind_docking_80.prm

>  <SCORE>
7.05856

>  <SCORE.INTER>
-6.34497

>  <SCORE.INTER.CONST>
1

>  <SCORE.INTER.POLAR>
0

>  <SCORE.INTER.ROT>
6

>  <SCORE.INTER.SOLV>
26.7754

>  <SCORE.INTER.VDW>
-20.7551

>  <SCORE.INTER.norm>
-0.204677

>  <SCORE.INTRA>
6.44549

>  <SCORE.INTRA.DIHEDRAL>
5.10328

>  <SCORE.INTRA.DIHEDRAL.0>
18.77

>  <SCORE.INTRA.POLAR>
0

>  <SCORE.INTRA.POLAR.0>
0

>  <SCORE.INTRA.REPUL>
0

>  <SCORE.INTRA.REPUL.0>
0

>  <SCORE.INTRA.SOLV>
1.64444

>  <SCORE.INTRA.SOLV.lig_0>
-77.2465

>  <SCORE.INTRA.VDW>
3.07163

>  <SCORE.INTRA.VDW.0>
-4.16072

>  <SCORE.INTRA.norm>
0.207919

>  <SCORE.RESTR>
6.95804

>  <SCORE.RESTR.CAVITY>
6.95804

>  <SCORE.RESTR.norm>
0.224453

>  <SCORE.SYSTEM>
0

>  <SCORE.SYSTEM.CONST>
0

>  <SCORE.SYSTEM.DIHEDRAL>
0

>  <SCORE.SYSTEM.SOLV>
0

>  <SCORE.SYSTEM.norm>
0

>  <SCORE.heavy>
31

>  <SCORE.norm>
0.227696

>  <RMSD>
10.096

$$$$
ligand
 OpenBabel11021811493D
libRbt.so/2013.1/901 2013/11/27
 31 33  0  0  0  0  0  0  0  0999 V2000
   -6.7997   -9.1172  -26.6132 C   0  0  2  0  0  0  0  0  0  0  0  0
   -7.5597   -9.3942  -25.4290 O   0  0  0  0  0  0  0  0  0  0  0  0
   -7.3256  -11.4786  -21.6975 C   0  0  2  0  0  0  0  0  0  0  0  0
   -6.7786  -12.1023  -20.5314 N   0  0  0  0  0  0  0  0  0  0  0  0
   -6.6136   -8.6954  -19.5437 C   0  0  2  0  0  0  0  0  0  0  0  0
   -7.7843   -8.4209  -27.6171 C   0  0  2  0  0  0  0  0  0  0  0  0
   -8.3393   -7.2173  -27.0078 N   0  0  0  0  0  0  0  0  0  0  0  0
   -6.7651  -12.2102  -22.9776 C   0  0  0  0  0  0  0  0  0  0  0  0
   -7.1102   -7.2182  -19.4775 C   0  0  2  0  0  0  0  0  0  0  0  0
   -8.4832   -7.2080  -19.1259 O   0  0  0  0  0  0  0  0  0  0  0  0
   -8.9272   -9.4177  -28.0174 C   0  0  0  0  0  0  0  0  0  0  0  0
   -7.3796  -11.5216  -24.2720 C   0  0  2  0  0  0  0  0  0  0  0  0
   -6.8585  -12.2000  -25.4817 N   0  0  0  0  0  0  0  0  0  0  0  0
   -6.8868   -6.5844  -20.9213 C   0  0  1  0  0  0  0  0  0  0  0  0
   -7.3719   -5.1629  -20.9570 N   0  0  0  0  0  0  0  0  0  0  0  0
   -8.3413  -10.8078  -28.3989 C   0  0  0  0  0  0  0  0  0  0  0  0
   -6.9858   -9.9778  -24.2911 C   0  0  2  0  0  0  0  0  0  0  0  0
   -5.2982   -6.6168  -21.2795 C   0  0  1  0  0  0  0  0  0  0  0  0
   -4.5286   -5.8762  -20.3521 O   0  0  0  0  0  0  0  0  0  0  0  0
   -7.1124  -11.1720  -28.0030 C   0  0  2  0  0  0  0  0  0  0  0  0
   -6.2533  -10.3284  -27.2161 O   0  0  0  0  0  0  0  0  0  0  0  0
   -7.5387   -9.2807  -22.9781 C   0  0  2  0  0  0  0  0  0  0  0  0
   -7.1697   -7.8958  -22.9715 O   0  0  0  0  0  0  0  0  0  0  0  0
   -4.7908   -8.0979  -21.2444 C   0  0  0  0  0  0  0  0  0  0  0  0
   -5.1531   -8.7353  -19.9136 O   0  0  0  0  0  0  0  0  0  0  0  0
   -6.5116  -12.5479  -28.3742 C   0  0  0  0  0  0  0  0  0  0  0  0
   -6.0425  -12.5181  -29.7524 N   0  0  0  0  0  0  0  0  0  0  0  0
   -6.9241   -9.9739  -21.7088 C   0  0  1  0  0  0  0  0  0  0  0  0
   -7.4410   -9.3331  -20.5672 O   0  0  0  0  0  0  0  0  0  0  0  0
   -4.9116   -6.0411  -22.6519 C   0  0  0  0  0  0  0  0  0  0  0  0
   -7.7441   -4.6313  -22.2818 C   0  0  0  0  0  0  0  0  0  0  0  0
  1  2  1  1  0  0  0
  1  6  1  0  0  0  0
  1 21  1  0  0  0  0
  3  4  1  1  0  0  0
  3  8  1  0  0  0  0
  3 28  1  0  0  0  0
  5  9  1  0  0  0  0
  5 25  1  0  0  0  0
  5 29  1  6  0  0  0
  6  7  1  1  0  0  0
  6 11  1  0  0  0  0
  8 12  1  0  0  0  0
  9 10  1  6  0  0  0
  9 14  1  0  0  0  0
 11 16  1  0  0  0  0
 12 13  1  6  0  0  0
 12 17  1  0  0  0  0
 14 15  1  1  0  0  0
 14 18  1  0  0  0  0
 15 31  1  0  0  0  0
 16 20  1  0  0  0  0
 17  2  1  6  0  0  0
 17 22  1  0  0  0  0
 18 19  1  1  0  0  0
 18 24  1  0  0  0  0
 18 30  1  0  0  0  0
 20 21  1  0  0  0  0
 20 26  1  6  0  0  0
 22 23  1  6  0  0  0
 22 28  1  0  0  0  0
 24 25  1  0  0  0  0
 26 27  1  0  0  0  0
 28 29  1  1  0  0  0
M  END
>  <CHROM.1>
-177.75009642,122.99999989,-155.93448572,-101.60455363,78.06546436,118.52201277
-6.88564353,-9.05385087,-23.56926505,2.36408997,1.44425006,-2.82866751

>  <Name>
ligand

>  <RI>
0

>  <Rbt.Current_Directory>
/home/itssahil/PROJECTS/Mol_Feturizer/New_Systems/rnas/4F8U

>  <Rbt.Executable>
rbdock ($Id: //depot/dev/client3/rdock/2013.1/src/exe/rbdock.cxx#4 $)

>  <Rbt.Library>
libRbt.so (2013.1, Build901 2013/11/27)

>  <Rbt.Parameter_File>
/export/apps/rDock/src/rDock_2013.1_src/data/scripts/dock_solv.prm

>  <Rbt.Receptor>
prm/blind_docking_100.prm

>  <SCORE>
29.778

>  <SCORE.INTER>
4.68662

>  <SCORE.INTER.CONST>
1

>  <SCORE.INTER.POLAR>
0

>  <SCORE.INTER.ROT>
6

>  <SCORE.INTER.SOLV>
24.3619

>  <SCORE.INTER.VDW>
-12.5962

>  <SCORE.INTER.norm>
0.151181

>  <SCORE.INTRA>
9.47657

>  <SCORE.INTRA.DIHEDRAL>
4.87053

>  <SCORE.INTRA.DIHEDRAL.0>
18.77

>  <SCORE.INTRA.POLAR>
0

>  <SCORE.INTRA.POLAR.0>
0

>  <SCORE.INTRA.REPUL>
0

>  <SCORE.INTRA.REPUL.0>
0

>  <SCORE.INTRA.SOLV>
3.08238

>  <SCORE.INTRA.SOLV.lig_0>
-77.2465

>  <SCORE.INTRA.VDW>
5.50011

>  <SCORE.INTRA.VDW.0>
-4.16072

>  <SCORE.INTRA.norm>
0.305696

>  <SCORE.RESTR>
15.6148

>  <SCORE.RESTR.CAVITY>
15.6148

>  <SCORE.RESTR.norm>
0.503702

>  <SCORE.SYSTEM>
0

>  <SCORE.SYSTEM.CONST>
0

>  <SCORE.SYSTEM.DIHEDRAL>
0

>  <SCORE.SYSTEM.SOLV>
0

>  <SCORE.SYSTEM.norm>
0

>  <SCORE.heavy>
31

>  <SCORE.norm>
0.960579

>  <RMSD>
10.098

$$$$
ligand
 OpenBabel11021811493D
libRbt.so/2013.1/901 2013/11/27
 31 33  0  0  0  0  0  0  0  0999 V2000
   -5.2095  -12.4480   -9.8455 C   0  0  2  0  0  0  0  0  0  0  0  0
   -6.2370  -11.7641  -10.5757 O   0  0  0  0  0  0  0  0  0  0  0  0
  -10.1250  -10.0985   -9.9176 C   0  0  2  0  0  0  0  0  0  0  0  0
  -11.2081   -9.4050   -9.2901 N   0  0  0  0  0  0  0  0  0  0  0  0
   -8.9547   -6.6620  -10.8062 C   0  0  2  0  0  0  0  0  0  0  0  0
   -4.1007  -12.8237  -10.8902 C   0  0  2  0  0  0  0  0  0  0  0  0
   -3.6163  -11.6162  -11.5500 N   0  0  0  0  0  0  0  0  0  0  0  0
   -9.6756  -11.2905   -8.9875 C   0  0  0  0  0  0  0  0  0  0  0  0
  -10.2005   -5.9499  -10.1946 C   0  0  2  0  0  0  0  0  0  0  0  0
  -10.5241   -6.5654   -8.9596 O   0  0  0  0  0  0  0  0  0  0  0  0
   -4.6806  -13.8347  -11.9396 C   0  0  0  0  0  0  0  0  0  0  0  0
   -8.4777  -12.0650   -9.6893 C   0  0  2  0  0  0  0  0  0  0  0  0
   -8.0457  -13.1868   -8.8233 N   0  0  0  0  0  0  0  0  0  0  0  0
  -11.3909   -6.1097  -11.2404 C   0  0  1  0  0  0  0  0  0  0  0  0
  -12.6477   -5.4771  -10.7135 N   0  0  0  0  0  0  0  0  0  0  0  0
   -5.4518  -14.9863  -11.2319 C   0  0  0  0  0  0  0  0  0  0  0  0
   -7.2666  -11.0596   -9.9365 C   0  0  2  0  0  0  0  0  0  0  0  0
  -10.9741   -5.3874  -12.6394 C   0  0  1  0  0  0  0  0  0  0  0  0
  -10.7220   -4.0058  -12.4704 O   0  0  0  0  0  0  0  0  0  0  0  0
   -5.8987  -14.8480   -9.9746 C   0  0  2  0  0  0  0  0  0  0  0  0
   -5.7044  -13.6560   -9.1935 O   0  0  0  0  0  0  0  0  0  0  0  0
   -7.7604   -9.8603  -10.8495 C   0  0  2  0  0  0  0  0  0  0  0  0
   -6.6859   -8.9355  -11.0593 O   0  0  0  0  0  0  0  0  0  0  0  0
   -9.6651   -6.0465  -13.1912 C   0  0  0  0  0  0  0  0  0  0  0  0
   -8.5865   -6.0244  -12.1212 O   0  0  0  0  0  0  0  0  0  0  0  0
   -6.6646  -15.9816   -9.2534 C   0  0  0  0  0  0  0  0  0  0  0  0
   -8.0875  -15.6727   -9.2355 N   0  0  0  0  0  0  0  0  0  0  0  0
   -8.9452   -9.1072  -10.1432 C   0  0  1  0  0  0  0  0  0  0  0  0
   -9.3582   -8.0565  -10.9837 O   0  0  0  0  0  0  0  0  0  0  0  0
  -12.0209   -5.4561  -13.7637 C   0  0  0  0  0  0  0  0  0  0  0  0
  -12.4717   -4.3156   -9.8213 C   0  0  0  0  0  0  0  0  0  0  0  0
  1  2  1  6  0  0  0
  1  6  1  0  0  0  0
  1 21  1  0  0  0  0
  3  4  1  1  0  0  0
  3  8  1  0  0  0  0
  3 28  1  0  0  0  0
  5  9  1  0  0  0  0
  5 25  1  0  0  0  0
  5 29  1  6  0  0  0
  6  7  1  6  0  0  0
  6 11  1  0  0  0  0
  8 12  1  0  0  0  0
  9 10  1  1  0  0  0
  9 14  1  0  0  0  0
 11 16  1  0  0  0  0
 12 13  1  1  0  0  0
 12 17  1  0  0  0  0
 14 15  1  1  0  0  0
 14 18  1  0  0  0  0
 15 31  1  0  0  0  0
 16 20  1  0  0  0  0
 17  2  1  6  0  0  0
 17 22  1  0  0  0  0
 18 19  1  1  0  0  0
 18 24  1  0  0  0  0
 18 30  1  0  0  0  0
 20 21  1  0  0  0  0
 20 26  1  1  0  0  0
 22 23  1  1  0  0  0
 22 28  1  0  0  0  0
 24 25  1  0  0  0  0
 26 27  1  0  0  0  0
 28 29  1  6  0  0  0
M  END
>  <CHROM.1>
-167.66768362,-104.06028341,30.57837774,-89.87398162,-103.20611041,141.28421785
-8.44144544,-9.71128693,-10.63083822,-0.94834903,0.47950237,-0.47262754

>  <Name>
ligand

>  <RI>
0

>  <Rbt.Current_Directory>
/home/itssahil/PROJECTS/Mol_Feturizer/New_Systems/rnas/4F8U

>  <Rbt.Executable>
rbdock ($Id: //depot/dev/client3/rdock/2013.1/src/exe/rbdock.cxx#4 $)

>  <Rbt.Library>
libRbt.so (2013.1, Build901 2013/11/27)

>  <Rbt.Parameter_File>
/export/apps/rDock/src/rDock_2013.1_src/data/scripts/dock_solv.prm

>  <Rbt.Receptor>
prm/blind_docking_20.prm

>  <SCORE>
15.8305

>  <SCORE.INTER>
2.68409

>  <SCORE.INTER.CONST>
1

>  <SCORE.INTER.POLAR>
0

>  <SCORE.INTER.ROT>
6

>  <SCORE.INTER.SOLV>
12.3142

>  <SCORE.INTER.VDW>
-9.91535

>  <SCORE.INTER.norm>
0.0865834

>  <SCORE.INTRA>
6.48092

>  <SCORE.INTRA.DIHEDRAL>
-0.658631

>  <SCORE.INTRA.DIHEDRAL.0>
18.77

>  <SCORE.INTRA.POLAR>
0

>  <SCORE.INTRA.POLAR.0>
0

>  <SCORE.INTRA.REPUL>
0

>  <SCORE.INTRA.REPUL.0>
0

>  <SCORE.INTRA.SOLV>
5.81751

>  <SCORE.INTRA.SOLV.lig_0>
-77.2465

>  <SCORE.INTRA.VDW>
3.90148

>  <SCORE.INTRA.VDW.0>
-4.16072

>  <SCORE.INTRA.norm>
0.209062

>  <SCORE.RESTR>
6.66546

>  <SCORE.RESTR.CAVITY>
6.66546

>  <SCORE.RESTR.norm>
0.215015

>  <SCORE.SYSTEM>
0

>  <SCORE.SYSTEM.CONST>
0

>  <SCORE.SYSTEM.DIHEDRAL>
0

>  <SCORE.SYSTEM.SOLV>
0

>  <SCORE.SYSTEM.norm>
0

>  <SCORE.heavy>
31

>  <SCORE.norm>
0.51066

>  <RMSD>
10.098

$$$$
ligand
 OpenBabel11021811493D
libRbt.so/2013.1/901 2013/11/27
 31 33  0  0  0  0  0  0  0  0999 V2000
   -6.4921  -10.4812  -25.0097 C   0  0  2  0  0  0  0  0  0  0  0  0
   -7.3149  -10.8997  -23.9122 O   0  0  0  0  0  0  0  0  0  0  0  0
   -7.8536   -9.4776  -19.9108 C   0  0  2  0  0  0  0  0  0  0  0  0
   -7.5809   -9.1625  -18.5417 N   0  0  0  0  0  0  0  0  0  0  0  0
   -5.9904   -6.4485  -20.0582 C   0  0  2  0  0  0  0  0  0  0  0  0
   -7.3474   -9.4597  -25.8385 C   0  0  2  0  0  0  0  0  0  0  0  0
   -7.7549   -8.3505  -24.9832 N   0  0  0  0  0  0  0  0  0  0  0  0
   -7.6979  -11.0337  -20.1166 C   0  0  0  0  0  0  0  0  0  0  0  0
   -5.9737   -5.1781  -20.9631 C   0  0  2  0  0  0  0  0  0  0  0  0
   -7.2551   -4.5730  -20.9333 O   0  0  0  0  0  0  0  0  0  0  0  0
   -8.6006  -10.1837  -26.4429 C   0  0  0  0  0  0  0  0  0  0  0  0
   -8.0088  -11.3835  -21.6359 C   0  0  2  0  0  0  0  0  0  0  0  0
   -7.8640  -12.8436  -21.8418 N   0  0  0  0  0  0  0  0  0  0  0  0
   -5.6039   -5.6577  -22.4360 C   0  0  1  0  0  0  0  0  0  0  0  0
   -5.5979   -4.4942  -23.3865 N   0  0  0  0  0  0  0  0  0  0  0  0
   -8.1936  -11.5263  -27.1160 C   0  0  0  0  0  0  0  0  0  0  0  0
   -7.0018  -10.5894  -22.5815 C   0  0  2  0  0  0  0  0  0  0  0  0
   -4.1264   -6.3432  -22.4200 C   0  0  1  0  0  0  0  0  0  0  0  0
   -3.1260   -5.4408  -21.9890 O   0  0  0  0  0  0  0  0  0  0  0  0
   -7.0352  -12.1296  -26.8096 C   0  0  2  0  0  0  0  0  0  0  0  0
   -6.0943  -11.5980  -25.8604 O   0  0  0  0  0  0  0  0  0  0  0  0
   -7.1640   -9.0322  -22.3278 C   0  0  2  0  0  0  0  0  0  0  0  0
   -6.2456   -8.3072  -23.1555 O   0  0  0  0  0  0  0  0  0  0  0  0
   -4.1309   -7.5573  -21.4310 C   0  0  0  0  0  0  0  0  0  0  0  0
   -4.6368   -7.1111  -20.0695 O   0  0  0  0  0  0  0  0  0  0  0  0
   -6.6119  -13.4626  -27.4696 C   0  0  0  0  0  0  0  0  0  0  0  0
   -6.1157  -13.2038  -28.8140 N   0  0  0  0  0  0  0  0  0  0  0  0
   -6.8558   -8.7037  -20.8223 C   0  0  1  0  0  0  0  0  0  0  0  0
   -7.0150   -7.3177  -20.6358 O   0  0  0  0  0  0  0  0  0  0  0  0
   -3.6192   -6.8673  -23.7736 C   0  0  0  0  0  0  0  0  0  0  0  0
   -6.8952   -4.1355  -23.9904 C   0  0  0  0  0  0  0  0  0  0  0  0
  1  2  1  1  0  0  0
  1  6  1  0  0  0  0
  1 21  1  0  0  0  0
  3  4  1  1  0  0  0
  3  8  1  0  0  0  0
  3 28  1  0  0  0  0
  5  9  1  0  0  0  0
  5 25  1  0  0  0  0
  5 29  1  6  0  0  0
  6  7  1  1  0  0  0
  6 11  1  0  0  0  0
  8 12  1  0  0  0  0
  9 10  1  6  0  0  0
  9 14  1  0  0  0  0
 11 16  1  0  0  0  0
 12 13  1  1  0  0  0
 12 17  1  0  0  0  0
 14 15  1  6  0  0  0
 14 18  1  0  0  0  0
 15 31  1  0  0  0  0
 16 20  1  0  0  0  0
 17  2  1  6  0  0  0
 17 22  1  0  0  0  0
 18 19  1  1  0  0  0
 18 24  1  0  0  0  0
 18 30  1  0  0  0  0
 20 21  1  0  0  0  0
 20 26  1  6  0  0  0
 22 23  1  6  0  0  0
 22 28  1  0  0  0  0
 24 25  1  0  0  0  0
 26 27  1  0  0  0  0
 28 29  1  6  0  0  0
M  END
>  <CHROM.1>
-113.90473671,136.15637581,-86.21043127,-172.04584264,77.57072545,114.49628186
-6.48881960,-8.76817663,-23.07017391,-2.07498773,1.17351759,1.18005763

>  <Name>
ligand

>  <RI>
0

>  <Rbt.Current_Directory>
/home/itssahil/PROJECTS/Mol_Feturizer/New_Systems/rnas/4F8U

>  <Rbt.Executable>
rbdock ($Id: //depot/dev/client3/rdock/2013.1/src/exe/rbdock.cxx#4 $)

>  <Rbt.Library>
libRbt.so (2013.1, Build901 2013/11/27)

>  <Rbt.Parameter_File>
/export/apps/rDock/src/rDock_2013.1_src/data/scripts/dock_solv.prm

>  <Rbt.Receptor>
prm/blind_docking_80.prm

>  <SCORE>
8.27899

>  <SCORE.INTER>
-4.65106

>  <SCORE.INTER.CONST>
1

>  <SCORE.INTER.POLAR>
0

>  <SCORE.INTER.ROT>
6

>  <SCORE.INTER.SOLV>
31.8912

>  <SCORE.INTER.VDW>
-21.3311

>  <SCORE.INTER.norm>
-0.150034

>  <SCORE.INTRA>
6.23712

>  <SCORE.INTRA.DIHEDRAL>
5.29705

>  <SCORE.INTRA.DIHEDRAL.0>
18.77

>  <SCORE.INTRA.POLAR>
0

>  <SCORE.INTRA.POLAR.0>
0

>  <SCORE.INTRA.REPUL>
0

>  <SCORE.INTRA.REPUL.0>
0

>  <SCORE.INTRA.SOLV>
1.48383

>  <SCORE.INTRA.SOLV.lig_0>
-77.2465

>  <SCORE.INTRA.VDW>
2.84668

>  <SCORE.INTRA.VDW.0>
-4.16072

>  <SCORE.INTRA.norm>
0.201197

>  <SCORE.RESTR>
6.69293

>  <SCORE.RESTR.CAVITY>
6.69293

>  <SCORE.RESTR.norm>
0.215901

>  <SCORE.SYSTEM>
0

>  <SCORE.SYSTEM.CONST>
0

>  <SCORE.SYSTEM.DIHEDRAL>
0

>  <SCORE.SYSTEM.SOLV>
0

>  <SCORE.SYSTEM.norm>
0

>  <SCORE.heavy>
31

>  <SCORE.norm>
0.267064

>  <RMSD>
10.099

$$$$
ligand
 OpenBabel11021811493D
libRbt.so/2013.1/901 2013/11/27
 31 33  0  0  0  0  0  0  0  0999 V2000
   -7.4279  -13.3101  -20.3770 C   0  0  2  0  0  0  0  0  0  0  0  0
   -7.2680  -12.2722  -19.4005 O   0  0  0  0  0  0  0  0  0  0  0  0
   -6.1194   -8.1649  -19.7679 C   0  0  2  0  0  0  0  0  0  0  0  0
   -5.3090   -7.0022  -19.9657 N   0  0  0  0  0  0  0  0  0  0  0  0
   -7.9336   -7.7474  -22.1909 C   0  0  2  0  0  0  0  0  0  0  0  0
   -8.0970  -14.5182  -19.6321 C   0  0  2  0  0  0  0  0  0  0  0  0
   -9.3637  -14.0945  -19.0456 N   0  0  0  0  0  0  0  0  0  0  0  0
   -5.5633   -8.9695  -18.5304 C   0  0  0  0  0  0  0  0  0  0  0  0
   -8.1753   -7.3862  -23.6891 C   0  0  2  0  0  0  0  0  0  0  0  0
   -8.0745   -8.5646  -24.4702 O   0  0  0  0  0  0  0  0  0  0  0  0
   -7.1278  -15.0623  -18.5256 C   0  0  0  0  0  0  0  0  0  0  0  0
   -6.4692  -10.2567  -18.3067 C   0  0  2  0  0  0  0  0  0  0  0  0
   -5.9549  -11.0218  -17.1468 N   0  0  0  0  0  0  0  0  0  0  0  0
   -7.0565   -6.3310  -24.1022 C   0  0  1  0  0  0  0  0  0  0  0  0
   -7.1951   -5.9506  -25.5491 N   0  0  0  0  0  0  0  0  0  0  0  0
   -5.6895  -15.2457  -19.0904 C   0  0  0  0  0  0  0  0  0  0  0  0
   -6.4441  -11.1595  -19.6194 C   0  0  2  0  0  0  0  0  0  0  0  0
   -7.2133   -4.9970  -23.1809 C   0  0  1  0  0  0  0  0  0  0  0  0
   -8.4769   -4.3826  -23.3450 O   0  0  0  0  0  0  0  0  0  0  0  0
   -5.2983  -14.6088  -20.2044 C   0  0  2  0  0  0  0  0  0  0  0  0
   -6.1545  -13.7287  -20.9535 O   0  0  0  0  0  0  0  0  0  0  0  0
   -6.9810  -10.3116  -20.8476 C   0  0  2  0  0  0  0  0  0  0  0  0
   -6.9405  -11.1054  -22.0402 O   0  0  0  0  0  0  0  0  0  0  0  0
   -7.0675   -5.3910  -21.6723 C   0  0  0  0  0  0  0  0  0  0  0  0
   -8.0381   -6.5106  -21.3360 O   0  0  0  0  0  0  0  0  0  0  0  0
   -3.8742  -14.7802  -20.7828 C   0  0  0  0  0  0  0  0  0  0  0  0
   -3.9030  -15.7525  -21.8664 N   0  0  0  0  0  0  0  0  0  0  0  0
   -6.0770   -9.0428  -21.0536 C   0  0  1  0  0  0  0  0  0  0  0  0
   -6.5867   -8.3154  -22.1455 O   0  0  0  0  0  0  0  0  0  0  0  0
   -6.1980   -3.8747  -23.4531 C   0  0  0  0  0  0  0  0  0  0  0  0
   -6.3820   -6.7208  -26.5093 C   0  0  0  0  0  0  0  0  0  0  0  0
  1  2  1  1  0  0  0
  1  6  1  0  0  0  0
  1 21  1  0  0  0  0
  3  4  1  6  0  0  0
  3  8  1  0  0  0  0
  3 28  1  0  0  0  0
  5  9  1  0  0  0  0
  5 25  1  0  0  0  0
  5 29  1  6  0  0  0
  6  7  1  1  0  0  0
  6 11  1  0  0  0  0
  8 12  1  0  0  0  0
  9 10  1  6  0  0  0
  9 14  1  0  0  0  0
 11 16  1  0  0  0  0
 12 13  1  1  0  0  0
 12 17  1  0  0  0  0
 14 15  1  6  0  0  0
 14 18  1  0  0  0  0
 15 31  1  0  0  0  0
 16 20  1  0  0  0  0
 17  2  1  1  0  0  0
 17 22  1  0  0  0  0
 18 19  1  6  0  0  0
 18 24  1  0  0  0  0
 18 30  1  0  0  0  0
 20 21  1  0  0  0  0
 20 26  1  6  0  0  0
 22 23  1  6  0  0  0
 22 28  1  0  0  0  0
 24 25  1  0  0  0  0
 26 27  1  0  0  0  0
 28 29  1  6  0  0  0
M  END
>  <CHROM.1>
165.52756774,-165.28361442,-93.66489449,-177.81515414,98.56046369,-58.49408554
-6.73562964,-9.86190671,-21.29144115,-0.41975969,1.45636308,-1.58255950

>  <Name>
ligand

>  <RI>
0

>  <Rbt.Current_Directory>
/home/itssahil/PROJECTS/Mol_Feturizer/New_Systems/rnas/4F8U

>  <Rbt.Executable>
rbdock ($Id: //depot/dev/client3/rdock/2013.1/src/exe/rbdock.cxx#4 $)

>  <Rbt.Library>
libRbt.so (2013.1, Build901 2013/11/27)

>  <Rbt.Parameter_File>
/export/apps/rDock/src/rDock_2013.1_src/data/scripts/dock_solv.prm

>  <Rbt.Receptor>
prm/pocket_docking_8.prm

>  <SCORE>
-12.0754

>  <SCORE.INTER>
-6.0049

>  <SCORE.INTER.CONST>
1

>  <SCORE.INTER.POLAR>
0

>  <SCORE.INTER.ROT>
6

>  <SCORE.INTER.SOLV>
20.353

>  <SCORE.INTER.VDW>
-18.3876

>  <SCORE.INTER.norm>
-0.193706

>  <SCORE.INTRA>
-6.07054

>  <SCORE.INTRA.DIHEDRAL>
-13.789

>  <SCORE.INTRA.DIHEDRAL.0>
18.77

>  <SCORE.INTRA.POLAR>
0

>  <SCORE.INTRA.POLAR.0>
0

>  <SCORE.INTRA.REPUL>
0

>  <SCORE.INTRA.REPUL.0>
0

>  <SCORE.INTRA.SOLV>
-0.780653

>  <SCORE.INTRA.SOLV.lig_0>
-77.2465

>  <SCORE.INTRA.VDW>
1.21429

>  <SCORE.INTRA.VDW.0>
-4.16072

>  <SCORE.INTRA.norm>
-0.195824

>  <SCORE.RESTR>
0

>  <SCORE.RESTR.CAVITY>
0

>  <SCORE.RESTR.norm>
0

>  <SCORE.SYSTEM>
0

>  <SCORE.SYSTEM.CONST>
0

>  <SCORE.SYSTEM.DIHEDRAL>
0

>  <SCORE.SYSTEM.SOLV>
0

>  <SCORE.SYSTEM.norm>
0

>  <SCORE.heavy>
31

>  <SCORE.norm>
-0.38953

>  <RMSD>
10.101

$$$$
ligand
 OpenBabel11021811493D
libRbt.so/2013.1/901 2013/11/27
 31 33  0  0  0  0  0  0  0  0999 V2000
   -6.7179   -9.0977  -26.6083 C   0  0  2  0  0  0  0  0  0  0  0  0
   -7.5039   -9.3827  -25.4432 O   0  0  0  0  0  0  0  0  0  0  0  0
   -7.3603  -11.4870  -21.7183 C   0  0  2  0  0  0  0  0  0  0  0  0
   -6.8412  -12.1247  -20.5470 N   0  0  0  0  0  0  0  0  0  0  0  0
   -6.6359   -8.7039  -19.5537 C   0  0  2  0  0  0  0  0  0  0  0  0
   -7.6401   -8.2711  -27.5719 C   0  0  2  0  0  0  0  0  0  0  0  0
   -8.1043   -7.0652  -26.8950 N   0  0  0  0  0  0  0  0  0  0  0  0
   -6.7927  -12.2221  -22.9931 C   0  0  0  0  0  0  0  0  0  0  0  0
   -7.1261   -7.2239  -19.5021 C   0  0  2  0  0  0  0  0  0  0  0  0
   -8.5020   -7.2048  -19.1626 O   0  0  0  0  0  0  0  0  0  0  0  0
   -8.8539   -9.1521  -28.0306 C   0  0  0  0  0  0  0  0  0  0  0  0
   -7.3762  -11.5178  -24.2934 C   0  0  2  0  0  0  0  0  0  0  0  0
   -6.8481  -12.1994  -25.4983 N   0  0  0  0  0  0  0  0  0  0  0  0
   -6.8870   -6.6013  -20.9482 C   0  0  1  0  0  0  0  0  0  0  0  0
   -7.3651   -5.1778  -20.9981 N   0  0  0  0  0  0  0  0  0  0  0  0
   -8.3746  -10.5592  -28.4907 C   0  0  0  0  0  0  0  0  0  0  0  0
   -6.9568   -9.9806  -24.2995 C   0  0  2  0  0  0  0  0  0  0  0  0
   -5.2956   -6.6437  -21.2923 C   0  0  1  0  0  0  0  0  0  0  0  0
   -4.5305   -5.9003  -20.3634 O   0  0  0  0  0  0  0  0  0  0  0  0
   -7.1796  -11.0392  -28.1147 C   0  0  2  0  0  0  0  0  0  0  0  0
   -6.2628  -10.3109  -27.2793 O   0  0  0  0  0  0  0  0  0  0  0  0
   -7.5180   -9.2802  -22.9918 C   0  0  2  0  0  0  0  0  0  0  0  0
   -7.1264   -7.9017  -22.9732 O   0  0  0  0  0  0  0  0  0  0  0  0
   -4.7956   -8.1269  -21.2425 C   0  0  0  0  0  0  0  0  0  0  0  0
   -5.1725   -8.7533  -19.9105 O   0  0  0  0  0  0  0  0  0  0  0  0
   -6.6844  -12.4338  -28.5637 C   0  0  0  0  0  0  0  0  0  0  0  0
   -5.8519  -12.2957  -29.7504 N   0  0  0  0  0  0  0  0  0  0  0  0
   -6.9340   -9.9891  -21.7165 C   0  0  1  0  0  0  0  0  0  0  0  0
   -7.4575   -9.3448  -20.5800 O   0  0  0  0  0  0  0  0  0  0  0  0
   -4.8943   -6.0794  -22.6653 C   0  0  0  0  0  0  0  0  0  0  0  0
   -7.8194   -4.6854  -22.3123 C   0  0  0  0  0  0  0  0  0  0  0  0
  1  2  1  1  0  0  0
  1  6  1  0  0  0  0
  1 21  1  0  0  0  0
  3  4  1  1  0  0  0
  3  8  1  0  0  0  0
  3 28  1  0  0  0  0
  5  9  1  0  0  0  0
  5 25  1  0  0  0  0
  5 29  1  6  0  0  0
  6  7  1  1  0  0  0
  6 11  1  0  0  0  0
  8 12  1  0  0  0  0
  9 10  1  6  0  0  0
  9 14  1  0  0  0  0
 11 16  1  0  0  0  0
 12 13  1  6  0  0  0
 12 17  1  0  0  0  0
 14 15  1  1  0  0  0
 14 18  1  0  0  0  0
 15 31  1  0  0  0  0
 16 20  1  0  0  0  0
 17  2  1  6  0  0  0
 17 22  1  0  0  0  0
 18 19  1  1  0  0  0
 18 24  1  0  0  0  0
 18 30  1  0  0  0  0
 20 21  1  0  0  0  0
 20 26  1  6  0  0  0
 22 23  1  6  0  0  0
 22 28  1  0  0  0  0
 24 25  1  0  0  0  0
 26 27  1  0  0  0  0
 28 29  1  1  0  0  0
M  END
>  <CHROM.1>
-172.70370782,122.60398220,-151.47798358,-102.40681365,95.07940317,119.69259588
-6.87564441,-9.02169856,-23.59048129,2.45387066,1.46238529,-2.89811637

>  <Name>
ligand

>  <RI>
0

>  <Rbt.Current_Directory>
/home/itssahil/PROJECTS/Mol_Feturizer/New_Systems/rnas/4F8U

>  <Rbt.Executable>
rbdock ($Id: //depot/dev/client3/rdock/2013.1/src/exe/rbdock.cxx#4 $)

>  <Rbt.Library>
libRbt.so (2013.1, Build901 2013/11/27)

>  <Rbt.Parameter_File>
/export/apps/rDock/src/rDock_2013.1_src/data/scripts/dock_solv.prm

>  <Rbt.Receptor>
prm/blind_docking_100.prm

>  <SCORE>
30.0671

>  <SCORE.INTER>
5.26815

>  <SCORE.INTER.CONST>
1

>  <SCORE.INTER.POLAR>
0

>  <SCORE.INTER.ROT>
6

>  <SCORE.INTER.SOLV>
24.3193

>  <SCORE.INTER.VDW>
-12.1943

>  <SCORE.INTER.norm>
0.16994

>  <SCORE.INTRA>
9.13267

>  <SCORE.INTRA.DIHEDRAL>
4.57215

>  <SCORE.INTRA.DIHEDRAL.0>
18.77

>  <SCORE.INTRA.POLAR>
0

>  <SCORE.INTRA.POLAR.0>
0

>  <SCORE.INTRA.REPUL>
0

>  <SCORE.INTRA.REPUL.0>
0

>  <SCORE.INTRA.SOLV>
2.80231

>  <SCORE.INTRA.SOLV.lig_0>
-77.2465

>  <SCORE.INTRA.VDW>
5.44544

>  <SCORE.INTRA.VDW.0>
-4.16072

>  <SCORE.INTRA.norm>
0.294602

>  <SCORE.RESTR>
15.6663

>  <SCORE.RESTR.CAVITY>
15.6663

>  <SCORE.RESTR.norm>
0.505364

>  <SCORE.SYSTEM>
0

>  <SCORE.SYSTEM.CONST>
0

>  <SCORE.SYSTEM.DIHEDRAL>
0

>  <SCORE.SYSTEM.SOLV>
0

>  <SCORE.SYSTEM.norm>
0

>  <SCORE.heavy>
31

>  <SCORE.norm>
0.969907

>  <RMSD>
10.109

$$$$
ligand
 OpenBabel11021811493D
libRbt.so/2013.1/901 2013/11/27
 31 33  0  0  0  0  0  0  0  0999 V2000
   -6.4892  -10.5012  -25.0363 C   0  0  2  0  0  0  0  0  0  0  0  0
   -7.3118  -10.9221  -23.9397 O   0  0  0  0  0  0  0  0  0  0  0  0
   -7.8505   -9.5009  -19.9379 C   0  0  2  0  0  0  0  0  0  0  0  0
   -7.5784   -9.1876  -18.5683 N   0  0  0  0  0  0  0  0  0  0  0  0
   -5.9791   -6.4789  -20.0760 C   0  0  2  0  0  0  0  0  0  0  0  0
   -7.3520   -9.4940  -25.8746 C   0  0  2  0  0  0  0  0  0  0  0  0
   -7.7750   -8.3842  -25.0277 N   0  0  0  0  0  0  0  0  0  0  0  0
   -7.6998  -11.0573  -20.1447 C   0  0  0  0  0  0  0  0  0  0  0  0
   -5.9579   -5.2039  -20.9744 C   0  0  2  0  0  0  0  0  0  0  0  0
   -7.2383   -4.5967  -20.9446 O   0  0  0  0  0  0  0  0  0  0  0  0
   -8.5948  -10.2350  -26.4798 C   0  0  0  0  0  0  0  0  0  0  0  0
   -8.0101  -11.4051  -21.6646 C   0  0  2  0  0  0  0  0  0  0  0  0
   -7.8700  -12.8655  -21.8713 N   0  0  0  0  0  0  0  0  0  0  0  0
   -5.5853   -5.6767  -22.4488 C   0  0  1  0  0  0  0  0  0  0  0  0
   -5.5750   -4.5083  -23.3933 N   0  0  0  0  0  0  0  0  0  0  0  0
   -8.1705  -11.5771  -27.1433 C   0  0  0  0  0  0  0  0  0  0  0  0
   -6.9993  -10.6137  -22.6084 C   0  0  2  0  0  0  0  0  0  0  0  0
   -4.1092   -6.3648  -22.4327 C   0  0  1  0  0  0  0  0  0  0  0  0
   -3.1082   -5.4664  -21.9946 O   0  0  0  0  0  0  0  0  0  0  0  0
   -7.0070  -12.1660  -26.8285 C   0  0  2  0  0  0  0  0  0  0  0  0
   -6.0758  -11.6186  -25.8787 O   0  0  0  0  0  0  0  0  0  0  0  0
   -7.1566   -9.0561  -22.3539 C   0  0  2  0  0  0  0  0  0  0  0  0
   -6.2348   -8.3337  -23.1800 O   0  0  0  0  0  0  0  0  0  0  0  0
   -4.1182   -7.5840  -21.4499 C   0  0  0  0  0  0  0  0  0  0  0  0
   -4.6266   -7.1438  -20.0874 O   0  0  0  0  0  0  0  0  0  0  0  0
   -6.5666  -13.4983  -27.4789 C   0  0  0  0  0  0  0  0  0  0  0  0
   -6.2072  -13.2649  -28.8706 N   0  0  0  0  0  0  0  0  0  0  0  0
   -6.8490   -8.7297  -20.8478 C   0  0  1  0  0  0  0  0  0  0  0  0
   -7.0038   -7.3433  -20.6605 O   0  0  0  0  0  0  0  0  0  0  0  0
   -3.5995   -6.8829  -23.7877 C   0  0  0  0  0  0  0  0  0  0  0  0
   -6.8698   -4.1455  -24.0001 C   0  0  0  0  0  0  0  0  0  0  0  0
  1  2  1  1  0  0  0
  1  6  1  0  0  0  0
  1 21  1  0  0  0  0
  3  4  1  1  0  0  0
  3  8  1  0  0  0  0
  3 28  1  0  0  0  0
  5  9  1  0  0  0  0
  5 25  1  0  0  0  0
  5 29  1  6  0  0  0
  6  7  1  1  0  0  0
  6 11  1  0  0  0  0
  8 12  1  0  0  0  0
  9 10  1  6  0  0  0
  9 14  1  0  0  0  0
 11 16  1  0  0  0  0
 12 13  1  1  0  0  0
 12 17  1  0  0  0  0
 14 15  1  6  0  0  0
 14 18  1  0  0  0  0
 15 31  1  0  0  0  0
 16 20  1  0  0  0  0
 17  2  1  6  0  0  0
 17 22  1  0  0  0  0
 18 19  1  1  0  0  0
 18 24  1  0  0  0  0
 18 30  1  0  0  0  0
 20 21  1  0  0  0  0
 20 26  1  6  0  0  0
 22 23  1  6  0  0  0
 22 28  1  0  0  0  0
 24 25  1  0  0  0  0
 26 27  1  0  0  0  0
 28 29  1  6  0  0  0
M  END
>  <CHROM.1>
-114.66124194,136.47690850,-86.30062085,-172.29366283,71.33512423,114.23029629
-6.48109146,-8.79563883,-23.09288347,-2.07790570,1.17098963,1.18209450

>  <Name>
ligand

>  <RI>
0

>  <Rbt.Current_Directory>
/home/itssahil/PROJECTS/Mol_Feturizer/New_Systems/rnas/4F8U

>  <Rbt.Executable>
rbdock ($Id: //depot/dev/client3/rdock/2013.1/src/exe/rbdock.cxx#4 $)

>  <Rbt.Library>
libRbt.so (2013.1, Build901 2013/11/27)

>  <Rbt.Parameter_File>
/export/apps/rDock/src/rDock_2013.1_src/data/scripts/dock_solv.prm

>  <Rbt.Receptor>
prm/blind_docking_80.prm

>  <SCORE>
8.0525

>  <SCORE.INTER>
-4.62901

>  <SCORE.INTER.CONST>
1

>  <SCORE.INTER.POLAR>
0

>  <SCORE.INTER.ROT>
6

>  <SCORE.INTER.SOLV>
31.5637

>  <SCORE.INTER.VDW>
-21.2072

>  <SCORE.INTER.norm>
-0.149323

>  <SCORE.INTRA>
5.96586

>  <SCORE.INTRA.DIHEDRAL>
5.47692

>  <SCORE.INTRA.DIHEDRAL.0>
18.77

>  <SCORE.INTRA.POLAR>
0

>  <SCORE.INTRA.POLAR.0>
0

>  <SCORE.INTRA.REPUL>
0

>  <SCORE.INTRA.REPUL.0>
0

>  <SCORE.INTRA.SOLV>
1.3773

>  <SCORE.INTRA.SOLV.lig_0>
-77.2465

>  <SCORE.INTRA.VDW>
2.53875

>  <SCORE.INTRA.VDW.0>
-4.16072

>  <SCORE.INTRA.norm>
0.192447

>  <SCORE.RESTR>
6.71565

>  <SCORE.RESTR.CAVITY>
6.71565

>  <SCORE.RESTR.norm>
0.216634

>  <SCORE.SYSTEM>
0

>  <SCORE.SYSTEM.CONST>
0

>  <SCORE.SYSTEM.DIHEDRAL>
0

>  <SCORE.SYSTEM.SOLV>
0

>  <SCORE.SYSTEM.norm>
0

>  <SCORE.heavy>
31

>  <SCORE.norm>
0.259758

>  <RMSD>
10.111

$$$$
ligand
 OpenBabel11021811493D
libRbt.so/2013.1/901 2013/11/27
 31 33  0  0  0  0  0  0  0  0999 V2000
   -6.4811  -10.5068  -25.0309 C   0  0  2  0  0  0  0  0  0  0  0  0
   -7.3033  -10.9237  -23.9324 O   0  0  0  0  0  0  0  0  0  0  0  0
   -7.8479   -9.4845  -19.9380 C   0  0  2  0  0  0  0  0  0  0  0  0
   -7.5771   -9.1634  -18.5699 N   0  0  0  0  0  0  0  0  0  0  0  0
   -5.9916   -6.4584  -20.0805 C   0  0  2  0  0  0  0  0  0  0  0  0
   -7.3415   -9.4965  -25.8681 C   0  0  2  0  0  0  0  0  0  0  0  0
   -7.7582   -8.3846  -25.0208 N   0  0  0  0  0  0  0  0  0  0  0  0
   -7.6916  -11.0414  -20.1369 C   0  0  0  0  0  0  0  0  0  0  0  0
   -5.9687   -5.1846  -20.9807 C   0  0  2  0  0  0  0  0  0  0  0  0
   -7.2515   -4.5823  -20.9612 O   0  0  0  0  0  0  0  0  0  0  0  0
   -8.5884  -10.2328  -26.4704 C   0  0  0  0  0  0  0  0  0  0  0  0
   -8.0003  -11.3979  -21.6551 C   0  0  2  0  0  0  0  0  0  0  0  0
   -7.8549  -12.8588  -21.8545 N   0  0  0  0  0  0  0  0  0  0  0  0
   -5.5835   -5.6582  -22.4516 C   0  0  1  0  0  0  0  0  0  0  0  0
   -5.5706   -4.4913  -23.3978 N   0  0  0  0  0  0  0  0  0  0  0  0
   -8.1709  -11.5769  -27.1340 C   0  0  0  0  0  0  0  0  0  0  0  0
   -6.9921  -10.6076  -22.6027 C   0  0  2  0  0  0  0  0  0  0  0  0
   -4.1049   -6.3408  -22.4236 C   0  0  1  0  0  0  0  0  0  0  0  0
   -3.1105   -5.4380  -21.9796 O   0  0  0  0  0  0  0  0  0  0  0  0
   -7.0091  -12.1704  -26.8213 C   0  0  2  0  0  0  0  0  0  0  0  0
   -6.0739  -11.6263  -25.8736 O   0  0  0  0  0  0  0  0  0  0  0  0
   -7.1551   -9.0494  -22.3560 C   0  0  2  0  0  0  0  0  0  0  0  0
   -6.2357   -8.3278  -23.1855 O   0  0  0  0  0  0  0  0  0  0  0  0
   -4.1166   -7.5585  -21.4390 C   0  0  0  0  0  0  0  0  0  0  0  0
   -4.6366   -7.1182  -20.0810 O   0  0  0  0  0  0  0  0  0  0  0  0
   -6.5754  -13.5047  -27.4718 C   0  0  0  0  0  0  0  0  0  0  0  0
   -6.1485  -13.2616  -28.8426 N   0  0  0  0  0  0  0  0  0  0  0  0
   -6.8490   -8.7143  -20.8515 C   0  0  1  0  0  0  0  0  0  0  0  0
   -7.0087   -7.3276  -20.6712 O   0  0  0  0  0  0  0  0  0  0  0  0
   -3.5834   -6.8590  -23.7741 C   0  0  0  0  0  0  0  0  0  0  0  0
   -6.8643   -4.1278  -24.0066 C   0  0  0  0  0  0  0  0  0  0  0  0
  1  2  1  1  0  0  0
  1  6  1  0  0  0  0
  1 21  1  0  0  0  0
  3  4  1  1  0  0  0
  3  8  1  0  0  0  0
  3 28  1  0  0  0  0
  5  9  1  0  0  0  0
  5 25  1  0  0  0  0
  5 29  1  6  0  0  0
  6  7  1  1  0  0  0
  6 11  1  0  0  0  0
  8 12  1  0  0  0  0
  9 10  1  6  0  0  0
  9 14  1  0  0  0  0
 11 16  1  0  0  0  0
 12 13  1  1  0  0  0
 12 17  1  0  0  0  0
 14 15  1  6  0  0  0
 14 18  1  0  0  0  0
 15 31  1  0  0  0  0
 16 20  1  0  0  0  0
 17  2  1  6  0  0  0
 17 22  1  0  0  0  0
 18 19  1  1  0  0  0
 18 24  1  0  0  0  0
 18 30  1  0  0  0  0
 20 21  1  0  0  0  0
 20 26  1  6  0  0  0
 22 23  1  6  0  0  0
 22 28  1  0  0  0  0
 24 25  1  0  0  0  0
 26 27  1  0  0  0  0
 28 29  1  6  0  0  0
M  END
>  <CHROM.1>
-114.18285391,136.67728169,-85.84528287,-172.21775052,74.40796682,113.69432524
-6.47720677,-8.78485329,-23.08902802,-2.07499420,1.17187611,1.17514159

>  <Name>
ligand

>  <RI>
0

>  <Rbt.Current_Directory>
/home/itssahil/PROJECTS/Mol_Feturizer/New_Systems/rnas/4F8U

>  <Rbt.Executable>
rbdock ($Id: //depot/dev/client3/rdock/2013.1/src/exe/rbdock.cxx#4 $)

>  <Rbt.Library>
libRbt.so (2013.1, Build901 2013/11/27)

>  <Rbt.Parameter_File>
/export/apps/rDock/src/rDock_2013.1_src/data/scripts/dock_solv.prm

>  <Rbt.Receptor>
prm/blind_docking_80.prm

>  <SCORE>
8.25585

>  <SCORE.INTER>
-4.37256

>  <SCORE.INTER.CONST>
1

>  <SCORE.INTER.POLAR>
0

>  <SCORE.INTER.ROT>
6

>  <SCORE.INTER.SOLV>
31.7966

>  <SCORE.INTER.VDW>
-21.1139

>  <SCORE.INTER.norm>
-0.14105

>  <SCORE.INTRA>
5.96256

>  <SCORE.INTRA.DIHEDRAL>
5.28635

>  <SCORE.INTRA.DIHEDRAL.0>
18.77

>  <SCORE.INTRA.POLAR>
0

>  <SCORE.INTRA.POLAR.0>
0

>  <SCORE.INTRA.REPUL>
0

>  <SCORE.INTRA.REPUL.0>
0

>  <SCORE.INTRA.SOLV>
1.3863

>  <SCORE.INTRA.SOLV.lig_0>
-77.2465

>  <SCORE.INTRA.VDW>
2.62624

>  <SCORE.INTRA.VDW.0>
-4.16072

>  <SCORE.INTRA.norm>
0.192341

>  <SCORE.RESTR>
6.66585

>  <SCORE.RESTR.CAVITY>
6.66585

>  <SCORE.RESTR.norm>
0.215027

>  <SCORE.SYSTEM>
0

>  <SCORE.SYSTEM.CONST>
0

>  <SCORE.SYSTEM.DIHEDRAL>
0

>  <SCORE.SYSTEM.SOLV>
0

>  <SCORE.SYSTEM.norm>
0

>  <SCORE.heavy>
31

>  <SCORE.norm>
0.266318

>  <RMSD>
10.113

$$$$
ligand
 OpenBabel11021811493D
libRbt.so/2013.1/901 2013/11/27
 31 33  0  0  0  0  0  0  0  0999 V2000
   -6.4691  -10.4891  -25.0308 C   0  0  2  0  0  0  0  0  0  0  0  0
   -7.3040  -10.9041  -23.9412 O   0  0  0  0  0  0  0  0  0  0  0  0
   -7.8637   -9.5007  -19.9361 C   0  0  2  0  0  0  0  0  0  0  0  0
   -7.5987   -9.1933  -18.5638 N   0  0  0  0  0  0  0  0  0  0  0  0
   -5.9917   -6.4772  -20.0534 C   0  0  2  0  0  0  0  0  0  0  0  0
   -7.3145   -9.4690  -25.8714 C   0  0  2  0  0  0  0  0  0  0  0  0
   -7.7302   -8.3573  -25.0233 N   0  0  0  0  0  0  0  0  0  0  0  0
   -7.7114  -11.0561  -20.1489 C   0  0  0  0  0  0  0  0  0  0  0  0
   -5.9725   -5.1958  -20.9427 C   0  0  2  0  0  0  0  0  0  0  0  0
   -7.2543   -4.5917  -20.9098 O   0  0  0  0  0  0  0  0  0  0  0  0
   -8.5617  -10.1935  -26.4874 C   0  0  0  0  0  0  0  0  0  0  0  0
   -8.0138  -11.3973  -21.6719 C   0  0  2  0  0  0  0  0  0  0  0  0
   -7.8721  -12.8568  -21.8842 N   0  0  0  0  0  0  0  0  0  0  0  0
   -5.5976   -5.6573  -22.4201 C   0  0  1  0  0  0  0  0  0  0  0  0
   -5.5891   -4.4823  -23.3564 N   0  0  0  0  0  0  0  0  0  0  0  0
   -8.1486  -11.5381  -27.1528 C   0  0  0  0  0  0  0  0  0  0  0  0
   -6.9984  -10.6015  -22.6071 C   0  0  2  0  0  0  0  0  0  0  0  0
   -4.1200   -6.3423  -22.4076 C   0  0  1  0  0  0  0  0  0  0  0  0
   -3.1213   -5.4448  -21.9623 O   0  0  0  0  0  0  0  0  0  0  0  0
   -6.9941  -12.1416  -26.8323 C   0  0  2  0  0  0  0  0  0  0  0  0
   -6.0631  -11.6084  -25.8744 O   0  0  0  0  0  0  0  0  0  0  0  0
   -7.1575   -9.0451  -22.3465 C   0  0  2  0  0  0  0  0  0  0  0  0
   -6.2317   -8.3188  -23.1647 O   0  0  0  0  0  0  0  0  0  0  0  0
   -4.1271   -7.5684  -21.4334 C   0  0  0  0  0  0  0  0  0  0  0  0
   -4.6377   -7.1389  -20.0683 O   0  0  0  0  0  0  0  0  0  0  0  0
   -6.5648  -13.4766  -27.4844 C   0  0  0  0  0  0  0  0  0  0  0  0
   -6.9690  -13.4869  -28.8833 N   0  0  0  0  0  0  0  0  0  0  0  0
   -6.8578   -8.7252  -20.8374 C   0  0  1  0  0  0  0  0  0  0  0  0
   -7.0139   -7.3397  -20.6449 O   0  0  0  0  0  0  0  0  0  0  0  0
   -3.6080   -6.8497  -23.7658 C   0  0  0  0  0  0  0  0  0  0  0  0
   -6.8784   -4.1360  -23.9841 C   0  0  0  0  0  0  0  0  0  0  0  0
  1  2  1  1  0  0  0
  1  6  1  0  0  0  0
  1 21  1  0  0  0  0
  3  4  1  1  0  0  0
  3  8  1  0  0  0  0
  3 28  1  0  0  0  0
  5  9  1  0  0  0  0
  5 25  1  0  0  0  0
  5 29  1  6  0  0  0
  6  7  1  1  0  0  0
  6 11  1  0  0  0  0
  8 12  1  0  0  0  0
  9 10  1  6  0  0  0
  9 14  1  0  0  0  0
 11 16  1  0  0  0  0
 12 13  1  1  0  0  0
 12 17  1  0  0  0  0
 14 15  1  6  0  0  0
 14 18  1  0  0  0  0
 15 31  1  0  0  0  0
 16 20  1  0  0  0  0
 17  2  1  6  0  0  0
 17 22  1  0  0  0  0
 18 19  1  1  0  0  0
 18 24  1  0  0  0  0
 18 30  1  0  0  0  0
 20 21  1  0  0  0  0
 20 26  1  6  0  0  0
 22 23  1  6  0  0  0
 22 28  1  0  0  0  0
 24 25  1  0  0  0  0
 26 27  1  0  0  0  0
 28 29  1  6  0  0  0
M  END
>  <CHROM.1>
-114.51871035,136.71382715,-87.57124779,-171.68844679,36.86954236,114.33716339
-6.50576323,-8.78842604,-23.08317854,-2.12827562,1.17965776,1.23055292

>  <Name>
ligand

>  <RI>
0

>  <Rbt.Current_Directory>
/home/itssahil/PROJECTS/Mol_Feturizer/New_Systems/rnas/4F8U

>  <Rbt.Executable>
rbdock ($Id: //depot/dev/client3/rdock/2013.1/src/exe/rbdock.cxx#4 $)

>  <Rbt.Library>
libRbt.so (2013.1, Build901 2013/11/27)

>  <Rbt.Parameter_File>
/export/apps/rDock/src/rDock_2013.1_src/data/scripts/dock_solv.prm

>  <Rbt.Receptor>
prm/blind_docking_80.prm

>  <SCORE>
7.12068

>  <SCORE.INTER>
-6.13033

>  <SCORE.INTER.CONST>
1

>  <SCORE.INTER.POLAR>
0

>  <SCORE.INTER.ROT>
6

>  <SCORE.INTER.SOLV>
27.6039

>  <SCORE.INTER.VDW>
-20.8882

>  <SCORE.INTER.norm>
-0.197752

>  <SCORE.INTRA>
6.34826

>  <SCORE.INTRA.DIHEDRAL>
5.06661

>  <SCORE.INTRA.DIHEDRAL.0>
18.77

>  <SCORE.INTRA.POLAR>
0

>  <SCORE.INTRA.POLAR.0>
0

>  <SCORE.INTRA.REPUL>
0

>  <SCORE.INTRA.REPUL.0>
0

>  <SCORE.INTRA.SOLV>
1.57655

>  <SCORE.INTRA.SOLV.lig_0>
-77.2465

>  <SCORE.INTRA.VDW>
3.02668

>  <SCORE.INTRA.VDW.0>
-4.16072

>  <SCORE.INTRA.norm>
0.204783

>  <SCORE.RESTR>
6.90275

>  <SCORE.RESTR.CAVITY>
6.90275

>  <SCORE.RESTR.norm>
0.222669

>  <SCORE.SYSTEM>
0

>  <SCORE.SYSTEM.CONST>
0

>  <SCORE.SYSTEM.DIHEDRAL>
0

>  <SCORE.SYSTEM.SOLV>
0

>  <SCORE.SYSTEM.norm>
0

>  <SCORE.heavy>
31

>  <SCORE.norm>
0.229699

>  <RMSD>
10.113

$$$$
ligand
 OpenBabel11021811493D
libRbt.so/2013.1/901 2013/11/27
 31 33  0  0  0  0  0  0  0  0999 V2000
   -6.4857  -10.5110  -25.0450 C   0  0  2  0  0  0  0  0  0  0  0  0
   -7.3081  -10.9267  -23.9462 O   0  0  0  0  0  0  0  0  0  0  0  0
   -7.8391   -9.5078  -19.9427 C   0  0  2  0  0  0  0  0  0  0  0  0
   -7.5636   -9.1933  -18.5741 N   0  0  0  0  0  0  0  0  0  0  0  0
   -5.9847   -6.4790  -20.0796 C   0  0  2  0  0  0  0  0  0  0  0  0
   -7.3474   -9.5047  -25.8857 C   0  0  2  0  0  0  0  0  0  0  0  0
   -7.7674   -8.3915  -25.0418 N   0  0  0  0  0  0  0  0  0  0  0  0
   -7.6823  -11.0636  -20.1499 C   0  0  0  0  0  0  0  0  0  0  0  0
   -5.9702   -5.2000  -20.9725 C   0  0  2  0  0  0  0  0  0  0  0  0
   -7.2539   -4.6001  -20.9407 O   0  0  0  0  0  0  0  0  0  0  0  0
   -8.5922  -10.2453  -26.4873 C   0  0  0  0  0  0  0  0  0  0  0  0
   -7.9963  -11.4127  -21.6687 C   0  0  2  0  0  0  0  0  0  0  0  0
   -7.8504  -12.8725  -21.8759 N   0  0  0  0  0  0  0  0  0  0  0  0
   -5.5945   -5.6644  -22.4488 C   0  0  1  0  0  0  0  0  0  0  0  0
   -5.5902   -4.4920  -23.3883 N   0  0  0  0  0  0  0  0  0  0  0  0
   -8.1711  -11.5903  -27.1469 C   0  0  0  0  0  0  0  0  0  0  0  0
   -6.9923  -10.6170  -22.6161 C   0  0  2  0  0  0  0  0  0  0  0  0
   -4.1145   -6.3445  -22.4350 C   0  0  1  0  0  0  0  0  0  0  0  0
   -3.1187   -5.4425  -21.9927 O   0  0  0  0  0  0  0  0  0  0  0  0
   -7.0084  -12.1805  -26.8314 C   0  0  2  0  0  0  0  0  0  0  0  0
   -6.0753  -11.6318  -25.8843 O   0  0  0  0  0  0  0  0  0  0  0  0
   -7.1555   -9.0601  -22.3611 C   0  0  2  0  0  0  0  0  0  0  0  0
   -6.2398   -8.3337  -23.1904 O   0  0  0  0  0  0  0  0  0  0  0  0
   -4.1172   -7.5679  -21.4575 C   0  0  0  0  0  0  0  0  0  0  0  0
   -4.6286   -7.1364  -20.0933 O   0  0  0  0  0  0  0  0  0  0  0  0
   -6.5712  -13.5156  -27.4780 C   0  0  0  0  0  0  0  0  0  0  0  0
   -6.1929  -13.2836  -28.8649 N   0  0  0  0  0  0  0  0  0  0  0  0
   -6.8442   -8.7322  -20.8560 C   0  0  1  0  0  0  0  0  0  0  0  0
   -7.0044   -7.3466  -20.6683 O   0  0  0  0  0  0  0  0  0  0  0  0
   -3.6015   -6.8540  -23.7921 C   0  0  0  0  0  0  0  0  0  0  0  0
   -6.8820   -4.1486  -24.0126 C   0  0  0  0  0  0  0  0  0  0  0  0
  1  2  1  1  0  0  0
  1  6  1  0  0  0  0
  1 21  1  0  0  0  0
  3  4  1  1  0  0  0
  3  8  1  0  0  0  0
  3 28  1  0  0  0  0
  5  9  1  0  0  0  0
  5 25  1  0  0  0  0
  5 29  1  6  0  0  0
  6  7  1  1  0  0  0
  6 11  1  0  0  0  0
  8 12  1  0  0  0  0
  9 10  1  6  0  0  0
  9 14  1  0  0  0  0
 11 16  1  0  0  0  0
 12 13  1  1  0  0  0
 12 17  1  0  0  0  0
 14 15  1  6  0  0  0
 14 18  1  0  0  0  0
 15 31  1  0  0  0  0
 16 20  1  0  0  0  0
 17  2  1  6  0  0  0
 17 22  1  0  0  0  0
 18 19  1  1  0  0  0
 18 24  1  0  0  0  0
 18 30  1  0  0  0  0
 20 21  1  0  0  0  0
 20 26  1  6  0  0  0
 22 23  1  6  0  0  0
 22 28  1  0  0  0  0
 24 25  1  0  0  0  0
 26 27  1  0  0  0  0
 28 29  1  6  0  0  0
M  END
>  <CHROM.1>
-114.78681384,136.76817596,-87.35188677,-171.81101008,72.21039090,113.83031935
-6.48044369,-8.79692788,-23.09749029,-2.08129730,1.17580072,1.18345351

>  <Name>
ligand

>  <RI>
0

>  <Rbt.Current_Directory>
/home/itssahil/PROJECTS/Mol_Feturizer/New_Systems/rnas/4F8U

>  <Rbt.Executable>
rbdock ($Id: //depot/dev/client3/rdock/2013.1/src/exe/rbdock.cxx#4 $)

>  <Rbt.Library>
libRbt.so (2013.1, Build901 2013/11/27)

>  <Rbt.Parameter_File>
/export/apps/rDock/src/rDock_2013.1_src/data/scripts/dock_solv.prm

>  <Rbt.Receptor>
prm/blind_docking_80.prm

>  <SCORE>
7.92593

>  <SCORE.INTER>
-4.65978

>  <SCORE.INTER.CONST>
1

>  <SCORE.INTER.POLAR>
0

>  <SCORE.INTER.ROT>
6

>  <SCORE.INTER.SOLV>
31.5217

>  <SCORE.INTER.VDW>
-21.2138

>  <SCORE.INTER.norm>
-0.150315

>  <SCORE.INTRA>
5.84451

>  <SCORE.INTRA.DIHEDRAL>
5.46221

>  <SCORE.INTRA.DIHEDRAL.0>
18.77

>  <SCORE.INTRA.POLAR>
0

>  <SCORE.INTRA.POLAR.0>
0

>  <SCORE.INTRA.REPUL>
0

>  <SCORE.INTRA.REPUL.0>
0

>  <SCORE.INTRA.SOLV>
1.34948

>  <SCORE.INTRA.SOLV.lig_0>
-77.2465

>  <SCORE.INTRA.VDW>
2.43867

>  <SCORE.INTRA.VDW.0>
-4.16072

>  <SCORE.INTRA.norm>
0.188533

>  <SCORE.RESTR>
6.74119

>  <SCORE.RESTR.CAVITY>
6.74119

>  <SCORE.RESTR.norm>
0.217458

>  <SCORE.SYSTEM>
0

>  <SCORE.SYSTEM.CONST>
0

>  <SCORE.SYSTEM.DIHEDRAL>
0

>  <SCORE.SYSTEM.SOLV>
0

>  <SCORE.SYSTEM.norm>
0

>  <SCORE.heavy>
31

>  <SCORE.norm>
0.255675

>  <RMSD>
10.118

$$$$
ligand
 OpenBabel11021811493D
libRbt.so/2013.1/901 2013/11/27
 31 33  0  0  0  0  0  0  0  0999 V2000
   -6.4714  -10.5063  -25.0344 C   0  0  2  0  0  0  0  0  0  0  0  0
   -7.2974  -10.9275  -23.9404 O   0  0  0  0  0  0  0  0  0  0  0  0
   -7.8804   -9.4840  -19.9529 C   0  0  2  0  0  0  0  0  0  0  0  0
   -7.6214   -9.1576  -18.5838 N   0  0  0  0  0  0  0  0  0  0  0  0
   -6.0500   -6.4428  -20.0884 C   0  0  2  0  0  0  0  0  0  0  0  0
   -7.3285   -9.4919  -25.8700 C   0  0  2  0  0  0  0  0  0  0  0  0
   -7.7475   -8.3834  -25.0194 N   0  0  0  0  0  0  0  0  0  0  0  0
   -7.7096  -11.0400  -20.1472 C   0  0  0  0  0  0  0  0  0  0  0  0
   -6.0202   -5.1767  -20.9991 C   0  0  2  0  0  0  0  0  0  0  0  0
   -7.3058   -4.5801  -21.0026 O   0  0  0  0  0  0  0  0  0  0  0  0
   -8.5739  -10.2250  -26.4796 C   0  0  0  0  0  0  0  0  0  0  0  0
   -8.0053  -11.4024  -21.6666 C   0  0  2  0  0  0  0  0  0  0  0  0
   -7.8461  -12.8625  -21.8616 N   0  0  0  0  0  0  0  0  0  0  0  0
   -5.6126   -5.6612  -22.4604 C   0  0  1  0  0  0  0  0  0  0  0  0
   -5.5918   -4.5023  -23.4164 N   0  0  0  0  0  0  0  0  0  0  0  0
   -8.1549  -11.5665  -27.1475 C   0  0  0  0  0  0  0  0  0  0  0  0
   -6.9977  -10.6057  -22.6094 C   0  0  2  0  0  0  0  0  0  0  0  0
   -4.1315   -6.3367  -22.4061 C   0  0  1  0  0  0  0  0  0  0  0  0
   -3.1474   -5.4256  -21.9562 O   0  0  0  0  0  0  0  0  0  0  0  0
   -6.9945  -12.1619  -26.8335 C   0  0  2  0  0  0  0  0  0  0  0  0
   -6.0621  -11.6224  -25.8805 O   0  0  0  0  0  0  0  0  0  0  0  0
   -7.1755   -9.0484  -22.3673 C   0  0  2  0  0  0  0  0  0  0  0  0
   -6.2569   -8.3208  -23.1924 O   0  0  0  0  0  0  0  0  0  0  0  0
   -4.1514   -7.5460  -21.4113 C   0  0  0  0  0  0  0  0  0  0  0  0
   -4.6922   -7.0964  -20.0644 O   0  0  0  0  0  0  0  0  0  0  0  0
   -6.5593  -13.4937  -27.4883 C   0  0  0  0  0  0  0  0  0  0  0  0
   -6.1571  -13.2497  -28.8664 N   0  0  0  0  0  0  0  0  0  0  0  0
   -6.8822   -8.7073  -20.8616 C   0  0  1  0  0  0  0  0  0  0  0  0
   -7.0550   -7.3216  -20.6855 O   0  0  0  0  0  0  0  0  0  0  0  0
   -3.5890   -6.8641  -23.7447 C   0  0  0  0  0  0  0  0  0  0  0  0
   -6.8879   -4.1169  -24.0063 C   0  0  0  0  0  0  0  0  0  0  0  0
  1  2  1  1  0  0  0
  1  6  1  0  0  0  0
  1 21  1  0  0  0  0
  3  4  1  1  0  0  0
  3  8  1  0  0  0  0
  3 28  1  0  0  0  0
  5  9  1  0  0  0  0
  5 25  1  0  0  0  0
  5 29  1  6  0  0  0
  6  7  1  1  0  0  0
  6 11  1  0  0  0  0
  8 12  1  0  0  0  0
  9 10  1  6  0  0  0
  9 14  1  0  0  0  0
 11 16  1  0  0  0  0
 12 13  1  1  0  0  0
 12 17  1  0  0  0  0
 14 15  1  6  0  0  0
 14 18  1  0  0  0  0
 15 31  1  0  0  0  0
 16 20  1  0  0  0  0
 17  2  1  6  0  0  0
 17 22  1  0  0  0  0
 18 19  1  1  0  0  0
 18 24  1  0  0  0  0
 18 30  1  0  0  0  0
 20 21  1  0  0  0  0
 20 26  1  6  0  0  0
 22 23  1  6  0  0  0
 22 28  1  0  0  0  0
 24 25  1  0  0  0  0
 26 27  1  0  0  0  0
 28 29  1  6  0  0  0
M  END
>  <CHROM.1>
-113.52503734,136.13547452,-83.56677872,-172.19965832,73.10422028,113.59949147
-6.49399277,-8.78003220,-23.09477029,-2.05966291,1.17485156,1.16244086

>  <Name>
ligand

>  <RI>
0

>  <Rbt.Current_Directory>
/home/itssahil/PROJECTS/Mol_Feturizer/New_Systems/rnas/4F8U

>  <Rbt.Executable>
rbdock ($Id: //depot/dev/client3/rdock/2013.1/src/exe/rbdock.cxx#4 $)

>  <Rbt.Library>
libRbt.so (2013.1, Build901 2013/11/27)

>  <Rbt.Parameter_File>
/export/apps/rDock/src/rDock_2013.1_src/data/scripts/dock_solv.prm

>  <Rbt.Receptor>
prm/blind_docking_80.prm

>  <SCORE>
8.23324

>  <SCORE.INTER>
-4.82911

>  <SCORE.INTER.CONST>
1

>  <SCORE.INTER.POLAR>
0

>  <SCORE.INTER.ROT>
6

>  <SCORE.INTER.SOLV>
31.86

>  <SCORE.INTER.VDW>
-21.4394

>  <SCORE.INTER.norm>
-0.155778

>  <SCORE.INTRA>
6.38126

>  <SCORE.INTRA.DIHEDRAL>
5.29426

>  <SCORE.INTRA.DIHEDRAL.0>
18.77

>  <SCORE.INTRA.POLAR>
0

>  <SCORE.INTRA.POLAR.0>
0

>  <SCORE.INTRA.REPUL>
0

>  <SCORE.INTRA.REPUL.0>
0

>  <SCORE.INTRA.SOLV>
1.47882

>  <SCORE.INTRA.SOLV.lig_0>
-77.2465

>  <SCORE.INTRA.VDW>
2.99472

>  <SCORE.INTRA.VDW.0>
-4.16072

>  <SCORE.INTRA.norm>
0.205847

>  <SCORE.RESTR>
6.68109

>  <SCORE.RESTR.CAVITY>
6.68109

>  <SCORE.RESTR.norm>
0.215519

>  <SCORE.SYSTEM>
0

>  <SCORE.SYSTEM.CONST>
0

>  <SCORE.SYSTEM.DIHEDRAL>
0

>  <SCORE.SYSTEM.SOLV>
0

>  <SCORE.SYSTEM.norm>
0

>  <SCORE.heavy>
31

>  <SCORE.norm>
0.265588

>  <RMSD>
10.122

$$$$
ligand
 OpenBabel11021811493D
libRbt.so/2013.1/901 2013/11/27
 31 33  0  0  0  0  0  0  0  0999 V2000
   -6.8388   -9.1125  -26.6496 C   0  0  2  0  0  0  0  0  0  0  0  0
   -7.5883   -9.3985  -25.4609 O   0  0  0  0  0  0  0  0  0  0  0  0
   -7.3032  -11.4827  -21.7329 C   0  0  2  0  0  0  0  0  0  0  0  0
   -6.7409  -12.0972  -20.5691 N   0  0  0  0  0  0  0  0  0  0  0  0
   -6.6391   -8.6959  -19.5733 C   0  0  2  0  0  0  0  0  0  0  0  0
   -7.8354   -8.4200  -27.6442 C   0  0  2  0  0  0  0  0  0  0  0  0
   -8.3943   -7.2222  -27.0271 N   0  0  0  0  0  0  0  0  0  0  0  0
   -6.7321  -12.2016  -23.0154 C   0  0  0  0  0  0  0  0  0  0  0  0
   -7.1363   -7.2182  -19.5228 C   0  0  2  0  0  0  0  0  0  0  0  0
   -8.5125   -7.2054  -19.1838 O   0  0  0  0  0  0  0  0  0  0  0  0
   -8.9742   -9.4234  -28.0394 C   0  0  0  0  0  0  0  0  0  0  0  0
   -7.3635  -11.5234  -24.3072 C   0  0  2  0  0  0  0  0  0  0  0  0
   -6.8326  -12.1899  -25.5193 N   0  0  0  0  0  0  0  0  0  0  0  0
   -6.8997   -6.5954  -20.9693 C   0  0  1  0  0  0  0  0  0  0  0  0
   -7.3845   -5.1743  -21.0203 N   0  0  0  0  0  0  0  0  0  0  0  0
   -8.3815  -10.8082  -28.4296 C   0  0  0  0  0  0  0  0  0  0  0  0
   -6.9999   -9.9722  -24.3253 C   0  0  2  0  0  0  0  0  0  0  0  0
   -5.3080   -6.6306  -21.3128 C   0  0  1  0  0  0  0  0  0  0  0  0
   -4.5467   -5.8829  -20.3841 O   0  0  0  0  0  0  0  0  0  0  0  0
   -7.1472  -11.1651  -28.0437 C   0  0  2  0  0  0  0  0  0  0  0  0
   -6.2884  -10.3180  -27.2603 O   0  0  0  0  0  0  0  0  0  0  0  0
   -7.5627   -9.2877  -23.0099 C   0  0  2  0  0  0  0  0  0  0  0  0
   -7.2207   -7.8960  -23.0025 O   0  0  0  0  0  0  0  0  0  0  0  0
   -4.8010   -8.1113  -21.2619 C   0  0  0  0  0  0  0  0  0  0  0  0
   -5.1754   -8.7386  -19.9295 O   0  0  0  0  0  0  0  0  0  0  0  0
   -6.5396  -12.5356  -28.4236 C   0  0  0  0  0  0  0  0  0  0  0  0
   -5.9510  -12.4552  -29.7530 N   0  0  0  0  0  0  0  0  0  0  0  0
   -6.9311   -9.9705  -21.7432 C   0  0  1  0  0  0  0  0  0  0  0  0
   -7.4573   -9.3413  -20.5994 O   0  0  0  0  0  0  0  0  0  0  0  0
   -4.9089   -6.0653  -22.6860 C   0  0  0  0  0  0  0  0  0  0  0  0
   -7.7728   -4.6622  -22.3482 C   0  0  0  0  0  0  0  0  0  0  0  0
  1  2  1  1  0  0  0
  1  6  1  0  0  0  0
  1 21  1  0  0  0  0
  3  4  1  1  0  0  0
  3  8  1  0  0  0  0
  3 28  1  0  0  0  0
  5  9  1  0  0  0  0
  5 25  1  0  0  0  0
  5 29  1  6  0  0  0
  6  7  1  1  0  0  0
  6 11  1  0  0  0  0
  8 12  1  0  0  0  0
  9 10  1  6  0  0  0
  9 14  1  0  0  0  0
 11 16  1  0  0  0  0
 12 13  1  6  0  0  0
 12 17  1  0  0  0  0
 14 15  1  1  0  0  0
 14 18  1  0  0  0  0
 15 31  1  0  0  0  0
 16 20  1  0  0  0  0
 17  2  1  6  0  0  0
 17 22  1  0  0  0  0
 18 19  1  1  0  0  0
 18 24  1  0  0  0  0
 18 30  1  0  0  0  0
 20 21  1  0  0  0  0
 20 26  1  6  0  0  0
 22 23  1  6  0  0  0
 22 28  1  0  0  0  0
 24 25  1  0  0  0  0
 26 27  1  0  0  0  0
 28 29  1  1  0  0  0
M  END
>  <CHROM.1>
-177.25190994,121.84103791,-154.63035024,-101.22483869,84.17191479,118.14379628
-6.90013745,-9.05451972,-23.60456901,2.29049135,1.43356683,-2.75082978

>  <Name>
ligand

>  <RI>
0

>  <Rbt.Current_Directory>
/home/itssahil/PROJECTS/Mol_Feturizer/New_Systems/rnas/4F8U

>  <Rbt.Executable>
rbdock ($Id: //depot/dev/client3/rdock/2013.1/src/exe/rbdock.cxx#4 $)

>  <Rbt.Library>
libRbt.so (2013.1, Build901 2013/11/27)

>  <Rbt.Parameter_File>
/export/apps/rDock/src/rDock_2013.1_src/data/scripts/dock_solv.prm

>  <Rbt.Receptor>
prm/blind_docking_100.prm

>  <SCORE>
29.2067

>  <SCORE.INTER>
4.04598

>  <SCORE.INTER.CONST>
1

>  <SCORE.INTER.POLAR>
0

>  <SCORE.INTER.ROT>
6

>  <SCORE.INTER.SOLV>
24.309

>  <SCORE.INTER.VDW>
-13.0057

>  <SCORE.INTER.norm>
0.130515

>  <SCORE.INTRA>
9.43463

>  <SCORE.INTRA.DIHEDRAL>
4.61155

>  <SCORE.INTRA.DIHEDRAL.0>
18.77

>  <SCORE.INTRA.POLAR>
0

>  <SCORE.INTRA.POLAR.0>
0

>  <SCORE.INTRA.REPUL>
0

>  <SCORE.INTRA.REPUL.0>
0

>  <SCORE.INTRA.SOLV>
3.14592

>  <SCORE.INTRA.SOLV.lig_0>
-77.2465

>  <SCORE.INTRA.VDW>
5.55589

>  <SCORE.INTRA.VDW.0>
-4.16072

>  <SCORE.INTRA.norm>
0.304343

>  <SCORE.RESTR>
15.7261

>  <SCORE.RESTR.CAVITY>
15.7261

>  <SCORE.RESTR.norm>
0.507293

>  <SCORE.SYSTEM>
0

>  <SCORE.SYSTEM.CONST>
0

>  <SCORE.SYSTEM.DIHEDRAL>
0

>  <SCORE.SYSTEM.SOLV>
0

>  <SCORE.SYSTEM.norm>
0

>  <SCORE.heavy>
31

>  <SCORE.norm>
0.942151

>  <RMSD>
10.125

$$$$
ligand
 OpenBabel11021811493D
libRbt.so/2013.1/901 2013/11/27
 31 33  0  0  0  0  0  0  0  0999 V2000
   -6.8092  -10.1959  -25.6183 C   0  0  2  0  0  0  0  0  0  0  0  0
   -7.5238  -10.4422  -24.3996 O   0  0  0  0  0  0  0  0  0  0  0  0
   -7.1320   -9.9997  -20.1600 C   0  0  2  0  0  0  0  0  0  0  0  0
   -6.5428   -9.9444  -18.8571 N   0  0  0  0  0  0  0  0  0  0  0  0
   -5.6748   -6.7934  -19.9239 C   0  0  2  0  0  0  0  0  0  0  0  0
   -7.7261   -9.2656  -26.4877 C   0  0  2  0  0  0  0  0  0  0  0  0
   -8.0256   -8.0423  -25.7516 N   0  0  0  0  0  0  0  0  0  0  0  0
   -6.8902  -11.4346  -20.7686 C   0  0  0  0  0  0  0  0  0  0  0  0
   -5.9375   -5.3619  -20.4851 C   0  0  2  0  0  0  0  0  0  0  0  0
   -7.2336   -4.9430  -20.0935 O   0  0  0  0  0  0  0  0  0  0  0  0
   -9.0464  -10.0236  -26.8648 C   0  0  0  0  0  0  0  0  0  0  0  0
   -7.5521  -11.4973  -22.2127 C   0  0  2  0  0  0  0  0  0  0  0  0
   -7.3297  -12.8412  -22.7954 N   0  0  0  0  0  0  0  0  0  0  0  0
   -5.8227   -5.4528  -22.0709 C   0  0  1  0  0  0  0  0  0  0  0  0
   -6.0960   -4.1159  -22.6996 N   0  0  0  0  0  0  0  0  0  0  0  0
   -8.7329  -11.4544  -27.3901 C   0  0  0  0  0  0  0  0  0  0  0  0
   -6.9053  -10.3773  -23.1434 C   0  0  2  0  0  0  0  0  0  0  0  0
   -4.3194   -5.9351  -22.4714 C   0  0  1  0  0  0  0  0  0  0  0  0
   -3.3312   -5.0334  -22.0116 O   0  0  0  0  0  0  0  0  0  0  0  0
   -7.5601  -12.0477  -27.1212 C   0  0  2  0  0  0  0  0  0  0  0  0
   -6.5189  -11.4257  -26.3480 O   0  0  0  0  0  0  0  0  0  0  0  0
   -7.1411   -8.9524  -22.4880 C   0  0  2  0  0  0  0  0  0  0  0  0
   -6.5423   -7.9377  -23.3039 O   0  0  0  0  0  0  0  0  0  0  0  0
   -4.0330   -7.3293  -21.8184 C   0  0  0  0  0  0  0  0  0  0  0  0
   -4.2997   -7.2630  -20.3240 O   0  0  0  0  0  0  0  0  0  0  0  0
   -7.2289  -13.4677  -27.6366 C   0  0  0  0  0  0  0  0  0  0  0  0
   -6.0730  -13.4074  -28.5201 N   0  0  0  0  0  0  0  0  0  0  0  0
   -6.4834   -8.9078  -21.0614 C   0  0  1  0  0  0  0  0  0  0  0  0
   -6.7177   -7.6335  -20.5117 O   0  0  0  0  0  0  0  0  0  0  0  0
   -4.0434   -6.0784  -23.9773 C   0  0  0  0  0  0  0  0  0  0  0  0
   -7.5077   -3.6901  -22.7449 C   0  0  0  0  0  0  0  0  0  0  0  0
  1  2  1  1  0  0  0
  1  6  1  0  0  0  0
  1 21  1  0  0  0  0
  3  4  1  1  0  0  0
  3  8  1  0  0  0  0
  3 28  1  0  0  0  0
  5  9  1  0  0  0  0
  5 25  1  0  0  0  0
  5 29  1  6  0  0  0
  6  7  1  1  0  0  0
  6 11  1  0  0  0  0
  8 12  1  0  0  0  0
  9 10  1  6  0  0  0
  9 14  1  0  0  0  0
 11 16  1  0  0  0  0
 12 13  1  6  0  0  0
 12 17  1  0  0  0  0
 14 15  1  6  0  0  0
 14 18  1  0  0  0  0
 15 31  1  0  0  0  0
 16 20  1  0  0  0  0
 17  2  1  6  0  0  0
 17 22  1  0  0  0  0
 18 19  1  1  0  0  0
 18 24  1  0  0  0  0
 18 30  1  0  0  0  0
 20 21  1  0  0  0  0
 20 26  1  6  0  0  0
 22 23  1  6  0  0  0
 22 28  1  0  0  0  0
 24 25  1  0  0  0  0
 26 27  1  0  0  0  0
 28 29  1  1  0  0  0
M  END
>  <CHROM.1>
-135.29602520,135.58849535,-75.39241043,-144.35553023,118.15273368,110.84031097
-6.52518492,-8.71074414,-23.21739217,-2.83026064,1.33298462,1.98801230

>  <Name>
ligand

>  <RI>
0

>  <Rbt.Current_Directory>
/home/itssahil/PROJECTS/Mol_Feturizer/New_Systems/rnas/4F8U

>  <Rbt.Executable>
rbdock ($Id: //depot/dev/client3/rdock/2013.1/src/exe/rbdock.cxx#4 $)

>  <Rbt.Library>
libRbt.so (2013.1, Build901 2013/11/27)

>  <Rbt.Parameter_File>
/export/apps/rDock/src/rDock_2013.1_src/data/scripts/dock_solv.prm

>  <Rbt.Receptor>
prm/blind_docking_80.prm

>  <SCORE>
16.2275

>  <SCORE.INTER>
3.00927

>  <SCORE.INTER.CONST>
1

>  <SCORE.INTER.POLAR>
0

>  <SCORE.INTER.ROT>
6

>  <SCORE.INTER.SOLV>
28.7805

>  <SCORE.INTER.VDW>
-15.1873

>  <SCORE.INTER.norm>
0.0970732

>  <SCORE.INTRA>
4.38238

>  <SCORE.INTRA.DIHEDRAL>
6.71039

>  <SCORE.INTRA.DIHEDRAL.0>
18.77

>  <SCORE.INTRA.POLAR>
0

>  <SCORE.INTRA.POLAR.0>
0

>  <SCORE.INTRA.REPUL>
0

>  <SCORE.INTRA.REPUL.0>
0

>  <SCORE.INTRA.SOLV>
0.530268

>  <SCORE.INTRA.SOLV.lig_0>
-77.2465

>  <SCORE.INTRA.VDW>
0.762056

>  <SCORE.INTRA.VDW.0>
-4.16072

>  <SCORE.INTRA.norm>
0.141367

>  <SCORE.RESTR>
8.83581

>  <SCORE.RESTR.CAVITY>
8.83581

>  <SCORE.RESTR.norm>
0.285026

>  <SCORE.SYSTEM>
0

>  <SCORE.SYSTEM.CONST>
0

>  <SCORE.SYSTEM.DIHEDRAL>
0

>  <SCORE.SYSTEM.SOLV>
0

>  <SCORE.SYSTEM.norm>
0

>  <SCORE.heavy>
31

>  <SCORE.norm>
0.523467

>  <RMSD>
10.152

$$$$
ligand
 OpenBabel11021811493D
libRbt.so/2013.1/901 2013/11/27
 31 33  0  0  0  0  0  0  0  0999 V2000
   -6.7980  -11.6909  -25.3151 C   0  0  2  0  0  0  0  0  0  0  0  0
   -7.6169  -11.2814  -24.2113 O   0  0  0  0  0  0  0  0  0  0  0  0
   -7.4343   -9.9570  -20.1448 C   0  0  2  0  0  0  0  0  0  0  0  0
   -6.9140   -9.4472  -18.9130 N   0  0  0  0  0  0  0  0  0  0  0  0
   -7.3220   -6.5064  -20.3944 C   0  0  2  0  0  0  0  0  0  0  0  0
   -6.3582  -10.3764  -26.0503 C   0  0  2  0  0  0  0  0  0  0  0  0
   -5.6540   -9.5029  -25.1183 N   0  0  0  0  0  0  0  0  0  0  0  0
   -6.6615  -11.2811  -20.5156 C   0  0  0  0  0  0  0  0  0  0  0  0
   -7.2168   -5.5367  -21.6117 C   0  0  2  0  0  0  0  0  0  0  0  0
   -8.5184   -5.2770  -22.1090 O   0  0  0  0  0  0  0  0  0  0  0  0
   -7.6170   -9.6539  -26.6447 C   0  0  0  0  0  0  0  0  0  0  0  0
   -7.2458  -11.8508  -21.8800 C   0  0  2  0  0  0  0  0  0  0  0  0
   -6.5257  -13.0947  -22.2396 N   0  0  0  0  0  0  0  0  0  0  0  0
   -6.3206   -6.2612  -22.7109 C   0  0  1  0  0  0  0  0  0  0  0  0
   -6.1938   -5.4057  -23.9394 N   0  0  0  0  0  0  0  0  0  0  0  0
   -8.5248  -10.6611  -27.4083 C   0  0  0  0  0  0  0  0  0  0  0  0
   -7.0732  -10.7604  -23.0290 C   0  0  2  0  0  0  0  0  0  0  0  0
   -4.8381   -6.5368  -22.0952 C   0  0  1  0  0  0  0  0  0  0  0  0
   -4.1869   -5.3385  -21.7195 O   0  0  0  0  0  0  0  0  0  0  0  0
   -8.4354  -11.9804  -27.1824 C   0  0  2  0  0  0  0  0  0  0  0  0
   -7.5140  -12.5606  -26.2426 O   0  0  0  0  0  0  0  0  0  0  0  0
   -7.8366   -9.4346  -22.6109 C   0  0  2  0  0  0  0  0  0  0  0  0
   -7.6685   -8.4369  -23.6259 O   0  0  0  0  0  0  0  0  0  0  0  0
   -4.9679   -7.4298  -20.8154 C   0  0  0  0  0  0  0  0  0  0  0  0
   -5.9498   -6.7976  -19.8434 O   0  0  0  0  0  0  0  0  0  0  0  0
   -9.3268  -12.9972  -27.9330 C   0  0  0  0  0  0  0  0  0  0  0  0
  -10.3361  -13.5231  -27.0245 N   0  0  0  0  0  0  0  0  0  0  0  0
   -7.2493   -8.8861  -21.2604 C   0  0  1  0  0  0  0  0  0  0  0  0
   -7.9537   -7.7159  -20.9206 O   0  0  0  0  0  0  0  0  0  0  0  0
   -3.8450   -7.2397  -23.0356 C   0  0  0  0  0  0  0  0  0  0  0  0
   -5.6536   -4.0477  -23.7385 C   0  0  0  0  0  0  0  0  0  0  0  0
  1  2  1  1  0  0  0
  1  6  1  0  0  0  0
  1 21  1  0  0  0  0
  3  4  1  1  0  0  0
  3  8  1  0  0  0  0
  3 28  1  0  0  0  0
  5  9  1  0  0  0  0
  5 25  1  0  0  0  0
  5 29  1  6  0  0  0
  6  7  1  1  0  0  0
  6 11  1  0  0  0  0
  8 12  1  0  0  0  0
  9 10  1  6  0  0  0
  9 14  1  0  0  0  0
 11 16  1  0  0  0  0
 12 13  1  6  0  0  0
 12 17  1  0  0  0  0
 14 15  1  6  0  0  0
 14 18  1  0  0  0  0
 15 31  1  0  0  0  0
 16 20  1  0  0  0  0
 17  2  1  6  0  0  0
 17 22  1  0  0  0  0
 18 19  1  1  0  0  0
 18 24  1  0  0  0  0
 18 30  1  0  0  0  0
 20 21  1  0  0  0  0
 20 26  1  6  0  0  0
 22 23  1  6  0  0  0
 22 28  1  0  0  0  0
 24 25  1  0  0  0  0
 26 27  1  0  0  0  0
 28 29  1  1  0  0  0
M  END
>  <CHROM.1>
-77.53793033,100.66632340,56.46115130,-108.50449441,-107.28283591,102.79180730
-6.95626153,-9.03980946,-23.23076333,2.86940087,-1.28163033,-1.16156386

>  <Name>
ligand

>  <RI>
0

>  <Rbt.Current_Directory>
/home/itssahil/PROJECTS/Mol_Feturizer/New_Systems/rnas/4F8U

>  <Rbt.Executable>
rbdock ($Id: //depot/dev/client3/rdock/2013.1/src/exe/rbdock.cxx#4 $)

>  <Rbt.Library>
libRbt.so (2013.1, Build901 2013/11/27)

>  <Rbt.Parameter_File>
/export/apps/rDock/src/rDock_2013.1_src/data/scripts/dock_solv.prm

>  <Rbt.Receptor>
prm/blind_docking_80.prm

>  <SCORE>
10.7524

>  <SCORE.INTER>
-6.60723

>  <SCORE.INTER.CONST>
1

>  <SCORE.INTER.POLAR>
0

>  <SCORE.INTER.ROT>
6

>  <SCORE.INTER.SOLV>
31.3213

>  <SCORE.INTER.VDW>
-22.4452

>  <SCORE.INTER.norm>
-0.213137

>  <SCORE.INTRA>
7.63865

>  <SCORE.INTRA.DIHEDRAL>
2.44553

>  <SCORE.INTRA.DIHEDRAL.0>
18.77

>  <SCORE.INTRA.POLAR>
0

>  <SCORE.INTRA.POLAR.0>
0

>  <SCORE.INTRA.REPUL>
0.00507071

>  <SCORE.INTRA.REPUL.0>
0

>  <SCORE.INTRA.SOLV>
4.56184

>  <SCORE.INTRA.SOLV.lig_0>
-77.2465

>  <SCORE.INTRA.VDW>
4.10961

>  <SCORE.INTRA.VDW.0>
-4.16072

>  <SCORE.INTRA.norm>
0.246408

>  <SCORE.RESTR>
9.72099

>  <SCORE.RESTR.CAVITY>
9.72099

>  <SCORE.RESTR.norm>
0.31358

>  <SCORE.SYSTEM>
0

>  <SCORE.SYSTEM.CONST>
0

>  <SCORE.SYSTEM.DIHEDRAL>
0

>  <SCORE.SYSTEM.SOLV>
0

>  <SCORE.SYSTEM.norm>
0

>  <SCORE.heavy>
31

>  <SCORE.norm>
0.346852

>  <RMSD>
10.187

$$$$
ligand
 OpenBabel11021811493D
libRbt.so/2013.1/901 2013/11/27
 31 33  0  0  0  0  0  0  0  0999 V2000
   -6.7246  -11.3293  -24.9566 C   0  0  2  0  0  0  0  0  0  0  0  0
   -7.5817  -10.7069  -23.9899 O   0  0  0  0  0  0  0  0  0  0  0  0
   -7.7590   -9.3593  -19.9308 C   0  0  2  0  0  0  0  0  0  0  0  0
   -7.3514   -9.0230  -18.6008 N   0  0  0  0  0  0  0  0  0  0  0  0
   -6.2654   -6.1792  -20.1654 C   0  0  2  0  0  0  0  0  0  0  0  0
   -6.2028  -10.1803  -25.8890 C   0  0  2  0  0  0  0  0  0  0  0  0
   -5.5147   -9.1721  -25.0902 N   0  0  0  0  0  0  0  0  0  0  0  0
   -7.4766  -10.8912  -20.1786 C   0  0  0  0  0  0  0  0  0  0  0  0
   -6.1855   -5.0182  -21.2041 C   0  0  2  0  0  0  0  0  0  0  0  0
   -7.4693   -4.4340  -21.3433 O   0  0  0  0  0  0  0  0  0  0  0  0
   -7.4044   -9.5437  -26.6705 C   0  0  0  0  0  0  0  0  0  0  0  0
   -7.9371  -11.2654  -21.6535 C   0  0  2  0  0  0  0  0  0  0  0  0
   -7.6750  -12.7029  -21.8985 N   0  0  0  0  0  0  0  0  0  0  0  0
   -5.6963   -5.6542  -22.5798 C   0  0  1  0  0  0  0  0  0  0  0  0
   -5.6228   -4.6047  -23.6524 N   0  0  0  0  0  0  0  0  0  0  0  0
   -8.3087  -10.6476  -27.2910 C   0  0  0  0  0  0  0  0  0  0  0  0
   -7.1386  -10.3712  -22.7031 C   0  0  2  0  0  0  0  0  0  0  0  0
   -4.2202   -6.3101  -22.3708 C   0  0  1  0  0  0  0  0  0  0  0  0
   -3.2634   -5.3493  -21.9677 O   0  0  0  0  0  0  0  0  0  0  0  0
   -8.2774  -11.9068  -26.8293 C   0  0  2  0  0  0  0  0  0  0  0  0
   -7.4245  -12.3325  -25.7522 O   0  0  0  0  0  0  0  0  0  0  0  0
   -7.4216   -8.8390  -22.4070 C   0  0  2  0  0  0  0  0  0  0  0  0
   -6.6891   -8.0228  -23.3298 O   0  0  0  0  0  0  0  0  0  0  0  0
   -4.2950   -7.4055  -21.2542 C   0  0  0  0  0  0  0  0  0  0  0  0
   -4.9106   -6.8173  -19.9957 O   0  0  0  0  0  0  0  0  0  0  0  0
   -9.1663  -13.0183  -27.4345 C   0  0  0  0  0  0  0  0  0  0  0  0
   -8.4536  -13.6728  -28.5226 N   0  0  0  0  0  0  0  0  0  0  0  0
   -6.9634   -8.4862  -20.9458 C   0  0  1  0  0  0  0  0  0  0  0  0
   -7.2347   -7.1238  -20.7194 O   0  0  0  0  0  0  0  0  0  0  0  0
   -3.6032   -6.9747  -23.6126 C   0  0  0  0  0  0  0  0  0  0  0  0
   -6.8213   -4.4478  -24.4981 C   0  0  0  0  0  0  0  0  0  0  0  0
  1  2  1  1  0  0  0
  1  6  1  0  0  0  0
  1 21  1  0  0  0  0
  3  4  1  1  0  0  0
  3  8  1  0  0  0  0
  3 28  1  0  0  0  0
  5  9  1  0  0  0  0
  5 25  1  0  0  0  0
  5 29  1  6  0  0  0
  6  7  1  1  0  0  0
  6 11  1  0  0  0  0
  8 12  1  0  0  0  0
  9 10  1  6  0  0  0
  9 14  1  0  0  0  0
 11 16  1  0  0  0  0
 12 13  1  6  0  0  0
 12 17  1  0  0  0  0
 14 15  1  6  0  0  0
 14 18  1  0  0  0  0
 15 31  1  0  0  0  0
 16 20  1  0  0  0  0
 17  2  1  6  0  0  0
 17 22  1  0  0  0  0
 18 19  1  1  0  0  0
 18 24  1  0  0  0  0
 18 30  1  0  0  0  0
 20 21  1  0  0  0  0
 20 26  1  6  0  0  0
 22 23  1  6  0  0  0
 22 28  1  0  0  0  0
 24 25  1  0  0  0  0
 26 27  1  0  0  0  0
 28 29  1  1  0  0  0
M  END
>  <CHROM.1>
-98.13099558,124.80415258,-93.18847728,-114.52682673,90.01364770,109.80323307
-6.66683728,-8.72976911,-23.14092922,2.38657687,-1.17145222,-1.67769573

>  <Name>
ligand

>  <RI>
0

>  <Rbt.Current_Directory>
/home/itssahil/PROJECTS/Mol_Feturizer/New_Systems/rnas/4F8U

>  <Rbt.Executable>
rbdock ($Id: //depot/dev/client3/rdock/2013.1/src/exe/rbdock.cxx#4 $)

>  <Rbt.Library>
libRbt.so (2013.1, Build901 2013/11/27)

>  <Rbt.Parameter_File>
/export/apps/rDock/src/rDock_2013.1_src/data/scripts/dock_solv.prm

>  <Rbt.Receptor>
prm/blind_docking_80.prm

>  <SCORE>
9.35317

>  <SCORE.INTER>
-7.96892

>  <SCORE.INTER.CONST>
1

>  <SCORE.INTER.POLAR>
0

>  <SCORE.INTER.ROT>
6

>  <SCORE.INTER.SOLV>
26.3549

>  <SCORE.INTER.VDW>
-21.6976

>  <SCORE.INTER.norm>
-0.257062

>  <SCORE.INTRA>
8.57872

>  <SCORE.INTRA.DIHEDRAL>
10.4921

>  <SCORE.INTRA.DIHEDRAL.0>
18.77

>  <SCORE.INTRA.POLAR>
0

>  <SCORE.INTRA.POLAR.0>
0

>  <SCORE.INTRA.REPUL>
0

>  <SCORE.INTRA.REPUL.0>
0

>  <SCORE.INTRA.SOLV>
3.19044

>  <SCORE.INTRA.SOLV.lig_0>
-77.2465

>  <SCORE.INTRA.VDW>
1.73744

>  <SCORE.INTRA.VDW.0>
-4.16072

>  <SCORE.INTRA.norm>
0.276733

>  <SCORE.RESTR>
8.74337

>  <SCORE.RESTR.CAVITY>
8.74337

>  <SCORE.RESTR.norm>
0.282044

>  <SCORE.SYSTEM>
0

>  <SCORE.SYSTEM.CONST>
0

>  <SCORE.SYSTEM.DIHEDRAL>
0

>  <SCORE.SYSTEM.SOLV>
0

>  <SCORE.SYSTEM.norm>
0

>  <SCORE.heavy>
31

>  <SCORE.norm>
0.301715

>  <RMSD>
10.190

$$$$
ligand
 OpenBabel11021811493D
libRbt.so/2013.1/901 2013/11/27
 31 33  0  0  0  0  0  0  0  0999 V2000
   -6.7029  -11.6346  -25.2700 C   0  0  2  0  0  0  0  0  0  0  0  0
   -7.5608  -11.2854  -24.1752 O   0  0  0  0  0  0  0  0  0  0  0  0
   -7.5519   -9.9174  -20.1191 C   0  0  2  0  0  0  0  0  0  0  0  0
   -7.0815   -9.4093  -18.8666 N   0  0  0  0  0  0  0  0  0  0  0  0
   -7.3132   -6.4743  -20.4021 C   0  0  2  0  0  0  0  0  0  0  0  0
   -6.3498  -10.2915  -26.0003 C   0  0  2  0  0  0  0  0  0  0  0  0
   -5.7196   -9.3709  -25.0605 N   0  0  0  0  0  0  0  0  0  0  0  0
   -6.8041  -11.2701  -20.4338 C   0  0  0  0  0  0  0  0  0  0  0  0
   -7.1876   -5.4934  -21.6085 C   0  0  2  0  0  0  0  0  0  0  0  0
   -8.4824   -5.2127  -22.1120 O   0  0  0  0  0  0  0  0  0  0  0  0
   -7.6502   -9.6598  -26.6082 C   0  0  0  0  0  0  0  0  0  0  0  0
   -7.3331  -11.8375  -21.8215 C   0  0  2  0  0  0  0  0  0  0  0  0
   -6.6360  -13.1083  -22.1286 N   0  0  0  0  0  0  0  0  0  0  0  0
   -6.2926   -6.2174  -22.7089 C   0  0  1  0  0  0  0  0  0  0  0  0
   -6.1467   -5.3507  -23.9275 N   0  0  0  0  0  0  0  0  0  0  0  0
   -8.4757  -10.7283  -27.3818 C   0  0  0  0  0  0  0  0  0  0  0  0
   -7.0640  -10.7676  -22.9711 C   0  0  2  0  0  0  0  0  0  0  0  0
   -4.8178   -6.5173  -22.0859 C   0  0  1  0  0  0  0  0  0  0  0  0
   -4.1549   -5.3311  -21.6932 O   0  0  0  0  0  0  0  0  0  0  0  0
   -8.2952  -12.0381  -27.1552 C   0  0  2  0  0  0  0  0  0  0  0  0
   -7.3451  -12.5521  -26.2055 O   0  0  0  0  0  0  0  0  0  0  0  0
   -7.8050   -9.4129  -22.6086 C   0  0  2  0  0  0  0  0  0  0  0  0
   -7.5505   -8.4337  -23.6237 O   0  0  0  0  0  0  0  0  0  0  0  0
   -4.9675   -7.4220  -20.8165 C   0  0  0  0  0  0  0  0  0  0  0  0
   -5.9485   -6.7880  -19.8447 O   0  0  0  0  0  0  0  0  0  0  0  0
   -9.1037  -13.1151  -27.9155 C   0  0  0  0  0  0  0  0  0  0  0  0
   -8.2071  -13.8886  -28.7630 N   0  0  0  0  0  0  0  0  0  0  0  0
   -7.2728   -8.8669  -21.2344 C   0  0  1  0  0  0  0  0  0  0  0  0
   -7.9557   -7.6706  -20.9454 O   0  0  0  0  0  0  0  0  0  0  0  0
   -3.8267   -7.2225  -23.0266 C   0  0  0  0  0  0  0  0  0  0  0  0
   -5.5707   -4.0098  -23.7120 C   0  0  0  0  0  0  0  0  0  0  0  0
  1  2  1  1  0  0  0
  1  6  1  0  0  0  0
  1 21  1  0  0  0  0
  3  4  1  1  0  0  0
  3  8  1  0  0  0  0
  3 28  1  0  0  0  0
  5  9  1  0  0  0  0
  5 25  1  0  0  0  0
  5 29  1  6  0  0  0
  6  7  1  1  0  0  0
  6 11  1  0  0  0  0
  8 12  1  0  0  0  0
  9 10  1  6  0  0  0
  9 14  1  0  0  0  0
 11 16  1  0  0  0  0
 12 13  1  6  0  0  0
 12 17  1  0  0  0  0
 14 15  1  6  0  0  0
 14 18  1  0  0  0  0
 15 31  1  0  0  0  0
 16 20  1  0  0  0  0
 17  2  1  6  0  0  0
 17 22  1  0  0  0  0
 18 19  1  1  0  0  0
 18 24  1  0  0  0  0
 18 30  1  0  0  0  0
 20 21  1  0  0  0  0
 20 26  1  6  0  0  0
 22 23  1  6  0  0  0
 22 28  1  0  0  0  0
 24 25  1  0  0  0  0
 26 27  1  0  0  0  0
 28 29  1  1  0  0  0
M  END
>  <CHROM.1>
-79.60308512,103.73661284,57.44041664,-113.61506836,114.11002260,102.95585572
-6.87180371,-9.03431087,-23.26122007,2.62537604,-1.32328799,-1.38126251

>  <Name>
ligand

>  <RI>
0

>  <Rbt.Current_Directory>
/home/itssahil/PROJECTS/Mol_Feturizer/New_Systems/rnas/4F8U

>  <Rbt.Executable>
rbdock ($Id: //depot/dev/client3/rdock/2013.1/src/exe/rbdock.cxx#4 $)

>  <Rbt.Library>
libRbt.so (2013.1, Build901 2013/11/27)

>  <Rbt.Parameter_File>
/export/apps/rDock/src/rDock_2013.1_src/data/scripts/dock_solv.prm

>  <Rbt.Receptor>
prm/blind_docking_80.prm

>  <SCORE>
9.17195

>  <SCORE.INTER>
-8.46415

>  <SCORE.INTER.CONST>
1

>  <SCORE.INTER.POLAR>
0

>  <SCORE.INTER.ROT>
6

>  <SCORE.INTER.SOLV>
26.1389

>  <SCORE.INTER.VDW>
-21.9557

>  <SCORE.INTER.norm>
-0.273037

>  <SCORE.INTRA>
8.62873

>  <SCORE.INTRA.DIHEDRAL>
3.52524

>  <SCORE.INTRA.DIHEDRAL.0>
18.77

>  <SCORE.INTRA.POLAR>
0

>  <SCORE.INTRA.POLAR.0>
0

>  <SCORE.INTRA.REPUL>
0.00348101

>  <SCORE.INTRA.REPUL.0>
0

>  <SCORE.INTRA.SOLV>
4.66655

>  <SCORE.INTRA.SOLV.lig_0>
-77.2465

>  <SCORE.INTRA.VDW>
4.51543

>  <SCORE.INTRA.VDW.0>
-4.16072

>  <SCORE.INTRA.norm>
0.278346

>  <SCORE.RESTR>
9.00737

>  <SCORE.RESTR.CAVITY>
9.00737

>  <SCORE.RESTR.norm>
0.29056

>  <SCORE.SYSTEM>
0

>  <SCORE.SYSTEM.CONST>
0

>  <SCORE.SYSTEM.DIHEDRAL>
0

>  <SCORE.SYSTEM.SOLV>
0

>  <SCORE.SYSTEM.norm>
0

>  <SCORE.heavy>
31

>  <SCORE.norm>
0.295869

>  <RMSD>
10.212

$$$$
ligand
 OpenBabel11021811493D
libRbt.so/2013.1/901 2013/11/27
 31 33  0  0  0  0  0  0  0  0999 V2000
   -6.7437  -11.6463  -25.2452 C   0  0  2  0  0  0  0  0  0  0  0  0
   -7.5764  -11.3315  -24.1209 O   0  0  0  0  0  0  0  0  0  0  0  0
   -7.4999   -9.8808  -20.0943 C   0  0  2  0  0  0  0  0  0  0  0  0
   -7.0095   -9.3435  -18.8619 N   0  0  0  0  0  0  0  0  0  0  0  0
   -7.3053   -6.4597  -20.4014 C   0  0  2  0  0  0  0  0  0  0  0  0
   -6.4209  -10.2828  -25.9513 C   0  0  2  0  0  0  0  0  0  0  0  0
   -5.7749   -9.3794  -25.0056 N   0  0  0  0  0  0  0  0  0  0  0  0
   -6.7470  -11.2336  -20.3962 C   0  0  0  0  0  0  0  0  0  0  0  0
   -7.1991   -5.4595  -21.5938 C   0  0  2  0  0  0  0  0  0  0  0  0
   -8.5005   -5.1856  -22.0840 O   0  0  0  0  0  0  0  0  0  0  0  0
   -7.7418   -9.6487  -26.5106 C   0  0  0  0  0  0  0  0  0  0  0  0
   -7.2982  -11.8335  -21.7614 C   0  0  2  0  0  0  0  0  0  0  0  0
   -6.5965  -13.1046  -22.0563 N   0  0  0  0  0  0  0  0  0  0  0  0
   -6.3042   -6.1572  -22.7111 C   0  0  1  0  0  0  0  0  0  0  0  0
   -6.1765   -5.2710  -23.9176 N   0  0  0  0  0  0  0  0  0  0  0  0
   -8.5775  -10.7058  -27.2888 C   0  0  0  0  0  0  0  0  0  0  0  0
   -7.0606  -10.7852  -22.9375 C   0  0  2  0  0  0  0  0  0  0  0  0
   -4.8218   -6.4502  -22.1031 C   0  0  1  0  0  0  0  0  0  0  0  0
   -4.1691   -5.2627  -21.6973 O   0  0  0  0  0  0  0  0  0  0  0  0
   -8.3800  -12.0190  -27.0988 C   0  0  2  0  0  0  0  0  0  0  0  0
   -7.4016  -12.5469  -26.1862 O   0  0  0  0  0  0  0  0  0  0  0  0
   -7.8058   -9.4293  -22.5881 C   0  0  2  0  0  0  0  0  0  0  0  0
   -7.5794   -8.4691  -23.6277 O   0  0  0  0  0  0  0  0  0  0  0  0
   -4.9525   -7.3752  -20.8463 C   0  0  0  0  0  0  0  0  0  0  0  0
   -5.9334   -6.7666  -19.8583 O   0  0  0  0  0  0  0  0  0  0  0  0
   -9.1983  -13.0847  -27.8644 C   0  0  0  0  0  0  0  0  0  0  0  0
   -8.3028  -13.8914  -28.6816 N   0  0  0  0  0  0  0  0  0  0  0  0
   -7.2515   -8.8511  -21.2360 C   0  0  1  0  0  0  0  0  0  0  0  0
   -7.9387   -7.6547  -20.9579 O   0  0  0  0  0  0  0  0  0  0  0  0
   -3.8299   -7.1303  -23.0612 C   0  0  0  0  0  0  0  0  0  0  0  0
   -6.0258   -5.9522  -25.2174 C   0  0  0  0  0  0  0  0  0  0  0  0
  1  2  1  1  0  0  0
  1  6  1  0  0  0  0
  1 21  1  0  0  0  0
  3  4  1  1  0  0  0
  3  8  1  0  0  0  0
  3 28  1  0  0  0  0
  5  9  1  0  0  0  0
  5 25  1  0  0  0  0
  5 29  1  6  0  0  0
  6  7  1  1  0  0  0
  6 11  1  0  0  0  0
  8 12  1  0  0  0  0
  9 10  1  6  0  0  0
  9 14  1  0  0  0  0
 11 16  1  0  0  0  0
 12 13  1  6  0  0  0
 12 17  1  0  0  0  0
 14 15  1  6  0  0  0
 14 18  1  0  0  0  0
 15 31  1  0  0  0  0
 16 20  1  0  0  0  0
 17  2  1  6  0  0  0
 17 22  1  0  0  0  0
 18 19  1  1  0  0  0
 18 24  1  0  0  0  0
 18 30  1  0  0  0  0
 20 21  1  0  0  0  0
 20 26  1  6  0  0  0
 22 23  1  6  0  0  0
 22 28  1  0  0  0  0
 24 25  1  0  0  0  0
 26 27  1  0  0  0  0
 28 29  1  1  0  0  0
M  END
>  <CHROM.1>
-76.83801440,105.51832512,-149.34862599,-116.17143476,118.09761088,100.39896627
-6.90350868,-9.08047066,-23.28864706,2.66254766,-1.32206671,-1.31085563

>  <Name>
ligand

>  <RI>
0

>  <Rbt.Current_Directory>
/home/itssahil/PROJECTS/Mol_Feturizer/New_Systems/rnas/4F8U

>  <Rbt.Executable>
rbdock ($Id: //depot/dev/client3/rdock/2013.1/src/exe/rbdock.cxx#4 $)

>  <Rbt.Library>
libRbt.so (2013.1, Build901 2013/11/27)

>  <Rbt.Parameter_File>
/export/apps/rDock/src/rDock_2013.1_src/data/scripts/dock_solv.prm

>  <Rbt.Receptor>
prm/blind_docking_80.prm

>  <SCORE>
8.29135

>  <SCORE.INTER>
-8.21752

>  <SCORE.INTER.CONST>
1

>  <SCORE.INTER.POLAR>
0

>  <SCORE.INTER.ROT>
6

>  <SCORE.INTER.SOLV>
25.9861

>  <SCORE.INTER.VDW>
-21.7404

>  <SCORE.INTER.norm>
-0.265081

>  <SCORE.INTRA>
7.03321

>  <SCORE.INTRA.DIHEDRAL>
3.64954

>  <SCORE.INTRA.DIHEDRAL.0>
18.77

>  <SCORE.INTRA.POLAR>
0

>  <SCORE.INTRA.POLAR.0>
0

>  <SCORE.INTRA.REPUL>
0

>  <SCORE.INTRA.REPUL.0>
0

>  <SCORE.INTRA.SOLV>
5.17572

>  <SCORE.INTRA.SOLV.lig_0>
-77.2465

>  <SCORE.INTRA.VDW>
2.62058

>  <SCORE.INTRA.VDW.0>
-4.16072

>  <SCORE.INTRA.norm>
0.226878

>  <SCORE.RESTR>
9.47566

>  <SCORE.RESTR.CAVITY>
9.47566

>  <SCORE.RESTR.norm>
0.305667

>  <SCORE.SYSTEM>
0

>  <SCORE.SYSTEM.CONST>
0

>  <SCORE.SYSTEM.DIHEDRAL>
0

>  <SCORE.SYSTEM.SOLV>
0

>  <SCORE.SYSTEM.norm>
0

>  <SCORE.heavy>
31

>  <SCORE.norm>
0.267463

>  <RMSD>
10.213

$$$$
ligand
 OpenBabel11021811493D
libRbt.so/2013.1/901 2013/11/27
 31 33  0  0  0  0  0  0  0  0999 V2000
   -6.7695  -11.6190  -25.2328 C   0  0  2  0  0  0  0  0  0  0  0  0
   -7.6037  -11.2644  -24.1216 O   0  0  0  0  0  0  0  0  0  0  0  0
   -7.5186   -9.8356  -20.0874 C   0  0  2  0  0  0  0  0  0  0  0  0
   -7.0221   -9.3246  -18.8463 N   0  0  0  0  0  0  0  0  0  0  0  0
   -7.1750   -6.4203  -20.3867 C   0  0  2  0  0  0  0  0  0  0  0  0
   -6.4031  -10.2758  -25.9564 C   0  0  2  0  0  0  0  0  0  0  0  0
   -5.7416   -9.3756  -25.0183 N   0  0  0  0  0  0  0  0  0  0  0  0
   -6.8189  -11.2173  -20.3863 C   0  0  0  0  0  0  0  0  0  0  0  0
   -7.0679   -5.4059  -21.5668 C   0  0  2  0  0  0  0  0  0  0  0  0
   -8.3718   -5.0896  -22.0236 O   0  0  0  0  0  0  0  0  0  0  0  0
   -7.7010   -9.6148  -26.5382 C   0  0  0  0  0  0  0  0  0  0  0  0
   -7.3771  -11.7878  -21.7612 C   0  0  2  0  0  0  0  0  0  0  0  0
   -6.7252  -13.0858  -22.0535 N   0  0  0  0  0  0  0  0  0  0  0  0
   -6.2174   -6.1110  -22.7139 C   0  0  1  0  0  0  0  0  0  0  0  0
   -6.0923   -5.2107  -23.9103 N   0  0  0  0  0  0  0  0  0  0  0  0
   -8.5578  -10.6609  -27.3083 C   0  0  0  0  0  0  0  0  0  0  0  0
   -7.0809  -10.7452  -22.9292 C   0  0  2  0  0  0  0  0  0  0  0  0
   -4.7305   -6.4529  -22.1437 C   0  0  1  0  0  0  0  0  0  0  0  0
   -4.0366   -5.2897  -21.7360 O   0  0  0  0  0  0  0  0  0  0  0  0
   -8.3979  -11.9758  -27.0964 C   0  0  2  0  0  0  0  0  0  0  0  0
   -7.4428  -12.5159  -26.1664 O   0  0  0  0  0  0  0  0  0  0  0  0
   -7.7733   -9.3610  -22.5826 C   0  0  2  0  0  0  0  0  0  0  0  0
   -7.4937   -8.4065  -23.6146 O   0  0  0  0  0  0  0  0  0  0  0  0
   -4.8586   -7.3926  -20.8975 C   0  0  0  0  0  0  0  0  0  0  0  0
   -5.8002   -6.7723  -19.8791 O   0  0  0  0  0  0  0  0  0  0  0  0
   -9.2378  -13.0307  -27.8537 C   0  0  0  0  0  0  0  0  0  0  0  0
   -8.3662  -13.8241  -28.7088 N   0  0  0  0  0  0  0  0  0  0  0  0
   -7.2128   -8.8122  -21.2209 C   0  0  1  0  0  0  0  0  0  0  0  0
   -7.8530   -7.5893  -20.9457 O   0  0  0  0  0  0  0  0  0  0  0  0
   -3.7791   -7.1454  -23.1335 C   0  0  0  0  0  0  0  0  0  0  0  0
   -6.0414   -5.8746  -25.2267 C   0  0  0  0  0  0  0  0  0  0  0  0
  1  2  1  1  0  0  0
  1  6  1  0  0  0  0
  1 21  1  0  0  0  0
  3  4  1  1  0  0  0
  3  8  1  0  0  0  0
  3 28  1  0  0  0  0
  5  9  1  0  0  0  0
  5 25  1  0  0  0  0
  5 29  1  6  0  0  0
  6  7  1  1  0  0  0
  6 11  1  0  0  0  0
  8 12  1  0  0  0  0
  9 10  1  6  0  0  0
  9 14  1  0  0  0  0
 11 16  1  0  0  0  0
 12 13  1  6  0  0  0
 12 17  1  0  0  0  0
 14 15  1  6  0  0  0
 14 18  1  0  0  0  0
 15 31  1  0  0  0  0
 16 20  1  0  0  0  0
 17  2  1  6  0  0  0
 17 22  1  0  0  0  0
 18 19  1  1  0  0  0
 18 24  1  0  0  0  0
 18 30  1  0  0  0  0
 20 21  1  0  0  0  0
 20 26  1  6  0  0  0
 22 23  1  6  0  0  0
 22 28  1  0  0  0  0
 24 25  1  0  0  0  0
 26 27  1  0  0  0  0
 28 29  1  1  0  0  0
M  END
>  <CHROM.1>
-78.47424637,107.39320193,-147.07426536,-115.65390659,114.84804867,100.98000045
-6.87481021,-9.04464976,-23.29133547,2.61368390,-1.29859807,-1.36417460

>  <Name>
ligand

>  <RI>
0

>  <Rbt.Current_Directory>
/home/itssahil/PROJECTS/Mol_Feturizer/New_Systems/rnas/4F8U

>  <Rbt.Executable>
rbdock ($Id: //depot/dev/client3/rdock/2013.1/src/exe/rbdock.cxx#4 $)

>  <Rbt.Library>
libRbt.so (2013.1, Build901 2013/11/27)

>  <Rbt.Parameter_File>
/export/apps/rDock/src/rDock_2013.1_src/data/scripts/dock_solv.prm

>  <Rbt.Receptor>
prm/blind_docking_80.prm

>  <SCORE>
8.4876

>  <SCORE.INTER>
-7.98473

>  <SCORE.INTER.CONST>
1

>  <SCORE.INTER.POLAR>
0

>  <SCORE.INTER.ROT>
6

>  <SCORE.INTER.SOLV>
25.5527

>  <SCORE.INTER.VDW>
-21.4407

>  <SCORE.INTER.norm>
-0.257572

>  <SCORE.INTRA>
7.02794

>  <SCORE.INTRA.DIHEDRAL>
4.29901

>  <SCORE.INTRA.DIHEDRAL.0>
18.77

>  <SCORE.INTRA.POLAR>
0

>  <SCORE.INTRA.POLAR.0>
0

>  <SCORE.INTRA.REPUL>
0

>  <SCORE.INTRA.REPUL.0>
0

>  <SCORE.INTRA.SOLV>
4.98825

>  <SCORE.INTRA.SOLV.lig_0>
-77.2465

>  <SCORE.INTRA.VDW>
2.38432

>  <SCORE.INTRA.VDW.0>
-4.16072

>  <SCORE.INTRA.norm>
0.226708

>  <SCORE.RESTR>
9.44439

>  <SCORE.RESTR.CAVITY>
9.44439

>  <SCORE.RESTR.norm>
0.304658

>  <SCORE.SYSTEM>
0

>  <SCORE.SYSTEM.CONST>
0

>  <SCORE.SYSTEM.DIHEDRAL>
0

>  <SCORE.SYSTEM.SOLV>
0

>  <SCORE.SYSTEM.norm>
0

>  <SCORE.heavy>
31

>  <SCORE.norm>
0.273794

>  <RMSD>
10.216

$$$$
ligand
 OpenBabel11021811493D
libRbt.so/2013.1/901 2013/11/27
 31 33  0  0  0  0  0  0  0  0999 V2000
   -6.7494  -11.3630  -24.9908 C   0  0  2  0  0  0  0  0  0  0  0  0
   -7.6089  -10.7913  -23.9954 O   0  0  0  0  0  0  0  0  0  0  0  0
   -7.7104   -9.3668  -19.9600 C   0  0  2  0  0  0  0  0  0  0  0  0
   -7.2730   -8.9785  -18.6539 N   0  0  0  0  0  0  0  0  0  0  0  0
   -6.4254   -6.1216  -20.2766 C   0  0  2  0  0  0  0  0  0  0  0  0
   -6.2447  -10.1702  -25.8765 C   0  0  2  0  0  0  0  0  0  0  0  0
   -5.5641   -9.1887  -25.0391 N   0  0  0  0  0  0  0  0  0  0  0  0
   -7.3493  -10.8852  -20.1883 C   0  0  0  0  0  0  0  0  0  0  0  0
   -6.3409   -5.0147  -21.3725 C   0  0  2  0  0  0  0  0  0  0  0  0
   -7.6349   -4.4779  -21.5873 O   0  0  0  0  0  0  0  0  0  0  0  0
   -7.4568   -9.5151  -26.6257 C   0  0  0  0  0  0  0  0  0  0  0  0
   -7.8428  -11.3175  -21.6363 C   0  0  2  0  0  0  0  0  0  0  0  0
   -7.5072  -12.7427  -21.8628 N   0  0  0  0  0  0  0  0  0  0  0  0
   -5.7842   -5.7068  -22.6944 C   0  0  1  0  0  0  0  0  0  0  0  0
   -5.7017   -4.7132  -23.8183 N   0  0  0  0  0  0  0  0  0  0  0  0
   -8.3517  -10.6022  -27.2882 C   0  0  0  0  0  0  0  0  0  0  0  0
   -7.1376  -10.4025  -22.7338 C   0  0  2  0  0  0  0  0  0  0  0  0
   -4.2986   -6.3057  -22.3994 C   0  0  1  0  0  0  0  0  0  0  0  0
   -3.3848   -5.2966  -22.0152 O   0  0  0  0  0  0  0  0  0  0  0  0
   -8.3043  -11.8792  -26.8797 C   0  0  2  0  0  0  0  0  0  0  0  0
   -7.4418  -12.3399  -25.8249 O   0  0  0  0  0  0  0  0  0  0  0  0
   -7.4976   -8.8828  -22.4574 C   0  0  2  0  0  0  0  0  0  0  0  0
   -6.8490   -8.0467  -23.4240 O   0  0  0  0  0  0  0  0  0  0  0  0
   -4.3826   -7.3429  -21.2291 C   0  0  0  0  0  0  0  0  0  0  0  0
   -5.0601   -6.7086  -20.0261 O   0  0  0  0  0  0  0  0  0  0  0  0
   -9.1836  -12.9743  -27.5272 C   0  0  0  0  0  0  0  0  0  0  0  0
   -8.3385  -13.9065  -28.2601 N   0  0  0  0  0  0  0  0  0  0  0  0
   -7.0056   -8.4723  -21.0224 C   0  0  1  0  0  0  0  0  0  0  0  0
   -7.3467   -7.1230  -20.8127 O   0  0  0  0  0  0  0  0  0  0  0  0
   -3.6182   -7.0155  -23.5817 C   0  0  0  0  0  0  0  0  0  0  0  0
   -5.9424   -5.2386  -25.1756 C   0  0  0  0  0  0  0  0  0  0  0  0
  1  2  1  1  0  0  0
  1  6  1  0  0  0  0
  1 21  1  0  0  0  0
  3  4  1  1  0  0  0
  3  8  1  0  0  0  0
  3 28  1  0  0  0  0
  5  9  1  0  0  0  0
  5 25  1  0  0  0  0
  5 29  1  6  0  0  0
  6  7  1  1  0  0  0
  6 11  1  0  0  0  0
  8 12  1  0  0  0  0
  9 10  1  6  0  0  0
  9 14  1  0  0  0  0
 11 16  1  0  0  0  0
 12 13  1  6  0  0  0
 12 17  1  0  0  0  0
 14 15  1  6  0  0  0
 14 18  1  0  0  0  0
 15 31  1  0  0  0  0
 16 20  1  0  0  0  0
 17  2  1  6  0  0  0
 17 22  1  0  0  0  0
 18 19  1  1  0  0  0
 18 24  1  0  0  0  0
 18 30  1  0  0  0  0
 20 21  1  0  0  0  0
 20 26  1  6  0  0  0
 22 23  1  6  0  0  0
 22 28  1  0  0  0  0
 24 25  1  0  0  0  0
 26 27  1  0  0  0  0
 28 29  1  1  0  0  0
M  END
>  <CHROM.1>
-92.73875341,121.30120745,-147.20242034,-115.65895368,112.04013528,107.82092368
-6.67573830,-8.76670258,-23.20113605,2.36958575,-1.16780152,-1.69810726

>  <Name>
ligand

>  <RI>
0

>  <Rbt.Current_Directory>
/home/itssahil/PROJECTS/Mol_Feturizer/New_Systems/rnas/4F8U

>  <Rbt.Executable>
rbdock ($Id: //depot/dev/client3/rdock/2013.1/src/exe/rbdock.cxx#4 $)

>  <Rbt.Library>
libRbt.so (2013.1, Build901 2013/11/27)

>  <Rbt.Parameter_File>
/export/apps/rDock/src/rDock_2013.1_src/data/scripts/dock_solv.prm

>  <Rbt.Receptor>
prm/blind_docking_80.prm

>  <SCORE>
8.54888

>  <SCORE.INTER>
-9.29379

>  <SCORE.INTER.CONST>
1

>  <SCORE.INTER.POLAR>
0

>  <SCORE.INTER.ROT>
6

>  <SCORE.INTER.SOLV>
26.3708

>  <SCORE.INTER.VDW>
-22.5861

>  <SCORE.INTER.norm>
-0.2998

>  <SCORE.INTRA>
8.77733

>  <SCORE.INTRA.DIHEDRAL>
8.58243

>  <SCORE.INTRA.DIHEDRAL.0>
18.77

>  <SCORE.INTRA.POLAR>
0

>  <SCORE.INTRA.POLAR.0>
0

>  <SCORE.INTRA.REPUL>
0

>  <SCORE.INTRA.REPUL.0>
0

>  <SCORE.INTRA.SOLV>
3.99077

>  <SCORE.INTRA.SOLV.lig_0>
-77.2465

>  <SCORE.INTRA.VDW>
2.49073

>  <SCORE.INTRA.VDW.0>
-4.16072

>  <SCORE.INTRA.norm>
0.28314

>  <SCORE.RESTR>
9.06534

>  <SCORE.RESTR.CAVITY>
9.06534

>  <SCORE.RESTR.norm>
0.29243

>  <SCORE.SYSTEM>
0

>  <SCORE.SYSTEM.CONST>
0

>  <SCORE.SYSTEM.DIHEDRAL>
0

>  <SCORE.SYSTEM.SOLV>
0

>  <SCORE.SYSTEM.norm>
0

>  <SCORE.heavy>
31

>  <SCORE.norm>
0.27577

>  <RMSD>
10.218

$$$$
ligand
 OpenBabel11021811493D
libRbt.so/2013.1/901 2013/11/27
 31 33  0  0  0  0  0  0  0  0999 V2000
   -6.7564  -11.6309  -25.2601 C   0  0  2  0  0  0  0  0  0  0  0  0
   -7.5905  -11.3031  -24.1406 O   0  0  0  0  0  0  0  0  0  0  0  0
   -7.5095   -9.8858  -20.1023 C   0  0  2  0  0  0  0  0  0  0  0  0
   -7.0168   -9.3637  -18.8643 N   0  0  0  0  0  0  0  0  0  0  0  0
   -7.2706   -6.4517  -20.4179 C   0  0  2  0  0  0  0  0  0  0  0  0
   -6.4228  -10.2744  -25.9746 C   0  0  2  0  0  0  0  0  0  0  0  0
   -5.7741   -9.3685  -25.0332 N   0  0  0  0  0  0  0  0  0  0  0  0
   -6.7702  -11.2440  -20.4131 C   0  0  0  0  0  0  0  0  0  0  0  0
   -7.1666   -5.4713  -21.6267 C   0  0  2  0  0  0  0  0  0  0  0  0
   -8.4702   -5.1911  -22.1074 O   0  0  0  0  0  0  0  0  0  0  0  0
   -7.7380   -9.6359  -26.5424 C   0  0  0  0  0  0  0  0  0  0  0  0
   -7.3240  -11.8271  -21.7845 C   0  0  2  0  0  0  0  0  0  0  0  0
   -6.6350  -13.1031  -22.0879 N   0  0  0  0  0  0  0  0  0  0  0  0
   -6.2911   -6.1957  -22.7425 C   0  0  1  0  0  0  0  0  0  0  0  0
   -6.1671   -5.3297  -23.9639 N   0  0  0  0  0  0  0  0  0  0  0  0
   -8.5779  -10.6931  -27.3159 C   0  0  0  0  0  0  0  0  0  0  0  0
   -7.0722  -10.7719  -22.9515 C   0  0  2  0  0  0  0  0  0  0  0  0
   -4.8055   -6.4951  -22.1456 C   0  0  1  0  0  0  0  0  0  0  0  0
   -4.1359   -5.3086  -21.7654 O   0  0  0  0  0  0  0  0  0  0  0  0
   -8.3892  -12.0062  -27.1162 C   0  0  2  0  0  0  0  0  0  0  0  0
   -7.4170  -12.5339  -26.1969 O   0  0  0  0  0  0  0  0  0  0  0  0
   -7.8039   -9.4111  -22.5931 C   0  0  2  0  0  0  0  0  0  0  0  0
   -7.5646   -8.4449  -23.6243 O   0  0  0  0  0  0  0  0  0  0  0  0
   -4.9325   -7.3992  -20.8733 C   0  0  0  0  0  0  0  0  0  0  0  0
   -5.8962   -6.7648  -19.8845 O   0  0  0  0  0  0  0  0  0  0  0  0
   -9.2119  -13.0720  -27.8770 C   0  0  0  0  0  0  0  0  0  0  0  0
   -8.3456  -13.7828  -28.8070 N   0  0  0  0  0  0  0  0  0  0  0  0
   -7.2472   -8.8496  -21.2350 C   0  0  1  0  0  0  0  0  0  0  0  0
   -7.9224   -7.6483  -20.9490 O   0  0  0  0  0  0  0  0  0  0  0  0
   -3.8312   -7.2006  -23.1035 C   0  0  0  0  0  0  0  0  0  0  0  0
   -5.6626   -3.9605  -23.7472 C   0  0  0  0  0  0  0  0  0  0  0  0
  1  2  1  1  0  0  0
  1  6  1  0  0  0  0
  1 21  1  0  0  0  0
  3  4  1  1  0  0  0
  3  8  1  0  0  0  0
  3 28  1  0  0  0  0
  5  9  1  0  0  0  0
  5 25  1  0  0  0  0
  5 29  1  6  0  0  0
  6  7  1  1  0  0  0
  6 11  1  0  0  0  0
  8 12  1  0  0  0  0
  9 10  1  6  0  0  0
  9 14  1  0  0  0  0
 11 16  1  0  0  0  0
 12 13  1  6  0  0  0
 12 17  1  0  0  0  0
 14 15  1  6  0  0  0
 14 18  1  0  0  0  0
 15 31  1  0  0  0  0
 16 20  1  0  0  0  0
 17  2  1  6  0  0  0
 17 22  1  0  0  0  0
 18 19  1  1  0  0  0
 18 24  1  0  0  0  0
 18 30  1  0  0  0  0
 20 21  1  0  0  0  0
 20 26  1  6  0  0  0
 22 23  1  6  0  0  0
 22 28  1  0  0  0  0
 24 25  1  0  0  0  0
 26 27  1  0  0  0  0
 28 29  1  1  0  0  0
M  END
>  <CHROM.1>
-77.88663912,104.50166854,53.92956986,-115.49665352,111.24792675,102.27081860
-6.88936750,-9.01253350,-23.26239412,2.72404334,-1.32019077,-1.28612677

>  <Name>
ligand

>  <RI>
0

>  <Rbt.Current_Directory>
/home/itssahil/PROJECTS/Mol_Feturizer/New_Systems/rnas/4F8U

>  <Rbt.Executable>
rbdock ($Id: //depot/dev/client3/rdock/2013.1/src/exe/rbdock.cxx#4 $)

>  <Rbt.Library>
libRbt.so (2013.1, Build901 2013/11/27)

>  <Rbt.Parameter_File>
/export/apps/rDock/src/rDock_2013.1_src/data/scripts/dock_solv.prm

>  <Rbt.Receptor>
prm/blind_docking_80.prm

>  <SCORE>
8.5636

>  <SCORE.INTER>
-9.23782

>  <SCORE.INTER.CONST>
1

>  <SCORE.INTER.POLAR>
0

>  <SCORE.INTER.ROT>
6

>  <SCORE.INTER.SOLV>
25.5356

>  <SCORE.INTER.VDW>
-22.2704

>  <SCORE.INTER.norm>
-0.297994

>  <SCORE.INTRA>
8.6897

>  <SCORE.INTRA.DIHEDRAL>
3.43929

>  <SCORE.INTRA.DIHEDRAL.0>
18.77

>  <SCORE.INTRA.POLAR>
0

>  <SCORE.INTRA.POLAR.0>
0

>  <SCORE.INTRA.REPUL>
0.0080983

>  <SCORE.INTRA.REPUL.0>
0

>  <SCORE.INTRA.SOLV>
4.73948

>  <SCORE.INTRA.SOLV.lig_0>
-77.2465

>  <SCORE.INTRA.VDW>
4.55982

>  <SCORE.INTRA.VDW.0>
-4.16072

>  <SCORE.INTRA.norm>
0.280313

>  <SCORE.RESTR>
9.11172

>  <SCORE.RESTR.CAVITY>
9.11172

>  <SCORE.RESTR.norm>
0.293927

>  <SCORE.SYSTEM>
0

>  <SCORE.SYSTEM.CONST>
0

>  <SCORE.SYSTEM.DIHEDRAL>
0

>  <SCORE.SYSTEM.SOLV>
0

>  <SCORE.SYSTEM.norm>
0

>  <SCORE.heavy>
31

>  <SCORE.norm>
0.276245

>  <RMSD>
10.222

$$$$
ligand
 OpenBabel11021811493D
libRbt.so/2013.1/901 2013/11/27
 31 33  0  0  0  0  0  0  0  0999 V2000
   -6.7224  -11.3423  -24.9830 C   0  0  2  0  0  0  0  0  0  0  0  0
   -7.5805  -10.7249  -24.0140 O   0  0  0  0  0  0  0  0  0  0  0  0
   -7.7411   -9.3424  -19.9660 C   0  0  2  0  0  0  0  0  0  0  0  0
   -7.3262   -8.9857  -18.6436 N   0  0  0  0  0  0  0  0  0  0  0  0
   -6.3283   -6.1475  -20.1993 C   0  0  2  0  0  0  0  0  0  0  0  0
   -6.1861  -10.1862  -25.8983 C   0  0  2  0  0  0  0  0  0  0  0  0
   -5.4950   -9.1932  -25.0834 N   0  0  0  0  0  0  0  0  0  0  0  0
   -7.4318  -10.8709  -20.2025 C   0  0  0  0  0  0  0  0  0  0  0  0
   -6.2554   -4.9722  -21.2223 C   0  0  2  0  0  0  0  0  0  0  0  0
   -7.5486   -4.4128  -21.3759 O   0  0  0  0  0  0  0  0  0  0  0  0
   -7.3780   -9.5308  -26.6792 C   0  0  0  0  0  0  0  0  0  0  0  0
   -7.9004  -11.2679  -21.6689 C   0  0  2  0  0  0  0  0  0  0  0  0
   -7.6130  -12.7024  -21.9033 N   0  0  0  0  0  0  0  0  0  0  0  0
   -5.7306   -5.5807  -22.5972 C   0  0  1  0  0  0  0  0  0  0  0  0
   -5.6612   -4.5166  -23.6556 N   0  0  0  0  0  0  0  0  0  0  0  0
   -8.2870  -10.6201  -27.3184 C   0  0  0  0  0  0  0  0  0  0  0  0
   -7.1304  -10.3685  -22.7352 C   0  0  2  0  0  0  0  0  0  0  0  0
   -4.2448   -6.2087  -22.3715 C   0  0  1  0  0  0  0  0  0  0  0  0
   -3.3149   -5.2336  -21.9407 O   0  0  0  0  0  0  0  0  0  0  0  0
   -8.2683  -11.8850  -26.8718 C   0  0  2  0  0  0  0  0  0  0  0  0
   -7.4251  -12.3303  -25.7949 O   0  0  0  0  0  0  0  0  0  0  0  0
   -7.4399   -8.8393  -22.4504 C   0  0  2  0  0  0  0  0  0  0  0  0
   -6.7332   -8.0180  -23.3885 O   0  0  0  0  0  0  0  0  0  0  0  0
   -4.3152   -7.3193  -21.2698 C   0  0  0  0  0  0  0  0  0  0  0  0
   -4.9636   -6.7598  -20.0147 O   0  0  0  0  0  0  0  0  0  0  0  0
   -9.1620  -12.9821  -27.4957 C   0  0  0  0  0  0  0  0  0  0  0  0
   -8.4063  -13.7091  -28.5061 N   0  0  0  0  0  0  0  0  0  0  0  0
   -6.9733   -8.4639  -20.9975 C   0  0  1  0  0  0  0  0  0  0  0  0
   -7.2686   -7.1049  -20.7809 O   0  0  0  0  0  0  0  0  0  0  0  0
   -3.5937   -6.8449  -23.6108 C   0  0  0  0  0  0  0  0  0  0  0  0
   -6.9202   -4.2121  -24.3614 C   0  0  0  0  0  0  0  0  0  0  0  0
  1  2  1  1  0  0  0
  1  6  1  0  0  0  0
  1 21  1  0  0  0  0
  3  4  1  1  0  0  0
  3  8  1  0  0  0  0
  3 28  1  0  0  0  0
  5  9  1  0  0  0  0
  5 25  1  0  0  0  0
  5 29  1  6  0  0  0
  6  7  1  1  0  0  0
  6 11  1  0  0  0  0
  8 12  1  0  0  0  0
  9 10  1  6  0  0  0
  9 14  1  0  0  0  0
 11 16  1  0  0  0  0
 12 13  1  6  0  0  0
 12 17  1  0  0  0  0
 14 15  1  6  0  0  0
 14 18  1  0  0  0  0
 15 31  1  0  0  0  0
 16 20  1  0  0  0  0
 17  2  1  6  0  0  0
 17 22  1  0  0  0  0
 18 19  1  1  0  0  0
 18 24  1  0  0  0  0
 18 30  1  0  0  0  0
 20 21  1  0  0  0  0
 20 26  1  6  0  0  0
 22 23  1  6  0  0  0
 22 28  1  0  0  0  0
 24 25  1  0  0  0  0
 26 27  1  0  0  0  0
 28 29  1  1  0  0  0
M  END
>  <CHROM.1>
-96.00321468,125.97401699,-82.90408023,-114.39932712,95.08603694,107.40200190
-6.67706805,-8.69319850,-23.15887413,2.40652815,-1.19120928,-1.66548364

>  <Name>
ligand

>  <RI>
0

>  <Rbt.Current_Directory>
/home/itssahil/PROJECTS/Mol_Feturizer/New_Systems/rnas/4F8U

>  <Rbt.Executable>
rbdock ($Id: //depot/dev/client3/rdock/2013.1/src/exe/rbdock.cxx#4 $)

>  <Rbt.Library>
libRbt.so (2013.1, Build901 2013/11/27)

>  <Rbt.Parameter_File>
/export/apps/rDock/src/rDock_2013.1_src/data/scripts/dock_solv.prm

>  <Rbt.Receptor>
prm/blind_docking_80.prm

>  <SCORE>
8.53076

>  <SCORE.INTER>
-8.20228

>  <SCORE.INTER.CONST>
1

>  <SCORE.INTER.POLAR>
0

>  <SCORE.INTER.ROT>
6

>  <SCORE.INTER.SOLV>
26.2412

>  <SCORE.INTER.VDW>
-21.8152

>  <SCORE.INTER.norm>
-0.26459

>  <SCORE.INTRA>
7.83886

>  <SCORE.INTRA.DIHEDRAL>
9.22662

>  <SCORE.INTRA.DIHEDRAL.0>
18.77

>  <SCORE.INTRA.POLAR>
0

>  <SCORE.INTRA.POLAR.0>
0

>  <SCORE.INTRA.REPUL>
0

>  <SCORE.INTRA.REPUL.0>
0

>  <SCORE.INTRA.SOLV>
3.11304

>  <SCORE.INTRA.SOLV.lig_0>
-77.2465

>  <SCORE.INTRA.VDW>
1.66903

>  <SCORE.INTRA.VDW.0>
-4.16072

>  <SCORE.INTRA.norm>
0.252866

>  <SCORE.RESTR>
8.89418

>  <SCORE.RESTR.CAVITY>
8.89418

>  <SCORE.RESTR.norm>
0.286909

>  <SCORE.SYSTEM>
0

>  <SCORE.SYSTEM.CONST>
0

>  <SCORE.SYSTEM.DIHEDRAL>
0

>  <SCORE.SYSTEM.SOLV>
0

>  <SCORE.SYSTEM.norm>
0

>  <SCORE.heavy>
31

>  <SCORE.norm>
0.275186

>  <RMSD>
10.225

$$$$
ligand
 OpenBabel11021811493D
libRbt.so/2013.1/901 2013/11/27
 31 33  0  0  0  0  0  0  0  0999 V2000
   -6.7335  -11.3401  -24.9642 C   0  0  2  0  0  0  0  0  0  0  0  0
   -7.5984  -10.7455  -23.9870 O   0  0  0  0  0  0  0  0  0  0  0  0
   -7.7489   -9.3221  -19.9528 C   0  0  2  0  0  0  0  0  0  0  0  0
   -7.3299   -8.9484  -18.6364 N   0  0  0  0  0  0  0  0  0  0  0  0
   -6.3554   -6.1152  -20.2443 C   0  0  2  0  0  0  0  0  0  0  0  0
   -6.2200  -10.1673  -25.8713 C   0  0  2  0  0  0  0  0  0  0  0  0
   -5.5427   -9.1699  -25.0502 N   0  0  0  0  0  0  0  0  0  0  0  0
   -7.4291  -10.8506  -20.1750 C   0  0  0  0  0  0  0  0  0  0  0  0
   -6.2761   -4.9776  -21.3086 C   0  0  2  0  0  0  0  0  0  0  0  0
   -7.5670   -4.4198  -21.4854 O   0  0  0  0  0  0  0  0  0  0  0  0
   -7.4254   -9.5254  -26.6424 C   0  0  0  0  0  0  0  0  0  0  0  0
   -7.9022  -11.2664  -21.6347 C   0  0  2  0  0  0  0  0  0  0  0  0
   -7.6051  -12.7010  -21.8556 N   0  0  0  0  0  0  0  0  0  0  0  0
   -5.7501   -5.6368  -22.6595 C   0  0  1  0  0  0  0  0  0  0  0  0
   -5.6746   -4.6116  -23.7552 N   0  0  0  0  0  0  0  0  0  0  0  0
   -8.3184  -10.6242  -27.2880 C   0  0  0  0  0  0  0  0  0  0  0  0
   -7.1445  -10.3724  -22.7143 C   0  0  2  0  0  0  0  0  0  0  0  0
   -4.2670   -6.2612  -22.4077 C   0  0  1  0  0  0  0  0  0  0  0  0
   -3.3348   -5.2744  -22.0100 O   0  0  0  0  0  0  0  0  0  0  0  0
   -8.2768  -11.8924  -26.8524 C   0  0  2  0  0  0  0  0  0  0  0  0
   -7.4226  -12.3327  -25.7822 O   0  0  0  0  0  0  0  0  0  0  0  0
   -7.4642   -8.8426  -22.4438 C   0  0  2  0  0  0  0  0  0  0  0  0
   -6.7685   -8.0259  -23.3941 O   0  0  0  0  0  0  0  0  0  0  0  0
   -4.3438   -7.3313  -21.2670 C   0  0  0  0  0  0  0  0  0  0  0  0
   -4.9932   -6.7249  -20.0345 O   0  0  0  0  0  0  0  0  0  0  0  0
   -9.1543  -12.9990  -27.4826 C   0  0  0  0  0  0  0  0  0  0  0  0
   -8.4421  -13.6094  -28.5964 N   0  0  0  0  0  0  0  0  0  0  0  0
   -6.9930   -8.4486  -20.9974 C   0  0  1  0  0  0  0  0  0  0  0  0
   -7.2976   -7.0897  -20.7934 O   0  0  0  0  0  0  0  0  0  0  0  0
   -3.6152   -6.9436  -23.6218 C   0  0  0  0  0  0  0  0  0  0  0  0
   -6.9221   -4.3564  -24.5001 C   0  0  0  0  0  0  0  0  0  0  0  0
  1  2  1  1  0  0  0
  1  6  1  0  0  0  0
  1 21  1  0  0  0  0
  3  4  1  1  0  0  0
  3  8  1  0  0  0  0
  3 28  1  0  0  0  0
  5  9  1  0  0  0  0
  5 25  1  0  0  0  0
  5 29  1  6  0  0  0
  6  7  1  1  0  0  0
  6 11  1  0  0  0  0
  8 12  1  0  0  0  0
  9 10  1  6  0  0  0
  9 14  1  0  0  0  0
 11 16  1  0  0  0  0
 12 13  1  6  0  0  0
 12 17  1  0  0  0  0
 14 15  1  6  0  0  0
 14 18  1  0  0  0  0
 15 31  1  0  0  0  0
 16 20  1  0  0  0  0
 17  2  1  6  0  0  0
 17 22  1  0  0  0  0
 18 19  1  1  0  0  0
 18 24  1  0  0  0  0
 18 30  1  0  0  0  0
 20 21  1  0  0  0  0
 20 26  1  6  0  0  0
 22 23  1  6  0  0  0
 22 28  1  0  0  0  0
 24 25  1  0  0  0  0
 26 27  1  0  0  0  0
 28 29  1  1  0  0  0
M  END
>  <CHROM.1>
-94.92645725,124.00353025,-84.58615130,-115.77930795,89.08396742,108.30163098
-6.69555859,-8.70172614,-23.17279244,2.41275999,-1.19199489,-1.65408220

>  <Name>
ligand

>  <RI>
0

>  <Rbt.Current_Directory>
/home/itssahil/PROJECTS/Mol_Feturizer/New_Systems/rnas/4F8U

>  <Rbt.Executable>
rbdock ($Id: //depot/dev/client3/rdock/2013.1/src/exe/rbdock.cxx#4 $)

>  <Rbt.Library>
libRbt.so (2013.1, Build901 2013/11/27)

>  <Rbt.Parameter_File>
/export/apps/rDock/src/rDock_2013.1_src/data/scripts/dock_solv.prm

>  <Rbt.Receptor>
prm/blind_docking_80.prm

>  <SCORE>
8.53354

>  <SCORE.INTER>
-9.25432

>  <SCORE.INTER.CONST>
1

>  <SCORE.INTER.POLAR>
0

>  <SCORE.INTER.ROT>
6

>  <SCORE.INTER.SOLV>
25.5747

>  <SCORE.INTER.VDW>
-22.2945

>  <SCORE.INTER.norm>
-0.298526

>  <SCORE.INTRA>
8.82285

>  <SCORE.INTRA.DIHEDRAL>
9.64325

>  <SCORE.INTRA.DIHEDRAL.0>
18.77

>  <SCORE.INTRA.POLAR>
0

>  <SCORE.INTRA.POLAR.0>
0

>  <SCORE.INTRA.REPUL>
0

>  <SCORE.INTRA.REPUL.0>
0

>  <SCORE.INTRA.SOLV>
3.3945

>  <SCORE.INTRA.SOLV.lig_0>
-77.2465

>  <SCORE.INTRA.VDW>
2.30398

>  <SCORE.INTRA.VDW.0>
-4.16072

>  <SCORE.INTRA.norm>
0.284608

>  <SCORE.RESTR>
8.96501

>  <SCORE.RESTR.CAVITY>
8.96501

>  <SCORE.RESTR.norm>
0.289194

>  <SCORE.SYSTEM>
0

>  <SCORE.SYSTEM.CONST>
0

>  <SCORE.SYSTEM.DIHEDRAL>
0

>  <SCORE.SYSTEM.SOLV>
0

>  <SCORE.SYSTEM.norm>
0

>  <SCORE.heavy>
31

>  <SCORE.norm>
0.275275

>  <RMSD>
10.233

$$$$
ligand
 OpenBabel11021811493D
libRbt.so/2013.1/901 2013/11/27
 31 33  0  0  0  0  0  0  0  0999 V2000
   -6.7697   -9.7136  -18.3960 C   0  0  2  0  0  0  0  0  0  0  0  0
   -7.9026  -10.4231  -18.9152 O   0  0  0  0  0  0  0  0  0  0  0  0
   -6.1021  -12.8387  -21.9560 C   0  0  2  0  0  0  0  0  0  0  0  0
   -5.9242  -13.8705  -22.9316 N   0  0  0  0  0  0  0  0  0  0  0  0
   -8.0031  -10.4452  -24.2812 C   0  0  2  0  0  0  0  0  0  0  0  0
   -7.3404   -8.4629  -17.6396 C   0  0  2  0  0  0  0  0  0  0  0  0
   -8.2618   -8.8971  -16.5954 N   0  0  0  0  0  0  0  0  0  0  0  0
   -6.3527  -13.5054  -20.5486 C   0  0  0  0  0  0  0  0  0  0  0  0
   -7.8872  -10.7793  -25.8004 C   0  0  2  0  0  0  0  0  0  0  0  0
   -8.2431  -12.1361  -26.0033 O   0  0  0  0  0  0  0  0  0  0  0  0
   -8.0624   -7.5115  -18.6561 C   0  0  0  0  0  0  0  0  0  0  0  0
   -6.5423  -12.3582  -19.4644 C   0  0  2  0  0  0  0  0  0  0  0  0
   -6.7802  -12.9730  -18.1375 N   0  0  0  0  0  0  0  0  0  0  0  0
   -6.3741  -10.5176  -26.2229 C   0  0  1  0  0  0  0  0  0  0  0  0
   -6.1640  -10.8483  -27.6733 N   0  0  0  0  0  0  0  0  0  0  0  0
   -7.1807   -7.2757  -19.9164 C   0  0  0  0  0  0  0  0  0  0  0  0
   -7.7751  -11.4362  -19.8755 C   0  0  2  0  0  0  0  0  0  0  0  0
   -6.0131   -8.9490  -25.9739 C   0  0  1  0  0  0  0  0  0  0  0  0
   -6.8359   -8.0864  -26.7353 O   0  0  0  0  0  0  0  0  0  0  0  0
   -6.1864   -8.1193  -20.2318 C   0  0  2  0  0  0  0  0  0  0  0  0
   -5.8575   -9.2806  -19.4494 O   0  0  0  0  0  0  0  0  0  0  0  0
   -7.5033  -10.8065  -21.3056 C   0  0  2  0  0  0  0  0  0  0  0  0
   -8.6167   -9.9938  -21.6977 O   0  0  0  0  0  0  0  0  0  0  0  0
   -6.2299   -8.6026  -24.4621 C   0  0  0  0  0  0  0  0  0  0  0  0
   -7.6322   -9.0049  -24.0373 O   0  0  0  0  0  0  0  0  0  0  0  0
   -5.2976   -7.9006  -21.4783 C   0  0  0  0  0  0  0  0  0  0  0  0
   -3.9573   -7.5160  -21.0588 N   0  0  0  0  0  0  0  0  0  0  0  0
   -7.3160  -11.9526  -22.3644 C   0  0  1  0  0  0  0  0  0  0  0  0
   -7.0723  -11.3561  -23.6157 O   0  0  0  0  0  0  0  0  0  0  0  0
   -4.5771   -8.5300  -26.3301 C   0  0  0  0  0  0  0  0  0  0  0  0
   -7.1978  -10.3694  -28.6104 C   0  0  0  0  0  0  0  0  0  0  0  0
  1  2  1  6  0  0  0
  1  6  1  0  0  0  0
  1 21  1  0  0  0  0
  3  4  1  6  0  0  0
  3  8  1  0  0  0  0
  3 28  1  0  0  0  0
  5  9  1  0  0  0  0
  5 25  1  0  0  0  0
  5 29  1  1  0  0  0
  6  7  1  1  0  0  0
  6 11  1  0  0  0  0
  8 12  1  0  0  0  0
  9 10  1  1  0  0  0
  9 14  1  0  0  0  0
 11 16  1  0  0  0  0
 12 13  1  1  0  0  0
 12 17  1  0  0  0  0
 14 15  1  6  0  0  0
 14 18  1  0  0  0  0
 15 31  1  0  0  0  0
 16 20  1  0  0  0  0
 17  2  1  1  0  0  0
 17 22  1  0  0  0  0
 18 19  1  6  0  0  0
 18 24  1  0  0  0  0
 18 30  1  0  0  0  0
 20 21  1  0  0  0  0
 20 26  1  1  0  0  0
 22 23  1  6  0  0  0
 22 28  1  0  0  0  0
 24 25  1  0  0  0  0
 26 27  1  0  0  0  0
 28 29  1  6  0  0  0
M  END
>  <CHROM.1>
166.54753154,-143.25162514,44.26203379,43.28955695,109.87963290,-179.00516096
-6.85037829,-10.12928826,-22.31464375,-1.91329275,-1.41508448,-1.95458913

>  <Name>
ligand

>  <RI>
0

>  <Rbt.Current_Directory>
/home/itssahil/PROJECTS/Mol_Feturizer/New_Systems/rnas/4F8U

>  <Rbt.Executable>
rbdock ($Id: //depot/dev/client3/rdock/2013.1/src/exe/rbdock.cxx#4 $)

>  <Rbt.Library>
libRbt.so (2013.1, Build901 2013/11/27)

>  <Rbt.Parameter_File>
/export/apps/rDock/src/rDock_2013.1_src/data/scripts/dock_solv.prm

>  <Rbt.Receptor>
prm/blind_docking_100.prm

>  <SCORE>
81.4677

>  <SCORE.INTER>
71.2322

>  <SCORE.INTER.CONST>
1

>  <SCORE.INTER.POLAR>
0

>  <SCORE.INTER.ROT>
6

>  <SCORE.INTER.SOLV>
38.2297

>  <SCORE.INTER.VDW>
27.1449

>  <SCORE.INTER.norm>
2.29781

>  <SCORE.INTRA>
-2.66003

>  <SCORE.INTRA.DIHEDRAL>
-9.763

>  <SCORE.INTRA.DIHEDRAL.0>
18.77

>  <SCORE.INTRA.POLAR>
0

>  <SCORE.INTRA.POLAR.0>
0

>  <SCORE.INTRA.REPUL>
0

>  <SCORE.INTRA.REPUL.0>
0

>  <SCORE.INTRA.SOLV>
-1.28185

>  <SCORE.INTRA.SOLV.lig_0>
-77.2465

>  <SCORE.INTRA.VDW>
2.8624

>  <SCORE.INTRA.VDW.0>
-4.16072

>  <SCORE.INTRA.norm>
-0.0858073

>  <SCORE.RESTR>
12.8955

>  <SCORE.RESTR.CAVITY>
12.8955

>  <SCORE.RESTR.norm>
0.415985

>  <SCORE.SYSTEM>
0

>  <SCORE.SYSTEM.CONST>
0

>  <SCORE.SYSTEM.DIHEDRAL>
0

>  <SCORE.SYSTEM.SOLV>
0

>  <SCORE.SYSTEM.norm>
0

>  <SCORE.heavy>
31

>  <SCORE.norm>
2.62799

>  <RMSD>
10.502

$$$$
ligand
 OpenBabel11021811493D
libRbt.so/2013.1/901 2013/11/27
 31 33  0  0  0  0  0  0  0  0999 V2000
   -4.7909   -5.3401  -20.5731 C   0  0  2  0  0  0  0  0  0  0  0  0
   -6.1327   -5.7218  -20.2410 O   0  0  0  0  0  0  0  0  0  0  0  0
   -5.9703   -9.9567  -20.8436 C   0  0  2  0  0  0  0  0  0  0  0  0
   -6.3529  -11.3357  -20.8464 N   0  0  0  0  0  0  0  0  0  0  0  0
   -8.1015  -10.2623  -23.6849 C   0  0  2  0  0  0  0  0  0  0  0  0
   -4.8814   -3.9014  -21.1925 C   0  0  2  0  0  0  0  0  0  0  0  0
   -5.5071   -2.9928  -20.2381 N   0  0  0  0  0  0  0  0  0  0  0  0
   -5.9670   -9.4314  -19.3563 C   0  0  0  0  0  0  0  0  0  0  0  0
   -7.4928  -11.4528  -24.4882 C   0  0  2  0  0  0  0  0  0  0  0  0
   -6.8353  -12.3287  -23.5886 O   0  0  0  0  0  0  0  0  0  0  0  0
   -5.6986   -3.9496  -22.5303 C   0  0  0  0  0  0  0  0  0  0  0  0
   -5.5342   -7.9016  -19.3539 C   0  0  2  0  0  0  0  0  0  0  0  0
   -5.5291   -7.3964  -17.9611 N   0  0  0  0  0  0  0  0  0  0  0  0
   -6.4645  -10.8336  -25.5349 C   0  0  1  0  0  0  0  0  0  0  0  0
   -5.8027  -11.9203  -26.3340 N   0  0  0  0  0  0  0  0  0  0  0  0
   -5.2095   -5.1164  -23.4364 C   0  0  0  0  0  0  0  0  0  0  0  0
   -6.5527   -7.0592  -20.2437 C   0  0  2  0  0  0  0  0  0  0  0  0
   -7.2646   -9.8379  -26.5455 C   0  0  1  0  0  0  0  0  0  0  0  0
   -8.2737  -10.5142  -27.2703 O   0  0  0  0  0  0  0  0  0  0  0  0
   -4.5185   -6.1459  -22.9243 C   0  0  2  0  0  0  0  0  0  0  0  0
   -4.1768   -6.2533  -21.5313 O   0  0  0  0  0  0  0  0  0  0  0  0
   -6.5524   -7.6319  -21.7227 C   0  0  2  0  0  0  0  0  0  0  0  0
   -7.4834   -6.8976  -22.5278 O   0  0  0  0  0  0  0  0  0  0  0  0
   -7.9539   -8.7035  -25.7147 C   0  0  0  0  0  0  0  0  0  0  0  0
   -8.8102   -9.3151  -24.6187 O   0  0  0  0  0  0  0  0  0  0  0  0
   -4.0216   -7.3133  -23.8087 C   0  0  0  0  0  0  0  0  0  0  0  0
   -2.7043   -6.9940  -24.3407 N   0  0  0  0  0  0  0  0  0  0  0  0
   -6.9797   -9.1441  -21.7075 C   0  0  1  0  0  0  0  0  0  0  0  0
   -6.9624   -9.6167  -23.0332 O   0  0  0  0  0  0  0  0  0  0  0  0
   -6.4083   -9.1505  -27.6219 C   0  0  0  0  0  0  0  0  0  0  0  0
   -6.6826  -12.7178  -27.2092 C   0  0  0  0  0  0  0  0  0  0  0  0
  1  2  1  6  0  0  0
  1  6  1  0  0  0  0
  1 21  1  0  0  0  0
  3  4  1  1  0  0  0
  3  8  1  0  0  0  0
  3 28  1  0  0  0  0
  5  9  1  0  0  0  0
  5 25  1  0  0  0  0
  5 29  1  6  0  0  0
  6  7  1  1  0  0  0
  6 11  1  0  0  0  0
  8 12  1  0  0  0  0
  9 10  1  1  0  0  0
  9 14  1  0  0  0  0
 11 16  1  0  0  0  0
 12 13  1  1  0  0  0
 12 17  1  0  0  0  0
 14 15  1  6  0  0  0
 14 18  1  0  0  0  0
 15 31  1  0  0  0  0
 16 20  1  0  0  0  0
 17  2  1  6  0  0  0
 17 22  1  0  0  0  0
 18 19  1  6  0  0  0
 18 24  1  0  0  0  0
 18 30  1  0  0  0  0
 20 21  1  0  0  0  0
 20 26  1  6  0  0  0
 22 23  1  6  0  0  0
 22 28  1  0  0  0  0
 24 25  1  0  0  0  0
 26 27  1  0  0  0  0
 28 29  1  6  0  0  0
M  END
>  <CHROM.1>
150.54385365,-138.49900434,64.43150739,52.01344169,88.73853491,115.19545538
-6.20281125,-8.31519649,-22.97376651,-0.66381381,-1.26416277,-1.48720584

>  <Name>
ligand

>  <RI>
0

>  <Rbt.Current_Directory>
/home/itssahil/PROJECTS/Mol_Feturizer/New_Systems/rnas/4F8U

>  <Rbt.Executable>
rbdock ($Id: //depot/dev/client3/rdock/2013.1/src/exe/rbdock.cxx#4 $)

>  <Rbt.Library>
libRbt.so (2013.1, Build901 2013/11/27)

>  <Rbt.Parameter_File>
/export/apps/rDock/src/rDock_2013.1_src/data/scripts/dock_solv.prm

>  <Rbt.Receptor>
prm/blind_docking_80.prm

>  <SCORE>
29.689

>  <SCORE.INTER>
14.9918

>  <SCORE.INTER.CONST>
1

>  <SCORE.INTER.POLAR>
0

>  <SCORE.INTER.ROT>
6

>  <SCORE.INTER.SOLV>
32.9431

>  <SCORE.INTER.VDW>
-8.58654

>  <SCORE.INTER.norm>
0.483605

>  <SCORE.INTRA>
4.1679

>  <SCORE.INTRA.DIHEDRAL>
0.483066

>  <SCORE.INTRA.DIHEDRAL.0>
18.77

>  <SCORE.INTRA.POLAR>
0

>  <SCORE.INTRA.POLAR.0>
0

>  <SCORE.INTRA.REPUL>
0

>  <SCORE.INTRA.REPUL.0>
0

>  <SCORE.INTRA.SOLV>
0.113182

>  <SCORE.INTRA.SOLV.lig_0>
-77.2465

>  <SCORE.INTRA.VDW>
3.86978

>  <SCORE.INTRA.VDW.0>
-4.16072

>  <SCORE.INTRA.norm>
0.134448

>  <SCORE.RESTR>
10.5294

>  <SCORE.RESTR.CAVITY>
10.5294

>  <SCORE.RESTR.norm>
0.339657

>  <SCORE.SYSTEM>
0

>  <SCORE.SYSTEM.CONST>
0

>  <SCORE.SYSTEM.DIHEDRAL>
0

>  <SCORE.SYSTEM.SOLV>
0

>  <SCORE.SYSTEM.norm>
0

>  <SCORE.heavy>
31

>  <SCORE.norm>
0.95771

>  <RMSD>
10.603

$$$$
ligand
 OpenBabel11021811493D
libRbt.so/2013.1/901 2013/11/27
 31 33  0  0  0  0  0  0  0  0999 V2000
   -6.8961   -8.6180  -18.9716 C   0  0  2  0  0  0  0  0  0  0  0  0
   -7.9341   -9.2630  -19.7219 O   0  0  0  0  0  0  0  0  0  0  0  0
   -6.1946  -12.5713  -21.8083 C   0  0  2  0  0  0  0  0  0  0  0  0
   -6.0050  -13.8917  -22.3265 N   0  0  0  0  0  0  0  0  0  0  0  0
   -6.3460  -11.3653  -24.5138 C   0  0  2  0  0  0  0  0  0  0  0  0
   -7.4136   -7.1707  -18.6558 C   0  0  2  0  0  0  0  0  0  0  0  0
   -8.6742   -7.2468  -17.9257 N   0  0  0  0  0  0  0  0  0  0  0  0
   -6.2347  -12.6426  -20.2331 C   0  0  0  0  0  0  0  0  0  0  0  0
   -6.7449   -9.8876  -24.8147 C   0  0  2  0  0  0  0  0  0  0  0  0
   -6.9531   -9.2069  -23.5891 O   0  0  0  0  0  0  0  0  0  0  0  0
   -7.5933   -6.3679  -19.9910 C   0  0  0  0  0  0  0  0  0  0  0  0
   -6.4375  -11.1743  -19.6584 C   0  0  2  0  0  0  0  0  0  0  0  0
   -6.4784  -11.2290  -18.1784 N   0  0  0  0  0  0  0  0  0  0  0  0
   -8.0829   -9.9307  -25.6773 C   0  0  1  0  0  0  0  0  0  0  0  0
   -8.5597   -8.5397  -25.9858 N   0  0  0  0  0  0  0  0  0  0  0  0
   -6.3429   -6.5243  -20.9040 C   0  0  0  0  0  0  0  0  0  0  0  0
   -7.7949  -10.5633  -20.2267 C   0  0  2  0  0  0  0  0  0  0  0  0
   -7.7943  -10.7193  -27.0729 C   0  0  1  0  0  0  0  0  0  0  0  0
   -6.7948  -10.0837  -27.8462 O   0  0  0  0  0  0  0  0  0  0  0  0
   -5.4846   -7.5409  -20.7321 C   0  0  2  0  0  0  0  0  0  0  0  0
   -5.6416   -8.5438  -19.7130 O   0  0  0  0  0  0  0  0  0  0  0  0
   -7.7321  -10.5336  -21.8113 C   0  0  2  0  0  0  0  0  0  0  0  0
   -8.9580  -10.0083  -22.3359 O   0  0  0  0  0  0  0  0  0  0  0  0
   -7.2988  -12.1701  -26.7536 C   0  0  0  0  0  0  0  0  0  0  0  0
   -6.1155  -12.1127  -25.8021 O   0  0  0  0  0  0  0  0  0  0  0  0
   -4.2351   -7.7119  -21.6272 C   0  0  0  0  0  0  0  0  0  0  0  0
   -4.5700   -7.3655  -23.0014 N   0  0  0  0  0  0  0  0  0  0  0  0
   -7.5293  -11.9910  -22.3629 C   0  0  1  0  0  0  0  0  0  0  0  0
   -7.4733  -11.9230  -23.7676 O   0  0  0  0  0  0  0  0  0  0  0  0
   -8.9947  -10.8531  -28.0245 C   0  0  0  0  0  0  0  0  0  0  0  0
   -9.1925   -7.8032  -24.8753 C   0  0  0  0  0  0  0  0  0  0  0  0
  1  2  1  6  0  0  0
  1  6  1  0  0  0  0
  1 21  1  0  0  0  0
  3  4  1  6  0  0  0
  3  8  1  0  0  0  0
  3 28  1  0  0  0  0
  5  9  1  0  0  0  0
  5 25  1  0  0  0  0
  5 29  1  6  0  0  0
  6  7  1  6  0  0  0
  6 11  1  0  0  0  0
  8 12  1  0  0  0  0
  9 10  1  1  0  0  0
  9 14  1  0  0  0  0
 11 16  1  0  0  0  0
 12 13  1  1  0  0  0
 12 17  1  0  0  0  0
 14 15  1  6  0  0  0
 14 18  1  0  0  0  0
 15 31  1  0  0  0  0
 16 20  1  0  0  0  0
 17  2  1  1  0  0  0
 17 22  1  0  0  0  0
 18 19  1  6  0  0  0
 18 24  1  0  0  0  0
 18 30  1  0  0  0  0
 20 21  1  0  0  0  0
 20 26  1  1  0  0  0
 22 23  1  6  0  0  0
 22 28  1  0  0  0  0
 24 25  1  0  0  0  0
 26 27  1  0  0  0  0
 28 29  1  6  0  0  0
M  END
>  <CHROM.1>
177.34716496,-95.85051929,-74.97254092,7.13075290,-38.82617349,-47.59137872
-7.05884583,-9.85312543,-22.58535593,0.98371726,-1.40323998,0.67217945

>  <Name>
ligand

>  <RI>
0

>  <Rbt.Current_Directory>
/home/itssahil/PROJECTS/Mol_Feturizer/New_Systems/rnas/4F8U

>  <Rbt.Executable>
rbdock ($Id: //depot/dev/client3/rdock/2013.1/src/exe/rbdock.cxx#4 $)

>  <Rbt.Library>
libRbt.so (2013.1, Build901 2013/11/27)

>  <Rbt.Parameter_File>
/export/apps/rDock/src/rDock_2013.1_src/data/scripts/dock_solv.prm

>  <Rbt.Receptor>
prm/blind_docking_100.prm

>  <SCORE>
50.2095

>  <SCORE.INTER>
29.5015

>  <SCORE.INTER.CONST>
1

>  <SCORE.INTER.POLAR>
0

>  <SCORE.INTER.ROT>
6

>  <SCORE.INTER.SOLV>
38.432

>  <SCORE.INTER.VDW>
-0.74299

>  <SCORE.INTER.norm>
0.951661

>  <SCORE.INTRA>
8.45503

>  <SCORE.INTRA.DIHEDRAL>
-3.11948

>  <SCORE.INTRA.DIHEDRAL.0>
18.77

>  <SCORE.INTRA.POLAR>
0

>  <SCORE.INTRA.POLAR.0>
0

>  <SCORE.INTRA.REPUL>
0

>  <SCORE.INTRA.REPUL.0>
0

>  <SCORE.INTRA.SOLV>
2.29937

>  <SCORE.INTRA.SOLV.lig_0>
-77.2465

>  <SCORE.INTRA.VDW>
8.86509

>  <SCORE.INTRA.VDW.0>
-4.16072

>  <SCORE.INTRA.norm>
0.272743

>  <SCORE.RESTR>
12.2529

>  <SCORE.RESTR.CAVITY>
12.2529

>  <SCORE.RESTR.norm>
0.395256

>  <SCORE.SYSTEM>
0

>  <SCORE.SYSTEM.CONST>
0

>  <SCORE.SYSTEM.DIHEDRAL>
0

>  <SCORE.SYSTEM.SOLV>
0

>  <SCORE.SYSTEM.norm>
0

>  <SCORE.heavy>
31

>  <SCORE.norm>
1.61966

>  <RMSD>
10.608

$$$$
ligand
 OpenBabel11021811493D
libRbt.so/2013.1/901 2013/11/27
 31 33  0  0  0  0  0  0  0  0999 V2000
   -6.8283  -12.5408  -19.1068 C   0  0  2  0  0  0  0  0  0  0  0  0
   -7.4299  -11.6571  -20.0626 O   0  0  0  0  0  0  0  0  0  0  0  0
   -7.5687   -7.3802  -20.1741 C   0  0  2  0  0  0  0  0  0  0  0  0
   -7.1537   -6.0195  -20.3295 N   0  0  0  0  0  0  0  0  0  0  0  0
   -8.0618   -7.8360  -23.9475 C   0  0  2  0  0  0  0  0  0  0  0  0
   -6.9379  -13.9850  -19.7104 C   0  0  2  0  0  0  0  0  0  0  0  0
   -6.2785  -14.0265  -21.0109 N   0  0  0  0  0  0  0  0  0  0  0  0
   -6.7002   -8.0521  -19.0418 C   0  0  0  0  0  0  0  0  0  0  0  0
   -6.7167   -7.1931  -24.4064 C   0  0  2  0  0  0  0  0  0  0  0  0
   -5.6542   -7.7649  -23.6627 O   0  0  0  0  0  0  0  0  0  0  0  0
   -8.4466  -14.3933  -19.8399 C   0  0  0  0  0  0  0  0  0  0  0  0
   -7.1675   -9.5612  -18.8646 C   0  0  2  0  0  0  0  0  0  0  0  0
   -6.3568  -10.2036  -17.8038 N   0  0  0  0  0  0  0  0  0  0  0  0
   -6.8280   -5.6285  -24.1307 C   0  0  1  0  0  0  0  0  0  0  0  0
   -5.5543   -4.9307  -24.5155 N   0  0  0  0  0  0  0  0  0  0  0  0
   -9.2203  -14.0790  -18.5269 C   0  0  0  0  0  0  0  0  0  0  0  0
   -6.9891  -10.3388  -20.2438 C   0  0  2  0  0  0  0  0  0  0  0  0
   -8.0583   -5.0176  -25.0059 C   0  0  1  0  0  0  0  0  0  0  0  0
   -7.8677   -5.2052  -26.3949 O   0  0  0  0  0  0  0  0  0  0  0  0
   -8.7395  -13.1994  -17.6353 C   0  0  2  0  0  0  0  0  0  0  0  0
   -7.4984  -12.4941  -17.8114 O   0  0  0  0  0  0  0  0  0  0  0  0
   -7.8513   -9.6205  -21.3646 C   0  0  2  0  0  0  0  0  0  0  0  0
   -7.6801  -10.2966  -22.6166 O   0  0  0  0  0  0  0  0  0  0  0  0
   -9.3873   -5.7426  -24.6052 C   0  0  0  0  0  0  0  0  0  0  0  0
   -9.2102   -7.2469  -24.7257 O   0  0  0  0  0  0  0  0  0  0  0  0
   -9.4921  -12.8758  -16.3236 C   0  0  0  0  0  0  0  0  0  0  0  0
   -8.6693  -13.2560  -15.1840 N   0  0  0  0  0  0  0  0  0  0  0  0
   -7.3788   -8.1304  -21.5256 C   0  0  1  0  0  0  0  0  0  0  0  0
   -8.1685   -7.5267  -22.5221 O   0  0  0  0  0  0  0  0  0  0  0  0
   -8.3042   -3.5079  -24.8484 C   0  0  0  0  0  0  0  0  0  0  0  0
   -4.5039   -4.8683  -23.4816 C   0  0  0  0  0  0  0  0  0  0  0  0
  1  2  1  6  0  0  0
  1  6  1  0  0  0  0
  1 21  1  0  0  0  0
  3  4  1  6  0  0  0
  3  8  1  0  0  0  0
  3 28  1  0  0  0  0
  5  9  1  0  0  0  0
  5 25  1  0  0  0  0
  5 29  1  1  0  0  0
  6  7  1  6  0  0  0
  6 11  1  0  0  0  0
  8 12  1  0  0  0  0
  9 10  1  1  0  0  0
  9 14  1  0  0  0  0
 11 16  1  0  0  0  0
 12 13  1  1  0  0  0
 12 17  1  0  0  0  0
 14 15  1  6  0  0  0
 14 18  1  0  0  0  0
 15 31  1  0  0  0  0
 16 20  1  0  0  0  0
 17  2  1  1  0  0  0
 17 22  1  0  0  0  0
 18 19  1  6  0  0  0
 18 24  1  0  0  0  0
 18 30  1  0  0  0  0
 20 21  1  0  0  0  0
 20 26  1  1  0  0  0
 22 23  1  6  0  0  0
 22 28  1  0  0  0  0
 24 25  1  0  0  0  0
 26 27  1  0  0  0  0
 28 29  1  6  0  0  0
M  END
>  <CHROM.1>
-147.92365859,-72.15647090,-87.02561631,-60.49610466,117.94877351,169.42289216
-7.50686987,-9.15645905,-21.31491124,1.87834572,1.35170736,2.13536032

>  <Name>
ligand

>  <RI>
0

>  <Rbt.Current_Directory>
/home/itssahil/PROJECTS/Mol_Feturizer/New_Systems/rnas/4F8U

>  <Rbt.Executable>
rbdock ($Id: //depot/dev/client3/rdock/2013.1/src/exe/rbdock.cxx#4 $)

>  <Rbt.Library>
libRbt.so (2013.1, Build901 2013/11/27)

>  <Rbt.Parameter_File>
/export/apps/rDock/src/rDock_2013.1_src/data/scripts/dock_solv.prm

>  <Rbt.Receptor>
prm/pocket_docking_8.prm

>  <SCORE>
-11.1081

>  <SCORE.INTER>
-8.08582

>  <SCORE.INTER.CONST>
1

>  <SCORE.INTER.POLAR>
0

>  <SCORE.INTER.ROT>
6

>  <SCORE.INTER.SOLV>
17.0054

>  <SCORE.INTER.VDW>
-18.659

>  <SCORE.INTER.norm>
-0.260833

>  <SCORE.INTRA>
-3.02227

>  <SCORE.INTRA.DIHEDRAL>
-11.3382

>  <SCORE.INTRA.DIHEDRAL.0>
18.77

>  <SCORE.INTRA.POLAR>
0

>  <SCORE.INTRA.POLAR.0>
0

>  <SCORE.INTRA.REPUL>
0

>  <SCORE.INTRA.REPUL.0>
0

>  <SCORE.INTRA.SOLV>
0.966858

>  <SCORE.INTRA.SOLV.lig_0>
-77.2465

>  <SCORE.INTRA.VDW>
2.1634

>  <SCORE.INTRA.VDW.0>
-4.16072

>  <SCORE.INTRA.norm>
-0.0974927

>  <SCORE.RESTR>
0

>  <SCORE.RESTR.CAVITY>
0

>  <SCORE.RESTR.norm>
0

>  <SCORE.SYSTEM>
0

>  <SCORE.SYSTEM.CONST>
0

>  <SCORE.SYSTEM.DIHEDRAL>
0

>  <SCORE.SYSTEM.SOLV>
0

>  <SCORE.SYSTEM.norm>
0

>  <SCORE.heavy>
31

>  <SCORE.norm>
-0.358326

>  <RMSD>
10.611

$$$$
ligand
 OpenBabel11021811493D
libRbt.so/2013.1/901 2013/11/27
 31 33  0  0  0  0  0  0  0  0999 V2000
   -6.8833   -8.5670  -19.0782 C   0  0  2  0  0  0  0  0  0  0  0  0
   -7.9419   -9.2115  -19.7997 O   0  0  0  0  0  0  0  0  0  0  0  0
   -6.2345  -12.5493  -21.8655 C   0  0  2  0  0  0  0  0  0  0  0  0
   -6.0616  -13.8726  -22.3820 N   0  0  0  0  0  0  0  0  0  0  0  0
   -6.3212  -11.3576  -24.5724 C   0  0  2  0  0  0  0  0  0  0  0  0
   -7.4060   -7.1329  -18.7145 C   0  0  2  0  0  0  0  0  0  0  0  0
   -8.6357   -7.2395  -17.9372 N   0  0  0  0  0  0  0  0  0  0  0  0
   -6.2963  -12.6205  -20.2910 C   0  0  0  0  0  0  0  0  0  0  0  0
   -6.7278   -9.9161  -25.0082 C   0  0  2  0  0  0  0  0  0  0  0  0
   -7.0085   -9.1460  -23.8519 O   0  0  0  0  0  0  0  0  0  0  0  0
   -7.6483   -6.3075  -20.0259 C   0  0  0  0  0  0  0  0  0  0  0  0
   -6.4804  -11.1491  -19.7180 C   0  0  2  0  0  0  0  0  0  0  0  0
   -6.5415  -11.2037  -18.2387 N   0  0  0  0  0  0  0  0  0  0  0  0
   -8.0197  -10.0528  -25.9294 C   0  0  1  0  0  0  0  0  0  0  0  0
   -8.5022   -8.6999  -26.3699 N   0  0  0  0  0  0  0  0  0  0  0  0
   -6.4330   -6.4301  -20.9901 C   0  0  0  0  0  0  0  0  0  0  0  0
   -7.8192  -10.5138  -20.3035 C   0  0  2  0  0  0  0  0  0  0  0  0
   -7.6483  -10.9421  -27.2425 C   0  0  1  0  0  0  0  0  0  0  0  0
   -6.6212  -10.3491  -28.0135 O   0  0  0  0  0  0  0  0  0  0  0  0
   -5.5559   -7.4383  -20.8716 C   0  0  2  0  0  0  0  0  0  0  0  0
   -5.6600   -8.4621  -19.8668 O   0  0  0  0  0  0  0  0  0  0  0  0
   -7.7353  -10.4845  -21.8870 C   0  0  2  0  0  0  0  0  0  0  0  0
   -8.9448   -9.9373  -22.4272 O   0  0  0  0  0  0  0  0  0  0  0  0
   -7.1466  -12.3534  -26.7857 C   0  0  0  0  0  0  0  0  0  0  0  0
   -6.0140  -12.1986  -25.7847 O   0  0  0  0  0  0  0  0  0  0  0  0
   -4.3407   -7.5758  -21.8182 C   0  0  0  0  0  0  0  0  0  0  0  0
   -3.8377   -6.2526  -22.1596 N   0  0  0  0  0  0  0  0  0  0  0  0
   -7.5513  -11.9451  -22.4369 C   0  0  1  0  0  0  0  0  0  0  0  0
   -7.4759  -11.8775  -23.8407 O   0  0  0  0  0  0  0  0  0  0  0  0
   -8.7968  -11.1734  -28.2385 C   0  0  0  0  0  0  0  0  0  0  0  0
   -7.4963   -7.8152  -26.9878 C   0  0  0  0  0  0  0  0  0  0  0  0
  1  2  1  6  0  0  0
  1  6  1  0  0  0  0
  1 21  1  0  0  0  0
  3  4  1  6  0  0  0
  3  8  1  0  0  0  0
  3 28  1  0  0  0  0
  5  9  1  0  0  0  0
  5 25  1  0  0  0  0
  5 29  1  6  0  0  0
  6  7  1  6  0  0  0
  6 11  1  0  0  0  0
  8 12  1  0  0  0  0
  9 10  1  1  0  0  0
  9 14  1  0  0  0  0
 11 16  1  0  0  0  0
 12 13  1  1  0  0  0
 12 17  1  0  0  0  0
 14 15  1  6  0  0  0
 14 18  1  0  0  0  0
 15 31  1  0  0  0  0
 16 20  1  0  0  0  0
 17  2  1  1  0  0  0
 17 22  1  0  0  0  0
 18 19  1  6  0  0  0
 18 24  1  0  0  0  0
 18 30  1  0  0  0  0
 20 21  1  0  0  0  0
 20 26  1  1  0  0  0
 22 23  1  6  0  0  0
 22 28  1  0  0  0  0
 24 25  1  0  0  0  0
 26 27  1  0  0  0  0
 28 29  1  6  0  0  0
M  END
>  <CHROM.1>
179.10437519,-101.71902310,51.76978250,9.51021416,35.33703409,-46.66301545
-6.96704855,-9.82868944,-22.73615325,-0.27263063,-1.49157082,-0.60348330

>  <Name>
ligand

>  <RI>
0

>  <Rbt.Current_Directory>
/home/itssahil/PROJECTS/Mol_Feturizer/New_Systems/rnas/4F8U

>  <Rbt.Executable>
rbdock ($Id: //depot/dev/client3/rdock/2013.1/src/exe/rbdock.cxx#4 $)

>  <Rbt.Library>
libRbt.so (2013.1, Build901 2013/11/27)

>  <Rbt.Parameter_File>
/export/apps/rDock/src/rDock_2013.1_src/data/scripts/dock_solv.prm

>  <Rbt.Receptor>
prm/blind_docking_100.prm

>  <SCORE>
52.667

>  <SCORE.INTER>
34.7274

>  <SCORE.INTER.CONST>
1

>  <SCORE.INTER.POLAR>
0

>  <SCORE.INTER.ROT>
6

>  <SCORE.INTER.SOLV>
39.4107

>  <SCORE.INTER.VDW>
2.41471

>  <SCORE.INTER.norm>
1.12024

>  <SCORE.INTRA>
6.46074

>  <SCORE.INTRA.DIHEDRAL>
-2.53

>  <SCORE.INTRA.DIHEDRAL.0>
18.77

>  <SCORE.INTRA.POLAR>
0

>  <SCORE.INTRA.POLAR.0>
0

>  <SCORE.INTRA.REPUL>
0

>  <SCORE.INTRA.REPUL.0>
0

>  <SCORE.INTRA.SOLV>
0.612765

>  <SCORE.INTRA.SOLV.lig_0>
-77.2465

>  <SCORE.INTRA.VDW>
7.41936

>  <SCORE.INTRA.VDW.0>
-4.16072

>  <SCORE.INTRA.norm>
0.208411

>  <SCORE.RESTR>
11.4788

>  <SCORE.RESTR.CAVITY>
11.4788

>  <SCORE.RESTR.norm>
0.370283

>  <SCORE.SYSTEM>
0

>  <SCORE.SYSTEM.CONST>
0

>  <SCORE.SYSTEM.DIHEDRAL>
0

>  <SCORE.SYSTEM.SOLV>
0

>  <SCORE.SYSTEM.norm>
0

>  <SCORE.heavy>
31

>  <SCORE.norm>
1.69893

>  <RMSD>
10.741

$$$$
ligand
 OpenBabel11021811493D
libRbt.so/2013.1/901 2013/11/27
 31 33  0  0  0  0  0  0  0  0999 V2000
   -6.6582  -11.0861  -26.0936 C   0  0  2  0  0  0  0  0  0  0  0  0
   -7.1723  -11.5056  -24.8223 O   0  0  0  0  0  0  0  0  0  0  0  0
   -7.5669   -9.6633  -20.9786 C   0  0  2  0  0  0  0  0  0  0  0  0
   -7.2191   -9.0506  -19.7330 N   0  0  0  0  0  0  0  0  0  0  0  0
   -7.4112   -6.5583  -20.9977 C   0  0  2  0  0  0  0  0  0  0  0  0
   -7.8911  -10.5858  -26.9253 C   0  0  2  0  0  0  0  0  0  0  0  0
   -8.5664   -9.5109  -26.2067 N   0  0  0  0  0  0  0  0  0  0  0  0
   -6.9276  -11.1043  -21.0342 C   0  0  0  0  0  0  0  0  0  0  0  0
   -7.3393   -5.1568  -21.6788 C   0  0  2  0  0  0  0  0  0  0  0  0
   -8.5573   -4.9119  -22.3609 O   0  0  0  0  0  0  0  0  0  0  0  0
   -8.8735  -11.7797  -27.1890 C   0  0  0  0  0  0  0  0  0  0  0  0
   -7.3213  -11.7869  -22.4149 C   0  0  2  0  0  0  0  0  0  0  0  0
   -6.7245  -13.1414  -22.4792 N   0  0  0  0  0  0  0  0  0  0  0  0
   -6.1140   -5.1931  -22.6954 C   0  0  1  0  0  0  0  0  0  0  0  0
   -5.9912   -3.8852  -23.4244 N   0  0  0  0  0  0  0  0  0  0  0  0
   -8.1000  -13.0327  -27.6923 C   0  0  0  0  0  0  0  0  0  0  0  0
   -6.7909  -10.8914  -23.6214 C   0  0  2  0  0  0  0  0  0  0  0  0
   -4.7402   -5.4752  -21.8672 C   0  0  1  0  0  0  0  0  0  0  0  0
   -4.4824   -4.4697  -20.9062 O   0  0  0  0  0  0  0  0  0  0  0  0
   -6.7804  -13.1588  -27.4868 C   0  0  2  0  0  0  0  0  0  0  0  0
   -5.9888  -12.1701  -26.8050 O   0  0  0  0  0  0  0  0  0  0  0  0
   -7.4297   -9.4433  -23.5181 C   0  0  2  0  0  0  0  0  0  0  0  0
   -6.9412   -8.6200  -24.5847 O   0  0  0  0  0  0  0  0  0  0  0  0
   -4.8654   -6.8390  -21.1078 C   0  0  0  0  0  0  0  0  0  0  0  0
   -6.1274   -6.8435  -20.2616 O   0  0  0  0  0  0  0  0  0  0  0  0
   -5.9937  -14.3949  -27.9816 C   0  0  0  0  0  0  0  0  0  0  0  0
   -6.9236  -15.3863  -28.5039 N   0  0  0  0  0  0  0  0  0  0  0  0
   -7.0333   -8.7838  -22.1479 C   0  0  1  0  0  0  0  0  0  0  0  0
   -7.6214   -7.5063  -22.0913 O   0  0  0  0  0  0  0  0  0  0  0  0
   -3.4556   -5.5454  -22.7094 C   0  0  0  0  0  0  0  0  0  0  0  0
   -6.6580   -3.8025  -24.7377 C   0  0  0  0  0  0  0  0  0  0  0  0
  1  2  1  1  0  0  0
  1  6  1  0  0  0  0
  1 21  1  0  0  0  0
  3  4  1  1  0  0  0
  3  8  1  0  0  0  0
  3 28  1  0  0  0  0
  5  9  1  0  0  0  0
  5 25  1  0  0  0  0
  5 29  1  6  0  0  0
  6  7  1  1  0  0  0
  6 11  1  0  0  0  0
  8 12  1  0  0  0  0
  9 10  1  6  0  0  0
  9 14  1  0  0  0  0
 11 16  1  0  0  0  0
 12 13  1  1  0  0  0
 12 17  1  0  0  0  0
 14 15  1  1  0  0  0
 14 18  1  0  0  0  0
 15 31  1  0  0  0  0
 16 20  1  0  0  0  0
 17  2  1  6  0  0  0
 17 22  1  0  0  0  0
 18 19  1  1  0  0  0
 18 24  1  0  0  0  0
 18 30  1  0  0  0  0
 20 21  1  0  0  0  0
 20 26  1  6  0  0  0
 22 23  1  6  0  0  0
 22 28  1  0  0  0  0
 24 25  1  0  0  0  0
 26 27  1  0  0  0  0
 28 29  1  6  0  0  0
M  END
>  <CHROM.1>
-117.75818930,142.15289638,-94.28679531,-168.94247030,-7.16382843,64.53212014
-6.77291696,-9.03015426,-23.70650250,-2.90853139,1.44957971,1.92908186

>  <Name>
ligand

>  <RI>
0

>  <Rbt.Current_Directory>
/home/itssahil/PROJECTS/Mol_Feturizer/New_Systems/rnas/4F8U

>  <Rbt.Executable>
rbdock ($Id: //depot/dev/client3/rdock/2013.1/src/exe/rbdock.cxx#4 $)

>  <Rbt.Library>
libRbt.so (2013.1, Build901 2013/11/27)

>  <Rbt.Parameter_File>
/export/apps/rDock/src/rDock_2013.1_src/data/scripts/dock_solv.prm

>  <Rbt.Receptor>
prm/blind_docking_80.prm

>  <SCORE>
6.68281

>  <SCORE.INTER>
-7.55076

>  <SCORE.INTER.CONST>
1

>  <SCORE.INTER.POLAR>
0

>  <SCORE.INTER.ROT>
6

>  <SCORE.INTER.SOLV>
26.2942

>  <SCORE.INTER.VDW>
-21.3986

>  <SCORE.INTER.norm>
-0.243573

>  <SCORE.INTRA>
2.75853

>  <SCORE.INTRA.DIHEDRAL>
-3.386

>  <SCORE.INTRA.DIHEDRAL.0>
18.77

>  <SCORE.INTRA.POLAR>
0

>  <SCORE.INTRA.POLAR.0>
0

>  <SCORE.INTRA.REPUL>
0

>  <SCORE.INTRA.REPUL.0>
0

>  <SCORE.INTRA.SOLV>
2.1255

>  <SCORE.INTRA.SOLV.lig_0>
-77.2465

>  <SCORE.INTRA.VDW>
3.38879

>  <SCORE.INTRA.VDW.0>
-4.16072

>  <SCORE.INTRA.norm>
0.088985

>  <SCORE.RESTR>
11.475

>  <SCORE.RESTR.CAVITY>
11.475

>  <SCORE.RESTR.norm>
0.370162

>  <SCORE.SYSTEM>
0

>  <SCORE.SYSTEM.CONST>
0

>  <SCORE.SYSTEM.DIHEDRAL>
0

>  <SCORE.SYSTEM.SOLV>
0

>  <SCORE.SYSTEM.norm>
0

>  <SCORE.heavy>
31

>  <SCORE.norm>
0.215575

>  <RMSD>
10.753

$$$$
ligand
 OpenBabel11021811493D
libRbt.so/2013.1/901 2013/11/27
 31 33  0  0  0  0  0  0  0  0999 V2000
   -6.9325  -13.2647  -20.7870 C   0  0  2  0  0  0  0  0  0  0  0  0
   -7.0296  -12.1465  -19.8944 O   0  0  0  0  0  0  0  0  0  0  0  0
   -7.4744   -7.9305  -20.4875 C   0  0  2  0  0  0  0  0  0  0  0  0
   -7.1791   -6.5812  -20.8618 N   0  0  0  0  0  0  0  0  0  0  0  0
   -8.4280   -8.8452  -24.0808 C   0  0  2  0  0  0  0  0  0  0  0  0
   -7.5410  -14.4932  -20.0237 C   0  0  2  0  0  0  0  0  0  0  0  0
   -8.9156  -14.1993  -19.6342 N   0  0  0  0  0  0  0  0  0  0  0  0
   -6.4118   -8.4090  -19.4246 C   0  0  0  0  0  0  0  0  0  0  0  0
   -7.3515   -7.9877  -24.8150 C   0  0  2  0  0  0  0  0  0  0  0  0
   -6.0863   -8.2299  -24.2237 O   0  0  0  0  0  0  0  0  0  0  0  0
   -6.6658  -14.8225  -18.7645 C   0  0  0  0  0  0  0  0  0  0  0  0
   -6.7456   -9.9053  -19.0037 C   0  0  2  0  0  0  0  0  0  0  0  0
   -5.7521  -10.3665  -18.0059 N   0  0  0  0  0  0  0  0  0  0  0  0
   -7.7758   -6.4618  -24.6487 C   0  0  1  0  0  0  0  0  0  0  0  0
   -6.7693   -5.5576  -25.3021 N   0  0  0  0  0  0  0  0  0  0  0  0
   -5.1544  -14.8546  -19.1334 C   0  0  0  0  0  0  0  0  0  0  0  0
   -6.7097  -10.8412  -20.2928 C   0  0  2  0  0  0  0  0  0  0  0  0
   -9.2312   -6.2327  -25.3431 C   0  0  1  0  0  0  0  0  0  0  0  0
   -9.2148   -6.5348  -26.7249 O   0  0  0  0  0  0  0  0  0  0  0  0
   -4.7014  -14.2542  -20.2443 C   0  0  2  0  0  0  0  0  0  0  0  0
   -5.5531  -13.5519  -21.1663 O   0  0  0  0  0  0  0  0  0  0  0  0
   -7.7676  -10.3149  -21.3508 C   0  0  2  0  0  0  0  0  0  0  0  0
   -7.7279  -11.1343  -22.5259 O   0  0  0  0  0  0  0  0  0  0  0  0
  -10.2821   -7.1731  -24.6624 C   0  0  0  0  0  0  0  0  0  0  0  0
   -9.7850   -8.6086  -24.6925 O   0  0  0  0  0  0  0  0  0  0  0  0
   -3.2037  -14.2774  -20.6293 C   0  0  0  0  0  0  0  0  0  0  0  0
   -2.7894  -15.6488  -20.8896 N   0  0  0  0  0  0  0  0  0  0  0  0
   -7.4252   -8.8351  -21.7543 C   0  0  1  0  0  0  0  0  0  0  0  0
   -8.3862   -8.4030  -22.6874 O   0  0  0  0  0  0  0  0  0  0  0  0
   -9.7901   -4.8023  -25.2652 C   0  0  0  0  0  0  0  0  0  0  0  0
   -5.7484   -4.9662  -24.4166 C   0  0  0  0  0  0  0  0  0  0  0  0
  1  2  1  1  0  0  0
  1  6  1  0  0  0  0
  1 21  1  0  0  0  0
  3  4  1  6  0  0  0
  3  8  1  0  0  0  0
  3 28  1  0  0  0  0
  5  9  1  0  0  0  0
  5 25  1  0  0  0  0
  5 29  1  1  0  0  0
  6  7  1  1  0  0  0
  6 11  1  0  0  0  0
  8 12  1  0  0  0  0
  9 10  1  1  0  0  0
  9 14  1  0  0  0  0
 11 16  1  0  0  0  0
 12 13  1  1  0  0  0
 12 17  1  0  0  0  0
 14 15  1  6  0  0  0
 14 18  1  0  0  0  0
 15 31  1  0  0  0  0
 16 20  1  0  0  0  0
 17  2  1  1  0  0  0
 17 22  1  0  0  0  0
 18 19  1  6  0  0  0
 18 24  1  0  0  0  0
 18 30  1  0  0  0  0
 20 21  1  0  0  0  0
 20 26  1  6  0  0  0
 22 23  1  6  0  0  0
 22 28  1  0  0  0  0
 24 25  1  0  0  0  0
 26 27  1  0  0  0  0
 28 29  1  6  0  0  0
M  END
>  <CHROM.1>
-173.11764584,-80.15221499,-97.25630643,-172.50322862,63.84295624,166.95396041
-7.12388139,-9.96844591,-22.03556602,0.89553545,1.08798735,-3.10811370

>  <Name>
ligand

>  <RI>
0

>  <Rbt.Current_Directory>
/home/itssahil/PROJECTS/Mol_Feturizer/New_Systems/rnas/4F8U

>  <Rbt.Executable>
rbdock ($Id: //depot/dev/client3/rdock/2013.1/src/exe/rbdock.cxx#4 $)

>  <Rbt.Library>
libRbt.so (2013.1, Build901 2013/11/27)

>  <Rbt.Parameter_File>
/export/apps/rDock/src/rDock_2013.1_src/data/scripts/dock_solv.prm

>  <Rbt.Receptor>
prm/pocket_docking_8.prm

>  <SCORE>
-14.8551

>  <SCORE.INTER>
-9.49698

>  <SCORE.INTER.CONST>
1

>  <SCORE.INTER.POLAR>
0

>  <SCORE.INTER.ROT>
6

>  <SCORE.INTER.SOLV>
19.0229

>  <SCORE.INTER.VDW>
-20.2723

>  <SCORE.INTER.norm>
-0.306354

>  <SCORE.INTRA>
-5.35809

>  <SCORE.INTRA.DIHEDRAL>
-11.2256

>  <SCORE.INTRA.DIHEDRAL.0>
18.77

>  <SCORE.INTRA.POLAR>
0

>  <SCORE.INTRA.POLAR.0>
0

>  <SCORE.INTRA.REPUL>
0

>  <SCORE.INTRA.REPUL.0>
0

>  <SCORE.INTRA.SOLV>
-1.63037

>  <SCORE.INTRA.SOLV.lig_0>
-77.2465

>  <SCORE.INTRA.VDW>
1.06991

>  <SCORE.INTRA.VDW.0>
-4.16072

>  <SCORE.INTRA.norm>
-0.172842

>  <SCORE.RESTR>
0

>  <SCORE.RESTR.CAVITY>
0

>  <SCORE.RESTR.norm>
0

>  <SCORE.SYSTEM>
0

>  <SCORE.SYSTEM.CONST>
0

>  <SCORE.SYSTEM.DIHEDRAL>
0

>  <SCORE.SYSTEM.SOLV>
0

>  <SCORE.SYSTEM.norm>
0

>  <SCORE.heavy>
31

>  <SCORE.norm>
-0.479196

>  <RMSD>
10.842

$$$$
ligand
 OpenBabel11021811493D
libRbt.so/2013.1/901 2013/11/27
 31 33  0  0  0  0  0  0  0  0999 V2000
   -5.9965   -5.4051  -20.1429 C   0  0  2  0  0  0  0  0  0  0  0  0
   -7.2479   -5.7399  -20.7581 O   0  0  0  0  0  0  0  0  0  0  0  0
   -7.0549  -10.0122  -20.9422 C   0  0  2  0  0  0  0  0  0  0  0  0
   -7.4658  -11.3790  -21.0474 N   0  0  0  0  0  0  0  0  0  0  0  0
   -7.5478  -10.4730  -24.4570 C   0  0  2  0  0  0  0  0  0  0  0  0
   -5.1847   -4.5886  -21.2089 C   0  0  2  0  0  0  0  0  0  0  0  0
   -5.9473   -3.4129  -21.6140 N   0  0  0  0  0  0  0  0  0  0  0  0
   -7.7465   -9.3675  -19.6797 C   0  0  0  0  0  0  0  0  0  0  0  0
   -6.6450  -10.2549  -25.7102 C   0  0  2  0  0  0  0  0  0  0  0  0
   -5.3826  -10.8570  -25.4804 O   0  0  0  0  0  0  0  0  0  0  0  0
   -4.8687   -5.4985  -22.4467 C   0  0  0  0  0  0  0  0  0  0  0  0
   -7.2831   -7.8516  -19.5594 C   0  0  2  0  0  0  0  0  0  0  0  0
   -7.9282   -7.2346  -18.3770 N   0  0  0  0  0  0  0  0  0  0  0  0
   -6.4980   -8.6822  -25.9129 C   0  0  1  0  0  0  0  0  0  0  0  0
   -5.6107   -8.3797  -27.0870 N   0  0  0  0  0  0  0  0  0  0  0  0
   -4.3138   -6.8793  -21.9920 C   0  0  0  0  0  0  0  0  0  0  0  0
   -7.6890   -7.0645  -20.8841 C   0  0  2  0  0  0  0  0  0  0  0  0
   -7.9704   -8.0368  -26.1745 C   0  0  1  0  0  0  0  0  0  0  0  0
   -8.5880   -8.5715  -27.3294 O   0  0  0  0  0  0  0  0  0  0  0  0
   -4.5160   -7.3283  -20.7441 C   0  0  2  0  0  0  0  0  0  0  0  0
   -5.2408   -6.5885  -19.7459 O   0  0  0  0  0  0  0  0  0  0  0  0
   -7.0010   -7.7559  -22.1348 C   0  0  2  0  0  0  0  0  0  0  0  0
   -7.3781   -7.0715  -23.3362 O   0  0  0  0  0  0  0  0  0  0  0  0
   -8.8964   -8.3496  -24.9510 C   0  0  0  0  0  0  0  0  0  0  0  0
   -8.8997   -9.8439  -24.6760 O   0  0  0  0  0  0  0  0  0  0  0  0
   -3.9703   -8.6963  -20.2725 C   0  0  0  0  0  0  0  0  0  0  0  0
   -4.3991   -8.9454  -18.9034 N   0  0  0  0  0  0  0  0  0  0  0  0
   -7.4673   -9.2531  -22.2380 C   0  0  1  0  0  0  0  0  0  0  0  0
   -6.8335   -9.8324  -23.3532 O   0  0  0  0  0  0  0  0  0  0  0  0
   -8.0037   -6.5142  -26.3864 C   0  0  0  0  0  0  0  0  0  0  0  0
   -4.2787   -7.8273  -26.7759 C   0  0  0  0  0  0  0  0  0  0  0  0
  1  2  1  6  0  0  0
  1  6  1  0  0  0  0
  1 21  1  0  0  0  0
  3  4  1  6  0  0  0
  3  8  1  0  0  0  0
  3 28  1  0  0  0  0
  5  9  1  0  0  0  0
  5 25  1  0  0  0  0
  5 29  1  1  0  0  0
  6  7  1  6  0  0  0
  6 11  1  0  0  0  0
  8 12  1  0  0  0  0
  9 10  1  1  0  0  0
  9 14  1  0  0  0  0
 11 16  1  0  0  0  0
 12 13  1  1  0  0  0
 12 17  1  0  0  0  0
 14 15  1  6  0  0  0
 14 18  1  0  0  0  0
 15 31  1  0  0  0  0
 16 20  1  0  0  0  0
 17  2  1  1  0  0  0
 17 22  1  0  0  0  0
 18 19  1  6  0  0  0
 18 24  1  0  0  0  0
 18 30  1  0  0  0  0
 20 21  1  0  0  0  0
 20 26  1  1  0  0  0
 22 23  1  6  0  0  0
 22 28  1  0  0  0  0
 24 25  1  0  0  0  0
 26 27  1  0  0  0  0
 28 29  1  6  0  0  0
M  END
>  <CHROM.1>
123.10296065,149.97486179,-108.76638647,38.35548967,-177.15154057,117.00200940
-6.58226168,-7.99602108,-22.76143499,-1.00257744,-1.23290361,-1.35178716

>  <Name>
ligand

>  <RI>
0

>  <Rbt.Current_Directory>
/home/itssahil/PROJECTS/Mol_Feturizer/New_Systems/rnas/4F8U

>  <Rbt.Executable>
rbdock ($Id: //depot/dev/client3/rdock/2013.1/src/exe/rbdock.cxx#4 $)

>  <Rbt.Library>
libRbt.so (2013.1, Build901 2013/11/27)

>  <Rbt.Parameter_File>
/export/apps/rDock/src/rDock_2013.1_src/data/scripts/dock_solv.prm

>  <Rbt.Receptor>
prm/blind_docking_40.prm

>  <SCORE>
36.8612

>  <SCORE.INTER>
7.80529

>  <SCORE.INTER.CONST>
1

>  <SCORE.INTER.POLAR>
0

>  <SCORE.INTER.ROT>
6

>  <SCORE.INTER.SOLV>
28.2371

>  <SCORE.INTER.VDW>
-11.8089

>  <SCORE.INTER.norm>
0.251784

>  <SCORE.INTRA>
12.9223

>  <SCORE.INTRA.DIHEDRAL>
5.9049

>  <SCORE.INTRA.DIHEDRAL.0>
18.77

>  <SCORE.INTRA.POLAR>
0

>  <SCORE.INTRA.POLAR.0>
0

>  <SCORE.INTRA.REPUL>
0

>  <SCORE.INTRA.REPUL.0>
0

>  <SCORE.INTRA.SOLV>
4.25105

>  <SCORE.INTRA.SOLV.lig_0>
-77.2465

>  <SCORE.INTRA.VDW>
7.84432

>  <SCORE.INTRA.VDW.0>
-4.16072

>  <SCORE.INTRA.norm>
0.416848

>  <SCORE.RESTR>
16.1336

>  <SCORE.RESTR.CAVITY>
16.1336

>  <SCORE.RESTR.norm>
0.520439

>  <SCORE.SYSTEM>
0

>  <SCORE.SYSTEM.CONST>
0

>  <SCORE.SYSTEM.DIHEDRAL>
0

>  <SCORE.SYSTEM.SOLV>
0

>  <SCORE.SYSTEM.norm>
0

>  <SCORE.heavy>
31

>  <SCORE.norm>
1.18907

>  <RMSD>
10.889

$$$$
ligand
 OpenBabel11021811493D
libRbt.so/2013.1/901 2013/11/27
 31 33  0  0  0  0  0  0  0  0999 V2000
   -5.0669   -7.1935  -19.7055 C   0  0  2  0  0  0  0  0  0  0  0  0
   -4.9035   -8.4864  -20.3040 O   0  0  0  0  0  0  0  0  0  0  0  0
   -7.0584  -11.8403  -21.8631 C   0  0  2  0  0  0  0  0  0  0  0  0
   -8.1411  -12.7220  -22.1770 N   0  0  0  0  0  0  0  0  0  0  0  0
   -6.3449  -11.0981  -24.7463 C   0  0  2  0  0  0  0  0  0  0  0  0
   -5.9091   -7.4143  -18.4001 C   0  0  2  0  0  0  0  0  0  0  0  0
   -5.2231   -8.3588  -17.5254 N   0  0  0  0  0  0  0  0  0  0  0  0
   -6.9420  -11.7136  -20.2952 C   0  0  0  0  0  0  0  0  0  0  0  0
   -5.9388   -9.9119  -25.6743 C   0  0  2  0  0  0  0  0  0  0  0  0
   -5.5000   -8.8281  -24.8732 O   0  0  0  0  0  0  0  0  0  0  0  0
   -7.3385   -7.9411  -18.7731 C   0  0  0  0  0  0  0  0  0  0  0  0
   -5.7340  -10.7403  -19.9478 C   0  0  2  0  0  0  0  0  0  0  0  0
   -5.6160  -10.6122  -18.4764 N   0  0  0  0  0  0  0  0  0  0  0  0
   -7.2307   -9.5126  -26.5155 C   0  0  1  0  0  0  0  0  0  0  0  0
   -6.9364   -8.3481  -27.4182 N   0  0  0  0  0  0  0  0  0  0  0  0
   -7.9596   -7.0927  -19.9203 C   0  0  0  0  0  0  0  0  0  0  0  0
   -5.9937   -9.3135  -20.6078 C   0  0  2  0  0  0  0  0  0  0  0  0
   -7.6952  -10.7858  -27.4189 C   0  0  1  0  0  0  0  0  0  0  0  0
   -6.6886  -11.1893  -28.3271 O   0  0  0  0  0  0  0  0  0  0  0  0
   -7.1875   -6.3427  -20.7210 C   0  0  2  0  0  0  0  0  0  0  0  0
   -5.7579   -6.2587  -20.5875 O   0  0  0  0  0  0  0  0  0  0  0  0
   -6.1346   -9.4817  -22.1786 C   0  0  2  0  0  0  0  0  0  0  0  0
   -6.3929   -8.2077  -22.7820 O   0  0  0  0  0  0  0  0  0  0  0  0
   -8.0041  -12.0003  -26.4798 C   0  0  0  0  0  0  0  0  0  0  0  0
   -6.8136  -12.2671  -25.5740 O   0  0  0  0  0  0  0  0  0  0  0  0
   -7.7861   -5.4908  -21.8645 C   0  0  0  0  0  0  0  0  0  0  0  0
   -8.1836   -6.3607  -22.9625 N   0  0  0  0  0  0  0  0  0  0  0  0
   -7.3304  -10.4476  -22.5048 C   0  0  1  0  0  0  0  0  0  0  0  0
   -7.4200  -10.5755  -23.9036 O   0  0  0  0  0  0  0  0  0  0  0  0
   -8.9408  -10.5649  -28.2931 C   0  0  0  0  0  0  0  0  0  0  0  0
   -8.0676   -7.4499  -27.7179 C   0  0  0  0  0  0  0  0  0  0  0  0
  1  2  1  6  0  0  0
  1  6  1  0  0  0  0
  1 21  1  0  0  0  0
  3  4  1  1  0  0  0
  3  8  1  0  0  0  0
  3 28  1  0  0  0  0
  5  9  1  0  0  0  0
  5 25  1  0  0  0  0
  5 29  1  1  0  0  0
  6  7  1  1  0  0  0
  6 11  1  0  0  0  0
  8 12  1  0  0  0  0
  9 10  1  1  0  0  0
  9 14  1  0  0  0  0
 11 16  1  0  0  0  0
 12 13  1  1  0  0  0
 12 17  1  0  0  0  0
 14 15  1  6  0  0  0
 14 18  1  0  0  0  0
 15 31  1  0  0  0  0
 16 20  1  0  0  0  0
 17  2  1  6  0  0  0
 17 22  1  0  0  0  0
 18 19  1  6  0  0  0
 18 24  1  0  0  0  0
 18 30  1  0  0  0  0
 20 21  1  0  0  0  0
 20 26  1  1  0  0  0
 22 23  1  6  0  0  0
 22 28  1  0  0  0  0
 24 25  1  0  0  0  0
 26 27  1  0  0  0  0
 28 29  1  6  0  0  0
M  END
>  <CHROM.1>
54.56724835,-116.65018480,-149.90574956,-127.27163341,-74.29241895,-59.16568857
-6.77838242,-9.30076341,-22.90742264,0.48681838,-1.39187870,0.20519711

>  <Name>
ligand

>  <RI>
0

>  <Rbt.Current_Directory>
/home/itssahil/PROJECTS/Mol_Feturizer/New_Systems/rnas/4F8U

>  <Rbt.Executable>
rbdock ($Id: //depot/dev/client3/rdock/2013.1/src/exe/rbdock.cxx#4 $)

>  <Rbt.Library>
libRbt.so (2013.1, Build901 2013/11/27)

>  <Rbt.Parameter_File>
/export/apps/rDock/src/rDock_2013.1_src/data/scripts/dock_solv.prm

>  <Rbt.Receptor>
prm/blind_docking_100.prm

>  <SCORE>
71.0802

>  <SCORE.INTER>
47.6984

>  <SCORE.INTER.CONST>
1

>  <SCORE.INTER.POLAR>
0

>  <SCORE.INTER.ROT>
6

>  <SCORE.INTER.SOLV>
31.7169

>  <SCORE.INTER.VDW>
13.6267

>  <SCORE.INTER.norm>
1.53866

>  <SCORE.INTRA>
10.452

>  <SCORE.INTRA.DIHEDRAL>
-0.590369

>  <SCORE.INTRA.DIHEDRAL.0>
18.77

>  <SCORE.INTRA.POLAR>
0

>  <SCORE.INTRA.POLAR.0>
0

>  <SCORE.INTRA.REPUL>
0.00111383

>  <SCORE.INTRA.REPUL.0>
0

>  <SCORE.INTRA.SOLV>
6.77757

>  <SCORE.INTRA.SOLV.lig_0>
-77.2465

>  <SCORE.INTRA.VDW>
7.35287

>  <SCORE.INTRA.VDW.0>
-4.16072

>  <SCORE.INTRA.norm>
0.337163

>  <SCORE.RESTR>
12.9298

>  <SCORE.RESTR.CAVITY>
12.9298

>  <SCORE.RESTR.norm>
0.417089

>  <SCORE.SYSTEM>
0

>  <SCORE.SYSTEM.CONST>
0

>  <SCORE.SYSTEM.DIHEDRAL>
0

>  <SCORE.SYSTEM.SOLV>
0

>  <SCORE.SYSTEM.norm>
0

>  <SCORE.heavy>
31

>  <SCORE.norm>
2.29291

>  <RMSD>
10.894

$$$$
ligand
 OpenBabel11021811493D
libRbt.so/2013.1/901 2013/11/27
 31 33  0  0  0  0  0  0  0  0999 V2000
   -6.5905   -7.9529  -19.8594 C   0  0  2  0  0  0  0  0  0  0  0  0
   -7.7665   -8.6578  -20.2796 O   0  0  0  0  0  0  0  0  0  0  0  0
   -6.2991  -12.2821  -22.0217 C   0  0  2  0  0  0  0  0  0  0  0  0
   -6.2186  -13.6567  -22.4118 N   0  0  0  0  0  0  0  0  0  0  0  0
   -6.3081  -11.3784  -24.8262 C   0  0  2  0  0  0  0  0  0  0  0  0
   -7.0251   -6.4617  -19.6374 C   0  0  2  0  0  0  0  0  0  0  0  0
   -8.1002   -6.4034  -18.6532 N   0  0  0  0  0  0  0  0  0  0  0  0
   -6.3574  -12.2014  -20.4475 C   0  0  0  0  0  0  0  0  0  0  0  0
   -6.5591   -9.9336  -25.3581 C   0  0  2  0  0  0  0  0  0  0  0  0
   -6.7362   -9.0602  -24.2561 O   0  0  0  0  0  0  0  0  0  0  0  0
   -7.4849   -5.8341  -20.9992 C   0  0  0  0  0  0  0  0  0  0  0  0
   -6.4387  -10.6737  -20.0151 C   0  0  2  0  0  0  0  0  0  0  0  0
   -6.4957  -10.5855  -18.5372 N   0  0  0  0  0  0  0  0  0  0  0  0
   -7.8712   -9.9882  -26.2590 C   0  0  1  0  0  0  0  0  0  0  0  0
   -8.2074   -8.6231  -26.7888 N   0  0  0  0  0  0  0  0  0  0  0  0
   -6.4595   -6.1463  -22.1272 C   0  0  0  0  0  0  0  0  0  0  0  0
   -7.7347  -10.0069  -20.6590 C   0  0  2  0  0  0  0  0  0  0  0  0
   -7.6193  -11.0006  -27.5098 C   0  0  1  0  0  0  0  0  0  0  0  0
   -6.5442  -10.5795  -28.3269 O   0  0  0  0  0  0  0  0  0  0  0  0
   -5.5865   -7.1578  -22.0069 C   0  0  2  0  0  0  0  0  0  0  0  0
   -5.5237   -8.0143  -20.8531 O   0  0  0  0  0  0  0  0  0  0  0  0
   -7.6572  -10.1316  -22.2383 C   0  0  2  0  0  0  0  0  0  0  0  0
   -8.8297   -9.5567  -22.8288 O   0  0  0  0  0  0  0  0  0  0  0  0
   -7.2703  -12.4246  -26.9597 C   0  0  0  0  0  0  0  0  0  0  0  0
   -6.1132  -12.3289  -25.9794 O   0  0  0  0  0  0  0  0  0  0  0  0
   -4.5582   -7.4820  -23.1156 C   0  0  0  0  0  0  0  0  0  0  0  0
   -4.7362   -6.5606  -24.2289 N   0  0  0  0  0  0  0  0  0  0  0  0
   -7.5750  -11.6463  -22.6487 C   0  0  1  0  0  0  0  0  0  0  0  0
   -7.5026  -11.7155  -24.0526 O   0  0  0  0  0  0  0  0  0  0  0  0
   -8.8005  -11.1699  -28.4796 C   0  0  0  0  0  0  0  0  0  0  0  0
   -7.1036   -7.8760  -27.4210 C   0  0  0  0  0  0  0  0  0  0  0  0
  1  2  1  6  0  0  0
  1  6  1  0  0  0  0
  1 21  1  0  0  0  0
  3  4  1  1  0  0  0
  3  8  1  0  0  0  0
  3 28  1  0  0  0  0
  5  9  1  0  0  0  0
  5 25  1  0  0  0  0
  5 29  1  6  0  0  0
  6  7  1  1  0  0  0
  6 11  1  0  0  0  0
  8 12  1  0  0  0  0
  9 10  1  1  0  0  0
  9 14  1  0  0  0  0
 11 16  1  0  0  0  0
 12 13  1  1  0  0  0
 12 17  1  0  0  0  0
 14 15  1  6  0  0  0
 14 18  1  0  0  0  0
 15 31  1  0  0  0  0
 16 20  1  0  0  0  0
 17  2  1  6  0  0  0
 17 22  1  0  0  0  0
 18 19  1  6  0  0  0
 18 24  1  0  0  0  0
 18 30  1  0  0  0  0
 20 21  1  0  0  0  0
 20 26  1  1  0  0  0
 22 23  1  6  0  0  0
 22 28  1  0  0  0  0
 24 25  1  0  0  0  0
 26 27  1  0  0  0  0
 28 29  1  6  0  0  0
M  END
>  <CHROM.1>
175.56520786,-100.05280260,49.19131961,21.77206652,-1.02962283,-45.02969792
-6.91092767,-9.59736519,-23.26217817,-0.43298933,-1.50113511,-0.82183848

>  <Name>
ligand

>  <RI>
0

>  <Rbt.Current_Directory>
/home/itssahil/PROJECTS/Mol_Feturizer/New_Systems/rnas/4F8U

>  <Rbt.Executable>
rbdock ($Id: //depot/dev/client3/rdock/2013.1/src/exe/rbdock.cxx#4 $)

>  <Rbt.Library>
libRbt.so (2013.1, Build901 2013/11/27)

>  <Rbt.Parameter_File>
/export/apps/rDock/src/rDock_2013.1_src/data/scripts/dock_solv.prm

>  <Rbt.Receptor>
prm/blind_docking_100.prm

>  <SCORE>
46.1865

>  <SCORE.INTER>
26.9897

>  <SCORE.INTER.CONST>
1

>  <SCORE.INTER.POLAR>
0

>  <SCORE.INTER.ROT>
6

>  <SCORE.INTER.SOLV>
34.5122

>  <SCORE.INTER.VDW>
-1.11091

>  <SCORE.INTER.norm>
0.870637

>  <SCORE.INTRA>
5.18785

>  <SCORE.INTRA.DIHEDRAL>
-5.33547

>  <SCORE.INTRA.DIHEDRAL.0>
18.77

>  <SCORE.INTRA.POLAR>
0

>  <SCORE.INTRA.POLAR.0>
0

>  <SCORE.INTRA.REPUL>
0

>  <SCORE.INTRA.REPUL.0>
0

>  <SCORE.INTRA.SOLV>
2.37277

>  <SCORE.INTRA.SOLV.lig_0>
-77.2465

>  <SCORE.INTRA.VDW>
6.6692

>  <SCORE.INTRA.VDW.0>
-4.16072

>  <SCORE.INTRA.norm>
0.16735

>  <SCORE.RESTR>
14.0089

>  <SCORE.RESTR.CAVITY>
14.0089

>  <SCORE.RESTR.norm>
0.451899

>  <SCORE.SYSTEM>
0

>  <SCORE.SYSTEM.CONST>
0

>  <SCORE.SYSTEM.DIHEDRAL>
0

>  <SCORE.SYSTEM.SOLV>
0

>  <SCORE.SYSTEM.norm>
0

>  <SCORE.heavy>
31

>  <SCORE.norm>
1.48989

>  <RMSD>
10.980

$$$$
ligand
 OpenBabel11021811493D
libRbt.so/2013.1/901 2013/11/27
 31 33  0  0  0  0  0  0  0  0999 V2000
   -6.5062   -7.7133  -20.1010 C   0  0  2  0  0  0  0  0  0  0  0  0
   -7.6904   -8.3650  -20.5799 O   0  0  0  0  0  0  0  0  0  0  0  0
   -6.3713  -12.1229  -22.1491 C   0  0  2  0  0  0  0  0  0  0  0  0
   -6.3491  -13.5152  -22.4793 N   0  0  0  0  0  0  0  0  0  0  0  0
   -6.3105  -11.3526  -24.9883 C   0  0  2  0  0  0  0  0  0  0  0  0
   -6.8849   -6.2045  -19.8955 C   0  0  2  0  0  0  0  0  0  0  0  0
   -8.0028   -6.0998  -18.9643 N   0  0  0  0  0  0  0  0  0  0  0  0
   -6.4406  -11.9718  -20.5806 C   0  0  0  0  0  0  0  0  0  0  0  0
   -6.4819   -9.9248  -25.5926 C   0  0  2  0  0  0  0  0  0  0  0  0
   -6.6269   -8.9908  -24.5364 O   0  0  0  0  0  0  0  0  0  0  0  0
   -7.2500   -5.5558  -21.2760 C   0  0  0  0  0  0  0  0  0  0  0  0
   -6.4572  -10.4248  -20.2147 C   0  0  2  0  0  0  0  0  0  0  0  0
   -6.5239  -10.2704  -18.7427 N   0  0  0  0  0  0  0  0  0  0  0  0
   -7.7849   -9.9575  -26.5076 C   0  0  1  0  0  0  0  0  0  0  0  0
   -8.0456   -8.6047  -27.1072 N   0  0  0  0  0  0  0  0  0  0  0  0
   -6.1858   -5.9119  -22.3540 C   0  0  0  0  0  0  0  0  0  0  0  0
   -7.7158   -9.7293  -20.9010 C   0  0  2  0  0  0  0  0  0  0  0  0
   -7.5707  -11.0410  -27.7046 C   0  0  1  0  0  0  0  0  0  0  0  0
   -6.4665  -10.7147  -28.5263 O   0  0  0  0  0  0  0  0  0  0  0  0
   -5.3651   -6.9611  -22.1948 C   0  0  2  0  0  0  0  0  0  0  0  0
   -5.3962   -7.8208  -21.0421 O   0  0  0  0  0  0  0  0  0  0  0  0
   -7.6293   -9.9253  -22.4725 C   0  0  2  0  0  0  0  0  0  0  0  0
   -8.7692   -9.3248  -23.1002 O   0  0  0  0  0  0  0  0  0  0  0  0
   -7.3004  -12.4522  -27.0818 C   0  0  0  0  0  0  0  0  0  0  0  0
   -6.1511  -12.3669  -26.0916 O   0  0  0  0  0  0  0  0  0  0  0  0
   -4.2995   -7.3294  -23.2534 C   0  0  0  0  0  0  0  0  0  0  0  0
   -3.4237   -6.1882  -23.4796 N   0  0  0  0  0  0  0  0  0  0  0  0
   -7.6115  -11.4585  -22.8170 C   0  0  1  0  0  0  0  0  0  0  0  0
   -7.5291  -11.5914  -24.2158 O   0  0  0  0  0  0  0  0  0  0  0  0
   -8.7480  -11.1982  -28.6812 C   0  0  0  0  0  0  0  0  0  0  0  0
   -8.5617   -7.5707  -26.1903 C   0  0  0  0  0  0  0  0  0  0  0  0
  1  2  1  6  0  0  0
  1  6  1  0  0  0  0
  1 21  1  0  0  0  0
  3  4  1  1  0  0  0
  3  8  1  0  0  0  0
  3 28  1  0  0  0  0
  5  9  1  0  0  0  0
  5 25  1  0  0  0  0
  5 29  1  6  0  0  0
  6  7  1  1  0  0  0
  6 11  1  0  0  0  0
  8 12  1  0  0  0  0
  9 10  1  1  0  0  0
  9 14  1  0  0  0  0
 11 16  1  0  0  0  0
 12 13  1  1  0  0  0
 12 17  1  0  0  0  0
 14 15  1  6  0  0  0
 14 18  1  0  0  0  0
 15 31  1  0  0  0  0
 16 20  1  0  0  0  0
 17  2  1  6  0  0  0
 17 22  1  0  0  0  0
 18 19  1  6  0  0  0
 18 24  1  0  0  0  0
 18 30  1  0  0  0  0
 20 21  1  0  0  0  0
 20 26  1  1  0  0  0
 22 23  1  6  0  0  0
 22 28  1  0  0  0  0
 24 25  1  0  0  0  0
 26 27  1  0  0  0  0
 28 29  1  6  0  0  0
M  END
>  <CHROM.1>
178.68599126,-100.47949765,-73.24347683,17.98761730,56.75042913,-44.47798201
-6.86187569,-9.44256179,-23.38983322,0.44325835,1.45316736,2.20764505

>  <Name>
ligand

>  <RI>
0

>  <Rbt.Current_Directory>
/home/itssahil/PROJECTS/Mol_Feturizer/New_Systems/rnas/4F8U

>  <Rbt.Executable>
rbdock ($Id: //depot/dev/client3/rdock/2013.1/src/exe/rbdock.cxx#4 $)

>  <Rbt.Library>
libRbt.so (2013.1, Build901 2013/11/27)

>  <Rbt.Parameter_File>
/export/apps/rDock/src/rDock_2013.1_src/data/scripts/dock_solv.prm

>  <Rbt.Receptor>
prm/blind_docking_100.prm

>  <SCORE>
42.1491

>  <SCORE.INTER>
22.438

>  <SCORE.INTER.CONST>
1

>  <SCORE.INTER.POLAR>
0

>  <SCORE.INTER.ROT>
6

>  <SCORE.INTER.SOLV>
35.0046

>  <SCORE.INTER.VDW>
-4.30952

>  <SCORE.INTER.norm>
0.723807

>  <SCORE.INTRA>
3.6939

>  <SCORE.INTRA.DIHEDRAL>
-2.71678

>  <SCORE.INTRA.DIHEDRAL.0>
18.77

>  <SCORE.INTRA.POLAR>
0

>  <SCORE.INTRA.POLAR.0>
0

>  <SCORE.INTRA.REPUL>
0

>  <SCORE.INTRA.REPUL.0>
0

>  <SCORE.INTRA.SOLV>
0.521217

>  <SCORE.INTRA.SOLV.lig_0>
-77.2465

>  <SCORE.INTRA.VDW>
4.79168

>  <SCORE.INTRA.VDW.0>
-4.16072

>  <SCORE.INTRA.norm>
0.119158

>  <SCORE.RESTR>
16.0171

>  <SCORE.RESTR.CAVITY>
16.0171

>  <SCORE.RESTR.norm>
0.516682

>  <SCORE.SYSTEM>
0

>  <SCORE.SYSTEM.CONST>
0

>  <SCORE.SYSTEM.DIHEDRAL>
0

>  <SCORE.SYSTEM.SOLV>
0

>  <SCORE.SYSTEM.norm>
0

>  <SCORE.heavy>
31

>  <SCORE.norm>
1.35965

>  <RMSD>
11.104

$$$$
ligand
 OpenBabel11021811493D
libRbt.so/2013.1/901 2013/11/27
 31 33  0  0  0  0  0  0  0  0999 V2000
   -7.9743   -9.5492  -19.2354 C   0  0  2  0  0  0  0  0  0  0  0  0
   -6.8867   -8.7017  -19.6298 O   0  0  0  0  0  0  0  0  0  0  0  0
   -8.2248   -7.2508  -23.4282 C   0  0  2  0  0  0  0  0  0  0  0  0
   -8.2111   -6.6287  -24.7169 N   0  0  0  0  0  0  0  0  0  0  0  0
   -6.7896  -10.5457  -24.7688 C   0  0  2  0  0  0  0  0  0  0  0  0
   -7.5195  -10.2664  -17.9161 C   0  0  2  0  0  0  0  0  0  0  0  0
   -7.1843   -9.2703  -16.9045 N   0  0  0  0  0  0  0  0  0  0  0  0
   -7.8181   -6.1821  -22.3418 C   0  0  0  0  0  0  0  0  0  0  0  0
   -5.7659   -9.9997  -25.8114 C   0  0  2  0  0  0  0  0  0  0  0  0
   -4.9877   -8.9820  -25.2052 O   0  0  0  0  0  0  0  0  0  0  0  0
   -6.2887  -11.1923  -18.2122 C   0  0  0  0  0  0  0  0  0  0  0  0
   -7.8414   -6.8722  -20.9098 C   0  0  2  0  0  0  0  0  0  0  0  0
   -7.4591   -5.8775  -19.8805 N   0  0  0  0  0  0  0  0  0  0  0  0
   -6.6067   -9.4222  -27.0344 C   0  0  1  0  0  0  0  0  0  0  0  0
   -5.6944   -8.8418  -28.0777 N   0  0  0  0  0  0  0  0  0  0  0  0
   -6.5412  -12.0613  -19.4781 C   0  0  0  0  0  0  0  0  0  0  0  0
   -6.8270   -8.1009  -20.8948 C   0  0  2  0  0  0  0  0  0  0  0  0
   -7.4811  -10.6256  -27.6978 C   0  0  1  0  0  0  0  0  0  0  0  0
   -6.6629  -11.6721  -28.1841 O   0  0  0  0  0  0  0  0  0  0  0  0
   -7.4726  -11.7152  -20.3794 C   0  0  2  0  0  0  0  0  0  0  0  0
   -8.2978  -10.5439  -20.2528 O   0  0  0  0  0  0  0  0  0  0  0  0
   -7.2476   -9.1400  -22.0168 C   0  0  2  0  0  0  0  0  0  0  0  0
   -6.3278  -10.2391  -22.0299 O   0  0  0  0  0  0  0  0  0  0  0  0
   -8.4339  -11.2309  -26.6124 C   0  0  0  0  0  0  0  0  0  0  0  0
   -7.6298  -11.6332  -25.3875 O   0  0  0  0  0  0  0  0  0  0  0  0
   -7.7402  -12.5670  -21.6421 C   0  0  0  0  0  0  0  0  0  0  0  0
   -6.4819  -12.8334  -22.3249 N   0  0  0  0  0  0  0  0  0  0  0  0
   -7.2217   -8.4421  -23.4246 C   0  0  1  0  0  0  0  0  0  0  0  0
   -7.6045   -9.3917  -24.3904 O   0  0  0  0  0  0  0  0  0  0  0  0
   -8.3587  -10.2302  -28.8969 C   0  0  0  0  0  0  0  0  0  0  0  0
   -4.8531   -7.7068  -27.6534 C   0  0  0  0  0  0  0  0  0  0  0  0
  1  2  1  6  0  0  0
  1  6  1  0  0  0  0
  1 21  1  0  0  0  0
  3  4  1  6  0  0  0
  3  8  1  0  0  0  0
  3 28  1  0  0  0  0
  5  9  1  0  0  0  0
  5 25  1  0  0  0  0
  5 29  1  6  0  0  0
  6  7  1  1  0  0  0
  6 11  1  0  0  0  0
  8 12  1  0  0  0  0
  9 10  1  1  0  0  0
  9 14  1  0  0  0  0
 11 16  1  0  0  0  0
 12 13  1  1  0  0  0
 12 17  1  0  0  0  0
 14 15  1  6  0  0  0
 14 18  1  0  0  0  0
 15 31  1  0  0  0  0
 16 20  1  0  0  0  0
 17  2  1  1  0  0  0
 17 22  1  0  0  0  0
 18 19  1  6  0  0  0
 18 24  1  0  0  0  0
 18 30  1  0  0  0  0
 20 21  1  0  0  0  0
 20 26  1  1  0  0  0
 22 23  1  6  0  0  0
 22 28  1  0  0  0  0
 24 25  1  0  0  0  0
 26 27  1  0  0  0  0
 28 29  1  6  0  0  0
M  END
>  <CHROM.1>
167.48957530,-82.63745602,-61.54509915,76.24516544,-50.65202813,171.79377587
-7.09762605,-9.62406331,-23.11274075,2.76147776,-1.50815871,2.73753444

>  <Name>
ligand

>  <RI>
0

>  <Rbt.Current_Directory>
/home/itssahil/PROJECTS/Mol_Feturizer/New_Systems/rnas/4F8U

>  <Rbt.Executable>
rbdock ($Id: //depot/dev/client3/rdock/2013.1/src/exe/rbdock.cxx#4 $)

>  <Rbt.Library>
libRbt.so (2013.1, Build901 2013/11/27)

>  <Rbt.Parameter_File>
/export/apps/rDock/src/rDock_2013.1_src/data/scripts/dock_solv.prm

>  <Rbt.Receptor>
prm/blind_docking_100.prm

>  <SCORE>
30.5191

>  <SCORE.INTER>
10.2211

>  <SCORE.INTER.CONST>
1

>  <SCORE.INTER.POLAR>
0

>  <SCORE.INTER.ROT>
6

>  <SCORE.INTER.SOLV>
30.9849

>  <SCORE.INTER.VDW>
-11.1143

>  <SCORE.INTER.norm>
0.329712

>  <SCORE.INTRA>
3.97163

>  <SCORE.INTRA.DIHEDRAL>
-10.7326

>  <SCORE.INTRA.DIHEDRAL.0>
18.77

>  <SCORE.INTRA.POLAR>
0

>  <SCORE.INTRA.POLAR.0>
0

>  <SCORE.INTRA.REPUL>
0

>  <SCORE.INTRA.REPUL.0>
0

>  <SCORE.INTRA.SOLV>
2.40406

>  <SCORE.INTRA.SOLV.lig_0>
-77.2465

>  <SCORE.INTRA.VDW>
8.13589

>  <SCORE.INTRA.VDW.0>
-4.16072

>  <SCORE.INTRA.norm>
0.128117

>  <SCORE.RESTR>
16.3264

>  <SCORE.RESTR.CAVITY>
16.3264

>  <SCORE.RESTR.norm>
0.526658

>  <SCORE.SYSTEM>
0

>  <SCORE.SYSTEM.CONST>
0

>  <SCORE.SYSTEM.DIHEDRAL>
0

>  <SCORE.SYSTEM.SOLV>
0

>  <SCORE.SYSTEM.norm>
0

>  <SCORE.heavy>
31

>  <SCORE.norm>
0.984487

>  <RMSD>
11.259

$$$$
ligand
 OpenBabel11021811493D
libRbt.so/2013.1/901 2013/11/27
 31 33  0  0  0  0  0  0  0  0999 V2000
   -5.9240   -7.0839  -21.5484 C   0  0  2  0  0  0  0  0  0  0  0  0
   -6.8728   -7.7827  -20.7311 O   0  0  0  0  0  0  0  0  0  0  0  0
   -6.5155  -11.8252  -22.0929 C   0  0  2  0  0  0  0  0  0  0  0  0
   -6.8295  -13.1994  -22.3400 N   0  0  0  0  0  0  0  0  0  0  0  0
   -6.3555  -11.2282  -24.9764 C   0  0  2  0  0  0  0  0  0  0  0  0
   -5.6434   -5.7177  -20.8294 C   0  0  2  0  0  0  0  0  0  0  0  0
   -5.1516   -5.9642  -19.4784 N   0  0  0  0  0  0  0  0  0  0  0  0
   -6.5038  -11.5769  -20.5352 C   0  0  0  0  0  0  0  0  0  0  0  0
   -6.2981   -9.8836  -25.7649 C   0  0  2  0  0  0  0  0  0  0  0  0
   -6.2499   -8.8089  -24.8421 O   0  0  0  0  0  0  0  0  0  0  0  0
   -6.9540   -4.8570  -20.7944 C   0  0  0  0  0  0  0  0  0  0  0  0
   -6.1471  -10.0520  -20.2617 C   0  0  2  0  0  0  0  0  0  0  0  0
   -6.1348   -9.8064  -18.8007 N   0  0  0  0  0  0  0  0  0  0  0  0
   -7.6141   -9.8089  -26.6587 C   0  0  1  0  0  0  0  0  0  0  0  0
   -7.6573   -8.5214  -27.4319 N   0  0  0  0  0  0  0  0  0  0  0  0
   -7.6374   -4.8314  -22.1921 C   0  0  0  0  0  0  0  0  0  0  0  0
   -7.2262   -9.1180  -20.9702 C   0  0  2  0  0  0  0  0  0  0  0  0
   -7.6240  -11.0600  -27.7015 C   0  0  1  0  0  0  0  0  0  0  0  0
   -6.5051  -11.0401  -28.5668 O   0  0  0  0  0  0  0  0  0  0  0  0
   -7.3599   -5.7654  -23.1142 C   0  0  2  0  0  0  0  0  0  0  0  0
   -6.4282   -6.8392  -22.8956 O   0  0  0  0  0  0  0  0  0  0  0  0
   -7.2318   -9.4141  -22.5284 C   0  0  2  0  0  0  0  0  0  0  0  0
   -8.2162   -8.5969  -23.1742 O   0  0  0  0  0  0  0  0  0  0  0  0
   -7.5806  -12.4031  -26.8975 C   0  0  0  0  0  0  0  0  0  0  0  0
   -6.4047  -12.3899  -25.9353 O   0  0  0  0  0  0  0  0  0  0  0  0
   -8.0265   -5.7554  -24.5097 C   0  0  0  0  0  0  0  0  0  0  0  0
   -9.1828   -6.6404  -24.5028 N   0  0  0  0  0  0  0  0  0  0  0  0
   -7.5835  -10.9247  -22.7813 C   0  0  1  0  0  0  0  0  0  0  0  0
   -7.5735  -11.1491  -24.1707 O   0  0  0  0  0  0  0  0  0  0  0  0
   -8.8393  -11.1366  -28.6405 C   0  0  0  0  0  0  0  0  0  0  0  0
   -6.4774   -8.2173  -28.2635 C   0  0  0  0  0  0  0  0  0  0  0  0
  1  2  1  1  0  0  0
  1  6  1  0  0  0  0
  1 21  1  0  0  0  0
  3  4  1  1  0  0  0
  3  8  1  0  0  0  0
  3 28  1  0  0  0  0
  5  9  1  0  0  0  0
  5 25  1  0  0  0  0
  5 29  1  6  0  0  0
  6  7  1  1  0  0  0
  6 11  1  0  0  0  0
  8 12  1  0  0  0  0
  9 10  1  1  0  0  0
  9 14  1  0  0  0  0
 11 16  1  0  0  0  0
 12 13  1  1  0  0  0
 12 17  1  0  0  0  0
 14 15  1  6  0  0  0
 14 18  1  0  0  0  0
 15 31  1  0  0  0  0
 16 20  1  0  0  0  0
 17  2  1  6  0  0  0
 17 22  1  0  0  0  0
 18 19  1  6  0  0  0
 18 24  1  0  0  0  0
 18 30  1  0  0  0  0
 20 21  1  0  0  0  0
 20 26  1  6  0  0  0
 22 23  1  6  0  0  0
 22 28  1  0  0  0  0
 24 25  1  0  0  0  0
 26 27  1  0  0  0  0
 28 29  1  6  0  0  0
M  END
>  <CHROM.1>
-171.41513049,-105.60039440,54.12086338,84.61024078,-95.70871115,-45.35879022
-6.99585622,-9.08263246,-23.72010960,0.92599468,-1.39883744,0.38472761

>  <Name>
ligand

>  <RI>
0

>  <Rbt.Current_Directory>
/home/itssahil/PROJECTS/Mol_Feturizer/New_Systems/rnas/4F8U

>  <Rbt.Executable>
rbdock ($Id: //depot/dev/client3/rdock/2013.1/src/exe/rbdock.cxx#4 $)

>  <Rbt.Library>
libRbt.so (2013.1, Build901 2013/11/27)

>  <Rbt.Parameter_File>
/export/apps/rDock/src/rDock_2013.1_src/data/scripts/dock_solv.prm

>  <Rbt.Receptor>
prm/blind_docking_100.prm

>  <SCORE>
36.6569

>  <SCORE.INTER>
8.71505

>  <SCORE.INTER.CONST>
1

>  <SCORE.INTER.POLAR>
0

>  <SCORE.INTER.ROT>
6

>  <SCORE.INTER.SOLV>
28.7691

>  <SCORE.INTER.VDW>
-11.3797

>  <SCORE.INTER.norm>
0.281131

>  <SCORE.INTRA>
8.49737

>  <SCORE.INTRA.DIHEDRAL>
-6.19898

>  <SCORE.INTRA.DIHEDRAL.0>
18.77

>  <SCORE.INTRA.POLAR>
0

>  <SCORE.INTRA.POLAR.0>
0

>  <SCORE.INTRA.REPUL>
1

>  <SCORE.INTRA.REPUL.0>
0

>  <SCORE.INTRA.SOLV>
3.62043

>  <SCORE.INTRA.SOLV.lig_0>
-77.2465

>  <SCORE.INTRA.VDW>
4.78664

>  <SCORE.INTRA.VDW.0>
-4.16072

>  <SCORE.INTRA.norm>
0.274109

>  <SCORE.RESTR>
19.4445

>  <SCORE.RESTR.CAVITY>
19.4445

>  <SCORE.RESTR.norm>
0.627241

>  <SCORE.SYSTEM>
0

>  <SCORE.SYSTEM.CONST>
0

>  <SCORE.SYSTEM.DIHEDRAL>
0

>  <SCORE.SYSTEM.SOLV>
0

>  <SCORE.SYSTEM.norm>
0

>  <SCORE.heavy>
31

>  <SCORE.norm>
1.18248

>  <RMSD>
11.273

$$$$
ligand
 OpenBabel11021811493D
libRbt.so/2013.1/901 2013/11/27
 31 33  0  0  0  0  0  0  0  0999 V2000
   -6.8753   -6.4342  -19.9738 C   0  0  2  0  0  0  0  0  0  0  0  0
   -8.0264   -6.9728  -20.6382 O   0  0  0  0  0  0  0  0  0  0  0  0
   -6.9050  -10.8703  -22.0078 C   0  0  2  0  0  0  0  0  0  0  0  0
   -6.9781  -12.2659  -22.3159 N   0  0  0  0  0  0  0  0  0  0  0  0
   -6.5169  -10.7379  -24.7705 C   0  0  2  0  0  0  0  0  0  0  0  0
   -6.8025   -4.9190  -20.3750 C   0  0  2  0  0  0  0  0  0  0  0  0
   -8.0402   -4.2484  -19.9929 N   0  0  0  0  0  0  0  0  0  0  0  0
   -7.1265  -10.6780  -20.4580 C   0  0  0  0  0  0  0  0  0  0  0  0
   -6.1646   -9.6867  -25.8678 C   0  0  2  0  0  0  0  0  0  0  0  0
   -6.0373   -8.4117  -25.2619 O   0  0  0  0  0  0  0  0  0  0  0  0
   -6.5549   -4.7896  -21.9183 C   0  0  0  0  0  0  0  0  0  0  0  0
   -7.0372   -9.1281  -20.1157 C   0  0  2  0  0  0  0  0  0  0  0  0
   -7.2455   -8.9349  -18.6616 N   0  0  0  0  0  0  0  0  0  0  0  0
   -7.3543   -9.6986  -26.9263 C   0  0  1  0  0  0  0  0  0  0  0  0
   -7.1115   -8.6848  -28.0082 N   0  0  0  0  0  0  0  0  0  0  0  0
   -5.4048   -5.7328  -22.3758 C   0  0  0  0  0  0  0  0  0  0  0  0
   -8.1449   -8.3359  -20.9428 C   0  0  2  0  0  0  0  0  0  0  0  0
   -7.4602  -11.1800  -27.5951 C   0  0  1  0  0  0  0  0  0  0  0  0
   -6.2711  -11.5459  -28.2684 O   0  0  0  0  0  0  0  0  0  0  0  0
   -5.0309   -6.7805  -21.6261 C   0  0  2  0  0  0  0  0  0  0  0  0
   -5.6430   -7.1096  -20.3668 O   0  0  0  0  0  0  0  0  0  0  0  0
   -7.9103   -8.5746  -22.4932 C   0  0  2  0  0  0  0  0  0  0  0  0
   -8.9157   -7.8865  -23.2479 O   0  0  0  0  0  0  0  0  0  0  0  0
   -7.7150  -12.2381  -26.4693 C   0  0  0  0  0  0  0  0  0  0  0  0
   -6.6555  -12.1056  -25.3882 O   0  0  0  0  0  0  0  0  0  0  0  0
   -3.8887   -7.7275  -22.0623 C   0  0  0  0  0  0  0  0  0  0  0  0
   -3.6660   -7.5936  -23.4951 N   0  0  0  0  0  0  0  0  0  0  0  0
   -7.9994  -10.1104  -22.8142 C   0  0  1  0  0  0  0  0  0  0  0  0
   -7.7814  -10.2819  -24.1941 O   0  0  0  0  0  0  0  0  0  0  0  0
   -8.5709  -11.3614  -28.6429 C   0  0  0  0  0  0  0  0  0  0  0  0
   -7.6159   -7.3221  -27.7536 C   0  0  0  0  0  0  0  0  0  0  0  0
  1  2  1  6  0  0  0
  1  6  1  0  0  0  0
  1 21  1  0  0  0  0
  3  4  1  1  0  0  0
  3  8  1  0  0  0  0
  3 28  1  0  0  0  0
  5  9  1  0  0  0  0
  5 25  1  0  0  0  0
  5 29  1  6  0  0  0
  6  7  1  6  0  0  0
  6 11  1  0  0  0  0
  8 12  1  0  0  0  0
  9 10  1  1  0  0  0
  9 14  1  0  0  0  0
 11 16  1  0  0  0  0
 12 13  1  1  0  0  0
 12 17  1  0  0  0  0
 14 15  1  6  0  0  0
 14 18  1  0  0  0  0
 15 31  1  0  0  0  0
 16 20  1  0  0  0  0
 17  2  1  6  0  0  0
 17 22  1  0  0  0  0
 18 19  1  6  0  0  0
 18 24  1  0  0  0  0
 18 30  1  0  0  0  0
 20 21  1  0  0  0  0
 20 26  1  1  0  0  0
 22 23  1  6  0  0  0
 22 28  1  0  0  0  0
 24 25  1  0  0  0  0
 26 27  1  0  0  0  0
 28 29  1  6  0  0  0
M  END
>  <CHROM.1>
155.28905277,-128.28394730,-88.44562390,14.37959321,-19.56810540,-17.31629881
-6.89126210,-8.79286796,-23.42898829,-1.19450171,-1.39239143,-1.75504721

>  <Name>
ligand

>  <RI>
0

>  <Rbt.Current_Directory>
/home/itssahil/PROJECTS/Mol_Feturizer/New_Systems/rnas/4F8U

>  <Rbt.Executable>
rbdock ($Id: //depot/dev/client3/rdock/2013.1/src/exe/rbdock.cxx#4 $)

>  <Rbt.Library>
libRbt.so (2013.1, Build901 2013/11/27)

>  <Rbt.Parameter_File>
/export/apps/rDock/src/rDock_2013.1_src/data/scripts/dock_solv.prm

>  <Rbt.Receptor>
prm/blind_docking_100.prm

>  <SCORE>
26.4265

>  <SCORE.INTER>
1.01019

>  <SCORE.INTER.CONST>
1

>  <SCORE.INTER.POLAR>
0

>  <SCORE.INTER.ROT>
6

>  <SCORE.INTER.SOLV>
26.9869

>  <SCORE.INTER.VDW>
-15.9222

>  <SCORE.INTER.norm>
0.0325867

>  <SCORE.INTRA>
9.71099

>  <SCORE.INTRA.DIHEDRAL>
5.44893

>  <SCORE.INTRA.DIHEDRAL.0>
18.77

>  <SCORE.INTRA.POLAR>
0

>  <SCORE.INTRA.POLAR.0>
0

>  <SCORE.INTRA.REPUL>
0

>  <SCORE.INTRA.REPUL.0>
0

>  <SCORE.INTRA.SOLV>
2.76047

>  <SCORE.INTRA.SOLV.lig_0>
-77.2465

>  <SCORE.INTRA.VDW>
5.60629

>  <SCORE.INTRA.VDW.0>
-4.16072

>  <SCORE.INTRA.norm>
0.313258

>  <SCORE.RESTR>
15.7053

>  <SCORE.RESTR.CAVITY>
15.7053

>  <SCORE.RESTR.norm>
0.506622

>  <SCORE.SYSTEM>
0

>  <SCORE.SYSTEM.CONST>
0

>  <SCORE.SYSTEM.DIHEDRAL>
0

>  <SCORE.SYSTEM.SOLV>
0

>  <SCORE.SYSTEM.norm>
0

>  <SCORE.heavy>
31

>  <SCORE.norm>
0.852466

>  <RMSD>
11.289

$$$$
ligand
 OpenBabel11021811493D
libRbt.so/2013.1/901 2013/11/27
 31 33  0  0  0  0  0  0  0  0999 V2000
   -6.3796   -7.4783  -20.5760 C   0  0  2  0  0  0  0  0  0  0  0  0
   -7.5893   -8.1539  -20.9457 O   0  0  0  0  0  0  0  0  0  0  0  0
   -6.3349  -12.0383  -22.2346 C   0  0  2  0  0  0  0  0  0  0  0  0
   -6.3353  -13.4516  -22.4597 N   0  0  0  0  0  0  0  0  0  0  0  0
   -6.3380  -11.3063  -25.1575 C   0  0  2  0  0  0  0  0  0  0  0  0
   -6.7709   -5.9805  -20.3197 C   0  0  2  0  0  0  0  0  0  0  0  0
   -7.7962   -5.9096  -19.2846 N   0  0  0  0  0  0  0  0  0  0  0  0
   -6.3936  -11.7693  -20.6815 C   0  0  0  0  0  0  0  0  0  0  0  0
   -6.7603  -10.0308  -25.9499 C   0  0  2  0  0  0  0  0  0  0  0  0
   -7.0708   -8.9978  -25.0305 O   0  0  0  0  0  0  0  0  0  0  0  0
   -7.2816   -5.3296  -21.6521 C   0  0  0  0  0  0  0  0  0  0  0  0
   -6.3851  -10.1992  -20.4324 C   0  0  2  0  0  0  0  0  0  0  0  0
   -6.4417   -9.9342  -18.9758 N   0  0  0  0  0  0  0  0  0  0  0  0
   -8.0354  -10.4216  -26.8202 C   0  0  1  0  0  0  0  0  0  0  0  0
   -8.5322   -9.2343  -27.5953 N   0  0  0  0  0  0  0  0  0  0  0  0
   -6.3183   -5.6519  -22.8309 C   0  0  0  0  0  0  0  0  0  0  0  0
   -7.6368   -9.5378  -21.1636 C   0  0  2  0  0  0  0  0  0  0  0  0
   -7.6300  -11.6080  -27.8599 C   0  0  1  0  0  0  0  0  0  0  0  0
   -6.6005  -11.2108  -28.7450 O   0  0  0  0  0  0  0  0  0  0  0  0
   -5.4625   -6.6828  -22.7618 C   0  0  2  0  0  0  0  0  0  0  0  0
   -5.3632   -7.5521  -21.6203 O   0  0  0  0  0  0  0  0  0  0  0  0
   -7.5616   -9.8521  -22.7164 C   0  0  2  0  0  0  0  0  0  0  0  0
   -8.6957   -9.2829  -23.3825 O   0  0  0  0  0  0  0  0  0  0  0  0
   -7.1135  -12.8472  -27.0538 C   0  0  0  0  0  0  0  0  0  0  0  0
   -5.9990  -12.4217  -26.1127 O   0  0  0  0  0  0  0  0  0  0  0  0
   -4.4956   -7.0174  -23.9215 C   0  0  0  0  0  0  0  0  0  0  0  0
   -3.1678   -6.5067  -23.6105 N   0  0  0  0  0  0  0  0  0  0  0  0
   -7.5685  -11.4069  -22.9452 C   0  0  1  0  0  0  0  0  0  0  0  0
   -7.4956  -11.6452  -24.3304 O   0  0  0  0  0  0  0  0  0  0  0  0
   -8.7592  -12.1065  -28.7769 C   0  0  0  0  0  0  0  0  0  0  0  0
   -9.5779   -8.4202  -26.9472 C   0  0  0  0  0  0  0  0  0  0  0  0
  1  2  1  6  0  0  0
  1  6  1  0  0  0  0
  1 21  1  0  0  0  0
  3  4  1  1  0  0  0
  3  8  1  0  0  0  0
  3 28  1  0  0  0  0
  5  9  1  0  0  0  0
  5 25  1  0  0  0  0
  5 29  1  1  0  0  0
  6  7  1  1  0  0  0
  6 11  1  0  0  0  0
  8 12  1  0  0  0  0
  9 10  1  1  0  0  0
  9 14  1  0  0  0  0
 11 16  1  0  0  0  0
 12 13  1  1  0  0  0
 12 17  1  0  0  0  0
 14 15  1  6  0  0  0
 14 18  1  0  0  0  0
 15 31  1  0  0  0  0
 16 20  1  0  0  0  0
 17  2  1  6  0  0  0
 17 22  1  0  0  0  0
 18 19  1  6  0  0  0
 18 24  1  0  0  0  0
 18 30  1  0  0  0  0
 20 21  1  0  0  0  0
 20 26  1  1  0  0  0
 22 23  1  6  0  0  0
 22 28  1  0  0  0  0
 24 25  1  0  0  0  0
 26 27  1  0  0  0  0
 28 29  1  6  0  0  0
M  END
>  <CHROM.1>
-175.63656639,-104.53382990,-92.42591281,20.64763453,100.58932869,-53.47433610
-6.91073770,-9.48888228,-23.68382538,-0.09316072,1.42799065,2.66138888

>  <Name>
ligand

>  <RI>
0

>  <Rbt.Current_Directory>
/home/itssahil/PROJECTS/Mol_Feturizer/New_Systems/rnas/4F8U

>  <Rbt.Executable>
rbdock ($Id: //depot/dev/client3/rdock/2013.1/src/exe/rbdock.cxx#4 $)

>  <Rbt.Library>
libRbt.so (2013.1, Build901 2013/11/27)

>  <Rbt.Parameter_File>
/export/apps/rDock/src/rDock_2013.1_src/data/scripts/dock_solv.prm

>  <Rbt.Receptor>
prm/blind_docking_80.prm

>  <SCORE>
30.076

>  <SCORE.INTER>
17.0224

>  <SCORE.INTER.CONST>
1

>  <SCORE.INTER.POLAR>
0

>  <SCORE.INTER.ROT>
6

>  <SCORE.INTER.SOLV>
33.578

>  <SCORE.INTER.VDW>
-7.4444

>  <SCORE.INTER.norm>
0.54911

>  <SCORE.INTRA>
2.94089

>  <SCORE.INTRA.DIHEDRAL>
-4.27988

>  <SCORE.INTRA.DIHEDRAL.0>
18.77

>  <SCORE.INTRA.POLAR>
0

>  <SCORE.INTRA.POLAR.0>
0

>  <SCORE.INTRA.REPUL>
0

>  <SCORE.INTRA.REPUL.0>
0

>  <SCORE.INTRA.SOLV>
0.173182

>  <SCORE.INTRA.SOLV.lig_0>
-77.2465

>  <SCORE.INTRA.VDW>
4.99424

>  <SCORE.INTRA.VDW.0>
-4.16072

>  <SCORE.INTRA.norm>
0.0948674

>  <SCORE.RESTR>
10.1127

>  <SCORE.RESTR.CAVITY>
10.1127

>  <SCORE.RESTR.norm>
0.326216

>  <SCORE.SYSTEM>
0

>  <SCORE.SYSTEM.CONST>
0

>  <SCORE.SYSTEM.DIHEDRAL>
0

>  <SCORE.SYSTEM.SOLV>
0

>  <SCORE.SYSTEM.norm>
0

>  <SCORE.heavy>
31

>  <SCORE.norm>
0.970193

>  <RMSD>
11.308

$$$$
ligand
 OpenBabel11021811493D
libRbt.so/2013.1/901 2013/11/27
 31 33  0  0  0  0  0  0  0  0999 V2000
   -6.9097   -6.4032  -21.6425 C   0  0  2  0  0  0  0  0  0  0  0  0
   -7.1655   -7.3837  -20.6278 O   0  0  0  0  0  0  0  0  0  0  0  0
   -6.8655  -11.4032  -22.0690 C   0  0  2  0  0  0  0  0  0  0  0  0
   -7.2160  -12.7549  -22.3821 N   0  0  0  0  0  0  0  0  0  0  0  0
   -6.4394  -10.9127  -24.8871 C   0  0  2  0  0  0  0  0  0  0  0  0
   -5.3910   -6.0280  -21.5214 C   0  0  2  0  0  0  0  0  0  0  0  0
   -4.5738   -7.2264  -21.6754 N   0  0  0  0  0  0  0  0  0  0  0  0
   -6.9812  -11.1946  -20.5098 C   0  0  0  0  0  0  0  0  0  0  0  0
   -6.2553   -9.7550  -25.9163 C   0  0  2  0  0  0  0  0  0  0  0  0
   -6.2140   -8.5209  -25.2206 O   0  0  0  0  0  0  0  0  0  0  0  0
   -5.1213   -5.3470  -20.1346 C   0  0  0  0  0  0  0  0  0  0  0  0
   -6.5839   -9.6950  -20.1623 C   0  0  2  0  0  0  0  0  0  0  0  0
   -6.6906   -9.4866  -18.6993 N   0  0  0  0  0  0  0  0  0  0  0  0
   -7.5000   -9.8088  -26.9084 C   0  0  1  0  0  0  0  0  0  0  0  0
   -7.4203   -8.7003  -27.9193 N   0  0  0  0  0  0  0  0  0  0  0  0
   -6.1815   -4.2461  -19.8425 C   0  0  0  0  0  0  0  0  0  0  0  0
   -7.5541   -8.6949  -20.9352 C   0  0  2  0  0  0  0  0  0  0  0  0
   -7.5041  -11.2411  -27.6839 C   0  0  1  0  0  0  0  0  0  0  0  0
   -6.3282  -11.4371  -28.4454 O   0  0  0  0  0  0  0  0  0  0  0  0
   -7.3589   -4.2328  -20.4853 C   0  0  2  0  0  0  0  0  0  0  0  0
   -7.7294   -5.2076  -21.4760 O   0  0  0  0  0  0  0  0  0  0  0  0
   -7.4345   -8.9516  -22.4958 C   0  0  2  0  0  0  0  0  0  0  0  0
   -8.3211   -8.0742  -23.2015 O   0  0  0  0  0  0  0  0  0  0  0  0
   -7.5888  -12.3980  -26.6319 C   0  0  0  0  0  0  0  0  0  0  0  0
   -6.4838  -12.2392  -25.6012 O   0  0  0  0  0  0  0  0  0  0  0  0
   -8.4242   -3.1458  -20.2109 C   0  0  0  0  0  0  0  0  0  0  0  0
   -9.6118   -3.7624  -19.6366 N   0  0  0  0  0  0  0  0  0  0  0  0
   -7.8279  -10.4377  -22.8220 C   0  0  1  0  0  0  0  0  0  0  0  0
   -7.7046  -10.6278  -24.2111 O   0  0  0  0  0  0  0  0  0  0  0  0
   -8.6534  -11.4560  -28.6826 C   0  0  0  0  0  0  0  0  0  0  0  0
   -8.4758   -7.6722  -27.8482 C   0  0  0  0  0  0  0  0  0  0  0  0
  1  2  1  1  0  0  0
  1  6  1  0  0  0  0
  1 21  1  0  0  0  0
  3  4  1  1  0  0  0
  3  8  1  0  0  0  0
  3 28  1  0  0  0  0
  5  9  1  0  0  0  0
  5 25  1  0  0  0  0
  5 29  1  6  0  0  0
  6  7  1  1  0  0  0
  6 11  1  0  0  0  0
  8 12  1  0  0  0  0
  9 10  1  1  0  0  0
  9 14  1  0  0  0  0
 11 16  1  0  0  0  0
 12 13  1  1  0  0  0
 12 17  1  0  0  0  0
 14 15  1  6  0  0  0
 14 18  1  0  0  0  0
 15 31  1  0  0  0  0
 16 20  1  0  0  0  0
 17  2  1  6  0  0  0
 17 22  1  0  0  0  0
 18 19  1  6  0  0  0
 18 24  1  0  0  0  0
 18 30  1  0  0  0  0
 20 21  1  0  0  0  0
 20 26  1  6  0  0  0
 22 23  1  6  0  0  0
 22 28  1  0  0  0  0
 24 25  1  0  0  0  0
 26 27  1  0  0  0  0
 28 29  1  6  0  0  0
M  END
>  <CHROM.1>
-116.24160516,-121.20705451,-114.60089070,128.24209951,-115.63708029,-37.23244954
-7.12369636,-8.66234461,-23.28529964,1.42946195,-1.41091156,0.73701016

>  <Name>
ligand

>  <RI>
0

>  <Rbt.Current_Directory>
/home/itssahil/PROJECTS/Mol_Feturizer/New_Systems/rnas/4F8U

>  <Rbt.Executable>
rbdock ($Id: //depot/dev/client3/rdock/2013.1/src/exe/rbdock.cxx#4 $)

>  <Rbt.Library>
libRbt.so (2013.1, Build901 2013/11/27)

>  <Rbt.Parameter_File>
/export/apps/rDock/src/rDock_2013.1_src/data/scripts/dock_solv.prm

>  <Rbt.Receptor>
prm/blind_docking_100.prm

>  <SCORE>
25.8823

>  <SCORE.INTER>
0.610274

>  <SCORE.INTER.CONST>
1

>  <SCORE.INTER.POLAR>
0

>  <SCORE.INTER.ROT>
6

>  <SCORE.INTER.SOLV>
22.5412

>  <SCORE.INTER.VDW>
-14.7069

>  <SCORE.INTER.norm>
0.0196862

>  <SCORE.INTRA>
6.80859

>  <SCORE.INTRA.DIHEDRAL>
7.57134

>  <SCORE.INTRA.DIHEDRAL.0>
18.77

>  <SCORE.INTRA.POLAR>
0

>  <SCORE.INTRA.POLAR.0>
0

>  <SCORE.INTRA.REPUL>
0

>  <SCORE.INTRA.REPUL.0>
0

>  <SCORE.INTRA.SOLV>
0.767908

>  <SCORE.INTRA.SOLV.lig_0>
-77.2465

>  <SCORE.INTRA.VDW>
2.63897

>  <SCORE.INTRA.VDW.0>
-4.16072

>  <SCORE.INTRA.norm>
0.219632

>  <SCORE.RESTR>
18.4635

>  <SCORE.RESTR.CAVITY>
18.4635

>  <SCORE.RESTR.norm>
0.595595

>  <SCORE.SYSTEM>
0

>  <SCORE.SYSTEM.CONST>
0

>  <SCORE.SYSTEM.DIHEDRAL>
0

>  <SCORE.SYSTEM.SOLV>
0

>  <SCORE.SYSTEM.norm>
0

>  <SCORE.heavy>
31

>  <SCORE.norm>
0.834914

>  <RMSD>
11.336

$$$$
ligand
 OpenBabel11021811493D
libRbt.so/2013.1/901 2013/11/27
 31 33  0  0  0  0  0  0  0  0999 V2000
   -6.5706   -7.5428  -20.1874 C   0  0  2  0  0  0  0  0  0  0  0  0
   -7.8140   -8.2266  -20.3946 O   0  0  0  0  0  0  0  0  0  0  0  0
   -6.5654  -11.7336  -22.5078 C   0  0  2  0  0  0  0  0  0  0  0  0
   -6.5815  -13.0519  -23.0642 N   0  0  0  0  0  0  0  0  0  0  0  0
   -6.7832  -11.7343  -25.3060 C   0  0  2  0  0  0  0  0  0  0  0  0
   -6.9134   -6.0131  -20.1208 C   0  0  2  0  0  0  0  0  0  0  0  0
   -7.8761   -5.7704  -19.0521 N   0  0  0  0  0  0  0  0  0  0  0  0
   -6.7105  -11.8397  -20.9407 C   0  0  0  0  0  0  0  0  0  0  0  0
   -5.9016  -10.8222  -26.2137 C   0  0  2  0  0  0  0  0  0  0  0  0
   -5.0976   -9.9926  -25.3927 O   0  0  0  0  0  0  0  0  0  0  0  0
   -7.4850   -5.5364  -21.5013 C   0  0  0  0  0  0  0  0  0  0  0  0
   -6.6846  -10.3751  -20.3230 C   0  0  2  0  0  0  0  0  0  0  0  0
   -6.8219  -10.4622  -18.8504 N   0  0  0  0  0  0  0  0  0  0  0  0
   -6.8930   -9.9521  -27.1061 C   0  0  1  0  0  0  0  0  0  0  0  0
   -6.1235   -9.0148  -27.9930 N   0  0  0  0  0  0  0  0  0  0  0  0
   -6.5978   -6.0459  -22.6738 C   0  0  0  0  0  0  0  0  0  0  0  0
   -7.8768   -9.5165  -20.9396 C   0  0  2  0  0  0  0  0  0  0  0  0
   -7.7924  -10.9465  -28.0308 C   0  0  1  0  0  0  0  0  0  0  0  0
   -6.9967  -11.7311  -28.8980 O   0  0  0  0  0  0  0  0  0  0  0  0
   -5.7625   -7.0825  -22.5084 C   0  0  2  0  0  0  0  0  0  0  0  0
   -5.6173   -7.7895  -21.2643 O   0  0  0  0  0  0  0  0  0  0  0  0
   -7.7162   -9.4550  -22.5163 C   0  0  2  0  0  0  0  0  0  0  0  0
   -8.7970   -8.7054  -23.0855 O   0  0  0  0  0  0  0  0  0  0  0  0
   -8.5967  -11.9233  -27.1081 C   0  0  0  0  0  0  0  0  0  0  0  0
   -7.6478  -12.6305  -26.1550 O   0  0  0  0  0  0  0  0  0  0  0  0
   -4.8710   -7.6017  -23.6605 C   0  0  0  0  0  0  0  0  0  0  0  0
   -5.6106   -7.5407  -24.9134 N   0  0  0  0  0  0  0  0  0  0  0  0
   -7.7415  -10.9096  -23.1105 C   0  0  1  0  0  0  0  0  0  0  0  0
   -7.5915  -10.8141  -24.5067 O   0  0  0  0  0  0  0  0  0  0  0  0
   -8.8113  -10.2590  -28.9547 C   0  0  0  0  0  0  0  0  0  0  0  0
   -6.3647   -7.5739  -27.7887 C   0  0  0  0  0  0  0  0  0  0  0  0
  1  2  1  6  0  0  0
  1  6  1  0  0  0  0
  1 21  1  0  0  0  0
  3  4  1  6  0  0  0
  3  8  1  0  0  0  0
  3 28  1  0  0  0  0
  5  9  1  0  0  0  0
  5 25  1  0  0  0  0
  5 29  1  6  0  0  0
  6  7  1  1  0  0  0
  6 11  1  0  0  0  0
  8 12  1  0  0  0  0
  9 10  1  1  0  0  0
  9 14  1  0  0  0  0
 11 16  1  0  0  0  0
 12 13  1  1  0  0  0
 12 17  1  0  0  0  0
 14 15  1  6  0  0  0
 14 18  1  0  0  0  0
 15 31  1  0  0  0  0
 16 20  1  0  0  0  0
 17  2  1  1  0  0  0
 17 22  1  0  0  0  0
 18 19  1  6  0  0  0
 18 24  1  0  0  0  0
 18 30  1  0  0  0  0
 20 21  1  0  0  0  0
 20 26  1  1  0  0  0
 22 23  1  6  0  0  0
 22 28  1  0  0  0  0
 24 25  1  0  0  0  0
 26 27  1  0  0  0  0
 28 29  1  6  0  0  0
M  END
>  <CHROM.1>
158.23952956,-131.51845434,-118.58988648,40.13554791,-38.09393717,21.07118144
-6.94807431,-9.44339262,-23.75343131,-1.34496120,-1.43595313,-1.76791839

>  <Name>
ligand

>  <RI>
0

>  <Rbt.Current_Directory>
/home/itssahil/PROJECTS/Mol_Feturizer/New_Systems/rnas/4F8U

>  <Rbt.Executable>
rbdock ($Id: //depot/dev/client3/rdock/2013.1/src/exe/rbdock.cxx#4 $)

>  <Rbt.Library>
libRbt.so (2013.1, Build901 2013/11/27)

>  <Rbt.Parameter_File>
/export/apps/rDock/src/rDock_2013.1_src/data/scripts/dock_solv.prm

>  <Rbt.Receptor>
prm/blind_docking_100.prm

>  <SCORE>
63.4238

>  <SCORE.INTER>
42.3962

>  <SCORE.INTER.CONST>
1

>  <SCORE.INTER.POLAR>
0

>  <SCORE.INTER.ROT>
6

>  <SCORE.INTER.SOLV>
35.225

>  <SCORE.INTER.VDW>
8.92248

>  <SCORE.INTER.norm>
1.36762

>  <SCORE.INTRA>
6.69202

>  <SCORE.INTRA.DIHEDRAL>
1.1229

>  <SCORE.INTRA.DIHEDRAL.0>
18.77

>  <SCORE.INTRA.POLAR>
0

>  <SCORE.INTRA.POLAR.0>
0

>  <SCORE.INTRA.REPUL>
0

>  <SCORE.INTRA.REPUL.0>
0

>  <SCORE.INTRA.SOLV>
6.30341

>  <SCORE.INTRA.SOLV.lig_0>
-77.2465

>  <SCORE.INTRA.VDW>
2.97887

>  <SCORE.INTRA.VDW.0>
-4.16072

>  <SCORE.INTRA.norm>
0.215872

>  <SCORE.RESTR>
14.3356

>  <SCORE.RESTR.CAVITY>
14.3356

>  <SCORE.RESTR.norm>
0.462437

>  <SCORE.SYSTEM>
0

>  <SCORE.SYSTEM.CONST>
0

>  <SCORE.SYSTEM.DIHEDRAL>
0

>  <SCORE.SYSTEM.SOLV>
0

>  <SCORE.SYSTEM.norm>
0

>  <SCORE.heavy>
31

>  <SCORE.norm>
2.04593

>  <RMSD>
11.373

$$$$
ligand
 OpenBabel11021811493D
libRbt.so/2013.1/901 2013/11/27
 31 33  0  0  0  0  0  0  0  0999 V2000
   -6.9165   -6.4284  -20.0145 C   0  0  2  0  0  0  0  0  0  0  0  0
   -7.8027   -6.8730  -21.0505 O   0  0  0  0  0  0  0  0  0  0  0  0
   -7.1989  -10.9915  -22.0491 C   0  0  2  0  0  0  0  0  0  0  0  0
   -7.4581  -12.3851  -22.2457 N   0  0  0  0  0  0  0  0  0  0  0  0
   -6.5994  -10.8234  -24.8527 C   0  0  2  0  0  0  0  0  0  0  0  0
   -6.4702   -4.9765  -20.4080 C   0  0  2  0  0  0  0  0  0  0  0  0
   -7.6440   -4.1225  -20.5520 N   0  0  0  0  0  0  0  0  0  0  0  0
   -7.4400  -10.6373  -20.5311 C   0  0  0  0  0  0  0  0  0  0  0  0
   -6.2986   -9.7304  -25.9242 C   0  0  2  0  0  0  0  0  0  0  0  0
   -6.2938   -8.4589  -25.2981 O   0  0  0  0  0  0  0  0  0  0  0  0
   -5.6467   -5.0174  -21.7422 C   0  0  0  0  0  0  0  0  0  0  0  0
   -7.1441   -9.0907  -20.3122 C   0  0  2  0  0  0  0  0  0  0  0  0
   -7.3691   -8.7456  -18.8891 N   0  0  0  0  0  0  0  0  0  0  0  0
   -7.4497   -9.8213  -27.0210 C   0  0  1  0  0  0  0  0  0  0  0  0
   -7.2556   -8.7746  -28.0812 N   0  0  0  0  0  0  0  0  0  0  0  0
   -4.5663   -6.1361  -21.6923 C   0  0  0  0  0  0  0  0  0  0  0  0
   -8.1024   -8.2280  -21.2483 C   0  0  2  0  0  0  0  0  0  0  0  0
   -7.4146  -11.2958  -27.7121 C   0  0  1  0  0  0  0  0  0  0  0  0
   -6.1794  -11.5546  -28.3509 O   0  0  0  0  0  0  0  0  0  0  0  0
   -4.6633   -7.1521  -20.8216 C   0  0  2  0  0  0  0  0  0  0  0  0
   -5.7443   -7.2874  -19.8825 O   0  0  0  0  0  0  0  0  0  0  0  0
   -7.8548   -8.6299  -22.7625 C   0  0  2  0  0  0  0  0  0  0  0  0
   -8.7288   -7.8778  -23.6136 O   0  0  0  0  0  0  0  0  0  0  0  0
   -7.6185  -12.3884  -26.6089 C   0  0  0  0  0  0  0  0  0  0  0  0
   -6.6077  -12.1881  -25.4922 O   0  0  0  0  0  0  0  0  0  0  0  0
   -3.5986   -8.2718  -20.7549 C   0  0  0  0  0  0  0  0  0  0  0  0
   -3.7273   -8.9911  -19.4954 N   0  0  0  0  0  0  0  0  0  0  0  0
   -8.1492  -10.1608  -22.9613 C   0  0  1  0  0  0  0  0  0  0  0  0
   -7.9139  -10.4794  -24.3119 O   0  0  0  0  0  0  0  0  0  0  0  0
   -8.4736  -11.5494  -28.7977 C   0  0  0  0  0  0  0  0  0  0  0  0
   -8.1056   -7.5733  -27.9786 C   0  0  0  0  0  0  0  0  0  0  0  0
  1  2  1  6  0  0  0
  1  6  1  0  0  0  0
  1 21  1  0  0  0  0
  3  4  1  1  0  0  0
  3  8  1  0  0  0  0
  3 28  1  0  0  0  0
  5  9  1  0  0  0  0
  5 25  1  0  0  0  0
  5 29  1  6  0  0  0
  6  7  1  6  0  0  0
  6 11  1  0  0  0  0
  8 12  1  0  0  0  0
  9 10  1  1  0  0  0
  9 14  1  0  0  0  0
 11 16  1  0  0  0  0
 12 13  1  1  0  0  0
 12 17  1  0  0  0  0
 14 15  1  6  0  0  0
 14 18  1  0  0  0  0
 15 31  1  0  0  0  0
 16 20  1  0  0  0  0
 17  2  1  6  0  0  0
 17 22  1  0  0  0  0
 18 19  1  6  0  0  0
 18 24  1  0  0  0  0
 18 30  1  0  0  0  0
 20 21  1  0  0  0  0
 20 26  1  1  0  0  0
 22 23  1  6  0  0  0
 22 28  1  0  0  0  0
 24 25  1  0  0  0  0
 26 27  1  0  0  0  0
 28 29  1  6  0  0  0
M  END
>  <CHROM.1>
161.52378513,-118.84693133,-101.38850005,-8.45242042,162.91651523,-34.01870161
-6.85931963,-8.93102919,-23.31674678,0.23723678,-1.41498925,-0.27173849

>  <Name>
ligand

>  <RI>
0

>  <Rbt.Current_Directory>
/home/itssahil/PROJECTS/Mol_Feturizer/New_Systems/rnas/4F8U

>  <Rbt.Executable>
rbdock ($Id: //depot/dev/client3/rdock/2013.1/src/exe/rbdock.cxx#4 $)

>  <Rbt.Library>
libRbt.so (2013.1, Build901 2013/11/27)

>  <Rbt.Parameter_File>
/export/apps/rDock/src/rDock_2013.1_src/data/scripts/dock_solv.prm

>  <Rbt.Receptor>
prm/blind_docking_100.prm

>  <SCORE>
25.3043

>  <SCORE.INTER>
-1.39398

>  <SCORE.INTER.CONST>
1

>  <SCORE.INTER.POLAR>
0

>  <SCORE.INTER.ROT>
6

>  <SCORE.INTER.SOLV>
29.9452

>  <SCORE.INTER.VDW>
-18.5111

>  <SCORE.INTER.norm>
-0.0449671

>  <SCORE.INTRA>
14.5361

>  <SCORE.INTRA.DIHEDRAL>
3.85611

>  <SCORE.INTRA.DIHEDRAL.0>
18.77

>  <SCORE.INTRA.POLAR>
0

>  <SCORE.INTRA.POLAR.0>
0

>  <SCORE.INTRA.REPUL>
0

>  <SCORE.INTRA.REPUL.0>
0

>  <SCORE.INTRA.SOLV>
3.85924

>  <SCORE.INTRA.SOLV.lig_0>
-77.2465

>  <SCORE.INTRA.VDW>
10.6784

>  <SCORE.INTRA.VDW.0>
-4.16072

>  <SCORE.INTRA.norm>
0.468907

>  <SCORE.RESTR>
12.1622

>  <SCORE.RESTR.CAVITY>
12.1622

>  <SCORE.RESTR.norm>
0.392329

>  <SCORE.SYSTEM>
0

>  <SCORE.SYSTEM.CONST>
0

>  <SCORE.SYSTEM.DIHEDRAL>
0

>  <SCORE.SYSTEM.SOLV>
0

>  <SCORE.SYSTEM.norm>
0

>  <SCORE.heavy>
31

>  <SCORE.norm>
0.816268

>  <RMSD>
11.390

$$$$
ligand
 OpenBabel11021811493D
libRbt.so/2013.1/901 2013/11/27
 31 33  0  0  0  0  0  0  0  0999 V2000
   -4.9206   -7.0185  -21.1148 C   0  0  2  0  0  0  0  0  0  0  0  0
   -6.3360   -7.1866  -20.9572 O   0  0  0  0  0  0  0  0  0  0  0  0
   -6.8165  -11.3287  -21.9246 C   0  0  2  0  0  0  0  0  0  0  0  0
   -7.4108  -12.6236  -22.0594 N   0  0  0  0  0  0  0  0  0  0  0  0
   -6.8918   -9.9477  -25.1350 C   0  0  2  0  0  0  0  0  0  0  0  0
   -4.6663   -5.4726  -21.2007 C   0  0  2  0  0  0  0  0  0  0  0  0
   -5.1822   -4.8212  -20.0019 N   0  0  0  0  0  0  0  0  0  0  0  0
   -6.7935  -10.9347  -20.3974 C   0  0  0  0  0  0  0  0  0  0  0  0
   -7.9220   -9.6504  -26.2679 C   0  0  2  0  0  0  0  0  0  0  0  0
   -8.9685   -8.8518  -25.7426 O   0  0  0  0  0  0  0  0  0  0  0  0
   -5.3522   -4.8923  -22.4863 C   0  0  0  0  0  0  0  0  0  0  0  0
   -6.1259   -9.4996  -20.2482 C   0  0  2  0  0  0  0  0  0  0  0  0
   -6.1003   -9.1179  -18.8168 N   0  0  0  0  0  0  0  0  0  0  0  0
   -8.4763  -11.0541  -26.7763 C   0  0  1  0  0  0  0  0  0  0  0  0
   -9.5061  -10.8589  -27.8527 N   0  0  0  0  0  0  0  0  0  0  0  0
   -5.0253   -5.7667  -23.7313 C   0  0  0  0  0  0  0  0  0  0  0  0
   -6.9606   -8.4345  -21.0894 C   0  0  2  0  0  0  0  0  0  0  0  0
   -7.2408  -11.9333  -27.3708 C   0  0  1  0  0  0  0  0  0  0  0  0
   -6.6074  -11.2917  -28.4608 O   0  0  0  0  0  0  0  0  0  0  0  0
   -4.6025   -7.0326  -23.5948 C   0  0  2  0  0  0  0  0  0  0  0  0
   -4.4166   -7.6703  -22.3191 O   0  0  0  0  0  0  0  0  0  0  0  0
   -6.9880   -8.8764  -22.6124 C   0  0  2  0  0  0  0  0  0  0  0  0
   -7.7570   -7.9388  -23.3763 O   0  0  0  0  0  0  0  0  0  0  0  0
   -6.1669  -12.1393  -26.2498 C   0  0  0  0  0  0  0  0  0  0  0  0
   -5.7648  -10.7945  -25.6680 O   0  0  0  0  0  0  0  0  0  0  0  0
   -4.2701   -7.9165  -24.8195 C   0  0  0  0  0  0  0  0  0  0  0  0
   -2.8253   -8.0038  -24.9788 N   0  0  0  0  0  0  0  0  0  0  0  0
   -7.6482  -10.2966  -22.7423 C   0  0  1  0  0  0  0  0  0  0  0  0
   -7.6494  -10.6553  -24.1033 O   0  0  0  0  0  0  0  0  0  0  0  0
   -7.6095  -13.3282  -27.9026 C   0  0  0  0  0  0  0  0  0  0  0  0
  -10.5056  -11.9332  -28.0052 C   0  0  0  0  0  0  0  0  0  0  0  0
  1  2  1  6  0  0  0
  1  6  1  0  0  0  0
  1 21  1  0  0  0  0
  3  4  1  1  0  0  0
  3  8  1  0  0  0  0
  3 28  1  0  0  0  0
  5  9  1  0  0  0  0
  5 25  1  0  0  0  0
  5 29  1  1  0  0  0
  6  7  1  1  0  0  0
  6 11  1  0  0  0  0
  8 12  1  0  0  0  0
  9 10  1  1  0  0  0
  9 14  1  0  0  0  0
 11 16  1  0  0  0  0
 12 13  1  1  0  0  0
 12 17  1  0  0  0  0
 14 15  1  6  0  0  0
 14 18  1  0  0  0  0
 15 31  1  0  0  0  0
 16 20  1  0  0  0  0
 17  2  1  6  0  0  0
 17 22  1  0  0  0  0
 18 19  1  6  0  0  0
 18 24  1  0  0  0  0
 18 30  1  0  0  0  0
 20 21  1  0  0  0  0
 20 26  1  1  0  0  0
 22 23  1  6  0  0  0
 22 28  1  0  0  0  0
 24 25  1  0  0  0  0
 26 27  1  0  0  0  0
 28 29  1  6  0  0  0
M  END
>  <CHROM.1>
168.07959123,-129.37087148,-154.07372909,47.07793238,103.14721343,-106.75448273
-6.58061903,-9.27555028,-23.84865391,-0.84644860,-1.03265882,-1.58698259

>  <Name>
ligand

>  <RI>
0

>  <Rbt.Current_Directory>
/home/itssahil/PROJECTS/Mol_Feturizer/New_Systems/rnas/4F8U

>  <Rbt.Executable>
rbdock ($Id: //depot/dev/client3/rdock/2013.1/src/exe/rbdock.cxx#4 $)

>  <Rbt.Library>
libRbt.so (2013.1, Build901 2013/11/27)

>  <Rbt.Parameter_File>
/export/apps/rDock/src/rDock_2013.1_src/data/scripts/dock_solv.prm

>  <Rbt.Receptor>
prm/blind_docking_80.prm

>  <SCORE>
12.8026

>  <SCORE.INTER>
-0.265983

>  <SCORE.INTER.CONST>
1

>  <SCORE.INTER.POLAR>
0

>  <SCORE.INTER.ROT>
6

>  <SCORE.INTER.SOLV>
28.7126

>  <SCORE.INTER.VDW>
-17.3482

>  <SCORE.INTER.norm>
-0.0085801

>  <SCORE.INTRA>
0.960417

>  <SCORE.INTRA.DIHEDRAL>
-1.6519

>  <SCORE.INTRA.DIHEDRAL.0>
18.77

>  <SCORE.INTRA.POLAR>
0

>  <SCORE.INTRA.POLAR.0>
0

>  <SCORE.INTRA.REPUL>
0

>  <SCORE.INTRA.REPUL.0>
0

>  <SCORE.INTRA.SOLV>
-1.30041

>  <SCORE.INTRA.SOLV.lig_0>
-77.2465

>  <SCORE.INTRA.VDW>
2.43657

>  <SCORE.INTRA.VDW.0>
-4.16072

>  <SCORE.INTRA.norm>
0.0309812

>  <SCORE.RESTR>
12.1081

>  <SCORE.RESTR.CAVITY>
12.1081

>  <SCORE.RESTR.norm>
0.390585

>  <SCORE.SYSTEM>
0

>  <SCORE.SYSTEM.CONST>
0

>  <SCORE.SYSTEM.DIHEDRAL>
0

>  <SCORE.SYSTEM.SOLV>
0

>  <SCORE.SYSTEM.norm>
0

>  <SCORE.heavy>
31

>  <SCORE.norm>
0.412986

>  <RMSD>
11.408

$$$$
ligand
 OpenBabel11021811493D
libRbt.so/2013.1/901 2013/11/27
 31 33  0  0  0  0  0  0  0  0999 V2000
   -5.9344   -6.5699  -20.8876 C   0  0  2  0  0  0  0  0  0  0  0  0
   -7.2454   -7.0084  -21.2689 O   0  0  0  0  0  0  0  0  0  0  0  0
   -6.8174  -11.2007  -22.0206 C   0  0  2  0  0  0  0  0  0  0  0  0
   -7.1212  -12.5973  -22.0931 N   0  0  0  0  0  0  0  0  0  0  0  0
   -6.4577  -10.9723  -24.9548 C   0  0  2  0  0  0  0  0  0  0  0  0
   -5.9125   -5.0142  -21.0905 C   0  0  2  0  0  0  0  0  0  0  0  0
   -6.9679   -4.3987  -20.2934 N   0  0  0  0  0  0  0  0  0  0  0  0
   -6.9118  -10.7357  -20.5163 C   0  0  0  0  0  0  0  0  0  0  0  0
   -6.4107   -9.7738  -25.9521 C   0  0  2  0  0  0  0  0  0  0  0  0
   -6.4679   -8.5615  -25.2202 O   0  0  0  0  0  0  0  0  0  0  0  0
   -6.0956   -4.6743  -22.6107 C   0  0  0  0  0  0  0  0  0  0  0  0
   -6.5663   -9.1860  -20.4361 C   0  0  2  0  0  0  0  0  0  0  0  0
   -6.6534   -8.7372  -19.0268 N   0  0  0  0  0  0  0  0  0  0  0  0
   -7.6703   -9.9177  -26.9159 C   0  0  1  0  0  0  0  0  0  0  0  0
   -7.7221   -8.7785  -27.8941 N   0  0  0  0  0  0  0  0  0  0  0  0
   -5.1566   -5.5491  -23.4908 C   0  0  0  0  0  0  0  0  0  0  0  0
   -7.5888   -8.3654  -21.3416 C   0  0  2  0  0  0  0  0  0  0  0  0
   -7.5596  -11.3214  -27.7346 C   0  0  1  0  0  0  0  0  0  0  0  0
   -6.3909  -11.3831  -28.5291 O   0  0  0  0  0  0  0  0  0  0  0  0
   -4.6338   -6.6912  -23.0196 C   0  0  2  0  0  0  0  0  0  0  0  0
   -4.8875   -7.1886  -21.6941 O   0  0  0  0  0  0  0  0  0  0  0  0
   -7.4887   -8.8779  -22.8393 C   0  0  2  0  0  0  0  0  0  0  0  0
   -8.4217   -8.1639  -23.6601 O   0  0  0  0  0  0  0  0  0  0  0  0
   -7.5072  -12.5103  -26.7168 C   0  0  0  0  0  0  0  0  0  0  0  0
   -6.3954  -12.2763  -25.7079 O   0  0  0  0  0  0  0  0  0  0  0  0
   -3.6967   -7.5727  -23.8778 C   0  0  0  0  0  0  0  0  0  0  0  0
   -2.5832   -6.7697  -24.3633 N   0  0  0  0  0  0  0  0  0  0  0  0
   -7.8304  -10.4105  -22.9009 C   0  0  1  0  0  0  0  0  0  0  0  0
   -7.7260  -10.8282  -24.2409 O   0  0  0  0  0  0  0  0  0  0  0  0
   -8.7093  -11.6163  -28.7122 C   0  0  0  0  0  0  0  0  0  0  0  0
   -6.5044   -8.5463  -28.6938 C   0  0  0  0  0  0  0  0  0  0  0  0
  1  2  1  6  0  0  0
  1  6  1  0  0  0  0
  1 21  1  0  0  0  0
  3  4  1  1  0  0  0
  3  8  1  0  0  0  0
  3 28  1  0  0  0  0
  5  9  1  0  0  0  0
  5 25  1  0  0  0  0
  5 29  1  6  0  0  0
  6  7  1  1  0  0  0
  6 11  1  0  0  0  0
  8 12  1  0  0  0  0
  9 10  1  1  0  0  0
  9 14  1  0  0  0  0
 11 16  1  0  0  0  0
 12 13  1  1  0  0  0
 12 17  1  0  0  0  0
 14 15  1  6  0  0  0
 14 18  1  0  0  0  0
 15 31  1  0  0  0  0
 16 20  1  0  0  0  0
 17  2  1  6  0  0  0
 17 22  1  0  0  0  0
 18 19  1  6  0  0  0
 18 24  1  0  0  0  0
 18 30  1  0  0  0  0
 20 21  1  0  0  0  0
 20 26  1  1  0  0  0
 22 23  1  6  0  0  0
 22 28  1  0  0  0  0
 24 25  1  0  0  0  0
 26 27  1  0  0  0  0
 28 29  1  6  0  0  0
M  END
>  <CHROM.1>
173.58989029,-107.17775165,53.76762505,21.64047569,54.57069494,-47.46139784
-6.58657144,-8.92009491,-23.87222507,-1.10565933,-1.19846453,-1.75965233

>  <Name>
ligand

>  <RI>
0

>  <Rbt.Current_Directory>
/home/itssahil/PROJECTS/Mol_Feturizer/New_Systems/rnas/4F8U

>  <Rbt.Executable>
rbdock ($Id: //depot/dev/client3/rdock/2013.1/src/exe/rbdock.cxx#4 $)

>  <Rbt.Library>
libRbt.so (2013.1, Build901 2013/11/27)

>  <Rbt.Parameter_File>
/export/apps/rDock/src/rDock_2013.1_src/data/scripts/dock_solv.prm

>  <Rbt.Receptor>
prm/blind_docking_80.prm

>  <SCORE>
11.1788

>  <SCORE.INTER>
-4.20968

>  <SCORE.INTER.CONST>
1

>  <SCORE.INTER.POLAR>
0

>  <SCORE.INTER.ROT>
6

>  <SCORE.INTER.SOLV>
27.1401

>  <SCORE.INTER.VDW>
-19.4532

>  <SCORE.INTER.norm>
-0.135796

>  <SCORE.INTRA>
3.62471

>  <SCORE.INTRA.DIHEDRAL>
-2.68379

>  <SCORE.INTRA.DIHEDRAL.0>
18.77

>  <SCORE.INTRA.POLAR>
0

>  <SCORE.INTRA.POLAR.0>
0

>  <SCORE.INTRA.REPUL>
0

>  <SCORE.INTRA.REPUL.0>
0

>  <SCORE.INTRA.SOLV>
0.421714

>  <SCORE.INTRA.SOLV.lig_0>
-77.2465

>  <SCORE.INTRA.VDW>
4.75575

>  <SCORE.INTRA.VDW.0>
-4.16072

>  <SCORE.INTRA.norm>
0.116926

>  <SCORE.RESTR>
11.7638

>  <SCORE.RESTR.CAVITY>
11.7638

>  <SCORE.RESTR.norm>
0.379476

>  <SCORE.SYSTEM>
0

>  <SCORE.SYSTEM.CONST>
0

>  <SCORE.SYSTEM.DIHEDRAL>
0

>  <SCORE.SYSTEM.SOLV>
0

>  <SCORE.SYSTEM.norm>
0

>  <SCORE.heavy>
31

>  <SCORE.norm>
0.360606

>  <RMSD>
11.437

$$$$
ligand
 OpenBabel11021811493D
libRbt.so/2013.1/901 2013/11/27
 31 33  0  0  0  0  0  0  0  0999 V2000
   -6.8154   -6.3452  -22.2307 C   0  0  2  0  0  0  0  0  0  0  0  0
   -6.8040   -7.2588  -21.1253 O   0  0  0  0  0  0  0  0  0  0  0  0
   -6.7897  -11.4598  -21.9472 C   0  0  2  0  0  0  0  0  0  0  0  0
   -7.2341  -12.8157  -22.0558 N   0  0  0  0  0  0  0  0  0  0  0  0
   -6.8744  -10.2008  -25.2131 C   0  0  2  0  0  0  0  0  0  0  0  0
   -5.3643   -6.3563  -22.8277 C   0  0  2  0  0  0  0  0  0  0  0  0
   -5.0039   -7.7139  -23.2209 N   0  0  0  0  0  0  0  0  0  0  0  0
   -6.8808  -11.0127  -20.4373 C   0  0  0  0  0  0  0  0  0  0  0  0
   -7.9452   -9.8796  -26.3010 C   0  0  2  0  0  0  0  0  0  0  0  0
   -8.9862   -9.1179  -25.7135 O   0  0  0  0  0  0  0  0  0  0  0  0
   -4.3505   -5.7975  -21.7695 C   0  0  0  0  0  0  0  0  0  0  0  0
   -6.3795   -9.5089  -20.3167 C   0  0  2  0  0  0  0  0  0  0  0  0
   -6.4622   -9.0770  -18.9019 N   0  0  0  0  0  0  0  0  0  0  0  0
   -8.4942  -11.2728  -26.8428 C   0  0  1  0  0  0  0  0  0  0  0  0
   -9.5613  -11.0557  -27.8779 N   0  0  0  0  0  0  0  0  0  0  0  0
   -4.8809   -4.4784  -21.1369 C   0  0  0  0  0  0  0  0  0  0  0  0
   -7.2837   -8.5714  -21.2345 C   0  0  2  0  0  0  0  0  0  0  0  0
   -7.2654  -12.1095  -27.5083 C   0  0  1  0  0  0  0  0  0  0  0  0
   -6.6775  -11.4184  -28.5936 O   0  0  0  0  0  0  0  0  0  0  0  0
   -6.1832   -4.1610  -21.1908 C   0  0  2  0  0  0  0  0  0  0  0  0
   -7.1729   -4.9900  -21.8249 O   0  0  0  0  0  0  0  0  0  0  0  0
   -7.1919   -9.0664  -22.7386 C   0  0  2  0  0  0  0  0  0  0  0  0
   -8.0207   -8.2456  -23.5712 O   0  0  0  0  0  0  0  0  0  0  0  0
   -6.1527  -12.3384  -26.4304 C   0  0  0  0  0  0  0  0  0  0  0  0
   -5.7525  -11.0091  -25.8126 O   0  0  0  0  0  0  0  0  0  0  0  0
   -6.7290   -2.8537  -20.5705 C   0  0  0  0  0  0  0  0  0  0  0  0
   -7.3043   -2.0215  -21.6178 N   0  0  0  0  0  0  0  0  0  0  0  0
   -7.6884  -10.5539  -22.8401 C   0  0  1  0  0  0  0  0  0  0  0  0
   -7.5872  -10.9577  -24.1846 O   0  0  0  0  0  0  0  0  0  0  0  0
   -7.6298  -13.4900  -28.0790 C   0  0  0  0  0  0  0  0  0  0  0  0
   -9.1830  -10.2388  -29.0467 C   0  0  0  0  0  0  0  0  0  0  0  0
  1  2  1  1  0  0  0
  1  6  1  0  0  0  0
  1 21  1  0  0  0  0
  3  4  1  1  0  0  0
  3  8  1  0  0  0  0
  3 28  1  0  0  0  0
  5  9  1  0  0  0  0
  5 25  1  0  0  0  0
  5 29  1  1  0  0  0
  6  7  1  1  0  0  0
  6 11  1  0  0  0  0
  8 12  1  0  0  0  0
  9 10  1  1  0  0  0
  9 14  1  0  0  0  0
 11 16  1  0  0  0  0
 12 13  1  1  0  0  0
 12 17  1  0  0  0  0
 14 15  1  6  0  0  0
 14 18  1  0  0  0  0
 15 31  1  0  0  0  0
 16 20  1  0  0  0  0
 17  2  1  6  0  0  0
 17 22  1  0  0  0  0
 18 19  1  6  0  0  0
 18 24  1  0  0  0  0
 18 30  1  0  0  0  0
 20 21  1  0  0  0  0
 20 26  1  6  0  0  0
 22 23  1  6  0  0  0
 22 28  1  0  0  0  0
 24 25  1  0  0  0  0
 26 27  1  0  0  0  0
 28 29  1  6  0  0  0
M  END
>  <CHROM.1>
-99.21723591,-120.90914725,56.73999608,144.83302052,117.63816874,-107.41168035
-7.00298141,-8.88651809,-23.69414999,0.70139684,-1.35522441,-0.11100340

>  <Name>
ligand

>  <RI>
0

>  <Rbt.Current_Directory>
/home/itssahil/PROJECTS/Mol_Feturizer/New_Systems/rnas/4F8U

>  <Rbt.Executable>
rbdock ($Id: //depot/dev/client3/rdock/2013.1/src/exe/rbdock.cxx#4 $)

>  <Rbt.Library>
libRbt.so (2013.1, Build901 2013/11/27)

>  <Rbt.Parameter_File>
/export/apps/rDock/src/rDock_2013.1_src/data/scripts/dock_solv.prm

>  <Rbt.Receptor>
prm/blind_docking_80.prm

>  <SCORE>
20.2396

>  <SCORE.INTER>
-2.90851

>  <SCORE.INTER.CONST>
1

>  <SCORE.INTER.POLAR>
0

>  <SCORE.INTER.ROT>
6

>  <SCORE.INTER.SOLV>
25.4351

>  <SCORE.INTER.VDW>
-18.0174

>  <SCORE.INTER.norm>
-0.0938227

>  <SCORE.INTRA>
11.6173

>  <SCORE.INTRA.DIHEDRAL>
6.39774

>  <SCORE.INTRA.DIHEDRAL.0>
18.77

>  <SCORE.INTRA.POLAR>
0

>  <SCORE.INTRA.POLAR.0>
0

>  <SCORE.INTRA.REPUL>
0

>  <SCORE.INTRA.REPUL.0>
0

>  <SCORE.INTRA.SOLV>
1.52358

>  <SCORE.INTRA.SOLV.lig_0>
-77.2465

>  <SCORE.INTRA.VDW>
7.6566

>  <SCORE.INTRA.VDW.0>
-4.16072

>  <SCORE.INTRA.norm>
0.37475

>  <SCORE.RESTR>
11.5308

>  <SCORE.RESTR.CAVITY>
11.5308

>  <SCORE.RESTR.norm>
0.371962

>  <SCORE.SYSTEM>
0

>  <SCORE.SYSTEM.CONST>
0

>  <SCORE.SYSTEM.DIHEDRAL>
0

>  <SCORE.SYSTEM.SOLV>
0

>  <SCORE.SYSTEM.norm>
0

>  <SCORE.heavy>
31

>  <SCORE.norm>
0.65289

>  <RMSD>
11.471

$$$$
ligand
 OpenBabel11021811493D
libRbt.so/2013.1/901 2013/11/27
 31 33  0  0  0  0  0  0  0  0999 V2000
   -5.9902   -6.6217  -20.7799 C   0  0  2  0  0  0  0  0  0  0  0  0
   -7.2938   -7.0947  -21.1450 O   0  0  0  0  0  0  0  0  0  0  0  0
   -6.7363  -11.2376  -22.0663 C   0  0  2  0  0  0  0  0  0  0  0  0
   -6.9910  -12.6411  -22.1826 N   0  0  0  0  0  0  0  0  0  0  0  0
   -6.9186  -10.1065  -25.2347 C   0  0  2  0  0  0  0  0  0  0  0  0
   -6.0119   -5.0660  -20.9830 C   0  0  2  0  0  0  0  0  0  0  0  0
   -7.0732   -4.4783  -20.1729 N   0  0  0  0  0  0  0  0  0  0  0  0
   -6.8017  -10.8319  -20.5435 C   0  0  0  0  0  0  0  0  0  0  0  0
   -7.9056   -9.7572  -26.3910 C   0  0  2  0  0  0  0  0  0  0  0  0
   -8.9480   -8.9449  -25.8787 O   0  0  0  0  0  0  0  0  0  0  0  0
   -6.2227   -4.7315  -22.5008 C   0  0  0  0  0  0  0  0  0  0  0  0
   -6.5108   -9.2743  -20.4149 C   0  0  2  0  0  0  0  0  0  0  0  0
   -6.5713   -8.8810  -18.9878 N   0  0  0  0  0  0  0  0  0  0  0  0
   -8.4781  -11.1343  -26.9494 C   0  0  1  0  0  0  0  0  0  0  0  0
   -9.4690  -10.8884  -28.0517 N   0  0  0  0  0  0  0  0  0  0  0  0
   -5.2719   -5.5814  -23.3925 C   0  0  0  0  0  0  0  0  0  0  0  0
   -7.5896   -8.4601  -21.2588 C   0  0  2  0  0  0  0  0  0  0  0  0
   -7.2467  -12.0304  -27.5270 C   0  0  1  0  0  0  0  0  0  0  0  0
   -6.5643  -11.3799  -28.5815 O   0  0  0  0  0  0  0  0  0  0  0  0
   -4.7134   -6.7092  -22.9279 C   0  0  2  0  0  0  0  0  0  0  0  0
   -4.9374   -7.2127  -21.5994 O   0  0  0  0  0  0  0  0  0  0  0  0
   -7.5164   -8.9133  -22.7770 C   0  0  2  0  0  0  0  0  0  0  0  0
   -8.4993   -8.2053  -23.5429 O   0  0  0  0  0  0  0  0  0  0  0  0
   -6.2134  -12.2893  -26.3791 C   0  0  0  0  0  0  0  0  0  0  0  0
   -5.7967  -10.9689  -25.7533 O   0  0  0  0  0  0  0  0  0  0  0  0
   -3.7640   -7.5659  -23.7977 C   0  0  0  0  0  0  0  0  0  0  0  0
   -2.7155   -6.7204  -24.3511 N   0  0  0  0  0  0  0  0  0  0  0  0
   -7.8037  -10.4544  -22.8865 C   0  0  1  0  0  0  0  0  0  0  0  0
   -7.7249  -10.8185  -24.2438 O   0  0  0  0  0  0  0  0  0  0  0  0
   -7.6327  -13.4029  -28.1029 C   0  0  0  0  0  0  0  0  0  0  0  0
  -10.8204  -10.4682  -27.6354 C   0  0  0  0  0  0  0  0  0  0  0  0
  1  2  1  6  0  0  0
  1  6  1  0  0  0  0
  1 21  1  0  0  0  0
  3  4  1  1  0  0  0
  3  8  1  0  0  0  0
  3 28  1  0  0  0  0
  5  9  1  0  0  0  0
  5 25  1  0  0  0  0
  5 29  1  1  0  0  0
  6  7  1  1  0  0  0
  6 11  1  0  0  0  0
  8 12  1  0  0  0  0
  9 10  1  1  0  0  0
  9 14  1  0  0  0  0
 11 16  1  0  0  0  0
 12 13  1  1  0  0  0
 12 17  1  0  0  0  0
 14 15  1  6  0  0  0
 14 18  1  0  0  0  0
 15 31  1  0  0  0  0
 16 20  1  0  0  0  0
 17  2  1  6  0  0  0
 17 22  1  0  0  0  0
 18 19  1  6  0  0  0
 18 24  1  0  0  0  0
 18 30  1  0  0  0  0
 20 21  1  0  0  0  0
 20 26  1  1  0  0  0
 22 23  1  6  0  0  0
 22 28  1  0  0  0  0
 24 25  1  0  0  0  0
 26 27  1  0  0  0  0
 28 29  1  6  0  0  0
M  END
>  <CHROM.1>
171.31569006,-126.38867823,-78.12976398,21.36179490,51.76833003,-92.52027274
-6.87774217,-9.13397194,-23.81714270,0.88381011,1.16416559,1.52559213

>  <Name>
ligand

>  <RI>
0

>  <Rbt.Current_Directory>
/home/itssahil/PROJECTS/Mol_Feturizer/New_Systems/rnas/4F8U

>  <Rbt.Executable>
rbdock ($Id: //depot/dev/client3/rdock/2013.1/src/exe/rbdock.cxx#4 $)

>  <Rbt.Library>
libRbt.so (2013.1, Build901 2013/11/27)

>  <Rbt.Parameter_File>
/export/apps/rDock/src/rDock_2013.1_src/data/scripts/dock_solv.prm

>  <Rbt.Receptor>
prm/blind_docking_80.prm

>  <SCORE>
15.6781

>  <SCORE.INTER>
0.518901

>  <SCORE.INTER.CONST>
1

>  <SCORE.INTER.POLAR>
0

>  <SCORE.INTER.ROT>
6

>  <SCORE.INTER.SOLV>
28.1053

>  <SCORE.INTER.VDW>
-16.6225

>  <SCORE.INTER.norm>
0.0167387

>  <SCORE.INTRA>
4.31955

>  <SCORE.INTRA.DIHEDRAL>
1.60301

>  <SCORE.INTRA.DIHEDRAL.0>
18.77

>  <SCORE.INTRA.POLAR>
0

>  <SCORE.INTRA.POLAR.0>
0

>  <SCORE.INTRA.REPUL>
0

>  <SCORE.INTRA.REPUL.0>
0

>  <SCORE.INTRA.SOLV>
-0.646938

>  <SCORE.INTRA.SOLV.lig_0>
-77.2465

>  <SCORE.INTRA.VDW>
3.84151

>  <SCORE.INTRA.VDW.0>
-4.16072

>  <SCORE.INTRA.norm>
0.13934

>  <SCORE.RESTR>
10.8396

>  <SCORE.RESTR.CAVITY>
10.8396

>  <SCORE.RESTR.norm>
0.349666

>  <SCORE.SYSTEM>
0

>  <SCORE.SYSTEM.CONST>
0

>  <SCORE.SYSTEM.DIHEDRAL>
0

>  <SCORE.SYSTEM.SOLV>
0

>  <SCORE.SYSTEM.norm>
0

>  <SCORE.heavy>
31

>  <SCORE.norm>
0.505744

>  <RMSD>
11.480

$$$$
ligand
 OpenBabel11021811493D
libRbt.so/2013.1/901 2013/11/27
 31 33  0  0  0  0  0  0  0  0999 V2000
   -5.9584   -6.5931  -20.8292 C   0  0  2  0  0  0  0  0  0  0  0  0
   -7.2585   -7.0474  -21.2290 O   0  0  0  0  0  0  0  0  0  0  0  0
   -6.7702  -11.2200  -22.0503 C   0  0  2  0  0  0  0  0  0  0  0  0
   -7.0519  -12.6201  -22.1412 N   0  0  0  0  0  0  0  0  0  0  0  0
   -6.9221  -10.1153  -25.2605 C   0  0  2  0  0  0  0  0  0  0  0  0
   -5.9557   -5.0360  -21.0230 C   0  0  2  0  0  0  0  0  0  0  0  0
   -7.0290   -4.4399  -20.2353 N   0  0  0  0  0  0  0  0  0  0  0  0
   -6.8558  -10.7798  -20.5380 C   0  0  0  0  0  0  0  0  0  0  0  0
   -7.9221   -9.8019  -26.4159 C   0  0  2  0  0  0  0  0  0  0  0  0
   -8.9773   -9.0028  -25.9093 O   0  0  0  0  0  0  0  0  0  0  0  0
   -6.1251   -4.6898  -22.5433 C   0  0  0  0  0  0  0  0  0  0  0  0
   -6.5349   -9.2260  -20.4373 C   0  0  2  0  0  0  0  0  0  0  0  0
   -6.6140   -8.8005  -19.0204 N   0  0  0  0  0  0  0  0  0  0  0  0
   -8.4707  -11.1979  -26.9512 C   0  0  1  0  0  0  0  0  0  0  0  0
   -9.4723  -10.9872  -28.0511 N   0  0  0  0  0  0  0  0  0  0  0  0
   -5.1635   -5.5464  -23.4170 C   0  0  0  0  0  0  0  0  0  0  0  0
   -7.5805   -8.4086  -21.3191 C   0  0  2  0  0  0  0  0  0  0  0  0
   -7.2252  -12.0781  -27.5230 C   0  0  1  0  0  0  0  0  0  0  0  0
   -6.5615  -11.4297  -28.5908 O   0  0  0  0  0  0  0  0  0  0  0  0
   -4.6307   -6.6839  -22.9460 C   0  0  2  0  0  0  0  0  0  0  0  0
   -4.8934   -7.1925  -21.6265 O   0  0  0  0  0  0  0  0  0  0  0  0
   -7.4882   -8.8963  -22.8256 C   0  0  2  0  0  0  0  0  0  0  0  0
   -8.4417   -8.1853  -23.6252 O   0  0  0  0  0  0  0  0  0  0  0  0
   -6.1807  -12.3003  -26.3776 C   0  0  0  0  0  0  0  0  0  0  0  0
   -5.7865  -10.9631  -25.7732 O   0  0  0  0  0  0  0  0  0  0  0  0
   -3.6711   -7.5473  -23.7978 C   0  0  0  0  0  0  0  0  0  0  0  0
   -2.6303   -6.7019  -24.3656 N   0  0  0  0  0  0  0  0  0  0  0  0
   -7.8055  -10.4332  -22.9074 C   0  0  1  0  0  0  0  0  0  0  0  0
   -7.7088  -10.8284  -24.2548 O   0  0  0  0  0  0  0  0  0  0  0  0
   -7.5876  -13.4660  -28.0770 C   0  0  0  0  0  0  0  0  0  0  0  0
  -10.8024  -10.4988  -27.6406 C   0  0  0  0  0  0  0  0  0  0  0  0
  1  2  1  6  0  0  0
  1  6  1  0  0  0  0
  1 21  1  0  0  0  0
  3  4  1  1  0  0  0
  3  8  1  0  0  0  0
  3 28  1  0  0  0  0
  5  9  1  0  0  0  0
  5 25  1  0  0  0  0
  5 29  1  1  0  0  0
  6  7  1  1  0  0  0
  6 11  1  0  0  0  0
  8 12  1  0  0  0  0
  9 10  1  1  0  0  0
  9 14  1  0  0  0  0
 11 16  1  0  0  0  0
 12 13  1  1  0  0  0
 12 17  1  0  0  0  0
 14 15  1  6  0  0  0
 14 18  1  0  0  0  0
 15 31  1  0  0  0  0
 16 20  1  0  0  0  0
 17  2  1  6  0  0  0
 17 22  1  0  0  0  0
 18 19  1  6  0  0  0
 18 24  1  0  0  0  0
 18 30  1  0  0  0  0
 20 21  1  0  0  0  0
 20 26  1  1  0  0  0
 22 23  1  6  0  0  0
 22 28  1  0  0  0  0
 24 25  1  0  0  0  0
 26 27  1  0  0  0  0
 28 29  1  6  0  0  0
M  END
>  <CHROM.1>
173.30921514,-125.25548618,-74.09900917,20.38104235,49.42092205,-95.71767231
-6.85632571,-9.12945153,-23.83888507,0.94466965,1.11647913,1.44151880

>  <Name>
ligand

>  <RI>
0

>  <Rbt.Current_Directory>
/home/itssahil/PROJECTS/Mol_Feturizer/New_Systems/rnas/4F8U

>  <Rbt.Executable>
rbdock ($Id: //depot/dev/client3/rdock/2013.1/src/exe/rbdock.cxx#4 $)

>  <Rbt.Library>
libRbt.so (2013.1, Build901 2013/11/27)

>  <Rbt.Parameter_File>
/export/apps/rDock/src/rDock_2013.1_src/data/scripts/dock_solv.prm

>  <Rbt.Receptor>
prm/blind_docking_80.prm

>  <SCORE>
15.7368

>  <SCORE.INTER>
-0.13323

>  <SCORE.INTER.CONST>
1

>  <SCORE.INTER.POLAR>
0

>  <SCORE.INTER.ROT>
6

>  <SCORE.INTER.SOLV>
27.9651

>  <SCORE.INTER.VDW>
-17.0105

>  <SCORE.INTER.norm>
-0.00429774

>  <SCORE.INTRA>
5.0629

>  <SCORE.INTRA.DIHEDRAL>
2.12139

>  <SCORE.INTRA.DIHEDRAL.0>
18.77

>  <SCORE.INTRA.POLAR>
0

>  <SCORE.INTRA.POLAR.0>
0

>  <SCORE.INTRA.REPUL>
0

>  <SCORE.INTRA.REPUL.0>
0

>  <SCORE.INTRA.SOLV>
-0.734188

>  <SCORE.INTRA.SOLV.lig_0>
-77.2465

>  <SCORE.INTRA.VDW>
4.3693

>  <SCORE.INTRA.VDW.0>
-4.16072

>  <SCORE.INTRA.norm>
0.163319

>  <SCORE.RESTR>
10.8071

>  <SCORE.RESTR.CAVITY>
10.8071

>  <SCORE.RESTR.norm>
0.348617

>  <SCORE.SYSTEM>
0

>  <SCORE.SYSTEM.CONST>
0

>  <SCORE.SYSTEM.DIHEDRAL>
0

>  <SCORE.SYSTEM.SOLV>
0

>  <SCORE.SYSTEM.norm>
0

>  <SCORE.heavy>
31

>  <SCORE.norm>
0.507639

>  <RMSD>
11.496

$$$$
ligand
 OpenBabel11021811493D
libRbt.so/2013.1/901 2013/11/27
 31 33  0  0  0  0  0  0  0  0999 V2000
   -6.6206   -9.2575  -19.7225 C   0  0  2  0  0  0  0  0  0  0  0  0
   -7.8830   -9.6939  -20.2446 O   0  0  0  0  0  0  0  0  0  0  0  0
   -6.7323  -11.4147  -23.9914 C   0  0  2  0  0  0  0  0  0  0  0  0
   -6.7901  -12.1751  -25.2024 N   0  0  0  0  0  0  0  0  0  0  0  0
   -7.2955   -9.9121  -26.4403 C   0  0  2  0  0  0  0  0  0  0  0  0
   -6.9428   -8.1644  -18.6440 C   0  0  2  0  0  0  0  0  0  0  0  0
   -7.8142   -8.7265  -17.6181 N   0  0  0  0  0  0  0  0  0  0  0  0
   -6.9171  -12.3915  -22.7667 C   0  0  0  0  0  0  0  0  0  0  0  0
   -5.8352   -9.4020  -26.6422 C   0  0  2  0  0  0  0  0  0  0  0  0
   -5.0047   -9.9734  -25.6459 O   0  0  0  0  0  0  0  0  0  0  0  0
   -7.6191   -6.9259  -19.3287 C   0  0  0  0  0  0  0  0  0  0  0  0
   -6.8448  -11.5468  -21.4218 C   0  0  2  0  0  0  0  0  0  0  0  0
   -7.0190  -12.4543  -20.2637 N   0  0  0  0  0  0  0  0  0  0  0  0
   -5.8719   -7.8152  -26.5127 C   0  0  1  0  0  0  0  0  0  0  0  0
   -4.4923   -7.2392  -26.6620 N   0  0  0  0  0  0  0  0  0  0  0  0
   -6.8339   -6.5001  -20.6028 C   0  0  0  0  0  0  0  0  0  0  0  0
   -7.9865  -10.4353  -21.4297 C   0  0  2  0  0  0  0  0  0  0  0  0
   -6.8350   -7.2058  -27.6763 C   0  0  1  0  0  0  0  0  0  0  0  0
   -6.3720   -7.5288  -28.9733 O   0  0  0  0  0  0  0  0  0  0  0  0
   -5.9976   -7.3512  -21.2158 C   0  0  2  0  0  0  0  0  0  0  0  0
   -5.7593   -8.6933  -20.7565 O   0  0  0  0  0  0  0  0  0  0  0  0
   -7.7879   -9.4904  -22.6879 C   0  0  2  0  0  0  0  0  0  0  0  0
   -8.8237   -8.5004  -22.7199 O   0  0  0  0  0  0  0  0  0  0  0  0
   -8.2740   -7.8037  -27.5215 C   0  0  0  0  0  0  0  0  0  0  0  0
   -8.2010   -9.3210  -27.4901 O   0  0  0  0  0  0  0  0  0  0  0  0
   -5.2064   -6.9459  -22.4813 C   0  0  0  0  0  0  0  0  0  0  0  0
   -3.8603   -6.5384  -22.1039 N   0  0  0  0  0  0  0  0  0  0  0  0
   -7.8596  -10.3403  -24.0078 C   0  0  1  0  0  0  0  0  0  0  0  0
   -7.6743   -9.4703  -25.0986 O   0  0  0  0  0  0  0  0  0  0  0  0
   -6.9823   -5.6752  -27.6869 C   0  0  0  0  0  0  0  0  0  0  0  0
   -3.7387   -7.6477  -27.8626 C   0  0  0  0  0  0  0  0  0  0  0  0
  1  2  1  6  0  0  0
  1  6  1  0  0  0  0
  1 21  1  0  0  0  0
  3  4  1  6  0  0  0
  3  8  1  0  0  0  0
  3 28  1  0  0  0  0
  5  9  1  0  0  0  0
  5 25  1  0  0  0  0
  5 29  1  1  0  0  0
  6  7  1  1  0  0  0
  6 11  1  0  0  0  0
  8 12  1  0  0  0  0
  9 10  1  1  0  0  0
  9 14  1  0  0  0  0
 11 16  1  0  0  0  0
 12 13  1  1  0  0  0
 12 17  1  0  0  0  0
 14 15  1  6  0  0  0
 14 18  1  0  0  0  0
 15 31  1  0  0  0  0
 16 20  1  0  0  0  0
 17  2  1  1  0  0  0
 17 22  1  0  0  0  0
 18 19  1  6  0  0  0
 18 24  1  0  0  0  0
 18 30  1  0  0  0  0
 20 21  1  0  0  0  0
 20 26  1  1  0  0  0
 22 23  1  6  0  0  0
 22 28  1  0  0  0  0
 24 25  1  0  0  0  0
 26 27  1  0  0  0  0
 28 29  1  6  0  0  0
M  END
>  <CHROM.1>
165.11707090,-110.40892191,52.50401615,43.09305934,97.48484600,42.46829819
-6.70691349,-8.90521318,-23.63671983,-1.91124128,-1.25483440,-1.75836846

>  <Name>
ligand

>  <RI>
0

>  <Rbt.Current_Directory>
/home/itssahil/PROJECTS/Mol_Feturizer/New_Systems/rnas/4F8U

>  <Rbt.Executable>
rbdock ($Id: //depot/dev/client3/rdock/2013.1/src/exe/rbdock.cxx#4 $)

>  <Rbt.Library>
libRbt.so (2013.1, Build901 2013/11/27)

>  <Rbt.Parameter_File>
/export/apps/rDock/src/rDock_2013.1_src/data/scripts/dock_solv.prm

>  <Rbt.Receptor>
prm/blind_docking_100.prm

>  <SCORE>
24.5525

>  <SCORE.INTER>
3.22179

>  <SCORE.INTER.CONST>
1

>  <SCORE.INTER.POLAR>
0

>  <SCORE.INTER.ROT>
6

>  <SCORE.INTER.SOLV>
30.2536

>  <SCORE.INTER.VDW>
-15.5367

>  <SCORE.INTER.norm>
0.103929

>  <SCORE.INTRA>
1.35178

>  <SCORE.INTRA.DIHEDRAL>
-5.92032

>  <SCORE.INTRA.DIHEDRAL.0>
18.77

>  <SCORE.INTRA.POLAR>
0

>  <SCORE.INTRA.POLAR.0>
0

>  <SCORE.INTRA.REPUL>
0

>  <SCORE.INTRA.REPUL.0>
0

>  <SCORE.INTRA.SOLV>
1.1296

>  <SCORE.INTRA.SOLV.lig_0>
-77.2465

>  <SCORE.INTRA.VDW>
3.74714

>  <SCORE.INTRA.VDW.0>
-4.16072

>  <SCORE.INTRA.norm>
0.0436059

>  <SCORE.RESTR>
19.9789

>  <SCORE.RESTR.CAVITY>
19.9789

>  <SCORE.RESTR.norm>
0.644481

>  <SCORE.SYSTEM>
0

>  <SCORE.SYSTEM.CONST>
0

>  <SCORE.SYSTEM.DIHEDRAL>
0

>  <SCORE.SYSTEM.SOLV>
0

>  <SCORE.SYSTEM.norm>
0

>  <SCORE.heavy>
31

>  <SCORE.norm>
0.792016

>  <RMSD>
11.533

$$$$
ligand
 OpenBabel11021811493D
libRbt.so/2013.1/901 2013/11/27
 31 33  0  0  0  0  0  0  0  0999 V2000
   -5.3958   -7.2465  -21.4490 C   0  0  2  0  0  0  0  0  0  0  0  0
   -6.8158   -7.4338  -21.3779 O   0  0  0  0  0  0  0  0  0  0  0  0
   -7.1197  -11.6679  -21.9293 C   0  0  2  0  0  0  0  0  0  0  0  0
   -7.6858  -12.9771  -22.0453 N   0  0  0  0  0  0  0  0  0  0  0  0
   -6.8428  -10.4753  -25.3996 C   0  0  2  0  0  0  0  0  0  0  0  0
   -5.0206   -6.2667  -20.2823 C   0  0  2  0  0  0  0  0  0  0  0  0
   -5.4527   -6.8299  -19.0080 N   0  0  0  0  0  0  0  0  0  0  0  0
   -7.4525  -11.0933  -20.4985 C   0  0  0  0  0  0  0  0  0  0  0  0
   -8.0413  -10.1945  -26.3576 C   0  0  2  0  0  0  0  0  0  0  0  0
   -9.0427   -9.4849  -25.6486 O   0  0  0  0  0  0  0  0  0  0  0  0
   -5.6895   -4.8693  -20.5266 C   0  0  0  0  0  0  0  0  0  0  0  0
   -6.8164   -9.6422  -20.3681 C   0  0  2  0  0  0  0  0  0  0  0  0
   -7.1242   -9.0914  -19.0275 N   0  0  0  0  0  0  0  0  0  0  0  0
   -8.5857  -11.6070  -26.8523 C   0  0  1  0  0  0  0  0  0  0  0  0
   -9.7700  -11.4303  -27.7597 N   0  0  0  0  0  0  0  0  0  0  0  0
   -5.4648   -4.3962  -21.9920 C   0  0  0  0  0  0  0  0  0  0  0  0
   -7.4112   -8.6965  -21.5041 C   0  0  2  0  0  0  0  0  0  0  0  0
   -7.4032  -12.3823  -27.6607 C   0  0  1  0  0  0  0  0  0  0  0  0
   -6.9711  -11.6574  -28.7959 O   0  0  0  0  0  0  0  0  0  0  0  0
   -5.1415   -5.2691  -22.9580 C   0  0  2  0  0  0  0  0  0  0  0  0
   -4.9757   -6.6789  -22.7259 O   0  0  0  0  0  0  0  0  0  0  0  0
   -7.0844   -9.3182  -22.9262 C   0  0  2  0  0  0  0  0  0  0  0  0
   -7.6357   -8.4888  -23.9569 O   0  0  0  0  0  0  0  0  0  0  0  0
   -6.1682  -12.5690  -26.7162 C   0  0  0  0  0  0  0  0  0  0  0  0
   -5.7604  -11.2278  -26.1301 O   0  0  0  0  0  0  0  0  0  0  0  0
   -4.9116   -4.8181  -24.4193 C   0  0  0  0  0  0  0  0  0  0  0  0
   -3.6499   -4.0972  -24.5132 N   0  0  0  0  0  0  0  0  0  0  0  0
   -7.7176  -10.7521  -23.0381 C   0  0  1  0  0  0  0  0  0  0  0  0
   -7.4024  -11.2713  -24.3077 O   0  0  0  0  0  0  0  0  0  0  0  0
   -7.7680  -13.7736  -28.2046 C   0  0  0  0  0  0  0  0  0  0  0  0
   -9.6040  -10.4795  -28.8753 C   0  0  0  0  0  0  0  0  0  0  0  0
  1  2  1  6  0  0  0
  1  6  1  0  0  0  0
  1 21  1  0  0  0  0
  3  4  1  1  0  0  0
  3  8  1  0  0  0  0
  3 28  1  0  0  0  0
  5  9  1  0  0  0  0
  5 25  1  0  0  0  0
  5 29  1  1  0  0  0
  6  7  1  1  0  0  0
  6 11  1  0  0  0  0
  8 12  1  0  0  0  0
  9 10  1  1  0  0  0
  9 14  1  0  0  0  0
 11 16  1  0  0  0  0
 12 13  1  1  0  0  0
 12 17  1  0  0  0  0
 14 15  1  6  0  0  0
 14 18  1  0  0  0  0
 15 31  1  0  0  0  0
 16 20  1  0  0  0  0
 17  2  1  6  0  0  0
 17 22  1  0  0  0  0
 18 19  1  6  0  0  0
 18 24  1  0  0  0  0
 18 30  1  0  0  0  0
 20 21  1  0  0  0  0
 20 26  1  1  0  0  0
 22 23  1  6  0  0  0
 22 28  1  0  0  0  0
 24 25  1  0  0  0  0
 26 27  1  0  0  0  0
 28 29  1  6  0  0  0
M  END
>  <CHROM.1>
-135.70962912,-102.18611620,50.64438130,58.21455515,72.36190328,-131.31174193
-6.84565804,-9.23896965,-23.83560759,0.70476277,1.19407427,1.65286021

>  <Name>
ligand

>  <RI>
0

>  <Rbt.Current_Directory>
/home/itssahil/PROJECTS/Mol_Feturizer/New_Systems/rnas/4F8U

>  <Rbt.Executable>
rbdock ($Id: //depot/dev/client3/rdock/2013.1/src/exe/rbdock.cxx#4 $)

>  <Rbt.Library>
libRbt.so (2013.1, Build901 2013/11/27)

>  <Rbt.Parameter_File>
/export/apps/rDock/src/rDock_2013.1_src/data/scripts/dock_solv.prm

>  <Rbt.Receptor>
prm/blind_docking_80.prm

>  <SCORE>
29.3575

>  <SCORE.INTER>
10.0136

>  <SCORE.INTER.CONST>
1

>  <SCORE.INTER.POLAR>
0

>  <SCORE.INTER.ROT>
6

>  <SCORE.INTER.SOLV>
27.1419

>  <SCORE.INTER.VDW>
-9.97156

>  <SCORE.INTER.norm>
0.32302

>  <SCORE.INTRA>
8.66614

>  <SCORE.INTRA.DIHEDRAL>
3.10194

>  <SCORE.INTRA.DIHEDRAL.0>
18.77

>  <SCORE.INTRA.POLAR>
0

>  <SCORE.INTRA.POLAR.0>
0

>  <SCORE.INTRA.REPUL>
0

>  <SCORE.INTRA.REPUL.0>
0

>  <SCORE.INTRA.SOLV>
1.15269

>  <SCORE.INTRA.SOLV.lig_0>
-77.2465

>  <SCORE.INTRA.VDW>
6.53883

>  <SCORE.INTRA.VDW.0>
-4.16072

>  <SCORE.INTRA.norm>
0.279553

>  <SCORE.RESTR>
10.6778

>  <SCORE.RESTR.CAVITY>
10.6778

>  <SCORE.RESTR.norm>
0.344445

>  <SCORE.SYSTEM>
0

>  <SCORE.SYSTEM.CONST>
0

>  <SCORE.SYSTEM.DIHEDRAL>
0

>  <SCORE.SYSTEM.SOLV>
0

>  <SCORE.SYSTEM.norm>
0

>  <SCORE.heavy>
31

>  <SCORE.norm>
0.947018

>  <RMSD>
11.546

$$$$
ligand
 OpenBabel11021811493D
libRbt.so/2013.1/901 2013/11/27
 31 33  0  0  0  0  0  0  0  0999 V2000
   -7.2458   -8.5648  -19.6885 C   0  0  2  0  0  0  0  0  0  0  0  0
   -6.3625   -8.0342  -20.6859 O   0  0  0  0  0  0  0  0  0  0  0  0
   -8.9249   -7.9793  -24.1144 C   0  0  2  0  0  0  0  0  0  0  0  0
   -9.3847   -7.7680  -25.4531 N   0  0  0  0  0  0  0  0  0  0  0  0
   -7.1596  -11.2285  -25.1065 C   0  0  2  0  0  0  0  0  0  0  0  0
   -6.3460   -8.9523  -18.4628 C   0  0  2  0  0  0  0  0  0  0  0  0
   -5.6119   -7.7796  -18.0006 N   0  0  0  0  0  0  0  0  0  0  0  0
   -8.5091   -6.5905  -23.4929 C   0  0  0  0  0  0  0  0  0  0  0  0
   -6.1173  -10.4968  -26.0073 C   0  0  2  0  0  0  0  0  0  0  0  0
   -5.4779   -9.4864  -25.2462 O   0  0  0  0  0  0  0  0  0  0  0  0
   -5.3581  -10.1000  -18.8710 C   0  0  0  0  0  0  0  0  0  0  0  0
   -8.0059   -6.8256  -22.0033 C   0  0  2  0  0  0  0  0  0  0  0  0
   -7.6107   -5.5271  -21.4092 N   0  0  0  0  0  0  0  0  0  0  0  0
   -6.9174   -9.8675  -27.2320 C   0  0  1  0  0  0  0  0  0  0  0  0
   -5.9889   -9.1107  -28.1389 N   0  0  0  0  0  0  0  0  0  0  0  0
   -6.1089  -11.2346  -19.6264 C   0  0  0  0  0  0  0  0  0  0  0  0
   -6.7682   -7.8290  -22.0119 C   0  0  2  0  0  0  0  0  0  0  0  0
   -7.6318  -11.0639  -28.0753 C   0  0  1  0  0  0  0  0  0  0  0  0
   -6.6911  -11.9847  -28.5933 O   0  0  0  0  0  0  0  0  0  0  0  0
   -7.3015  -11.0119  -20.1989 C   0  0  2  0  0  0  0  0  0  0  0  0
   -7.9713   -9.7397  -20.1604 O   0  0  0  0  0  0  0  0  0  0  0  0
   -7.2129   -9.2024  -22.6689 C   0  0  2  0  0  0  0  0  0  0  0  0
   -6.1010  -10.1059  -22.7048 O   0  0  0  0  0  0  0  0  0  0  0  0
   -8.6013  -11.8531  -27.1322 C   0  0  0  0  0  0  0  0  0  0  0  0
   -7.8535  -12.3118  -25.8916 O   0  0  0  0  0  0  0  0  0  0  0  0
   -8.0643  -12.1270  -20.9515 C   0  0  0  0  0  0  0  0  0  0  0  0
   -7.2803  -13.3539  -20.9281 N   0  0  0  0  0  0  0  0  0  0  0  0
   -7.7093   -8.9525  -24.1389 C   0  0  1  0  0  0  0  0  0  0  0  0
   -8.0990  -10.1899  -24.6850 O   0  0  0  0  0  0  0  0  0  0  0  0
   -8.4539  -10.6206  -29.2968 C   0  0  0  0  0  0  0  0  0  0  0  0
   -5.6324   -7.7428  -27.7171 C   0  0  0  0  0  0  0  0  0  0  0  0
  1  2  1  6  0  0  0
  1  6  1  0  0  0  0
  1 21  1  0  0  0  0
  3  4  1  6  0  0  0
  3  8  1  0  0  0  0
  3 28  1  0  0  0  0
  5  9  1  0  0  0  0
  5 25  1  0  0  0  0
  5 29  1  6  0  0  0
  6  7  1  6  0  0  0
  6 11  1  0  0  0  0
  8 12  1  0  0  0  0
  9 10  1  1  0  0  0
  9 14  1  0  0  0  0
 11 16  1  0  0  0  0
 12 13  1  6  0  0  0
 12 17  1  0  0  0  0
 14 15  1  6  0  0  0
 14 18  1  0  0  0  0
 15 31  1  0  0  0  0
 16 20  1  0  0  0  0
 17  2  1  1  0  0  0
 17 22  1  0  0  0  0
 18 19  1  6  0  0  0
 18 24  1  0  0  0  0
 18 30  1  0  0  0  0
 20 21  1  0  0  0  0
 20 26  1  1  0  0  0
 22 23  1  6  0  0  0
 22 28  1  0  0  0  0
 24 25  1  0  0  0  0
 26 27  1  0  0  0  0
 28 29  1  1  0  0  0
M  END
>  <CHROM.1>
167.04863592,-49.49559887,-80.97588730,58.84952323,-0.74321180,166.93805423
-7.16540458,-9.62444252,-23.53982486,0.70695945,-1.47567444,0.54621476

>  <Name>
ligand

>  <RI>
0

>  <Rbt.Current_Directory>
/home/itssahil/PROJECTS/Mol_Feturizer/New_Systems/rnas/4F8U

>  <Rbt.Executable>
rbdock ($Id: //depot/dev/client3/rdock/2013.1/src/exe/rbdock.cxx#4 $)

>  <Rbt.Library>
libRbt.so (2013.1, Build901 2013/11/27)

>  <Rbt.Parameter_File>
/export/apps/rDock/src/rDock_2013.1_src/data/scripts/dock_solv.prm

>  <Rbt.Receptor>
prm/blind_docking_100.prm

>  <SCORE>
30.397

>  <SCORE.INTER>
17.6502

>  <SCORE.INTER.CONST>
1

>  <SCORE.INTER.POLAR>
0

>  <SCORE.INTER.ROT>
6

>  <SCORE.INTER.SOLV>
28.3485

>  <SCORE.INTER.VDW>
-5.28269

>  <SCORE.INTER.norm>
0.569362

>  <SCORE.INTRA>
-3.07823

>  <SCORE.INTRA.DIHEDRAL>
-14.6145

>  <SCORE.INTRA.DIHEDRAL.0>
18.77

>  <SCORE.INTRA.POLAR>
0

>  <SCORE.INTRA.POLAR.0>
0

>  <SCORE.INTRA.REPUL>
0

>  <SCORE.INTRA.REPUL.0>
0

>  <SCORE.INTRA.SOLV>
0.375256

>  <SCORE.INTRA.SOLV.lig_0>
-77.2465

>  <SCORE.INTRA.VDW>
4.04137

>  <SCORE.INTRA.VDW.0>
-4.16072

>  <SCORE.INTRA.norm>
-0.0992977

>  <SCORE.RESTR>
15.825

>  <SCORE.RESTR.CAVITY>
15.825

>  <SCORE.RESTR.norm>
0.510484

>  <SCORE.SYSTEM>
0

>  <SCORE.SYSTEM.CONST>
0

>  <SCORE.SYSTEM.DIHEDRAL>
0

>  <SCORE.SYSTEM.SOLV>
0

>  <SCORE.SYSTEM.norm>
0

>  <SCORE.heavy>
31

>  <SCORE.norm>
0.980548

>  <RMSD>
11.634

$$$$
ligand
 OpenBabel11021811493D
libRbt.so/2013.1/901 2013/11/27
 31 33  0  0  0  0  0  0  0  0999 V2000
   -6.7427   -9.2308  -19.5134 C   0  0  2  0  0  0  0  0  0  0  0  0
   -7.9940   -9.6405  -20.0816 O   0  0  0  0  0  0  0  0  0  0  0  0
   -6.6826  -11.7585  -23.5627 C   0  0  2  0  0  0  0  0  0  0  0  0
   -6.7114  -12.5821  -24.7327 N   0  0  0  0  0  0  0  0  0  0  0  0
   -6.0648  -10.1667  -25.7391 C   0  0  2  0  0  0  0  0  0  0  0  0
   -7.0696   -8.0563  -18.5256 C   0  0  2  0  0  0  0  0  0  0  0  0
   -8.0248   -8.5095  -17.5206 N   0  0  0  0  0  0  0  0  0  0  0  0
   -7.1587  -12.6134  -22.3256 C   0  0  0  0  0  0  0  0  0  0  0  0
   -5.8292   -8.9447  -26.6796 C   0  0  2  0  0  0  0  0  0  0  0  0
   -5.5111   -7.8103  -25.8917 O   0  0  0  0  0  0  0  0  0  0  0  0
   -7.6428   -6.8345  -19.3247 C   0  0  0  0  0  0  0  0  0  0  0  0
   -7.1187  -11.6997  -21.0252 C   0  0  2  0  0  0  0  0  0  0  0  0
   -7.5659  -12.4922  -19.8559 N   0  0  0  0  0  0  0  0  0  0  0  0
   -7.1786   -8.7135  -27.4931 C   0  0  1  0  0  0  0  0  0  0  0  0
   -7.0507   -7.5268  -28.4056 N   0  0  0  0  0  0  0  0  0  0  0  0
   -6.7665   -6.5292  -20.5738 C   0  0  0  0  0  0  0  0  0  0  0  0
   -8.0680  -10.4370  -21.2327 C   0  0  2  0  0  0  0  0  0  0  0  0
   -7.5010  -10.0397  -28.3820 C   0  0  1  0  0  0  0  0  0  0  0  0
   -6.4721  -10.3205  -29.3111 O   0  0  0  0  0  0  0  0  0  0  0  0
   -5.9410   -7.4565  -21.0821 C   0  0  2  0  0  0  0  0  0  0  0  0
   -5.7971   -8.7756  -20.5272 O   0  0  0  0  0  0  0  0  0  0  0  0
   -7.5791   -9.6178  -22.4998 C   0  0  2  0  0  0  0  0  0  0  0  0
   -8.4403   -8.4920  -22.7119 O   0  0  0  0  0  0  0  0  0  0  0  0
   -7.6364  -11.2776  -27.4325 C   0  0  0  0  0  0  0  0  0  0  0  0
   -6.4028  -11.3895  -26.5526 O   0  0  0  0  0  0  0  0  0  0  0  0
   -5.0602   -7.1713  -22.3209 C   0  0  0  0  0  0  0  0  0  0  0  0
   -5.6660   -7.7771  -23.4984 N   0  0  0  0  0  0  0  0  0  0  0  0
   -7.6224  -10.5350  -23.7752 C   0  0  1  0  0  0  0  0  0  0  0  0
   -7.1779   -9.7765  -24.8744 O   0  0  0  0  0  0  0  0  0  0  0  0
   -8.7830   -9.9800  -29.2290 C   0  0  0  0  0  0  0  0  0  0  0  0
   -5.9095   -7.5397  -29.3403 C   0  0  0  0  0  0  0  0  0  0  0  0
  1  2  1  6  0  0  0
  1  6  1  0  0  0  0
  1 21  1  0  0  0  0
  3  4  1  6  0  0  0
  3  8  1  0  0  0  0
  3 28  1  0  0  0  0
  5  9  1  0  0  0  0
  5 25  1  0  0  0  0
  5 29  1  1  0  0  0
  6  7  1  1  0  0  0
  6 11  1  0  0  0  0
  8 12  1  0  0  0  0
  9 10  1  1  0  0  0
  9 14  1  0  0  0  0
 11 16  1  0  0  0  0
 12 13  1  1  0  0  0
 12 17  1  0  0  0  0
 14 15  1  6  0  0  0
 14 18  1  0  0  0  0
 15 31  1  0  0  0  0
 16 20  1  0  0  0  0
 17  2  1  1  0  0  0
 17 22  1  0  0  0  0
 18 19  1  6  0  0  0
 18 24  1  0  0  0  0
 18 30  1  0  0  0  0
 20 21  1  0  0  0  0
 20 26  1  1  0  0  0
 22 23  1  6  0  0  0
 22 28  1  0  0  0  0
 24 25  1  0  0  0  0
 26 27  1  0  0  0  0
 28 29  1  6  0  0  0
M  END
>  <CHROM.1>
164.26347164,-172.75972683,54.27269549,50.45543076,-101.66712650,4.78892026
-6.93768176,-9.46200057,-23.72291259,-1.74325096,-1.35215152,-1.81216829

>  <Name>
ligand

>  <RI>
0

>  <Rbt.Current_Directory>
/home/itssahil/PROJECTS/Mol_Feturizer/New_Systems/rnas/4F8U

>  <Rbt.Executable>
rbdock ($Id: //depot/dev/client3/rdock/2013.1/src/exe/rbdock.cxx#4 $)

>  <Rbt.Library>
libRbt.so (2013.1, Build901 2013/11/27)

>  <Rbt.Parameter_File>
/export/apps/rDock/src/rDock_2013.1_src/data/scripts/dock_solv.prm

>  <Rbt.Receptor>
prm/blind_docking_100.prm

>  <SCORE>
42.2828

>  <SCORE.INTER>
19.141

>  <SCORE.INTER.CONST>
1

>  <SCORE.INTER.POLAR>
0

>  <SCORE.INTER.ROT>
6

>  <SCORE.INTER.SOLV>
30.1337

>  <SCORE.INTER.VDW>
-4.88393

>  <SCORE.INTER.norm>
0.61745

>  <SCORE.INTRA>
9.89851

>  <SCORE.INTRA.DIHEDRAL>
-7.71689

>  <SCORE.INTRA.DIHEDRAL.0>
18.77

>  <SCORE.INTRA.POLAR>
0

>  <SCORE.INTRA.POLAR.0>
0

>  <SCORE.INTRA.REPUL>
0.0835055

>  <SCORE.INTRA.REPUL.0>
0

>  <SCORE.INTRA.SOLV>
8.05264

>  <SCORE.INTRA.SOLV.lig_0>
-77.2465

>  <SCORE.INTRA.VDW>
9.3131

>  <SCORE.INTRA.VDW.0>
-4.16072

>  <SCORE.INTRA.norm>
0.319307

>  <SCORE.RESTR>
13.2433

>  <SCORE.RESTR.CAVITY>
13.2433

>  <SCORE.RESTR.norm>
0.427205

>  <SCORE.SYSTEM>
0

>  <SCORE.SYSTEM.CONST>
0

>  <SCORE.SYSTEM.DIHEDRAL>
0

>  <SCORE.SYSTEM.SOLV>
0

>  <SCORE.SYSTEM.norm>
0

>  <SCORE.heavy>
31

>  <SCORE.norm>
1.36396

>  <RMSD>
11.672

$$$$
ligand
 OpenBabel11021811493D
libRbt.so/2013.1/901 2013/11/27
 31 33  0  0  0  0  0  0  0  0999 V2000
   -6.6691   -9.2739  -19.5285 C   0  0  2  0  0  0  0  0  0  0  0  0
   -7.9131   -9.8038  -20.0060 O   0  0  0  0  0  0  0  0  0  0  0  0
   -6.7284  -11.4305  -23.7841 C   0  0  2  0  0  0  0  0  0  0  0  0
   -6.7865  -12.1331  -25.0295 N   0  0  0  0  0  0  0  0  0  0  0  0
   -6.1834   -9.2072  -25.4281 C   0  0  2  0  0  0  0  0  0  0  0  0
   -7.0341   -8.0933  -18.5615 C   0  0  2  0  0  0  0  0  0  0  0  0
   -7.8888   -8.5840  -17.4860 N   0  0  0  0  0  0  0  0  0  0  0  0
   -7.0182  -12.4455  -22.6121 C   0  0  0  0  0  0  0  0  0  0  0  0
   -6.2737   -7.8780  -26.2394 C   0  0  2  0  0  0  0  0  0  0  0  0
   -6.6015   -6.8192  -25.3561 O   0  0  0  0  0  0  0  0  0  0  0  0
   -7.7513   -6.9523  -19.3635 C   0  0  0  0  0  0  0  0  0  0  0  0
   -6.9457  -11.6655  -21.2287 C   0  0  2  0  0  0  0  0  0  0  0  0
   -7.2181  -12.6093  -20.1195 N   0  0  0  0  0  0  0  0  0  0  0  0
   -7.4098   -8.0765  -27.3376 C   0  0  1  0  0  0  0  0  0  0  0  0
   -7.5879   -6.8242  -28.1484 N   0  0  0  0  0  0  0  0  0  0  0  0
   -6.9769   -6.6244  -20.6728 C   0  0  0  0  0  0  0  0  0  0  0  0
   -8.0167  -10.4858  -21.2263 C   0  0  2  0  0  0  0  0  0  0  0  0
   -6.9888   -9.2995  -28.3275 C   0  0  1  0  0  0  0  0  0  0  0  0
   -5.7701   -9.0450  -28.9990 O   0  0  0  0  0  0  0  0  0  0  0  0
   -6.1086   -7.5007  -21.1999 C   0  0  2  0  0  0  0  0  0  0  0  0
   -5.8245   -8.7824  -20.6121 O   0  0  0  0  0  0  0  0  0  0  0  0
   -7.7137   -9.5019  -22.4329 C   0  0  2  0  0  0  0  0  0  0  0  0
   -8.6856   -8.4489  -22.4564 O   0  0  0  0  0  0  0  0  0  0  0  0
   -6.8043  -10.6063  -27.4845 C   0  0  0  0  0  0  0  0  0  0  0  0
   -5.8328  -10.3512  -26.3444 O   0  0  0  0  0  0  0  0  0  0  0  0
   -5.3275   -7.1922  -22.4985 C   0  0  0  0  0  0  0  0  0  0  0  0
   -3.8975   -7.2848  -22.2399 N   0  0  0  0  0  0  0  0  0  0  0  0
   -7.7870  -10.2882  -23.7915 C   0  0  1  0  0  0  0  0  0  0  0  0
   -7.5082   -9.3854  -24.8347 O   0  0  0  0  0  0  0  0  0  0  0  0
   -7.9892   -9.6250  -29.4490 C   0  0  0  0  0  0  0  0  0  0  0  0
   -8.9547   -6.2726  -28.2094 C   0  0  0  0  0  0  0  0  0  0  0  0
  1  2  1  6  0  0  0
  1  6  1  0  0  0  0
  1 21  1  0  0  0  0
  3  4  1  6  0  0  0
  3  8  1  0  0  0  0
  3 28  1  0  0  0  0
  5  9  1  0  0  0  0
  5 25  1  0  0  0  0
  5 29  1  6  0  0  0
  6  7  1  1  0  0  0
  6 11  1  0  0  0  0
  8 12  1  0  0  0  0
  9 10  1  1  0  0  0
  9 14  1  0  0  0  0
 11 16  1  0  0  0  0
 12 13  1  1  0  0  0
 12 17  1  0  0  0  0
 14 15  1  6  0  0  0
 14 18  1  0  0  0  0
 15 31  1  0  0  0  0
 16 20  1  0  0  0  0
 17  2  1  1  0  0  0
 17 22  1  0  0  0  0
 18 19  1  6  0  0  0
 18 24  1  0  0  0  0
 18 30  1  0  0  0  0
 20 21  1  0  0  0  0
 20 26  1  1  0  0  0
 22 23  1  6  0  0  0
 22 28  1  0  0  0  0
 24 25  1  0  0  0  0
 26 27  1  0  0  0  0
 28 29  1  6  0  0  0
M  END
>  <CHROM.1>
154.95517430,-165.22878169,-125.44706986,53.71462592,122.58538630,-23.83003549
-6.97752819,-9.09379993,-23.61930572,-1.61754284,-1.52631092,-1.57684744

>  <Name>
ligand

>  <RI>
0

>  <Rbt.Current_Directory>
/home/itssahil/PROJECTS/Mol_Feturizer/New_Systems/rnas/4F8U

>  <Rbt.Executable>
rbdock ($Id: //depot/dev/client3/rdock/2013.1/src/exe/rbdock.cxx#4 $)

>  <Rbt.Library>
libRbt.so (2013.1, Build901 2013/11/27)

>  <Rbt.Parameter_File>
/export/apps/rDock/src/rDock_2013.1_src/data/scripts/dock_solv.prm

>  <Rbt.Receptor>
prm/blind_docking_100.prm

>  <SCORE>
20.6688

>  <SCORE.INTER>
2.0534

>  <SCORE.INTER.CONST>
1

>  <SCORE.INTER.POLAR>
0

>  <SCORE.INTER.ROT>
6

>  <SCORE.INTER.SOLV>
30.7869

>  <SCORE.INTER.VDW>
-16.4934

>  <SCORE.INTER.norm>
0.0662388

>  <SCORE.INTRA>
0.54177

>  <SCORE.INTRA.DIHEDRAL>
-7.26735

>  <SCORE.INTRA.DIHEDRAL.0>
18.77

>  <SCORE.INTRA.POLAR>
0

>  <SCORE.INTRA.POLAR.0>
0

>  <SCORE.INTRA.REPUL>
0

>  <SCORE.INTRA.REPUL.0>
0

>  <SCORE.INTRA.SOLV>
1.85239

>  <SCORE.INTRA.SOLV.lig_0>
-77.2465

>  <SCORE.INTRA.VDW>
3.24925

>  <SCORE.INTRA.VDW.0>
-4.16072

>  <SCORE.INTRA.norm>
0.0174765

>  <SCORE.RESTR>
18.0736

>  <SCORE.RESTR.CAVITY>
18.0736

>  <SCORE.RESTR.norm>
0.583019

>  <SCORE.SYSTEM>
0

>  <SCORE.SYSTEM.CONST>
0

>  <SCORE.SYSTEM.DIHEDRAL>
0

>  <SCORE.SYSTEM.SOLV>
0

>  <SCORE.SYSTEM.norm>
0

>  <SCORE.heavy>
31

>  <SCORE.norm>
0.666734

>  <RMSD>
11.683

$$$$
ligand
 OpenBabel11021811493D
libRbt.so/2013.1/901 2013/11/27
 31 33  0  0  0  0  0  0  0  0999 V2000
   -6.7739   -9.2317  -19.5080 C   0  0  2  0  0  0  0  0  0  0  0  0
   -8.0249   -9.6417  -20.0767 O   0  0  0  0  0  0  0  0  0  0  0  0
   -6.7259  -11.4835  -23.7160 C   0  0  2  0  0  0  0  0  0  0  0  0
   -6.7571  -12.2218  -24.9415 N   0  0  0  0  0  0  0  0  0  0  0  0
   -6.0518   -9.6331  -25.6578 C   0  0  2  0  0  0  0  0  0  0  0  0
   -7.0960   -8.0299  -18.5521 C   0  0  2  0  0  0  0  0  0  0  0  0
   -8.0643   -8.4480  -17.5444 N   0  0  0  0  0  0  0  0  0  0  0  0
   -7.1722  -12.4323  -22.5376 C   0  0  0  0  0  0  0  0  0  0  0  0
   -5.8205   -8.2952  -26.4258 C   0  0  2  0  0  0  0  0  0  0  0  0
   -5.6675   -7.2444  -25.4869 O   0  0  0  0  0  0  0  0  0  0  0  0
   -7.6492   -6.8219  -19.3855 C   0  0  0  0  0  0  0  0  0  0  0  0
   -7.1295  -11.6134  -21.1757 C   0  0  2  0  0  0  0  0  0  0  0  0
   -7.5488  -12.4947  -20.0610 N   0  0  0  0  0  0  0  0  0  0  0  0
   -7.0987   -8.0565  -27.3452 C   0  0  1  0  0  0  0  0  0  0  0  0
   -6.9743   -6.7638  -28.1006 N   0  0  0  0  0  0  0  0  0  0  0  0
   -6.7593   -6.5567  -20.6342 C   0  0  0  0  0  0  0  0  0  0  0  0
   -8.1013  -10.3550  -21.2809 C   0  0  2  0  0  0  0  0  0  0  0  0
   -7.2315   -9.2855  -28.4057 C   0  0  1  0  0  0  0  0  0  0  0  0
   -6.0992   -9.3865  -29.2475 O   0  0  0  0  0  0  0  0  0  0  0  0
   -5.9398   -7.5050  -21.1127 C   0  0  2  0  0  0  0  0  0  0  0  0
   -5.8150   -8.8117  -20.5246 O   0  0  0  0  0  0  0  0  0  0  0  0
   -7.6422   -9.4394  -22.4919 C   0  0  2  0  0  0  0  0  0  0  0  0
   -8.5237   -8.3159  -22.6125 O   0  0  0  0  0  0  0  0  0  0  0  0
   -7.3630  -10.6338  -27.6203 C   0  0  0  0  0  0  0  0  0  0  0  0
   -6.2151  -10.7697  -26.6340 O   0  0  0  0  0  0  0  0  0  0  0  0
   -5.0458   -7.2598  -22.3506 C   0  0  0  0  0  0  0  0  0  0  0  0
   -5.0397   -5.8397  -22.6727 N   0  0  0  0  0  0  0  0  0  0  0  0
   -7.6877  -10.2638  -23.8290 C   0  0  1  0  0  0  0  0  0  0  0  0
   -7.2697   -9.4215  -24.8763 O   0  0  0  0  0  0  0  0  0  0  0  0
   -8.4265   -9.2083  -29.3704 C   0  0  0  0  0  0  0  0  0  0  0  0
   -5.7804   -6.6169  -28.9547 C   0  0  0  0  0  0  0  0  0  0  0  0
  1  2  1  6  0  0  0
  1  6  1  0  0  0  0
  1 21  1  0  0  0  0
  3  4  1  6  0  0  0
  3  8  1  0  0  0  0
  3 28  1  0  0  0  0
  5  9  1  0  0  0  0
  5 25  1  0  0  0  0
  5 29  1  6  0  0  0
  6  7  1  1  0  0  0
  6 11  1  0  0  0  0
  8 12  1  0  0  0  0
  9 10  1  1  0  0  0
  9 14  1  0  0  0  0
 11 16  1  0  0  0  0
 12 13  1  1  0  0  0
 12 17  1  0  0  0  0
 14 15  1  6  0  0  0
 14 18  1  0  0  0  0
 15 31  1  0  0  0  0
 16 20  1  0  0  0  0
 17  2  1  1  0  0  0
 17 22  1  0  0  0  0
 18 19  1  6  0  0  0
 18 24  1  0  0  0  0
 18 30  1  0  0  0  0
 20 21  1  0  0  0  0
 20 26  1  1  0  0  0
 22 23  1  6  0  0  0
 22 28  1  0  0  0  0
 24 25  1  0  0  0  0
 26 27  1  0  0  0  0
 28 29  1  6  0  0  0
M  END
>  <CHROM.1>
157.88637257,-166.10284002,56.97609554,51.61210015,12.00003162,-4.24335045
-6.88293402,-9.08378595,-23.69165281,-1.82710498,-1.33399635,-1.80481155

>  <Name>
ligand

>  <RI>
0

>  <Rbt.Current_Directory>
/home/itssahil/PROJECTS/Mol_Feturizer/New_Systems/rnas/4F8U

>  <Rbt.Executable>
rbdock ($Id: //depot/dev/client3/rdock/2013.1/src/exe/rbdock.cxx#4 $)

>  <Rbt.Library>
libRbt.so (2013.1, Build901 2013/11/27)

>  <Rbt.Parameter_File>
/export/apps/rDock/src/rDock_2013.1_src/data/scripts/dock_solv.prm

>  <Rbt.Receptor>
prm/blind_docking_100.prm

>  <SCORE>
24.5508

>  <SCORE.INTER>
1.67031

>  <SCORE.INTER.CONST>
1

>  <SCORE.INTER.POLAR>
0

>  <SCORE.INTER.ROT>
6

>  <SCORE.INTER.SOLV>
28.5687

>  <SCORE.INTER.VDW>
-16.0094

>  <SCORE.INTER.norm>
0.0538809

>  <SCORE.INTRA>
5.49918

>  <SCORE.INTRA.DIHEDRAL>
-6.3795

>  <SCORE.INTRA.DIHEDRAL.0>
18.77

>  <SCORE.INTRA.POLAR>
0

>  <SCORE.INTRA.POLAR.0>
0

>  <SCORE.INTRA.REPUL>
0

>  <SCORE.INTRA.REPUL.0>
0

>  <SCORE.INTRA.SOLV>
2.61443

>  <SCORE.INTRA.SOLV.lig_0>
-77.2465

>  <SCORE.INTRA.VDW>
7.38171

>  <SCORE.INTRA.VDW.0>
-4.16072

>  <SCORE.INTRA.norm>
0.177393

>  <SCORE.RESTR>
17.3813

>  <SCORE.RESTR.CAVITY>
17.3813

>  <SCORE.RESTR.norm>
0.560687

>  <SCORE.SYSTEM>
0

>  <SCORE.SYSTEM.CONST>
0

>  <SCORE.SYSTEM.DIHEDRAL>
0

>  <SCORE.SYSTEM.SOLV>
0

>  <SCORE.SYSTEM.norm>
0

>  <SCORE.heavy>
31

>  <SCORE.norm>
0.791961

>  <RMSD>
11.691

$$$$
ligand
 OpenBabel11021811493D
libRbt.so/2013.1/901 2013/11/27
 31 33  0  0  0  0  0  0  0  0999 V2000
   -6.6472   -9.1256  -19.6314 C   0  0  2  0  0  0  0  0  0  0  0  0
   -7.9012   -9.6354  -20.1048 O   0  0  0  0  0  0  0  0  0  0  0  0
   -6.6571  -11.7914  -23.5873 C   0  0  2  0  0  0  0  0  0  0  0  0
   -6.7084  -12.6281  -24.7471 N   0  0  0  0  0  0  0  0  0  0  0  0
   -6.0593  -10.2037  -25.7704 C   0  0  2  0  0  0  0  0  0  0  0  0
   -6.9911   -8.0372  -18.5548 C   0  0  2  0  0  0  0  0  0  0  0  0
   -7.7960   -8.6314  -17.4933 N   0  0  0  0  0  0  0  0  0  0  0  0
   -7.1078  -12.6327  -22.3314 C   0  0  0  0  0  0  0  0  0  0  0  0
   -5.7818   -8.9511  -26.6576 C   0  0  2  0  0  0  0  0  0  0  0  0
   -5.4559   -7.8551  -25.8201 O   0  0  0  0  0  0  0  0  0  0  0  0
   -7.7554   -6.8455  -19.2298 C   0  0  0  0  0  0  0  0  0  0  0  0
   -7.0428  -11.7044  -21.0424 C   0  0  2  0  0  0  0  0  0  0  0  0
   -7.4659  -12.4841  -19.8557 N   0  0  0  0  0  0  0  0  0  0  0  0
   -7.1109   -8.6605  -27.4854 C   0  0  1  0  0  0  0  0  0  0  0  0
   -6.9424   -7.4419  -28.3480 N   0  0  0  0  0  0  0  0  0  0  0  0
   -7.0375   -6.3952  -20.5349 C   0  0  0  0  0  0  0  0  0  0  0  0
   -7.9973  -10.4448  -21.2452 C   0  0  2  0  0  0  0  0  0  0  0  0
   -7.4430   -9.9440  -28.4315 C   0  0  1  0  0  0  0  0  0  0  0  0
   -6.4027  -10.2095  -29.3524 O   0  0  0  0  0  0  0  0  0  0  0  0
   -6.1779   -7.2087  -21.1666 C   0  0  2  0  0  0  0  0  0  0  0  0
   -5.8527   -8.5300  -20.7006 O   0  0  0  0  0  0  0  0  0  0  0  0
   -7.5345   -9.6395  -22.5309 C   0  0  2  0  0  0  0  0  0  0  0  0
   -8.4007   -8.5168  -22.7385 O   0  0  0  0  0  0  0  0  0  0  0  0
   -7.6208  -11.2150  -27.5341 C   0  0  0  0  0  0  0  0  0  0  0  0
   -6.4062  -11.3866  -26.6374 O   0  0  0  0  0  0  0  0  0  0  0  0
   -5.4527   -6.7784  -22.4630 C   0  0  0  0  0  0  0  0  0  0  0  0
   -6.2737   -7.1201  -23.6161 N   0  0  0  0  0  0  0  0  0  0  0  0
   -7.6022  -10.5711  -23.7948 C   0  0  1  0  0  0  0  0  0  0  0  0
   -7.1804   -9.8247  -24.9110 O   0  0  0  0  0  0  0  0  0  0  0  0
   -8.7075   -9.8248  -29.2983 C   0  0  0  0  0  0  0  0  0  0  0  0
   -8.1825   -6.7853  -28.8031 C   0  0  0  0  0  0  0  0  0  0  0  0
  1  2  1  6  0  0  0
  1  6  1  0  0  0  0
  1 21  1  0  0  0  0
  3  4  1  6  0  0  0
  3  8  1  0  0  0  0
  3 28  1  0  0  0  0
  5  9  1  0  0  0  0
  5 25  1  0  0  0  0
  5 29  1  1  0  0  0
  6  7  1  1  0  0  0
  6 11  1  0  0  0  0
  8 12  1  0  0  0  0
  9 10  1  1  0  0  0
  9 14  1  0  0  0  0
 11 16  1  0  0  0  0
 12 13  1  1  0  0  0
 12 17  1  0  0  0  0
 14 15  1  6  0  0  0
 14 18  1  0  0  0  0
 15 31  1  0  0  0  0
 16 20  1  0  0  0  0
 17  2  1  1  0  0  0
 17 22  1  0  0  0  0
 18 19  1  6  0  0  0
 18 24  1  0  0  0  0
 18 30  1  0  0  0  0
 20 21  1  0  0  0  0
 20 26  1  1  0  0  0
 22 23  1  6  0  0  0
 22 28  1  0  0  0  0
 24 25  1  0  0  0  0
 26 27  1  0  0  0  0
 28 29  1  6  0  0  0
M  END
>  <CHROM.1>
167.93097259,-168.22336855,-159.73401736,55.82464601,-88.42051175,2.93063759
-7.02382406,-9.37423797,-23.73495740,-1.66450217,-1.49008513,-1.73240590

>  <Name>
ligand

>  <RI>
0

>  <Rbt.Current_Directory>
/home/itssahil/PROJECTS/Mol_Feturizer/New_Systems/rnas/4F8U

>  <Rbt.Executable>
rbdock ($Id: //depot/dev/client3/rdock/2013.1/src/exe/rbdock.cxx#4 $)

>  <Rbt.Library>
libRbt.so (2013.1, Build901 2013/11/27)

>  <Rbt.Parameter_File>
/export/apps/rDock/src/rDock_2013.1_src/data/scripts/dock_solv.prm

>  <Rbt.Receptor>
prm/blind_docking_100.prm

>  <SCORE>
42.2342

>  <SCORE.INTER>
20.6517

>  <SCORE.INTER.CONST>
1

>  <SCORE.INTER.POLAR>
0

>  <SCORE.INTER.ROT>
6

>  <SCORE.INTER.SOLV>
28.3035

>  <SCORE.INTER.VDW>
-3.2667

>  <SCORE.INTER.norm>
0.666183

>  <SCORE.INTRA>
6.80339

>  <SCORE.INTRA.DIHEDRAL>
-7.14316

>  <SCORE.INTRA.DIHEDRAL.0>
18.77

>  <SCORE.INTRA.POLAR>
0

>  <SCORE.INTRA.POLAR.0>
0

>  <SCORE.INTRA.REPUL>
0.091006

>  <SCORE.INTRA.REPUL.0>
0

>  <SCORE.INTRA.SOLV>
6.70308

>  <SCORE.INTRA.SOLV.lig_0>
-77.2465

>  <SCORE.INTRA.VDW>
6.5684

>  <SCORE.INTRA.VDW.0>
-4.16072

>  <SCORE.INTRA.norm>
0.219464

>  <SCORE.RESTR>
14.7791

>  <SCORE.RESTR.CAVITY>
14.7791

>  <SCORE.RESTR.norm>
0.476747

>  <SCORE.SYSTEM>
0

>  <SCORE.SYSTEM.CONST>
0

>  <SCORE.SYSTEM.DIHEDRAL>
0

>  <SCORE.SYSTEM.SOLV>
0

>  <SCORE.SYSTEM.norm>
0

>  <SCORE.heavy>
31

>  <SCORE.norm>
1.36239

>  <RMSD>
11.706

$$$$
ligand
 OpenBabel11021811493D
libRbt.so/2013.1/901 2013/11/27
 31 33  0  0  0  0  0  0  0  0999 V2000
   -6.6826   -9.4109  -19.7587 C   0  0  2  0  0  0  0  0  0  0  0  0
   -7.9186   -9.7143  -20.4195 O   0  0  0  0  0  0  0  0  0  0  0  0
   -6.5039  -11.2572  -24.1534 C   0  0  2  0  0  0  0  0  0  0  0  0
   -6.5036  -11.8438  -25.4587 N   0  0  0  0  0  0  0  0  0  0  0  0
   -7.5048   -8.2591  -26.0752 C   0  0  2  0  0  0  0  0  0  0  0  0
   -7.0578   -8.5894  -18.4756 C   0  0  2  0  0  0  0  0  0  0  0  0
   -7.9679   -9.3667  -17.6418 N   0  0  0  0  0  0  0  0  0  0  0  0
   -7.1364  -12.2814  -23.1341 C   0  0  0  0  0  0  0  0  0  0  0  0
   -8.7649   -9.1225  -26.3910 C   0  0  2  0  0  0  0  0  0  0  0  0
   -9.5019   -9.3181  -25.1962 O   0  0  0  0  0  0  0  0  0  0  0  0
   -7.7131   -7.2262  -18.8907 C   0  0  0  0  0  0  0  0  0  0  0  0
   -7.1289  -11.6317  -21.6832 C   0  0  2  0  0  0  0  0  0  0  0  0
   -7.7227  -12.5848  -20.7167 N   0  0  0  0  0  0  0  0  0  0  0  0
   -8.2465  -10.5107  -26.9746 C   0  0  1  0  0  0  0  0  0  0  0  0
   -9.4014  -11.4228  -27.2771 N   0  0  0  0  0  0  0  0  0  0  0  0
   -6.8776   -6.5252  -20.0007 C   0  0  0  0  0  0  0  0  0  0  0  0
   -7.9627  -10.2740  -21.7039 C   0  0  2  0  0  0  0  0  0  0  0  0
   -7.4090  -10.2355  -28.3442 C   0  0  1  0  0  0  0  0  0  0  0  0
   -8.2014   -9.6118  -29.3361 O   0  0  0  0  0  0  0  0  0  0  0  0
   -6.0102   -7.2179  -20.7539 C   0  0  2  0  0  0  0  0  0  0  0  0
   -5.7823   -8.6298  -20.6004 O   0  0  0  0  0  0  0  0  0  0  0  0
   -7.3179   -9.2803  -22.7585 C   0  0  2  0  0  0  0  0  0  0  0  0
   -8.0739   -8.0636  -22.8043 O   0  0  0  0  0  0  0  0  0  0  0  0
   -6.2037   -9.2862  -28.0308 C   0  0  0  0  0  0  0  0  0  0  0  0
   -6.7030   -8.0331  -27.3312 O   0  0  0  0  0  0  0  0  0  0  0  0
   -5.1691   -6.5389  -21.8599 C   0  0  0  0  0  0  0  0  0  0  0  0
   -4.6200   -7.5551  -22.7466 N   0  0  0  0  0  0  0  0  0  0  0  0
   -7.3308   -9.9378  -24.1858 C   0  0  1  0  0  0  0  0  0  0  0  0
   -6.7476   -9.0307  -25.0903 O   0  0  0  0  0  0  0  0  0  0  0  0
   -6.8321  -11.4820  -29.0355 C   0  0  0  0  0  0  0  0  0  0  0  0
  -10.5105  -10.8390  -28.0551 C   0  0  0  0  0  0  0  0  0  0  0  0
  1  2  1  6  0  0  0
  1  6  1  0  0  0  0
  1 21  1  0  0  0  0
  3  4  1  6  0  0  0
  3  8  1  0  0  0  0
  3 28  1  0  0  0  0
  5  9  1  0  0  0  0
  5 25  1  0  0  0  0
  5 29  1  1  0  0  0
  6  7  1  1  0  0  0
  6 11  1  0  0  0  0
  8 12  1  0  0  0  0
  9 10  1  1  0  0  0
  9 14  1  0  0  0  0
 11 16  1  0  0  0  0
 12 13  1  1  0  0  0
 12 17  1  0  0  0  0
 14 15  1  6  0  0  0
 14 18  1  0  0  0  0
 15 31  1  0  0  0  0
 16 20  1  0  0  0  0
 17  2  1  1  0  0  0
 17 22  1  0  0  0  0
 18 19  1  6  0  0  0
 18 24  1  0  0  0  0
 18 30  1  0  0  0  0
 20 21  1  0  0  0  0
 20 26  1  1  0  0  0
 22 23  1  6  0  0  0
 22 28  1  0  0  0  0
 24 25  1  0  0  0  0
 26 27  1  0  0  0  0
 28 29  1  6  0  0  0
M  END
>  <CHROM.1>
170.61626053,-27.82876993,48.74228974,56.51929762,-163.97145020,134.44206402
-7.35227821,-9.50186065,-23.74696699,1.25520965,1.16052512,1.66610676

>  <Name>
ligand

>  <RI>
0

>  <Rbt.Current_Directory>
/home/itssahil/PROJECTS/Mol_Feturizer/New_Systems/rnas/4F8U

>  <Rbt.Executable>
rbdock ($Id: //depot/dev/client3/rdock/2013.1/src/exe/rbdock.cxx#4 $)

>  <Rbt.Library>
libRbt.so (2013.1, Build901 2013/11/27)

>  <Rbt.Parameter_File>
/export/apps/rDock/src/rDock_2013.1_src/data/scripts/dock_solv.prm

>  <Rbt.Receptor>
prm/blind_docking_100.prm

>  <SCORE>
24.3753

>  <SCORE.INTER>
1.94516

>  <SCORE.INTER.CONST>
1

>  <SCORE.INTER.POLAR>
0

>  <SCORE.INTER.ROT>
6

>  <SCORE.INTER.SOLV>
28.6603

>  <SCORE.INTER.VDW>
-15.8567

>  <SCORE.INTER.norm>
0.0627472

>  <SCORE.INTRA>
7.19094

>  <SCORE.INTRA.DIHEDRAL>
-4.67398

>  <SCORE.INTRA.DIHEDRAL.0>
18.77

>  <SCORE.INTRA.POLAR>
0

>  <SCORE.INTRA.POLAR.0>
0

>  <SCORE.INTRA.REPUL>
0

>  <SCORE.INTRA.REPUL.0>
0

>  <SCORE.INTRA.SOLV>
6.64868

>  <SCORE.INTRA.SOLV.lig_0>
-77.2465

>  <SCORE.INTRA.VDW>
6.20359

>  <SCORE.INTRA.VDW.0>
-4.16072

>  <SCORE.INTRA.norm>
0.231966

>  <SCORE.RESTR>
15.2392

>  <SCORE.RESTR.CAVITY>
15.2392

>  <SCORE.RESTR.norm>
0.491588

>  <SCORE.SYSTEM>
0

>  <SCORE.SYSTEM.CONST>
0

>  <SCORE.SYSTEM.DIHEDRAL>
0

>  <SCORE.SYSTEM.SOLV>
0

>  <SCORE.SYSTEM.norm>
0

>  <SCORE.heavy>
31

>  <SCORE.norm>
0.786301

>  <RMSD>
11.749

$$$$
ligand
 OpenBabel11021811493D
libRbt.so/2013.1/901 2013/11/27
 31 33  0  0  0  0  0  0  0  0999 V2000
   -7.9020   -9.7288  -19.8362 C   0  0  2  0  0  0  0  0  0  0  0  0
   -6.8757   -8.9877  -20.5100 O   0  0  0  0  0  0  0  0  0  0  0  0
   -8.6957   -8.2064  -24.3049 C   0  0  2  0  0  0  0  0  0  0  0  0
   -8.8503   -7.8206  -25.6743 N   0  0  0  0  0  0  0  0  0  0  0  0
   -7.3441  -11.5530  -25.4967 C   0  0  2  0  0  0  0  0  0  0  0  0
   -7.4550   -9.8386  -18.3362 C   0  0  2  0  0  0  0  0  0  0  0  0
   -7.2649   -8.5036  -17.7800 N   0  0  0  0  0  0  0  0  0  0  0  0
   -8.1625   -6.9697  -23.4837 C   0  0  0  0  0  0  0  0  0  0  0  0
   -6.2577  -10.8167  -26.3398 C   0  0  2  0  0  0  0  0  0  0  0  0
   -5.5244   -9.9495  -25.4919 O   0  0  0  0  0  0  0  0  0  0  0  0
   -6.1320  -10.6750  -18.2362 C   0  0  0  0  0  0  0  0  0  0  0  0
   -7.9988   -7.3973  -21.9613 C   0  0  2  0  0  0  0  0  0  0  0  0
   -7.4964   -6.2431  -21.1798 N   0  0  0  0  0  0  0  0  0  0  0  0
   -7.0205   -9.9964  -27.4719 C   0  0  1  0  0  0  0  0  0  0  0  0
   -6.0455   -9.2254  -28.3158 N   0  0  0  0  0  0  0  0  0  0  0  0
   -6.2378  -11.9815  -19.0748 C   0  0  0  0  0  0  0  0  0  0  0  0
   -6.9815   -8.6193  -21.8584 C   0  0  2  0  0  0  0  0  0  0  0  0
   -7.8454  -11.0331  -28.4194 C   0  0  1  0  0  0  0  0  0  0  0  0
   -6.9933  -11.9670  -29.0540 O   0  0  0  0  0  0  0  0  0  0  0  0
   -7.1476  -12.1027  -20.0533 C   0  0  2  0  0  0  0  0  0  0  0  0
   -8.0804  -11.0636  -20.3981 O   0  0  0  0  0  0  0  0  0  0  0  0
   -7.5332   -9.8329  -22.7177 C   0  0  2  0  0  0  0  0  0  0  0  0
   -6.6143  -10.9309  -22.6530 O   0  0  0  0  0  0  0  0  0  0  0  0
   -8.8635  -11.8367  -27.5419 C   0  0  0  0  0  0  0  0  0  0  0  0
   -8.1382  -12.4855  -26.3750 O   0  0  0  0  0  0  0  0  0  0  0  0
   -7.2701  -13.3938  -20.8957 C   0  0  0  0  0  0  0  0  0  0  0  0
   -6.0323  -13.6148  -21.6302 N   0  0  0  0  0  0  0  0  0  0  0  0
   -7.6914   -9.3935  -24.2182 C   0  0  1  0  0  0  0  0  0  0  0  0
   -8.1865  -10.4921  -24.9455 O   0  0  0  0  0  0  0  0  0  0  0  0
   -8.6457  -10.3956  -29.5672 C   0  0  0  0  0  0  0  0  0  0  0  0
   -5.5585   -7.9510  -27.7544 C   0  0  0  0  0  0  0  0  0  0  0  0
  1  2  1  6  0  0  0
  1  6  1  0  0  0  0
  1 21  1  0  0  0  0
  3  4  1  6  0  0  0
  3  8  1  0  0  0  0
  3 28  1  0  0  0  0
  5  9  1  0  0  0  0
  5 25  1  0  0  0  0
  5 29  1  6  0  0  0
  6  7  1  6  0  0  0
  6 11  1  0  0  0  0
  8 12  1  0  0  0  0
  9 10  1  1  0  0  0
  9 14  1  0  0  0  0
 11 16  1  0  0  0  0
 12 13  1  1  0  0  0
 12 17  1  0  0  0  0
 14 15  1  6  0  0  0
 14 18  1  0  0  0  0
 15 31  1  0  0  0  0
 16 20  1  0  0  0  0
 17  2  1  1  0  0  0
 17 22  1  0  0  0  0
 18 19  1  6  0  0  0
 18 24  1  0  0  0  0
 18 30  1  0  0  0  0
 20 21  1  0  0  0  0
 20 26  1  1  0  0  0
 22 23  1  6  0  0  0
 22 28  1  0  0  0  0
 24 25  1  0  0  0  0
 26 27  1  0  0  0  0
 28 29  1  6  0  0  0
M  END
>  <CHROM.1>
-175.76157379,-53.09935563,-80.37313013,75.83018934,-62.44126525,156.18347287
-7.30700670,-10.12031522,-23.63568864,1.26228616,-1.45934546,1.22927417

>  <Name>
ligand

>  <RI>
0

>  <Rbt.Current_Directory>
/home/itssahil/PROJECTS/Mol_Feturizer/New_Systems/rnas/4F8U

>  <Rbt.Executable>
rbdock ($Id: //depot/dev/client3/rdock/2013.1/src/exe/rbdock.cxx#4 $)

>  <Rbt.Library>
libRbt.so (2013.1, Build901 2013/11/27)

>  <Rbt.Parameter_File>
/export/apps/rDock/src/rDock_2013.1_src/data/scripts/dock_solv.prm

>  <Rbt.Receptor>
prm/blind_docking_100.prm

>  <SCORE>
14.8524

>  <SCORE.INTER>
-0.707342

>  <SCORE.INTER.CONST>
1

>  <SCORE.INTER.POLAR>
0

>  <SCORE.INTER.ROT>
6

>  <SCORE.INTER.SOLV>
28.6512

>  <SCORE.INTER.VDW>
-17.622

>  <SCORE.INTER.norm>
-0.0228175

>  <SCORE.INTRA>
-1.26958

>  <SCORE.INTRA.DIHEDRAL>
-10.9223

>  <SCORE.INTRA.DIHEDRAL.0>
18.77

>  <SCORE.INTRA.POLAR>
0

>  <SCORE.INTRA.POLAR.0>
0

>  <SCORE.INTRA.REPUL>
0

>  <SCORE.INTRA.REPUL.0>
0

>  <SCORE.INTRA.SOLV>
2.48666

>  <SCORE.INTRA.SOLV.lig_0>
-77.2465

>  <SCORE.INTRA.VDW>
2.94823

>  <SCORE.INTRA.VDW.0>
-4.16072

>  <SCORE.INTRA.norm>
-0.0409542

>  <SCORE.RESTR>
16.8293

>  <SCORE.RESTR.CAVITY>
16.8293

>  <SCORE.RESTR.norm>
0.54288

>  <SCORE.SYSTEM>
0

>  <SCORE.SYSTEM.CONST>
0

>  <SCORE.SYSTEM.DIHEDRAL>
0

>  <SCORE.SYSTEM.SOLV>
0

>  <SCORE.SYSTEM.norm>
0

>  <SCORE.heavy>
31

>  <SCORE.norm>
0.479108

>  <RMSD>
11.796

$$$$
ligand
 OpenBabel11021811493D
libRbt.so/2013.1/901 2013/11/27
 31 33  0  0  0  0  0  0  0  0999 V2000
   -6.5924   -9.1521  -19.7189 C   0  0  2  0  0  0  0  0  0  0  0  0
   -7.8545   -9.6652  -20.1665 O   0  0  0  0  0  0  0  0  0  0  0  0
   -6.7445  -11.4727  -23.8846 C   0  0  2  0  0  0  0  0  0  0  0  0
   -6.8331  -12.2179  -25.1032 N   0  0  0  0  0  0  0  0  0  0  0  0
   -6.1950   -9.4910  -25.7562 C   0  0  2  0  0  0  0  0  0  0  0  0
   -6.9185   -8.0065  -18.6975 C   0  0  2  0  0  0  0  0  0  0  0  0
   -7.7316   -8.5350  -17.6078 N   0  0  0  0  0  0  0  0  0  0  0  0
   -7.0682  -12.4325  -22.6754 C   0  0  0  0  0  0  0  0  0  0  0  0
   -6.2257   -8.2445  -26.6935 C   0  0  2  0  0  0  0  0  0  0  0  0
   -6.3186   -7.0731  -25.9011 O   0  0  0  0  0  0  0  0  0  0  0  0
   -7.6649   -6.8381  -19.4306 C   0  0  0  0  0  0  0  0  0  0  0  0
   -6.9617  -11.6056  -21.3218 C   0  0  2  0  0  0  0  0  0  0  0  0
   -7.2656  -12.4971  -20.1781 N   0  0  0  0  0  0  0  0  0  0  0  0
   -7.5008   -8.3985  -27.6351 C   0  0  1  0  0  0  0  0  0  0  0  0
   -7.6270   -7.2166  -28.5540 N   0  0  0  0  0  0  0  0  0  0  0  0
   -6.9412   -6.4640  -20.7564 C   0  0  0  0  0  0  0  0  0  0  0  0
   -7.9877  -10.3871  -21.3606 C   0  0  2  0  0  0  0  0  0  0  0  0
   -7.3480   -9.7542  -28.5248 C   0  0  1  0  0  0  0  0  0  0  0  0
   -6.1974   -9.7240  -29.3471 O   0  0  0  0  0  0  0  0  0  0  0  0
   -6.0948   -7.3210  -21.3471 C   0  0  2  0  0  0  0  0  0  0  0  0
   -5.7897   -8.6225  -20.8163 O   0  0  0  0  0  0  0  0  0  0  0  0
   -7.6522   -9.4602  -22.6031 C   0  0  2  0  0  0  0  0  0  0  0  0
   -8.5840   -8.3729  -22.6634 O   0  0  0  0  0  0  0  0  0  0  0  0
   -7.2180  -10.9877  -27.5688 C   0  0  0  0  0  0  0  0  0  0  0  0
   -6.0934  -10.7527  -26.5744 O   0  0  0  0  0  0  0  0  0  0  0  0
   -5.3641   -6.9666  -22.6633 C   0  0  0  0  0  0  0  0  0  0  0  0
   -4.0287   -7.5471  -22.6499 N   0  0  0  0  0  0  0  0  0  0  0  0
   -7.7595  -10.2925  -23.9318 C   0  0  1  0  0  0  0  0  0  0  0  0
   -7.4506   -9.4397  -25.0080 O   0  0  0  0  0  0  0  0  0  0  0  0
   -8.5070  -10.0532  -29.4900 C   0  0  0  0  0  0  0  0  0  0  0  0
   -6.4128   -6.8346  -29.2998 C   0  0  0  0  0  0  0  0  0  0  0  0
  1  2  1  6  0  0  0
  1  6  1  0  0  0  0
  1 21  1  0  0  0  0
  3  4  1  6  0  0  0
  3  8  1  0  0  0  0
  3 28  1  0  0  0  0
  5  9  1  0  0  0  0
  5 25  1  0  0  0  0
  5 29  1  6  0  0  0
  6  7  1  1  0  0  0
  6 11  1  0  0  0  0
  8 12  1  0  0  0  0
  9 10  1  1  0  0  0
  9 14  1  0  0  0  0
 11 16  1  0  0  0  0
 12 13  1  1  0  0  0
 12 17  1  0  0  0  0
 14 15  1  6  0  0  0
 14 18  1  0  0  0  0
 15 31  1  0  0  0  0
 16 20  1  0  0  0  0
 17  2  1  1  0  0  0
 17 22  1  0  0  0  0
 18 19  1  6  0  0  0
 18 24  1  0  0  0  0
 18 30  1  0  0  0  0
 20 21  1  0  0  0  0
 20 26  1  1  0  0  0
 22 23  1  6  0  0  0
 22 28  1  0  0  0  0
 24 25  1  0  0  0  0
 26 27  1  0  0  0  0
 28 29  1  6  0  0  0
M  END
>  <CHROM.1>
159.60592076,-172.02971726,49.75415069,54.44382673,144.61278479,-13.09838622
-6.93189248,-9.20451290,-23.84624779,-1.61862906,-1.39477073,-1.64659375

>  <Name>
ligand

>  <RI>
0

>  <Rbt.Current_Directory>
/home/itssahil/PROJECTS/Mol_Feturizer/New_Systems/rnas/4F8U

>  <Rbt.Executable>
rbdock ($Id: //depot/dev/client3/rdock/2013.1/src/exe/rbdock.cxx#4 $)

>  <Rbt.Library>
libRbt.so (2013.1, Build901 2013/11/27)

>  <Rbt.Parameter_File>
/export/apps/rDock/src/rDock_2013.1_src/data/scripts/dock_solv.prm

>  <Rbt.Receptor>
prm/blind_docking_100.prm

>  <SCORE>
22.8056

>  <SCORE.INTER>
-0.0853947

>  <SCORE.INTER.CONST>
1

>  <SCORE.INTER.POLAR>
0

>  <SCORE.INTER.ROT>
6

>  <SCORE.INTER.SOLV>
29.9869

>  <SCORE.INTER.VDW>
-17.6526

>  <SCORE.INTER.norm>
-0.00275467

>  <SCORE.INTRA>
6.39747

>  <SCORE.INTRA.DIHEDRAL>
-7.6026

>  <SCORE.INTRA.DIHEDRAL.0>
18.77

>  <SCORE.INTRA.POLAR>
0

>  <SCORE.INTRA.POLAR.0>
0

>  <SCORE.INTRA.REPUL>
0

>  <SCORE.INTRA.REPUL.0>
0

>  <SCORE.INTRA.SOLV>
2.7061

>  <SCORE.INTRA.SOLV.lig_0>
-77.2465

>  <SCORE.INTRA.VDW>
8.84572

>  <SCORE.INTRA.VDW.0>
-4.16072

>  <SCORE.INTRA.norm>
0.20637

>  <SCORE.RESTR>
16.4935

>  <SCORE.RESTR.CAVITY>
16.4935

>  <SCORE.RESTR.norm>
0.53205

>  <SCORE.SYSTEM>
0

>  <SCORE.SYSTEM.CONST>
0

>  <SCORE.SYSTEM.DIHEDRAL>
0

>  <SCORE.SYSTEM.SOLV>
0

>  <SCORE.SYSTEM.norm>
0

>  <SCORE.heavy>
31

>  <SCORE.norm>
0.735665

>  <RMSD>
11.818

$$$$
ligand
 OpenBabel11021811493D
libRbt.so/2013.1/901 2013/11/27
 31 33  0  0  0  0  0  0  0  0999 V2000
   -6.5739   -9.1847  -19.7336 C   0  0  2  0  0  0  0  0  0  0  0  0
   -7.7946   -9.8035  -20.1619 O   0  0  0  0  0  0  0  0  0  0  0  0
   -6.6297  -11.3914  -23.9626 C   0  0  2  0  0  0  0  0  0  0  0  0
   -6.6861  -12.1014  -25.2039 N   0  0  0  0  0  0  0  0  0  0  0  0
   -8.5178   -9.0908  -26.0343 C   0  0  2  0  0  0  0  0  0  0  0  0
   -6.9242   -8.3633  -18.4434 C   0  0  2  0  0  0  0  0  0  0  0  0
   -7.4921   -9.2502  -17.4340 N   0  0  0  0  0  0  0  0  0  0  0  0
   -6.8443  -12.4133  -22.7804 C   0  0  0  0  0  0  0  0  0  0  0  0
   -8.2763  -10.1531  -27.1507 C   0  0  2  0  0  0  0  0  0  0  0  0
   -8.4594  -11.4477  -26.6035 O   0  0  0  0  0  0  0  0  0  0  0  0
   -7.9301   -7.2146  -18.8019 C   0  0  0  0  0  0  0  0  0  0  0  0
   -6.7735  -11.6247  -21.4018 C   0  0  2  0  0  0  0  0  0  0  0  0
   -6.9756  -12.5750  -20.2832 N   0  0  0  0  0  0  0  0  0  0  0  0
   -6.7823   -9.9583  -27.6665 C   0  0  1  0  0  0  0  0  0  0  0  0
   -6.4517  -10.9695  -28.7274 N   0  0  0  0  0  0  0  0  0  0  0  0
   -7.4591   -6.4408  -20.0672 C   0  0  0  0  0  0  0  0  0  0  0  0
   -7.8968  -10.4949  -21.3770 C   0  0  2  0  0  0  0  0  0  0  0  0
   -6.6215   -8.4606  -28.2861 C   0  0  1  0  0  0  0  0  0  0  0  0
   -7.4940   -8.2399  -29.3774 O   0  0  0  0  0  0  0  0  0  0  0  0
   -6.5834   -6.9862  -20.9246 C   0  0  2  0  0  0  0  0  0  0  0  0
   -6.0175   -8.2969  -20.7492 O   0  0  0  0  0  0  0  0  0  0  0  0
   -7.6685   -9.5036  -22.5939 C   0  0  2  0  0  0  0  0  0  0  0  0
   -8.6876   -8.4959  -22.5969 O   0  0  0  0  0  0  0  0  0  0  0  0
   -6.9641   -7.4049  -27.1813 C   0  0  0  0  0  0  0  0  0  0  0  0
   -8.3320   -7.7025  -26.5907 O   0  0  0  0  0  0  0  0  0  0  0  0
   -6.1013   -6.2322  -22.1859 C   0  0  0  0  0  0  0  0  0  0  0  0
   -6.9185   -6.6203  -23.3269 N   0  0  0  0  0  0  0  0  0  0  0  0
   -7.7391  -10.2984  -23.9477 C   0  0  1  0  0  0  0  0  0  0  0  0
   -7.5272   -9.3884  -25.0004 O   0  0  0  0  0  0  0  0  0  0  0  0
   -5.2261   -8.1085  -28.8276 C   0  0  0  0  0  0  0  0  0  0  0  0
   -7.4922  -11.2161  -29.7437 C   0  0  0  0  0  0  0  0  0  0  0  0
  1  2  1  6  0  0  0
  1  6  1  0  0  0  0
  1 21  1  0  0  0  0
  3  4  1  6  0  0  0
  3  8  1  0  0  0  0
  3 28  1  0  0  0  0
  5  9  1  0  0  0  0
  5 25  1  0  0  0  0
  5 29  1  1  0  0  0
  6  7  1  1  0  0  0
  6 11  1  0  0  0  0
  8 12  1  0  0  0  0
  9 10  1  1  0  0  0
  9 14  1  0  0  0  0
 11 16  1  0  0  0  0
 12 13  1  1  0  0  0
 12 17  1  0  0  0  0
 14 15  1  6  0  0  0
 14 18  1  0  0  0  0
 15 31  1  0  0  0  0
 16 20  1  0  0  0  0
 17  2  1  1  0  0  0
 17 22  1  0  0  0  0
 18 19  1  6  0  0  0
 18 24  1  0  0  0  0
 18 30  1  0  0  0  0
 20 21  1  0  0  0  0
 20 26  1  1  0  0  0
 22 23  1  6  0  0  0
 22 28  1  0  0  0  0
 24 25  1  0  0  0  0
 26 27  1  0  0  0  0
 28 29  1  6  0  0  0
M  END
>  <CHROM.1>
172.48476703,-87.97633261,42.76778276,55.42927312,-94.79004013,123.35734529
-7.23435496,-9.32286487,-23.82438872,1.62309628,1.52233127,1.42581343

>  <Name>
ligand

>  <RI>
0

>  <Rbt.Current_Directory>
/home/itssahil/PROJECTS/Mol_Feturizer/New_Systems/rnas/4F8U

>  <Rbt.Executable>
rbdock ($Id: //depot/dev/client3/rdock/2013.1/src/exe/rbdock.cxx#4 $)

>  <Rbt.Library>
libRbt.so (2013.1, Build901 2013/11/27)

>  <Rbt.Parameter_File>
/export/apps/rDock/src/rDock_2013.1_src/data/scripts/dock_solv.prm

>  <Rbt.Receptor>
prm/blind_docking_100.prm

>  <SCORE>
20.2515

>  <SCORE.INTER>
0.0648952

>  <SCORE.INTER.CONST>
1

>  <SCORE.INTER.POLAR>
0

>  <SCORE.INTER.ROT>
6

>  <SCORE.INTER.SOLV>
26.9658

>  <SCORE.INTER.VDW>
-16.5453

>  <SCORE.INTER.norm>
0.0020934

>  <SCORE.INTRA>
3.8816

>  <SCORE.INTRA.DIHEDRAL>
-5.40092

>  <SCORE.INTRA.DIHEDRAL.0>
18.77

>  <SCORE.INTRA.POLAR>
0

>  <SCORE.INTRA.POLAR.0>
0

>  <SCORE.INTRA.REPUL>
0.0485182

>  <SCORE.INTRA.REPUL.0>
0

>  <SCORE.INTRA.SOLV>
6.24111

>  <SCORE.INTRA.SOLV.lig_0>
-77.2465

>  <SCORE.INTRA.VDW>
3.21891

>  <SCORE.INTRA.VDW.0>
-4.16072

>  <SCORE.INTRA.norm>
0.125213

>  <SCORE.RESTR>
16.305

>  <SCORE.RESTR.CAVITY>
16.305

>  <SCORE.RESTR.norm>
0.525968

>  <SCORE.SYSTEM>
0

>  <SCORE.SYSTEM.CONST>
0

>  <SCORE.SYSTEM.DIHEDRAL>
0

>  <SCORE.SYSTEM.SOLV>
0

>  <SCORE.SYSTEM.norm>
0

>  <SCORE.heavy>
31

>  <SCORE.norm>
0.653274

>  <RMSD>
11.820

$$$$
ligand
 OpenBabel11021811493D
libRbt.so/2013.1/901 2013/11/27
 31 33  0  0  0  0  0  0  0  0999 V2000
   -6.6768   -9.1861  -19.6851 C   0  0  2  0  0  0  0  0  0  0  0  0
   -7.9374   -9.6149  -20.2175 O   0  0  0  0  0  0  0  0  0  0  0  0
   -6.7315  -11.4585  -23.8877 C   0  0  2  0  0  0  0  0  0  0  0  0
   -6.7835  -12.2299  -25.0920 N   0  0  0  0  0  0  0  0  0  0  0  0
   -6.2347   -9.5129  -25.8074 C   0  0  2  0  0  0  0  0  0  0  0  0
   -6.9995   -8.0702  -18.6303 C   0  0  2  0  0  0  0  0  0  0  0  0
   -7.8927   -8.6028  -17.6074 N   0  0  0  0  0  0  0  0  0  0  0  0
   -7.0371  -12.4042  -22.6629 C   0  0  0  0  0  0  0  0  0  0  0  0
   -6.3233   -8.3303  -26.8208 C   0  0  2  0  0  0  0  0  0  0  0  0
   -6.4682   -7.1169  -26.1028 O   0  0  0  0  0  0  0  0  0  0  0  0
   -7.6493   -6.8351  -19.3458 C   0  0  0  0  0  0  0  0  0  0  0  0
   -6.9712  -11.5479  -21.3251 C   0  0  2  0  0  0  0  0  0  0  0  0
   -7.2585  -12.4261  -20.1669 N   0  0  0  0  0  0  0  0  0  0  0  0
   -7.5917   -8.6005  -27.7452 C   0  0  1  0  0  0  0  0  0  0  0  0
   -7.7728   -7.4855  -28.7357 N   0  0  0  0  0  0  0  0  0  0  0  0
   -6.8406   -6.4419  -20.6158 C   0  0  0  0  0  0  0  0  0  0  0  0
   -8.0351  -10.3640  -21.3983 C   0  0  2  0  0  0  0  0  0  0  0  0
   -7.3788  -10.0011  -28.5490 C   0  0  1  0  0  0  0  0  0  0  0  0
   -6.2321   -9.9705  -29.3766 O   0  0  0  0  0  0  0  0  0  0  0  0
   -6.0072   -7.3146  -21.2019 C   0  0  2  0  0  0  0  0  0  0  0  0
   -5.7936   -8.6514  -20.7161 O   0  0  0  0  0  0  0  0  0  0  0  0
   -7.7162   -9.4514  -22.6557 C   0  0  2  0  0  0  0  0  0  0  0  0
   -8.6815   -8.3959  -22.7468 O   0  0  0  0  0  0  0  0  0  0  0  0
   -7.1915  -11.1650  -27.5183 C   0  0  0  0  0  0  0  0  0  0  0  0
   -6.0772  -10.8175  -26.5455 O   0  0  0  0  0  0  0  0  0  0  0  0
   -5.1930   -6.9418  -22.4628 C   0  0  0  0  0  0  0  0  0  0  0  0
   -3.8588   -6.5100  -22.0703 N   0  0  0  0  0  0  0  0  0  0  0  0
   -7.7830  -10.3126  -23.9685 C   0  0  1  0  0  0  0  0  0  0  0  0
   -7.4901   -9.4716  -25.0584 O   0  0  0  0  0  0  0  0  0  0  0  0
   -8.5245  -10.4121  -29.4886 C   0  0  0  0  0  0  0  0  0  0  0  0
   -6.6029   -7.1562  -29.5719 C   0  0  0  0  0  0  0  0  0  0  0  0
  1  2  1  6  0  0  0
  1  6  1  0  0  0  0
  1 21  1  0  0  0  0
  3  4  1  6  0  0  0
  3  8  1  0  0  0  0
  3 28  1  0  0  0  0
  5  9  1  0  0  0  0
  5 25  1  0  0  0  0
  5 29  1  6  0  0  0
  6  7  1  1  0  0  0
  6 11  1  0  0  0  0
  8 12  1  0  0  0  0
  9 10  1  1  0  0  0
  9 14  1  0  0  0  0
 11 16  1  0  0  0  0
 12 13  1  1  0  0  0
 12 17  1  0  0  0  0
 14 15  1  6  0  0  0
 14 18  1  0  0  0  0
 15 31  1  0  0  0  0
 16 20  1  0  0  0  0
 17  2  1  1  0  0  0
 17 22  1  0  0  0  0
 18 19  1  6  0  0  0
 18 24  1  0  0  0  0
 18 30  1  0  0  0  0
 20 21  1  0  0  0  0
 20 26  1  1  0  0  0
 22 23  1  6  0  0  0
 22 28  1  0  0  0  0
 24 25  1  0  0  0  0
 26 27  1  0  0  0  0
 28 29  1  6  0  0  0
M  END
>  <CHROM.1>
164.45834169,-175.16414266,53.65361076,46.96715196,95.91359629,-12.01176630
-6.95872993,-9.23719108,-23.84280028,1.54180422,1.35272892,1.52820788

>  <Name>
ligand

>  <RI>
0

>  <Rbt.Current_Directory>
/home/itssahil/PROJECTS/Mol_Feturizer/New_Systems/rnas/4F8U

>  <Rbt.Executable>
rbdock ($Id: //depot/dev/client3/rdock/2013.1/src/exe/rbdock.cxx#4 $)

>  <Rbt.Library>
libRbt.so (2013.1, Build901 2013/11/27)

>  <Rbt.Parameter_File>
/export/apps/rDock/src/rDock_2013.1_src/data/scripts/dock_solv.prm

>  <Rbt.Receptor>
prm/blind_docking_100.prm

>  <SCORE>
23.7171

>  <SCORE.INTER>
0.635348

>  <SCORE.INTER.CONST>
1

>  <SCORE.INTER.POLAR>
0

>  <SCORE.INTER.ROT>
6

>  <SCORE.INTER.SOLV>
30.2166

>  <SCORE.INTER.VDW>
-17.2486

>  <SCORE.INTER.norm>
0.0204951

>  <SCORE.INTRA>
7.8656

>  <SCORE.INTRA.DIHEDRAL>
-7.82738

>  <SCORE.INTRA.DIHEDRAL.0>
18.77

>  <SCORE.INTRA.POLAR>
0

>  <SCORE.INTRA.POLAR.0>
0

>  <SCORE.INTRA.REPUL>
0

>  <SCORE.INTRA.REPUL.0>
0

>  <SCORE.INTRA.SOLV>
1.59134

>  <SCORE.INTRA.SOLV.lig_0>
-77.2465

>  <SCORE.INTRA.VDW>
10.9836

>  <SCORE.INTRA.VDW.0>
-4.16072

>  <SCORE.INTRA.norm>
0.253729

>  <SCORE.RESTR>
15.2162

>  <SCORE.RESTR.CAVITY>
15.2162

>  <SCORE.RESTR.norm>
0.490844

>  <SCORE.SYSTEM>
0

>  <SCORE.SYSTEM.CONST>
0

>  <SCORE.SYSTEM.DIHEDRAL>
0

>  <SCORE.SYSTEM.SOLV>
0

>  <SCORE.SYSTEM.norm>
0

>  <SCORE.heavy>
31

>  <SCORE.norm>
0.765068

>  <RMSD>
11.846

$$$$
ligand
 OpenBabel11021811493D
libRbt.so/2013.1/901 2013/11/27
 31 33  0  0  0  0  0  0  0  0999 V2000
   -5.9444  -10.1830  -19.7821 C   0  0  2  0  0  0  0  0  0  0  0  0
   -7.0768  -10.3780  -20.6401 O   0  0  0  0  0  0  0  0  0  0  0  0
   -8.7113   -9.2876  -24.4432 C   0  0  2  0  0  0  0  0  0  0  0  0
   -8.8101   -8.7543  -25.7675 N   0  0  0  0  0  0  0  0  0  0  0  0
   -7.0291  -12.1332  -26.1695 C   0  0  2  0  0  0  0  0  0  0  0  0
   -6.4898  -10.2361  -18.3119 C   0  0  2  0  0  0  0  0  0  0  0  0
   -7.1603  -11.5109  -18.0811 N   0  0  0  0  0  0  0  0  0  0  0  0
   -8.3337   -8.1214  -23.4506 C   0  0  0  0  0  0  0  0  0  0  0  0
   -6.2180  -11.0043  -26.8774 C   0  0  2  0  0  0  0  0  0  0  0  0
   -5.5578  -10.2247  -25.8950 O   0  0  0  0  0  0  0  0  0  0  0  0
   -7.4737   -9.0395  -18.0670 C   0  0  0  0  0  0  0  0  0  0  0  0
   -8.2320   -8.7135  -21.9788 C   0  0  2  0  0  0  0  0  0  0  0  0
   -7.8759   -7.6265  -21.0371 N   0  0  0  0  0  0  0  0  0  0  0  0
   -7.2605  -10.1236  -27.6982 C   0  0  1  0  0  0  0  0  0  0  0  0
   -6.5645   -8.9854  -28.3892 N   0  0  0  0  0  0  0  0  0  0  0  0
   -6.8614   -7.7047  -18.5818 C   0  0  0  0  0  0  0  0  0  0  0  0
   -7.1269   -9.8608  -21.9420 C   0  0  2  0  0  0  0  0  0  0  0  0
   -7.9910  -11.0601  -28.8128 C   0  0  1  0  0  0  0  0  0  0  0  0
   -7.0675  -11.6139  -29.7300 O   0  0  0  0  0  0  0  0  0  0  0  0
   -5.8620   -7.7028  -19.4767 C   0  0  2  0  0  0  0  0  0  0  0  0
   -5.2844   -8.9033  -20.0188 O   0  0  0  0  0  0  0  0  0  0  0  0
   -7.5223  -11.0010  -22.9711 C   0  0  2  0  0  0  0  0  0  0  0  0
   -6.5228  -12.0282  -22.9654 O   0  0  0  0  0  0  0  0  0  0  0  0
   -8.7185  -12.2462  -28.0944 C   0  0  0  0  0  0  0  0  0  0  0  0
   -7.7402  -12.9806  -27.1930 O   0  0  0  0  0  0  0  0  0  0  0  0
   -5.2386   -6.3870  -19.9983 C   0  0  0  0  0  0  0  0  0  0  0  0
   -4.7799   -6.5752  -21.3674 N   0  0  0  0  0  0  0  0  0  0  0  0
   -7.6208  -10.3993  -24.4196 C   0  0  1  0  0  0  0  0  0  0  0  0
   -7.9777  -11.4372  -25.3007 O   0  0  0  0  0  0  0  0  0  0  0  0
   -9.0377  -10.3570  -29.6928 C   0  0  0  0  0  0  0  0  0  0  0  0
   -6.1797   -7.8415  -27.5409 C   0  0  0  0  0  0  0  0  0  0  0  0
  1  2  1  6  0  0  0
  1  6  1  0  0  0  0
  1 21  1  0  0  0  0
  3  4  1  6  0  0  0
  3  8  1  0  0  0  0
  3 28  1  0  0  0  0
  5  9  1  0  0  0  0
  5 25  1  0  0  0  0
  5 29  1  1  0  0  0
  6  7  1  6  0  0  0
  6 11  1  0  0  0  0
  8 12  1  0  0  0  0
  9 10  1  1  0  0  0
  9 14  1  0  0  0  0
 11 16  1  0  0  0  0
 12 13  1  1  0  0  0
 12 17  1  0  0  0  0
 14 15  1  6  0  0  0
 14 18  1  0  0  0  0
 15 31  1  0  0  0  0
 16 20  1  0  0  0  0
 17  2  1  1  0  0  0
 17 22  1  0  0  0  0
 18 19  1  6  0  0  0
 18 24  1  0  0  0  0
 18 30  1  0  0  0  0
 20 21  1  0  0  0  0
 20 26  1  1  0  0  0
 22 23  1  6  0  0  0
 22 28  1  0  0  0  0
 24 25  1  0  0  0  0
 26 27  1  0  0  0  0
 28 29  1  6  0  0  0
M  END
>  <CHROM.1>
152.54660371,-48.74266995,-76.56329581,-111.70424382,-148.85427073,139.71779525
-7.09272200,-9.84500511,-23.74072471,1.04608074,1.32531731,1.85012225

>  <Name>
ligand

>  <RI>
0

>  <Rbt.Current_Directory>
/home/itssahil/PROJECTS/Mol_Feturizer/New_Systems/rnas/4F8U

>  <Rbt.Executable>
rbdock ($Id: //depot/dev/client3/rdock/2013.1/src/exe/rbdock.cxx#4 $)

>  <Rbt.Library>
libRbt.so (2013.1, Build901 2013/11/27)

>  <Rbt.Parameter_File>
/export/apps/rDock/src/rDock_2013.1_src/data/scripts/dock_solv.prm

>  <Rbt.Receptor>
prm/blind_docking_100.prm

>  <SCORE>
29.9316

>  <SCORE.INTER>
4.02326

>  <SCORE.INTER.CONST>
1

>  <SCORE.INTER.POLAR>
0

>  <SCORE.INTER.ROT>
6

>  <SCORE.INTER.SOLV>
23.7131

>  <SCORE.INTER.VDW>
-12.8222

>  <SCORE.INTER.norm>
0.129783

>  <SCORE.INTRA>
9.5601

>  <SCORE.INTRA.DIHEDRAL>
0.0657794

>  <SCORE.INTRA.DIHEDRAL.0>
18.77

>  <SCORE.INTRA.POLAR>
0

>  <SCORE.INTRA.POLAR.0>
0

>  <SCORE.INTRA.REPUL>
0

>  <SCORE.INTRA.REPUL.0>
0

>  <SCORE.INTRA.SOLV>
9.4138

>  <SCORE.INTRA.SOLV.lig_0>
-77.2465

>  <SCORE.INTRA.VDW>
4.82032

>  <SCORE.INTRA.VDW.0>
-4.16072

>  <SCORE.INTRA.norm>
0.30839

>  <SCORE.RESTR>
16.3483

>  <SCORE.RESTR.CAVITY>
16.3483

>  <SCORE.RESTR.norm>
0.527364

>  <SCORE.SYSTEM>
0

>  <SCORE.SYSTEM.CONST>
0

>  <SCORE.SYSTEM.DIHEDRAL>
0

>  <SCORE.SYSTEM.SOLV>
0

>  <SCORE.SYSTEM.norm>
0

>  <SCORE.heavy>
31

>  <SCORE.norm>
0.965537

>  <RMSD>
11.853

$$$$
ligand
 OpenBabel11021811493D
libRbt.so/2013.1/901 2013/11/27
 31 33  0  0  0  0  0  0  0  0999 V2000
   -6.6659   -9.2017  -19.7012 C   0  0  2  0  0  0  0  0  0  0  0  0
   -7.9348   -9.6036  -20.2349 O   0  0  0  0  0  0  0  0  0  0  0  0
   -6.7659  -11.4589  -23.9112 C   0  0  2  0  0  0  0  0  0  0  0  0
   -6.8334  -12.2249  -25.1181 N   0  0  0  0  0  0  0  0  0  0  0  0
   -6.2195   -9.5009  -25.8088 C   0  0  2  0  0  0  0  0  0  0  0  0
   -6.9662   -8.0834  -18.6424 C   0  0  2  0  0  0  0  0  0  0  0  0
   -7.8696   -8.6019  -17.6212 N   0  0  0  0  0  0  0  0  0  0  0  0
   -7.0909  -12.4023  -22.6896 C   0  0  0  0  0  0  0  0  0  0  0  0
   -6.2924   -8.3222  -26.8279 C   0  0  2  0  0  0  0  0  0  0  0  0
   -6.4424   -7.1055  -26.1166 O   0  0  0  0  0  0  0  0  0  0  0  0
   -7.5915   -6.8331  -19.3534 C   0  0  0  0  0  0  0  0  0  0  0  0
   -7.0079  -11.5521  -21.3489 C   0  0  2  0  0  0  0  0  0  0  0  0
   -7.3132  -12.4282  -20.1937 N   0  0  0  0  0  0  0  0  0  0  0  0
   -7.5503   -8.5925  -27.7665 C   0  0  1  0  0  0  0  0  0  0  0  0
   -7.7161   -7.4810  -28.7636 N   0  0  0  0  0  0  0  0  0  0  0  0
   -6.7754   -6.4516  -20.6222 C   0  0  0  0  0  0  0  0  0  0  0  0
   -8.0474  -10.3465  -21.4182 C   0  0  2  0  0  0  0  0  0  0  0  0
   -7.3318   -9.9969  -28.5620 C   0  0  1  0  0  0  0  0  0  0  0  0
   -6.1751   -9.9730  -29.3758 O   0  0  0  0  0  0  0  0  0  0  0  0
   -5.9595   -7.3385  -21.2116 C   0  0  2  0  0  0  0  0  0  0  0  0
   -5.7723   -8.6810  -20.7306 O   0  0  0  0  0  0  0  0  0  0  0  0
   -7.7098   -9.4363  -22.6725 C   0  0  2  0  0  0  0  0  0  0  0  0
   -8.6534   -8.3612  -22.7601 O   0  0  0  0  0  0  0  0  0  0  0  0
   -7.1603  -11.1572  -27.5244 C   0  0  0  0  0  0  0  0  0  0  0  0
   -6.0569  -10.8089  -26.5396 O   0  0  0  0  0  0  0  0  0  0  0  0
   -5.1382   -6.9775  -22.4713 C   0  0  0  0  0  0  0  0  0  0  0  0
   -3.8192   -6.5059  -22.0735 N   0  0  0  0  0  0  0  0  0  0  0  0
   -7.7939  -10.2915  -23.9882 C   0  0  1  0  0  0  0  0  0  0  0  0
   -7.4838   -9.4530  -25.0752 O   0  0  0  0  0  0  0  0  0  0  0  0
   -8.4673  -10.4085  -29.5137 C   0  0  0  0  0  0  0  0  0  0  0  0
   -9.0804   -6.9430  -28.9234 C   0  0  0  0  0  0  0  0  0  0  0  0
  1  2  1  6  0  0  0
  1  6  1  0  0  0  0
  1 21  1  0  0  0  0
  3  4  1  6  0  0  0
  3  8  1  0  0  0  0
  3 28  1  0  0  0  0
  5  9  1  0  0  0  0
  5 25  1  0  0  0  0
  5 29  1  6  0  0  0
  6  7  1  1  0  0  0
  6 11  1  0  0  0  0
  8 12  1  0  0  0  0
  9 10  1  1  0  0  0
  9 14  1  0  0  0  0
 11 16  1  0  0  0  0
 12 13  1  1  0  0  0
 12 17  1  0  0  0  0
 14 15  1  6  0  0  0
 14 18  1  0  0  0  0
 15 31  1  0  0  0  0
 16 20  1  0  0  0  0
 17  2  1  1  0  0  0
 17 22  1  0  0  0  0
 18 19  1  6  0  0  0
 18 24  1  0  0  0  0
 18 30  1  0  0  0  0
 20 21  1  0  0  0  0
 20 26  1  1  0  0  0
 22 23  1  6  0  0  0
 22 28  1  0  0  0  0
 24 25  1  0  0  0  0
 26 27  1  0  0  0  0
 28 29  1  6  0  0  0
M  END
>  <CHROM.1>
164.46419004,-175.37046465,-133.36877152,47.00020878,92.91716779,-13.16931671
-7.02654301,-9.22766420,-23.83426045,1.27970753,1.41716395,1.78431774

>  <Name>
ligand

>  <RI>
0

>  <Rbt.Current_Directory>
/home/itssahil/PROJECTS/Mol_Feturizer/New_Systems/rnas/4F8U

>  <Rbt.Executable>
rbdock ($Id: //depot/dev/client3/rdock/2013.1/src/exe/rbdock.cxx#4 $)

>  <Rbt.Library>
libRbt.so (2013.1, Build901 2013/11/27)

>  <Rbt.Parameter_File>
/export/apps/rDock/src/rDock_2013.1_src/data/scripts/dock_solv.prm

>  <Rbt.Receptor>
prm/blind_docking_100.prm

>  <SCORE>
23.0671

>  <SCORE.INTER>
0.888055

>  <SCORE.INTER.CONST>
1

>  <SCORE.INTER.POLAR>
0

>  <SCORE.INTER.ROT>
6

>  <SCORE.INTER.SOLV>
30.2941

>  <SCORE.INTER.VDW>
-17.106

>  <SCORE.INTER.norm>
0.0286469

>  <SCORE.INTRA>
6.40431

>  <SCORE.INTRA.DIHEDRAL>
-6.80264

>  <SCORE.INTRA.DIHEDRAL.0>
18.77

>  <SCORE.INTRA.POLAR>
0

>  <SCORE.INTRA.POLAR.0>
0

>  <SCORE.INTRA.REPUL>
0

>  <SCORE.INTRA.REPUL.0>
0

>  <SCORE.INTRA.SOLV>
1.3737

>  <SCORE.INTRA.SOLV.lig_0>
-77.2465

>  <SCORE.INTRA.VDW>
9.11878

>  <SCORE.INTRA.VDW.0>
-4.16072

>  <SCORE.INTRA.norm>
0.206591

>  <SCORE.RESTR>
15.7747

>  <SCORE.RESTR.CAVITY>
15.7747

>  <SCORE.RESTR.norm>
0.508862

>  <SCORE.SYSTEM>
0

>  <SCORE.SYSTEM.CONST>
0

>  <SCORE.SYSTEM.DIHEDRAL>
0

>  <SCORE.SYSTEM.SOLV>
0

>  <SCORE.SYSTEM.norm>
0

>  <SCORE.heavy>
31

>  <SCORE.norm>
0.7441

>  <RMSD>
11.872

$$$$
ligand
 OpenBabel11021811493D
libRbt.so/2013.1/901 2013/11/27
 31 33  0  0  0  0  0  0  0  0999 V2000
   -6.0278   -6.6951  -21.2554 C   0  0  2  0  0  0  0  0  0  0  0  0
   -7.3531   -7.1222  -21.5985 O   0  0  0  0  0  0  0  0  0  0  0  0
   -6.8340  -11.1864  -22.8380 C   0  0  2  0  0  0  0  0  0  0  0  0
   -7.1085  -12.5702  -23.0783 N   0  0  0  0  0  0  0  0  0  0  0  0
   -6.4601  -10.7976  -25.6856 C   0  0  2  0  0  0  0  0  0  0  0  0
   -6.1054   -5.1425  -21.0424 C   0  0  2  0  0  0  0  0  0  0  0  0
   -7.0838   -4.8360  -20.0048 N   0  0  0  0  0  0  0  0  0  0  0  0
   -6.9477  -10.9052  -21.2901 C   0  0  0  0  0  0  0  0  0  0  0  0
   -6.5296   -9.9378  -26.9853 C   0  0  2  0  0  0  0  0  0  0  0  0
   -6.7019   -8.5767  -26.6298 O   0  0  0  0  0  0  0  0  0  0  0  0
   -6.4887   -4.4399  -22.3912 C   0  0  0  0  0  0  0  0  0  0  0  0
   -6.6348   -9.3695  -21.0236 C   0  0  2  0  0  0  0  0  0  0  0  0
   -6.7404   -9.0930  -19.5719 N   0  0  0  0  0  0  0  0  0  0  0  0
   -7.7709  -10.4676  -27.8307 C   0  0  1  0  0  0  0  0  0  0  0  0
   -7.9330   -9.6679  -29.0922 N   0  0  0  0  0  0  0  0  0  0  0  0
   -5.6233   -4.9840  -23.5646 C   0  0  0  0  0  0  0  0  0  0  0  0
   -7.6680   -8.4675  -21.8347 C   0  0  2  0  0  0  0  0  0  0  0  0
   -7.5271  -12.0313  -28.2161 C   0  0  1  0  0  0  0  0  0  0  0  0
   -6.3588  -12.2118  -28.9929 O   0  0  0  0  0  0  0  0  0  0  0  0
   -4.9929   -6.1643  -23.4687 C   0  0  2  0  0  0  0  0  0  0  0  0
   -5.0588   -7.0028  -22.3020 O   0  0  0  0  0  0  0  0  0  0  0  0
   -7.5475   -8.7965  -23.3816 C   0  0  2  0  0  0  0  0  0  0  0  0
   -8.4896   -8.0086  -24.1202 O   0  0  0  0  0  0  0  0  0  0  0  0
   -7.3595  -12.8670  -26.9024 C   0  0  0  0  0  0  0  0  0  0  0  0
   -6.2740  -12.2518  -26.0352 O   0  0  0  0  0  0  0  0  0  0  0  0
   -4.1264   -6.7205  -24.6226 C   0  0  0  0  0  0  0  0  0  0  0  0
   -2.9558   -7.3900  -24.0729 N   0  0  0  0  0  0  0  0  0  0  0  0
   -7.8572  -10.3174  -23.6275 C   0  0  1  0  0  0  0  0  0  0  0  0
   -7.7354  -10.5709  -25.0066 O   0  0  0  0  0  0  0  0  0  0  0  0
   -8.6444  -12.6990  -29.0347 C   0  0  0  0  0  0  0  0  0  0  0  0
   -6.7421   -9.5591  -29.9560 C   0  0  0  0  0  0  0  0  0  0  0  0
  1  2  1  6  0  0  0
  1  6  1  0  0  0  0
  1 21  1  0  0  0  0
  3  4  1  1  0  0  0
  3  8  1  0  0  0  0
  3 28  1  0  0  0  0
  5  9  1  0  0  0  0
  5 25  1  0  0  0  0
  5 29  1  6  0  0  0
  6  7  1  1  0  0  0
  6 11  1  0  0  0  0
  8 12  1  0  0  0  0
  9 10  1  1  0  0  0
  9 14  1  0  0  0  0
 11 16  1  0  0  0  0
 12 13  1  1  0  0  0
 12 17  1  0  0  0  0
 14 15  1  6  0  0  0
 14 18  1  0  0  0  0
 15 31  1  0  0  0  0
 16 20  1  0  0  0  0
 17  2  1  6  0  0  0
 17 22  1  0  0  0  0
 18 19  1  6  0  0  0
 18 24  1  0  0  0  0
 18 30  1  0  0  0  0
 20 21  1  0  0  0  0
 20 26  1  1  0  0  0
 22 23  1  6  0  0  0
 22 28  1  0  0  0  0
 24 25  1  0  0  0  0
 26 27  1  0  0  0  0
 28 29  1  6  0  0  0
M  END
>  <CHROM.1>
-178.63623546,-135.06504083,53.44308711,26.51969442,142.21079250,-38.16663520
-6.70337463,-9.07143006,-24.41517232,1.12423356,1.26093538,1.34275867

>  <Name>
ligand

>  <RI>
0

>  <Rbt.Current_Directory>
/home/itssahil/PROJECTS/Mol_Feturizer/New_Systems/rnas/4F8U

>  <Rbt.Executable>
rbdock ($Id: //depot/dev/client3/rdock/2013.1/src/exe/rbdock.cxx#4 $)

>  <Rbt.Library>
libRbt.so (2013.1, Build901 2013/11/27)

>  <Rbt.Parameter_File>
/export/apps/rDock/src/rDock_2013.1_src/data/scripts/dock_solv.prm

>  <Rbt.Receptor>
prm/blind_docking_80.prm

>  <SCORE>
17.0951

>  <SCORE.INTER>
2.40099

>  <SCORE.INTER.CONST>
1

>  <SCORE.INTER.POLAR>
0

>  <SCORE.INTER.ROT>
6

>  <SCORE.INTER.SOLV>
28.9544

>  <SCORE.INTER.VDW>
-15.6508

>  <SCORE.INTER.norm>
0.0774513

>  <SCORE.INTRA>
1.71567

>  <SCORE.INTRA.DIHEDRAL>
-3.97213

>  <SCORE.INTRA.DIHEDRAL.0>
18.77

>  <SCORE.INTRA.POLAR>
0

>  <SCORE.INTRA.POLAR.0>
0

>  <SCORE.INTRA.REPUL>
0

>  <SCORE.INTRA.REPUL.0>
0

>  <SCORE.INTRA.SOLV>
0.682222

>  <SCORE.INTRA.SOLV.lig_0>
-77.2465

>  <SCORE.INTRA.VDW>
3.36062

>  <SCORE.INTRA.VDW.0>
-4.16072

>  <SCORE.INTRA.norm>
0.0553442

>  <SCORE.RESTR>
12.9784

>  <SCORE.RESTR.CAVITY>
12.9784

>  <SCORE.RESTR.norm>
0.418659

>  <SCORE.SYSTEM>
0

>  <SCORE.SYSTEM.CONST>
0

>  <SCORE.SYSTEM.DIHEDRAL>
0

>  <SCORE.SYSTEM.SOLV>
0

>  <SCORE.SYSTEM.norm>
0

>  <SCORE.heavy>
31

>  <SCORE.norm>
0.551454

>  <RMSD>
11.914

$$$$
ligand
 OpenBabel11021811493D
libRbt.so/2013.1/901 2013/11/27
 31 33  0  0  0  0  0  0  0  0999 V2000
   -6.6313   -9.2266  -19.7141 C   0  0  2  0  0  0  0  0  0  0  0  0
   -7.8992   -9.5670  -20.2912 O   0  0  0  0  0  0  0  0  0  0  0  0
   -6.7380  -11.4350  -23.9635 C   0  0  2  0  0  0  0  0  0  0  0  0
   -6.8011  -12.2233  -25.1562 N   0  0  0  0  0  0  0  0  0  0  0  0
   -6.3064   -9.4723  -25.8900 C   0  0  2  0  0  0  0  0  0  0  0  0
   -6.9168   -8.1131  -18.6461 C   0  0  2  0  0  0  0  0  0  0  0  0
   -7.8710   -8.6091  -17.6605 N   0  0  0  0  0  0  0  0  0  0  0  0
   -6.9966  -12.3701  -22.7199 C   0  0  0  0  0  0  0  0  0  0  0  0
   -6.4561   -8.3207  -26.9314 C   0  0  2  0  0  0  0  0  0  0  0  0
   -6.6661   -7.0998  -26.2428 O   0  0  0  0  0  0  0  0  0  0  0  0
   -7.4685   -6.8271  -19.3543 C   0  0  0  0  0  0  0  0  0  0  0  0
   -6.9185  -11.4947  -21.3952 C   0  0  2  0  0  0  0  0  0  0  0  0
   -7.1617  -12.3629  -20.2195 N   0  0  0  0  0  0  0  0  0  0  0  0
   -7.7070   -8.6798  -27.8494 C   0  0  1  0  0  0  0  0  0  0  0  0
   -7.9454   -7.6000  -28.8664 N   0  0  0  0  0  0  0  0  0  0  0  0
   -6.5998   -6.4605  -20.5921 C   0  0  0  0  0  0  0  0  0  0  0  0
   -8.0078  -10.3337  -21.4596 C   0  0  2  0  0  0  0  0  0  0  0  0
   -7.4190  -10.0860  -28.6193 C   0  0  1  0  0  0  0  0  0  0  0  0
   -6.2743  -10.0144  -29.4472 O   0  0  0  0  0  0  0  0  0  0  0  0
   -5.8039   -7.3715  -21.1721 C   0  0  2  0  0  0  0  0  0  0  0  0
   -5.6867   -8.7279  -20.7081 O   0  0  0  0  0  0  0  0  0  0  0  0
   -7.7360   -9.4318  -22.7357 C   0  0  2  0  0  0  0  0  0  0  0  0
   -8.7245   -8.3974  -22.8186 O   0  0  0  0  0  0  0  0  0  0  0  0
   -7.1718  -11.2133  -27.5609 C   0  0  0  0  0  0  0  0  0  0  0  0
   -6.0789  -10.7840  -26.5965 O   0  0  0  0  0  0  0  0  0  0  0  0
   -4.9312   -7.0258  -22.4011 C   0  0  0  0  0  0  0  0  0  0  0  0
   -5.5831   -7.5059  -23.6114 N   0  0  0  0  0  0  0  0  0  0  0  0
   -7.8145  -10.3117  -24.0354 C   0  0  1  0  0  0  0  0  0  0  0  0
   -7.5634   -9.4797  -25.1424 O   0  0  0  0  0  0  0  0  0  0  0  0
   -8.5400  -10.5795  -29.5489 C   0  0  0  0  0  0  0  0  0  0  0  0
   -6.7838   -7.2031  -29.6845 C   0  0  0  0  0  0  0  0  0  0  0  0
  1  2  1  6  0  0  0
  1  6  1  0  0  0  0
  1 21  1  0  0  0  0
  3  4  1  6  0  0  0
  3  8  1  0  0  0  0
  3 28  1  0  0  0  0
  5  9  1  0  0  0  0
  5 25  1  0  0  0  0
  5 29  1  6  0  0  0
  6  7  1  1  0  0  0
  6 11  1  0  0  0  0
  8 12  1  0  0  0  0
  9 10  1  1  0  0  0
  9 14  1  0  0  0  0
 11 16  1  0  0  0  0
 12 13  1  1  0  0  0
 12 17  1  0  0  0  0
 14 15  1  6  0  0  0
 14 18  1  0  0  0  0
 15 31  1  0  0  0  0
 16 20  1  0  0  0  0
 17  2  1  1  0  0  0
 17 22  1  0  0  0  0
 18 19  1  6  0  0  0
 18 24  1  0  0  0  0
 18 30  1  0  0  0  0
 20 21  1  0  0  0  0
 20 26  1  1  0  0  0
 22 23  1  6  0  0  0
 22 28  1  0  0  0  0
 24 25  1  0  0  0  0
 26 27  1  0  0  0  0
 28 29  1  6  0  0  0
M  END
>  <CHROM.1>
167.17031018,-175.37494815,52.01482438,40.13170207,-100.18658565,-14.26671978
-7.00702328,-9.28630308,-23.94787140,1.46532103,1.43063455,1.61152956

>  <Name>
ligand

>  <RI>
0

>  <Rbt.Current_Directory>
/home/itssahil/PROJECTS/Mol_Feturizer/New_Systems/rnas/4F8U

>  <Rbt.Executable>
rbdock ($Id: //depot/dev/client3/rdock/2013.1/src/exe/rbdock.cxx#4 $)

>  <Rbt.Library>
libRbt.so (2013.1, Build901 2013/11/27)

>  <Rbt.Parameter_File>
/export/apps/rDock/src/rDock_2013.1_src/data/scripts/dock_solv.prm

>  <Rbt.Receptor>
prm/blind_docking_100.prm

>  <SCORE>
25.0226

>  <SCORE.INTER>
-0.486119

>  <SCORE.INTER.CONST>
1

>  <SCORE.INTER.POLAR>
0

>  <SCORE.INTER.ROT>
6

>  <SCORE.INTER.SOLV>
27.2657

>  <SCORE.INTER.VDW>
-17.0126

>  <SCORE.INTER.norm>
-0.0156813

>  <SCORE.INTRA>
10.1222

>  <SCORE.INTRA.DIHEDRAL>
-7.65997

>  <SCORE.INTRA.DIHEDRAL.0>
18.77

>  <SCORE.INTRA.POLAR>
0

>  <SCORE.INTRA.POLAR.0>
0

>  <SCORE.INTRA.REPUL>
0

>  <SCORE.INTRA.REPUL.0>
0

>  <SCORE.INTRA.SOLV>
7.57454

>  <SCORE.INTRA.SOLV.lig_0>
-77.2465

>  <SCORE.INTRA.VDW>
10.1649

>  <SCORE.INTRA.VDW.0>
-4.16072

>  <SCORE.INTRA.norm>
0.326523

>  <SCORE.RESTR>
15.3865

>  <SCORE.RESTR.CAVITY>
15.3865

>  <SCORE.RESTR.norm>
0.49634

>  <SCORE.SYSTEM>
0

>  <SCORE.SYSTEM.CONST>
0

>  <SCORE.SYSTEM.DIHEDRAL>
0

>  <SCORE.SYSTEM.SOLV>
0

>  <SCORE.SYSTEM.norm>
0

>  <SCORE.heavy>
31

>  <SCORE.norm>
0.807181

>  <RMSD>
11.919

$$$$
ligand
 OpenBabel11021811493D
libRbt.so/2013.1/901 2013/11/27
 31 33  0  0  0  0  0  0  0  0999 V2000
   -6.5588   -9.4004  -20.0499 C   0  0  2  0  0  0  0  0  0  0  0  0
   -7.7929   -9.5279  -20.7691 O   0  0  0  0  0  0  0  0  0  0  0  0
   -6.4780  -11.2645  -24.4541 C   0  0  2  0  0  0  0  0  0  0  0  0
   -6.5112  -11.9286  -25.7213 N   0  0  0  0  0  0  0  0  0  0  0  0
   -7.6178   -8.3569  -26.4706 C   0  0  2  0  0  0  0  0  0  0  0  0
   -6.8830   -8.5667  -18.7608 C   0  0  2  0  0  0  0  0  0  0  0  0
   -7.9205   -9.2396  -17.9871 N   0  0  0  0  0  0  0  0  0  0  0  0
   -7.0512  -12.2378  -23.3531 C   0  0  0  0  0  0  0  0  0  0  0  0
   -8.2992   -9.4410  -27.3615 C   0  0  2  0  0  0  0  0  0  0  0  0
   -9.0917  -10.2819  -26.5407 O   0  0  0  0  0  0  0  0  0  0  0  0
   -7.3408   -7.1218  -19.1640 C   0  0  0  0  0  0  0  0  0  0  0  0
   -7.0065  -11.5019  -21.9446 C   0  0  2  0  0  0  0  0  0  0  0  0
   -7.5444  -12.4067  -20.9020 N   0  0  0  0  0  0  0  0  0  0  0  0
   -7.1343  -10.2666  -28.0669 C   0  0  1  0  0  0  0  0  0  0  0  0
   -7.7043  -11.3607  -28.9243 N   0  0  0  0  0  0  0  0  0  0  0  0
   -6.3747   -6.5088  -20.2187 C   0  0  0  0  0  0  0  0  0  0  0  0
   -7.8702  -10.1648  -22.0154 C   0  0  2  0  0  0  0  0  0  0  0  0
   -6.2542   -9.2607  -28.9978 C   0  0  1  0  0  0  0  0  0  0  0  0
   -7.0343   -8.6525  -30.0090 O   0  0  0  0  0  0  0  0  0  0  0  0
   -5.5698   -7.2898  -20.9549 C   0  0  2  0  0  0  0  0  0  0  0  0
   -5.5302   -8.7223  -20.8317 O   0  0  0  0  0  0  0  0  0  0  0  0
   -7.2853   -9.2237  -23.1503 C   0  0  2  0  0  0  0  0  0  0  0  0
   -8.0691   -8.0273  -23.2406 O   0  0  0  0  0  0  0  0  0  0  0  0
   -5.6577   -8.1203  -28.1057 C   0  0  0  0  0  0  0  0  0  0  0  0
   -6.7696   -7.4457  -27.3201 O   0  0  0  0  0  0  0  0  0  0  0  0
   -4.6011   -6.6993  -22.0059 C   0  0  0  0  0  0  0  0  0  0  0  0
   -5.1726   -6.8553  -23.3362 N   0  0  0  0  0  0  0  0  0  0  0  0
   -7.3345   -9.9662  -24.5345 C   0  0  1  0  0  0  0  0  0  0  0  0
   -6.8039   -9.1039  -25.5122 O   0  0  0  0  0  0  0  0  0  0  0  0
   -5.0781   -9.9053  -29.7501 C   0  0  0  0  0  0  0  0  0  0  0  0
   -9.1647  -11.3365  -29.1314 C   0  0  0  0  0  0  0  0  0  0  0  0
  1  2  1  6  0  0  0
  1  6  1  0  0  0  0
  1 21  1  0  0  0  0
  3  4  1  6  0  0  0
  3  8  1  0  0  0  0
  3 28  1  0  0  0  0
  5  9  1  0  0  0  0
  5 25  1  0  0  0  0
  5 29  1  1  0  0  0
  6  7  1  6  0  0  0
  6 11  1  0  0  0  0
  8 12  1  0  0  0  0
  9 10  1  1  0  0  0
  9 14  1  0  0  0  0
 11 16  1  0  0  0  0
 12 13  1  1  0  0  0
 12 17  1  0  0  0  0
 14 15  1  6  0  0  0
 14 18  1  0  0  0  0
 15 31  1  0  0  0  0
 16 20  1  0  0  0  0
 17  2  1  1  0  0  0
 17 22  1  0  0  0  0
 18 19  1  6  0  0  0
 18 24  1  0  0  0  0
 18 30  1  0  0  0  0
 20 21  1  0  0  0  0
 20 26  1  1  0  0  0
 22 23  1  6  0  0  0
 22 28  1  0  0  0  0
 24 25  1  0  0  0  0
 26 27  1  0  0  0  0
 28 29  1  6  0  0  0
M  END
>  <CHROM.1>
176.89548661,-64.84906867,9.50303872,43.72778920,-100.95523507,137.58714241
-6.96309573,-9.34418398,-24.22368197,1.47605504,1.16173181,1.52631613

>  <Name>
ligand

>  <RI>
0

>  <Rbt.Current_Directory>
/home/itssahil/PROJECTS/Mol_Feturizer/New_Systems/rnas/4F8U

>  <Rbt.Executable>
rbdock ($Id: //depot/dev/client3/rdock/2013.1/src/exe/rbdock.cxx#4 $)

>  <Rbt.Library>
libRbt.so (2013.1, Build901 2013/11/27)

>  <Rbt.Parameter_File>
/export/apps/rDock/src/rDock_2013.1_src/data/scripts/dock_solv.prm

>  <Rbt.Receptor>
prm/blind_docking_100.prm

>  <SCORE>
19.663

>  <SCORE.INTER>
-1.0607

>  <SCORE.INTER.CONST>
1

>  <SCORE.INTER.POLAR>
0

>  <SCORE.INTER.ROT>
6

>  <SCORE.INTER.SOLV>
25.696

>  <SCORE.INTER.VDW>
-16.8725

>  <SCORE.INTER.norm>
-0.0342162

>  <SCORE.INTRA>
3.60404

>  <SCORE.INTRA.DIHEDRAL>
-8.35316

>  <SCORE.INTRA.DIHEDRAL.0>
18.77

>  <SCORE.INTRA.POLAR>
0

>  <SCORE.INTRA.POLAR.0>
0

>  <SCORE.INTRA.REPUL>
0.0111973

>  <SCORE.INTRA.REPUL.0>
0

>  <SCORE.INTRA.SOLV>
5.05382

>  <SCORE.INTRA.SOLV.lig_0>
-77.2465

>  <SCORE.INTRA.VDW>
5.19772

>  <SCORE.INTRA.VDW.0>
-4.16072

>  <SCORE.INTRA.norm>
0.116259

>  <SCORE.RESTR>
17.1196

>  <SCORE.RESTR.CAVITY>
17.1196

>  <SCORE.RESTR.norm>
0.552246

>  <SCORE.SYSTEM>
0

>  <SCORE.SYSTEM.CONST>
0

>  <SCORE.SYSTEM.DIHEDRAL>
0

>  <SCORE.SYSTEM.SOLV>
0

>  <SCORE.SYSTEM.norm>
0

>  <SCORE.heavy>
31

>  <SCORE.norm>
0.63429

>  <RMSD>
12.135

$$$$
ligand
 OpenBabel11021811493D
libRbt.so/2013.1/901 2013/11/27
 31 33  0  0  0  0  0  0  0  0999 V2000
   -7.6342   -8.3606  -20.1857 C   0  0  2  0  0  0  0  0  0  0  0  0
   -7.0215   -8.4568  -21.4788 O   0  0  0  0  0  0  0  0  0  0  0  0
   -6.8211  -11.2916  -24.6799 C   0  0  2  0  0  0  0  0  0  0  0  0
   -7.2290  -12.2394  -25.6715 N   0  0  0  0  0  0  0  0  0  0  0  0
   -8.0309   -9.1542  -27.3284 C   0  0  2  0  0  0  0  0  0  0  0  0
   -7.1695   -6.9908  -19.5777 C   0  0  2  0  0  0  0  0  0  0  0  0
   -7.5547   -5.9010  -20.4675 N   0  0  0  0  0  0  0  0  0  0  0  0
   -7.2459  -11.8264  -23.2581 C   0  0  0  0  0  0  0  0  0  0  0  0
   -8.3926  -10.5393  -27.9479 C   0  0  2  0  0  0  0  0  0  0  0  0
   -8.9926  -11.3485  -26.9509 O   0  0  0  0  0  0  0  0  0  0  0  0
   -5.6165   -7.0062  -19.3594 C   0  0  0  0  0  0  0  0  0  0  0  0
   -6.7852  -10.7766  -22.1568 C   0  0  2  0  0  0  0  0  0  0  0  0
   -7.1808  -11.2679  -20.8161 N   0  0  0  0  0  0  0  0  0  0  0  0
   -7.0344  -11.1883  -28.4677 C   0  0  1  0  0  0  0  0  0  0  0  0
   -7.2871  -12.5484  -29.0538 N   0  0  0  0  0  0  0  0  0  0  0  0
   -5.1693   -8.3192  -18.6539 C   0  0  0  0  0  0  0  0  0  0  0  0
   -7.4637   -9.3651  -22.4505 C   0  0  2  0  0  0  0  0  0  0  0  0
   -6.3846  -10.2258  -29.6098 C   0  0  1  0  0  0  0  0  0  0  0  0
   -7.2453  -10.0624  -30.7205 O   0  0  0  0  0  0  0  0  0  0  0  0
   -5.9517   -9.4089  -18.6618 C   0  0  2  0  0  0  0  0  0  0  0  0
   -7.2384   -9.4531  -19.3031 O   0  0  0  0  0  0  0  0  0  0  0  0
   -7.0394   -8.8718  -23.8970 C   0  0  2  0  0  0  0  0  0  0  0  0
   -7.6632   -7.6136  -24.1832 O   0  0  0  0  0  0  0  0  0  0  0  0
   -6.1188   -8.8079  -29.0005 C   0  0  0  0  0  0  0  0  0  0  0  0
   -7.3927   -8.2711  -28.3697 O   0  0  0  0  0  0  0  0  0  0  0  0
   -5.5262  -10.7219  -17.9643 C   0  0  0  0  0  0  0  0  0  0  0  0
   -5.4197  -11.7857  -18.9529 N   0  0  0  0  0  0  0  0  0  0  0  0
   -7.4996   -9.9208  -24.9728 C   0  0  1  0  0  0  0  0  0  0  0  0
   -7.1018   -9.4518  -26.2388 O   0  0  0  0  0  0  0  0  0  0  0  0
   -5.0573  -10.7113  -30.2156 C   0  0  0  0  0  0  0  0  0  0  0  0
   -6.9529  -13.7025  -28.1978 C   0  0  0  0  0  0  0  0  0  0  0  0
  1  2  1  6  0  0  0
  1  6  1  0  0  0  0
  1 21  1  0  0  0  0
  3  4  1  6  0  0  0
  3  8  1  0  0  0  0
  3 28  1  0  0  0  0
  5  9  1  0  0  0  0
  5 25  1  0  0  0  0
  5 29  1  1  0  0  0
  6  7  1  6  0  0  0
  6 11  1  0  0  0  0
  8 12  1  0  0  0  0
  9 10  1  1  0  0  0
  9 14  1  0  0  0  0
 11 16  1  0  0  0  0
 12 13  1  1  0  0  0
 12 17  1  0  0  0  0
 14 15  1  6  0  0  0
 14 18  1  0  0  0  0
 15 31  1  0  0  0  0
 16 20  1  0  0  0  0
 17  2  1  1  0  0  0
 17 22  1  0  0  0  0
 18 19  1  6  0  0  0
 18 24  1  0  0  0  0
 18 30  1  0  0  0  0
 20 21  1  0  0  0  0
 20 26  1  1  0  0  0
 22 23  1  6  0  0  0
 22 28  1  0  0  0  0
 24 25  1  0  0  0  0
 26 27  1  0  0  0  0
 28 29  1  6  0  0  0
M  END
>  <CHROM.1>
-163.37521111,-79.14745153,-101.42216268,-83.47116984,-118.21648402,121.40314029
-6.95119215,-9.85294079,-24.20220556,0.95884243,-1.45892963,0.77445098

>  <Name>
ligand

>  <RI>
0

>  <Rbt.Current_Directory>
/home/itssahil/PROJECTS/Mol_Feturizer/New_Systems/rnas/4F8U

>  <Rbt.Executable>
rbdock ($Id: //depot/dev/client3/rdock/2013.1/src/exe/rbdock.cxx#4 $)

>  <Rbt.Library>
libRbt.so (2013.1, Build901 2013/11/27)

>  <Rbt.Parameter_File>
/export/apps/rDock/src/rDock_2013.1_src/data/scripts/dock_solv.prm

>  <Rbt.Receptor>
prm/blind_docking_100.prm

>  <SCORE>
25.2649

>  <SCORE.INTER>
-0.551917

>  <SCORE.INTER.CONST>
1

>  <SCORE.INTER.POLAR>
0

>  <SCORE.INTER.ROT>
6

>  <SCORE.INTER.SOLV>
25.7688

>  <SCORE.INTER.VDW>
-16.5575

>  <SCORE.INTER.norm>
-0.0178038

>  <SCORE.INTRA>
5.71767

>  <SCORE.INTRA.DIHEDRAL>
-3.62264

>  <SCORE.INTRA.DIHEDRAL.0>
18.77

>  <SCORE.INTRA.POLAR>
0

>  <SCORE.INTRA.POLAR.0>
0

>  <SCORE.INTRA.REPUL>
0

>  <SCORE.INTRA.REPUL.0>
0

>  <SCORE.INTRA.SOLV>
8.49863

>  <SCORE.INTRA.SOLV.lig_0>
-77.2465

>  <SCORE.INTRA.VDW>
3.27968

>  <SCORE.INTRA.VDW.0>
-4.16072

>  <SCORE.INTRA.norm>
0.184441

>  <SCORE.RESTR>
20.0992

>  <SCORE.RESTR.CAVITY>
20.0992

>  <SCORE.RESTR.norm>
0.648361

>  <SCORE.SYSTEM>
0

>  <SCORE.SYSTEM.CONST>
0

>  <SCORE.SYSTEM.DIHEDRAL>
0

>  <SCORE.SYSTEM.SOLV>
0

>  <SCORE.SYSTEM.norm>
0

>  <SCORE.heavy>
31

>  <SCORE.norm>
0.814998

>  <RMSD>
12.456

$$$$
