@<TRIPOS>MOLECULE
4F8U_rdock.pdb
 321 357 0 0 0
SMALL
GASTEIGER

@<TRIPOS>ATOM
      1  P        -11.4690  -16.5650  -20.8450 P.3    16  G16         0.1280
      2  C5'      -11.6890  -15.2320  -23.0930 C.3    16  G16         0.1795
      3  O5'      -11.2530  -15.2650  -21.7390 O.3    16  G16        -0.3259
      4  C4'      -11.4150  -13.8760  -23.6860 C.3    16  G16         0.1772
      5  O4'      -12.1790  -12.8900  -22.9480 O.3    16  G16        -0.3307
      6  C3'       -9.9800  -13.3810  -23.5800 C.3    16  G16         0.1860
      7  O3'       -9.1610  -13.8590  -24.6490 O.3    16  G16        -0.3112
      8  C2'      -10.1700  -11.8760  -23.6960 C.3    16  G16         0.2309
      9  O2'      -10.3450  -11.4660  -25.0390 O.3    16  G16        -0.2156
     10  C1'      -11.4660  -11.6720  -22.9080 C.3    16  G16         0.2408
     11  N1       -10.6120   -7.8850  -19.6330 N.ar   16  G16        -0.1709
     12  C2       -10.7890   -7.8400  -20.9920 C.ar   16  G16         0.2606
     13  N2       -10.7250   -6.6220  -21.5540 N.pl3  16  G16        -0.0859
     14  N3       -11.0060   -8.9100  -21.7460 N.ar   16  G16        -0.1918
     15  C4       -11.0320  -10.0450  -21.0190 C.ar   16  G16         0.1723
     16  C5       -10.8610  -10.1990  -19.6600 C.ar   16  G16         0.1748
     17  C6       -10.6260   -9.0420  -18.8640 C.ar   16  G16         0.3023
     18  O6       -10.4380   -8.9670  -17.6520 O.2    16  G16        -0.2633
     19  N7       -10.9520  -11.5400  -19.3010 N.ar   16  G16        -0.2173
     20  C8       -11.1770  -12.1650  -20.4290 C.ar   16  G16         0.1817
     21  N9       -11.2370  -11.3170  -21.5100 N.ar   16  G16        -0.2693
     22  OP1      -10.9660  -17.7410  -21.6020 O.3    16  G16        -0.1955
     23  OP2      -10.9270  -16.2770  -19.4860 O.co2  16  G16        -0.7863
     24  P         -8.0740  -15.0080  -24.3710 P.3    17  A17         0.2141
     25  C5'       -5.4790  -15.0180  -24.4820 C.3    17  A17         0.1812
     26  O5'       -6.6990  -14.4250  -24.9360 O.3    17  A17        -0.3114
     27  C4'       -4.2440  -14.1950  -24.8190 C.3    17  A17         0.1773
     28  O4'       -3.9610  -14.1790  -26.2410 O.3    17  A17        -0.3307
     29  C3'       -4.0590  -12.7350  -24.4360 C.3    17  A17         0.1860
     30  O3'       -3.8450  -12.5570  -23.0310 O.3    17  A17        -0.3112
     31  C2'       -2.7530  -12.4360  -25.1750 C.3    17  A17         0.2309
     32  O2'       -1.6430  -12.9750  -24.4910 O.3    17  A17        -0.2156
     33  C1'       -2.9200  -13.2430  -26.4680 C.3    17  A17         0.2408
     34  N1        -3.4070  -12.8920  -31.5710 N.ar   17  A17        -0.2040
     35  C2        -3.0600  -13.9120  -30.7780 C.ar   17  A17         0.2016
     36  N3        -2.9630  -13.9490  -29.4490 N.ar   17  A17        -0.2048
     37  C4        -3.2690  -12.7500  -28.9230 C.ar   17  A17         0.1692
     38  C5        -3.6440  -11.6120  -29.6120 C.ar   17  A17         0.1518
     39  C6        -3.7170  -11.7060  -31.0010 C.ar   17  A17         0.1919
     40  N6        -4.0800  -10.6870  -31.7820 N.pl3  17  A17        -0.1054
     41  N7        -3.8780  -10.5610  -28.7380 N.ar   17  A17        -0.2193
     42  C8        -3.6450  -11.0770  -27.5600 C.ar   17  A17         0.1816
     43  N9        -3.2690  -12.3950  -27.5980 N.ar   17  A17        -0.2693
     44  OP1       -8.4650  -16.2180  -25.1460 O.2    17  A17        -0.5172
     45  OP2       -7.9100  -15.1190  -22.8970 O.co2  17  A17        -0.4373
     46  P         -3.5740  -11.0780  -22.4350 P.3    18  A18         0.2141
     47  C5'       -0.9800  -11.0950  -22.0380 C.3    18  A18         0.1812
     48  O5'       -2.0780  -10.7390  -22.8690 O.3    18  A18        -0.3114
     49  C4'        0.3350  -10.7250  -22.6950 C.3    18  A18         0.1773
     50  O4'        0.4940  -11.4630  -23.9370 O.3    18  A18        -0.3307
     51  C3'        0.5210   -9.2780  -23.1320 C.3    18  A18         0.1860
     52  O3'        0.9180   -8.4430  -22.0460 O.3    18  A18        -0.3112
     53  C2'        1.6830   -9.4100  -24.1120 C.3    18  A18         0.2309
     54  O2'        2.9320   -9.4930  -23.4530 O.3    18  A18        -0.2156
     55  C1'        1.3670  -10.7460  -24.7950 C.3    18  A18         0.2408
     56  N1         0.0650  -12.9210  -29.2930 N.ar   18  A18        -0.2040
     57  C2         0.5760  -13.4360  -28.1570 C.ar   18  A18         0.2016
     58  N3         0.8570  -12.8250  -27.0060 N.ar   18  A18        -0.2048
     59  C4         0.5480  -11.5170  -27.0740 C.ar   18  A18         0.1692
     60  C5         0.0060  -10.8470  -28.1580 C.ar   18  A18         0.1518
     61  C6        -0.2280  -11.6010  -29.3270 C.ar   18  A18         0.1919
     62  N6        -0.7090  -11.0810  -30.4570 N.pl3  18  A18        -0.1054
     63  N7        -0.1980   -9.5080  -27.8560 N.ar   18  A18        -0.2193
     64  C8         0.2360   -9.3940  -26.6250 C.ar   18  A18         0.1816
     65  N9         0.7280  -10.5640  -26.0990 N.ar   18  A18        -0.2693
     66  OP1       -3.6010  -11.1780  -20.9480 O.3    18  A18        -0.4373
     67  OP2       -4.4620  -10.1070  -23.1130 O.co2  18  A18        -0.5172
     68  P         -0.1930   -7.6620  -21.1900 P.3    19  G19         0.2141
     69  C5'        0.6880   -5.2210  -21.6670 C.3    19  G19         0.1812
     70  O5'        0.5390   -6.3130  -20.7630 O.3    19  G19        -0.3114
     71  C4'        0.2770   -3.9410  -20.9830 C.3    19  G19         0.1773
     72  O4'       -1.1680   -3.9270  -20.8220 O.3    19  G19        -0.3307
     73  C3'        0.8170   -3.8130  -19.5690 C.3    19  G19         0.1860
     74  O3'        2.1300   -3.2630  -19.5620 O.3    19  G19        -0.3112
     75  C2'       -0.2150   -2.9130  -18.9010 C.3    19  G19         0.2309
     76  O2'       -0.0260   -1.5440  -19.1950 O.3    19  G19        -0.2156
     77  C1'       -1.5110   -3.4100  -19.5470 C.3    19  G19         0.2408
     78  N1        -3.5860   -4.7690  -15.1070 N.ar   19  G19        -0.1709
     79  C2        -3.0610   -3.5580  -15.4880 C.ar   19  G19         0.2606
     80  N2        -3.0820   -2.5860  -14.5580 N.pl3  19  G19        -0.0859
     81  N3        -2.5520   -3.3150  -16.6900 N.ar   19  G19        -0.1918
     82  C4        -2.6150   -4.4000  -17.4930 C.ar   19  G19         0.1723
     83  C5        -3.1220   -5.6520  -17.2100 C.ar   19  G19         0.1748
     84  C6        -3.6620   -5.8990  -15.9150 C.ar   19  G19         0.3023
     85  O6        -4.1610   -6.9440  -15.4690 O.2    19  G19        -0.2633
     86  N7        -3.0010   -6.4910  -18.3080 N.ar   19  G19        -0.2173
     87  C8        -2.4310   -5.7520  -19.2180 C.ar   19  G19         0.1817
     88  N9        -2.1620   -4.4750  -18.7870 N.ar   19  G19        -0.2693
     89  OP1       -0.4280   -8.4600  -19.9570 O.3    19  G19        -0.4373
     90  OP2       -1.3380   -7.3450  -22.0770 O.co2  19  G19        -0.5172
     91  P          3.1710   -3.7090  -18.4200 P.3    20  U20         0.2141
     92  C5'        2.2750   -1.7200  -16.9660 C.3    20  U20         0.1812
     93  O5'        2.5440   -3.1120  -17.0830 O.3    20  U20        -0.3114
     94  C4'        1.7890   -1.3980  -15.5780 C.3    20  U20         0.1773
     95  O4'        0.4560   -1.9300  -15.3840 O.3    20  U20        -0.3307
     96  C3'        2.5900   -2.0210  -14.4480 C.3    20  U20         0.1860
     97  O3'        3.7510   -1.2610  -14.1530 O.3    20  U20        -0.3112
     98  C2'        1.6010   -1.9810  -13.2930 C.3    20  U20         0.2309
     99  O2'        1.5660   -0.7240  -12.6460 O.3    20  U20        -0.2156
    100  C1'        0.2800   -2.2660  -14.0150 C.3    20  U20         0.2420
    101  N1        -0.0980   -3.6810  -13.9250 N.ar   20  U20        -0.2534
    102  C2        -0.6140   -4.1240  -12.7240 C.ar   20  U20         0.3546
    103  O2        -0.7610   -3.3920  -11.7610 O.2    20  U20        -0.2443
    104  N3        -0.9490   -5.4540  -12.6900 N.ar   20  U20        -0.1530
    105  C4        -0.8210   -6.3650  -13.7140 C.ar   20  U20         0.2846
    106  O4        -1.1960   -7.5260  -13.5410 O.2    20  U20        -0.2650
    107  C5        -0.2750   -5.8290  -14.9250 C.ar   20  U20         0.0814
    108  C6         0.0580   -4.5350  -14.9870 C.ar   20  U20         0.0870
    109  OP1        4.4460   -3.0030  -18.7080 O.2    20  U20        -0.5172
    110  OP2        3.1570   -5.1930  -18.3070 O.co2  20  U20        -0.4373
    111  P          4.9420   -1.9290  -13.3080 P.3    21  C21         0.2141
    112  C5'        4.2020   -0.8880  -11.0090 C.3    21  C21         0.1812
    113  O5'        4.3550   -2.0420  -11.8300 O.3    21  C21        -0.3114
    114  C4'        3.6260   -1.2810   -9.6700 C.3    21  C21         0.1773
    115  O4'        2.3600   -1.9550   -9.9030 O.3    21  C21        -0.3307
    116  C3'        4.4400   -2.2870   -8.8640 C.3    21  C21         0.1860
    117  O3'        5.4530   -1.6490   -8.0850 O.3    21  C21        -0.3112
    118  C2'        3.3750   -2.9370   -7.9870 C.3    21  C21         0.2309
    119  O2'        3.0520   -2.1770   -6.8370 O.3    21  C21        -0.2156
    120  C1'        2.1830   -2.9890   -8.9480 C.3    21  C21         0.2420
    121  N1         2.0620   -4.2680   -9.6740 N.ar   21  C21        -0.2535
    122  C2         1.3610   -5.3240   -9.0760 C.ar   21  C21         0.3532
    123  O2         0.8620   -5.1570   -7.9550 O.2    21  C21        -0.2443
    124  N3         1.2440   -6.4970   -9.7320 N.ar   21  C21        -0.1739
    125  C4         1.7920   -6.6410  -10.9380 C.ar   21  C21         0.1759
    126  N4         1.6480   -7.8170  -11.5460 N.pl3  21  C21        -0.1070
    127  C5         2.5110   -5.5850  -11.5720 C.ar   21  C21         0.0566
    128  C6         2.6210   -4.4270  -10.9110 C.ar   21  C21         0.0850
    129  OP1        6.0460   -0.9400  -13.3210 O.3    21  C21        -0.4373
    130  OP2        5.1860   -3.3080  -13.8130 O.co2  21  C21        -0.5172
    131  P          6.7380   -2.4920   -7.5920 P.3    22  G22         0.2141
    132  C5'        5.6260   -3.0050   -5.2640 C.3    22  G22         0.1812
    133  O5'        6.1560   -3.4890   -6.4930 O.3    22  G22        -0.3114
    134  C4'        5.0040   -4.1410   -4.4890 C.3    22  G22         0.1773
    135  O4'        3.8720   -4.6580   -5.2370 O.3    22  G22        -0.3307
    136  C3'        5.9030   -5.3520   -4.2990 C.3    22  G22         0.1860
    137  O3'        6.7610   -5.2060   -3.1720 O.3    22  G22        -0.3112
    138  C2'        4.8980   -6.4810   -4.1030 C.3    22  G22         0.2309
    139  O2'        4.3960   -6.5610   -2.7830 O.3    22  G22        -0.2156
    140  C1'        3.7940   -6.0690   -5.0800 C.3    22  G22         0.2408
    141  N1         3.2440  -10.2990   -7.8640 N.ar   22  G22        -0.1709
    142  C2         2.9600  -10.0890   -6.5340 C.ar   22  G22         0.2606
    143  N2         2.4700  -11.1440   -5.8620 N.pl3  22  G22        -0.0859
    144  N3         3.1440   -8.9330   -5.9120 N.ar   22  G22        -0.1918
    145  C4         3.6430   -7.9870   -6.7390 C.ar   22  G22         0.1723
    146  C5         3.9600   -8.0940   -8.0770 C.ar   22  G22         0.1748
    147  C6         3.7580   -9.3410   -8.7330 C.ar   22  G22         0.3023
    148  O6         3.9790   -9.6360   -9.9160 O.2    22  G22        -0.2633
    149  N7         4.4490   -6.8900   -8.5660 N.ar   22  G22        -0.2173
    150  C8         4.4210   -6.0860   -7.5380 C.ar   22  G22         0.1817
    151  N9         3.9450   -6.6850   -6.3960 N.ar   22  G22        -0.2693
    152  OP1        7.6530   -1.5320   -6.9250 O.3    22  G22        -0.4373
    153  OP2        7.2450   -3.3160   -8.7200 O.co2  22  G22        -0.5172
    154  P          8.2220   -5.8780   -3.1960 P.3    23  C23         0.2141
    155  C5'        7.5110   -7.9410   -1.7240 C.3    23  C23         0.1813
    156  O5'        7.9470   -7.4390   -2.9860 O.3    23  C23        -0.3114
    157  C4'        7.2750   -9.4350   -1.7910 C.3    23  C23         0.1801
    158  O4'        6.1980   -9.7270   -2.7180 O.3    23  C23        -0.3306
    159  C3'        8.4240  -10.2860   -2.3020 C.3    23  C23         0.2161
    160  O3'        9.4810  -10.4800   -1.3630 O.3    23  C23        -0.2175
    161  C2'        7.7110  -11.5660   -2.7180 C.3    23  C23         0.2338
    162  O2'        7.4140  -12.4390   -1.6460 O.3    23  C23        -0.2155
    163  C1'        6.4120  -11.0060   -3.3030 C.3    23  C23         0.2421
    164  N1         6.5020  -10.8460   -4.7630 N.ar   23  C23        -0.2535
    165  C2         6.2260  -11.9500   -5.5780 C.ar   23  C23         0.3532
    166  O2         5.8910  -13.0210   -5.0430 O.2    23  C23        -0.2443
    167  N3         6.3310  -11.8230   -6.9200 N.ar   23  C23        -0.1739
    168  C4         6.6890  -10.6530   -7.4540 C.ar   23  C23         0.1759
    169  N4         6.7860  -10.5750   -8.7820 N.pl3  23  C23        -0.1070
    170  C5         6.9660   -9.5100   -6.6480 C.ar   23  C23         0.0566
    171  C6         6.8600   -9.6490   -5.3200 C.ar   23  C23         0.0850
    172  OP1        8.9470   -5.3590   -2.0070 O.3    23  C23        -0.4373
    173  OP2        8.7930   -5.6660   -4.5540 O.co2  23  C23        -0.5172
    174  P          3.0480  -18.4060  -15.9030 P.3    26  G26         0.1280
    175  C5'        3.7480  -19.7900  -13.7270 C.3    26  G26         0.1795
    176  O5'        3.6410  -18.5160  -14.3890 O.3    26  G26        -0.3259
    177  C4'        3.7150  -19.6060  -12.2280 C.3    26  G26         0.1772
    178  O4'        4.8940  -18.8780  -11.7990 O.3    26  G26        -0.3307
    179  C3'        2.5640  -18.7710  -11.6930 C.3    26  G26         0.1860
    180  O3'        1.3880  -19.5510  -11.5390 O.3    26  G26        -0.3112
    181  C2'        3.0980  -18.3210  -10.3410 C.3    26  G26         0.2309
    182  O2'        2.9630  -19.3260   -9.3560 O.3    26  G26        -0.2156
    183  C1'        4.5770  -18.0920  -10.6630 C.3    26  G26         0.2408
    184  N1         5.5360  -13.5250   -8.7140 N.ar   26  G26        -0.1709
    185  C2         5.2450  -14.7060   -8.0760 C.ar   26  G26         0.2606
    186  N2         5.1990  -14.6650   -6.7370 N.pl3  26  G26        -0.0859
    187  N3         5.0130  -15.8430   -8.7030 N.ar   26  G26        -0.1918
    188  C4         5.0880  -15.7050  -10.0410 C.ar   26  G26         0.1723
    189  C5         5.3680  -14.5730  -10.7780 C.ar   26  G26         0.1748
    190  C6         5.6220  -13.3600  -10.0940 C.ar   26  G26         0.3023
    191  O6         5.8910  -12.2520  -10.5670 O.2    26  G26        -0.2633
    192  N7         5.3450  -14.8510  -12.1370 N.ar   26  G26        -0.2173
    193  C8         5.0610  -16.1240  -12.1990 C.ar   26  G26         0.1817
    194  N9         4.8940  -16.7000  -10.9610 N.ar   26  G26        -0.2693
    195  OP1        3.1210  -16.9270  -16.2460 O.3    26  G26        -0.1955
    196  OP2        3.9560  -19.2750  -16.7660 O.co2  26  G26        -0.7863
    197  P         -0.0420  -18.8230  -11.4690 P.3    27  C27         0.2141
    198  C5'       -0.1260  -18.8680   -8.8540 C.3    27  C27         0.1812
    199  O5'       -0.0380  -18.1040  -10.0490 O.3    27  C27        -0.3114
    200  C4'       -0.0760  -17.9600   -7.6570 C.3    27  C27         0.1773
    201  O4'        1.2200  -17.3060   -7.6050 O.3    27  C27        -0.3307
    202  C3'       -1.0580  -16.8050   -7.6880 C.3    27  C27         0.1860
    203  O3'       -2.3520  -17.2160   -7.2640 O.3    27  C27        -0.3112
    204  C2'       -0.4070  -15.8240   -6.7240 C.3    27  C27         0.2309
    205  O2'       -0.6090  -16.1820   -5.3730 O.3    27  C27        -0.2156
    206  C1'        1.0710  -15.9930   -7.0860 C.3    27  C27         0.2420
    207  N1         1.5240  -15.0360   -8.1120 N.ar   27  C27        -0.2535
    208  C2         1.9890  -13.7720   -7.7050 C.ar   27  C27         0.3532
    209  O2         2.0260  -13.5040   -6.4950 O.2    27  C27        -0.2443
    210  N3         2.3850  -12.8810   -8.6430 N.ar   27  C27        -0.1739
    211  C4         2.3340  -13.2070   -9.9370 C.ar   27  C27         0.1759
    212  N4         2.7250  -12.2910  -10.8250 N.pl3  27  C27        -0.1070
    213  C5         1.8770  -14.4870  -10.3780 C.ar   27  C27         0.0566
    214  C6         1.4860  -15.3620   -9.4410 C.ar   27  C27         0.0850
    215  OP1       -1.0740  -19.8890  -11.4430 O.3    27  C27        -0.4373
    216  OP2       -0.0860  -17.7760  -12.5270 O.co2  27  C27        -0.5172
    217  P         -3.6510  -16.4390   -7.8080 P.3    28  G28         0.2141
    218  C5'       -3.9500  -15.0890   -5.5740 C.3    28  G28         0.1812
    219  O5'       -3.6660  -15.0800   -6.9710 O.3    28  G28        -0.3114
    220  C4'       -3.6430  -13.7430   -4.9630 C.3    28  G28         0.1773
    221  O4'       -2.2240  -13.4620   -5.0880 O.3    28  G28        -0.3307
    222  C3'       -4.3050  -12.5500   -5.6260 C.3    28  G28         0.1860
    223  O3'       -5.6350  -12.3670   -5.1720 O.3    28  G28        -0.3112
    224  C2'       -3.4000  -11.4030   -5.1990 C.3    28  G28         0.2309
    225  O2'       -3.6560  -10.9320   -3.8910 O.3    28  G28        -0.2156
    226  C1'       -2.0260  -12.0690   -5.2790 C.3    28  G28         0.2408
    227  N1         0.2350   -8.7880   -8.4220 N.ar   28  G28        -0.1709
    228  C2        -0.1790   -8.6070   -7.1260 C.ar   28  G28         0.2606
    229  N2         0.0240   -7.3880   -6.6080 N.pl3  28  G28        -0.0859
    230  N3        -0.7490   -9.5500   -6.3940 N.ar   28  G28        -0.1918
    231  C4        -0.8700  -10.7120   -7.0730 C.ar   28  G28         0.1723
    232  C5        -0.4860  -10.9970   -8.3650 C.ar   28  G28         0.1748
    233  C6         0.1180   -9.9730   -9.1400 C.ar   28  G28         0.3023
    234  O6         0.5190  -10.0250  -10.3080 O.2    28  G28        -0.2633
    235  N7        -0.7860  -12.3130   -8.6900 N.ar   28  G28        -0.2173
    236  C8        -1.3390  -12.7940   -7.6110 C.ar   28  G28         0.1817
    237  N9        -1.4300  -11.8730   -6.5950 N.ar   28  G28        -0.2693
    238  OP1       -4.8400  -17.2320   -7.4110 O.3    28  G28        -0.4373
    239  OP2       -3.4320  -16.1200   -9.2440 O.co2  28  G28        -0.5172
    240  P         -6.6530  -11.4910   -6.0490 P.3    29  U29         0.2141
    241  C5'       -6.2650   -9.3110   -4.6640 C.3    29  U29         0.1812
    242  O5'       -6.1090  -10.0010   -5.8920 O.3    29  U29        -0.3114
    243  C4'       -5.7260   -7.9100   -4.7730 C.3    29  U29         0.1773
    244  O4'       -4.3150   -7.9650   -5.1060 O.3    29  U29        -0.3307
    245  C3'       -6.2870   -7.0310   -5.8780 C.3    29  U29         0.1860
    246  O3'       -7.5640   -6.4820   -5.5700 O.3    29  U29        -0.3112
    247  C2'       -5.2230   -5.9450   -5.9520 C.3    29  U29         0.2309
    248  O2'       -5.3110   -4.9820   -4.9180 O.3    29  U29        -0.2156
    249  C1'       -3.9480   -6.7740   -5.7940 C.3    29  U29         0.2420
    250  N1        -3.4090   -7.1230   -7.1160 N.ar   29  U29        -0.2534
    251  C2        -2.7280   -6.1280   -7.8070 C.ar   29  U29         0.3546
    252  O2        -2.5330   -5.0130   -7.3470 O.2    29  U29        -0.2443
    253  N3        -2.2890   -6.4870   -9.0570 N.ar   29  U29        -0.1530
    254  C4        -2.4570   -7.7100   -9.6750 C.ar   29  U29         0.2846
    255  O4        -2.0480   -7.8620  -10.8260 O.2    29  U29        -0.2650
    256  C5        -3.1530   -8.6910   -8.8910 C.ar   29  U29         0.0814
    257  C6        -3.5900   -8.3720   -7.6660 C.ar   29  U29         0.0870
    258  OP1       -7.9810  -11.5600   -5.3890 O.3    29  U29        -0.4373
    259  OP2       -6.5170  -11.9120   -7.4700 O.co2  29  U29        -0.5172
    260  P         -8.5380   -6.0160   -6.7660 P.3    30  C30         0.2141
    261  C5'       -7.4670   -3.6150   -6.8890 C.3    30  C30         0.1812
    262  O5'       -7.7250   -4.8660   -7.5180 O.3    30  C30        -0.3114
    263  C4'       -6.7310   -2.6970   -7.8340 C.3    30  C30         0.1773
    264  O4'       -5.4730   -3.3220   -8.2160 O.3    30  C30        -0.3307
    265  C3'       -7.4150   -2.4390   -9.1670 C.3    30  C30         0.1860
    266  O3'       -8.4000   -1.4160   -9.1010 O.3    30  C30        -0.3112
    267  C2'       -6.2430   -2.0290  -10.0480 C.3    30  C30         0.2309
    268  O2'       -5.8260   -0.6930   -9.8280 O.3    30  C30        -0.2156
    269  C1'       -5.1700   -3.0120   -9.5760 C.3    30  C30         0.2420
    270  N1        -5.1630   -4.2700  -10.3620 N.ar   30  C30        -0.2535
    271  C2        -4.6610   -4.2510  -11.6780 C.ar   30  C30         0.3532
    272  O2        -4.2380   -3.1830  -12.1490 O.2    30  C30        -0.2443
    273  N3        -4.6550   -5.3970  -12.4000 N.ar   30  C30        -0.1739
    274  C4        -5.1240   -6.5250  -11.8650 C.ar   30  C30         0.1759
    275  N4        -5.0980   -7.6290  -12.6160 N.pl3  30  C30        -0.1070
    276  C5        -5.6390   -6.5740  -10.5360 C.ar   30  C30         0.0566
    277  C6        -5.6380   -5.4360   -9.8270 C.ar   30  C30         0.0850
    278  OP1       -9.7490   -5.3980   -6.1660 O.3    30  C30        -0.4373
    279  OP2       -8.6870   -7.1740   -7.6830 O.co2  30  C30        -0.5172
    280  P         -9.5600   -1.3660  -10.2170 P.3    31  A31         0.2141
    281  C5'       -8.1860    0.3130  -11.7060 C.3    31  A31         0.1812
    282  O5'       -8.7970   -0.9660  -11.5610 O.3    31  A31        -0.3114
    283  C4'       -7.6290    0.4720  -13.1030 C.3    31  A31         0.1773
    284  O4'       -6.5540   -0.4850  -13.3160 O.3    31  A31        -0.3307
    285  C3'       -8.6010    0.1670  -14.2270 C.3    31  A31         0.1860
    286  O3'       -9.4650    1.2600  -14.4930 O.3    31  A31        -0.3112
    287  C2'       -7.6660   -0.1420  -15.3900 C.3    31  A31         0.2309
    288  O2'       -7.1500    1.0030  -16.0420 O.3    31  A31        -0.2156
    289  C1'       -6.5530   -0.9090  -14.6740 C.3    31  A31         0.2408
    290  N1        -6.4230   -5.1870  -17.5330 N.ar   31  A31        -0.2040
    291  C2        -6.0990   -3.9160  -17.8040 C.ar   31  A31         0.2016
    292  N3        -6.1470   -2.8460  -17.0080 N.ar   31  A31        -0.2048
    293  C4        -6.5930   -3.1850  -15.7820 C.ar   31  A31         0.1692
    294  C5        -6.9620   -4.4490  -15.3540 C.ar   31  A31         0.1518
    295  C6        -6.8680   -5.4940  -16.2920 C.ar   31  A31         0.1919
    296  N6        -7.1910   -6.7620  -16.0240 N.pl3  31  A31        -0.1054
    297  N7        -7.3720   -4.4170  -14.0260 N.ar   31  A31        -0.2193
    298  C8        -7.2460   -3.1580  -13.6870 C.ar   31  A31         0.1816
    299  N9        -6.7850   -2.3530  -14.7030 N.ar   31  A31        -0.2693
    300  OP1      -10.4930   -0.2650   -9.8680 O.3    31  A31        -0.4373
    301  OP2      -10.0780   -2.7520  -10.3580 O.co2  31  A31        -0.5172
    302  P        -10.9890    0.9730  -14.9170 P.3    32  C32         0.2141
    303  C5'      -10.1620    1.1400  -17.4100 C.3    32  C32         0.1813
    304  O5'      -10.8640    0.4070  -16.4060 O.3    32  C32        -0.3114
    305  C4'       -9.9070    0.2740  -18.6290 C.3    32  C32         0.1801
    306  O4'       -9.0580   -0.8470  -18.2640 O.3    32  C32        -0.3306
    307  C3'      -11.1150   -0.3870  -19.2810 C.3    32  C32         0.2161
    308  O3'      -11.7970    0.5040  -20.1630 O.3    32  C32        -0.2175
    309  C2'      -10.4710   -1.5340  -20.0570 C.3    32  C32         0.2338
    310  O2'       -9.9360   -1.1550  -21.3090 O.3    32  C32        -0.2155
    311  C1'       -9.3400   -1.9510  -19.1140 C.3    32  C32         0.2421
    312  N1        -9.7160   -3.1140  -18.2910 N.ar   32  C32        -0.2535
    313  C2        -9.7840   -4.3680  -18.9080 C.ar   32  C32         0.3532
    314  O2        -9.5020   -4.4560  -20.1170 O.2    32  C32        -0.2443
    315  N3       -10.1520   -5.4460  -18.1800 N.ar   32  C32        -0.1739
    316  C4       -10.4460   -5.3080  -16.8850 C.ar   32  C32         0.1759
    317  N4       -10.8170   -6.4000  -16.2110 N.pl3  32  C32        -0.1070
    318  C5       -10.3740   -4.0440  -16.2250 C.ar   32  C32         0.0566
    319  C6       -10.0060   -2.9830  -16.9600 C.ar   32  C32         0.0850
    320  OP1      -11.6940    2.2820  -14.9570 O.2    32  C32        -0.5172
    321  OP2      -11.5040   -0.1050  -14.0320 O.co2  32  C32        -0.4373
@<TRIPOS>BOND
     1    40    39    1
     2    34    39   ar
     3    34    35   ar
     4    39    38   ar
     5    35    36   ar
     6    62    61    1
     7    38    37   ar
     8    38    41   ar
     9    36    37   ar
    10    61    56   ar
    11    61    60   ar
    12    56    57   ar
    13    37    43   ar
    14    41    42   ar
    15    60    63   ar
    16    60    59   ar
    17    57    58   ar
    18    63    64   ar
    19    43    42   ar
    20    43    33    1
    21    59    58   ar
    22    59    65   ar
    23    64    65   ar
    24    33    28    1
    25    33    31    1
    26    28    27    1
    27    65    55    1
    28    31    32    1
    29    31    29    1
    30    44    24    2
    31     9     8    1
    32    26    25    1
    33    26    24    1
    34    27    25    1
    35    27    29    1
    36    55    53    1
    37    55    50    1
    38     7    24    1
    39     7     6    1
    40    29    30    1
    41    24    45    1
    42    53    54    1
    43    53    51    1
    44    50    49    1
    45     8     6    1
    46     8    10    1
    47     4     6    1
    48     4     2    1
    49     4     5    1
    50    51    49    1
    51    51    52    1
    52    67    46    2
    53     2     3    1
    54    30    46    1
    55     5    10    1
    56    10    21    1
    57    48    46    1
    58    48    47    1
    59    49    47    1
    60    46    66    1
    61    90    68    2
    62    52    68    1
    63    14    15   ar
    64    14    12   ar
    65     3     1    1
    66    69    71    1
    67    69    70    1
    68    22     1    1
    69    13    12    1
    70    21    15   ar
    71    21    20   ar
    72   310   309    1
    73    68    70    1
    74    68    89    1
    75    15    16   ar
    76    12    11   ar
    77    71    72    1
    78    71    73    1
    79     1    23    1
    80    72    77    1
    81    20    19   ar
    82   308   307    1
    83   314   313    2
    84   309   307    1
    85   309   311    1
    86    16    19   ar
    87    16    17   ar
    88    11    17   ar
    89    73    74    1
    90    73    75    1
    91    74    91    1
    92    77    75    1
    93    77    88    1
    94   307   305    1
    95    87    88   ar
    96    87    86   ar
    97    76    75    1
    98   311   312    1
    99   311   306    1
   100   313   312   ar
   101   313   315   ar
   102    17    18    2
   103    88    82   ar
   104   109    91    2
   105   305   306    1
   106   305   303    1
   107    91   110    1
   108    91    93    1
   109    86    83   ar
   110   312   319   ar
   111   315   316   ar
   112   291   290   ar
   113   291   292   ar
   114   290   295   ar
   115    82    83   ar
   116    82    81   ar
   117   303   304    1
   118    83    84   ar
   119    93    92    1
   120   292   293   ar
   121    92    94    1
   122   319   318   ar
   123   316   318   ar
   124   316   317    1
   125   196   174    1
   126    81    79   ar
   127   304   302    1
   128   295   296    1
   129   295   294   ar
   130   195   174    1
   131   288   287    1
   132    84    85    2
   133    84    78   ar
   134   174   176    1
   135   293   294   ar
   136   293   299   ar
   137    94    95    1
   138    94    96    1
   139    79    78   ar
   140    79    80    1
   141   287   289    1
   142   287   285    1
   143    95   100    1
   144   294   297   ar
   145   108   107   ar
   146   108   101   ar
   147   320   302    2
   148   107   105   ar
   149   302   286    1
   150   302   321    1
   151   299   289    1
   152   299   298   ar
   153   289   284    1
   154   286   285    1
   155    96    97    1
   156    96    98    1
   157   176   175    1
   158   285   283    1
   159    97   111    1
   160   297   298   ar
   161   100   101    1
   162   100    98    1
   163   101   102   ar
   164   130   111    2
   165   175   177    1
   166   105   106    2
   167   105   104   ar
   168   129   111    1
   169   284   283    1
   170   111   113    1
   171    98    99    1
   172   283   281    1
   173   102   104   ar
   174   102   103    2
   175   275   274    1
   176   216   197    2
   177   273   274   ar
   178   273   271   ar
   179   177   178    1
   180   177   179    1
   181   193   192   ar
   182   193   194   ar
   183   272   271    2
   184   192   189   ar
   185   274   276   ar
   186   113   112    1
   187   178   183    1
   188   281   282    1
   189   179   180    1
   190   179   181    1
   191   271   270   ar
   192   127   125   ar
   193   127   128   ar
   194   282   280    1
   195   126   125    1
   196   180   197    1
   197   197   215    1
   198   197   199    1
   199   112   114    1
   200   194   183    1
   201   194   188   ar
   202   125   124   ar
   203   128   121   ar
   204   255   254    2
   205   212   211    1
   206   189   190   ar
   207   189   188   ar
   208   183   181    1
   209   191   190    2
   210   276   277   ar
   211   213   211   ar
   212   213   214   ar
   213   270   277   ar
   214   270   269    1
   215   301   280    2
   216   181   182    1
   217   234   233    2
   218   280   300    1
   219   280   266    1
   220   190   184   ar
   221   199   198    1
   222   267   268    1
   223   267   269    1
   224   267   265    1
   225   188   187   ar
   226   211   210   ar
   227   148   147    2
   228   115   114    1
   229   115   120    1
   230   124   122   ar
   231   254   253   ar
   232   254   256   ar
   233   121   122   ar
   234   121   120    1
   235   114   116    1
   236   269   264    1
   237   214   207   ar
   238   239   217    2
   239   265   266    1
   240   265   263    1
   241   233   227   ar
   242   233   232   ar
   243   122   123    2
   244   253   251   ar
   245   120   118    1
   246   256   257   ar
   247   116   117    1
   248   116   118    1
   249   198   200    1
   250   169   168    1
   251   147   146   ar
   252   147   141   ar
   253   153   131    2
   254   184   185   ar
   255   187   185   ar
   256   235   232   ar
   257   235   236   ar
   258   210   208   ar
   259   149   146   ar
   260   149   150   ar
   261   227   228   ar
   262   232   231   ar
   263   264   263    1
   264   207   208   ar
   265   207   206    1
   266   117   131    1
   267   146   145   ar
   268   185   186    1
   269   118   119    1
   270   141   142   ar
   271   263   261    1
   272   217   238    1
   273   217   203    1
   274   217   219    1
   275   251   252    2
   276   251   250   ar
   277   208   209    2
   278   202   200    1
   279   202   203    1
   280   202   204    1
   281   279   260    2
   282   257   250   ar
   283   200   201    1
   284   236   237   ar
   285   201   206    1
   286   131   152    1
   287   131   133    1
   288   150   151   ar
   289   262   261    1
   290   262   260    1
   291   259   240    2
   292   168   167   ar
   293   168   170   ar
   294   228   229    1
   295   228   230   ar
   296   250   249    1
   297   206   204    1
   298   231   237   ar
   299   231   230   ar
   300   219   218    1
   301   167   165   ar
   302   260   278    1
   303   260   246    1
   304   145   151   ar
   305   145   144   ar
   306   204   205    1
   307   170   171   ar
   308   237   226    1
   309   142   144   ar
   310   142   143    1
   311   133   132    1
   312   151   140    1
   313   240   242    1
   314   240   258    1
   315   240   223    1
   316   247   245    1
   317   247   249    1
   318   247   248    1
   319   242   241    1
   320   245   246    1
   321   245   243    1
   322   249   244    1
   323   222   224    1
   324   222   223    1
   325   222   220    1
   326   165   166    2
   327   165   164   ar
   328   218   220    1
   329   171   164   ar
   330   226   224    1
   331   226   221    1
   332   132   134    1
   333   135   140    1
   334   135   134    1
   335   224   225    1
   336   244   243    1
   337   221   220    1
   338   140   138    1
   339   243   241    1
   340   164   163    1
   341   173   154    2
   342   134   136    1
   343   136   138    1
   344   136   137    1
   345   138   139    1
   346   163   161    1
   347   163   158    1
   348   154   137    1
   349   154   156    1
   350   154   172    1
   351   156   155    1
   352   161   159    1
   353   161   162    1
   354   158   157    1
   355   159   157    1
   356   159   160    1
   357   157   155    1
